data_functionalizedCrystal
_audit_creation_method	'MofGen! by Chris Wilmer'
_symmetry_space_group_name_H-M	'P1'
_symmetry_Int_Tables_number	1
_symmetry_cell_setting	triclinic
loop_
_symmetry_equiv_pos_as_xyz
  x,y,z
_cell_length_a	16.959455
_cell_length_b	12.827892
_cell_length_c	12.827885
_cell_angle_alpha	90.026888
_cell_angle_beta	90.021036
_cell_angle_gamma	90.012100
loop_
_atom_site_label
_atom_site_type_symbol
_atom_site_fract_x
_atom_site_fract_y
_atom_site_fract_z
Zn1	Zn	-1.208444	0.416128	-0.590919
Zn2	Zn	-1.208360	0.590906	-0.416188
Zn3	Zn	-1.076259	0.416163	-0.416187
Zn4	Zn	-1.076244	0.590812	-0.590883
O5	O	-1.142327	0.503502	-0.503544
O6	O	-1.319044	0.439337	-0.567756
O7	O	-1.190807	0.567779	-0.269952
O8	O	-1.093836	0.269923	-0.439380
O9	O	-1.318982	0.567746	-0.439382
O10	O	-1.190951	0.269897	-0.567755
O11	O	-1.093754	0.439397	-0.269951
O12	O	-0.965646	0.439306	-0.439345
O13	O	-1.093809	0.567586	-0.737124
O14	O	-0.965635	0.567620	-0.567693
O15	O	-1.190936	0.439247	-0.737150
O16	O	-1.190792	0.737129	-0.439347
O17	O	-1.093727	0.737060	-0.567694
C18	C	-0.936960	0.503457	-0.503516
C19	C	-0.849104	0.503464	-0.503529
C20	C	-1.142270	0.775012	-0.503539
C21	C	-1.142318	0.891165	-0.503572
C22	C	-1.142380	0.503402	-0.776114
C23	C	-1.142403	0.503359	-0.892268
C24	C	-0.477610	0.436601	-0.436839
C25	C	-0.477647	0.570423	-0.570281
C26	C	-0.560193	0.570412	-0.570277
C27	C	-0.601451	0.503496	-0.503551
C28	C	-0.560163	0.436591	-0.436830
C29	C	-0.601486	0.637323	-0.636989
C30	C	-0.684037	0.637316	-0.636986
C31	C	-0.725297	0.570394	-0.570265
C32	C	-0.684004	0.503485	-0.503542
C33	C	-0.725263	0.436569	-0.436817
C34	C	-0.683972	0.369654	-0.370098
C35	C	-0.601423	0.369668	-0.370109
C36	C	-0.807845	0.570380	-0.570254
C37	C	-0.807816	0.436558	-0.436808
C38	C	-0.348495	0.503535	-0.503568
C39	C	-0.436351	0.503517	-0.503565
C40	C	-1.190405	0.942949	-0.440135
C41	C	-1.190456	1.063000	-0.440168
C42	C	-1.142398	1.230932	-0.503584
C43	C	-1.142412	1.114779	-0.503634
C44	C	-1.190470	0.439840	-0.944066
C45	C	-1.190495	0.439795	-1.064116
C46	C	-1.142319	0.503527	-0.232034
C47	C	-1.142449	0.503275	-0.115882
H48	H	-0.841403	0.382060	-0.382477
H49	H	-0.717649	0.691801	-0.691313
H50	H	-1.101265	0.557699	-0.936798
C51	C	-0.853267	0.643978	-0.643634
C52	C	-0.841907	0.762767	-0.634903
C53	C	-0.887328	0.836369	-0.708287
C54	C	-0.944110	0.791180	-0.790403
C55	C	-0.955472	0.672385	-0.799137
C56	C	-0.910051	0.598783	-0.725753
H57	H	-0.799871	0.796224	-0.574113
H58	H	-0.878916	0.924309	-0.701821
H59	H	-0.977733	0.845665	-0.844726
H60	H	-0.997508	0.638928	-0.859927
H61	H	-0.918463	0.510843	-0.732219
H62	H	-1.231540	0.898410	-0.385803
H63	H	-1.231649	0.385417	-1.108661
C64	C	-1.246076	1.123151	-0.366792
C65	C	-1.246048	1.243197	-0.366929
C66	C	-1.301670	1.303351	-0.293551
C67	C	-1.357321	1.243459	-0.220036
C68	C	-1.357351	1.123407	-0.219896
C69	C	-1.301729	1.063253	-0.293274
H70	H	-1.204850	1.287538	-0.421352
H71	H	-1.301647	1.392222	-0.293655
H72	H	-1.398495	1.287989	-0.165717
H73	H	-1.398549	1.079066	-0.165472
H74	H	-1.301752	0.974382	-0.293170
H75	H	-0.444049	0.624909	-0.624600
C76	C	-1.086749	0.951328	-0.576981
C77	C	-1.093133	0.936328	-0.695796
C78	C	-1.037562	0.996487	-0.769207
C79	C	-0.975607	1.071646	-0.723802
C80	C	-0.969221	1.086649	-0.604980
C81	C	-1.024792	1.026490	-0.531569
H82	H	-1.138997	0.880688	-0.729413
H83	H	-1.042289	0.985380	-0.857167
H84	H	-0.934470	1.116179	-0.778145
H85	H	-0.923357	1.142289	-0.571363
H86	H	-1.020065	1.037596	-0.443609
C87	C	-1.246043	0.366419	-0.883917
C88	C	-1.211751	0.284465	-0.808856
C89	C	-1.267326	0.211042	-0.748709
C90	C	-1.357194	0.219573	-0.763624
C91	C	-1.391492	0.301530	-0.838688
C92	C	-1.335916	0.374953	-0.898835
H93	H	-1.145220	0.278147	-0.797812
H94	H	-1.241936	0.150372	-0.693141
H95	H	-1.398335	0.165221	-0.719100
H96	H	-1.458022	0.307848	-0.849732
H97	H	-1.361306	0.435623	-0.954403
C98	C	-1.086849	0.576748	-1.055721
C99	C	-1.024841	0.531413	-0.980656
C100	C	-0.969241	0.604885	-0.920486
C101	C	-0.975649	0.723693	-0.935382
C102	C	-1.037660	0.769035	-1.010451
C103	C	-1.093260	0.695562	-1.070620
H104	H	-1.020095	0.443459	-0.969626
H105	H	-0.923336	0.571320	-0.864916
H106	H	-0.934491	0.778082	-0.890841
H107	H	-1.042406	0.856989	-1.021480
H108	H	-1.139164	0.729127	-1.126191
C109	C	-0.556099	0.710923	-0.710383
C110	C	-0.499316	0.792907	-0.664971
C111	C	-0.453923	0.866506	-0.738370
C112	C	-0.465313	0.858120	-0.857182
C113	C	-0.522099	0.776131	-0.902600
C114	C	-0.567492	0.702533	-0.829201
H115	H	-0.490882	0.799118	-0.577014
H116	H	-0.411887	0.927199	-0.704748
H117	H	-0.431711	0.912602	-0.911516
H118	H	-0.530533	0.769920	-0.990557
H119	H	-0.609529	0.641840	-0.862823
H120	H	-0.567797	0.315191	-0.315789
C121	C	-0.729362	0.296049	-0.296702
C122	C	-0.786142	0.214064	-0.342120
C123	C	-0.831537	0.140462	-0.268727
C124	C	-0.820152	0.148845	-0.149914
C125	C	-0.763369	0.230833	-0.104489
C126	C	-0.717974	0.304435	-0.177883
H127	H	-0.794573	0.207856	-0.430078
H128	H	-0.873572	0.079769	-0.302354
H129	H	-0.853756	0.094360	-0.095584
H130	H	-0.754939	0.237041	-0.016532
H131	H	-0.675940	0.365128	-0.144256
H132	H	-0.443987	0.382118	-0.382521
H133	H	-1.101238	1.070254	-0.557944
