data_functionalizedCrystal
_audit_creation_method	'MofGen! by Chris Wilmer'
_symmetry_space_group_name_H-M	'P1'
_symmetry_Int_Tables_number	1
_symmetry_cell_setting	triclinic
loop_
_symmetry_equiv_pos_as_xyz
  x,y,z
_cell_length_a	13.032721
_cell_length_b	13.033409
_cell_length_c	19.805399
_cell_angle_alpha	82.825371
_cell_angle_beta	82.844098
_cell_angle_gamma	89.138002
loop_
_atom_site_label
_atom_site_type_symbol
_atom_site_fract_x
_atom_site_fract_y
_atom_site_fract_z
Zn1	Zn	-0.608904	1.520117	0.307471
Zn2	Zn	-0.108904	2.020117	0.807471
Zn3	Zn	-0.780878	1.498162	0.210239
Zn4	Zn	-0.280878	1.998162	0.710239
Zn5	Zn	-0.587118	1.348150	0.206683
Zn6	Zn	-0.087118	1.848150	0.706683
Zn7	Zn	-0.759019	1.326280	0.335759
Zn8	Zn	-0.259019	1.826280	0.835759
O9	O	-0.683980	1.423177	0.265038
O10	O	-0.183980	1.923177	0.765038
O11	O	-0.649983	1.661106	0.284223
O12	O	-0.149983	2.161106	0.784223
O13	O	-0.755206	1.478227	0.115056
O14	O	-0.255206	1.978227	0.615056
O15	O	-0.446095	1.389303	0.206725
O16	O	0.053905	1.889303	0.706725
O17	O	-0.776332	1.644976	0.212787
O18	O	-0.276332	2.144976	0.712787
O19	O	-0.462101	1.515646	0.280774
O20	O	0.037899	2.015646	0.780774
O21	O	-0.612851	1.368014	0.112443
O22	O	-0.112851	1.868014	0.612443
O23	O	-0.591655	1.201347	0.234155
O24	O	-0.091655	1.701347	0.734155
O25	O	-0.739075	1.352028	0.426718
O26	O	-0.239075	1.852028	0.926718
O27	O	-0.717950	1.185279	0.328987
O28	O	-0.217950	1.685279	0.828987
O29	O	-0.628786	1.494439	0.405935
O30	O	-0.128786	1.994439	0.905935
O31	O	-0.921892	1.457020	0.240217
O32	O	-0.421892	1.957020	0.740217
O33	O	-0.905831	1.330739	0.332436
O34	O	-0.405831	1.830739	0.832436
C35	C	-0.650067	1.156001	0.284255
C36	C	-0.150067	1.656001	0.784255
C37	C	-0.635583	1.041698	0.292495
C38	C	-0.135583	1.541698	0.792495
C39	C	-0.676576	0.864629	0.269267
C40	C	-0.176576	1.364629	0.769267
C41	C	-0.691549	0.982766	0.260748
C42	C	-0.191549	1.482766	0.760748
C43	C	-0.951180	1.389152	0.289795
C44	C	-0.451180	1.889152	0.789795
C45	C	-1.065502	1.374690	0.300401
C46	C	-0.565502	1.874690	0.800401
C47	C	-1.124389	1.430779	0.259529
C48	C	-0.624389	1.930779	0.759529
C49	C	-1.242546	1.415834	0.270490
C50	C	-0.742546	1.915834	0.770490
C51	C	-0.415739	1.457363	0.240198
C52	C	0.084261	1.957363	0.740198
C53	C	-0.301431	1.471931	0.229612
C54	C	0.198569	1.971931	0.729612
C55	C	-0.683922	1.423243	0.441571
C56	C	-0.183922	1.923243	0.941571
C57	C	-0.683898	1.423271	0.516798
C58	C	-0.183898	1.923271	1.016798
C59	C	-0.718026	1.691397	0.245746
C60	C	-0.218026	2.191397	0.745746
C61	C	-0.732534	1.805696	0.237525
C62	C	-0.232534	2.305696	0.737525
C63	C	-0.683970	1.423180	0.089181
C64	C	-0.183970	1.923180	0.589181
C65	C	-0.683730	1.423388	0.013913
C66	C	-0.183730	1.923388	0.513913
C67	C	-0.626467	1.497426	0.541321
C68	C	-0.126467	1.997426	1.041321
C69	C	-0.626439	1.497441	0.612006
C70	C	-0.126439	1.997441	1.112006
C71	C	-0.683847	1.423303	0.658167
C72	C	-0.183847	1.923303	1.158167
C73	C	-0.741280	1.349140	0.633640
C74	C	-0.241280	1.849140	1.133640
C75	C	-0.741302	1.349122	0.562956
C76	C	-0.241302	1.849122	1.062956
C77	C	-0.741191	1.349211	0.918700
C78	C	-0.241191	1.849211	1.418700
C79	C	-0.741167	1.349236	0.989388
C80	C	-0.241167	1.849236	1.489388
C81	C	-0.626328	1.497529	0.967751
C82	C	-0.126328	1.997529	1.467751
C83	C	-0.626350	1.497511	0.897067
C84	C	-0.126350	1.997511	1.397067
C85	C	-0.683778	1.423345	0.872546
C86	C	-0.183778	1.923345	1.372546
C87	C	-0.683807	1.423329	0.795901
C88	C	-0.183807	1.923329	1.295901
C89	C	-0.683825	1.423323	0.734811
C90	C	-0.183825	1.923323	1.234811
H91	H	-0.617588	0.827624	0.302753
H92	H	-0.117588	1.327624	0.802753
Cl93	Cl	-1.244231	1.563166	0.163054
Cl94	Cl	-0.744231	2.063166	0.663054
Cl95	Cl	-1.122711	1.283470	0.366962
Cl96	Cl	-0.622711	1.783470	0.866962
Cl97	Cl	-0.554128	1.590764	0.998581
Cl98	Cl	-0.054128	2.090764	1.498581
Cl99	Cl	-0.823623	0.862818	0.185833
Cl100	Cl	-0.323623	1.362818	0.685833
Cl101	Cl	-0.782642	1.039884	0.209054
Cl102	Cl	-0.282642	1.539884	0.709054
Cl103	Cl	-0.554298	1.590638	0.483297
Cl104	Cl	-0.054298	2.090638	0.983297
Cl105	Cl	-0.544498	0.984582	0.344197
Cl106	Cl	-0.044498	1.484582	0.844197
Cl107	Cl	-0.813499	1.255892	0.532127
Cl108	Cl	-0.313499	1.755892	1.032127
H109	H	-1.087331	1.489869	0.216423
H110	H	-0.587331	1.989869	0.716423
Cl111	Cl	-0.554288	1.590709	0.642833
Cl112	Cl	-0.054288	2.090709	1.142833
Cl113	Cl	-1.299751	1.324610	0.337054
Cl114	Cl	-0.799751	1.824610	0.837054
H115	H	-0.579606	1.557884	0.859485
H116	H	-0.079606	2.057884	1.359485
Cl117	Cl	-0.813342	1.256027	1.047420
Cl118	Cl	-0.313342	1.756027	1.547420
Cl119	Cl	-0.813387	1.255974	0.887883
Cl120	Cl	-0.313387	1.755974	1.387883
Cl121	Cl	-0.813447	1.255935	0.691671
Cl122	Cl	-0.313447	1.755935	1.191671
