data_functionalizedCrystal
_audit_creation_method	'MofGen! by Chris Wilmer'
_symmetry_space_group_name_H-M	'P1'
_symmetry_Int_Tables_number	1
_symmetry_cell_setting	triclinic
loop_
_symmetry_equiv_pos_as_xyz
  x,y,z
_cell_length_a	12.503572
_cell_length_b	17.699083
_cell_length_c	17.699083
_cell_angle_alpha	83.283015
_cell_angle_beta	93.515225
_cell_angle_gamma	86.494917
loop_
_atom_site_label
_atom_site_type_symbol
_atom_site_fract_x
_atom_site_fract_y
_atom_site_fract_z
O1	O	0.089171	-1.008441	-0.091332
O2	O	0.589171	-0.508441	0.408668
O3	O	0.089207	-0.788064	-0.103783
O4	O	0.589207	-0.288064	0.396217
O5	O	0.089179	-0.904478	0.012631
O6	O	0.589179	-0.404478	0.512631
O7	O	0.089200	-0.892027	-0.207746
O8	O	0.589200	-0.392027	0.292254
O9	O	-0.089461	-0.895723	0.003862
O10	O	0.410539	-0.395723	0.503862
O11	O	-0.089433	-0.779309	-0.112552
O12	O	0.410567	-0.279309	0.387448
O13	O	-0.089468	-0.999686	-0.100101
O14	O	0.410532	-0.499686	0.399899
Cu15	Cu	-0.105762	-0.888698	-0.107128
Cu16	Cu	0.394238	-0.388698	0.392872
Cu17	Cu	0.105500	-0.899052	-0.096757
Cu18	Cu	0.605500	-0.399052	0.403243
O19	O	-0.089440	-0.883272	-0.216516
O20	O	0.410560	-0.383272	0.283484
C21	C	-0.000141	-0.899655	0.036444
C22	C	0.499859	-0.399655	0.536444
C23	C	-0.000142	-0.898316	0.120462
C24	C	0.499858	-0.398316	0.620462
C25	C	-0.000109	-0.755490	-0.107721
C26	C	0.499891	-0.255490	0.392279
C27	C	-0.000095	-0.671473	-0.106382
C28	C	0.499905	-0.171473	0.393618
N29	N	-0.254352	-0.881421	-0.114421
N30	N	0.245648	-0.381421	0.385579
C31	C	-0.473465	-0.870717	-0.125157
C32	C	0.026535	-0.370717	0.374843
C33	C	-0.526803	-0.917037	-0.078723
C34	C	-0.026803	-0.417037	0.421277
C35	C	-0.648725	-0.911081	-0.084697
C36	C	-0.148725	-0.411081	0.415303
C37	C	-0.351532	-0.876672	-0.119185
C38	C	0.148468	-0.376672	0.380815
N39	N	0.254091	-0.906335	-0.089457
N40	N	0.754091	-0.406335	0.410543
C41	C	-0.000151	-1.032260	-0.096163
C42	C	0.499849	-0.532260	0.403837
C43	C	-0.000157	-1.116278	-0.097502
C44	C	0.499843	-0.616278	0.402498
C45	C	-0.000089	-0.622852	-0.174715
C46	C	0.499911	-0.122852	0.325285
C47	C	-0.000103	-0.543908	-0.173453
C48	C	0.499897	-0.043908	0.326547
C49	C	-0.000116	-0.513587	-0.103857
C50	C	0.499884	-0.013587	0.396143
C51	C	-0.000125	-0.562213	-0.035519
C52	C	0.499875	-0.062213	0.464481
C53	C	-0.000119	-0.641155	-0.036782
C54	C	0.499881	-0.141155	0.463218
C55	C	-0.000152	-0.243849	-0.030425
C56	C	0.499848	0.256151	0.469575
C57	C	-0.000155	-0.164901	-0.029168
C58	C	0.499845	0.335099	0.470832
C59	C	-0.000137	-0.146602	-0.167097
C60	C	0.499863	0.353398	0.332903
C61	C	-0.000130	-0.225544	-0.168359
C62	C	0.499870	0.274456	0.331641
C63	C	-0.000145	-0.274163	-0.100022
C64	C	0.499855	0.225837	0.399978
C65	C	-0.000132	-0.359763	-0.101391
C66	C	0.499868	0.140237	0.398609
C67	C	-0.000121	-0.427989	-0.102487
C68	C	0.499879	0.072011	0.397513
C69	C	-0.000118	-0.888096	-0.240328
C70	C	0.499882	-0.388096	0.259672
C71	C	-0.000111	-0.889435	-0.324345
C72	C	0.499889	-0.389435	0.175655
C73	C	-0.000154	-0.966649	0.169082
C74	C	0.499846	-0.466649	0.669082
C75	C	-0.000144	-0.965387	0.248026
C76	C	0.499856	-0.465387	0.748026
C77	C	-0.000130	-0.895791	0.278347
C78	C	0.499870	-0.395791	0.778347
C79	C	-0.000114	-0.827453	0.229721
C80	C	0.499886	-0.327453	0.729721
C81	C	-0.000116	-0.828716	0.150779
C82	C	0.499884	-0.328716	0.650779
C83	C	-0.000105	-0.822359	0.548084
C84	C	0.499895	-0.322359	1.048084
C85	C	-0.000106	-0.821101	0.627032
C86	C	0.499894	-0.321101	1.127032
C87	C	-0.000133	-0.959029	0.645331
C88	C	0.499867	-0.459029	1.145331
C89	C	-0.000135	-0.960292	0.566389
C90	C	0.499865	-0.460292	1.066389
C91	C	-0.000113	-0.891955	0.517770
C92	C	0.499887	-0.391955	1.017770
C93	C	-0.000122	-0.893324	0.432171
C94	C	0.499878	-0.393324	0.932171
C95	C	-0.000129	-0.894421	0.363945
C96	C	0.499871	-0.394421	0.863945
H97	H	-0.480901	-0.961167	-0.034484
H98	H	0.019099	-0.461167	0.465516
H99	H	-0.519362	-0.826591	-0.169395
H100	H	-0.019362	-0.326591	0.330605
H101	H	-0.000172	-1.023322	0.144401
H102	H	0.499828	-0.523322	0.644401
O103	O	-0.000123	-0.652175	-0.242390
O104	O	0.499877	-0.152175	0.257610
C105	C	-0.000046	-0.625685	-0.379065
C106	C	0.499954	-0.125685	0.120935
C107	C	-0.000029	-0.592379	-0.302476
C108	C	0.499971	-0.092379	0.197524
H109	H	0.000053	-0.577358	-0.427664
H110	H	0.500053	-0.077358	0.072336
H111	H	-0.074820	-0.658503	-0.386828
H112	H	0.425180	-0.158503	0.113172
H113	H	0.074701	-0.665866	-0.379395
H114	H	0.574701	-0.165866	0.120605
H115	H	-0.074725	-0.552166	-0.302092
H116	H	0.425275	-0.052166	0.197908
H117	H	0.074795	-0.559607	-0.294743
H118	H	0.574795	-0.059607	0.205257
H119	H	-0.000097	-0.504324	-0.229097
H120	H	0.499903	-0.004324	0.270903
O121	O	-0.000167	-0.254869	-0.236033
O122	O	0.499833	0.245131	0.263967
C123	C	-0.000094	-0.228387	-0.372709
C124	C	0.499906	0.271613	0.127291
C125	C	-0.000072	-0.195076	-0.296122
C126	C	0.499928	0.304924	0.203878
H127	H	0.000005	-0.180062	-0.421310
H128	H	0.500005	0.319938	0.078690
H129	H	-0.074869	-0.261203	-0.380469
H130	H	0.425131	0.238797	0.119531
H131	H	0.074652	-0.268569	-0.373039
H132	H	0.574652	0.231431	0.126961
H133	H	-0.074767	-0.154862	-0.295739
H134	H	0.425233	0.345138	0.204261
H135	H	0.074753	-0.162305	-0.288393
H136	H	0.574753	0.337695	0.211607
H137	H	-0.000130	-0.107005	-0.222741
H138	H	0.499870	0.392995	0.277259
O139	O	-0.000222	-0.135569	0.038505
O140	O	0.499778	0.364431	0.538505
C141	C	-0.000190	-0.162048	0.175187
C142	C	0.499810	0.337952	0.675187
C143	C	-0.000142	-0.195367	0.098606
C144	C	0.499858	0.304633	0.598606
H145	H	-0.000103	-0.210380	0.223800
H146	H	0.499897	0.289620	0.723800
H147	H	-0.074970	-0.121915	0.175600
H148	H	0.425030	0.378085	0.675600
H149	H	0.074551	-0.129178	0.182856
H150	H	0.574551	0.370822	0.682856
H151	H	-0.074833	-0.228274	0.090888
H152	H	0.425167	0.271726	0.590888
H153	H	0.074686	-0.235459	0.098229
H154	H	0.574686	0.264541	0.598229
H155	H	-0.000165	-0.283426	0.025219
H156	H	0.499835	0.216574	0.525219
H157	H	-0.000151	-0.537519	0.021146
H158	H	0.499849	-0.037519	0.521146
O159	O	-0.000071	-0.688283	0.029669
O160	O	0.499929	-0.188283	0.529669
C161	C	-0.000151	-0.698105	0.166611
C162	C	0.499849	-0.198105	0.666611
C163	C	-0.000175	-0.644649	0.091412
C164	C	0.499825	-0.144649	0.591412
H165	H	-0.000257	-0.662847	0.216548
H166	H	0.499743	-0.162847	0.716548
H167	H	0.074630	-0.739164	0.173192
H168	H	0.574630	-0.239164	0.673192
H169	H	-0.074891	-0.731881	0.165757
H170	H	0.425109	-0.231881	0.665757
H171	H	0.074516	-0.610822	0.092213
H172	H	0.574516	-0.110822	0.592213
H173	H	-0.075004	-0.603640	0.084860
H174	H	0.424996	-0.103640	0.584860
H175	H	-0.000157	-1.021031	0.287610
H176	H	0.499843	-0.521031	0.787610
H177	H	-0.000152	-1.016964	0.541706
H178	H	0.499848	-0.516964	1.041706
O179	O	0.000047	-0.755934	0.500949
O180	O	0.500047	-0.255934	1.000949
C181	C	0.092637	-0.642979	0.465674
C182	C	0.592637	-0.142979	0.965674
C183	C	0.092590	-0.718179	0.519119
C184	C	0.592590	-0.218179	1.019119
H185	H	0.167462	-0.612441	0.480334
H186	H	0.667462	-0.112441	0.980334
H187	H	0.017931	-0.605012	0.473031
H188	H	0.517931	-0.105012	0.973031
H189	H	0.092584	-0.655842	0.404045
H190	H	0.592584	-0.155842	0.904045
H191	H	0.092682	-0.705388	0.580769
H192	H	0.592682	-0.205388	1.080769
H193	H	0.167290	-0.756124	0.511695
H194	H	0.667290	-0.256124	1.011695
O195	O	0.000044	-0.759902	0.259271
O196	O	0.500044	-0.259902	0.759271
C197	C	0.092637	-0.682945	0.342281
C198	C	0.592637	-0.182945	0.842281
C199	C	0.092583	-0.759488	0.308889
C200	C	0.592583	-0.259488	0.808889
H201	H	0.167458	-0.682578	0.382392
H202	H	0.667458	-0.182578	0.882392
H203	H	0.017927	-0.675232	0.375166
H204	H	0.517927	-0.175232	0.875166
H205	H	0.092595	-0.634332	0.293954
H206	H	0.592595	-0.134332	0.793954
H207	H	0.092663	-0.808147	0.357169
H208	H	0.592663	-0.308147	0.857169
H209	H	0.167287	-0.767134	0.275984
H210	H	0.667287	-0.267134	0.775984
H211	H	-0.000145	-1.014673	0.684927
H212	H	0.499855	-0.514673	1.184927
H213	H	-0.000096	-0.764424	0.651716
H214	H	0.499904	-0.264424	1.151716
H215	H	-0.000106	-0.773073	0.111192
H216	H	0.499894	-0.273073	0.611192
