data_functionalizedCrystal
_audit_creation_method	'MofGen! by Chris Wilmer'
_symmetry_space_group_name_H-M	'P1'
_symmetry_Int_Tables_number	1
_symmetry_cell_setting	triclinic
loop_
_symmetry_equiv_pos_as_xyz
  x,y,z
_cell_length_a	16.120530
_cell_length_b	19.121063
_cell_length_c	19.121175
_cell_angle_alpha	94.951770
_cell_angle_beta	84.775719
_cell_angle_gamma	89.687057
loop_
_atom_site_label
_atom_site_type_symbol
_atom_site_fract_x
_atom_site_fract_y
_atom_site_fract_z
Zn1	Zn	1.280176	-0.354302	-0.466830
Zn2	Zn	1.613509	-0.020968	-0.133497
Zn3	Zn	1.946842	0.312365	0.199836
Zn4	Zn	1.268666	-0.466436	-0.353667
Zn5	Zn	1.602000	-0.133103	-0.020334
Zn6	Zn	1.935333	0.200231	0.313000
Zn7	Zn	1.135066	-0.342821	-0.342715
Zn8	Zn	1.468400	-0.009487	-0.009381
Zn9	Zn	1.801733	0.323846	0.323952
Zn10	Zn	1.135010	-0.465443	-0.465332
Zn11	Zn	1.468343	-0.132110	-0.131999
Zn12	Zn	1.801677	0.201223	0.201335
O13	O	1.204730	-0.407250	-0.407136
O14	O	1.538063	-0.073917	-0.073803
O15	O	1.871396	0.259416	0.259531
O16	O	1.395313	-0.374397	-0.457030
O17	O	1.728647	-0.041064	-0.123696
O18	O	2.061980	0.292270	0.209637
O19	O	1.246151	-0.445649	-0.253539
O20	O	1.579484	-0.112315	0.079794
O21	O	1.912818	0.221018	0.413127
O22	O	1.159156	-0.246097	-0.355222
O23	O	1.492489	0.087236	-0.021889
O24	O	1.825822	0.420569	0.311444
O25	O	1.386858	-0.456781	-0.373889
O26	O	1.720191	-0.123448	-0.040556
O27	O	2.053524	0.209885	0.292778
O28	O	1.265767	-0.254532	-0.446410
O29	O	1.599100	0.078801	-0.113076
O30	O	1.932434	0.412134	0.220257
O31	O	1.147995	-0.354829	-0.245493
O32	O	1.481329	-0.021496	0.087841
O33	O	1.814662	0.311838	0.421174
O34	O	1.018394	-0.353867	-0.353769
O35	O	1.351728	-0.020533	-0.020436
O36	O	1.685061	0.312800	0.312897
O37	O	1.159060	-0.455090	-0.564206
O38	O	1.492393	-0.121756	-0.230872
O39	O	1.825727	0.211577	0.102461
O40	O	1.018353	-0.443957	-0.443856
O41	O	1.351687	-0.110623	-0.110522
O42	O	1.685020	0.222710	0.222811
O43	O	1.265712	-0.373434	-0.565307
O44	O	1.599046	-0.040101	-0.231973
O45	O	1.932379	0.293232	0.101360
O46	O	1.246096	-0.564551	-0.372436
O47	O	1.579430	-0.231217	-0.039103
O48	O	1.912763	0.102116	0.294231
O49	O	1.147900	-0.563821	-0.454476
O50	O	1.481233	-0.230488	-0.121142
O51	O	1.814566	0.102845	0.212191
C52	C	0.988124	-0.397559	-0.397462
C53	C	1.321457	-0.064225	-0.064129
C54	C	1.654791	0.269108	0.269205
C55	C	0.895459	-0.393430	-0.393341
C56	C	1.228793	-0.060097	-0.060007
C57	C	1.562126	0.273237	0.273326
C58	C	0.725801	-0.385876	-0.385822
C59	C	1.059134	-0.052543	-0.052489
C60	C	1.392467	0.280790	0.280845
C61	C	0.684499	-0.428679	-0.428504
C62	C	1.017832	-0.095345	-0.095170
C63	C	1.351166	0.237988	0.238163
C64	C	0.590095	-0.424476	-0.424320
C65	C	0.923429	-0.091142	-0.090987
C66	C	1.256762	0.242191	0.242346
C67	C	0.820213	-0.390078	-0.390004
C68	C	1.153546	-0.056745	-0.056671
C69	C	1.486880	0.276588	0.276662
C70	C	1.195766	-0.589662	-0.414498
C71	C	1.529100	-0.256329	-0.081165
C72	C	1.862433	0.077005	0.252169
C73	C	1.192009	-0.667703	-0.417675
C74	C	1.525343	-0.334369	-0.084341
C75	C	1.858676	-0.001036	0.248992
C76	C	1.241413	-0.704726	-0.376493
C77	C	1.574747	-0.371393	-0.043159
C78	C	1.908080	-0.038060	0.290174
C79	C	1.237885	-0.778054	-0.379484
C80	C	1.571218	-0.444721	-0.046151
C81	C	1.904552	-0.111388	0.287182
C82	C	1.184948	-0.814357	-0.423655
C83	C	1.518281	-0.481024	-0.090322
C84	C	1.851614	-0.147690	0.243012
C85	C	1.135542	-0.777328	-0.464842
C86	C	1.468875	-0.443995	-0.131509
C87	C	1.802209	-0.110662	0.201825
C88	C	1.139075	-0.704002	-0.461853
C89	C	1.472408	-0.370669	-0.128520
C90	C	1.805742	-0.037335	0.204813
C91	C	1.171723	-1.035738	-0.434817
C92	C	1.505057	-0.702404	-0.101484
C93	C	1.838390	-0.369071	0.231849
C94	C	1.168192	-1.109069	-0.437801
C95	C	1.501525	-0.775736	-0.104468
C96	C	1.834859	-0.442402	0.228866
C97	C	1.270537	-1.109790	-0.352444
C98	C	1.603870	-0.776457	-0.019111
C99	C	1.937203	-0.443123	0.314222
C100	C	1.274061	-1.036462	-0.349456
C101	C	1.607395	-0.703129	-0.016123
C102	C	1.940728	-0.369795	0.317210
C103	C	1.224659	-0.999440	-0.390646
C104	C	1.557992	-0.666107	-0.057313
C105	C	1.891326	-0.332773	0.276021
C106	C	1.181338	-0.889310	-0.426713
C107	C	1.514671	-0.555977	-0.093379
C108	C	1.848005	-0.222643	0.239954
C109	C	1.228274	-0.924489	-0.387592
C110	C	1.561607	-0.591155	-0.054258
C111	C	1.894940	-0.257822	0.279075
C112	C	1.422181	-0.416981	-0.416848
C113	C	1.755514	-0.083647	-0.083515
C114	C	2.088848	0.249686	0.249818
C115	C	1.514846	-0.421127	-0.420987
C116	C	1.848179	-0.087794	-0.087654
C117	C	2.181513	0.245540	0.245680
C118	C	1.213664	-0.415432	-0.591057
C119	C	1.546997	-0.082099	-0.257723
C120	C	1.880330	0.251235	0.075610
C121	C	1.217471	-0.418918	-0.669433
C122	C	1.550804	-0.085585	-0.336100
C123	C	1.884138	0.247748	-0.002766
C124	C	1.213751	-0.224128	-0.399762
C125	C	1.547085	0.109205	-0.066428
C126	C	1.880418	0.442538	0.266905
C127	C	1.217596	-0.146093	-0.396619
C128	C	1.550929	0.187241	-0.063286
C129	C	1.884262	0.520574	0.270048
C130	C	1.168158	-0.373272	-0.702064
C131	C	1.501491	-0.039939	-0.368731
C132	C	1.834824	0.293394	-0.035398
C133	C	1.171731	-0.376554	-0.775707
C134	C	1.505065	-0.043221	-0.442374
C135	C	1.838398	0.290113	-0.109040
C136	C	1.224623	-0.425479	-0.816717
C137	C	1.557957	-0.092145	-0.483384
C138	C	1.891290	0.241188	-0.150051
C139	C	1.273939	-0.471130	-0.784081
C140	C	1.607272	-0.137796	-0.450748
C141	C	1.940605	0.195537	-0.117414
C142	C	1.270360	-0.467851	-0.710439
C143	C	1.603693	-0.134517	-0.377106
C144	C	1.937027	0.198816	-0.043773
C145	C	1.237981	-0.437747	-1.039277
C146	C	1.571315	-0.104414	-0.705943
C147	C	1.904648	0.228920	-0.372610
C148	C	1.241558	-0.441021	-1.112923
C149	C	1.574891	-0.107688	-0.779590
C150	C	1.908225	0.225646	-0.446256
C151	C	1.139349	-0.346446	-1.104544
C152	C	1.472683	-0.013113	-0.771211
C153	C	1.806016	0.320221	-0.437877
C154	C	1.135779	-0.343169	-1.030901
C155	C	1.469112	-0.009836	-0.697568
C156	C	1.802446	0.323498	-0.364235
C157	C	1.185091	-0.388822	-0.998272
C158	C	1.518424	-0.055489	-0.664938
C159	C	1.851758	0.277845	-0.331605
C160	C	1.228280	-0.428833	-0.891992
C161	C	1.561613	-0.095499	-0.558659
C162	C	1.894946	0.237834	-0.225325
C163	C	1.181430	-0.385471	-0.922998
C164	C	1.514763	-0.052138	-0.589665
C165	C	1.848096	0.281196	-0.256331
C166	C	1.195881	-0.399052	-0.223931
C167	C	1.529214	-0.065719	0.109403
C168	C	1.862547	0.267614	0.442736
C169	C	1.192245	-0.395375	-0.145554
C170	C	1.525578	-0.062042	0.187779
C171	C	1.858911	0.271292	0.521112
H172	H	0.690262	-0.346079	-0.346142
H173	H	1.023596	-0.012746	-0.012808
H174	H	1.356929	0.320587	0.320525
H175	H	1.284517	-0.675173	-0.340521
H176	H	1.617850	-0.341840	-0.007187
H177	H	1.951183	-0.008507	0.326146
Cl178	Cl	0.739367	-0.490124	-0.489777
Cl179	Cl	1.072701	-0.156791	-0.156443
Cl180	Cl	1.406034	0.176543	0.176890
Cl181	Cl	1.114942	-0.323966	-0.871442
Cl182	Cl	1.448275	0.009368	-0.538108
Cl183	Cl	1.781609	0.342701	-0.204775
Cl184	Cl	1.308064	-0.502525	-1.164478
Cl185	Cl	1.641397	-0.169192	-0.831145
Cl186	Cl	1.974730	0.164141	-0.497811
H187	H	1.098846	-0.673858	-0.495389
H188	H	1.432180	-0.340525	-0.162056
H189	H	1.765513	-0.007191	0.171278
Cl190	Cl	1.299981	-0.495135	-0.998266
Cl191	Cl	1.633314	-0.161802	-0.664932
Cl192	Cl	1.966647	0.171531	-0.331599
Cl193	Cl	1.294771	-0.490336	-0.943554
Cl194	Cl	1.628104	-0.157003	-0.610220
Cl195	Cl	1.961437	0.176330	-0.276887
H196	H	1.310758	-1.139941	-0.318911
H197	H	1.644092	-0.806608	0.014422
H198	H	1.977425	-0.473275	0.347755
Cl199	Cl	1.299999	-0.824596	-0.327712
Cl200	Cl	1.633332	-0.491262	0.005621
Cl201	Cl	1.966665	-0.157929	0.338954
H202	H	1.317167	-1.006906	-0.313489
H203	H	1.650500	-0.673572	0.019844
H204	H	1.983834	-0.340239	0.353178
H205	H	1.125095	-1.138626	-0.473783
H206	H	1.458428	-0.805292	-0.140450
H207	H	1.791761	-0.471959	0.192884
H208	H	1.138234	-0.918876	-0.462675
H209	H	1.471568	-0.585542	-0.129342
H210	H	1.804901	-0.252209	0.203991
Cl211	Cl	1.109615	-0.989205	-0.486597
Cl212	Cl	1.442948	-0.655872	-0.153264
Cl213	Cl	1.776282	-0.322538	0.180069
H214	H	1.092443	-0.806892	-0.500810
H215	H	1.425776	-0.473559	-0.167477
H216	H	1.759110	-0.140225	0.165857
Cl217	Cl	1.294824	-0.878850	-0.332068
Cl218	Cl	1.628157	-0.545517	0.001266
Cl219	Cl	1.961491	-0.212184	0.334599
Cl220	Cl	1.101665	-0.311761	-0.650516
Cl221	Cl	1.434999	0.021573	-0.317182
Cl222	Cl	1.768332	0.354906	0.016151
Cl223	Cl	1.069285	-0.281660	-0.979351
Cl224	Cl	1.402618	0.051674	-0.646018
Cl225	Cl	1.735952	0.385007	-0.312684
Cl226	Cl	1.109694	-0.319199	-0.816726
Cl227	Cl	1.443027	0.014135	-0.483392
Cl228	Cl	1.776360	0.347468	-0.150059
Cl229	Cl	1.077358	-0.289060	-1.145569
Cl230	Cl	1.410691	0.044273	-0.812235
Cl231	Cl	1.744024	0.377607	-0.478902
H232	H	1.317000	-0.510968	-0.817477
H233	H	1.650333	-0.177635	-0.484144
H234	H	1.983667	0.155698	-0.150811
Cl235	Cl	1.332353	-0.525240	-0.669417
Cl236	Cl	1.665686	-0.191906	-0.336084
Cl237	Cl	1.999019	0.141427	-0.002750
