data_functionalizedCrystal
_audit_creation_method	'MofGen! by Chris Wilmer'
_symmetry_space_group_name_H-M	'P1'
_symmetry_Int_Tables_number	1
_symmetry_cell_setting	triclinic
loop_
_symmetry_equiv_pos_as_xyz
  x,y,z
_cell_length_a	15.500227
_cell_length_b	14.044220
_cell_length_c	14.044220
_cell_angle_alpha	86.811122
_cell_angle_beta	86.913751
_cell_angle_gamma	86.902009
loop_
_atom_site_label
_atom_site_type_symbol
_atom_site_fract_x
_atom_site_fract_y
_atom_site_fract_z
O1	O	0.071855	-1.281229	0.226116
O2	O	0.571855	-0.781229	0.726116
O3	O	0.071877	-1.004559	0.217809
O4	O	0.571877	-0.504559	0.717809
O5	O	0.071858	-1.138741	0.083627
O6	O	0.571858	-0.638741	0.583627
O7	O	0.071874	-1.147047	0.360298
O8	O	0.571874	-0.647047	0.860298
O9	O	-0.072030	-1.130595	0.091735
O10	O	0.427970	-0.630595	0.591735
O11	O	-0.072011	-0.996413	0.225917
O12	O	0.427989	-0.496413	0.725917
O13	O	-0.072032	-1.273084	0.234223
O14	O	0.427968	-0.773084	0.734223
Cu15	Cu	-0.085160	-1.134005	0.230810
Cu16	Cu	0.414840	-0.634005	0.730810
Cu17	Cu	0.085004	-1.143638	0.221222
Cu18	Cu	0.585004	-0.643638	0.721222
O19	O	-0.072013	-1.138902	0.368405
O20	O	0.427987	-0.638902	0.868405
C21	C	-0.000064	-0.964865	0.218227
C22	C	0.499936	-0.464865	0.718227
C23	C	-0.000056	-0.858722	0.207382
C24	C	0.499944	-0.358722	0.707382
N25	N	-0.204844	-1.127236	0.237554
N26	N	0.295156	-0.627236	0.737554
C27	C	-0.000086	-1.131032	0.052059
C28	C	0.499914	-0.631032	0.552059
C29	C	-0.000086	-1.120188	-0.054084
C30	C	0.499914	-0.620188	0.445916
C31	C	-0.250128	-1.184118	0.180721
C32	C	0.249872	-0.684118	0.680721
C33	C	-0.340700	-1.179008	0.185831
C34	C	0.159300	-0.679008	0.685831
C35	C	-0.385986	-1.117022	0.247779
C36	C	0.114014	-0.617022	0.747779
C37	C	-0.340695	-1.060135	0.304614
C38	C	0.159305	-0.560135	0.804614
C39	C	-0.250125	-1.065240	0.299499
C40	C	0.249875	-0.565240	0.799499
C41	C	-0.659450	-1.098631	0.266191
C42	C	-0.159450	-0.598631	0.766191
C43	C	-0.750027	-1.093532	0.271304
C44	C	-0.250027	-0.593532	0.771304
C45	C	-0.750026	-1.212405	0.152519
C46	C	-0.250026	-0.712405	0.652519
C47	C	-0.659454	-1.217508	0.147413
C48	C	-0.159454	-0.717508	0.647413
C49	C	-0.614171	-1.160617	0.204245
C50	C	-0.114171	-0.660617	0.704245
C51	C	-0.478565	-1.111800	0.253006
C52	C	0.021435	-0.611800	0.753006
C53	C	-0.521593	-1.165835	0.199013
C54	C	-0.021593	-0.665835	0.699013
N55	N	0.204688	-1.150413	0.214471
N56	N	0.704688	-0.650413	0.714471
C57	C	-0.000089	-1.312778	0.233805
C58	C	0.499911	-0.812778	0.733805
C59	C	-0.000092	-1.418921	0.244650
C60	C	0.499908	-0.918921	0.744650
C61	C	-0.000074	-0.664383	0.187557
C62	C	0.499926	-0.164383	0.687557
C63	C	-0.000073	-0.613254	0.264471
C64	C	0.499927	-0.113254	0.764471
C65	C	-0.000084	-0.505117	0.253440
C66	C	0.499916	-0.005117	0.753440
C67	C	-0.000064	-0.772530	0.198586
C68	C	0.499936	-0.272530	0.698586
C69	C	-0.000072	-1.100362	-0.248422
C70	C	0.499928	-0.600362	0.251578
C71	C	-0.000076	-1.177276	-0.299552
C72	C	0.499924	-0.677276	0.200448
C73	C	-0.000068	-1.166245	-0.407688
C74	C	0.499932	-0.666245	0.092312
C75	C	-0.000080	-1.111392	-0.140276
C76	C	0.499920	-0.611392	0.359724
C77	C	-0.000068	-1.146610	0.399973
C78	C	0.499932	-0.646610	0.899973
C79	C	-0.000062	-1.157455	0.506116
C80	C	0.499938	-0.657455	1.006116
H81	H	-0.377571	-1.225324	0.139553
H82	H	0.122429	-0.725324	0.639553
C83	C	0.073898	-0.993454	-0.360232
C84	C	0.573898	-0.493454	0.139768
C85	C	-0.000069	-1.000291	-0.298960
C86	C	0.499931	-0.500291	0.201040
H87	H	0.073892	-0.931677	-0.391444
H88	H	0.573892	-0.431677	0.108556
H89	H	0.124064	-1.003769	-0.324305
H90	H	0.624064	-0.503769	0.175695
H91	H	0.073891	-1.040274	-0.406513
H92	H	0.573891	-0.540274	0.093487
H93	H	-0.000059	-0.953476	-0.252674
H94	H	0.499941	-0.453476	0.247326
H95	H	-0.050248	-0.989966	-0.334889
H96	H	0.449752	-0.489966	0.165111
H97	H	-0.622584	-1.267982	0.096970
H98	H	-0.122584	-0.767982	0.596970
C99	C	-0.777924	-1.252918	-0.006409
C100	C	-0.277924	-0.752918	0.493591
C101	C	-0.799804	-1.274924	0.090041
C102	C	-0.299804	-0.774924	0.590041
H103	H	-0.808652	-1.291518	-0.044984
H104	H	-0.308652	-0.791518	0.455016
H105	H	-0.792779	-1.187495	-0.021349
H106	H	-0.292779	-0.687495	0.478651
H107	H	-0.717501	-1.264834	-0.018307
H108	H	-0.217501	-0.764834	0.481693
H109	H	-0.860226	-1.263001	0.101940
H110	H	-0.360226	-0.763001	0.601940
H111	H	-0.784955	-1.340362	0.104986
H112	H	-0.284955	-0.840362	0.604986
C113	C	-0.442572	-0.926221	0.320021
C114	C	0.057428	-0.426221	0.820021
C115	C	-0.390475	-0.991999	0.372708
C116	C	0.109525	-0.491999	0.872708
H117	H	-0.473307	-0.884162	0.362064
H118	H	0.026693	-0.384162	0.862064
H119	H	-0.407252	-0.890513	0.275372
H120	H	0.092748	-0.390513	0.775372
H121	H	-0.482500	-0.959380	0.286909
H122	H	0.017500	-0.459380	0.786909
H123	H	-0.350543	-0.958840	0.405815
H124	H	0.149457	-0.458840	0.905815
H125	H	-0.425799	-1.027711	0.417374
H126	H	0.074201	-0.527711	0.917374
C127	C	-0.259234	-1.301095	0.063815
C128	C	0.240766	-0.801095	0.563815
C129	C	-0.200355	-1.252253	0.112623
C130	C	0.299645	-0.752253	0.612623
H131	H	-0.228506	-1.343154	0.021767
H132	H	0.271494	-0.843154	0.521767
H133	H	-0.294546	-1.336804	0.108473
H134	H	0.205454	-0.836804	0.608473
H135	H	-0.294573	-1.256450	0.028089
H136	H	0.205427	-0.756450	0.528089
H137	H	-0.165020	-1.296899	0.148354
H138	H	0.334980	-0.796899	0.648354
H139	H	-0.165028	-1.216543	0.067958
H140	H	0.334972	-0.716543	0.567958
C141	C	-0.000010	-0.762687	0.356250
C142	C	0.499990	-0.262687	0.856250
C143	C	-0.000032	-0.663790	0.364549
C144	C	0.499968	-0.163790	0.864549
H145	H	0.000029	-0.793887	0.418032
H146	H	0.500029	-0.293887	0.918032
H147	H	-0.050194	-0.777804	0.325406
H148	H	0.449806	-0.277804	0.825406
H149	H	0.050160	-0.783441	0.319697
H150	H	0.550160	-0.283441	0.819697
H151	H	-0.050206	-0.643035	0.401097
H152	H	0.449794	-0.143035	0.901097
H153	H	0.050157	-0.648666	0.395407
H154	H	0.550157	-0.148666	0.895407
C155	C	-0.000077	-0.514955	0.095790
C156	C	0.499923	-0.014955	0.595790
C157	C	-0.000075	-0.613849	0.087484
C158	C	0.499925	-0.113849	0.587484
H159	H	-0.000070	-0.483752	0.034009
H160	H	0.499930	0.016248	0.534009
H161	H	-0.050254	-0.494187	0.132307
H162	H	0.449746	0.005813	0.632307
H163	H	0.050100	-0.499857	0.126675
H164	H	0.550100	0.000143	0.626675
H165	H	-0.050256	-0.628948	0.056605
H166	H	0.449744	-0.128948	0.556605
H167	H	0.050107	-0.634625	0.050952
H168	H	0.550107	-0.134625	0.550952
H169	H	-0.000023	-1.251413	-0.262116
H170	H	0.499977	-0.751413	0.237884
C171	C	-0.740936	-0.976511	0.388184
C172	C	-0.240936	-0.476511	0.888184
C173	C	-0.799807	-1.025377	0.339388
C174	C	-0.299807	-0.525377	0.839388
H175	H	-0.771670	-0.934433	0.430206
H176	H	-0.271670	-0.434433	0.930206
H177	H	-0.705603	-1.021134	0.423925
H178	H	-0.205603	-0.521134	0.923925
H179	H	-0.705617	-0.940813	0.343509
H180	H	-0.205617	-0.440813	0.843509
H181	H	-0.835122	-1.061081	0.384063
H182	H	-0.335122	-0.561081	0.884063
H183	H	-0.835155	-0.980748	0.303644
H184	H	-0.335155	-0.480748	0.803644
C185	C	-0.259217	-0.947238	0.417435
C186	C	0.240783	-0.447238	0.917435
C187	C	-0.200344	-1.002719	0.361976
C188	C	0.299656	-0.502719	0.861976
H189	H	-0.228483	-0.908642	0.456009
H190	H	0.271517	-0.408642	0.956009
H191	H	-0.294552	-0.907548	0.376767
H192	H	0.205448	-0.407548	0.876767
H193	H	-0.294533	-0.987899	0.457154
H194	H	0.205467	-0.487899	0.957154
H195	H	-0.165032	-0.962057	0.322252
H196	H	0.334968	-0.462057	0.822252
H197	H	-0.164994	-1.042412	0.402649
H198	H	0.335006	-0.542412	0.902649
C199	C	-0.557596	-1.094640	0.388615
C200	C	-0.057596	-0.594640	0.888615
C201	C	-0.609686	-1.036110	0.328677
C202	C	-0.109686	-0.536110	0.828677
H203	H	-0.526869	-1.056040	0.427191
H204	H	-0.026869	-0.556040	0.927191
H205	H	-0.592920	-1.135289	0.428321
H206	H	-0.092920	-0.635289	0.928321
H207	H	-0.517660	-1.132273	0.350977
H208	H	-0.017660	-0.632273	0.850977
H209	H	-0.649626	-0.998482	0.366314
H210	H	-0.149626	-0.498482	0.866314
H211	H	-0.574359	-0.995444	0.288966
H212	H	-0.074359	-0.495444	0.788966
C213	C	-0.419799	-1.181259	0.065064
C214	C	0.080201	-0.681259	0.565064
C215	C	-0.471837	-1.233945	0.130881
C216	C	0.028163	-0.733945	0.630881
H217	H	-0.389079	-1.223305	0.022997
H218	H	0.110921	-0.723305	0.522997
H219	H	-0.455158	-1.136622	0.029370
H220	H	0.044842	-0.636622	0.529370
H221	H	-0.379858	-1.148132	0.098190
H222	H	0.120142	-0.648132	0.598190
H223	H	-0.511782	-1.267067	0.097755
H224	H	-0.011782	-0.767067	0.597755
H225	H	-0.436475	-1.278599	0.166579
H226	H	0.063525	-0.778599	0.666579
H227	H	-0.515444	-1.061332	0.303447
H228	H	-0.015444	-0.561332	0.803447
