data_functionalizedCrystal
_audit_creation_method	'MofGen! by Chris Wilmer'
_symmetry_space_group_name_H-M	'P1'
_symmetry_Int_Tables_number	1
_symmetry_cell_setting	triclinic
loop_
_symmetry_equiv_pos_as_xyz
  x,y,z
_cell_length_a	19.805407
_cell_length_b	12.645330
_cell_length_c	19.805399
_cell_angle_alpha	89.978279
_cell_angle_beta	89.980427
_cell_angle_gamma	90.017692
loop_
_atom_site_label
_atom_site_type_symbol
_atom_site_fract_x
_atom_site_fract_y
_atom_site_fract_z
Zn1	Zn	1.034777	-0.422064	-0.382747
Zn2	Zn	1.534777	0.077936	0.117253
Zn3	Zn	1.034709	-0.599342	-0.269571
Zn4	Zn	1.534709	-0.099342	0.230429
Zn5	Zn	0.921591	-0.422093	-0.269572
Zn6	Zn	1.421591	0.077907	0.230428
Zn7	Zn	0.921572	-0.599286	-0.382717
Zn8	Zn	1.421572	-0.099286	0.117283
O9	O	0.978162	-0.510696	-0.326152
O10	O	1.478162	-0.010696	0.173848
O11	O	1.129484	-0.445592	-0.367746
O12	O	1.629484	0.054408	0.132254
O13	O	1.019683	-0.575865	-0.174854
O14	O	1.519683	-0.075865	0.325146
O15	O	0.936642	-0.273742	-0.284598
O16	O	1.436642	0.226258	0.215402
O17	O	1.129434	-0.575837	-0.284596
O18	O	1.629434	-0.075837	0.215404
O19	O	1.019799	-0.273721	-0.367747
O20	O	1.519799	0.226279	0.132253
O21	O	0.936576	-0.445641	-0.174855
O22	O	1.436576	0.054359	0.325145
O23	O	0.826872	-0.445587	-0.284569
O24	O	1.326872	0.054413	0.215431
O25	O	0.936609	-0.575741	-0.477438
O26	O	1.436609	-0.075741	0.022562
O27	O	0.826858	-0.575769	-0.367696
O28	O	1.326858	-0.075769	0.132304
O29	O	1.019780	-0.445537	-0.477460
O30	O	1.519780	0.054463	0.022540
O31	O	1.019664	-0.747682	-0.284567
O32	O	1.519664	-0.247682	0.215433
O33	O	0.936543	-0.747641	-0.367695
O34	O	1.436543	-0.247641	0.132305
C35	C	0.802306	-0.510676	-0.326130
C36	C	1.302306	-0.010676	0.173870
C37	C	0.727074	-0.510693	-0.326137
C38	C	1.227074	-0.010693	0.173863
C39	C	0.691740	-0.578581	-0.369351
C40	C	1.191740	-0.078581	0.130649
C41	C	0.621052	-0.578583	-0.369361
C42	C	1.121052	-0.078583	0.130639
C43	C	0.585699	-0.510701	-0.326152
C44	C	1.085699	-0.010701	0.173848
C45	C	0.621037	-0.442805	-0.282935
C46	C	1.121037	0.057195	0.217065
C47	C	0.691725	-0.442799	-0.282930
C48	C	1.191725	0.057201	0.217070
C49	C	0.335964	-0.442829	-0.282958
C50	C	0.835964	0.057171	0.217042
C51	C	0.265272	-0.442843	-0.282965
C52	C	0.765272	0.057157	0.217035
C53	C	0.265292	-0.578613	-0.369388
C54	C	0.765292	-0.078613	0.130612
C55	C	0.335979	-0.578606	-0.369383
C56	C	0.835979	-0.078606	0.130617
C57	C	0.371311	-0.510707	-0.326169
C58	C	0.871311	-0.010707	0.173831
C59	C	0.447960	-0.510705	-0.326160
C60	C	0.947960	-0.010705	0.173840
C61	C	0.509051	-0.510708	-0.326157
C62	C	1.009051	-0.010708	0.173843
C63	C	0.978113	-0.786126	-0.326142
C64	C	1.478113	-0.286126	0.173858
C65	C	0.978154	-0.903956	-0.326161
C66	C	1.478154	-0.403956	0.173839
C67	C	0.926078	-1.071538	-0.378618
C68	C	1.426078	-0.571538	0.121382
C69	C	0.925811	-0.948979	-0.378450
C70	C	1.425811	-0.448979	0.121550
C71	C	0.958847	-0.948544	-0.254828
C72	C	1.458847	-0.448544	0.245172
C73	C	0.958530	-1.071142	-0.255147
C74	C	1.458530	-0.571142	0.244853
C75	C	1.049854	-1.071047	-0.344457
C76	C	1.549854	-0.571047	0.155543
C77	C	1.049415	-0.948440	-0.346017
C78	C	1.549415	-0.448440	0.153983
C79	C	1.154705	-0.510717	-0.326174
C80	C	1.654705	-0.010717	0.173826
C81	C	1.229937	-0.510726	-0.326184
C82	C	1.729937	-0.010726	0.173816
C83	C	0.978200	-0.510629	-0.502695
C84	C	1.478200	-0.010629	-0.002695
C85	C	0.978216	-0.510601	-0.577927
C86	C	1.478216	-0.010601	-0.077927
C87	C	0.978230	-0.234191	-0.326176
C88	C	1.478230	0.265809	0.173824
C89	C	0.978259	-0.116361	-0.326186
C90	C	1.478259	0.383639	0.173814
C91	C	1.021524	-0.442800	-0.613283
C92	C	1.521524	0.057200	-0.113283
C93	C	1.021531	-0.442770	-0.683972
C94	C	1.521531	0.057230	-0.183972
C95	C	0.978233	-0.510546	-0.719302
C96	C	1.478233	-0.010546	-0.219302
C97	C	0.934920	-0.578349	-0.683941
C98	C	1.434920	-0.078349	-0.183941
C99	C	0.934910	-0.578374	-0.613253
C100	C	1.434910	-0.078374	-0.113253
C101	C	0.934958	-0.578250	-0.969014
C102	C	1.434958	-0.078250	-0.469014
C103	C	0.934973	-0.578223	-1.039706
C104	C	1.434973	-0.078223	-0.539706
C105	C	1.021579	-0.442646	-1.039732
C106	C	1.521579	0.057354	-0.539732
C107	C	1.021570	-0.442671	-0.969045
C108	C	1.521570	0.057329	-0.469045
C109	C	0.978255	-0.510470	-0.933690
C110	C	1.478255	-0.010470	-0.433690
C111	C	0.978247	-0.510501	-0.857041
C112	C	1.478247	-0.010501	-0.357041
C113	C	0.978244	-0.510521	-0.795949
C114	C	1.478244	-0.010521	-0.295949
C115	C	0.978163	-0.510686	-0.150296
C116	C	1.478163	-0.010686	0.349704
C117	C	0.978278	-0.510416	-0.075064
C118	C	1.478278	-0.010416	0.424936
H119	H	0.937890	-0.918829	-0.431342
H120	H	1.437890	-0.418829	0.068658
C121	C	0.582184	-0.653260	-0.416894
C122	C	1.082184	-0.153260	0.083106
H123	H	0.535023	-0.643535	-0.410716
H124	H	1.035023	-0.143535	0.089284
H125	H	0.593752	-0.724465	-0.406908
H126	H	1.093752	-0.224465	0.093092
H127	H	0.593793	-0.637834	-0.462389
H128	H	1.093793	-0.137834	0.037611
H129	H	0.994887	-1.100796	-0.214749
H130	H	1.494887	-0.600796	0.285251
C131	C	0.887273	-0.652953	-0.574358
C132	C	1.387273	-0.152953	-0.074358
H133	H	0.893463	-0.643253	-0.527199
H134	H	1.393463	-0.143253	-0.027199
H135	H	0.897159	-0.724179	-0.585935
H136	H	1.397159	-0.224179	-0.085935
H137	H	0.841800	-0.637418	-0.585936
H138	H	1.341800	-0.137418	-0.085936
H139	H	0.907057	-0.917931	-0.239071
H140	H	1.407057	-0.417931	0.260929
C141	C	0.730626	-0.653257	-0.416876
C142	C	1.230626	-0.153257	0.083124
H143	H	0.777786	-0.643541	-0.410679
H144	H	1.277786	-0.143541	0.089321
H145	H	0.719065	-0.637844	-0.462372
H146	H	1.219065	-0.137844	0.037628
H147	H	0.719023	-0.724466	-0.406886
H148	H	1.219023	-0.224466	0.093114
C149	C	0.374864	-0.653272	-0.416914
C150	C	0.874864	-0.153272	0.083086
H151	H	0.343696	-0.693698	-0.442658
H152	H	0.843696	-0.193698	0.057342
H153	H	0.402423	-0.699406	-0.390974
H154	H	0.902423	-0.199406	0.109026
H155	H	0.402455	-0.612766	-0.446448
H156	H	0.902455	-0.112766	0.053552
C157	C	0.226424	-0.653291	-0.416930
C158	C	0.726424	-0.153291	0.083070
H159	H	0.179262	-0.643568	-0.410753
H160	H	0.679262	-0.143568	0.089247
H161	H	0.237992	-0.724496	-0.406946
H162	H	0.737992	-0.224496	0.093054
H163	H	0.238034	-0.637862	-0.462425
H164	H	0.738034	-0.137862	0.037575
C165	C	1.104706	-0.907038	-0.298188
C166	C	1.604706	-0.407038	0.201812
H167	H	1.147184	-0.935165	-0.311372
H168	H	1.647184	-0.435165	0.188628
H169	H	1.094819	-0.928370	-0.253266
H170	H	1.594819	-0.428370	0.246734
H171	H	1.106231	-0.832029	-0.300428
H172	H	1.606231	-0.332029	0.199572
H173	H	0.938046	-1.100955	-0.431684
H174	H	1.438046	-0.600955	0.068316
H175	H	0.236489	-0.387559	-0.247779
H176	H	0.736489	0.112441	0.252221
C177	C	1.102377	-1.110200	-0.292875
C178	C	1.602377	-0.610200	0.207125
H179	H	1.145535	-1.082552	-0.304176
H180	H	1.645535	-0.582552	0.195824
H181	H	1.103989	-1.185268	-0.293640
H182	H	1.603989	-0.685268	0.206360
H183	H	1.090010	-1.086918	-0.248981
H184	H	1.590010	-0.586918	0.251019
H185	H	1.067466	-1.101895	-0.395589
H186	H	1.567466	-0.601895	0.104411
H187	H	0.906193	-1.099832	-0.239669
H188	H	1.406193	-0.599832	0.260331
H189	H	0.364723	-0.387549	-0.247765
H190	H	0.864723	0.112451	0.252235
H191	H	0.720492	-0.387512	-0.247744
H192	H	1.220492	0.112488	0.252256
C193	C	0.582151	-0.368140	-0.235404
C194	C	1.082151	0.131860	0.264596
H195	H	0.534991	-0.377875	-0.241591
H196	H	1.034991	0.122125	0.258409
H197	H	0.593748	-0.296931	-0.245383
H198	H	1.093748	0.203069	0.254617
H199	H	0.593716	-0.383571	-0.189908
H200	H	1.093716	0.116429	0.310092
H201	H	0.873332	-1.102438	-0.366668
H202	H	1.373332	-0.602438	0.133332
H203	H	1.056785	-0.387612	-0.584522
H204	H	1.556785	0.112388	-0.084522
H205	H	1.056846	-0.387437	-1.068527
H206	H	1.556846	0.112563	-0.568527
C207	C	0.887292	-0.652903	-0.722799
C208	C	1.387292	-0.152903	-0.222799
H209	H	0.861493	-0.693280	-0.691616
H210	H	1.361493	-0.193280	-0.191616
H211	H	0.913176	-0.699087	-0.750374
H212	H	1.413176	-0.199087	-0.250374
H213	H	0.857812	-0.612332	-0.750372
H214	H	1.357812	-0.112332	-0.250372
C215	C	0.887343	-0.652777	-1.078572
C216	C	1.387343	-0.152777	-0.578572
H217	H	0.893561	-0.643058	-1.125734
H218	H	1.393561	-0.143058	-0.625734
H219	H	0.841867	-0.637260	-1.066985
H220	H	1.341867	-0.137260	-0.566985
H221	H	0.897232	-0.724014	-1.066981
H222	H	1.397232	-0.224014	-0.566981
C223	C	1.069174	-0.368194	-0.722861
C224	C	1.569174	0.131806	-0.222861
H225	H	1.094965	-0.327843	-0.691696
H226	H	1.594965	0.172157	-0.191696
H227	H	1.043301	-0.321987	-0.750436
H228	H	1.543301	0.178013	-0.250436
H229	H	1.098659	-0.408750	-0.750438
H230	H	1.598659	0.091250	-0.250438
H231	H	1.056830	-0.387484	-0.940283
H232	H	1.556830	0.112516	-0.440283
C233	C	0.854113	-0.909476	-0.362088
C234	C	1.354113	-0.409476	0.137912
H235	H	0.825036	-0.968356	-0.355512
H236	H	1.325036	-0.468356	0.144488
H237	H	0.837847	-0.867753	-0.398507
H238	H	1.337847	-0.367753	0.101493
H239	H	0.855220	-0.867960	-0.322136
H240	H	1.355220	-0.367960	0.177864
H241	H	0.899699	-0.633472	-0.940236
H242	H	1.399699	-0.133472	-0.440236
H243	H	0.995649	-0.919382	-0.214695
H244	H	1.495649	-0.419382	0.285305
H245	H	1.063974	-0.919294	-0.398514
H246	H	1.563974	-0.419294	0.101486
