data_functionalizedCrystal
_audit_creation_method	'MofGen! by Chris Wilmer'
_symmetry_space_group_name_H-M	'P1'
_symmetry_Int_Tables_number	1
_symmetry_cell_setting	triclinic
loop_
_symmetry_equiv_pos_as_xyz
  x,y,z
_cell_length_a	19.805407
_cell_length_b	19.121063
_cell_length_c	19.805399
_cell_angle_alpha	92.411105
_cell_angle_beta	89.980427
_cell_angle_gamma	92.469032
loop_
_atom_site_label
_atom_site_type_symbol
_atom_site_fract_x
_atom_site_fract_y
_atom_site_fract_z
Zn1	Zn	1.023234	-0.279631	-0.394203
Zn2	Zn	1.523234	0.220369	0.105797
Zn3	Zn	1.018317	-0.397083	-0.285838
Zn4	Zn	1.518317	0.102917	0.214162
Zn5	Zn	0.910048	-0.279650	-0.281028
Zn6	Zn	1.410048	0.220350	0.218972
Zn7	Zn	0.905182	-0.397046	-0.398983
Zn8	Zn	1.405182	0.102954	0.101017
O9	O	0.964195	-0.338352	-0.340013
O10	O	1.464195	0.161648	0.159987
O11	O	1.117298	-0.295218	-0.379840
O12	O	1.617298	0.204782	0.120160
O13	O	1.003934	-0.381529	-0.190484
O14	O	1.503934	0.118471	0.309516
O15	O	0.929156	-0.181363	-0.292028
O16	O	1.429156	0.318637	0.207972
O17	O	1.113686	-0.381510	-0.300225
O18	O	1.613686	0.118490	0.199775
O19	O	1.012313	-0.181348	-0.375177
O20	O	1.512313	0.318652	0.124823
O21	O	0.924388	-0.295251	-0.186951
O22	O	1.424388	0.204749	0.313049
O23	O	0.814686	-0.295215	-0.296663
O24	O	1.314686	0.204785	0.203337
O25	O	0.920863	-0.381447	-0.493065
O26	O	1.420863	0.118553	0.006935
O27	O	0.811111	-0.381465	-0.383324
O28	O	1.311111	0.118535	0.116676
O29	O	1.007595	-0.295182	-0.489553
O30	O	1.507595	0.204818	0.010447
O31	O	0.999216	-0.495363	-0.304860
O32	O	1.499216	0.004637	0.195140
O33	O	0.916096	-0.495335	-0.387987
O34	O	1.416096	0.004665	0.112013
C35	C	0.788340	-0.338339	-0.339991
C36	C	1.288340	0.161661	0.160009
C37	C	0.713107	-0.338350	-0.339998
C38	C	1.213107	0.161650	0.160002
C39	C	0.675917	-0.383328	-0.385055
C40	C	1.175917	0.116672	0.114945
C41	C	0.605228	-0.383329	-0.385064
C42	C	1.105228	0.116671	0.114936
C43	C	0.571732	-0.338356	-0.340013
C44	C	1.071732	0.161644	0.159987
C45	C	0.608927	-0.293373	-0.294954
C46	C	1.108927	0.206627	0.205046
C47	C	0.679614	-0.293368	-0.294948
C48	C	1.179614	0.206632	0.205052
C49	C	0.323853	-0.293388	-0.294977
C50	C	0.823853	0.206612	0.205023
C51	C	0.253161	-0.293397	-0.294985
C52	C	0.753161	0.206603	0.205015
C53	C	0.249467	-0.383349	-0.385093
C54	C	0.749467	0.116651	0.114907
C55	C	0.320154	-0.383345	-0.385087
C56	C	0.820154	0.116655	0.114913
C57	C	0.357344	-0.338360	-0.340031
C58	C	0.857344	0.161640	0.159969
C59	C	0.433992	-0.338358	-0.340022
C60	C	0.933992	0.161642	0.159978
C61	C	0.495084	-0.338360	-0.340018
C62	C	0.995084	0.161640	0.159982
C63	C	0.956613	-0.520833	-0.347479
C64	C	1.456613	-0.020833	0.152521
C65	C	0.953431	-0.598899	-0.350696
C66	C	1.453431	-0.098899	0.149304
C67	C	0.995246	-0.635566	-0.308963
C68	C	1.495246	-0.135566	0.191037
C69	C	0.992258	-0.708917	-0.311992
C70	C	1.492258	-0.208917	0.188008
C71	C	0.947451	-0.745601	-0.356752
C72	C	1.447451	-0.245601	0.143248
C73	C	0.905634	-0.708929	-0.398489
C74	C	1.405634	-0.208929	0.101511
C75	C	0.908626	-0.635579	-0.395463
C76	C	1.408626	-0.135579	0.104537
C77	C	0.936252	-0.967071	-0.368056
C78	C	1.436252	-0.467071	0.131944
C79	C	0.933262	-1.040426	-0.371078
C80	C	1.433262	-0.540426	0.128922
C81	C	1.019887	-1.040409	-0.284581
C82	C	1.519887	-0.540409	0.215419
C83	C	1.022872	-0.967058	-0.281556
C84	C	1.522872	-0.467058	0.218444
C85	C	0.981058	-0.930393	-0.323296
C86	C	1.481058	-0.430393	0.176704
C87	C	0.944394	-0.820578	-0.359848
C88	C	1.444394	-0.320578	0.140152
C89	C	0.984119	-0.855417	-0.320203
C90	C	1.484119	-0.355417	0.179797
C91	C	1.140737	-0.338366	-0.340036
C92	C	1.640737	0.161634	0.159964
C93	C	1.215969	-0.338372	-0.340046
C94	C	1.715969	0.161628	0.159954
C95	C	0.964235	-0.338308	-0.516554
C96	C	1.464235	0.161692	-0.016554
C97	C	0.964252	-0.338289	-0.591785
C98	C	1.464252	0.161711	-0.091785
C99	C	0.971825	-0.155159	-0.332532
C100	C	1.471825	0.344841	0.167468
C101	C	0.975077	-0.077093	-0.329345
C102	C	1.475077	0.422907	0.170655
C103	C	1.009414	-0.293369	-0.625302
C104	C	1.509414	0.206631	-0.125302
C105	C	1.009422	-0.293349	-0.695989
C106	C	1.509422	0.206651	-0.195989
C107	C	0.964270	-0.338253	-0.733159
C108	C	1.464270	0.161747	-0.233159
C109	C	0.919103	-0.383175	-0.699638
C110	C	1.419103	0.116825	-0.199638
C111	C	0.919093	-0.383191	-0.628952
C112	C	1.419093	0.116809	-0.128952
C113	C	0.919144	-0.383109	-0.984709
C114	C	1.419144	0.116891	-0.484709
C115	C	0.919159	-0.383091	-1.055400
C116	C	1.419159	0.116909	-0.555400
C117	C	1.009474	-0.293267	-1.051747
C118	C	1.509474	0.206733	-0.551747
C119	C	1.009463	-0.293283	-0.981060
C120	C	1.509463	0.206717	-0.481060
C121	C	0.964294	-0.338202	-0.947545
C122	C	1.464294	0.161798	-0.447545
C123	C	0.964285	-0.338223	-0.870897
C124	C	1.464285	0.161777	-0.370897
C125	C	0.964282	-0.338236	-0.809806
C126	C	1.464282	0.161764	-0.309806
C127	C	0.964197	-0.338346	-0.164157
C128	C	1.464197	0.161654	0.335843
C129	C	0.964319	-0.338167	-0.088918
C130	C	1.464319	0.161833	0.411082
H131	H	0.703185	-0.419953	-0.421739
H132	H	1.203185	0.080047	0.078261
C133	C	0.869482	-0.432486	-1.096286
C134	C	1.369482	0.067514	-0.596286
N135	N	0.832066	-0.469688	-1.127081
N136	N	1.332066	0.030312	-0.627081
H137	H	1.046232	-0.256720	-0.950800
H138	H	1.546232	0.243280	-0.450800
C139	C	1.033405	-0.815063	-0.270968
C140	C	1.533405	-0.315063	0.229032
N141	N	1.070524	-0.784662	-0.233881
N142	N	1.570524	-0.284662	0.266119
H143	H	1.026308	-0.738768	-0.278008
H144	H	1.526308	-0.238768	0.221992
H145	H	1.046199	-0.256772	-0.723275
H146	H	1.546199	0.243228	-0.223275
C147	C	1.065882	-1.080747	-0.238673
C148	C	1.565882	-0.580747	0.261327
N149	N	1.100528	-1.111130	-0.204094
N150	N	1.600528	-0.611130	0.295906
H151	H	0.882310	-0.419762	-0.601663
H152	H	1.382310	0.080238	-0.101663
H153	H	0.882337	-0.419734	-0.729907
H154	H	1.382337	0.080266	-0.229907
H155	H	0.225890	-0.256770	-0.258298
H156	H	0.725890	0.243230	0.241702
H157	H	1.059358	-0.937192	-0.245110
H158	H	1.559358	-0.437192	0.254890
H159	H	0.896783	-1.070292	-0.407538
H160	H	1.396783	-0.570292	0.092462
C161	C	0.890290	-0.926749	-0.414006
C162	C	1.390290	-0.426749	0.085994
N163	N	0.855681	-0.896375	-0.448631
N164	N	1.355681	-0.396375	0.051369
C165	C	1.059085	-0.243970	-0.584421
C166	C	1.559085	0.256030	-0.084421
N167	N	1.096497	-0.206758	-0.553631
N168	N	1.596497	0.293242	-0.053631
H169	H	0.574951	-0.419956	-0.421754
H170	H	1.074951	0.080044	0.078246
C171	C	0.869454	-0.432519	-0.947851
C172	C	1.369454	0.067481	-0.447851
N173	N	0.832025	-0.469736	-0.920088
N174	N	1.332025	0.030264	-0.420088
H175	H	1.046250	-0.256689	-1.079043
H176	H	1.546250	0.243311	-0.579043
H177	H	0.874577	-0.605726	-0.429447
H178	H	1.374577	-0.105726	0.070553
C179	C	0.356997	-0.432820	-0.434646
C180	C	0.856997	0.067180	0.065354
N181	N	0.384746	-0.470085	-0.471977
N182	N	0.884746	0.029915	0.028023
C183	C	0.208553	-0.432829	-0.434662
C184	C	0.708553	0.067171	0.065338
N185	N	0.177737	-0.470096	-0.471996
N186	N	0.677737	0.029904	0.028004
C187	C	0.572078	-0.243899	-0.245399
C188	C	1.072078	0.256101	0.254601
N189	N	0.544324	-0.206636	-0.208071
N190	N	1.044324	0.293364	0.291929
C191	C	0.364752	-0.243907	-0.245409
C192	C	0.864752	0.256093	0.254591
N193	N	0.395560	-0.206637	-0.208072
N194	N	0.895560	0.293363	0.291928
C195	C	1.044537	-0.595221	-0.259722
C196	C	1.544537	-0.095221	0.240278
N197	N	1.081665	-0.564835	-0.222634
N198	N	1.581665	-0.064835	0.277366
C199	C	0.720524	-0.243890	-0.245380
C200	C	1.220524	0.256110	0.254620
N201	N	0.751336	-0.206621	-0.208046
N202	N	1.251336	0.293379	0.291954
C203	C	0.856343	-0.749284	-0.447722
C204	C	1.356343	-0.249284	0.052278
N205	N	0.819214	-0.779678	-0.484803
N206	N	1.319214	-0.279678	0.015197
H207	H	0.907910	-0.850454	-0.396289
H208	H	1.407910	-0.350454	0.103711
