data_functionalizedCrystal
_audit_creation_method	'MofGen! by Chris Wilmer'
_symmetry_space_group_name_H-M	'P1'
_symmetry_Int_Tables_number	1
_symmetry_cell_setting	triclinic
loop_
_symmetry_equiv_pos_as_xyz
  x,y,z
_cell_length_a	11.026607
_cell_length_b	9.065218
_cell_length_c	9.483290
_cell_angle_alpha	100.315458
_cell_angle_beta	81.846353
_cell_angle_gamma	83.199049
loop_
_atom_site_label
_atom_site_type_symbol
_atom_site_fract_x
_atom_site_fract_y
_atom_site_fract_z
O1	O	1.599776	-0.594461	0.120878
O2	O	1.245694	-0.523908	0.120881
O3	O	1.430054	-0.346368	0.120877
O4	O	1.415416	-0.772002	0.120883
O5	O	1.464435	-0.396615	-0.120899
O6	O	1.280075	-0.574155	-0.120894
O7	O	1.634157	-0.644708	-0.120897
Cu8	Cu	1.460255	-0.614019	-0.142972
Cu9	Cu	1.419596	-0.554597	0.142956
O10	O	1.449797	-0.822248	-0.120893
C11	C	1.217531	-0.536016	-0.000006
C12	C	1.082390	-0.497215	-0.000005
C13	C	1.009761	-0.604349	-0.000002
C14	C	0.870086	-0.564249	-0.000001
C15	C	1.445838	-0.316154	-0.000009
C16	C	1.441630	-0.151260	-0.000002
C17	C	1.662320	-0.632600	-0.000007
C18	C	1.797459	-0.671398	0.000001
C19	C	1.434013	-0.852462	-0.000004
C20	C	1.438219	-1.017353	-0.000002
N21	N	1.488862	-0.655815	-0.344078
C22	C	1.451841	-0.601693	-0.583709
C23	C	1.428010	-0.566901	-0.416303
N24	N	1.390999	-0.512792	0.344062
H25	H	0.838679	-0.792816	-0.000007
Cl26	Cl	1.596530	-0.813110	-0.439930
Cl27	Cl	1.018754	-0.309768	-0.000018
H28	H	1.050988	-0.725758	-0.000009
H29	H	1.358267	-0.465030	-0.354212
Cl30	Cl	1.559495	-0.758989	-0.679570
Cl31	Cl	0.806455	-0.376794	-0.000014
Cl32	Cl	1.283326	-0.355514	-0.560077
