data_functionalizedCrystal
_audit_creation_method	'MofGen! by Chris Wilmer'
_symmetry_space_group_name_H-M	'P1'
_symmetry_Int_Tables_number	1
_symmetry_cell_setting	triclinic
loop_
_symmetry_equiv_pos_as_xyz
  x,y,z
_cell_length_a	18.101398
_cell_length_b	18.050590
_cell_length_c	18.050582
_cell_angle_alpha	90.024044
_cell_angle_beta	90.021606
_cell_angle_gamma	90.016283
loop_
_atom_site_label
_atom_site_type_symbol
_atom_site_fract_x
_atom_site_fract_y
_atom_site_fract_z
Zn1	Zn	1.132162	-0.295746	0.420023
Zn2	Zn	1.132092	-0.419931	0.295832
Zn3	Zn	1.008328	-0.295755	0.295835
Zn4	Zn	1.008299	-0.419894	0.419968
O5	O	1.070220	-0.357832	0.357914
O6	O	1.235786	-0.312232	0.403571
O7	O	1.115657	-0.403478	0.191907
O8	O	1.024796	-0.191829	0.312333
O9	O	1.235734	-0.403470	0.312328
O10	O	1.115777	-0.191823	0.403574
O11	O	1.024729	-0.312246	0.191910
O12	O	0.904691	-0.312210	0.312279
O13	O	1.024747	-0.403407	0.523900
O14	O	0.904670	-0.403415	0.403479
O15	O	1.115749	-0.312196	0.523941
O16	O	1.115629	-0.523851	0.312274
O17	O	1.024679	-0.523824	0.403476
C18	C	0.877810	-0.357810	0.357874
C19	C	0.795496	-0.357818	0.357874
C20	C	0.644787	-0.357833	0.357908
C21	C	0.613422	-0.300368	0.300623
C22	C	0.527804	-0.300151	0.300811
C23	C	0.496405	-0.357848	0.357939
C24	C	0.527536	-0.336964	0.436295
C25	C	0.613181	-0.336538	0.435945
C26	C	0.613202	-0.436332	0.337528
C27	C	0.527550	-0.435919	0.335821
C28	C	0.412545	-0.357858	0.357962
C29	C	0.728647	-0.357822	0.357890
C30	C	1.070163	-0.550784	0.357885
C31	C	1.070207	-0.633329	0.357897
C32	C	1.119769	-0.832768	0.308370
C33	C	1.137854	-0.882106	0.376152
C34	C	1.070249	-0.784460	0.357927
C35	C	1.052239	-0.882203	0.290175
C36	C	1.070291	-0.930445	0.357949
C37	C	1.088369	-0.832711	0.425744
C38	C	1.002722	-0.832803	0.339721
C39	C	1.020782	-0.882119	0.407550
C40	C	1.070227	-0.700362	0.357912
C41	C	1.070313	-1.014541	0.357971
C42	C	1.263382	-0.357854	0.357955
C43	C	1.345696	-0.357864	0.357973
C44	C	1.070252	-0.357796	0.551620
C45	C	1.070266	-0.357781	0.634166
C46	C	1.070298	-0.164126	0.357960
C47	C	1.070331	-0.081580	0.357980
C48	C	1.070231	-0.357813	0.164962
C49	C	1.070361	-0.357619	0.082417
C50	C	1.020826	-0.407301	0.882969
C51	C	1.002725	-0.339563	0.833581
C52	C	1.070329	-0.357672	0.931286
C53	C	1.088363	-0.425460	0.833593
C54	C	1.070296	-0.357729	0.785301
C55	C	1.052193	-0.289898	0.882985
C56	C	1.137863	-0.375841	0.883002
C57	C	1.119788	-0.308056	0.833636
C58	C	1.070346	-0.357640	1.015385
C59	C	1.070279	-0.357754	0.701205
H60	H	0.633172	-0.279168	0.453171
H61	H	1.194973	-0.391209	0.904727
H62	H	1.036988	-0.903942	0.232869
C63	C	0.925554	-0.318827	0.804247
C64	C	0.858323	-0.367344	0.823709
C65	C	0.781151	-0.346613	0.794379
C66	C	0.771210	-0.277365	0.745588
C67	C	0.838444	-0.228844	0.726123
C68	C	0.915616	-0.249574	0.755453
H69	H	0.865680	-0.418609	0.859830
H70	H	0.731381	-0.382533	0.808788
H71	H	0.714083	-0.262019	0.723876
H72	H	0.831087	-0.177578	0.690003
H73	H	0.965386	-0.213655	0.741044
C74	C	1.031471	-0.212462	0.912164
C75	C	1.027627	-0.198131	0.996180
C76	C	1.006902	-0.120698	1.025360
C77	C	0.990021	-0.057596	0.970525
C78	C	0.993864	-0.071925	0.886504
C79	C	1.014590	-0.149358	0.857323
H80	H	1.040124	-0.244844	1.036777
H81	H	1.004057	-0.110091	1.087558
H82	H	0.974679	-0.000276	0.992126
H83	H	0.981368	-0.025212	0.845907
H84	H	1.017435	-0.159965	0.795125
C85	C	0.925576	-0.803513	0.318874
C86	C	0.882357	-0.754708	0.373802
C87	C	0.805210	-0.725416	0.352945
C88	C	0.771282	-0.744929	0.277160
C89	C	0.814501	-0.793737	0.222227
C90	C	0.891648	-0.823029	0.243084
H91	H	0.907472	-0.740261	0.429907
H92	H	0.773217	-0.689285	0.393610
H93	H	0.714174	-0.723245	0.261720
H94	H	0.789386	-0.808184	0.166122
H95	H	0.923641	-0.859159	0.202419
H96	H	1.103632	-0.482764	0.811899
H97	H	0.978923	-0.903652	0.449516
H98	H	0.978944	-0.449193	0.904632
H99	H	0.506753	-0.313180	0.242721
C100	C	0.641224	-0.317743	0.221895
C101	C	0.687073	-0.259928	0.179240
C102	C	0.714892	-0.277303	0.100513
C103	C	0.696862	-0.352494	0.064442
C104	C	0.651011	-0.410314	0.107098
C105	C	0.623191	-0.392939	0.185824
H106	H	0.700422	-0.204263	0.205941
H107	H	0.748835	-0.234500	0.068937
H108	H	0.717456	-0.365356	0.006164
H109	H	0.637662	-0.465979	0.080396
H110	H	0.589249	-0.435742	0.217400
C111	C	0.640610	-0.494173	0.393881
C112	C	0.691396	-0.470342	0.458075
C113	C	0.718810	-0.528176	0.514430
C114	C	0.695437	-0.609840	0.506591
C115	C	0.644648	-0.633675	0.442394
C116	C	0.617235	-0.575842	0.386039
H117	H	0.708701	-0.409886	0.463881
H118	H	0.756407	-0.510531	0.561953
H119	H	0.715730	-0.652652	0.548308
H120	H	0.627344	-0.694132	0.436588
H121	H	0.579638	-0.593486	0.338516
H122	H	1.161660	-0.811098	0.266506
C123	C	0.642502	-0.222229	0.318667
C124	C	0.694555	-0.210426	0.385133
C125	C	0.723634	-0.132287	0.403181
C126	C	0.700660	-0.065952	0.354763
C127	C	0.648604	-0.077753	0.288293
C128	C	0.619526	-0.155892	0.270245
H129	H	0.711564	-0.259533	0.420978
H130	H	0.762168	-0.123552	0.452386
H131	H	0.722186	-0.008110	0.368123
H132	H	0.631595	-0.028646	0.252447
H133	H	0.580991	-0.164627	0.221039
C134	C	0.500135	-0.221579	0.319094
C135	C	0.555969	-0.158835	0.333573
C136	C	0.528300	-0.080260	0.351860
C137	C	0.444797	-0.064429	0.355668
C138	C	0.388958	-0.127174	0.341188
C139	C	0.416627	-0.205750	0.322901
H140	H	0.617788	-0.170553	0.330755
H141	H	0.569637	-0.033811	0.362578
H142	H	0.424315	-0.006262	0.369205
H143	H	0.327139	-0.115457	0.344006
H144	H	0.375290	-0.252198	0.312183
H145	H	0.633933	-0.376592	0.480105
H146	H	1.161638	-0.266063	0.812111
H147	H	0.506102	-0.280228	0.453824
C148	C	0.500061	-0.391775	0.495559
C149	C	0.448915	-0.456291	0.473441
C150	C	0.421437	-0.511102	0.532704
C151	C	0.445103	-0.501397	0.614086
C152	C	0.496251	-0.436878	0.636208
C153	C	0.523730	-0.382067	0.576944
H154	H	0.431394	-0.463478	0.413194
H155	H	0.383573	-0.558863	0.516327
H156	H	0.424761	-0.541971	0.657956
H157	H	0.513772	-0.429691	0.696455
H158	H	0.561593	-0.334306	0.593321
H159	H	0.507201	-0.451672	0.278154
C160	C	0.642326	-0.462098	0.261624
C161	C	0.695173	-0.412181	0.217174
C162	C	0.724297	-0.437935	0.141265
C163	C	0.700574	-0.513606	0.109807
C164	C	0.647725	-0.563528	0.154257
C165	C	0.618601	-0.537774	0.230166
H166	H	0.712737	-0.356160	0.240460
H167	H	0.763419	-0.400979	0.108360
H168	H	0.722133	-0.532671	0.053615
H169	H	0.630161	-0.619549	0.130971
H170	H	0.579478	-0.574729	0.263071
H171	H	0.506170	-0.481004	0.374474
H172	H	1.194978	-0.903765	0.391565
H173	H	1.103563	-0.811064	0.483099
