data_functionalizedCrystal
_audit_creation_method	'MofGen! by Chris Wilmer'
_symmetry_space_group_name_H-M	'P1'
_symmetry_Int_Tables_number	1
_symmetry_cell_setting	triclinic
loop_
_symmetry_equiv_pos_as_xyz
  x,y,z
_cell_length_a	16.992694
_cell_length_b	15.455387
_cell_length_c	16.974813
_cell_angle_alpha	96.657409
_cell_angle_beta	92.975366
_cell_angle_gamma	87.192853
loop_
_atom_site_label
_atom_site_type_symbol
_atom_site_fract_x
_atom_site_fract_y
_atom_site_fract_z
O1	O	-1.043758	0.084056	0.171481
O2	O	-0.543758	0.584056	0.671481
O3	O	-0.815470	0.083952	0.169637
O4	O	-0.315470	0.583952	0.669637
O5	O	-0.935637	0.075922	0.055489
O6	O	-0.435637	0.575922	0.555489
O7	O	-0.923591	0.092086	0.285628
O8	O	-0.423591	0.592086	0.785628
O9	O	-0.929519	-0.068801	0.048888
O10	O	-0.429519	0.431199	0.548888
O11	O	-0.809353	-0.060771	0.163036
O12	O	-0.309353	0.439229	0.663036
O13	O	-1.037640	-0.060667	0.164880
O14	O	-0.537640	0.439333	0.664880
Cu15	Cu	-0.922938	-0.073934	0.163355
Cu16	Cu	-0.422938	0.426066	0.663355
Cu17	Cu	-0.930173	0.097219	0.171161
Cu18	Cu	-0.430173	0.597219	0.671161
O19	O	-0.917474	-0.052637	0.279027
O20	O	-0.417474	0.447363	0.779027
C21	C	-0.783194	0.011427	0.163963
C22	C	-0.283194	0.511427	0.663963
C23	C	-0.696137	0.010940	0.156881
C24	C	-0.196137	0.510940	0.656881
N25	N	-0.917855	-0.194313	0.157864
N26	N	-0.417855	0.305687	0.657864
C27	C	-0.932006	0.001485	0.022605
C28	C	-0.432006	0.501485	0.522605
C29	C	-0.930293	-0.004700	-0.065546
C30	C	-0.430293	0.495300	0.434454
C31	C	-1.069916	0.011860	0.170554
C32	C	-0.569916	0.511860	0.670554
C33	C	-1.156973	0.012353	0.177636
C34	C	-0.656973	0.512353	0.677636
C35	C	-0.646026	0.015738	0.225215
C36	C	-0.146026	0.515738	0.725215
C37	C	-0.564226	0.015259	0.218555
C38	C	-0.064226	0.515259	0.718555
C39	C	-0.532540	0.009986	0.143561
C40	C	-0.032540	0.509986	0.643561
C41	C	-0.582657	0.005185	0.075221
C42	C	-0.082657	0.505185	0.575221
C43	C	-0.664455	0.005658	0.081881
C44	C	-0.164455	0.505658	0.581881
C45	C	-0.288889	0.008024	0.115957
C46	C	0.211111	0.508024	0.615957
C47	C	-0.207085	0.007554	0.109301
C48	C	0.292915	0.507554	0.609301
C49	C	-0.188659	0.017626	0.252636
C50	C	0.311341	0.517626	0.752636
C51	C	-0.270460	0.018105	0.259290
C52	C	0.229540	0.518105	0.759290
C53	C	-0.320570	0.013298	0.190951
C54	C	0.179430	0.513298	0.690951
N55	N	-0.448928	0.009499	0.136752
N56	N	0.051072	0.509499	0.636752
N57	N	-0.404180	0.013780	0.197760
N58	N	0.095820	0.513780	0.697760
N59	N	-0.935262	0.217597	0.176646
N60	N	-0.435262	0.717597	0.676646
C61	C	-0.963474	0.763729	0.207029
C62	C	-0.463474	1.263729	0.707029
C63	C	-0.959619	0.672631	0.202872
C64	C	-0.459619	1.172631	0.702872
C65	C	-0.910140	0.623492	0.149552
C66	C	-0.410140	1.123492	0.649552
C67	C	-0.864519	0.665455	0.100382
C68	C	-0.364519	1.165455	0.600382
C69	C	-0.868379	0.756552	0.104536
C70	C	-0.368379	1.256552	0.604536
C71	C	-0.893501	0.350657	0.131630
C72	C	-0.393501	0.850657	0.631630
C73	C	-0.889643	0.259555	0.127481
C74	C	-0.389643	0.759555	0.627481
C75	C	-0.984744	0.266737	0.229970
C76	C	-0.484744	0.766737	0.729970
C77	C	-0.988596	0.357835	0.234123
C78	C	-0.488596	0.857835	0.734123
C79	C	-0.942978	0.399790	0.184950
C80	C	-0.442978	0.899790	0.684950
N81	N	-0.906196	0.530374	0.145303
N82	N	-0.406196	1.030374	0.645303
N83	N	-0.946927	0.492906	0.189196
N84	N	-0.446927	0.992906	0.689196
C85	C	-0.932825	0.071282	-0.103356
C86	C	-0.432825	0.571282	0.396644
C87	C	-0.931210	0.065468	-0.186183
C88	C	-0.431210	0.565468	0.313817
C89	C	-0.927069	-0.016330	-0.231198
C90	C	-0.427069	0.483670	0.268802
C91	C	-0.924535	-0.092318	-0.193382
C92	C	-0.424535	0.407682	0.306618
C93	C	-0.926144	-0.086503	-0.110556
C94	C	-0.426144	0.413497	0.389444
C95	C	-0.921893	-0.042180	-0.479296
C96	C	-0.421893	0.457820	0.020704
C97	C	-0.920286	-0.047990	-0.562127
C98	C	-0.420286	0.452010	-0.062127
C99	C	-0.926960	0.109797	-0.554922
C100	C	-0.426960	0.609797	-0.054922
C101	C	-0.928574	0.115604	-0.472096
C102	C	-0.428574	0.615604	0.027904
C103	C	-0.926035	0.039616	-0.434287
C104	C	-0.426035	0.539616	0.065713
N105	N	-0.925421	-0.022275	-0.315860
N106	N	-0.425421	0.477725	0.184140
N107	N	-0.927678	0.045562	-0.349625
N108	N	-0.427678	0.545562	0.150375
C109	C	-0.921104	0.021802	0.311912
C110	C	-0.421104	0.521802	0.811912
C111	C	-0.922818	0.027993	0.400062
C112	C	-0.422818	0.527993	0.900062
H113	H	-0.671818	0.020032	0.286284
H114	H	-0.171818	0.520032	0.786284
H115	H	-0.849347	0.219548	0.084062
H116	H	-0.349347	0.719548	0.584062
H117	H	-0.523428	0.019167	0.274201
H118	H	-0.023428	0.519167	0.774201
H119	H	-0.933275	0.127341	-0.216965
H120	H	-0.433275	0.627341	0.283035
H121	H	-0.296253	0.022408	0.320359
H122	H	0.203747	0.522408	0.820359
H123	H	-1.003760	0.803733	0.250452
H124	H	-0.503760	1.303733	0.750452
H125	H	-1.021883	0.232567	0.270004
H126	H	-0.521883	0.732567	0.770004
H127	H	-0.147851	0.021538	0.308275
H128	H	0.352149	0.521538	0.808275
H129	H	-1.028889	0.397838	0.277539
H130	H	-0.528889	0.897838	0.777539
H131	H	-0.831231	0.790712	0.064501
H132	H	-0.331231	1.290712	0.564501
H133	H	-0.921158	-0.158919	-0.230039
H134	H	-0.421158	0.341081	0.269961
H135	H	-0.916910	-0.114603	-0.598776
H136	H	-0.416910	0.385397	-0.098776
H137	H	-0.996768	0.638473	0.242906
H138	H	-0.496768	1.138473	0.742906
H139	H	-0.919842	-0.104056	-0.448523
H140	H	-0.419842	0.395944	0.051477
H141	H	-0.556851	0.000879	0.014158
H142	H	-0.056851	0.500879	0.514158
H143	H	-0.931946	0.182213	-0.435450
H144	H	-0.431946	0.682213	0.064550
H145	H	-0.924071	-0.148376	-0.079771
H146	H	-0.424071	0.351624	0.420229
H147	H	-0.181289	0.003261	0.048229
H148	H	0.318711	0.503261	0.548229
H149	H	-0.824237	0.625438	0.056964
H150	H	-0.324237	1.125438	0.556964
H151	H	-0.705256	0.001751	0.026236
H152	H	-0.205256	0.501751	0.526236
H153	H	-0.329679	0.004110	0.060309
H154	H	0.170321	0.504110	0.560309
H155	H	-0.929025	0.171662	-0.585716
H156	H	-0.429025	0.671662	-0.085716
H157	H	-0.936201	0.137891	-0.066711
H158	H	-0.436201	0.637891	0.433289
H159	H	-0.856356	0.384806	0.091589
H160	H	-0.356356	0.884806	0.591589
