data_functionalizedCrystal
_audit_creation_method	'MofGen! by Chris Wilmer'
_symmetry_space_group_name_H-M	'P1'
_symmetry_Int_Tables_number	1
_symmetry_cell_setting	triclinic
loop_
_symmetry_equiv_pos_as_xyz
  x,y,z
_cell_length_a	9.798715
_cell_length_b	10.723024
_cell_length_c	10.723024
_cell_angle_alpha	95.532131
_cell_angle_beta	89.998022
_cell_angle_gamma	90.003391
loop_
_atom_site_label
_atom_site_type_symbol
_atom_site_fract_x
_atom_site_fract_y
_atom_site_fract_z
O1	O	-0.113478	-1.657187	0.175024
O2	O	-0.113483	-1.294035	0.191778
O3	O	-0.113475	-1.483988	0.001825
O4	O	-0.113486	-1.467234	0.364977
O5	O	0.113507	-1.483974	0.001824
O6	O	0.113499	-1.294021	0.191777
O7	O	0.113504	-1.657173	0.175024
Zn8	Zn	0.149540	-1.475595	0.183401
Zn9	Zn	-0.149519	-1.475613	0.183401
O10	O	0.113496	-1.467220	0.364977
C11	C	0.000008	-1.247528	0.190558
C12	C	0.000006	-1.108974	0.186911
N13	N	0.353640	-1.475591	0.183399
N14	N	-0.353619	-1.475627	0.183393
C15	C	0.000014	-1.482762	-0.044675
C16	C	0.000009	-1.479114	-0.183229
C17	C	0.421420	-1.555347	0.103292
C18	C	0.578582	-1.555367	0.103288
C19	C	0.000010	-1.703680	0.176243
C20	C	0.000003	-1.842234	0.179891
C21	C	0.000002	-1.033991	0.293198
C22	C	0.000001	-0.890788	0.289431
C23	C	0.000009	-1.585401	-0.258212
C24	C	0.000004	-1.581634	-0.401415
C25	C	0.000004	-1.468447	0.411477
C26	C	-0.000000	-1.472094	0.550031
H27	H	0.363100	-1.623611	0.034707
H28	H	0.000010	-1.381099	-0.385544
N29	N	-0.000006	-1.702167	-0.486755
H30	H	-0.000003	-1.775785	-0.434670
H31	H	0.084138	-1.705619	-0.541375
N32	N	0.000023	-1.709638	-0.202828
H33	H	0.084168	-1.758706	-0.231511
H34	H	-0.084172	-1.758628	-0.231513
H35	H	0.588102	-1.407345	0.251984
N36	N	0.430884	-1.385152	0.274237
H37	H	0.490161	-1.433530	0.329726
H38	H	0.363974	-1.331943	0.327611
H39	H	0.636870	-1.623654	0.034709
N40	N	0.000004	-1.354870	-0.238600
H41	H	-0.084140	-1.348458	-0.292004
H42	H	0.084200	-1.348524	-0.291950
H43	H	0.000007	-1.075814	0.386984
H44	H	-0.000008	-0.826355	0.380421
H45	H	-0.000002	-0.906659	0.088896
H46	H	-0.000026	-1.067152	0.093125
