data_functionalizedCrystal
_audit_creation_method	'MofGen! by Chris Wilmer'
_symmetry_space_group_name_H-M	'P1'
_symmetry_Int_Tables_number	1
_symmetry_cell_setting	triclinic
loop_
_symmetry_equiv_pos_as_xyz
  x,y,z
_cell_length_a	12.645331
_cell_length_b	18.101395
_cell_length_c	12.645323
_cell_angle_alpha	89.971733
_cell_angle_beta	89.977324
_cell_angle_gamma	90.030083
loop_
_atom_site_label
_atom_site_type_symbol
_atom_site_fract_x
_atom_site_fract_y
_atom_site_fract_z
Zn1	Zn	1.620632	-0.294844	-0.599421
Zn2	Zn	1.620473	-0.418694	-0.422151
Zn3	Zn	1.443347	-0.294869	-0.422166
Zn4	Zn	1.443287	-0.418646	-0.599366
O5	O	1.531935	-0.356763	-0.510776
O6	O	1.768958	-0.311283	-0.575923
O7	O	1.596935	-0.402299	-0.273805
O8	O	1.466956	-0.191233	-0.445708
O9	O	1.768841	-0.402275	-0.445683
O10	O	1.597207	-0.191214	-0.575937
O11	O	1.466801	-0.311325	-0.273816
O12	O	1.294992	-0.311278	-0.445655
O13	O	1.466854	-0.402193	-0.747721
O14	O	1.294948	-0.402217	-0.575843
O15	O	1.597149	-0.311236	-0.747761
O16	O	1.596877	-0.522321	-0.445630
O17	O	1.466699	-0.522285	-0.575829
C18	C	1.256505	-0.356746	-0.510745
C19	C	1.138675	-0.356756	-0.510757
C20	C	0.971103	-0.299284	-0.429308
C21	C	1.093663	-0.299432	-0.428949
C22	C	1.094129	-0.434770	-0.480236
C23	C	0.971530	-0.434456	-0.479680
C24	C	0.971532	-0.336957	-0.623043
C25	C	1.094139	-0.335215	-0.622419
C26	C	1.531793	-0.549174	-0.510745
C27	C	1.531829	-0.631488	-0.510767
C28	C	1.532062	-0.930579	-0.510824
C29	C	1.450348	-0.899262	-0.592945
C30	C	1.449960	-0.813644	-0.592688
C31	C	1.531946	-0.782196	-0.510797
C32	C	1.501694	-0.813349	-0.399071
C33	C	1.501167	-0.898994	-0.399562
C34	C	1.644207	-0.898924	-0.539445
C35	C	1.643548	-0.813273	-0.541895
C36	C	1.531883	-0.698337	-0.510774
C37	C	1.532123	-1.014438	-0.510839
C38	C	1.808440	-0.356781	-0.510807
C39	C	1.926270	-0.356789	-0.510821
C40	C	1.532013	-0.356706	-0.787281
C41	C	1.532046	-0.356682	-0.905112
C42	C	1.532106	-0.163601	-0.510830
C43	C	1.532179	-0.081287	-0.510854
C44	C	1.449825	-0.413633	-1.072650
C45	C	1.450040	-0.413915	-0.950090
C46	C	1.643739	-0.377863	-0.949630
C47	C	1.643288	-0.378220	-1.072228
C48	C	1.503631	-0.278231	-1.072316
C49	C	1.501139	-0.278701	-0.949710
C50	C	1.531918	-0.356767	-0.235346
C51	C	1.532090	-0.356583	-0.117517
H52	H	0.942539	-0.378842	-0.683778
C53	C	1.675876	-0.455593	-1.110883
H54	H	1.675894	-0.456492	-1.186001
H55	H	1.627111	-0.491189	-1.084930
H56	H	1.744744	-0.466826	-1.085576
H57	H	1.707650	-0.791861	-0.486442
H58	H	1.671788	-0.920471	-0.619527
H59	H	1.419189	-0.919036	-0.375318
C60	C	1.726430	-0.926207	-0.458576
H61	H	1.692639	-0.956751	-0.407623
H62	H	1.757676	-0.884976	-0.424189
H63	H	1.779680	-0.953722	-0.494003
C64	C	1.133513	-0.494205	-0.557909
H65	H	1.105639	-0.540935	-0.537996
H66	H	1.208569	-0.496026	-0.556249
H67	H	1.110610	-0.482325	-0.627405
C68	C	1.474939	-0.491610	-1.114285
H69	H	1.535344	-0.489550	-1.158887
H70	H	1.416236	-0.509761	-1.153284
H71	H	1.488749	-0.523625	-1.056367
C72	C	0.929827	-0.261450	-0.660547
H73	H	0.958087	-0.250537	-0.728405
H74	H	0.950819	-0.224286	-0.611863
H75	H	0.854836	-0.262950	-0.664520
H76	H	1.468825	-0.472001	-0.920771
C77	C	1.134364	-0.221284	-0.454785
H78	H	1.209493	-0.221271	-0.454605
H79	H	1.109188	-0.187525	-0.403100
H80	H	1.109529	-0.206847	-0.522606
C81	C	1.728882	-0.324520	-1.112337
H82	H	1.729176	-0.324367	-1.187466
H83	H	1.796113	-0.339893	-1.087109
H84	H	1.714143	-0.276161	-1.087190
H85	H	1.668278	-0.434540	-0.918936
H86	H	1.468888	-0.792579	-0.675532
C87	C	1.392116	-0.784473	-0.365734
H88	H	1.364657	-0.753441	-0.419744
H89	H	1.398454	-0.757140	-0.301940
H90	H	1.345624	-0.825030	-0.354974
C91	C	1.337600	-0.395899	-1.112455
H92	H	1.339906	-0.353546	-1.156800
H93	H	1.292668	-0.386450	-1.053786
H94	H	1.310995	-0.436758	-1.151362
C95	C	1.728766	-0.323513	-0.910271
H96	H	1.696827	-0.287336	-0.866229
H97	H	1.761134	-0.299979	-0.969137
H98	H	1.780786	-0.349695	-0.871143
H99	H	1.367728	-0.920848	-0.574226
H100	H	1.423605	-0.258923	-1.103222
H101	H	1.367216	-0.400660	-0.919989
H102	H	1.124778	-0.451877	-0.399076
H103	H	1.418943	-0.262727	-0.920612
C104	C	1.475560	-0.927109	-0.705200
H105	H	1.536153	-0.958078	-0.702996
H106	H	1.489059	-0.886157	-0.750236
H107	H	1.416995	-0.954318	-0.731607
C108	C	1.584559	-0.220807	-1.111529
H109	H	1.635446	-0.244426	-1.155235
H110	H	1.619022	-0.198941	-1.052593
H111	H	1.549129	-0.183634	-1.150979
C112	C	1.133481	-0.257662	-0.653518
H113	H	1.176873	-0.238487	-0.598691
H114	H	1.074583	-0.225936	-0.663950
H115	H	1.173285	-0.260724	-0.717095
C116	C	1.135514	-0.387677	-0.708854
H117	H	1.180688	-0.423567	-0.677834
H118	H	1.173847	-0.360131	-0.760080
H119	H	1.077520	-0.411717	-0.741960
C120	C	0.929422	-0.316781	-0.317624
H121	H	0.956884	-0.281777	-0.268865
H122	H	0.951281	-0.364997	-0.297594
H123	H	0.854378	-0.314353	-0.317510
C124	C	1.576228	-0.218248	-0.908437
H125	H	1.555713	-0.171766	-0.936656
H126	H	1.646544	-0.229141	-0.929777
H127	H	1.572759	-0.216537	-0.833430
C128	C	0.931328	-0.220895	-0.454861
H129	H	0.959281	-0.187020	-0.404765
H130	H	0.856281	-0.220032	-0.451753
H131	H	0.953900	-0.207266	-0.523831
C132	C	1.133222	-0.317145	-0.316612
H133	H	1.208349	-0.317290	-0.316006
H134	H	1.107778	-0.364332	-0.295716
H135	H	1.107958	-0.280728	-0.268806
C136	C	0.932819	-0.457167	-0.368851
H137	H	0.992019	-0.466494	-0.324589
H138	H	0.890961	-0.500601	-0.374121
H139	H	0.891609	-0.418405	-0.339459
C140	C	1.337670	-0.786044	-0.567077
H141	H	1.337046	-0.733562	-0.566843
H142	H	1.316933	-0.803839	-0.499492
H143	H	1.289754	-0.803695	-0.619111
C144	C	0.931457	-0.494234	-0.556478
H145	H	0.990107	-0.518614	-0.587860
H146	H	0.889791	-0.471830	-0.610117
H147	H	0.889764	-0.529130	-0.518850
H148	H	1.558102	-0.919713	-0.336289
C149	C	1.579555	-0.785830	-0.314153
H150	H	1.631325	-0.755021	-0.346159
H151	H	1.613257	-0.826941	-0.281857
H152	H	1.542114	-0.758535	-0.262061
C153	C	1.674382	-0.785754	-0.652962
H154	H	1.619481	-0.755449	-0.680274
H155	H	1.684724	-0.826886	-0.698423
H156	H	1.737959	-0.757932	-0.648704
