data_functionalizedCrystal
_audit_creation_method	'MofGen! by Chris Wilmer'
_symmetry_space_group_name_H-M	'P1'
_symmetry_Int_Tables_number	1
_symmetry_cell_setting	triclinic
loop_
_symmetry_equiv_pos_as_xyz
  x,y,z
_cell_length_a	13.339070
_cell_length_b	14.853567
_cell_length_c	11.804365
_cell_angle_alpha	101.851263
_cell_angle_beta	74.875130
_cell_angle_gamma	99.632112
loop_
_atom_site_label
_atom_site_type_symbol
_atom_site_fract_x
_atom_site_fract_y
_atom_site_fract_z
O1	O	1.363338	0.439029	-0.099032
O2	O	1.068727	0.379685	-0.099030
O3	O	1.223903	0.280086	-0.099035
O4	O	1.208162	0.538627	-0.099028
O5	O	1.183051	0.306270	0.099022
O6	O	1.027875	0.405869	0.099027
O7	O	1.322486	0.465213	0.099025
Cu8	Cu	1.171451	0.437931	0.117110
Cu9	Cu	1.219763	0.406966	-0.117116
O10	O	1.167310	0.564811	0.099029
C11	C	1.010598	0.382752	-0.000002
C12	C	0.898254	0.352872	-0.000001
C13	C	0.533790	0.585204	-0.000014
C14	C	0.639343	0.613280	-0.000018
C15	C	0.704076	0.548181	-0.000013
C16	C	0.663246	0.455000	-0.000006
C17	C	0.557684	0.426919	-0.000011
C18	C	0.727970	0.389896	-0.000010
C19	C	0.687140	0.296715	-0.000003
C20	C	0.581588	0.268640	-0.000007
C21	C	0.516855	0.333740	-0.000012
C22	C	0.833531	0.417977	-0.000005
C23	C	0.857425	0.259692	-0.000002
C24	C	0.751872	0.231616	0.000002
C25	C	1.202764	0.259411	-0.000010
C26	C	1.200629	0.158794	-0.000020
C27	C	1.099414	-0.278941	0.000003
C28	C	1.283765	-0.254314	0.000002
C29	C	1.285776	-0.159780	-0.000005
C30	C	1.194604	-0.124823	-0.000006
C31	C	1.101421	-0.184399	-0.000000
C32	C	1.378955	-0.100196	0.000001
C33	C	1.380969	-0.005657	-0.000005
C34	C	1.289798	0.029301	-0.000014
C35	C	1.196611	-0.030281	-0.000010
C36	C	1.105439	0.004677	-0.000011
C37	C	1.012254	-0.054905	-0.000015
C38	C	1.010250	-0.149441	-0.000010
C39	C	1.291802	0.123837	-0.000019
C40	C	1.107447	0.099219	-0.000014
C41	C	1.380616	0.462145	-0.000006
C42	C	1.492961	0.492024	-0.000015
C43	C	1.188449	0.585486	0.000002
C44	C	1.190586	0.686102	0.000004
N45	N	1.137478	0.459712	0.281852
N46	N	1.253743	0.385180	-0.281857
C47	C	1.335324	0.332860	0.655794
C48	C	1.361023	0.316378	0.531132
C49	C	1.305139	0.352210	0.468806
C50	C	1.223551	0.404526	0.531154
C51	C	1.197855	0.421015	0.655829
C52	C	1.167670	0.440366	0.468840
C53	C	1.086082	0.492682	0.531189
C54	C	1.060390	0.509168	0.655851
C55	C	1.116274	0.473336	0.718177
C56	C	1.193366	0.423877	0.344166
C57	C	1.055897	0.512033	0.344200
C58	C	1.030198	0.528514	0.468862
H59	H	0.481078	0.638196	-0.000028
O60	O	1.018984	0.133318	-0.000069
C61	C	1.040725	0.229539	-0.000035
H62	H	1.127950	0.248077	-0.037528
H63	H	0.994482	0.250003	-0.057538
H64	H	1.017322	0.268344	0.094984
O65	O	0.712212	0.141118	0.000209
C66	C	0.724134	0.113384	0.102770
H67	H	0.731373	0.176886	0.174467
H68	H	0.653030	0.063576	0.137196
H69	H	0.797636	0.077266	0.079580
H70	H	1.023545	-0.327457	-0.000005
H71	H	0.910132	0.206682	-0.000004
H72	H	0.938020	-0.026429	-0.000007
H73	H	1.259795	0.381281	0.293413
H74	H	1.427452	0.273784	0.480372
H75	H	0.430904	0.310884	-0.000008
O76	O	0.919639	-0.207202	0.000151
C77	C	0.842904	-0.178038	0.102740
H78	H	0.863516	-0.101374	0.136931
H79	H	0.763407	-0.189119	0.079671
H80	H	0.839737	-0.220036	0.174572
H81	H	1.453180	-0.128665	0.000013
H82	H	0.548351	0.192765	-0.000014
O83	O	1.001526	0.546944	0.283855
C84	C	0.923996	0.596642	0.365616
H85	H	0.947169	0.619815	0.454474
H86	H	0.916077	0.660030	0.329594
H87	H	0.846048	0.550271	0.378892
O88	O	0.806592	0.575360	0.000148
C89	C	0.827241	0.554919	0.102745
H90	H	0.766332	0.497051	0.136944
H91	H	0.908492	0.531746	0.079685
H92	H	0.823597	0.619428	0.174568
O93	O	0.873366	0.508442	-0.000064
C94	C	0.980406	0.519277	-0.000031
H95	H	1.012831	0.450140	-0.037520
H96	H	1.024750	0.572886	-0.057537
H97	H	0.990193	0.543566	0.094987
O98	O	1.389579	0.297903	0.716212
C99	C	1.379262	0.200473	0.685785
H100	H	1.358923	0.178834	0.595270
H101	H	1.456142	0.174557	0.681521
H102	H	1.314380	0.169245	0.755957
H103	H	0.672581	0.689146	-0.000033
H104	H	1.367670	0.172345	-0.000008
O105	O	1.372240	-0.288426	-0.000044
C106	C	1.350479	-0.384638	-0.000002
H107	H	1.278722	-0.413089	-0.037497
H108	H	1.420442	-0.420312	-0.057498
H109	H	1.334678	-0.398311	0.095020
H110	H	1.095348	0.486751	0.819688
H111	H	0.993964	0.551775	0.706615
O112	O	1.471585	0.052080	-0.000062
C113	C	1.551616	0.000956	-0.000027
H114	H	1.530893	-0.075002	-0.037514
H115	H	1.628524	0.029273	-0.057533
H116	H	1.560147	0.007257	0.094992
O117	O	1.330201	0.336076	0.347710
C118	C	1.414210	0.282235	0.306043
H119	H	1.416989	0.242442	0.377886
H120	H	1.402849	0.231198	0.222650
H121	H	1.490723	0.329528	0.283901
H122	H	0.963768	0.571111	0.519642
