data_functionalizedCrystal
_audit_creation_method	'MofGen! by Chris Wilmer'
_symmetry_space_group_name_H-M	'P1'
_symmetry_Int_Tables_number	1
_symmetry_cell_setting	triclinic
loop_
_symmetry_equiv_pos_as_xyz
  x,y,z
_cell_length_a	10.654547
_cell_length_b	10.654541
_cell_length_c	13.448316
_cell_angle_alpha	90.004080
_cell_angle_beta	89.992541
_cell_angle_gamma	95.514990
loop_
_atom_site_label
_atom_site_type_symbol
_atom_site_fract_x
_atom_site_fract_y
_atom_site_fract_z
O1	O	1.667842	-0.176419	-0.082703
O2	O	1.302364	-0.193221	-0.082701
O3	O	1.493508	-0.002081	-0.082702
O4	O	1.476699	-0.367559	-0.082702
O5	O	1.493483	-0.002068	0.082682
O6	O	1.302340	-0.193209	0.082683
O7	O	1.667818	-0.176407	0.082681
Cu8	Cu	1.485077	-0.184807	0.097783
Cu9	Cu	1.485105	-0.184821	-0.097803
O10	O	1.476674	-0.367547	0.082682
C11	C	1.255554	-0.191981	-0.000009
C12	C	1.116111	-0.188287	-0.000008
C13	C	0.854118	-0.181339	-0.180327
C14	C	0.919649	-0.183082	-0.270478
C15	C	1.050666	-0.186562	-0.270476
C16	C	1.116156	-0.188295	-0.180312
C17	C	1.050625	-0.186551	-0.090161
C18	C	0.919604	-0.183075	-0.090174
C19	C	1.050580	-0.186544	0.090143
C20	C	0.919561	-0.183073	0.090143
C21	C	1.116069	-0.188277	0.180306
C22	C	1.050537	-0.186542	0.270459
C23	C	0.919511	-0.183063	0.270453
C24	C	0.854030	-0.181330	0.180293
C25	C	1.492262	0.044724	-0.000012
C26	C	1.488571	0.184167	-0.000018
C27	C	1.488613	0.184162	-0.180324
C28	C	1.486904	0.249670	-0.270477
C29	C	1.483437	0.380689	-0.270479
C30	C	1.481674	0.446203	-0.180317
C31	C	1.483383	0.380695	-0.090164
C32	C	1.486854	0.249674	-0.090173
C33	C	1.483332	0.380699	0.090140
C34	C	1.486808	0.249681	0.090144
C35	C	1.481569	0.446213	0.180301
C36	C	1.483287	0.380706	0.270456
C37	C	1.486756	0.249679	0.270454
C38	C	1.488517	0.184173	0.180296
C39	C	1.714628	-0.177647	-0.000014
C40	C	1.854071	-0.181340	-0.000021
N41	N	1.485066	-0.184796	0.235347
C42	C	1.477923	0.585649	-0.000011
C43	C	1.481624	0.446207	-0.000013
N44	N	1.485126	-0.184822	-0.235367
C45	C	1.569731	-0.100194	0.287387
C46	C	1.569739	-0.100193	0.391490
C47	C	1.485086	-0.184801	0.443552
C48	C	1.400412	-0.269407	0.391504
C49	C	1.400399	-0.269401	0.287403
C50	C	1.400447	-0.269416	0.608485
C51	C	1.400461	-0.269424	0.712593
C52	C	1.569787	-0.100208	0.712572
C53	C	1.569774	-0.100202	0.608470
C54	C	1.485101	-0.184810	0.556430
H55	H	1.104022	-0.187980	-0.343884
H56	H	1.331480	-0.338292	0.433899
O57	O	0.855699	-0.181531	0.357964
C58	C	0.694525	-0.286247	0.462636
C59	C	0.766667	-0.288123	0.363484
H60	H	0.622545	-0.372430	0.467141
H61	H	0.643825	-0.196939	0.467156
H62	H	0.763872	-0.288019	0.527055
H63	H	0.697405	-0.286398	0.299009
H64	H	0.817387	-0.377424	0.359051
O65	O	1.651699	-0.017707	0.557901
C66	C	1.676448	0.154051	0.440789
C67	C	1.583621	0.060507	0.497902
H68	H	1.621443	0.217329	0.392282
H69	H	1.739835	0.099692	0.391852
H70	H	1.736800	0.214446	0.496014
H71	H	1.523186	0.000089	0.442748
H72	H	1.520320	0.114943	0.546854
H73	H	1.331455	-0.338291	0.245033
H74	H	1.103870	-0.187945	0.343863
H75	H	1.488338	0.196314	-0.343885
H76	H	1.638679	-0.031303	0.433861
H77	H	1.638730	-0.031318	0.754949
O78	O	1.481803	0.444138	-0.358140
C79	C	1.482059	0.430304	-0.536984
C80	C	1.483966	0.358299	-0.437782
H81	H	1.483779	0.360931	-0.601401
H82	H	1.568181	0.502354	-0.541575
H83	H	1.392705	0.480935	-0.541412
H84	H	1.573262	0.307592	-0.433288
H85	H	1.397784	0.286320	-0.433233
O86	O	1.318093	-0.351638	0.763013
C87	C	1.150153	-0.519486	0.752055
C88	C	1.243355	-0.426434	0.694831
H89	H	1.089720	-0.580000	0.696955
H90	H	1.086885	-0.464716	0.800778
H91	H	1.204925	-0.582691	0.800809
H92	H	1.188685	-0.363206	0.646023
H93	H	1.306622	-0.481282	0.646171
H94	H	0.747434	-0.178522	-0.180339
H95	H	0.866313	-0.181666	-0.343887
H96	H	1.478836	0.552884	-0.180327
O97	O	1.318370	-0.351657	0.557821
C98	C	1.293116	-0.522977	0.440320
C99	C	1.386195	-0.429891	0.497617
H100	H	1.347916	-0.586270	0.391647
H101	H	1.229920	-0.468235	0.391531
H102	H	1.232591	-0.583397	0.495426
H103	H	1.446803	-0.369447	0.442582
H104	H	1.449304	-0.484708	0.546421
O105	O	1.651838	-0.017806	0.236886
C106	C	1.723550	0.199921	0.205165
C107	C	1.630475	0.106734	0.262382
H108	H	1.706328	0.300631	0.225773
H109	H	1.709029	0.185542	0.121803
H110	H	1.824270	0.182564	0.225612
H111	H	1.529718	0.124035	0.242018
H112	H	1.645105	0.121135	0.345730
H113	H	1.222839	-0.191112	-0.180318
H114	H	1.488127	0.196348	0.343868
H115	H	1.222752	-0.191102	0.180302
H116	H	0.747347	-0.178505	0.180280
H117	H	1.491451	0.077482	-0.180332
H118	H	1.481843	0.434057	0.343858
H119	H	1.478739	0.552894	0.180294
H120	H	1.491347	0.077491	0.180286
