data_functionalizedCrystal
_audit_creation_method	'MofGen! by Chris Wilmer'
_symmetry_space_group_name_H-M	'P1'
_symmetry_Int_Tables_number	1
_symmetry_cell_setting	triclinic
loop_
_symmetry_equiv_pos_as_xyz
  x,y,z
_cell_length_a	10.654550
_cell_length_b	11.792241
_cell_length_c	9.730223
_cell_angle_alpha	89.995449
_cell_angle_beta	89.999957
_cell_angle_gamma	84.339173
loop_
_atom_site_label
_atom_site_type_symbol
_atom_site_fract_x
_atom_site_fract_y
_atom_site_fract_z
O1	O	1.667388	0.159420	-0.114188
O2	O	2.167388	0.659420	0.385812
O3	O	1.301867	0.174608	-0.114213
O4	O	1.801867	0.674608	0.385787
O5	O	1.493498	0.001864	-0.114190
O6	O	1.993498	0.501864	0.385810
O7	O	1.475757	0.332164	-0.114211
O8	O	1.975757	0.832164	0.385789
O9	O	1.493485	0.001859	0.114390
O10	O	1.993485	0.501859	0.614390
O11	O	1.301854	0.174603	0.114367
O12	O	1.801854	0.674603	0.614367
O13	O	1.667376	0.159415	0.114392
O14	O	2.167376	0.659415	0.614392
Zn15	Zn	1.484613	0.167008	0.150671
Zn16	Zn	1.984613	0.667008	0.650671
Zn17	Zn	1.484629	0.167015	-0.150493
Zn18	Zn	1.984629	0.667015	0.349507
O19	O	1.475745	0.332159	0.114369
O20	O	1.975745	0.832159	0.614369
C21	C	1.255066	0.173491	0.000074
C22	C	1.755066	0.673491	0.500074
C23	C	1.115632	0.170154	0.000064
C24	C	1.615632	0.670154	0.500064
C25	C	1.035859	0.271863	0.000062
C26	C	1.535859	0.771863	0.500062
C27	C	0.904847	0.268721	0.000086
C28	C	1.404847	0.768721	0.500086
C29	C	0.933394	0.062152	0.000109
C30	C	1.433394	0.562152	0.500109
C31	C	1.064403	0.065295	0.000095
C32	C	1.564403	0.565295	0.500095
C33	C	1.492377	-0.040432	0.000099
C34	C	1.992377	0.459568	0.500099
C35	C	1.489042	-0.166453	0.000098
C36	C	1.989042	0.333547	0.500098
C37	C	1.482908	-0.397180	0.000074
C38	C	1.982908	0.102820	0.500074
C39	C	1.486316	-0.268787	0.000087
C40	C	1.986316	0.231213	0.500087
C41	C	1.714177	0.160533	0.000102
C42	C	2.214177	0.660533	0.500102
C43	C	1.853611	0.163869	0.000103
C44	C	2.353611	0.663869	0.500103
C45	C	1.476865	0.374455	0.000077
C46	C	1.976865	0.874455	0.500077
C47	C	1.480201	0.500477	0.000069
C48	C	1.980201	1.000477	0.500069
N49	N	1.484611	0.167003	0.356208
N50	N	1.984611	0.667003	0.856208
N51	N	1.484641	0.167011	-0.356029
N52	N	1.984641	0.667011	0.143971
C53	C	1.569494	0.090545	0.428144
C54	C	2.069494	0.590545	0.928144
C55	C	1.569507	0.090545	0.572027
C56	C	2.069507	0.590545	1.072027
C57	C	1.399749	0.243473	0.572025
C58	C	1.899749	0.743473	1.072025
C59	C	1.399731	0.243466	0.428145
C60	C	1.899731	0.743466	0.928145
H61	H	0.891668	-0.023220	0.000142
H62	H	1.391668	0.476780	0.500142
C63	C	1.306358	0.327577	0.349009
C64	C	1.806358	0.827577	0.849009
H65	H	1.255822	0.373128	0.412457
H66	H	1.755822	0.873128	0.912457
H67	H	1.253803	0.286303	0.292896
H68	H	1.753803	0.786303	0.792896
H69	H	1.351855	0.375206	0.292868
H70	H	1.851855	0.875206	0.792868
C71	C	1.306401	0.327585	0.651160
C72	C	1.806401	0.827585	1.151160
H73	H	1.318576	0.316649	0.747153
H74	H	1.818576	0.816649	1.247153
H75	H	1.222500	0.314556	0.627599
H76	H	1.722500	0.814556	1.127599
H77	H	1.320558	0.403454	0.627559
H78	H	1.820558	0.903454	1.127559
C79	C	1.662855	0.006442	0.349011
C80	C	2.162855	0.506442	0.849011
H81	H	1.650700	0.017395	0.253017
H82	H	2.150700	0.517395	0.753017
H83	H	1.648718	-0.069427	0.372602
H84	H	2.148718	0.430573	0.872602
H85	H	1.746754	0.019491	0.372583
H86	H	2.246754	0.519491	0.872583
H87	H	1.077564	0.357246	0.000047
H88	H	1.577564	0.857246	0.500047
C89	C	0.817101	0.380601	0.000073
C90	C	1.317101	0.880601	0.500073
H91	H	0.866379	0.443497	0.000043
H92	H	1.366379	0.943497	0.500043
H93	H	0.765407	0.383677	0.079789
H94	H	1.265407	0.883677	0.579789
H95	H	0.765396	0.383663	-0.079643
H96	H	1.265396	0.883663	0.420357
C97	C	1.152160	-0.046590	0.000091
C98	C	1.652160	0.453410	0.500091
H99	H	1.102889	-0.109490	0.000091
H100	H	1.602889	0.390510	0.500091
H101	H	1.203869	-0.049657	0.079796
H102	H	1.703869	0.450343	0.579796
H103	H	1.203850	-0.049653	-0.079636
H104	H	1.703850	0.450347	0.420364
H105	H	1.638625	0.028285	0.630593
H106	H	2.138625	0.528285	1.130593
