data_functionalizedCrystal
_audit_creation_method	'MofGen! by Chris Wilmer'
_symmetry_space_group_name_H-M	'P1'
_symmetry_Int_Tables_number	1
_symmetry_cell_setting	triclinic
loop_
_symmetry_equiv_pos_as_xyz
  x,y,z
_cell_length_a	21.295411
_cell_length_b	13.897449
_cell_length_c	13.897448
_cell_angle_alpha	90.018972
_cell_angle_beta	90.015821
_cell_angle_gamma	90.023385
loop_
_atom_site_label
_atom_site_type_symbol
_atom_site_fract_x
_atom_site_fract_y
_atom_site_fract_z
Zn1	Zn	-0.355917	-1.474728	0.384092
Zn2	Zn	0.144083	-0.974728	0.884092
Zn3	Zn	-0.250653	-1.474614	0.545372
Zn4	Zn	0.249347	-0.974614	1.045372
Zn5	Zn	-0.250664	-1.313409	0.384096
Zn6	Zn	0.249336	-0.813409	0.884096
Zn7	Zn	-0.355887	-1.313399	0.545350
Zn8	Zn	0.144113	-0.813399	1.045350
O9	O	-0.303280	-1.394038	0.464728
O10	O	0.196720	-0.894038	0.964728
O11	O	-0.341962	-1.609694	0.405493
O12	O	0.158038	-1.109694	0.905493
O13	O	-0.162565	-1.453187	0.523989
O14	O	0.337435	-0.953187	1.023989
O15	O	-0.264644	-1.334861	0.249114
O16	O	0.235356	-0.834861	0.749114
O17	O	-0.264625	-1.609611	0.523985
O18	O	0.235375	-1.109611	1.023985
O19	O	-0.341972	-1.453381	0.249111
O20	O	0.158028	-0.953381	0.749111
O21	O	-0.162573	-1.334751	0.405501
O22	O	0.337427	-0.834751	0.905501
O23	O	-0.264614	-1.178426	0.405480
O24	O	0.235386	-0.678426	0.905480
O25	O	-0.443981	-1.334842	0.523948
O26	O	0.056019	-0.834842	1.023948
O27	O	-0.341921	-1.178418	0.523952
O28	O	0.158079	-0.678418	1.023952
O29	O	-0.444003	-1.453370	0.405472
O30	O	0.055997	-0.953370	0.905472
O31	O	-0.264596	-1.453177	0.680351
O32	O	0.235404	-0.953177	1.180351
O33	O	-0.341910	-1.334732	0.680335
O34	O	0.158090	-0.834732	1.180335
C35	C	-0.303266	-1.143423	0.464715
C36	C	0.196734	-0.643423	0.964715
C37	C	-0.303275	-1.036209	0.464732
C38	C	0.196725	-0.536209	0.964732
C39	C	-0.303262	-1.393967	0.715342
C40	C	0.196738	-0.893967	1.215342
C41	C	-0.303276	-1.394025	0.822556
C42	C	0.196724	-0.894025	1.322556
C43	C	-0.467471	-1.394118	0.464707
C44	C	0.032529	-0.894118	0.964707
C45	C	-0.537439	-1.394152	0.464698
C46	C	-0.037439	-0.894152	0.964698
C47	C	-0.570318	-1.455867	0.403005
C48	C	-0.070318	-0.955867	0.903005
C49	C	-0.636061	-1.455865	0.402964
C50	C	-0.136061	-0.955865	0.902964
C51	C	-0.668922	-1.394159	0.464632
C52	C	-0.168922	-0.894159	0.964632
C53	C	-0.636034	-1.332432	0.526330
C54	C	-0.136034	-0.832432	1.026330
C55	C	-0.570293	-1.332429	0.526363
C56	C	-0.070293	-0.832429	1.026363
N57	N	-0.772143	-1.386736	0.549014
N58	N	-0.272143	-0.886736	1.049014
N59	N	-0.834594	-1.386745	0.548980
N60	N	-0.334594	-0.886745	1.048980
C61	C	-0.866996	-1.394165	0.464534
C62	C	-0.366996	-0.894165	0.964534
N63	N	-0.834588	-1.401595	0.380123
N64	N	-0.334588	-0.901595	0.880123
N65	N	-0.772131	-1.401590	0.380158
N66	N	-0.272131	-0.901590	0.880158
C67	C	-0.740207	-1.394156	0.464603
C68	C	-0.240207	-0.894156	0.964603
C69	C	-0.971161	-1.455882	0.402791
C70	C	-0.471161	-0.955882	0.902791
C71	C	-1.036905	-1.455874	0.402747
C72	C	-0.536905	-0.955874	0.902747
C73	C	-1.036877	-1.332446	0.526122
C74	C	-0.536877	-0.832446	1.026122
C75	C	-0.971135	-1.332449	0.526157
C76	C	-0.471135	-0.832449	1.026157
C77	C	-0.938281	-1.394172	0.464492
C78	C	-0.438281	-0.894172	0.964492
C79	C	-0.139729	-1.394013	0.464678
C80	C	0.360271	-0.894013	0.964678
C81	C	-0.069761	-1.394166	0.464415
C82	C	0.430239	-0.894166	0.964415
C83	C	-0.303295	-1.645631	0.464741
C84	C	0.196705	-1.145631	0.964741
C85	C	-0.303302	-1.752844	0.464747
C86	C	0.196698	-1.252844	0.964747
C87	C	-0.303291	-0.839914	0.464736
C88	C	0.196709	-0.339914	0.964736
C89	C	-0.303281	-0.949147	0.464731
C90	C	0.196719	-0.449147	0.964731
C91	C	-0.303313	-1.394135	0.213135
C92	C	0.196687	-0.894135	0.713135
C93	C	-0.303326	-1.394176	0.105921
C94	C	0.196674	-0.894176	0.605921
C95	C	-0.303315	-1.394127	1.018851
C96	C	0.196685	-0.894127	1.518851
C97	C	-0.303295	-1.394068	0.909618
C98	C	0.196705	-0.894068	1.409618
H99	H	-0.543572	-1.506125	0.352792
H100	H	-0.043572	-1.006125	0.852792
H101	H	-0.662836	-1.506119	0.352720
H102	H	-0.162836	-1.006119	0.852720
N103	N	-0.671475	-1.265886	0.592851
N104	N	-0.171475	-0.765886	1.092851
H105	H	-0.640667	-1.226788	0.631940
H106	H	-0.140667	-0.726788	1.131940
H107	H	-0.698741	-1.221266	0.553572
H108	H	-0.198741	-0.721266	1.053572
N109	N	-0.534826	-1.265849	0.592892
N110	N	-0.034826	-0.765849	1.092892
H111	H	-0.565616	-1.226749	0.631948
H112	H	-0.065616	-0.726749	1.131948
H113	H	-0.507557	-1.305082	0.637553
H114	H	-0.007557	-0.805082	1.137553
H115	H	-0.944410	-1.506135	0.352575
H116	H	-0.444410	-1.006135	0.852575
N117	N	-1.072371	-1.522423	0.336186
N118	N	-0.572371	-1.022423	0.836186
H119	H	-1.041580	-1.561518	0.297128
H120	H	-0.541580	-1.061518	0.797128
H121	H	-1.099667	-1.567047	0.375429
H122	H	-0.599667	-1.067047	0.875429
N123	N	-1.072310	-1.265882	0.592630
N124	N	-0.572310	-0.765882	1.092630
H125	H	-1.118947	-1.275245	0.583246
H126	H	-0.618947	-0.775245	1.083246
H127	H	-1.060827	-1.280865	0.661527
H128	H	-0.560827	-0.780865	1.161527
H129	H	-0.944364	-1.282200	0.576400
H130	H	-0.444364	-0.782200	1.076400
