data_functionalizedCrystal
_audit_creation_method	'MofGen! by Chris Wilmer'
_symmetry_space_group_name_H-M	'P1'
_symmetry_Int_Tables_number	1
_symmetry_cell_setting	triclinic
loop_
_symmetry_equiv_pos_as_xyz
  x,y,z
_cell_length_a	17.638166
_cell_length_b	13.897449
_cell_length_c	17.638773
_cell_angle_alpha	78.773760
_cell_angle_beta	114.283382
_cell_angle_gamma	101.245560
loop_
_atom_site_label
_atom_site_type_symbol
_atom_site_fract_x
_atom_site_fract_y
_atom_site_fract_z
Zn1	Zn	-0.422323	1.501618	-0.532236
Zn2	Zn	-0.532278	1.447238	-0.422274
Zn3	Zn	-0.394484	1.313209	-0.394449
Zn4	Zn	-0.560096	1.313111	-0.560033
O5	O	-0.477295	1.393794	-0.477248
O6	O	-0.436917	1.629386	-0.517661
O7	O	-0.490707	1.406742	-0.303267
O8	O	-0.282851	1.361001	-0.389449
O9	O	-0.517700	1.589434	-0.436873
O10	O	-0.303304	1.499424	-0.490680
O11	O	-0.389470	1.308271	-0.282824
O12	O	-0.416445	1.178214	-0.416403
O13	O	-0.565113	1.360833	-0.671662
O14	O	-0.538119	1.178141	-0.538056
O15	O	-0.463891	1.499329	-0.651239
O16	O	-0.651294	1.406647	-0.463826
O17	O	-0.671732	1.308104	-0.565037
C18	C	-0.691419	1.351493	-0.520486
C19	C	-0.783028	1.333491	-0.539010
C20	C	-0.477280	1.143178	-0.477227
C21	C	-0.477298	1.035963	-0.477242
C22	C	-0.922807	1.256750	-0.617772
C23	C	-0.836725	1.273673	-0.600360
C24	C	-0.815396	1.376406	-0.495046
C25	C	-0.901477	1.359488	-0.512447
C26	C	-0.955176	1.299660	-0.573812
C27	C	-0.933846	1.402398	-0.468487
C28	C	-1.019920	1.385486	-0.485889
C29	C	-1.073625	1.325663	-0.547253
C30	C	-1.041250	1.282748	-0.591215
C31	C	-0.880146	1.462231	-0.407126
C32	C	-0.912515	1.505141	-0.363166
C33	C	-0.998590	1.488223	-0.380564
C34	C	-1.052294	1.428401	-0.441928
C35	C	-1.030964	1.531139	-0.336603
C36	C	-1.117038	1.514226	-0.354006
C37	C	-1.138368	1.411488	-0.459331
C38	C	-0.477305	0.839672	-0.477264
C39	C	-0.477298	0.948902	-0.477249
C40	C	-0.262339	1.436289	-0.433860
C41	C	-0.170737	1.454398	-0.415370
C42	C	-0.520710	1.436136	-0.692187
C43	C	-0.539211	1.454180	-0.783781
C44	C	-0.477311	1.645388	-0.477270
C45	C	-0.477317	1.752603	-0.477279
C46	C	-0.617990	1.530876	-0.923523
C47	C	-0.600600	1.513915	-0.837455
C48	C	-0.495185	1.411386	-0.816160
C49	C	-0.512564	1.428342	-0.902227
C50	C	-0.573968	1.488087	-0.955902
C51	C	-0.468541	1.385553	-0.934607
C52	C	-0.485922	1.402504	-1.020667
C53	C	-0.547325	1.462244	-1.074348
C54	C	-0.591348	1.505038	-1.041963
C55	C	-0.407142	1.325803	-0.880931
C56	C	-0.363120	1.283014	-0.913311
C57	C	-0.380496	1.299971	-0.999372
C58	C	-0.441898	1.359710	-1.053053
C59	C	-0.336472	1.257177	-1.031757
C60	C	-0.353853	1.274128	-1.117818
C61	C	-0.459279	1.376662	-1.139113
C62	C	-0.433990	1.351684	-0.263133
C63	C	-0.415257	1.333873	-0.171493
H64	H	-1.143712	1.311898	-0.561424
H65	H	-0.667985	1.579535	-0.967227
H66	H	-0.313127	1.234367	-0.869598
H67	H	-0.810377	1.238726	-0.636164
H68	H	-0.636439	1.548782	-0.811093
H69	H	-0.286483	1.208525	-0.988044
H70	H	-0.445192	1.362738	-0.772447
C71	C	-0.756948	1.441287	-0.428424
C72	C	-0.674637	1.446898	-0.422577
C73	C	-0.620772	1.506645	-0.361203
H74	H	-0.773336	1.505759	-0.443296
H75	H	-0.759847	1.413525	-0.375876
H76	H	-0.671741	1.474664	-0.475112
H77	H	-0.658223	1.382443	-0.407694
H78	H	-0.623671	1.478882	-0.308656
H79	H	-0.637167	1.571112	-0.376081
H80	H	-0.564917	1.510452	-0.357222
C81	C	-0.854067	1.570023	-0.296543
C82	C	-0.771756	1.575633	-0.290696
C83	C	-0.717891	1.635381	-0.229323
H84	H	-0.870455	1.634495	-0.311415
H85	H	-0.856967	1.542260	-0.243996
H86	H	-0.768860	1.603399	-0.343232
H87	H	-0.755342	1.511178	-0.275813
H88	H	-0.720790	1.607618	-0.176775
H89	H	-0.734286	1.699848	-0.244201
H90	H	-0.662036	1.639188	-0.225342
C91	C	-0.566043	1.480783	-1.167755
C92	C	-0.493341	1.526538	-1.180395
C93	C	-0.510555	1.543644	-1.266431
H94	H	-0.584190	1.419618	-1.190190
H95	H	-0.608885	1.522535	-1.195108
H96	H	-0.450513	1.484787	-1.153053
H97	H	-0.475183	1.587712	-1.157981
H98	H	-0.553397	1.585396	-1.293784
H99	H	-0.528703	1.482475	-1.288857
H100	H	-0.461232	1.574698	-1.275019
H101	H	-1.143394	1.549171	-0.318211
H102	H	-0.987233	1.579858	-0.286645
H103	H	-1.182095	1.362776	-0.509304
C104	C	-0.305937	1.227627	-1.152812
C105	C	-0.248426	1.171700	-1.087384
C106	C	-0.204267	1.128855	-1.119588
H107	H	-0.344149	1.185911	-1.192728
H108	H	-0.276767	1.278224	-1.179115
H109	H	-0.277595	1.121109	-1.061095
H110	H	-0.210198	1.213393	-1.047463
H111	H	-0.175097	1.179452	-1.145890
H112	H	-0.242485	1.087144	-1.159504
H113	H	-0.165236	1.090911	-1.075199
C114	C	-0.658072	1.569901	-1.100116
C115	C	-0.692919	1.603737	-1.053344
C116	C	-0.754391	1.663477	-1.106887
H117	H	-0.633418	1.624839	-1.127350
H118	H	-0.700798	1.532525	-1.140924
H119	H	-0.650200	1.641113	-1.012551
H120	H	-0.717589	1.548821	-1.026112
H121	H	-0.797117	1.626100	-1.147695
H122	H	-0.729730	1.718409	-1.134118
H123	H	-0.778047	1.686434	-1.075162
H124	H	-0.966533	1.208038	-0.667745
C125	C	-1.099430	1.217799	-0.657899
C126	C	-1.052665	1.183852	-0.692689
C127	C	-1.106233	1.124036	-0.754126
H128	H	-1.126701	1.162913	-0.633234
H129	H	-1.140213	1.255149	-0.700652
H130	H	-1.011897	1.146503	-0.649943
H131	H	-1.025395	1.238716	-0.717370
H132	H	-1.147016	1.161385	-0.796879
H133	H	-1.133502	1.069155	-0.729455
H134	H	-1.074512	1.101002	-0.777744
C135	C	-0.388445	1.307352	-0.787528
C136	C	-0.461161	1.261650	-0.774892
C137	C	-0.443973	1.244649	-0.688862
H138	H	-0.345618	1.265608	-0.760108
H139	H	-0.370301	1.368575	-0.765164
H140	H	-0.479294	1.200436	-0.797245
H141	H	-0.503998	1.303378	-0.802293
H142	H	-0.425829	1.305872	-0.666498
H143	H	-0.401144	1.202907	-0.661449
H144	H	-0.493309	1.213646	-0.680277
H145	H	-0.810060	1.476002	-0.392961
H146	H	-0.509274	1.425321	-1.182817
