data_functionalizedCrystal
_audit_creation_method	'MofGen! by Chris Wilmer'
_symmetry_space_group_name_H-M	'P1'
_symmetry_Int_Tables_number	1
_symmetry_cell_setting	triclinic
loop_
_symmetry_equiv_pos_as_xyz
  x,y,z
_cell_length_a	10.654562
_cell_length_b	10.654559
_cell_length_c	9.130313
_cell_angle_alpha	90.001323
_cell_angle_beta	89.996930
_cell_angle_gamma	84.489394
loop_
_atom_site_label
_atom_site_type_symbol
_atom_site_fract_x
_atom_site_fract_y
_atom_site_fract_z
O1	O	1.667831	0.176468	-0.121887
O2	O	1.302355	0.193258	-0.121867
O3	O	1.493490	0.002125	-0.121877
O4	O	1.476696	0.367601	-0.121877
O5	O	1.493487	0.002130	0.121721
O6	O	1.302352	0.193263	0.121731
O7	O	1.667828	0.176473	0.121712
Cu8	Cu	1.485090	0.184869	0.143964
Cu9	Cu	1.485093	0.184863	-0.144120
O10	O	1.476693	0.367606	0.121722
C11	C	1.255556	0.192024	-0.000066
C12	C	1.116113	0.188326	-0.000059
C13	C	1.050581	0.186604	0.132715
C14	C	0.919559	0.183139	0.132691
C15	C	0.919611	0.183124	-0.132894
C16	C	1.050632	0.186580	-0.132868
C17	C	1.050549	0.186618	0.286049
C18	C	0.919527	0.183153	0.286025
C19	C	1.492253	-0.044670	-0.000081
C20	C	1.488556	-0.184113	-0.000090
C21	C	1.372545	-0.235658	-0.000088
C22	C	1.369079	-0.366681	-0.000076
C23	C	1.597647	-0.394602	-0.000076
C24	C	1.601111	-0.263582	-0.000077
C25	C	1.240583	-0.219539	-0.000094
C26	C	1.237117	-0.350561	-0.000083
C27	C	1.714627	0.177707	-0.000093
C28	C	1.854070	0.181405	-0.000109
C29	C	1.477930	0.414402	-0.000077
C30	C	1.481627	0.553844	-0.000078
N31	N	1.485097	0.184872	0.346587
N32	N	1.485096	0.184849	-0.346742
C33	C	1.569754	0.100268	0.423235
C34	C	1.569750	0.100253	0.576571
C35	C	1.400430	0.269458	0.576599
C36	C	1.400428	0.269466	0.423265
C37	C	1.667513	0.002582	0.423220
C38	C	1.667510	0.002567	0.576556
H39	H	1.103986	0.187963	-0.240985
H40	H	1.080126	0.278214	0.333626
H41	H	1.331484	0.338346	0.360860
C42	C	1.726981	-0.207450	-0.000294
C43	C	1.735653	-0.133025	-0.125600
C44	C	1.851584	-0.081285	-0.125839
H45	H	1.793622	-0.273417	-0.000364
H46	H	1.733088	-0.156846	0.084611
H47	H	1.729558	-0.183626	-0.210483
H48	H	1.669039	-0.067038	-0.125557
H49	H	1.857691	-0.030681	-0.040934
H50	H	1.918215	-0.147260	-0.125905
H51	H	1.857478	-0.030773	-0.210850
C52	C	0.848414	0.181495	-0.277035
C53	C	0.760046	0.287383	-0.284826
C54	C	0.694450	0.285937	-0.417597
H55	H	0.806120	0.107120	-0.282706
H56	H	0.906162	0.183085	-0.356151
H57	H	0.702306	0.285782	-0.205731
H58	H	0.802306	0.361776	-0.279181
H59	H	0.752198	0.287526	-0.496714
H60	H	0.652164	0.211556	-0.423256
H61	H	0.634493	0.357785	-0.422907
H62	H	1.096805	0.099825	0.344932
H63	H	1.646067	-0.093951	0.381601
H64	H	1.764022	0.024090	0.618168
H65	H	1.689285	-0.459322	-0.000064
C66	C	1.174283	-0.164107	0.135955
C67	C	1.130263	-0.261186	0.219177
C68	C	1.069199	-0.210172	0.344520
H69	H	1.105167	-0.106146	0.107826
H70	H	1.231851	-0.121626	0.192674
H71	H	1.072699	-0.303647	0.162468
H72	H	1.199354	-0.319154	0.247343
H73	H	1.126767	-0.167691	0.401239
H74	H	1.000089	-0.152212	0.316377
H75	H	1.039335	-0.276033	0.401008
H76	H	0.889935	0.091560	0.333604
H77	H	1.185507	-0.379934	-0.102020
C78	C	0.857732	0.298960	0.364303
C79	C	0.888284	0.407778	0.291845
C80	C	0.831315	0.514440	0.363919
H81	H	0.887257	0.299908	0.462423
H82	H	0.768826	0.296558	0.364199
H83	H	0.977172	0.410180	0.291965
H84	H	0.858758	0.406871	0.193729
H85	H	0.742409	0.512038	0.363815
H86	H	0.860845	0.515375	0.462038
H87	H	0.852027	0.588285	0.314760
C88	C	1.187315	-0.158901	-0.140406
C89	C	1.148507	-0.252287	-0.233366
C90	C	1.099419	-0.196472	-0.362626
H91	H	1.250409	-0.116428	-0.187792
H92	H	1.117225	-0.100176	-0.117641
H93	H	1.218589	-0.310990	-0.256133
H94	H	1.085401	-0.294767	-0.186025
H95	H	1.029329	-0.137747	-0.339861
H96	H	1.162520	-0.154000	-0.409999
H97	H	1.073071	-0.259824	-0.425709
H98	H	1.195065	-0.386188	0.105089
H99	H	1.331494	0.338331	0.639048
H100	H	1.758698	0.033174	0.375656
H101	H	1.636994	-0.088657	0.624105
