data_functionalizedCrystal
_audit_creation_method	'MofGen! by Chris Wilmer'
_symmetry_space_group_name_H-M	'P1'
_symmetry_Int_Tables_number	1
_symmetry_cell_setting	triclinic
loop_
_symmetry_equiv_pos_as_xyz
  x,y,z
_cell_length_a	25.639242
_cell_length_b	25.639240
_cell_length_c	18.101390
_cell_angle_alpha	89.957874
_cell_angle_beta	89.972459
_cell_angle_gamma	90.027658
loop_
_atom_site_label
_atom_site_type_symbol
_atom_site_fract_x
_atom_site_fract_y
_atom_site_fract_z
Zn1	Zn	0.799277	-0.208202	-0.418848
Zn2	Zn	1.132611	0.125131	-0.085514
Zn3	Zn	1.465944	0.458465	0.247819
Zn4	Zn	0.799201	-0.295645	-0.294986
Zn5	Zn	1.132534	0.037688	0.038347
Zn6	Zn	1.465867	0.371021	0.371680
Zn7	Zn	0.711845	-0.208218	-0.295003
Zn8	Zn	1.045178	0.125115	0.038331
Zn9	Zn	1.378511	0.458449	0.371664
Zn10	Zn	0.711808	-0.295600	-0.418769
Zn11	Zn	1.045141	0.037733	-0.085435
Zn12	Zn	1.378474	0.371066	0.247898
O13	O	0.755533	-0.251916	-0.356901
O14	O	1.088866	0.081417	-0.023568
O15	O	1.422199	0.414750	0.309765
O16	O	0.872432	-0.219814	-0.402444
O17	O	1.205766	0.113520	-0.069110
O18	O	1.539099	0.446853	0.264223
O19	O	0.787596	-0.284074	-0.191356
O20	O	1.120929	0.049260	0.141978
O21	O	1.454263	0.382593	0.475311
O22	O	0.723490	-0.135051	-0.311471
O23	O	1.056823	0.198283	0.021862
O24	O	1.390157	0.531616	0.355196
O25	O	0.872376	-0.284058	-0.311443
O26	O	1.205709	0.049275	0.021890
O27	O	1.539043	0.382609	0.355224
O28	O	0.787727	-0.135039	-0.402459
O29	O	1.121060	0.198295	-0.069126
O30	O	1.454393	0.531628	0.264207
O31	O	0.723416	-0.219841	-0.191368
O32	O	1.056749	0.113492	0.141966
O33	O	1.390083	0.446826	0.475299
O34	O	0.638675	-0.219797	-0.311394
O35	O	0.972008	0.113536	0.021939
O36	O	1.305341	0.446869	0.355272
O37	O	0.723428	-0.283981	-0.522412
O38	O	1.056761	0.049352	-0.189079
O39	O	1.390094	0.382686	0.144254
O40	O	0.638648	-0.283997	-0.402325
O41	O	0.971981	0.049337	-0.068991
O42	O	1.305314	0.382670	0.264342
O43	O	0.787691	-0.219770	-0.522470
O44	O	1.121024	0.113563	-0.189137
O45	O	1.454358	0.446897	0.144196
O46	O	0.787560	-0.368805	-0.311366
O47	O	1.120894	-0.035471	0.021967
O48	O	1.454227	0.297862	0.355300
O49	O	0.723353	-0.368772	-0.402309
O50	O	1.056687	-0.035438	-0.068975
O51	O	1.390020	0.297895	0.264358
C52	C	0.619690	-0.251894	-0.356853
C53	C	0.953023	0.081439	-0.023520
C54	C	1.286357	0.414772	0.309813
C55	C	0.561576	-0.251897	-0.356850
C56	C	0.894909	0.081436	-0.023517
C57	C	1.228243	0.414769	0.309817
C58	C	0.755459	-0.387759	-0.356843
C59	C	1.088792	-0.054426	-0.023510
C60	C	1.422125	0.278908	0.309823
C61	C	0.755475	-0.445873	-0.356843
C62	C	1.088808	-0.112540	-0.023510
C63	C	1.422142	0.220794	0.309823
C64	C	0.310388	-0.218432	-0.309636
C65	C	0.643721	0.114901	0.023697
C66	C	0.977055	0.448235	0.357031
C67	C	0.364992	-0.218427	-0.309626
C68	C	0.698326	0.114906	0.023707
C69	C	1.031659	0.448240	0.357040
O70	O	0.393233	-0.189943	-0.269442
O71	O	0.726567	0.143391	0.063892
O72	O	1.059900	0.476724	0.397225
N73	N	0.392302	-0.251904	-0.356887
N74	N	0.725635	0.081429	-0.023554
N75	N	1.058969	0.414763	0.309779
C76	C	0.365005	-0.285384	-0.404166
C77	C	0.698338	0.047949	-0.070833
C78	C	1.031672	0.381283	0.262501
O79	O	0.393248	-0.313858	-0.444365
O80	O	0.726582	0.019475	-0.111032
O81	O	1.059915	0.352809	0.222302
C82	C	0.310402	-0.285386	-0.404179
C83	C	0.643735	0.047947	-0.070845
C84	C	0.977068	0.381281	0.262488
C85	C	0.283095	-0.251911	-0.356909
C86	C	0.616428	0.081423	-0.023576
C87	C	0.949761	0.414756	0.309757
C88	C	0.283081	-0.184959	-0.262371
C89	C	0.616414	0.148374	0.070962
C90	C	0.949747	0.481708	0.404296
C91	C	0.228480	-0.184965	-0.262380
C92	C	0.561813	0.148369	0.070954
C93	C	0.895147	0.481702	0.404287
C94	C	0.201187	-0.218443	-0.309653
C95	C	0.534520	0.114890	0.023680
C96	C	0.867853	0.448223	0.357014
C97	C	0.228494	-0.251916	-0.356918
C98	C	0.561827	0.081417	-0.023585
C99	C	0.895161	0.414750	0.309749
C100	C	0.283105	-0.318863	-0.451461
C101	C	0.616439	0.014470	-0.118127
C102	C	0.949772	0.347804	0.215206
C103	C	0.228498	-0.318862	-0.451470
C104	C	0.561832	0.014472	-0.118136
C105	C	0.895165	0.347805	0.215197
C106	C	0.201191	-0.285386	-0.404200
C107	C	0.534525	0.047947	-0.070867
C108	C	0.867858	0.381280	0.262466
C109	C	0.146600	-0.285401	-0.404200
C110	C	0.479933	0.047933	-0.070867
C111	C	0.813267	0.381266	0.262467
N112	N	0.119290	-0.251924	-0.356939
N113	N	0.452623	0.081410	-0.023606
N114	N	0.785957	0.414743	0.309727
C115	C	0.146583	-0.218445	-0.309666
C116	C	0.479917	0.114888	0.023668
C117	C	0.813250	0.448222	0.357001
C118	C	0.479676	-0.285377	-0.404137
C119	C	0.813009	0.047956	-0.070804
C120	C	1.146342	0.381290	0.262530
C121	C	0.534278	-0.285378	-0.404121
C122	C	0.867611	0.047955	-0.070788
C123	C	1.200945	0.381288	0.262545
C124	C	0.534261	-0.218421	-0.309582
C125	C	0.867595	0.114913	0.023751
C126	C	1.200928	0.448246	0.357084
C127	C	0.479658	-0.218422	-0.309595
C128	C	0.812991	0.114911	0.023738
C129	C	1.146325	0.448244	0.357072
C130	C	0.452366	-0.251900	-0.356876
C131	C	0.785699	0.081433	-0.023543
C132	C	1.119032	0.414766	0.309791
C133	C	0.031918	-0.218460	-0.309687
C134	C	0.365252	0.114874	0.023646
C135	C	0.698585	0.448207	0.356980
C136	C	-0.022687	-0.218470	-0.309698
C137	C	0.310646	0.114863	0.023636
C138	C	0.643980	0.448197	0.356969
C139	C	-0.022666	-0.285426	-0.404239
C140	C	0.310668	0.047908	-0.070906
C141	C	0.644001	0.381241	0.262428
C142	C	0.031935	-0.285418	-0.404226
C143	C	0.365268	0.047916	-0.070892
C144	C	0.698602	0.381249	0.262441
C145	C	0.059226	-0.251930	-0.356947
C146	C	0.392559	0.081403	-0.023614
C147	C	0.725892	0.414736	0.309719
O148	O	0.118324	-0.313869	-0.444367
O149	O	0.451658	0.019464	-0.111033
O150	O	0.784991	0.352798	0.222300
O151	O	0.118334	-0.189971	-0.269481
O152	O	0.451667	0.143362	0.063853
O153	O	0.785000	0.476696	0.397186
C154	C	0.788997	-0.806191	-0.404365
C155	C	1.122331	-0.472858	-0.071031
C156	C	1.455664	-0.139525	0.262302
C157	C	0.789013	-0.860796	-0.404380
C158	C	1.122346	-0.527462	-0.071046
C159	C	1.455679	-0.194129	0.262287
O160	O	0.817427	-0.888994	-0.444724
O161	O	1.150760	-0.555661	-0.111391
O162	O	1.484093	-0.222328	0.221942
N163	N	0.755605	-0.888155	-0.356973
N164	N	1.088939	-0.554822	-0.023640
N165	N	1.422272	-0.221489	0.309694
C166	C	0.722176	-0.860908	-0.309554
C167	C	1.055510	-0.527575	0.023780
C168	C	1.388843	-0.194241	0.357113
O169	O	0.693762	-0.889194	-0.269232
O170	O	1.027095	-0.555860	0.064101
O171	O	1.360429	-0.222527	0.397434
C172	C	0.722159	-0.806305	-0.309543
C173	C	1.055492	-0.472971	0.023791
C174	C	1.388825	-0.139638	0.357124
C175	C	0.755572	-0.778948	-0.356947
C176	C	1.088905	-0.445615	-0.023614
C177	C	1.422239	-0.112281	0.309719
C178	C	0.822407	-0.778834	-0.451766
C179	C	1.155741	-0.445501	-0.118432
C180	C	1.489074	-0.112168	0.214901
C181	C	0.822393	-0.724234	-0.451749
C182	C	1.155726	-0.390901	-0.118416
C183	C	1.489059	-0.057567	0.214917
C184	C	0.788967	-0.696990	-0.404332
C185	C	1.122301	-0.363657	-0.070999
C186	C	1.455634	-0.030324	0.262335
C187	C	0.755557	-0.724347	-0.356931
C188	C	1.088891	-0.391014	-0.023598
C189	C	1.422224	-0.057681	0.309736
C190	C	0.688728	-0.779058	-0.262128
C191	C	1.022061	-0.445725	0.071206
C192	C	1.355394	-0.112392	0.404539
C193	C	0.688713	-0.724451	-0.262121
C194	C	1.022046	-0.391118	0.071212
C195	C	1.355379	-0.057785	0.404545
C196	C	0.722126	-0.697094	-0.309526
C197	C	1.055459	-0.363761	0.023808
C198	C	1.388793	-0.030428	0.357141
C199	C	0.722117	-0.642503	-0.309497
C200	C	1.055451	-0.309170	0.023836
C201	C	1.388784	0.024163	0.357169
N202	N	0.755525	-0.615143	-0.356904
N203	N	1.088858	-0.281810	-0.023571
N204	N	1.422191	0.051523	0.309763
C205	C	0.788950	-0.642387	-0.404321
C206	C	1.122283	-0.309054	-0.070988
C207	C	1.455616	0.024280	0.262345
C208	C	0.722215	-0.975579	-0.309581
C209	C	1.055549	-0.642245	0.023753
C210	C	1.388882	-0.308912	0.357086
C211	C	0.722235	-1.030181	-0.309587
C212	C	1.055569	-0.696848	0.023746
C213	C	1.388902	-0.363514	0.357079
C214	C	0.789071	-1.030065	-0.404414
C215	C	1.122404	-0.696732	-0.071081
C216	C	1.455738	-0.363398	0.262252
C217	C	0.789053	-0.975462	-0.404404
C218	C	1.122387	-0.642128	-0.071070
C219	C	1.455720	-0.308795	0.262263
C220	C	0.755623	-0.948219	-0.356987
C221	C	1.088956	-0.614886	-0.023654
C222	C	1.422290	-0.281552	0.309679
C223	C	0.788916	-0.527722	-0.404283
C224	C	1.122250	-0.194389	-0.070950
C225	C	1.455583	0.138945	0.262383
C226	C	0.788900	-0.473117	-0.404261
C227	C	1.122233	-0.139783	-0.070927
C228	C	1.455567	0.193550	0.262406
C229	C	0.722063	-0.473238	-0.309437
C230	C	1.055396	-0.139904	0.023897
C231	C	1.388729	0.193429	0.357230
C232	C	0.722081	-0.527838	-0.309456
C233	C	1.055414	-0.194505	0.023877
C234	C	1.388747	0.138829	0.357211
C235	C	0.755509	-0.555079	-0.356885
C236	C	1.088843	-0.221746	-0.023552
C237	C	1.422176	0.111588	0.309781
O238	O	0.693716	-0.614270	-0.269176
O239	O	1.027050	-0.280936	0.064158
O240	O	1.360383	0.052397	0.397491
O241	O	0.817355	-0.614095	-0.444643
O242	O	1.150688	-0.280761	-0.111309
O243	O	1.484021	0.052572	0.222024
C244	C	0.891906	-0.251939	-0.356950
C245	C	1.225239	0.081394	-0.023617
C246	C	1.558572	0.414728	0.309716
C247	C	0.950020	-0.251949	-0.356971
C248	C	1.283353	0.081385	-0.023638
C249	C	1.616686	0.414718	0.309696
C250	C	0.755564	-0.251869	-0.550063
C251	C	1.088897	0.081465	-0.216730
C252	C	1.422230	0.414798	0.116603
C253	C	0.755577	-0.251848	-0.632378
C254	C	1.088910	0.081485	-0.299044
C255	C	1.422244	0.414818	0.034289
C256	C	0.755621	-0.115543	-0.356976
C257	C	1.088954	0.217790	-0.023643
C258	C	1.422288	0.551123	0.309691
C259	C	0.755659	-0.057429	-0.357008
C260	C	1.088992	0.275904	-0.023674
C261	C	1.422325	0.609237	0.309659
C262	C	0.755605	-0.251816	-0.931469
C263	C	1.088939	0.081518	-0.598135
C264	C	1.422272	0.414851	-0.264802
C265	C	0.796171	-0.211558	-0.900180
C266	C	1.129504	0.121775	-0.566847
C267	C	1.462838	0.455109	-0.233513
C268	C	0.796045	-0.211408	-0.814562
C269	C	1.129378	0.121925	-0.481228
C270	C	1.462711	0.455258	-0.147895
C271	C	0.755592	-0.251832	-0.783086
C272	C	1.088925	0.081501	-0.449753
C273	C	1.422258	0.414835	-0.116419
C274	C	0.700512	-0.236857	-0.814152
C275	C	1.033845	0.096476	-0.480819
C276	C	1.367179	0.429809	-0.147485
C277	C	0.700755	-0.236556	-0.899798
C278	C	1.034088	0.096778	-0.566464
C279	C	1.367421	0.430111	-0.233131
C280	C	0.769634	-0.307152	-0.899871
C281	C	1.102967	0.026182	-0.566538
C282	C	1.436300	0.359515	-0.233204
C283	C	0.770843	-0.306869	-0.814221
C284	C	1.104176	0.026464	-0.480888
C285	C	1.437509	0.359797	-0.147555
C286	C	0.755581	-0.251842	-0.699227
C287	C	1.088914	0.081491	-0.365893
C288	C	1.422247	0.414825	-0.032560
C289	C	0.755613	-0.251804	-1.015328
C290	C	1.088946	0.081529	-0.681995
C291	C	1.422279	0.414862	-0.348662
C292	C	0.755532	-0.251926	-0.164491
C293	C	1.088865	0.081407	0.168842
C294	C	1.422198	0.414740	0.502176
C295	C	0.755620	-0.251799	-0.082177
C296	C	1.088953	0.081534	0.251156
C297	C	1.422287	0.414867	0.584489
H298	H	-0.044918	-0.191209	-0.271203
H299	H	0.288415	0.142124	0.062130
H300	H	0.621749	0.475457	0.395464
H301	H	0.836887	-0.220787	-0.793560
H302	H	1.170221	0.112547	-0.460226
H303	H	1.503554	0.445880	-0.126893
H304	H	0.688862	-0.196105	-0.919795
H305	H	1.022195	0.137228	-0.586462
H306	H	1.355529	0.470561	-0.253129
H307	H	0.837148	-0.220820	-0.920788
H308	H	1.170481	0.112513	-0.587455
H309	H	1.503814	0.445846	-0.254121
H310	H	0.688403	-0.196857	-0.792721
H311	H	1.021736	0.136477	-0.459387
H312	H	1.355069	0.469810	-0.126054
H313	H	0.054132	-0.191189	-0.271192
H314	H	0.387465	0.142144	0.062142
H315	H	0.720799	0.475478	0.395475
H316	H	0.849599	-0.701963	-0.490352
H317	H	1.182932	-0.368630	-0.157019
H318	H	1.516266	-0.035296	0.176314
H319	H	0.816134	-0.549895	-0.442910
H320	H	1.149467	-0.216562	-0.109576
H321	H	1.482800	0.116772	0.223757
H322	H	0.694850	-0.451047	-0.270828
H323	H	1.028183	-0.117714	0.062506
H324	H	1.361517	0.215619	0.395839
H325	H	0.457457	-0.312643	-0.442638
H326	H	0.790791	0.020690	-0.109304
H327	H	1.124124	0.354024	0.224029
H328	H	0.556507	-0.312643	-0.442605
H329	H	0.889840	0.020691	-0.109271
H330	H	1.223173	0.354024	0.224062
H331	H	0.694877	-0.550113	-0.270850
H332	H	1.028210	-0.216780	0.062484
H333	H	1.361544	0.116553	0.395817
H334	H	0.669502	-0.264602	-0.920493
H335	H	1.002835	0.068732	-0.587159
H336	H	1.336169	0.402065	-0.253826
H337	H	0.816287	-1.052256	-0.443026
H338	H	1.149620	-0.718923	-0.109692
H339	H	1.482953	-0.385590	0.223641
H340	H	0.740090	-0.337148	-0.920109
H341	H	1.073423	-0.003815	-0.586775
H342	H	1.406757	0.329519	-0.253442
H343	H	0.811376	-0.318161	-0.793917
H344	H	1.144710	0.015172	-0.460583
H345	H	1.478043	0.348506	-0.127250
H346	H	0.849626	-0.801010	-0.490383
H347	H	1.182959	-0.467677	-0.157050
H348	H	1.516293	-0.134344	0.176284
H349	H	0.809093	-0.320786	-0.921520
H350	H	1.142427	0.012547	-0.588187
H351	H	1.475760	0.345881	-0.254853
H352	H	0.787003	-0.170793	-0.921725
H353	H	1.120336	0.162540	-0.588392
H354	H	1.453670	0.495874	-0.255059
H355	H	0.786759	-0.170415	-0.794097
H356	H	1.120092	0.162919	-0.460763
H357	H	1.453426	0.496252	-0.127430
H358	H	0.669467	-0.265276	-0.793761
H359	H	1.002800	0.068057	-0.460427
H360	H	1.336134	0.401390	-0.127094
H361	H	0.206251	-0.157706	-0.223888
H362	H	0.539585	0.175628	0.109445
H363	H	0.872918	0.508961	0.442779
H364	H	0.743445	-0.338477	-0.792792
H365	H	1.076778	-0.005143	-0.459458
H366	H	1.410111	0.328190	-0.126125
H367	H	0.206280	-0.346122	-0.489975
H368	H	0.539613	-0.012789	-0.156642
H369	H	0.872946	0.320544	0.176692
H370	H	0.457428	-0.191162	-0.271107
H371	H	0.790762	0.142171	0.062227
H372	H	1.124095	0.475505	0.395560
H373	H	0.305297	-0.157694	-0.223875
H374	H	0.638631	0.175640	0.109458
H375	H	0.971964	0.508973	0.442791
H376	H	0.661519	-0.801323	-0.223526
H377	H	0.994852	-0.467990	0.109808
H378	H	1.328186	-0.134656	0.443141
H379	H	0.556494	-0.191159	-0.271091
H380	H	0.889827	0.142174	0.062242
H381	H	1.223160	0.475507	0.395576
H382	H	0.305330	-0.346122	-0.489952
H383	H	0.638663	-0.012789	-0.156619
H384	H	0.971996	0.320544	0.176715
H385	H	0.695032	-1.052450	-0.270978
H386	H	1.028366	-0.719117	0.062356
H387	H	1.361699	-0.385784	0.395689
H388	H	0.054170	-0.312680	-0.442711
H389	H	0.387503	0.020654	-0.109377
H390	H	0.720836	0.353987	0.223956
H391	H	0.816111	-0.450844	-0.442863
H392	H	1.149444	-0.117511	-0.109530
H393	H	1.482778	0.215822	0.223804
H394	H	-0.044898	-0.312685	-0.442725
H395	H	0.288436	0.020649	-0.109392
H396	H	0.621769	0.353982	0.223941
H397	H	0.816261	-0.953191	-0.443005
H398	H	1.149594	-0.619857	-0.109671
H399	H	1.482928	-0.286524	0.223662
H400	H	0.661488	-0.702273	-0.223510
H401	H	0.994821	-0.368940	0.109823
H402	H	1.328155	-0.035606	0.443157
H403	H	0.694994	-0.953400	-0.270963
H404	H	1.028327	-0.620067	0.062371
H405	H	1.361661	-0.286734	0.395704
