data_functionalizedCrystal
_audit_creation_method	'MofGen! by Chris Wilmer'
_symmetry_space_group_name_H-M	'P1'
_symmetry_Int_Tables_number	1
_symmetry_cell_setting	triclinic
loop_
_symmetry_equiv_pos_as_xyz
  x,y,z
_cell_length_a	17.699097
_cell_length_b	14.044190
_cell_length_c	16.776229
_cell_angle_alpha	89.988781
_cell_angle_beta	89.989262
_cell_angle_gamma	88.240103
loop_
_atom_site_label
_atom_site_type_symbol
_atom_site_fract_x
_atom_site_fract_y
_atom_site_fract_z
O1	O	1.012346	0.119911	-0.066364
O2	O	1.512346	0.619911	0.433636
O3	O	0.793044	0.135490	-0.066352
O4	O	1.293044	0.635490	0.433648
O5	O	0.899401	-0.010277	-0.066342
O6	O	1.399401	0.489723	0.433658
O7	O	0.905990	0.265678	-0.066374
O8	O	1.405990	0.765678	0.433626
O9	O	0.899385	-0.010286	0.066234
O10	O	1.399385	0.489714	0.566234
O11	O	0.793028	0.135481	0.066224
O12	O	1.293028	0.635481	0.566224
O13	O	1.012330	0.119902	0.066213
O14	O	1.512330	0.619902	0.566213
Zn15	Zn	0.902677	0.127690	0.087268
Zn16	Zn	1.402677	0.627690	0.587268
Zn17	Zn	0.902698	0.127702	-0.087407
Zn18	Zn	1.402698	0.627702	0.412593
O19	O	0.905974	0.265669	0.066203
O20	O	1.405974	0.765669	0.566203
C21	C	0.764801	0.134926	-0.000062
C22	C	1.264801	0.634926	0.499938
C23	C	0.680667	0.133244	-0.000057
C24	C	1.180667	0.633244	0.499943
C25	C	0.896510	-0.045589	-0.000052
C26	C	1.396510	0.454411	0.499948
C27	C	0.887912	-0.150796	-0.000044
C28	C	1.387912	0.349204	0.499956
C29	C	0.164247	0.122944	-0.072356
C30	C	0.664247	0.622944	0.427644
C31	C	0.243299	0.124518	-0.072352
C32	C	0.743299	0.624518	0.427648
C33	C	0.282811	0.125301	-0.000081
C34	C	0.782811	0.625301	0.499919
C35	C	0.243266	0.124501	0.072190
C36	C	0.743266	0.624501	0.572190
C37	C	0.164215	0.122921	0.072186
C38	C	0.664215	0.622921	0.572186
C39	C	0.562070	0.130872	0.072211
C40	C	1.062070	0.630872	0.572211
C41	C	0.641126	0.132454	0.072210
C42	C	1.141126	0.632454	0.572210
C43	C	0.641154	0.132468	-0.072327
C44	C	1.141154	0.632468	0.427673
C45	C	0.562103	0.130888	-0.072332
C46	C	1.062103	0.630888	0.427668
C47	C	0.522565	0.130083	-0.000060
C48	C	1.022565	0.630083	0.499940
C49	C	0.436847	0.128376	-0.000065
C50	C	0.936847	0.628376	0.499935
C51	C	0.368527	0.127015	-0.000075
C52	C	0.868527	0.627015	0.499925
C53	C	0.933172	-0.401184	-0.000078
C54	C	1.433172	0.098816	0.499922
C55	C	0.872205	-0.343418	-0.000069
C56	C	1.372205	0.156582	0.499931
C57	C	0.880947	-0.236234	-0.000055
C58	C	1.380947	0.263766	0.499945
C59	C	0.924432	-0.508379	-0.000092
C60	C	1.424432	-0.008379	0.499908
C61	C	1.040574	0.120467	-0.000079
C62	C	1.540574	0.620467	0.499921
C63	C	1.124707	0.122148	-0.000090
C64	C	1.624707	0.622148	0.499910
C65	C	0.908864	0.300981	-0.000090
C66	C	1.408864	0.800981	0.499910
C67	C	0.917462	0.406188	-0.000103
C68	C	1.417462	0.906188	0.499897
N69	N	0.902668	0.127682	0.206479
N70	N	1.402668	0.627682	0.706479
N71	N	0.902712	0.127703	-0.206619
N72	N	1.402712	0.627703	0.293381
C73	C	0.949780	0.063162	0.248201
C74	C	1.449780	0.563162	0.748201
C75	C	0.949784	0.063161	0.331653
C76	C	1.449784	0.563161	0.831653
C77	C	0.902679	0.127685	0.373382
C78	C	1.402679	0.627685	0.873382
C79	C	0.855562	0.192208	0.331655
C80	C	1.355562	0.692208	0.831655
C81	C	0.855554	0.192203	0.248204
C82	C	1.355554	0.692203	0.748204
C83	C	0.855591	0.192226	0.668202
C84	C	1.355591	0.692226	1.168202
C85	C	0.855603	0.192228	0.751658
C86	C	1.355603	0.692228	1.251658
C87	C	0.949820	0.063185	0.751651
C88	C	1.449820	0.563185	1.251651
C89	C	0.949813	0.063180	0.668200
C90	C	1.449813	0.563180	1.168200
C91	C	0.902693	0.127699	0.626480
C92	C	1.402693	0.627699	1.126480
C93	C	0.902688	0.127698	0.535991
C94	C	1.402688	0.627698	1.035991
C95	C	0.902688	0.127692	0.463869
C96	C	1.402688	0.627692	0.963869
H97	H	0.275489	0.125160	-0.131198
H98	H	0.775489	0.625160	0.368802
O99	O	1.003286	-0.364201	-0.000211
O100	O	1.503286	0.135799	0.499789
C101	C	1.042850	-0.395228	-0.068866
C102	C	1.542850	0.104772	0.431134
H103	H	1.000781	-0.415775	-0.116863
H104	H	1.500781	0.084225	0.383137
H105	H	1.079008	-0.335321	-0.091902
H106	H	1.579008	0.164679	0.408098
H107	H	1.080755	-0.459673	-0.053348
H108	H	1.580755	0.040327	0.446652
O109	O	0.995591	0.000623	0.372273
O110	O	1.495591	0.500623	0.872273
C111	C	1.045712	0.051321	0.420505
C112	C	1.545712	0.551321	0.920505
H113	H	1.020572	0.125527	0.432996
H114	H	1.520572	0.625527	0.932996
H115	H	1.055018	0.011751	0.479195
H116	H	1.555018	0.511751	0.979195
H117	H	1.102073	0.057680	0.388329
H118	H	1.602073	0.557680	0.888329
H119	H	0.529936	0.130255	-0.131182
H120	H	1.029936	0.630255	0.368818
O121	O	0.125791	0.122057	-0.142510
O122	O	0.625791	0.622057	0.357490
C123	C	0.083110	0.039084	-0.146840
C124	C	0.583110	0.539084	0.353160
H125	H	0.072260	0.011489	-0.084091
H126	H	0.572260	0.511489	0.415909
H127	H	0.026848	0.056429	-0.177435
H128	H	0.526848	0.556429	0.322565
H129	H	0.115707	-0.017758	-0.182495
H130	H	0.615707	0.482242	0.317505
O131	O	0.679642	0.133368	-0.142482
O132	O	1.179642	0.633368	0.357518
C133	C	0.722326	0.216341	-0.146820
C134	C	1.222326	0.716341	0.353180
H135	H	0.733147	0.243922	-0.084074
H136	H	1.233147	0.743922	0.415926
H137	H	0.778602	0.199001	-0.177404
H138	H	1.278602	0.699001	0.322596
H139	H	0.689746	0.273191	-0.182488
H140	H	1.189746	0.773191	0.317512
O141	O	0.679597	0.133081	0.142367
O142	O	1.179597	0.633081	0.642367
C143	C	0.728341	0.051936	0.146700
C144	C	1.228341	0.551936	0.646700
H145	H	0.741204	0.024833	0.083952
H146	H	1.241204	0.524833	0.583952
H147	H	0.783243	0.071495	0.177285
H148	H	1.283243	0.571495	0.677285
H149	H	0.699993	-0.006135	0.182365
H150	H	1.199993	0.493865	0.682365
H151	H	0.529888	0.130202	0.131058
H152	H	1.029888	0.630202	0.631058
O153	O	0.802086	-0.380398	-0.000207
O154	O	1.302086	0.119602	0.499793
C155	C	0.762542	-0.349309	-0.068849
C156	C	1.262542	0.150691	0.431151
H157	H	0.804626	-0.328731	-0.116846
H158	H	1.304626	0.171269	0.383154
H159	H	0.726382	-0.409190	-0.091897
H160	H	1.226382	0.090810	0.408103
H161	H	0.724641	-0.284869	-0.053313
H162	H	1.224641	0.215131	0.446687
O163	O	0.281761	0.125306	0.142324
O164	O	0.781761	0.625306	0.642324
C165	C	0.360013	0.126851	0.126834
C166	C	0.860013	0.626851	0.626834
H167	H	0.369716	0.157064	0.064721
H168	H	0.869716	0.657064	0.564721
H169	H	0.388346	0.173444	0.172985
H170	H	0.888346	0.673444	0.672985
H171	H	0.385255	0.051297	0.130269
H172	H	0.885255	0.551297	0.630269
H173	H	0.988172	0.010642	0.634227
H174	H	1.488172	0.510642	1.134227
O175	O	0.125919	0.122193	0.142456
O176	O	0.625919	0.622193	0.642456
C177	C	0.177743	0.123200	0.206246
C178	C	0.677743	0.623200	0.706246
H179	H	0.232990	0.154324	0.185061
H180	H	0.732990	0.654324	0.685061
H181	H	0.153191	0.168730	0.256787
H182	H	0.653191	0.668730	0.756787
H183	H	0.188955	0.047363	0.228473
H184	H	0.688955	0.547363	0.728473
O185	O	0.995561	0.000391	0.207792
O186	O	1.495561	0.500391	0.707792
C187	C	1.037156	-0.056540	0.262516
C188	C	1.537156	0.443460	0.762516
H189	H	1.006063	-0.057559	0.322011
H190	H	1.506063	0.442441	0.822011
H191	H	1.043591	-0.132247	0.238419
H192	H	1.543591	0.367753	0.738419
H193	H	1.095450	-0.025851	0.271368
H194	H	1.595450	0.474149	0.771368
O195	O	0.995518	0.000538	0.792302
O196	O	1.495518	0.500538	1.292302
C197	C	0.985439	0.014385	0.874906
C198	C	1.485439	0.514385	1.374906
H199	H	0.927666	0.049894	0.886317
H200	H	1.427666	0.549894	1.386317
H201	H	0.989021	-0.057402	0.906632
H202	H	1.489021	0.442598	1.406632
H203	H	1.031480	0.061858	0.898566
H204	H	1.531480	0.561858	1.398566
O205	O	0.809767	0.254940	0.792072
O206	O	1.309767	0.754940	1.292072
C207	C	0.768187	0.311899	0.737355
C208	C	1.268187	0.811899	1.237355
H209	H	0.764705	0.273043	0.677876
H210	H	1.264705	0.773043	1.177876
H211	H	0.708732	0.326438	0.761487
H212	H	1.208732	0.826438	1.261487
H213	H	0.797501	0.382273	0.728458
H214	H	1.297501	0.882273	1.228458
O215	O	0.809935	0.254950	0.627598
O216	O	1.309935	0.754950	1.127598
C217	C	0.854408	0.313373	0.579321
C218	C	1.354408	0.813373	1.079321
H219	H	0.911069	0.275528	0.566800
H220	H	1.411069	0.775528	1.066800
H221	H	0.823826	0.328428	0.520649
H222	H	1.323826	0.828428	1.020649
H223	H	0.864291	0.383404	0.611474
H224	H	1.364291	0.883404	1.111474
O225	O	0.809876	0.255010	0.207708
O226	O	1.309876	0.755010	0.707708
C227	C	0.828497	0.348813	0.228089
C228	C	1.328497	0.848813	0.728089
H229	H	0.889117	0.349189	0.251010
H230	H	1.389117	0.849189	0.751010
H231	H	0.822996	0.396387	0.173199
H232	H	1.322996	0.896387	0.673199
H233	H	0.788435	0.376716	0.276535
H234	H	1.288435	0.876716	0.776535
H235	H	0.817205	0.244741	0.365635
H236	H	1.317205	0.744741	0.865635
