data_functionalizedCrystal
_audit_creation_method	'MofGen! by Chris Wilmer'
_symmetry_space_group_name_H-M	'P1'
_symmetry_Int_Tables_number	1
_symmetry_cell_setting	triclinic
loop_
_symmetry_equiv_pos_as_xyz
  x,y,z
_cell_length_a	17.038272
_cell_length_b	23.532407
_cell_length_c	15.500227
_cell_angle_alpha	92.805592
_cell_angle_beta	86.956295
_cell_angle_gamma	86.980117
loop_
_atom_site_label
_atom_site_type_symbol
_atom_site_fract_x
_atom_site_fract_y
_atom_site_fract_z
O1	O	1.040103	0.121159	-0.071851
O2	O	0.812488	0.119196	-0.071876
O3	O	0.933158	0.037607	-0.071847
O4	O	0.919432	0.202748	-0.071880
O5	O	0.925836	0.042537	0.072040
O6	O	0.805165	0.124126	0.072011
O7	O	1.032780	0.126090	0.072036
Cu8	Cu	0.918304	0.125558	0.085162
Cu9	Cu	0.926964	0.119727	-0.085001
O10	O	0.912110	0.207678	0.072007
C11	C	0.779712	0.119875	0.000065
C12	C	0.692959	0.114548	0.000056
C13	C	0.642483	0.163453	0.000046
C14	C	0.560969	0.158445	0.000059
C15	C	0.529932	0.104532	0.000075
C16	C	0.580414	0.055624	0.000087
C17	C	0.661927	0.060632	0.000080
C18	C	0.284304	0.086837	0.000102
C19	C	0.202786	0.081832	0.000106
C20	C	0.183345	0.184654	0.000080
C21	C	0.264860	0.189658	0.000068
C22	C	0.315335	0.140750	0.000084
C23	C	0.446612	0.099412	0.000086
C24	C	0.398653	0.145871	0.000080
C25	C	0.929147	0.018838	0.000099
C26	C	0.928096	-0.044434	0.000105
C27	C	0.992917	-0.440131	0.000065
C28	C	0.991941	-0.499583	0.000058
O29	O	1.052030	-0.533169	0.000033
N30	N	0.920202	-0.525981	0.000051
C31	C	0.849435	-0.492924	0.000042
O32	O	0.788325	-0.520836	0.000034
C33	C	0.850412	-0.433473	0.000042
C34	C	0.922155	-0.407078	0.000058
C35	C	1.064654	-0.413736	0.000080
C36	C	1.065630	-0.354288	0.000089
C37	C	0.994868	-0.321235	0.000082
C38	C	0.923131	-0.347631	0.000067
C39	C	0.779646	-0.400418	0.000027
C40	C	0.780629	-0.340963	0.000026
C41	C	0.852372	-0.314569	0.000043
C42	C	0.853344	-0.255130	0.000068
N43	N	0.925083	-0.228732	0.000075
C44	C	0.995845	-0.261785	0.000082
C45	C	0.847388	-0.617774	0.000039
C46	C	0.846410	-0.677223	0.000045
C47	C	0.988916	-0.683878	0.000060
C48	C	0.989894	-0.624428	0.000061
C49	C	0.919127	-0.591376	0.000047
C50	C	0.997889	-0.136940	0.000100
C51	C	0.998858	-0.077487	0.000112
C52	C	0.856352	-0.070837	0.000093
C53	C	0.855382	-0.130285	0.000085
C54	C	0.926157	-0.163336	0.000086
O55	O	0.793287	-0.221508	0.000090
O56	O	1.056945	-0.233865	0.000078
C57	C	1.065556	0.125410	0.000094
C58	C	1.152310	0.130737	0.000097
C59	C	0.916121	0.226447	0.000059
C60	C	0.917172	0.289719	0.000047
N61	N	0.912219	0.129659	0.204845
N62	N	0.933055	0.115622	-0.204685
C63	C	0.963369	0.095101	0.250134
C64	C	0.958774	0.098208	0.340706
C65	C	0.903033	0.135876	0.385987
C66	C	0.851877	0.170435	0.340691
C67	C	0.856469	0.167324	0.250121
C68	C	0.886491	0.147071	0.659450
C69	C	0.881905	0.150180	0.750026
C70	C	0.988801	0.077952	0.750034
C71	C	0.993391	0.074848	0.659462
C72	C	0.942233	0.109404	0.614175
C73	C	0.898336	0.139054	0.478566
C74	C	0.946927	0.106223	0.521598
H75	H	0.423926	0.189767	0.000072
H76	H	1.055521	-0.163843	0.000098
C77	C	0.800206	0.205345	0.200304
N78	N	0.757827	0.233984	0.162783
C79	C	0.339816	0.033036	0.000114
N80	N	0.381632	-0.007489	0.000122
H81	H	0.519874	0.198268	0.000051
C82	C	1.045065	0.039938	0.799858
N83	N	1.087442	0.011302	0.837385
C84	C	0.546272	-0.003681	0.000106
N85	N	0.520556	-0.048351	0.000117
H86	H	0.421332	0.055516	0.000123
H87	H	1.057282	-0.055999	0.000128
C88	C	0.700722	-0.429439	0.000003
N89	N	0.641271	-0.451296	-0.000018
C90	C	0.298992	0.248966	0.000064
N91	N	0.324701	0.293639	0.000063
C92	C	0.830316	0.185163	0.609645
N93	N	0.788039	0.213885	0.572130
C94	C	1.144554	-0.325262	0.000097
N95	N	1.204004	-0.303404	0.000100
C96	C	1.142505	-0.450085	0.000097
N97	N	1.201147	-0.477458	0.000119
H98	H	0.703024	0.020809	0.000087
C99	C	0.820580	0.191617	0.799834
N100	N	0.774393	0.222826	0.837348
C101	C	1.068816	-0.595399	0.000071
N102	N	1.128264	-0.573538	0.000075
H103	H	0.789757	-0.590866	0.000035
H104	H	0.992309	0.075552	0.484727
H105	H	1.046535	-0.710801	0.000062
C106	C	0.767486	-0.706250	0.000038
N107	N	0.708039	-0.728111	0.000027
C108	C	0.790554	0.211864	0.390504
N109	N	0.744363	0.243069	0.428022
H110	H	0.723001	-0.314056	0.000014
H111	H	0.796962	-0.151776	0.000096
C112	C	1.024689	0.053663	0.200333
N113	N	1.070875	0.022449	0.162826
C114	C	1.015025	0.060178	0.390520
N115	N	1.057388	0.031525	0.428039
H116	H	0.798739	-0.043915	0.000090
H117	H	0.852952	0.169725	0.515441
H118	H	0.142240	0.224472	0.000069
H119	H	0.667745	0.207354	0.000033
C120	C	1.054707	0.033407	0.609660
N121	N	1.100892	0.002194	0.572149
H122	H	0.177520	0.037928	0.000118
