data_functionalizedCrystal
_audit_creation_method	'MofGen! by Chris Wilmer'
_symmetry_space_group_name_H-M	'P1'
_symmetry_Int_Tables_number	1
_symmetry_cell_setting	triclinic
loop_
_symmetry_equiv_pos_as_xyz
  x,y,z
_cell_length_a	16.109301
_cell_length_b	9.130313
_cell_length_c	10.654551
_cell_angle_alpha	89.997246
_cell_angle_beta	83.973455
_cell_angle_gamma	89.999196
loop_
_atom_site_label
_atom_site_type_symbol
_atom_site_fract_x
_atom_site_fract_y
_atom_site_fract_z
O1	O	1.104091	-0.121701	0.161420
O2	O	1.604091	0.378299	0.661420
O3	O	0.862148	-0.121723	0.181509
O4	O	1.362148	0.378277	0.681509
O5	O	0.988682	-0.121708	-0.011350
O6	O	1.488682	0.378292	0.488650
O7	O	0.977558	-0.121716	0.354279
O8	O	1.477558	0.378284	0.854279
O9	O	0.988673	0.121890	-0.011356
O10	O	1.488673	0.621890	0.488644
O11	O	0.862140	0.121875	0.181503
O12	O	1.362140	0.621875	0.681503
O13	O	1.104082	0.121898	0.161415
O14	O	1.604082	0.621898	0.661415
Cu15	Cu	0.983110	0.144129	0.171458
Cu16	Cu	1.483110	0.644129	0.671458
Cu17	Cu	0.983120	-0.143955	0.171465
Cu18	Cu	1.483120	0.356045	0.671465
O19	O	0.977549	0.121883	0.354273
O20	O	1.477549	0.621883	0.854273
C21	C	0.831164	0.000073	0.180692
C22	C	1.331164	0.500073	0.680692
C23	C	0.738855	0.000064	0.178252
C24	C	1.238855	0.500064	0.678252
N25	N	0.983109	0.346752	0.171453
N26	N	1.483109	0.846752	0.671453
N27	N	0.983128	-0.346577	0.171460
N28	N	1.483128	0.153423	0.671460
C29	C	0.517229	0.000079	0.287018
C30	C	1.017229	0.500079	0.787018
C31	C	0.430495	0.000088	0.284716
C32	C	0.930495	0.500088	0.784716
C33	C	0.449008	0.000087	0.055896
C34	C	0.949008	0.500087	0.555896
C35	C	0.535741	0.000088	0.058199
C36	C	1.035741	0.500088	0.558199
C37	C	0.569849	0.000077	0.173764
C38	C	1.069849	0.500077	0.673764
C39	C	0.396382	0.000085	0.169159
C40	C	0.896382	0.500085	0.669159
C41	C	0.302341	0.000095	0.166662
C42	C	0.802341	0.500095	0.666662
C43	C	0.663895	0.000069	0.176262
C44	C	1.163895	0.500069	0.676262
C45	C	1.135066	0.000098	0.162231
C46	C	1.635066	0.500098	0.662231
C47	C	1.227376	0.000097	0.164671
C48	C	1.727376	0.500097	0.664671
C49	C	0.987860	0.000089	-0.058140
C50	C	1.487860	0.500089	0.441860
C51	C	0.985416	0.000081	-0.197550
C52	C	1.485416	0.500081	0.302450
C53	C	1.039157	0.423410	0.086091
C54	C	1.539157	0.923410	0.586091
C55	C	1.039165	0.576747	0.086091
C56	C	1.539165	1.076747	0.586091
C57	C	0.927074	0.576753	0.256827
C58	C	1.427074	1.076753	0.756827
C59	C	0.927063	0.423419	0.256819
C60	C	1.427063	0.923419	0.756819
C61	C	0.984274	-0.132706	-0.263035
C62	C	1.484274	0.367294	0.236965
C63	C	0.981970	-0.132707	-0.394024
C64	C	1.481970	0.367293	0.105976
C65	C	0.981955	0.132878	-0.394032
C66	C	1.481955	0.632878	0.105968
C67	C	0.984252	0.132878	-0.263044
C68	C	1.484252	0.632878	0.236956
C69	C	0.978370	0.000083	0.401063
C70	C	1.478370	0.500083	0.901063
C71	C	0.980815	0.000080	0.540473
C72	C	1.480815	0.500080	1.040473
H73	H	0.544997	0.000081	0.381119
H74	H	1.044997	0.500081	0.881119
Cl75	Cl	0.856593	0.327039	0.364134
Cl76	Cl	1.356593	0.827039	0.864134
H77	H	0.421227	0.000105	-0.038193
H78	H	0.921227	0.500105	0.461807
Cl79	Cl	0.364348	0.000093	0.427100
Cl80	Cl	0.864348	0.500093	0.927100
Cl81	Cl	1.109612	0.327034	-0.021232
Cl82	Cl	1.609612	0.827034	0.478768
H83	H	0.578586	0.000090	-0.034032
H84	H	1.078586	0.500090	0.465968
Cl85	Cl	1.109627	0.673114	-0.021229
Cl86	Cl	1.609627	1.173114	0.478771
Cl87	Cl	0.985731	-0.299649	-0.180703
Cl88	Cl	1.485731	0.200351	0.319297
Cl89	Cl	0.856622	0.673142	0.364144
Cl90	Cl	1.356622	1.173142	0.864144
H91	H	0.981038	-0.240836	-0.447336
H92	H	1.481038	0.259164	0.052664
H93	H	0.981009	0.240995	-0.447374
H94	H	1.481009	0.740995	0.052626
H95	H	0.985178	0.241015	-0.209724
H96	H	1.485178	0.741015	0.290276
