data_functionalizedCrystal
_audit_creation_method	'MofGen! by Chris Wilmer'
_symmetry_space_group_name_H-M	'P1'
_symmetry_Int_Tables_number	1
_symmetry_cell_setting	triclinic
loop_
_symmetry_equiv_pos_as_xyz
  x,y,z
_cell_length_a	15.995350
_cell_length_b	14.044220
_cell_length_c	12.503572
_cell_angle_alpha	86.156832
_cell_angle_beta	93.514695
_cell_angle_gamma	88.340626
loop_
_atom_site_label
_atom_site_type_symbol
_atom_site_fract_x
_atom_site_fract_y
_atom_site_fract_z
O1	O	-1.124525	-0.116702	-0.089231
O2	O	-0.624525	0.383298	0.410769
O3	O	-0.881878	-0.131788	-0.089254
O4	O	-0.381878	0.368212	0.410746
O5	O	-0.999559	0.013739	-0.089232
O6	O	-0.499559	0.513739	0.410768
O7	O	-1.006844	-0.262229	-0.089253
O8	O	-0.506844	0.237771	0.410747
O9	O	-0.990710	0.002777	0.089408
O10	O	-0.490710	0.502777	0.589408
O11	O	-0.873029	-0.142751	0.089386
O12	O	-0.373029	0.357249	0.589386
O13	O	-1.115676	-0.127664	0.089409
O14	O	-0.615676	0.372336	0.589409
Cu15	Cu	-0.993545	-0.136208	0.105709
Cu16	Cu	-0.493545	0.363792	0.605709
Cu17	Cu	-1.004010	-0.123244	-0.105554
Cu18	Cu	-0.504010	0.376756	0.394446
O19	O	-0.997995	-0.273191	0.089387
O20	O	-0.497995	0.226809	0.589387
C21	C	-0.991946	0.043572	0.000088
C22	C	-0.491946	0.543572	0.500088
C23	C	-0.982435	0.148798	0.000088
C24	C	-0.482435	0.648798	0.500088
C25	C	-0.846212	-0.136645	0.000064
C26	C	-0.346212	0.363355	0.500064
C27	C	-0.753123	-0.134775	0.000055
C28	C	-0.253123	0.365225	0.500055
C29	C	-1.151342	-0.122807	0.000089
C30	C	-0.651342	0.377193	0.500089
C31	C	-1.244432	-0.124677	0.000090
C32	C	-0.744432	0.375323	0.500090
C33	C	-0.414873	-0.128061	0.000078
C34	C	0.085127	0.371939	0.500078
C35	C	-0.454546	-0.024443	0.000484
C36	C	0.045454	0.475557	0.500484
C37	C	-0.551396	-0.026288	0.000074
C38	C	-0.051396	0.473712	0.500074
C39	C	-0.582682	-0.131391	0.000067
C40	C	-0.082682	0.368609	0.500067
C41	C	-0.550467	-0.176251	-0.101944
C42	C	-0.050467	0.323749	0.398056
C43	C	-0.453640	-0.173643	-0.102022
C44	C	0.046360	0.326357	0.397978
C45	C	-0.443398	-0.188250	0.101125
C46	C	0.056602	0.311750	0.601125
C47	C	-0.540276	-0.188308	0.102466
C48	C	-0.040276	0.311692	0.602466
C49	C	-0.677521	-0.133279	0.000058
C50	C	-0.177521	0.366721	0.500058
C51	C	-0.320034	-0.126176	0.000081
C52	C	0.179966	0.373824	0.500081
C53	C	-1.005609	-0.303024	0.000065
C54	C	-0.505609	0.196976	0.500065
C55	C	-1.015120	-0.408250	0.000057
C56	C	-0.515120	0.091750	0.500057
N57	N	-0.986190	-0.145326	0.254300
N58	N	-0.486190	0.354674	0.754300
C59	C	-0.965048	0.341460	0.000071
C60	C	-0.465048	0.841460	0.500071
C61	C	-1.032504	0.399093	0.000074
C62	C	-0.532504	0.899093	0.500074
C63	C	-1.022829	0.506297	0.000065
C64	C	-0.522829	1.006297	0.500065
C65	C	-0.974721	0.234246	0.000081
C66	C	-0.474721	0.734246	0.500081
N67	N	-1.011370	-0.114118	-0.254145
N68	N	-0.511370	0.385882	0.245855
C69	C	-0.975372	-0.158747	0.473413
C70	C	-0.475372	0.341253	0.973413
C71	C	-1.022186	-0.100701	0.526749
C72	C	-0.522186	0.399299	1.026749
C73	C	-1.016166	-0.108168	0.648671
C74	C	-0.516166	0.391832	1.148671
C75	C	-0.981391	-0.151281	0.351480
C76	C	-0.481391	0.348719	0.851480
H77	H	-0.429305	0.012496	0.073642
H78	H	0.070695	0.512496	0.573642
N79	N	-0.878927	0.382734	0.000069
N80	N	-0.378927	0.882734	0.500069
H81	H	-0.875189	0.427325	-0.066154
H82	H	-0.375189	0.927325	0.433846
H83	H	-0.868692	0.419158	0.066334
H84	H	-0.368692	0.919158	0.566334
N85	N	-1.118623	0.357802	0.000102
N86	N	-0.618623	0.857802	0.500102
H87	H	-1.146787	0.375839	0.066330
H88	H	-0.646787	0.875839	0.566330
H89	H	-1.153299	0.383957	-0.066158
H90	H	-0.653299	0.883957	0.433842
N91	N	-0.916308	-0.232004	0.534217
N92	N	-0.416308	0.267996	1.034217
H93	H	-0.932028	-0.298077	0.514711
H94	H	-0.432028	0.201923	1.014711
H95	H	-0.857014	-0.219916	0.514704
H96	H	-0.357014	0.280084	1.014704
N97	N	-0.580288	0.020987	0.096939
N98	N	-0.080288	0.520987	0.596939
H99	H	-0.530079	0.043217	0.140289
H100	H	-0.030079	0.543217	0.640289
H101	H	-0.618738	0.077607	0.072499
H102	H	-0.118738	0.577607	0.572499
N103	N	-0.429266	0.036113	-0.095853
N104	N	0.070734	0.536113	0.404147
H105	H	-0.392229	-0.003283	-0.139759
H106	H	0.107771	0.496717	0.360241
H107	H	-0.481071	0.059585	-0.141338
H108	H	0.018929	0.559585	0.358662
H109	H	-0.561067	-0.155622	0.177934
H110	H	-0.061067	0.344378	0.677934
H111	H	-0.579860	0.018662	-0.073174
H112	H	-0.079860	0.518662	0.426826
N113	N	-0.567799	-0.290336	0.110629
N114	N	-0.067799	0.209664	0.610629
H115	H	-0.608326	-0.301159	0.047782
H116	H	-0.108326	0.198841	0.547782
H117	H	-0.517245	-0.334996	0.109756
H118	H	-0.017245	0.165004	0.609756
N119	N	-0.430695	-0.118064	-0.203020
N120	N	0.069305	0.381936	0.296980
H121	H	-0.483449	-0.095485	-0.247072
H122	H	0.016551	0.404515	0.252928
H123	H	-0.397416	-0.061106	-0.183156
H124	H	0.102584	0.438894	0.316844
H125	H	-1.066785	-0.045397	0.480844
H126	H	-0.566785	0.454603	0.980844
H127	H	-0.427305	-0.249451	-0.106656
H128	H	0.072695	0.250549	0.393344
H129	H	-0.570547	-0.253235	-0.105743
H130	H	-0.070547	0.246765	0.394257
H131	H	-0.579949	-0.136087	-0.177859
H132	H	-0.079949	0.363913	0.322141
H133	H	-0.416502	-0.159112	0.178448
H134	H	0.083498	0.340888	0.678448
H135	H	-0.417310	-0.264707	0.101810
H136	H	0.082690	0.235293	0.601810
