data_functionalizedCrystal
_audit_creation_method	'MofGen! by Chris Wilmer'
_symmetry_space_group_name_H-M	'P1'
_symmetry_Int_Tables_number	1
_symmetry_cell_setting	triclinic
loop_
_symmetry_equiv_pos_as_xyz
  x,y,z
_cell_length_a	16.625548
_cell_length_b	16.120484
_cell_length_c	16.625539
_cell_angle_alpha	87.131385
_cell_angle_beta	90.020568
_cell_angle_gamma	92.926626
loop_
_atom_site_label
_atom_site_type_symbol
_atom_site_fract_x
_atom_site_fract_y
_atom_site_fract_z
Zn1	Zn	1.216388	-0.331882	0.472167
Zn2	Zn	1.716388	0.168118	0.972167
Zn3	Zn	1.209447	-0.471307	0.344164
Zn4	Zn	1.709447	0.028693	0.844164
Zn5	Zn	1.081548	-0.331914	0.337349
Zn6	Zn	1.581548	0.168086	0.837349
Zn7	Zn	1.074678	-0.471259	0.478951
Zn8	Zn	1.574678	0.028741	0.978951
O9	O	1.145515	-0.401591	0.408158
O10	O	1.645515	0.098409	0.908158
O11	O	1.328299	-0.350384	0.455200
O12	O	1.828299	0.149616	0.955200
O13	O	1.192451	-0.452849	0.230429
O14	O	1.692451	0.047151	0.730429
O15	O	1.105215	-0.215244	0.349541
O16	O	1.605215	0.284756	0.849541
O17	O	1.323200	-0.452819	0.361156
O18	O	1.823200	0.047181	0.861156
O19	O	1.204281	-0.215221	0.448592
O20	O	1.704281	0.284779	0.948592
O21	O	1.098484	-0.350438	0.225422
O22	O	1.598484	0.149562	0.725422
O23	O	0.967805	-0.350392	0.356120
O24	O	1.467805	0.149608	0.856120
O25	O	1.093506	-0.452737	0.590882
O26	O	1.593506	0.047263	1.090882
O27	O	0.962757	-0.452768	0.460155
O28	O	1.462757	0.047232	0.960155
O29	O	1.197620	-0.350338	0.585898
O30	O	1.697620	0.149662	1.085898
O31	O	1.185789	-0.587966	0.367735
O32	O	1.685789	-0.087966	0.867735
O33	O	1.086775	-0.587931	0.466763
O34	O	1.586775	-0.087931	0.966763
C35	C	0.936025	-0.401579	0.408135
C36	C	1.436025	0.098421	0.908135
C37	C	0.846403	-0.401594	0.408145
C38	C	1.346403	0.098406	0.908145
C39	C	0.518227	-0.401599	0.408180
C40	C	1.018227	0.098401	0.908180
C41	C	0.609536	-0.401595	0.408167
C42	C	1.109536	0.098405	0.908167
C43	C	0.682312	-0.401597	0.408162
C44	C	1.182312	0.098403	0.908162
C45	C	0.773627	-0.401592	0.408150
C46	C	1.273627	0.098408	0.908150
C47	C	1.134805	-0.618199	0.418742
C48	C	1.634805	-0.118199	0.918742
C49	C	1.130297	-0.710865	0.423297
C50	C	1.630297	-0.210865	0.923297
C51	C	1.122072	-0.880527	0.431630
C52	C	1.622072	-0.380527	0.931630
C53	C	1.169103	-0.921814	0.384698
C54	C	1.669103	-0.421814	0.884698
C55	C	1.164526	-1.016220	0.389335
C56	C	1.664526	-0.516220	0.889335
C57	C	1.126648	-0.786113	0.426995
C58	C	1.626648	-0.286113	0.926995
C59	C	1.355823	-0.401603	0.408181
C60	C	1.855823	0.098397	0.908181
C61	C	1.445444	-0.401609	0.408192
C62	C	1.945444	0.098391	0.908192
C63	C	1.145571	-0.401529	0.618464
C64	C	1.645571	0.098471	1.118464
C65	C	1.145594	-0.401502	0.708084
C66	C	1.645594	0.098498	1.208084
C67	C	1.156289	-0.184136	0.397549
C68	C	1.656289	0.315864	0.897549
C69	C	1.160880	-0.091470	0.393029
C70	C	1.660880	0.408530	0.893029
C71	C	1.145509	-0.401592	0.198667
C72	C	1.645509	0.098408	0.698667
C73	C	1.145653	-0.401384	0.109036
C74	C	1.645653	0.098616	0.609036
C75	C	1.145636	-0.401409	1.036255
C76	C	1.645636	0.098591	1.536255
C77	C	1.145622	-0.401437	0.944948
C78	C	1.645622	0.098563	1.444948
C79	C	1.145616	-0.401456	0.872172
C80	C	1.645616	0.098544	1.372172
C81	C	1.145601	-0.401483	0.780859
C82	C	1.645601	0.098517	1.280859
H83	H	1.078373	-0.916078	0.475288
H84	H	1.578373	-0.416078	0.975288
C85	C	1.228135	-0.873790	0.325702
C86	C	1.728135	-0.373790	0.825702
C87	C	1.232681	-0.778019	0.321081
C88	C	1.732681	-0.278019	0.821081
C89	C	1.291705	-0.729991	0.262084
C90	C	1.791705	-0.229991	0.762084
C91	C	1.346183	-0.777735	0.207707
C92	C	1.846183	-0.277735	0.707707
C93	C	1.341638	-0.873511	0.212326
C94	C	1.841638	-0.373511	0.712326
C95	C	1.282614	-0.921539	0.271324
C96	C	1.782614	-0.421539	0.771324
H97	H	1.192352	-0.742672	0.361336
H98	H	1.692352	-0.242672	0.861336
H99	H	1.295069	-0.659091	0.258664
H100	H	1.795069	-0.159091	0.758664
H101	H	1.389876	-0.742182	0.164033
H102	H	1.889876	-0.242182	0.664033
H103	H	1.381968	-0.908859	0.172072
H104	H	1.881968	-0.408859	0.672072
H105	H	1.279250	-0.992439	0.274743
H106	H	1.779250	-0.492439	0.774743
