data_functionalizedCrystal
_audit_creation_method	'MofGen! by Chris Wilmer'
_symmetry_space_group_name_H-M	'P1'
_symmetry_Int_Tables_number	1
_symmetry_cell_setting	triclinic
loop_
_symmetry_equiv_pos_as_xyz
  x,y,z
_cell_length_a	11.169417
_cell_length_b	21.295416
_cell_length_c	11.169409
_cell_angle_alpha	89.961074
_cell_angle_beta	90.019824
_cell_angle_gamma	89.968790
loop_
_atom_site_label
_atom_site_type_symbol
_atom_site_fract_x
_atom_site_fract_y
_atom_site_fract_z
Zn1	Zn	1.834796	0.250543	0.678488
Zn2	Zn	2.334796	0.750543	1.178488
Zn3	Zn	1.834615	0.355832	0.477782
Zn4	Zn	2.334615	0.855832	0.977782
Zn5	Zn	1.634081	0.250582	0.477822
Zn6	Zn	2.134081	0.750582	0.977822
Zn7	Zn	1.634019	0.355780	0.678426
Zn8	Zn	2.134019	0.855780	1.178426
O9	O	1.734378	0.303184	0.578129
O10	O	2.234378	0.803184	1.078129
O11	O	2.002721	0.264516	0.651872
O12	O	2.502721	0.764516	1.151872
O13	O	1.807964	0.341908	0.309837
O14	O	2.307964	0.841908	0.809837
O15	O	1.660808	0.162487	0.504483
O16	O	2.160808	0.662487	1.004483
O17	O	2.002589	0.341870	0.504414
O18	O	2.502589	0.841870	1.004414
O19	O	1.808272	0.162459	0.651912
O20	O	2.308272	0.662459	1.151912
O21	O	1.660633	0.264581	0.309867
O22	O	2.160633	0.764581	0.809867
O23	O	1.466124	0.264531	0.504424
O24	O	1.966124	0.764531	1.004424
O25	O	1.660702	0.341783	0.846384
O26	O	2.160702	0.841783	1.346384
O27	O	1.466078	0.341820	0.651807
O28	O	1.966078	0.841820	1.151807
O29	O	1.808212	0.264466	0.846429
O30	O	2.308212	0.764466	1.346429
O31	O	1.807904	0.443914	0.504355
O32	O	2.307904	0.943914	1.004355
O33	O	1.660527	0.443877	0.651768
O34	O	2.160527	0.943877	1.151768
C35	C	1.734221	0.466736	0.578076
C36	C	2.234221	0.966736	1.078076
C37	C	1.734264	0.536704	0.578094
C38	C	2.234264	1.036704	1.078094
C39	C	1.422553	0.303175	0.578114
C40	C	1.922553	0.803175	1.078114
C41	C	1.289153	0.303186	0.578136
C42	C	1.789153	0.803186	1.078136
C43	C	1.811072	0.569569	0.501417
C44	C	2.311072	1.069569	1.001417
C45	C	1.811129	0.635312	0.501450
C46	C	2.311129	1.135312	1.001450
C47	C	1.734356	0.668187	0.578146
C48	C	2.234356	1.168187	1.078146
C49	C	1.657543	0.635313	0.654838
C50	C	2.157543	1.135313	1.154838
C51	C	1.657497	0.569572	0.654812
C52	C	2.157497	1.069572	1.154812
N53	N	1.629367	0.771452	0.587299
N54	N	2.129367	1.271452	1.087299
N55	N	1.629414	0.833904	0.587317
N56	N	2.129414	1.333904	1.087317
C57	C	1.734492	0.866261	0.578231
C58	C	2.234492	1.366261	1.078231
N59	N	1.839523	0.833808	0.569104
N60	N	2.339523	1.333808	1.069104
N61	N	1.839475	0.771351	0.569080
N62	N	2.339475	1.271351	1.069080
C63	C	1.734398	0.739472	0.578184
C64	C	2.234398	1.239472	1.078184
C65	C	1.811367	0.970412	0.501586
C66	C	2.311367	1.470412	1.001586
C67	C	1.811426	1.036156	0.501627
C68	C	2.311426	1.536156	1.001627
C69	C	1.657830	1.036156	0.655008
C70	C	2.157830	1.536156	1.155008
C71	C	1.657782	0.970413	0.654974
C72	C	2.157782	1.470413	1.154974
C73	C	1.734549	0.937546	0.578256
C74	C	2.234549	1.437546	1.078256
C75	C	2.047420	0.303194	0.578146
C76	C	2.547420	0.803194	1.078146
C77	C	2.180820	0.303199	0.578153
C78	C	2.680820	0.803199	1.078153
C79	C	1.734470	0.303114	0.891172
C80	C	2.234470	0.803114	1.391172
C81	C	1.734509	0.303085	1.024572
C82	C	2.234509	0.803085	1.524572
C83	C	1.734569	1.138994	0.578230
C84	C	2.234569	1.638994	1.078230
C85	C	1.734654	1.069026	0.578325
C86	C	2.234654	1.569026	1.078325
C87	C	1.734355	0.303209	0.266305
C88	C	2.234355	0.803209	0.766305
C89	C	1.734548	0.303061	0.132905
C90	C	2.234548	0.803061	0.632905
H91	H	1.873679	0.662076	0.439011
H92	H	2.373679	1.162076	0.939011
H93	H	1.873583	0.542810	0.438952
H94	H	2.373583	1.042810	0.938952
N95	N	1.574920	0.934966	0.737664
N96	N	2.074920	1.434966	1.237664
H97	H	1.519311	0.907740	0.688826
H98	H	2.019311	1.407740	1.188826
H99	H	1.623727	0.907676	0.793300
H100	H	2.123727	1.407676	1.293300
N101	N	1.894266	1.071609	0.418918
N102	N	2.394266	1.571609	0.918918
H103	H	1.949886	1.098833	0.467747
H104	H	2.449886	1.598833	0.967747
H105	H	1.942805	1.040770	0.370330
H106	H	2.442805	1.540770	0.870330
H107	H	1.595326	1.062922	0.717461
H108	H	2.095326	1.562922	1.217461
N109	N	1.574728	0.670769	0.737548
N110	N	2.074728	1.170769	1.237548
H111	H	1.526060	0.639970	0.786120
H112	H	2.026060	1.139970	1.286120
H113	H	1.623568	0.697999	0.793142
H114	H	2.123568	1.197999	1.293142
H115	H	1.594950	0.542812	0.717252
H116	H	2.094950	1.042812	1.217252
H117	H	1.873880	0.943650	0.439121
H118	H	2.373880	1.443650	0.939121
