data_functionalizedCrystal
_audit_creation_method	'MofGen! by Chris Wilmer'
_symmetry_space_group_name_H-M	'P1'
_symmetry_Int_Tables_number	1
_symmetry_cell_setting	triclinic
loop_
_symmetry_equiv_pos_as_xyz
  x,y,z
_cell_length_a	11.026607
_cell_length_b	9.482900
_cell_length_c	10.967953
_cell_angle_alpha	68.659487
_cell_angle_beta	96.379953
_cell_angle_gamma	101.363848
loop_
_atom_site_label
_atom_site_type_symbol
_atom_site_fract_x
_atom_site_fract_y
_atom_site_fract_z
O1	O	1.612861	-0.010595	0.524835
O2	O	2.112861	0.489405	1.024835
O3	O	1.261457	0.004832	0.463271
O4	O	1.761457	0.504832	0.963271
O5	O	1.452554	0.043638	0.308349
O6	O	1.952554	0.543638	0.808349
O7	O	1.421764	-0.049401	0.679757
O8	O	1.921764	0.450599	1.179757
O9	O	1.413733	-0.206078	0.339978
O10	O	1.913733	0.293922	0.839978
O11	O	1.222636	-0.244884	0.494900
O12	O	1.722636	0.255116	0.994900
O13	O	1.574040	-0.260310	0.556465
O14	O	2.074040	0.239690	1.056465
Cu15	Cu	1.394793	-0.275398	0.528571
Cu16	Cu	1.894793	0.224602	1.028571
Cu17	Cu	1.440704	0.019920	0.491165
Cu18	Cu	1.940704	0.519920	0.991165
O19	O	1.382943	-0.299116	0.711387
O20	O	1.882943	0.200884	1.211387
C21	C	1.197187	-0.117180	0.467728
C22	C	1.697187	0.382820	0.967728
C23	C	1.063519	-0.108697	0.433871
C24	C	1.563519	0.391303	0.933871
N25	N	1.362511	-0.483109	0.554881
N26	N	1.862511	0.016891	1.054881
C27	C	1.433837	-0.069121	0.275876
C28	C	1.933837	0.430879	0.775876
C29	C	1.435889	-0.033068	0.131990
C30	C	1.935889	0.466932	0.631990
C31	C	0.986825	-0.132114	0.527356
C32	C	1.486825	0.367886	1.027356
C33	C	0.848672	-0.123347	0.492365
C34	C	1.348672	0.376653	0.992365
C35	C	1.638311	-0.138295	0.552007
C36	C	2.138311	0.361705	1.052007
C37	C	1.771980	-0.146768	0.585863
C38	C	2.271980	0.353232	1.085863
C39	C	1.431174	-0.541289	0.498917
C40	C	1.931174	-0.041289	0.998917
C41	C	1.404323	-0.714193	0.520819
C42	C	1.904323	-0.214193	1.020819
N43	N	1.472996	0.227632	0.464846
N44	N	1.972996	0.727632	0.964846
C45	C	1.418807	-0.109112	-0.064487
C46	C	1.918807	0.390888	0.435513
C47	C	1.416690	-0.146370	0.084226
C48	C	1.916690	0.353630	0.584226
C49	C	1.401660	-0.186354	0.743860
C50	C	1.901660	0.313646	1.243860
C51	C	1.399610	-0.222398	0.887744
C52	C	1.899610	0.277602	1.387744
H53	H	1.023443	-0.158661	0.633297
H54	H	1.523443	0.341339	1.133297
Cl55	Cl	1.241052	-0.603822	0.653886
Cl56	Cl	1.741052	-0.103822	1.153886
Cl57	Cl	0.792152	-0.082382	0.328790
Cl58	Cl	1.292152	0.417618	0.828790
H59	H	1.453898	0.091512	0.062796
H60	H	1.953898	0.591512	0.562796
Cl61	Cl	1.371823	-0.414733	-0.005426
Cl62	Cl	1.871823	0.085267	0.494574
Cl63	Cl	1.282859	-0.834902	0.619828
Cl64	Cl	1.782859	-0.334902	1.119828
Cl65	Cl	1.552364	-0.420486	0.399551
Cl66	Cl	2.052364	0.079514	0.899551
Cl67	Cl	0.828492	-0.187765	0.749443
Cl68	Cl	1.328492	0.312235	1.249443
Cl69	Cl	1.006992	-0.067734	0.270303
Cl70	Cl	1.506992	0.432266	0.770303
Cl71	Cl	1.388902	-0.338713	0.191053
Cl72	Cl	1.888902	0.161287	0.691053
Cl73	Cl	1.594703	-0.651745	0.366164
Cl74	Cl	2.094703	-0.151745	0.866164
H75	H	1.436816	0.015459	-0.133686
H76	H	1.936816	0.515459	0.366314
