data_functionalizedCrystal
_audit_creation_method	'MofGen! by Chris Wilmer'
_symmetry_space_group_name_H-M	'P1'
_symmetry_Int_Tables_number	1
_symmetry_cell_setting	triclinic
loop_
_symmetry_equiv_pos_as_xyz
  x,y,z
_cell_length_a	14.044209
_cell_length_b	14.853567
_cell_length_c	13.330367
_cell_angle_alpha	90.002150
_cell_angle_beta	90.000304
_cell_angle_gamma	88.411441
loop_
_atom_site_label
_atom_site_type_symbol
_atom_site_fract_x
_atom_site_fract_y
_atom_site_fract_z
O1	O	-1.257995	-0.217359	0.083287
O2	O	-0.982016	-0.209517	0.083316
O3	O	-1.127377	-0.082792	0.083303
O4	O	-1.112634	-0.344084	0.083299
O5	O	-1.127362	-0.082795	-0.083544
O6	O	-0.982001	-0.209520	-0.083531
O7	O	-1.257980	-0.217362	-0.083561
Cu8	Cu	-1.119989	-0.213441	-0.098781
Cu9	Cu	-1.120007	-0.213438	0.098536
O10	O	-1.112619	-0.344087	-0.083548
C11	C	-0.946689	-0.206085	-0.000104
C12	C	-0.841450	-0.195844	-0.000093
C13	C	-0.648763	-0.177122	-0.000110
C14	C	-0.591226	-0.249761	-0.000115
C15	C	-0.484009	-0.239343	-0.000124
C16	C	-0.755991	-0.187538	-0.000100
C17	C	-0.293307	-0.220796	-0.000136
C18	C	-0.398545	-0.231042	-0.000132
C19	C	-1.126702	-0.049152	-0.000117
C20	C	-1.124700	0.051090	-0.000108
C21	C	-1.113294	-0.377727	-0.000126
C22	C	-1.115296	-0.477969	-0.000128
N23	N	-1.119984	-0.213444	-0.237562
C24	C	-1.029889	0.471135	-0.000117
C25	C	-1.202583	0.478735	-0.000136
C26	C	-1.204465	0.384552	-0.000130
C27	C	-1.119058	0.333656	-0.000119
C28	C	-1.031769	0.376943	-0.000115
C29	C	-1.291752	0.341258	-0.000145
C30	C	-1.293638	0.247070	-0.000140
C31	C	-1.208230	0.196172	-0.000123
C32	C	-1.120938	0.239465	-0.000117
C33	C	-1.035531	0.188569	-0.000106
C34	C	-0.948238	0.231860	-0.000093
C35	C	-0.946361	0.326046	-0.000097
C36	C	-1.210107	0.101986	-0.000119
C37	C	-1.037411	0.094377	-0.000104
C38	C	-1.055608	-0.269538	-0.290082
C39	C	-1.184364	-0.157346	-0.290070
C40	C	-1.184374	-0.157343	-0.395089
C41	C	-1.119999	-0.213438	-0.447608
C42	C	-1.055614	-0.269535	-0.395110
C43	C	-1.248751	-0.101241	-0.447595
C44	C	-1.248763	-0.101235	-0.552620
C45	C	-1.184391	-0.157334	-0.605141
C46	C	-1.120005	-0.213435	-0.552637
C47	C	-1.055629	-0.269529	-0.605156
C48	C	-0.991247	-0.325634	-0.552653
C49	C	-0.991243	-0.325635	-0.447632
C50	C	-1.184395	-0.157334	-0.710163
C51	C	-1.055635	-0.269526	-0.710184
N52	N	-1.120020	-0.213429	0.237317
H53	H	-0.967861	0.052944	-0.000091
H54	H	-1.301159	-0.055565	-0.404830
C55	C	-0.689582	-0.354672	0.085705
C56	C	-0.633412	-0.344282	-0.000082
H57	H	-0.715620	-0.413026	0.085734
H58	H	-0.739774	-0.310477	0.085692
H59	H	-0.651439	-0.347572	0.143870
H60	H	-0.671557	-0.351374	-0.058248
H61	H	-0.583213	-0.388489	-0.000078
C62	C	-1.304240	0.050351	-0.584934
C63	C	-1.319540	-0.039573	-0.610323
H64	H	-1.347942	0.088414	-0.620555
H65	H	-1.240974	0.065260	-0.602162
H66	H	-1.313445	0.058366	-0.514868
H67	H	-1.310328	-0.047590	-0.680388
H68	H	-1.382821	-0.054487	-0.593102
H69	H	-0.617502	-0.107115	-0.000114
C70	C	-0.801628	0.196369	0.085695
C71	C	-0.854359	0.175910	-0.000082
H72	H	-0.743671	0.161829	0.085697
H73	H	-0.837423	0.182495	0.143861
H74	H	-0.788015	0.258659	0.085689
H75	H	-0.867977	0.113621	-0.000072
H76	H	-0.818556	0.189778	-0.058263
C77	C	-0.866804	0.467050	-0.000114
C78	C	-0.850415	0.373633	-0.000098
H79	H	-0.807571	0.496429	-0.000124
H80	H	-0.901969	0.484049	0.058063
H81	H	-0.901976	0.484028	-0.058304
H82	H	-0.815249	0.356654	0.058096
H83	H	-0.815236	0.356627	-0.058281
H84	H	-1.236810	-0.111650	-0.752906
C85	C	-1.276375	0.626490	-0.000152
C86	C	-1.296458	0.534678	-0.000149
H87	H	-1.334333	0.661027	-0.000154
H88	H	-1.240591	0.640351	-0.058331
H89	H	-1.240591	0.640359	0.058036
H90	H	-1.332235	0.520807	-0.058342
H91	H	-1.332257	0.520811	0.058035
H92	H	-0.958817	0.506387	-0.000103
H93	H	-1.003216	-0.315209	-0.752940
H94	H	-1.361286	0.382704	-0.000163
H95	H	-1.364718	0.211831	-0.000149
C96	C	-0.934092	-0.375434	-0.713657
C97	C	-0.920487	-0.387293	-0.610391
H98	H	-0.890412	-0.413503	-0.749302
H99	H	-0.923714	-0.314430	-0.730849
H100	H	-0.997375	-0.390341	-0.730855
H101	H	-0.857205	-0.372379	-0.593191
H102	H	-0.930858	-0.448310	-0.593192
H103	H	-1.003191	-0.315221	-0.247331
C104	C	-1.380616	0.118964	-0.000137
C105	C	-1.306050	0.054401	-0.000125
H106	H	-1.439849	0.089585	-0.000131
H107	H	-1.376287	0.155531	-0.058321
H108	H	-1.376288	0.155552	0.058046
H109	H	-1.310373	0.017817	-0.058312
H110	H	-1.310381	0.017818	0.058065
C111	C	-0.934052	-0.375437	-0.286647
C112	C	-0.920468	-0.387290	-0.389919
H113	H	-0.890351	-0.413494	-0.251018
H114	H	-0.997318	-0.390355	-0.269436
H115	H	-0.923681	-0.314423	-0.269451
H116	H	-0.930845	-0.448303	-0.407116
H117	H	-0.857186	-0.372378	-0.407137
C118	C	-1.239872	-0.005784	-0.257593
C119	C	-1.255121	-0.095734	-0.232284
H120	H	-1.283554	0.032239	-0.221892
H121	H	-1.249132	0.002284	-0.327634
H122	H	-1.176589	0.009130	-0.240400
H123	H	-1.318402	-0.110650	-0.249483
H124	H	-1.245868	-0.103806	-0.162227
