data_functionalizedCrystal
_audit_creation_method	'MofGen! by Chris Wilmer'
_symmetry_space_group_name_H-M	'P1'
_symmetry_Int_Tables_number	1
_symmetry_cell_setting	triclinic
loop_
_symmetry_equiv_pos_as_xyz
  x,y,z
_cell_length_a	10.654550
_cell_length_b	9.130313
_cell_length_c	10.654550
_cell_angle_alpha	89.999890
_cell_angle_beta	95.515097
_cell_angle_gamma	90.003780
loop_
_atom_site_label
_atom_site_type_symbol
_atom_site_fract_x
_atom_site_fract_y
_atom_site_fract_z
O1	O	-1.667834	-0.121916	0.176393
O2	O	-1.302356	-0.121892	0.193199
O3	O	-1.493498	-0.121899	0.002057
O4	O	-1.476692	-0.121909	0.367535
O5	O	-1.493496	0.121700	0.002062
O6	O	-1.302353	0.121707	0.193204
O7	O	-1.667832	0.121683	0.176398
Cu8	Cu	-1.485092	0.143937	0.184802
Cu9	Cu	-1.485095	-0.144146	0.184796
O10	O	-1.476689	0.121690	0.367540
C11	C	-1.255556	-0.000089	0.191968
C12	C	-1.116113	-0.000080	0.188276
C13	C	-1.492263	-0.000101	-0.044739
C14	C	-1.488571	-0.000106	-0.184182
C15	C	-1.714631	-0.000123	0.177630
C16	C	-1.854074	-0.000141	0.181321
N17	N	-1.485099	0.346560	0.184805
C18	C	-1.036627	-0.000105	0.300817
C19	C	-0.905607	-0.000130	0.297341
C20	C	-0.933570	-0.000113	0.068771
C21	C	-1.064588	-0.000077	0.072249
C22	C	-1.020482	-0.000121	0.432780
C23	C	-0.889461	-0.000146	0.429304
N24	N	-1.485098	-0.346769	0.184782
C25	C	-1.569759	0.423209	0.100196
C26	C	-1.569756	0.576546	0.100181
C27	C	-1.400429	0.576571	0.269395
C28	C	-1.400427	0.423237	0.269403
C29	C	-1.667523	0.423195	0.002506
C30	C	-1.667519	0.576532	0.002491
C31	C	-1.601112	-0.000109	-0.263668
C32	C	-1.597636	-0.000119	-0.394688
C33	C	-1.369066	-0.000117	-0.366725
C34	C	-1.372544	-0.000118	-0.235707
C35	C	-1.733075	-0.000104	-0.279813
C36	C	-1.729599	-0.000114	-0.410834
C37	C	-1.477925	-0.000111	0.414336
C38	C	-1.481616	-0.000116	0.553779
H39	H	-1.129302	-0.000036	-0.019393
H40	H	-1.758706	0.375630	0.033094
H41	H	-1.056138	-0.105294	0.474797
H42	H	-0.891602	-0.000132	-0.025694
H43	H	-1.049812	0.101829	0.484393
H44	H	-0.843789	0.105021	0.469187
H45	H	-1.646080	0.381580	-0.094027
H46	H	-1.775096	0.105075	-0.244184
H47	H	-0.847729	-0.102101	0.479023
H48	H	-1.779319	0.101827	-0.452592
H49	H	-1.769481	-0.105296	-0.456479
H50	H	-1.331480	0.360831	0.338287
H51	H	-1.331490	0.639019	0.338271
H52	H	-1.274601	-0.000128	-0.408693
H53	H	-1.637006	0.624084	-0.088732
H54	H	-1.764031	0.618142	0.024009
H55	H	-1.280902	-0.000136	-0.170993
H56	H	-1.784692	-0.102046	-0.250457
