data_functionalizedCrystal
_audit_creation_method	'MofGen! by Chris Wilmer'
_symmetry_space_group_name_H-M	'P1'
_symmetry_Int_Tables_number	1
_symmetry_cell_setting	triclinic
loop_
_symmetry_equiv_pos_as_xyz
  x,y,z
_cell_length_a	19.077105
_cell_length_b	13.032721
_cell_length_c	19.076919
_cell_angle_alpha	99.138159
_cell_angle_beta	90.076224
_cell_angle_gamma	95.201395
loop_
_atom_site_label
_atom_site_type_symbol
_atom_site_fract_x
_atom_site_fract_y
_atom_site_fract_z
Zn1	Zn	1.013397	-0.505360	-0.481832
Zn2	Zn	1.003124	-0.673317	-0.378090
Zn3	Zn	0.901858	-0.491366	-0.358479
Zn4	Zn	0.881001	-0.672687	-0.490791
O5	O	0.949845	-0.585683	-0.427298
O6	O	1.109823	-0.533760	-0.472529
O7	O	0.994119	-0.643588	-0.276699
O8	O	0.929682	-0.347048	-0.362886
O9	O	1.102275	-0.657157	-0.396309
O10	O	1.011630	-0.357329	-0.453513
O11	O	0.919720	-0.509909	-0.262291
O12	O	0.801303	-0.509299	-0.371572
O13	O	0.894135	-0.656084	-0.588392
O14	O	0.785980	-0.642515	-0.468781
O15	O	0.991406	-0.533149	-0.581810
O16	O	0.973896	-0.819408	-0.404996
O17	O	0.884173	-0.818945	-0.487797
C18	C	0.768286	-0.574321	-0.419021
C19	C	0.690611	-0.569486	-0.415499
C20	C	0.646154	-0.636670	-0.464393
C21	C	0.573171	-0.632114	-0.461086
C22	C	0.544646	-0.560378	-0.408881
C23	C	0.589109	-0.493187	-0.359985
C24	C	0.662091	-0.497739	-0.363296
C25	C	0.327230	-0.539312	-0.393562
C26	C	0.254242	-0.534767	-0.390254
C27	C	0.238309	-0.673693	-0.491357
C28	C	0.311292	-0.678243	-0.494660
C29	C	0.355749	-0.611048	-0.445766
N30	N	0.470046	-0.555721	-0.405499
N31	N	0.430348	-0.615700	-0.449153
C32	C	0.925675	-0.857080	-0.449513
C33	C	0.915397	-0.973191	-0.459043
C34	C	0.955245	-1.025155	-0.422357
C35	C	0.944623	-1.145161	-0.432206
C36	C	1.132113	-0.597090	-0.435607
C37	C	1.209785	-0.601951	-0.439148
C38	C	0.941590	-0.596107	-0.611432
C39	C	0.938072	-0.600549	-0.689899
C40	C	0.974128	-0.313227	-0.405012
C41	C	0.984476	-0.197123	-0.395516
C42	C	0.987061	-0.538633	-0.723338
C43	C	0.983747	-0.542803	-0.797065
C44	C	0.931448	-0.608894	-0.837354
C45	C	0.882454	-0.670812	-0.803910
C46	C	0.885765	-0.666637	-0.730183
C47	C	0.916112	-0.628240	-1.058220
C48	C	0.912806	-0.632414	-1.131952
C49	C	1.014098	-0.504402	-1.125102
C50	C	1.017407	-0.500237	-1.051375
C51	C	0.968412	-0.562151	-1.017937
N52	N	0.928061	-0.613160	-0.912715
N53	N	0.971796	-0.557879	-0.942576
C54	C	0.958115	-0.575226	-0.243875
C55	C	0.961794	-0.570498	-0.165391
H56	H	0.231022	-0.476339	-0.347746
O57	O	0.865328	-1.026255	-0.505161
C58	C	0.809141	-1.194251	-0.557082
C59	C	0.865859	-1.134289	-0.504816
H60	H	0.809561	-1.281608	-0.556831
H61	H	0.755210	-1.168796	-0.540339
H62	H	0.820697	-1.176735	-0.612813
H63	H	0.854370	-1.151776	-0.449069
H64	H	0.919772	-1.159752	-0.521619
O65	O	1.061594	-0.444139	-1.157601
C66	C	1.079820	-0.308451	-1.229768
C67	C	1.025958	-0.376621	-1.192986
H68	H	1.051029	-0.253860	-1.258397
H69	H	1.117761	-0.260420	-1.188333
H70	H	1.110551	-0.360667	-1.269847
H71	H	0.995178	-0.324482	-1.152910
H72	H	0.988065	-0.424660	-1.234461
O73	O	1.034507	-1.144059	-0.349348
C74	C	1.090756	-0.976073	-0.297491
C75	C	1.034062	-1.036035	-0.349785
H76	H	1.090426	-0.888727	-0.297838
H77	H	1.079203	-0.993445	-0.241725
H78	H	1.144651	-1.001671	-0.314234
H79	H	0.980145	-1.010472	-0.333108
H80	H	1.045676	-1.018660	-0.405539
O81	O	0.838246	-0.726946	-0.697743
C82	C	0.789489	-0.901231	-0.688190
C83	C	0.843346	-0.833055	-0.724974
H84	H	0.793584	-0.987033	-0.710203
H85	H	0.800839	-0.886981	-0.628576
H86	H	0.734132	-0.880138	-0.698595
H87	H	0.898724	-0.854107	-0.714625
H88	H	0.831935	-0.847314	-0.784577
H89	H	0.997225	-0.980802	-0.383660
H90	H	1.023640	-0.492387	-0.824288
H91	H	0.902645	-1.189513	-0.470911
O92	O	0.673885	-0.706462	-0.515016
C93	C	0.743341	-0.853144	-0.539647
C94	C	0.711966	-0.774186	-0.482241
H95	H	0.774148	-0.907905	-0.513171
H96	H	0.699051	-0.900454	-0.574021
H97	H	0.780092	-0.809470	-0.574255
H98	H	0.675223	-0.817776	-0.447584
H99	H	0.756291	-0.726877	-0.447918
O100	O	0.529905	-0.697419	-0.508480
C101	C	0.434554	-0.833898	-0.525619
C102	C	0.483498	-0.759980	-0.471867
H103	H	0.397032	-0.884513	-0.496039
H104	H	0.402948	-0.786044	-0.557111
H105	H	0.467490	-0.885913	-0.563511
H106	H	0.450616	-0.707949	-0.433930
H107	H	0.515108	-0.807897	-0.440427
H108	H	0.698288	-0.443025	-0.323484
O109	O	1.037892	-0.474341	-0.684307
C110	C	1.138032	-0.347853	-0.685308
C111	C	1.080493	-0.420605	-0.729590
H112	H	1.172500	-0.304404	-0.721902
H113	H	1.112407	-0.289204	-0.644874
H114	H	1.171818	-0.396155	-0.656362
H115	H	1.046689	-0.372388	-0.758581
H116	H	1.106164	-0.479257	-0.769982
H117	H	1.059997	-0.446421	-1.018577
O118	O	0.339084	-0.747783	-0.545405
C119	C	0.415919	-0.772577	-0.645642
C120	C	0.384512	-0.693709	-0.588199
H121	H	0.452643	-0.728888	-0.680265
H122	H	0.446727	-0.827408	-0.619230
H123	H	0.371589	-0.819828	-0.679988
H124	H	0.428798	-0.646387	-0.553834
H125	H	0.353685	-0.638949	-0.614656
H126	H	0.870215	-0.686236	-1.164753
O127	O	0.868476	-0.688472	-1.025860
C128	C	0.767611	-0.815796	-1.040432
C129	C	0.821533	-0.747667	-1.077177
H130	H	0.729635	-0.863656	-1.081903
H131	H	0.796316	-0.870546	-1.011859
H132	H	0.736934	-0.763558	-1.000314
H133	H	0.852227	-0.799823	-1.117326
H134	H	0.792788	-0.692909	-1.105703
H135	H	0.363418	-0.484604	-0.353745
O136	O	0.831738	-0.735131	-0.843090
C137	C	0.806030	-0.880246	-0.937462
C138	C	0.863536	-0.807490	-0.893135
H139	H	0.831716	-0.938752	-0.977944
H140	H	0.771587	-0.923860	-0.900935
H141	H	0.772206	-0.831931	-0.966356
H142	H	0.897409	-0.855728	-0.864236
H143	H	0.897928	-0.763872	-0.929697
O144	O	0.195026	-0.738849	-0.538818
C145	C	0.075529	-0.793450	-0.578505
C146	C	0.124467	-0.719585	-0.524717
H147	H	0.018472	-0.777917	-0.567115
H148	H	0.088909	-0.779350	-0.634622
H149	H	0.082983	-0.877831	-0.573568
H150	H	0.117040	-0.635178	-0.529590
H151	H	0.111076	-0.733776	-0.468622
H152	H	0.565879	-0.434774	-0.317481
