data_functionalizedCrystal
_audit_creation_method	'MofGen! by Chris Wilmer'
_symmetry_space_group_name_H-M	'P1'
_symmetry_Int_Tables_number	1
_symmetry_cell_setting	triclinic
loop_
_symmetry_equiv_pos_as_xyz
  x,y,z
_cell_length_a	14.519709
_cell_length_b	10.654541
_cell_length_c	9.730217
_cell_angle_alpha	90.000656
_cell_angle_beta	90.005515
_cell_angle_gamma	95.917963
loop_
_atom_site_label
_atom_site_type_symbol
_atom_site_fract_x
_atom_site_fract_y
_atom_site_fract_z
O1	O	0.129522	-1.666592	0.114251
O2	O	0.141865	-1.300994	0.114263
O3	O	0.001505	-1.493486	0.114245
O4	O	0.269882	-1.474099	0.114270
O5	O	0.001500	-1.493483	-0.114335
O6	O	0.141860	-1.300991	-0.114317
O7	O	0.129517	-1.666589	-0.114329
Zn8	Zn	0.135688	-1.483790	-0.150615
Zn9	Zn	0.135694	-1.483793	0.150549
O10	O	0.269877	-1.474097	-0.114310
C11	C	-0.032862	-1.492581	-0.000046
C12	C	-0.135257	-1.489874	-0.000046
C13	C	0.140957	-1.254203	-0.000025
C14	C	0.138247	-1.114786	-0.000021
C15	C	0.130425	-1.713380	-0.000037
C16	C	0.133135	-1.852797	-0.000033
C17	C	-0.510204	-1.479906	-0.000010
C18	C	-0.405882	-1.482674	-0.000021
C19	C	-0.322734	-1.484890	-0.000030
C20	C	-0.218405	-1.487658	-0.000037
C21	C	0.304244	-1.475002	-0.000017
C22	C	0.406639	-1.477709	-0.000007
N23	N	0.135692	-1.483796	0.356086
C24	C	0.306085	-1.085201	0.000012
C25	C	0.388727	-1.004912	0.000034
C26	C	0.386175	-0.873919	0.000035
C27	C	0.300972	-0.823213	0.000010
C28	C	0.218330	-0.903502	-0.000012
C29	C	0.220891	-1.034496	-0.000009
C30	C	0.050493	-0.933086	-0.000055
C31	C	0.053043	-1.064080	-0.000046
C32	C	-0.034710	-0.882380	-0.000080
C33	C	-0.117354	-0.962669	-0.000092
C34	C	-0.114798	-1.093670	-0.000091
C35	C	-0.029599	-1.144369	-0.000068
N36	N	0.135683	-1.483796	-0.356151
C37	C	0.011637	-1.654584	0.356060
C38	C	-0.050397	-1.739973	0.427987
C39	C	-0.050407	-1.739972	0.571867
C40	C	0.011625	-1.654575	0.643823
C41	C	0.073659	-1.569186	0.571896
C42	C	0.073661	-1.569194	0.428013
C43	C	0.197717	-1.398407	0.571922
C44	C	0.197725	-1.398400	0.428042
C45	C	0.259749	-1.313010	0.643878
C46	C	0.321780	-1.227613	0.571951
C47	C	0.321788	-1.227616	0.428063
C48	C	0.259759	-1.313010	0.356115
H49	H	0.458098	-1.046212	0.000051
H50	H	0.259742	-1.313019	0.761032
O51	O	0.011471	-1.654581	0.216296
C52	C	-0.076288	-1.629045	0.168216
H53	H	-0.130427	-1.654794	0.251120
H54	H	-0.074704	-1.524413	0.142699
C55	C	-0.034662	-1.676086	-0.063649
C56	C	-0.101157	-1.707721	0.038171
H57	H	-0.050002	-1.724612	-0.143871
H58	H	0.024464	-1.693286	-0.031259
H59	H	-0.033349	-1.588892	-0.084896
H60	H	-0.102461	-1.794910	0.059428
H61	H	-0.160285	-1.690538	0.005780
O62	O	0.259934	-1.313007	0.216351
C63	C	0.347695	-1.338542	0.168303
H64	H	0.401831	-1.312793	0.251227
H65	H	0.346113	-1.443174	0.142784
C66	C	0.306077	-1.291502	-0.063577
C67	C	0.372569	-1.259866	0.038268
H68	H	0.321419	-1.242977	-0.143792
H69	H	0.246949	-1.274304	-0.031207
H70	H	0.304765	-1.378697	-0.084825
H71	H	0.373871	-1.172677	0.059527
H72	H	0.431697	-1.277049	0.005899
H73	H	0.308172	-1.191861	0.000042
H74	H	0.298901	-0.716550	-0.000005
H75	H	0.453470	-0.808546	0.000043
O76	O	-0.110754	-1.822964	0.641530
C77	C	-0.165485	-1.898363	0.547177
H78	H	-0.166944	-1.846899	0.444608
H79	H	-0.134774	-1.991624	0.531892
C80	C	-0.262992	-1.987474	0.729291
C81	C	-0.264791	-1.924259	0.603317
H82	H	-0.324248	-2.003453	0.763921
H83	H	-0.226117	-1.936680	0.792859
H84	H	-0.237395	-2.065184	0.716536
H85	H	-0.290377	-1.846544	0.616076
H86	H	-0.301672	-1.975041	0.539751
O87	O	0.382072	-1.144841	0.641998
C88	C	0.439540	-1.212070	0.725204
H89	H	0.403602	-1.310328	0.746741
H90	H	0.507786	-1.220574	0.669768
C91	C	0.502812	-1.020605	0.835436
C92	C	0.458669	-1.141284	0.861897
H93	H	0.514615	-0.976940	0.919753
H94	H	0.464097	-0.975311	0.779376
H95	H	0.559679	-1.027709	0.789236
H96	H	0.401798	-1.134179	0.908081
H97	H	0.497374	-1.186576	0.917969
H98	H	-0.036782	-0.775717	-0.000086
H99	H	0.372307	-1.158087	0.369507
H100	H	-0.186720	-0.921373	-0.000111
H101	H	-0.182096	-1.159035	-0.000114
H102	H	0.011620	-1.654590	0.760977
H103	H	-0.027510	-1.251028	-0.000051
H104	H	-0.100901	-1.809505	0.369388
