data_functionalizedCrystal
_audit_creation_method	'MofGen! by Chris Wilmer'
_symmetry_space_group_name_H-M	'P1'
_symmetry_Int_Tables_number	1
_symmetry_cell_setting	triclinic
loop_
_symmetry_equiv_pos_as_xyz
  x,y,z
_cell_length_a	6.817900
_cell_length_b	16.305597
_cell_length_c	9.582880
_cell_angle_alpha	93.088424
_cell_angle_beta	111.207034
_cell_angle_gamma	103.455834
loop_
_atom_site_label
_atom_site_type_symbol
_atom_site_fract_x
_atom_site_fract_y
_atom_site_fract_z
V1	V	-4.116553	-0.116360	-0.467113
O2	O	-4.102390	0.005958	-0.457693
O3	O	-4.067423	-0.231074	-0.464426
O4	O	-4.107328	-0.114409	-0.670605
O5	O	-4.062210	-0.111515	-0.250086
V6	V	-4.595199	-0.101748	-0.441093
O7	O	-4.388509	-0.148412	-0.524189
O8	O	-4.773440	-0.069696	-0.384017
O9	O	-4.421122	0.012966	-0.443780
O10	O	-4.726758	-0.224066	-0.450513
O11	O	-4.766939	-0.106593	-0.658120
O12	O	-4.381217	-0.103699	-0.237601
C13	C	-3.910979	-0.259044	-0.457188
C14	C	-3.952358	-0.352824	-0.456348
C15	C	-3.961880	-0.110225	-0.720188
C16	C	-4.035616	-0.109390	-0.886548
C17	C	-4.102909	-0.693584	-0.453366
C18	C	-3.865608	-0.652760	-0.445194
C19	C	-3.822124	-0.555161	-0.445475
C20	C	-4.028218	-0.524529	-0.454846
C21	C	-4.084215	-0.550003	-0.315406
C22	C	-4.125821	-0.647537	-0.314375
C23	C	-4.269412	-0.672650	-0.600577
C24	C	-4.223081	-0.575136	-0.603158
C25	C	-3.986015	-0.428986	-0.455678
C26	C	-4.145113	-0.789127	-0.452524
C27	C	-4.240907	0.040932	-0.451014
C28	C	-4.178769	0.134710	-0.451864
C29	C	-4.190006	-0.107886	-0.188010
C30	C	-4.095508	-0.108717	-0.021649
H31	H	-3.775162	-0.538168	-0.545115
H32	H	-3.944980	-0.514475	-0.205615
C33	C	-3.828807	-0.694478	-0.578347
N34	N	-3.800808	-0.726139	-0.678312
C35	C	-4.259644	-0.716463	-0.743437
N36	N	-4.252261	-0.749462	-0.851031
H37	H	-4.378425	-0.555290	-0.618657
C38	C	-3.695959	-0.671127	-0.301786
N39	N	-3.568184	-0.684971	-0.193778
H40	H	-3.674733	-0.520809	-0.338997
C41	C	-3.963144	-0.663189	-0.164755
N42	N	-3.840603	-0.674973	-0.052061
H43	H	-4.295818	-0.674380	-0.314281
C44	C	-4.287283	-0.523177	-0.317450
N45	N	-4.440231	-0.502968	-0.318991
C46	C	-4.170532	-0.553833	-0.742551
N47	N	-4.130946	-0.537782	-0.847539
H48	H	-4.443484	-0.699642	-0.608018
