data_functionalizedCrystal
_audit_creation_method	'MofGen! by Chris Wilmer'
_symmetry_space_group_name_H-M	'P1'
_symmetry_Int_Tables_number	1
_symmetry_cell_setting	triclinic
loop_
_symmetry_equiv_pos_as_xyz
  x,y,z
_cell_length_a	15.995292
_cell_length_b	17.038272
_cell_length_c	14.472310
_cell_angle_alpha	89.999298
_cell_angle_beta	89.985801
_cell_angle_gamma	87.290086
loop_
_atom_site_label
_atom_site_type_symbol
_atom_site_fract_x
_atom_site_fract_y
_atom_site_fract_z
O1	O	1.118190	0.100556	-0.076867
O2	O	0.875298	0.113048	-0.076864
O3	O	0.995300	-0.007013	-0.076858
O4	O	0.998187	0.220618	-0.076873
O5	O	0.995268	-0.007006	0.076824
O6	O	0.875265	0.113055	0.076818
O7	O	1.118157	0.100563	0.076815
Cu8	Cu	0.996708	0.106810	0.090849
Cu9	Cu	0.996747	0.106801	-0.090898
O10	O	0.998155	0.220625	0.076809
C11	C	0.844050	0.112543	-0.000022
C12	C	0.750988	0.111019	-0.000021
C13	C	0.412851	0.105415	-0.000031
C14	C	0.442336	0.192073	-0.000379
C15	C	0.539129	0.193720	-0.000029
C16	C	0.580605	0.108196	-0.000026
C17	C	0.548398	0.064875	0.087733
C18	C	0.451533	0.063832	0.087803
C19	C	0.451589	0.062055	-0.086962
C20	C	0.548310	0.065266	-0.088118
C21	C	0.675412	0.109763	-0.000021
C22	C	0.318043	0.103846	-0.000030
C23	C	0.992658	-0.036138	-0.000017
C24	C	0.984824	-0.122932	-0.000017
C25	C	1.056753	-0.173042	-0.000017
C26	C	1.049387	-0.254593	-0.000026
C27	C	0.970090	-0.286032	-0.000028
C28	C	0.898155	-0.235915	-0.000031
C29	C	0.905522	-0.154365	-0.000029
C30	C	0.944064	-0.531791	-0.000040
C31	C	0.936702	-0.613347	-0.000040
C32	C	1.087934	-0.632019	-0.000037
C33	C	1.095294	-0.550468	-0.000029
C34	C	1.023359	-0.500358	-0.000037
C35	C	0.962559	-0.369390	-0.000034
C36	C	1.030892	-0.417001	-0.000037
C37	C	1.149405	0.101068	-0.000029
C38	C	1.242467	0.102592	-0.000036
C39	C	1.000797	0.249749	-0.000034
C40	C	1.008632	0.336543	-0.000040
N41	N	0.996687	0.106815	0.218680
N42	N	0.996774	0.106790	-0.218729
C43	C	0.996745	0.106798	0.592771
C44	C	0.932289	0.170825	0.553602
C45	C	0.932464	0.171059	0.446514
C46	C	0.996716	0.106807	0.407180
C47	C	1.085351	0.124607	0.446014
C48	C	1.084995	0.125063	0.553136
C49	C	0.973333	0.024780	0.553306
C50	C	0.971369	0.025328	0.446179
C51	C	0.996705	0.106810	0.302292
C52	C	0.996763	0.106797	0.697659
H53	H	0.570586	0.094965	0.153042
F54	F	0.417120	0.097466	-0.173905
F55	F	1.141152	-0.139591	-0.000006
H56	H	0.575782	0.001942	0.090999
F57	F	0.567176	0.238063	-0.082257
H58	H	0.897995	-0.394996	-0.000034
H59	H	1.134703	0.079213	0.420533
F60	F	0.575565	0.106473	-0.172981
F61	F	1.115282	-0.383540	-0.000040
H62	H	1.104739	0.184877	0.578107
H63	H	1.159866	-0.524877	-0.000027
H64	H	1.105416	0.183740	0.419173
H65	H	0.432456	0.000295	0.091792
H66	H	0.866768	0.160456	0.420260
H67	H	0.947664	0.231347	0.580508
F68	F	0.846154	0.157186	0.587293
F69	F	0.585588	-0.016330	-0.095042
H70	H	0.909789	0.007659	0.580376
H71	H	0.846949	-0.113565	-0.000029
H72	H	1.146499	-0.672827	-0.000032
F73	F	0.886107	0.007668	0.413007
F74	F	1.034683	-0.037498	0.586412
H75	H	0.416733	0.225471	-0.063316
F76	F	1.028168	-0.039867	0.411197
F77	F	0.427365	-0.021318	-0.087733
F78	F	0.952769	0.250620	0.412999
F79	F	1.149899	0.066365	0.587003
F80	F	1.125945	-0.307921	-0.000024
F81	F	0.813761	-0.269376	-0.000043
F82	F	0.852300	-0.646804	-0.000037
H83	H	0.885489	-0.491001	-0.000046
H84	H	0.415670	0.225292	0.062199
F85	F	0.419254	0.103057	0.173545
F86	F	0.566348	0.238335	0.082337
