data_functionalizedCrystal
_audit_creation_method	'MofGen! by Chris Wilmer'
_symmetry_space_group_name_H-M	'P1'
_symmetry_Int_Tables_number	1
_symmetry_cell_setting	triclinic
loop_
_symmetry_equiv_pos_as_xyz
  x,y,z
_cell_length_a	19.188930
_cell_length_b	19.188930
_cell_length_c	13.330367
_cell_angle_alpha	89.990231
_cell_angle_beta	89.978569
_cell_angle_gamma	83.144779
loop_
_atom_site_label
_atom_site_type_symbol
_atom_site_fract_x
_atom_site_fract_y
_atom_site_fract_z
O1	O	0.926148	0.087167	-0.083757
O2	O	1.426148	0.587167	0.416243
O3	O	0.722837	0.098901	-0.083690
O4	O	1.222837	0.598901	0.416310
O5	O	0.830359	-0.008621	-0.083706
O6	O	1.330359	0.491379	0.416294
O7	O	0.818625	0.194690	-0.083741
O8	O	1.318625	0.694690	0.416259
O9	O	0.830344	-0.008624	0.083141
O10	O	1.330344	0.491376	0.583141
O11	O	0.722821	0.098899	0.083157
O12	O	1.222821	0.598899	0.583157
O13	O	0.926132	0.087165	0.083090
O14	O	1.426132	0.587165	0.583090
Cu15	Cu	0.824475	0.093032	0.098358
Cu16	Cu	1.324475	0.593032	0.598358
Cu17	Cu	0.824494	0.093034	-0.098958
Cu18	Cu	1.324494	0.593034	0.401042
O19	O	0.818610	0.194688	0.083106
O20	O	1.318610	0.694688	0.583106
C21	C	0.696818	0.098520	-0.000257
C22	C	1.196818	0.598520	0.499743
C23	C	0.619313	0.097380	-0.000231
C24	C	1.119313	0.597380	0.499769
C25	C	0.574389	0.160470	-0.000258
C26	C	1.074389	0.660470	0.499742
C27	C	0.501566	0.159399	-0.000268
C28	C	1.001566	0.659399	0.499732
C29	C	0.473669	0.095233	-0.000273
C30	C	0.973669	0.595233	0.499727
C31	C	0.518603	0.032133	-0.000240
C32	C	1.018603	0.532133	0.499760
C33	C	0.591425	0.033207	-0.000219
C34	C	1.091425	0.533207	0.499781
N35	N	0.365694	0.046186	-0.057090
N36	N	0.865694	0.546186	0.442910
N37	N	0.296516	0.045171	-0.057112
N38	N	0.796516	0.545171	0.442888
C39	C	0.254260	0.091994	-0.000334
C40	C	0.754260	0.591994	0.499666
N41	N	0.283796	0.139882	0.056455
N42	N	0.783796	0.639882	0.556455
N43	N	0.352981	0.140900	0.056473
N44	N	0.852981	0.640900	0.556473
C45	C	0.394707	0.094062	-0.000295
C46	C	0.894707	0.594062	0.499705
C47	C	0.130372	0.153928	-0.000371
C48	C	0.630372	0.653928	0.499629
C49	C	0.057547	0.152853	-0.000375
C50	C	0.557547	0.652853	0.499625
C51	C	0.074586	0.025586	-0.000357
C52	C	0.574586	0.525586	0.499643
C53	C	0.147409	0.026662	-0.000342
C54	C	0.647409	0.526662	0.499658
C55	C	0.175298	0.090835	-0.000354
C56	C	0.675298	0.590835	0.499646
C57	C	0.829972	-0.034634	-0.000279
C58	C	1.329972	0.465366	0.499721
C59	C	0.828831	-0.112138	-0.000270
C60	C	1.328831	0.387862	0.499730
C61	C	0.891922	-0.157062	-0.000286
C62	C	1.391922	0.342938	0.499714
C63	C	0.890850	-0.229886	-0.000302
C64	C	1.390850	0.270114	0.499698
C65	C	0.826684	-0.257782	-0.000282
C66	C	1.326684	0.242218	0.499718
C67	C	0.763585	-0.212849	-0.000271
C68	C	1.263585	0.287151	0.499729
C69	C	0.764658	-0.140026	-0.000266
C70	C	1.264658	0.359974	0.499734
N71	N	0.777631	-0.365788	0.056516
N72	N	1.277631	0.134212	0.556516
N73	N	0.776616	-0.434967	0.056513
N74	N	1.276616	0.065033	0.556513
C75	C	0.823446	-0.477191	-0.000301
C76	C	1.323446	0.022809	0.499699
N77	N	0.871340	-0.447625	-0.057098
N78	N	1.371340	0.052375	0.442902
N79	N	0.872358	-0.378440	-0.057091
N80	N	1.372358	0.121560	0.442909
C81	C	0.825513	-0.336745	-0.000288
C82	C	1.325513	0.163255	0.499712
C83	C	0.885379	-0.601079	-0.000335
C84	C	1.385379	-0.101079	0.499665
C85	C	0.884305	-0.673904	-0.000357
C86	C	1.384305	-0.173904	0.499643
C87	C	0.757038	-0.656865	-0.000316
C88	C	1.257038	-0.156865	0.499684
C89	C	0.758114	-0.584042	-0.000304
C90	C	1.258114	-0.084042	0.499696
C91	C	0.822286	-0.556154	-0.000309
C92	C	1.322286	-0.056154	0.499691
C93	C	0.952151	0.087546	-0.000345
C94	C	1.452151	0.587546	0.499655
C95	C	1.029656	0.088687	-0.000378
C96	C	1.529656	0.588687	0.499622
C97	C	0.818997	0.220700	-0.000323
C98	C	1.318997	0.720700	0.499677
C99	C	0.820138	0.298204	-0.000338
C100	C	1.320138	0.798204	0.499662
N101	N	0.824468	0.093029	0.237140
N102	N	1.324468	0.593029	0.737140
N103	N	0.824507	0.093031	-0.237740
N104	N	1.324507	0.593031	0.262260
C105	C	0.776881	0.140627	0.709770
C106	C	1.276881	0.640627	1.209770
C107	C	0.872126	0.045436	0.709723
C108	C	1.372126	0.545436	1.209723
C109	C	0.872118	0.045434	0.604705
C110	C	1.372118	0.545434	1.104705
C111	C	0.824491	0.093030	0.552214
C112	C	1.324491	0.593030	1.052214
C113	C	0.776873	0.140628	0.604741
C114	C	1.276873	0.640628	1.104741
C115	C	0.919740	-0.002158	0.552170
C116	C	1.419740	0.497842	1.052170
C117	C	0.919735	-0.002161	0.447145
C118	C	1.419735	0.497839	0.947145
C119	C	0.872104	0.045432	0.394652
C120	C	1.372104	0.545432	0.894652
C121	C	0.824483	0.093031	0.447186
C122	C	1.324483	0.593031	0.947186
C123	C	0.776857	0.140626	0.394695
C124	C	1.276857	0.640626	0.894695
C125	C	0.729232	0.188223	0.447227
C126	C	1.229232	0.688223	0.947227
C127	C	0.729242	0.188221	0.552249
C128	C	1.229242	0.688221	1.052249
C129	C	0.872094	0.045434	0.289631
C130	C	1.372094	0.545434	0.789631
C131	C	0.776849	0.140627	0.289667
C132	C	1.276849	0.640627	0.789667
H133	H	0.464982	0.210776	-0.000287
H134	H	0.964982	0.710776	0.499713
H135	H	0.628003	-0.018171	-0.000198
H136	H	1.128003	0.481829	0.499802
Cl137	Cl	0.932001	-0.014391	0.775709
Cl138	Cl	1.432001	0.485609	1.275709
Cl139	Cl	0.966051	-0.566016	-0.000336
Cl140	Cl	1.466051	-0.066016	0.499664
H141	H	0.935683	-0.710481	-0.000376
H142	H	1.435683	-0.210481	0.499624
H143	H	0.958513	-0.040917	0.404380
H144	H	1.458513	0.459083	0.904380
H145	H	0.020970	0.204232	-0.000391
H146	H	0.520970	0.704232	0.499609
H147	H	0.495885	-0.020111	-0.000258
H148	H	0.995885	0.479889	0.499742
H149	H	0.597091	0.212725	-0.000269
H150	H	1.097091	0.712725	0.499731
H151	H	0.944176	-0.134360	-0.000294
H152	H	1.444176	0.365640	0.499706
Cl153	Cl	0.676371	-0.691928	-0.000296
Cl154	Cl	1.176371	-0.191928	0.499704
H155	H	0.051874	-0.026659	-0.000423
H156	H	0.551874	0.473341	0.499577
Cl157	Cl	0.970170	-0.286372	-0.000323
Cl158	Cl	1.470170	0.213628	0.499677
Cl159	Cl	0.678795	-0.527563	-0.000280
Cl160	Cl	1.178795	-0.027563	0.499720
H161	H	0.910873	0.006685	0.246864
H162	H	1.410873	0.506685	0.746864
H163	H	0.738103	0.179377	0.752544
H164	H	1.238103	0.679377	1.252544
Cl165	Cl	0.716968	0.200462	0.223687
Cl166	Cl	1.216968	0.700462	0.723687
H167	H	0.690457	0.226978	0.404477
H168	H	1.190457	0.726978	0.904477
Cl169	Cl	0.165435	0.234600	-0.000375
Cl170	Cl	0.665435	0.734600	0.499625
Cl171	Cl	0.669378	0.248053	0.618291
Cl172	Cl	1.169378	0.748053	1.118291
H173	H	0.183988	-0.024713	-0.000326
H174	H	0.683988	0.475287	0.499674
Cl175	Cl	0.682919	-0.247918	-0.000253
Cl176	Cl	1.182919	0.252082	0.499747
Cl177	Cl	0.979616	-0.061985	0.618155
Cl178	Cl	1.479616	0.438015	1.118155
H179	H	0.713281	-0.103449	-0.000252
H180	H	1.213281	0.396551	0.499748
