data_functionalizedCrystal
_audit_creation_method	'MofGen! by Chris Wilmer'
_symmetry_space_group_name_H-M	'P1'
_symmetry_Int_Tables_number	1
_symmetry_cell_setting	triclinic
loop_
_symmetry_equiv_pos_as_xyz
  x,y,z
_cell_length_a	21.295420
_cell_length_b	21.295417
_cell_length_c	15.299128
_cell_angle_alpha	99.531213
_cell_angle_beta	80.201339
_cell_angle_gamma	90.025484
loop_
_atom_site_label
_atom_site_type_symbol
_atom_site_fract_x
_atom_site_fract_y
_atom_site_fract_z
Zn1	Zn	1.024534	-0.311521	-0.509992
Zn2	Zn	1.357867	0.021813	-0.176659
Zn3	Zn	1.691200	0.355146	0.156675
Zn4	Zn	1.006048	-0.398798	-0.359147
Zn5	Zn	1.339381	-0.065465	-0.025814
Zn6	Zn	1.672714	0.267868	0.307520
Zn7	Zn	0.900870	-0.293542	-0.359172
Zn8	Zn	1.234203	0.039791	-0.025839
Zn9	Zn	1.567537	0.373124	0.307494
Zn10	Zn	0.919221	-0.416741	-0.509933
Zn11	Zn	1.252554	-0.083408	-0.176600
Zn12	Zn	1.585887	0.249925	0.156733
O13	O	0.962668	-0.355151	-0.434561
O14	O	1.296001	-0.021817	-0.101228
O15	O	1.629335	0.311516	0.232105
O16	O	1.110173	-0.323113	-0.489996
O17	O	1.443506	0.010220	-0.156663
O18	O	1.776839	0.343553	0.176670
O19	O	0.976679	-0.369803	-0.232927
O20	O	1.310013	-0.036469	0.100406
O21	O	1.643346	0.296864	0.433739
O22	O	0.917331	-0.207842	-0.379214
O23	O	1.250664	0.125491	-0.045881
O24	O	1.583998	0.458825	0.287453
O25	O	1.096591	-0.387236	-0.379171
O26	O	1.429924	-0.053902	-0.045838
O27	O	1.763258	0.279431	0.287496
O28	O	1.008186	-0.221051	-0.490021
O29	O	1.341519	0.112283	-0.156687
O30	O	1.674853	0.445616	0.176646
O31	O	0.899406	-0.292472	-0.232946
O32	O	1.232739	0.040862	0.100387
O33	O	1.566072	0.374195	0.433721
O34	O	0.815213	-0.309870	-0.379157
O35	O	1.148546	0.023463	-0.045824
O36	O	1.481880	0.356797	0.287510
O37	O	0.948607	-0.417817	-0.636164
O38	O	1.281940	-0.084483	-0.302831
O39	O	1.615274	0.248850	0.030502
O40	O	0.828695	-0.400384	-0.489921
O41	O	1.162029	-0.067050	-0.156587
O42	O	1.495362	0.266283	0.176746
O43	O	1.025980	-0.340512	-0.636207
O44	O	1.359313	-0.007178	-0.302874
O45	O	1.692647	0.326155	0.030459
O46	O	0.994473	-0.489264	-0.379114
O47	O	1.327806	-0.155930	-0.045781
O48	O	1.661140	0.177403	0.287553
O49	O	0.930682	-0.502446	-0.489896
O50	O	1.264015	-0.169113	-0.156563
O51	O	1.597348	0.164220	0.176771
C52	C	0.799113	-0.355124	-0.434536
C53	C	1.132447	-0.021790	-0.101202
C54	C	1.465780	0.311543	0.232131
C55	C	0.729146	-0.355130	-0.434546
C56	C	1.062480	-0.021796	-0.101213
C57	C	1.395813	0.311537	0.232120
C58	C	0.236775	-0.321870	-0.492375
C59	C	0.570108	0.011464	-0.159042
C60	C	0.903441	0.344797	0.174291
C61	C	0.302517	-0.321865	-0.492375
C62	C	0.635851	0.011468	-0.159042
C63	C	0.969184	0.344802	0.174292
C64	C	0.328311	-0.355172	-0.434582
C65	C	0.661645	-0.021839	-0.101249
C66	C	0.994978	0.311494	0.232084
C67	C	0.288359	-0.388500	-0.376801
C68	C	0.621692	-0.055167	-0.043468
C69	C	0.955026	0.278167	0.289865
C70	C	0.222619	-0.388509	-0.376810
C71	C	0.555952	-0.055176	-0.043476
C72	C	0.889285	0.278158	0.289857
N73	N	0.421872	-0.350497	-0.355601
N74	N	0.755206	-0.017164	-0.022268
N75	N	1.088539	0.316170	0.311065
N76	N	0.484323	-0.350485	-0.355596
N77	N	0.817657	-0.017152	-0.022263
N78	N	1.150990	0.316182	0.311070
C79	C	0.526383	-0.355148	-0.434556
C80	C	0.859716	-0.021815	-0.101222
C81	C	1.193050	0.311518	0.232111
N82	N	0.503633	-0.359812	-0.513522
N83	N	0.836966	-0.026479	-0.180189
N84	N	1.170299	0.306855	0.153145
N85	N	0.441176	-0.359821	-0.513526
N86	N	0.774509	-0.026487	-0.180193
N87	N	1.107843	0.306846	0.153140
C88	C	0.399595	-0.355167	-0.434567
C89	C	0.732928	-0.021833	-0.101234
C90	C	1.066262	0.311500	0.232099
C91	C	0.637613	-0.321821	-0.492337
C92	C	0.970946	0.011512	-0.159004
C93	C	1.304280	0.344845	0.174329
C94	C	0.703357	-0.321821	-0.492339
C95	C	1.036690	0.011512	-0.159005
C96	C	1.370023	0.344845	0.174328
C97	C	0.689196	-0.388452	-0.376757
C98	C	1.022530	-0.055119	-0.043424
C99	C	1.355863	0.278215	0.289910
C100	C	0.623455	-0.388456	-0.376764
C101	C	0.956788	-0.055123	-0.043430
C102	C	1.290121	0.278210	0.289903
C103	C	0.597667	-0.355138	-0.434552
C104	C	0.931000	-0.021804	-0.101219
C105	C	1.264333	0.311529	0.232114
C106	C	0.962582	-0.518697	-0.434516
C107	C	1.295916	-0.185364	-0.101182
C108	C	1.629249	0.147970	0.232151
C109	C	0.962607	-0.588666	-0.434526
C110	C	1.295940	-0.255333	-0.101193
C111	C	1.629273	0.078000	0.232140
C112	C	1.009897	-0.628358	-0.492264
C113	C	1.343230	-0.295025	-0.158931
C114	C	1.676564	0.038308	0.174402
C115	C	1.009922	-0.694104	-0.492287
C116	C	1.343255	-0.360770	-0.158953
C117	C	1.676589	-0.027437	0.174380
C118	C	0.962661	-0.720152	-0.434555
C119	C	1.295995	-0.386819	-0.101221
C120	C	1.629328	-0.053485	0.232112
C121	C	0.915363	-0.680452	-0.376812
C122	C	1.248696	-0.347118	-0.043479
C123	C	1.582029	-0.013785	0.289854
C124	C	0.915335	-0.614709	-0.376798
C125	C	1.248669	-0.281375	-0.043465
C126	C	1.582002	0.051958	0.289869
N127	N	0.948278	-0.813998	-0.355615
N128	N	1.281611	-0.480665	-0.022281
N129	N	1.614945	-0.147331	0.311052
N130	N	0.948308	-0.876451	-0.355631
N131	N	1.281641	-0.543118	-0.022298
N132	N	1.614975	-0.209785	0.311036
C133	C	0.962740	-0.918232	-0.434595
C134	C	1.296073	-0.584898	-0.101262
C135	C	1.629406	-0.251565	0.232071
N136	N	0.977153	-0.895200	-0.513545
N137	N	1.310486	-0.561866	-0.180212
N138	N	1.643820	-0.228533	0.153122
N139	N	0.977126	-0.832740	-0.513528
N140	N	1.310460	-0.499407	-0.180195
N141	N	1.643793	-0.166074	0.153139
C142	C	0.962685	-0.791439	-0.434564
C143	C	1.296019	-0.458105	-0.101231
C144	C	1.629352	-0.124772	0.232103
C145	C	1.010060	-1.029213	-0.492363
C146	C	1.343393	-0.695879	-0.159029
C147	C	1.676726	-0.362546	0.174304
C148	C	1.010080	-1.094959	-0.492386
C149	C	1.343414	-0.761626	-0.159053
C150	C	1.676747	-0.428293	0.174280
C151	C	0.915524	-1.081305	-0.376904
C152	C	1.248857	-0.747972	-0.043571
C153	C	1.582190	-0.414638	0.289763
C154	C	0.915500	-1.015561	-0.376888
C155	C	1.248834	-0.682227	-0.043555
C156	C	1.582167	-0.348894	0.289778
C157	C	0.962772	-0.989518	-0.434616
C158	C	1.296105	-0.656185	-0.101283
C159	C	1.629438	-0.322852	0.232050
C160	C	1.126861	-0.355178	-0.434587
C161	C	1.460195	-0.021845	-0.101254
C162	C	1.793528	0.311488	0.232079
C163	C	1.196831	-0.355190	-0.434598
C164	C	1.530164	-0.021857	-0.101265
C165	C	1.863497	0.311476	0.232068
C166	C	0.991403	-0.383171	-0.669829
C167	C	1.324736	-0.049838	-0.336496
C168	C	1.658069	0.283496	-0.003163
C169	C	1.003648	-0.395112	-0.770086
C170	C	1.336981	-0.061778	-0.436753
C171	C	1.670314	0.271555	-0.103420
C172	C	0.962774	-0.190968	-0.434627
C173	C	1.296107	0.142365	-0.101293
C174	C	1.629440	0.475698	0.232040
C175	C	0.962819	-0.121003	-0.434655
C176	C	1.296152	0.212330	-0.101321
C177	C	1.629485	0.545663	0.232012
C178	C	0.934081	-0.327194	-0.200208
C179	C	1.267415	0.006140	0.133125
C180	C	1.600748	0.339473	0.466458
C181	C	0.921959	-0.315076	-0.099952
C182	C	1.255292	0.018257	0.233381
C183	C	1.588625	0.351591	0.566715
C184	C	0.875742	-0.269420	-0.052907
C185	C	1.209076	0.063914	0.280426
C186	C	1.542409	0.397247	0.613759
C187	C	0.864353	-0.258031	0.041289
C188	C	1.197686	0.075303	0.374622
C189	C	1.531020	0.408636	0.707955
C190	C	0.899175	-0.292300	0.088450
C191	C	1.232509	0.041033	0.421783
C192	C	1.565842	0.374367	0.755116
C193	C	0.945389	-0.337960	0.041405
C194	C	1.278723	-0.004627	0.374738
C195	C	1.612056	0.328706	0.708072
C196	C	0.956783	-0.349347	-0.052800
C197	C	1.290117	-0.016014	0.280533
C198	C	1.623450	0.317320	0.613866
C199	C	0.980217	-0.372227	0.088557
C200	C	1.313550	-0.038894	0.421890
C201	C	1.646883	0.294439	0.755223
C202	C	1.026431	-0.417888	0.041512
C203	C	1.359764	-0.084554	0.374845
C204	C	1.693097	0.248779	0.708179
C205	C	1.037822	-0.429273	-0.052684
C206	C	1.371155	-0.095939	0.280649
C207	C	1.704489	0.237394	0.613983
C208	C	1.003000	-0.395003	-0.099845
C209	C	1.336333	-0.061670	0.233489
C210	C	1.669666	0.271664	0.566822
C211	C	0.968823	-0.360841	0.182762
C212	C	1.302156	-0.027507	0.516095
C213	C	1.635489	0.305826	0.849429
C214	C	1.049864	-0.440768	0.182869
C215	C	1.383197	-0.107435	0.516202
C216	C	1.716531	0.225899	0.849536
C217	C	1.061253	-0.452157	0.088673
C218	C	1.394586	-0.118824	0.422006
C219	C	1.727920	0.214510	0.755340
H220	H	0.215783	-0.294742	-0.539435
H221	H	0.549117	0.038591	-0.206102
H222	H	0.882450	0.371925	0.127231
H223	H	1.048387	-0.607157	-0.539272
H224	H	1.381720	-0.273824	-0.205939
H225	H	1.715053	0.059509	0.127394
H226	H	0.710198	-0.415577	-0.329708
H227	H	1.043531	-0.082244	0.003625
H228	H	1.376865	0.251089	0.336959
H229	H	1.012267	-0.404277	-0.176547
H230	H	1.345600	-0.070944	0.156786
H231	H	1.678933	0.262389	0.490120
H232	H	0.876994	-0.983241	-0.329868
H233	H	1.210328	-0.649907	0.003465
H234	H	1.543661	-0.316574	0.336798
C235	C	0.813517	-0.207808	0.093031
C236	C	1.146850	0.125525	0.426364
C237	C	1.480184	0.458859	0.759697
N238	N	0.775224	-0.169978	0.132003
N239	N	1.108557	0.163355	0.465337
N240	N	1.441890	0.496688	0.798670
H241	H	1.048590	-1.127277	-0.539408
H242	H	1.381924	-0.793944	-0.206075
H243	H	1.715257	-0.460610	0.127259
H244	H	1.078221	-0.468672	0.221267
H245	H	1.411554	-0.135338	0.554600
H246	H	1.744887	0.197995	0.887934
H247	H	0.735880	-0.294690	-0.539394
H248	H	1.069213	0.038643	-0.206061
H249	H	1.402546	0.371976	0.127273
H250	H	0.931195	-0.323663	0.221056
H251	H	1.264529	0.009671	0.554390
H252	H	1.597862	0.343004	0.887723
C253	C	0.837447	-0.231726	-0.104790
C254	C	1.170780	0.101608	0.228543
C255	C	1.504113	0.434941	0.561877
N256	N	0.808600	-0.203331	-0.143870
N257	N	1.141934	0.130002	0.189464
N258	N	1.475267	0.463335	0.522797
H259	H	1.075458	-0.466447	-0.090985
H260	H	1.408791	-0.133114	0.242348
H261	H	1.742124	0.200219	0.575682
H262	H	1.048427	-0.726428	-0.539315
H263	H	1.381761	-0.393095	-0.205981
H264	H	1.715094	-0.059762	0.127352
C265	C	0.863396	-0.709102	-0.313272
C266	C	1.196729	-0.375769	0.020061
C267	C	1.530063	-0.042435	0.353395
N268	N	0.824259	-0.730680	-0.265401
N269	N	1.157592	-0.397347	0.067933
N270	N	1.490926	-0.064013	0.401266
H271	H	0.590931	-0.415586	-0.329711
H272	H	0.924264	-0.082253	0.003622
H273	H	1.257598	0.251080	0.336955
C274	C	1.111991	-0.502480	0.036913
C275	C	1.445325	-0.169146	0.370246
C276	C	1.778658	0.164187	0.703579
N277	N	1.150172	-0.540418	-0.002074
N278	N	1.483505	-0.207085	0.331259
N279	N	1.816838	0.126248	0.664593
H280	H	0.876825	-0.582390	-0.329780
H281	H	1.210158	-0.249056	0.003553
H282	H	1.543492	0.084277	0.336887
H283	H	0.335045	-0.294729	-0.539423
H284	H	0.668379	0.038605	-0.206089
H285	H	1.001712	0.371938	0.127244
H286	H	0.309365	-0.415621	-0.329748
H287	H	0.642698	-0.082288	0.003585
H288	H	0.976032	0.251046	0.336918
H289	H	0.190096	-0.415644	-0.329760
H290	H	0.523429	-0.082310	0.003574
H291	H	0.856763	0.251023	0.336907
H292	H	1.048549	-1.008009	-0.539371
H293	H	1.381883	-0.674675	-0.206038
H294	H	1.715216	-0.341342	0.127295
C295	C	0.863529	-1.109956	-0.313410
C296	C	1.196862	-0.776623	0.019923
C297	C	1.530195	-0.443289	0.353257
N298	N	0.824362	-1.131540	-0.265590
N299	N	1.157695	-0.798206	0.067743
N300	N	1.491028	-0.464873	0.401077
H301	H	0.616615	-0.294691	-0.539392
H302	H	0.949949	0.038642	-0.206059
H303	H	1.283282	0.371976	0.127274
C304	C	0.886641	-0.279774	0.192068
C305	C	1.219974	0.053559	0.525402
C306	C	1.553308	0.386892	0.858735
N307	N	0.877195	-0.270341	0.270118
N308	N	1.210529	0.062993	0.603451
N309	N	1.543862	0.396326	0.936784
