data_functionalizedCrystal
_audit_creation_method	'MofGen! by Chris Wilmer'
_symmetry_space_group_name_H-M	'P1'
_symmetry_Int_Tables_number	1
_symmetry_cell_setting	triclinic
loop_
_symmetry_equiv_pos_as_xyz
  x,y,z
_cell_length_a	18.101398
_cell_length_b	18.101397
_cell_length_c	16.625539
_cell_angle_alpha	90.031854
_cell_angle_beta	90.015931
_cell_angle_gamma	90.018618
loop_
_atom_site_label
_atom_site_type_symbol
_atom_site_fract_x
_atom_site_fract_y
_atom_site_fract_z
Zn1	Zn	1.132187	-0.294865	0.455790
Zn2	Zn	1.132103	-0.418714	0.320949
Zn3	Zn	1.008343	-0.294887	0.320981
Zn4	Zn	1.008320	-0.418665	0.455749
O5	O	1.070238	-0.356783	0.388367
O6	O	1.235809	-0.311305	0.437906
O7	O	1.115660	-0.402318	0.208120
O8	O	1.024816	-0.191251	0.338894
O9	O	1.235747	-0.402296	0.338839
O10	O	1.115804	-0.191235	0.437938
O11	O	1.024734	-0.311342	0.208144
O12	O	0.904707	-0.311295	0.338855
O13	O	1.024777	-0.402213	0.568587
O14	O	0.904690	-0.402234	0.437869
O15	O	1.115782	-0.311258	0.568617
O16	O	1.115638	-0.522340	0.338800
O17	O	1.024695	-0.522304	0.437837
C18	C	0.877828	-0.356762	0.388362
C19	C	0.795514	-0.356771	0.388378
C20	C	0.644805	-0.356785	0.388377
C21	C	0.613466	-0.414090	0.450577
C22	C	0.527847	-0.414322	0.450393
C23	C	0.496423	-0.356799	0.388377
C24	C	0.527477	-0.377627	0.303298
C25	C	0.613122	-0.378035	0.303657
C26	C	0.613270	-0.278510	0.410514
C27	C	0.527620	-0.278939	0.412387
C28	C	0.412563	-0.356805	0.388372
C29	C	0.728665	-0.356780	0.388376
C30	C	1.070175	-0.549193	0.388328
C31	C	1.070215	-0.631507	0.388338
C32	C	1.070310	-0.930598	0.388412
C33	C	1.127369	-0.899265	0.325933
C34	C	1.127567	-0.813646	0.326095
C35	C	1.070263	-0.782216	0.388375
C36	C	1.091421	-0.813222	0.473363
C37	C	1.091863	-0.898867	0.473023
C38	C	0.991941	-0.899105	0.366638
C39	C	0.992328	-0.813456	0.364741
C40	C	1.070235	-0.698356	0.388359
C41	C	1.070340	-1.014458	0.388433
C42	C	1.263400	-0.356804	0.388373
C43	C	1.345714	-0.356813	0.388376
C44	C	1.070286	-0.356727	0.598676
C45	C	1.070307	-0.356704	0.688297
C46	C	1.070322	-0.163621	0.388424
C47	C	1.070358	-0.081307	0.388448
C48	C	1.070233	-0.356784	0.178876
C49	C	1.070356	-0.356599	0.089256
C50	C	1.070341	-0.356621	1.016473
C51	C	1.070329	-0.356646	0.925165
C52	C	1.070324	-0.356663	0.852388
C53	C	1.070312	-0.356687	0.761074
H54	H	0.634085	-0.401248	0.513848
H55	H	0.634894	-0.259482	0.471508
C56	C	0.500132	-0.492681	0.430545
C57	C	0.451518	-0.505776	0.355857
C58	C	0.423805	-0.584140	0.336005
C59	C	0.444706	-0.649408	0.390840
C60	C	0.493323	-0.636314	0.465533
C61	C	0.521036	-0.557951	0.485386
H62	H	0.436043	-0.457459	0.315260
H63	H	0.387815	-0.593832	0.280712
H64	H	0.424191	-0.707417	0.376144
H65	H	0.508798	-0.684631	0.506130
H66	H	0.557026	-0.548259	0.540678
H67	H	1.185103	-0.920734	0.340174
C68	C	1.169250	-0.925785	0.497932
C69	C	1.230219	-0.869352	0.517996
C70	C	1.307609	-0.896265	0.542904
C71	C	1.324031	-0.979611	0.547749
C72	C	1.263061	-1.036049	0.527685
C73	C	1.185671	-1.009136	0.502776
H74	H	1.218063	-0.807649	0.514410
H75	H	1.352742	-0.854485	0.557757
H76	H	1.381319	-0.999534	0.566187
H77	H	1.275216	-1.097752	0.531271
H78	H	1.140537	-1.050916	0.487924
H79	H	0.633074	-0.435242	0.284948
H80	H	1.052124	-0.919591	0.521178
H81	H	0.633853	-0.338080	0.255723
C82	C	0.500202	-0.257704	0.496972
C83	C	0.523257	-0.183386	0.534483
C84	C	0.495834	-0.162153	0.619067
C85	C	0.445355	-0.215238	0.666139
C86	C	0.422297	-0.289560	0.628628
C87	C	0.449720	-0.310794	0.544044
H88	H	0.560627	-0.144086	0.499637
H89	H	0.512904	-0.107134	0.646835
H90	H	0.425055	-0.199520	0.728753
H91	H	0.384927	-0.328861	0.663474
H92	H	0.432651	-0.365813	0.516276
C93	C	0.642505	-0.492003	0.430976
C94	C	0.587857	-0.554661	0.411227
C95	C	0.616899	-0.632572	0.391622
C96	C	0.700588	-0.647825	0.391766
C97	C	0.755240	-0.585165	0.411516
C98	C	0.726199	-0.507254	0.431121
H99	H	0.525901	-0.543371	0.411120
H100	H	0.576441	-0.678956	0.377002
H101	H	0.722086	-0.705499	0.377253
H102	H	0.817196	-0.596455	0.411623
H103	H	0.766657	-0.460869	0.445741
H104	H	1.051133	-0.792860	0.521166
C105	C	0.499976	-0.322978	0.238963
C106	C	0.448880	-0.258649	0.262991
C107	C	0.421377	-0.204000	0.198658
C108	C	0.444971	-0.213681	0.110295
C109	C	0.496071	-0.278012	0.086262
C110	C	0.523573	-0.332661	0.150596
H111	H	0.431411	-0.251481	0.328406
H112	H	0.383550	-0.156378	0.216449
H113	H	0.424612	-0.173226	0.062672
H114	H	0.513539	-0.285180	0.020848
H115	H	0.561401	-0.380284	0.132805
C116	C	0.498732	-0.218221	0.355682
C117	C	0.515252	-0.222304	0.264932
C118	C	0.486365	-0.161593	0.208213
C119	C	0.440958	-0.096800	0.242243
C120	C	0.424436	-0.092714	0.332997
C121	C	0.453323	-0.153425	0.389717
H122	H	0.548866	-0.270271	0.239737
H123	H	0.498596	-0.164618	0.141030
H124	H	0.419575	-0.051858	0.200256
H125	H	0.390822	-0.044748	0.358193
H126	H	0.441092	-0.150401	0.456899
C127	C	1.109713	-0.927166	0.240546
C128	C	1.034579	-0.909223	0.201743
C129	C	1.016920	-0.937131	0.116354
C130	C	1.074394	-0.982982	0.069768
C131	C	1.149534	-1.000927	0.108570
C132	C	1.167193	-0.973019	0.193959
H133	H	0.992028	-0.875280	0.236229
H134	H	0.961296	-0.923847	0.087630
H135	H	1.061322	-1.003641	0.006558
H136	H	1.192084	-1.034871	0.074084
H137	H	1.222816	-0.986303	0.222683
C138	C	0.931800	-0.784567	0.421714
C139	C	0.952174	-0.731871	0.491007
C140	C	0.891649	-0.702983	0.547988
C141	C	0.810750	-0.726793	0.535676
C142	C	0.790372	-0.779492	0.466380
C143	C	0.850898	-0.808379	0.409399
H144	H	1.012064	-0.714243	0.500123
H145	H	0.906734	-0.663972	0.599285
H146	H	0.765945	-0.705409	0.577857
H147	H	0.730483	-0.797120	0.457263
H148	H	0.835812	-0.847391	0.358101
C149	C	0.965938	-0.928357	0.284364
C150	C	1.015540	-0.981225	0.235897
C151	C	0.989548	-1.010477	0.153619
C152	C	0.913953	-0.986860	0.119808
C153	C	0.864346	-0.933989	0.168275
C154	C	0.890338	-0.904738	0.250553
H155	H	1.071504	-0.998709	0.260925
H156	H	1.026270	-1.049615	0.117740
H157	H	0.894712	-1.008514	0.058901
H158	H	0.808382	-0.916505	0.143247
H159	H	0.853616	-0.865599	0.286432
C160	C	1.167945	-0.784179	0.498705
C161	C	1.211300	-0.732369	0.442439
C162	C	1.287826	-0.703328	0.467776
C163	C	1.320997	-0.726096	0.549380
C164	C	1.277642	-0.777908	0.605652
C165	C	1.201116	-0.806949	0.580315
H166	H	1.186745	-0.715513	0.382026
H167	H	1.319920	-0.664973	0.426119
H168	H	1.377646	-0.704598	0.568136
H169	H	1.302197	-0.794765	0.666065
H170	H	1.169022	-0.845304	0.621972
C171	C	0.640653	-0.220833	0.349325
C172	C	0.691373	-0.244594	0.279616
C173	C	0.718761	-0.186923	0.218425
C174	C	0.695428	-0.105492	0.226945
C175	C	0.644706	-0.081727	0.296657
C176	C	0.617318	-0.139397	0.357848
H177	H	0.708648	-0.304878	0.273307
H178	H	0.756309	-0.204516	0.166820
H179	H	0.715702	-0.062801	0.181648
H180	H	0.627431	-0.021443	0.302966
H181	H	0.579769	-0.121804	0.409454
C182	C	0.970771	-0.786084	0.280250
C183	C	0.900425	-0.739464	0.268675
C184	C	0.878873	-0.712086	0.184184
C185	C	0.927667	-0.731328	0.111267
C186	C	0.998018	-0.777951	0.122840
C187	C	1.019570	-0.805329	0.207331
H188	H	0.864300	-0.725218	0.322654
H189	H	0.826794	-0.677573	0.175618
H190	H	0.911713	-0.711062	0.048722
H191	H	1.034143	-0.792197	0.068860
H192	H	1.071649	-0.839842	0.215897
H193	H	1.185618	-0.793104	0.340501
C194	C	1.109697	-0.785340	0.240954
C195	C	1.160150	-0.806048	0.169875
C196	C	1.142289	-0.777755	0.084724
C197	C	1.073975	-0.728754	0.070654
C198	C	1.023518	-0.708043	0.141735
C199	C	1.041379	-0.736336	0.226885
H200	H	1.210724	-0.842324	0.180289
H201	H	1.179641	-0.793087	0.032105
H202	H	1.060753	-0.707809	0.007620
H203	H	0.972944	-0.671767	0.131321
H204	H	1.004027	-0.721005	0.279504
C205	C	0.934502	-0.926483	0.428104
C206	C	0.920833	-1.009884	0.438688
C207	C	0.863401	-1.037266	0.500156
C208	C	0.819638	-0.981246	0.551039
C209	C	0.833305	-0.897840	0.540456
C210	C	0.890737	-0.870458	0.478989
H211	H	0.953231	-1.051357	0.401020
H212	H	0.853284	-1.099009	0.507990
H213	H	0.777124	-1.001516	0.596541
H214	H	0.800908	-0.856366	0.578124
H215	H	0.900855	-0.808715	0.471155
H216	H	0.506008	-0.434211	0.284270
C217	C	0.499481	-0.396778	0.535604
C218	C	0.450702	-0.453032	0.580383
C219	C	0.422343	-0.435495	0.665600
C220	C	0.442762	-0.361703	0.706039
C221	C	0.491544	-0.305443	0.661261
C222	C	0.519904	-0.322981	0.576044
H223	H	0.435584	-0.507662	0.550447
H224	H	0.386231	-0.477142	0.698748
H225	H	0.421769	-0.348720	0.769123
H226	H	0.506662	-0.250814	0.691197
H227	H	0.556015	-0.281334	0.542896
