data_functionalizedCrystal
_audit_creation_method	'MofGen! by Chris Wilmer'
_symmetry_space_group_name_H-M	'P1'
_symmetry_Int_Tables_number	1
_symmetry_cell_setting	triclinic
loop_
_symmetry_equiv_pos_as_xyz
  x,y,z
_cell_length_a	16.625545
_cell_length_b	21.395364
_cell_length_c	21.395356
_cell_angle_alpha	90.024640
_cell_angle_beta	89.974643
_cell_angle_gamma	89.976941
loop_
_atom_site_label
_atom_site_type_symbol
_atom_site_fract_x
_atom_site_fract_y
_atom_site_fract_z
Zn1	Zn	-0.321076	-0.957876	-0.354289
Zn2	Zn	0.012258	-0.624542	-0.020956
Zn3	Zn	0.345591	-0.291209	0.312378
Zn4	Zn	-0.455912	-0.957789	-0.249516
Zn5	Zn	-0.122579	-0.624456	0.083817
Zn6	Zn	0.210754	-0.291123	0.417151
Zn7	Zn	-0.321092	-0.853092	-0.249524
Zn8	Zn	0.012242	-0.519759	0.083809
Zn9	Zn	0.345575	-0.186426	0.417143
Zn10	Zn	-0.455864	-0.853069	-0.354254
Zn11	Zn	-0.122531	-0.519736	-0.020921
Zn12	Zn	0.210802	-0.186402	0.312413
O13	O	-0.388486	-0.905457	-0.301896
O14	O	-0.055153	-0.572123	0.031438
O15	O	0.278181	-0.238790	0.364771
O16	O	-0.338976	-1.045542	-0.340402
O17	O	-0.005642	-0.712209	-0.007069
O18	O	0.327691	-0.378875	0.326265
O19	O	-0.438055	-0.943874	-0.161839
O20	O	-0.104722	-0.610541	0.171494
O21	O	0.228612	-0.277208	0.504828
O22	O	-0.208257	-0.867038	-0.263439
O23	O	0.125076	-0.533704	0.069894
O24	O	0.458410	-0.200371	0.403227
O25	O	-0.438040	-1.045479	-0.263426
O26	O	-0.104706	-0.712145	0.069908
O27	O	0.228627	-0.378812	0.403241
O28	O	-0.208246	-0.944022	-0.340410
O29	O	0.125088	-0.610688	-0.007076
O30	O	0.458421	-0.277355	0.326257
O31	O	-0.339003	-0.866954	-0.161845
O32	O	-0.005669	-0.533621	0.171488
O33	O	0.327664	-0.200287	0.504822
O34	O	-0.338956	-0.765411	-0.263405
O35	O	-0.005623	-0.432078	0.069928
O36	O	0.327711	-0.098745	0.403261
O37	O	-0.437957	-0.866998	-0.441937
O38	O	-0.104624	-0.533665	-0.108603
O39	O	0.228709	-0.200332	0.224730
O40	O	-0.437973	-0.765394	-0.340350
O41	O	-0.104639	-0.432061	-0.007017
O42	O	0.228694	-0.098728	0.326317
O43	O	-0.338929	-0.943999	-0.441962
O44	O	-0.005596	-0.610666	-0.108629
O45	O	0.327738	-0.277333	0.224704
O46	O	-0.568738	-0.943852	-0.263392
O47	O	-0.235405	-0.610519	0.069942
O48	O	0.097928	-0.277185	0.403275
O49	O	-0.568703	-0.866915	-0.340342
O50	O	-0.235370	-0.533581	-0.007009
O51	O	0.097964	-0.200248	0.326324
C52	C	-0.388461	-0.742669	-0.301875
C53	C	-0.055128	-0.409336	0.031458
C54	C	0.278205	-0.076002	0.364791
C55	C	-0.388470	-0.673028	-0.301881
C56	C	-0.055137	-0.339694	0.031452
C57	C	0.278196	-0.006361	0.364785
C58	C	-0.440125	-0.171239	-0.341911
C59	C	-0.106791	0.162094	-0.008578
C60	C	0.226542	0.495428	0.324756
C61	C	-0.440126	-0.236674	-0.341905
C62	C	-0.106793	0.096659	-0.008572
C63	C	0.226540	0.429992	0.324761
C64	C	-0.388492	-0.269389	-0.301906
C65	C	-0.055158	0.063944	0.031427
C66	C	0.278175	0.397277	0.364761
C67	C	-0.336867	-0.236663	-0.261898
C68	C	-0.003533	0.096670	0.071436
C69	C	0.329800	0.430003	0.404769
C70	C	-0.336873	-0.171229	-0.261900
C71	C	-0.003539	0.162104	0.071433
C72	C	0.329794	0.495437	0.404767
C73	C	-0.315830	-0.373073	-0.297054
C74	C	0.017504	-0.039740	0.036279
C75	C	0.350837	0.293593	0.369613
C76	C	-0.315823	-0.438506	-0.297056
C77	C	0.017511	-0.105173	0.036277
C78	C	0.350844	0.228161	0.369611
C79	C	-0.388474	-0.471210	-0.301895
C80	C	-0.055141	-0.137877	0.031438
C81	C	0.278192	0.195457	0.364771
C82	C	-0.461135	-0.438473	-0.306745
C83	C	-0.127802	-0.105140	0.026588
C84	C	0.205531	0.228194	0.359921
C85	C	-0.461141	-0.373039	-0.306748
C86	C	-0.127808	-0.039706	0.026586
C87	C	0.205525	0.293628	0.359919
C88	C	-0.388480	-0.340342	-0.301899
C89	C	-0.055147	-0.007008	0.031435
C90	C	0.278187	0.326325	0.364768
C91	C	-0.440102	-0.574881	-0.341892
C92	C	-0.106768	-0.241547	-0.008559
C93	C	0.226565	0.091786	0.324775
C94	C	-0.440104	-0.640317	-0.341882
C95	C	-0.106771	-0.306984	-0.008549
C96	C	0.226562	0.026349	0.324785
C97	C	-0.336838	-0.640305	-0.261877
C98	C	-0.003504	-0.306972	0.071456
C99	C	0.329829	0.026362	0.404789
C100	C	-0.336842	-0.574870	-0.261884
C101	C	-0.003509	-0.241536	0.071449
C102	C	0.329825	0.091797	0.404783
C103	C	-0.388473	-0.542161	-0.301895
C104	C	-0.055140	-0.208828	0.031439
C105	C	0.278194	0.124505	0.364772
C106	C	-0.597977	-0.905388	-0.301876
C107	C	-0.264644	-0.572055	0.031457
C108	C	0.068690	-0.238722	0.364791
C109	C	-0.687598	-0.905417	-0.301889
C110	C	-0.354265	-0.572083	0.031445
C111	C	-0.020931	-0.238750	0.364778
C112	C	-0.760380	-0.905441	-0.301901
C113	C	-0.427047	-0.572108	0.031432
C114	C	-0.093714	-0.238774	0.364766
C115	C	-0.851689	-0.905477	-0.301915
C116	C	-0.518356	-0.572144	0.031419
C117	C	-0.185022	-0.238811	0.364752
C118	C	-0.924465	-0.905510	-0.301923
C119	C	-0.591132	-0.572177	0.031411
C120	C	-0.257799	-0.238843	0.364744
C121	C	-1.015780	-0.905546	-0.301936
C122	C	-0.682446	-0.572212	0.031398
C123	C	-0.349113	-0.238879	0.364731
C124	C	-0.178177	-0.905542	-0.301929
C125	C	0.155156	-0.572209	0.031404
C126	C	0.488490	-0.238875	0.364737
C127	C	-0.088556	-0.905578	-0.301944
C128	C	0.244777	-0.572245	0.031390
C129	C	0.578111	-0.238912	0.364723
C130	C	-0.388436	-0.905506	-0.465319
C131	C	-0.055103	-0.572172	-0.131986
C132	C	0.278231	-0.238839	0.201348
C133	C	-0.388415	-0.905527	-0.534960
C134	C	-0.055081	-0.572193	-0.201627
C135	C	0.278252	-0.238860	0.131706
C136	C	-0.388507	-0.068880	-0.301913
C137	C	-0.055173	0.264454	0.031420
C138	C	0.278160	0.597787	0.364754
C139	C	-0.388503	-0.138521	-0.301910
C140	C	-0.055170	0.194812	0.031423
C141	C	0.278163	0.528146	0.364756
C142	C	-0.336832	-0.865485	-0.567667
C143	C	-0.003499	-0.532152	-0.234333
C144	C	0.329834	-0.198818	0.099000
C145	C	-0.336818	-0.865483	-0.633102
C146	C	-0.003484	-0.532150	-0.299769
C147	C	0.329849	-0.198816	0.033565
C148	C	-0.388376	-0.905534	-0.665829
C149	C	-0.055043	-0.572200	-0.332495
C150	C	0.278290	-0.238867	0.000838
C151	C	-0.439969	-0.945578	-0.633115
C152	C	-0.106635	-0.612245	-0.299781
C153	C	0.226698	-0.278912	0.033552
C154	C	-0.439988	-0.945575	-0.567680
C155	C	-0.106655	-0.612241	-0.234347
C156	C	0.226679	-0.278908	0.098986
C157	C	-0.394719	-0.961986	-0.769516
C158	C	-0.061385	-0.628653	-0.436183
C159	C	0.271948	-0.295319	-0.102850
C160	C	-0.394694	-0.961991	-0.834949
C161	C	-0.061361	-0.628657	-0.501616
C162	C	0.271973	-0.295324	-0.168283
C163	C	-0.388322	-0.905544	-0.867650
C164	C	-0.054989	-0.572211	-0.534316
C165	C	0.278345	-0.238877	-0.200983
C166	C	-0.381958	-0.849091	-0.834909
C167	C	-0.048625	-0.515758	-0.501576
C168	C	0.284709	-0.182425	-0.168242
C169	C	-0.381977	-0.849088	-0.769475
C170	C	-0.048644	-0.515754	-0.436141
C171	C	0.284690	-0.182421	-0.102808
C172	C	-0.388362	-0.905542	-0.736781
C173	C	-0.055028	-0.572208	-0.403448
C174	C	0.278305	-0.238875	-0.070114
C175	C	-0.336721	-0.865497	-0.971309
C176	C	-0.003387	-0.532163	-0.637975
C177	C	0.329946	-0.198830	-0.304642
C178	C	-0.336711	-0.865493	-1.036745
C179	C	-0.003378	-0.532160	-0.703412
C180	C	0.329955	-0.198827	-0.370078
C181	C	-0.439858	-0.945594	-1.036756
C182	C	-0.106525	-0.612261	-0.703423
C183	C	0.226808	-0.278928	-0.370090
C184	C	-0.439872	-0.945592	-0.971321
C185	C	-0.106539	-0.612259	-0.637988
C186	C	0.226795	-0.278925	-0.304654
C187	C	-0.388299	-0.905544	-0.938601
C188	C	-0.054965	-0.572211	-0.605268
C189	C	0.278368	-0.238877	-0.271934
C190	C	-0.388478	-0.905444	-0.139108
C191	C	-0.055144	-0.572110	0.194225
C192	C	0.278189	-0.238777	0.527559
C193	C	-0.388272	-0.905544	-0.069467
C194	C	-0.054938	-0.572211	0.263866
C195	C	0.278395	-0.238877	0.597199
H196	H	-0.482144	-0.548248	-0.374470
H197	H	-0.148810	-0.214915	-0.041137
H198	H	0.184523	0.118418	0.292197
N199	N	-0.495808	-0.271972	-0.385050
N200	N	-0.162474	0.061362	-0.051717
N201	N	0.170859	0.394695	0.281616
H202	H	-0.483354	-0.260611	-0.429834
H203	H	-0.150021	0.072723	-0.096501
H204	H	0.183312	0.406056	0.236833
H205	H	-0.487941	-0.318376	-0.378923
H206	H	-0.154608	0.014958	-0.045590
H207	H	0.178725	0.348291	0.287744
N208	N	-0.401598	-1.022867	-0.734243
N209	N	-0.068265	-0.689534	-0.400909
N210	N	0.265068	-0.356201	-0.067576
H211	H	-0.453781	-1.044166	-0.745629
H212	H	-0.120447	-0.710833	-0.412296
H213	H	0.212886	-0.377500	-0.078963
H214	H	-0.354938	-1.050882	-0.745657
H215	H	-0.021605	-0.717549	-0.412324
H216	H	0.311728	-0.384215	-0.078990
H217	H	-0.376797	-0.803122	-0.742820
H218	H	-0.043464	-0.469789	-0.409487
H219	H	0.289870	-0.136455	-0.076153
N220	N	-0.281182	-0.822293	-0.668389
N221	N	0.052152	-0.488960	-0.335056
N222	N	0.385485	-0.155626	-0.001722
H223	H	-0.248515	-0.796922	-0.637732
H224	H	0.084819	-0.463589	-0.304399
H225	H	0.418152	-0.130255	0.028935
H226	H	-0.243868	-0.847819	-0.695553
H227	H	0.089465	-0.514486	-0.362220
H228	H	0.422798	-0.181152	-0.028886
N229	N	-0.281134	-0.675583	-0.218744
N230	N	0.052199	-0.342250	0.114590
N231	N	0.385532	-0.008916	0.447923
H232	H	-0.248426	-0.644924	-0.193407
H233	H	0.084907	-0.311590	0.139926
H234	H	0.418240	0.021743	0.473260
H235	H	-0.313897	-0.702713	-0.189701
H236	H	0.019436	-0.369379	0.143633
H237	H	0.352769	-0.036046	0.476966
N238	N	-0.495586	-0.988771	-0.668408
N239	N	-0.162253	-0.655438	-0.335074
N240	N	0.171080	-0.322105	-0.001741
H241	H	-0.487747	-0.982698	-0.714824
H242	H	-0.154414	-0.649365	-0.381490
H243	H	0.178919	-0.316032	-0.048157
H244	H	-0.483053	-1.033525	-0.656990
H245	H	-0.149720	-0.700191	-0.323656
H246	H	0.183613	-0.366858	0.009677
H247	H	-0.376764	-0.803127	-0.861532
H248	H	-0.043430	-0.469794	-0.528199
H249	H	0.289903	-0.136461	-0.194865
N250	N	-0.281162	-0.539576	-0.218742
N251	N	0.052171	-0.206243	0.114591
N252	N	0.385505	0.127091	0.447925
H253	H	-0.248451	-0.570228	-0.193401
H254	H	0.084882	-0.236894	0.139933
H255	H	0.418216	0.096439	0.473266
H256	H	-0.243892	-0.512448	-0.244297
H257	H	0.089441	-0.179115	0.089037
H258	H	0.422775	0.154219	0.422370
N259	N	-0.495495	-0.988786	-0.936035
N260	N	-0.162161	-0.655453	-0.602702
N261	N	0.171172	-0.322120	-0.269369
H262	H	-0.532863	-0.963306	-0.908870
H263	H	-0.199529	-0.629973	-0.575537
H264	H	0.133804	-0.296640	-0.242204
H265	H	-0.528104	-1.014153	-0.966730
H266	H	-0.194770	-0.680820	-0.633397
H267	H	0.138563	-0.347486	-0.300064
N268	N	-0.281188	-0.135938	-0.218756
N269	N	0.052145	0.197395	0.114577
N270	N	0.385478	0.530729	0.447910
H271	H	-0.289027	-0.089522	-0.224828
H272	H	0.044306	0.243811	0.108505
H273	H	0.377640	0.577144	0.441838
H274	H	-0.293670	-0.147351	-0.173992
H275	H	0.039664	0.185983	0.159341
H276	H	0.372997	0.519316	0.492674
N277	N	-0.281103	-0.822303	-0.936012
N278	N	0.052231	-0.488969	-0.602678
N279	N	0.385564	-0.155636	-0.269345
H280	H	-0.248427	-0.796931	-0.966663
H281	H	0.084907	-0.463598	-0.633330
H282	H	0.418240	-0.130264	-0.299997
H283	H	-0.313927	-0.793294	-0.908844
H284	H	0.019406	-0.459961	-0.575510
H285	H	0.352740	-0.126628	-0.242177
H286	H	-0.399872	-1.007958	-0.861602
H287	H	-0.066539	-0.674625	-0.528268
H288	H	0.266795	-0.341291	-0.194935
N289	N	-0.281080	-0.822299	-1.072025
N290	N	0.052254	-0.488965	-0.738692
N291	N	0.385587	-0.155632	-0.405358
H292	H	-0.248413	-0.796930	-1.041365
H293	H	0.084920	-0.463597	-0.708032
H294	H	0.418253	-0.130264	-0.374699
H295	H	-0.243766	-0.847820	-1.099193
H296	H	0.089567	-0.514487	-0.765860
H297	H	0.422901	-0.181153	-0.432526
H298	H	-0.481992	-0.978184	-0.541051
H299	H	-0.148658	-0.644851	-0.207718
H300	H	0.184675	-0.311518	0.125616
H301	H	-0.482170	-0.144612	-0.374489
H302	H	-0.148836	0.188721	-0.041155
H303	H	0.184497	0.522055	0.292178
H304	H	-0.256665	-0.346451	-0.293103
H305	H	0.076668	-0.013118	0.040231
H306	H	0.410002	0.320216	0.373564
N307	N	-0.539504	-0.337728	-0.311973
N308	N	-0.206171	-0.004395	0.021361
N309	N	0.127163	0.328938	0.354694
H310	H	-0.585531	-0.368370	-0.315037
H311	H	-0.252198	-0.035037	0.018296
H312	H	0.081135	0.298296	0.351629
H313	H	-0.546924	-0.310562	-0.273786
H314	H	-0.213591	0.022772	0.059547
H315	H	0.119743	0.356105	0.392880
N316	N	-0.281171	-0.271940	-0.218753
N317	N	0.052162	0.061394	0.114580
N318	N	0.385495	0.394727	0.447913
H319	H	-0.313887	-0.299068	-0.189674
H320	H	0.019446	0.034265	0.143659
H321	H	0.352780	0.367598	0.476992
H322	H	-0.243852	-0.299071	-0.244308
H323	H	0.089481	0.034262	0.089025
H324	H	0.422815	0.367595	0.422358
H325	H	-0.520295	-0.465099	-0.310691
H326	H	-0.186962	-0.131766	0.022643
H327	H	0.146372	0.201567	0.355976
N328	N	-0.495792	-0.675610	-0.385022
N329	N	-0.162458	-0.342276	-0.051689
N330	N	0.170875	-0.008943	0.281645
H331	H	-0.528497	-0.644957	-0.410367
H332	H	-0.195164	-0.311624	-0.077034
H333	H	0.138169	0.021709	0.256300
H334	H	-0.463016	-0.702784	-0.414057
H335	H	-0.129683	-0.369451	-0.080724
H336	H	0.203651	-0.036118	0.252610
N337	N	-0.237459	-0.473814	-0.291822
N338	N	0.095875	-0.140480	0.041511
N339	N	0.429208	0.192853	0.374844
H340	H	-0.229950	-0.500980	-0.330001
H341	H	0.103384	-0.167647	0.003332
H342	H	0.436717	0.165687	0.336666
H343	H	-0.191484	-0.443129	-0.288728
H344	H	0.141849	-0.109796	0.044605
H345	H	0.475182	0.223537	0.377938
N346	N	-0.281201	-0.822300	-0.532376
N347	N	0.052133	-0.488966	-0.199043
N348	N	0.385466	-0.155633	0.134291
H349	H	-0.248518	-0.796935	-0.563029
H350	H	0.084816	-0.463602	-0.229695
H351	H	0.418149	-0.130268	0.103638
H352	H	-0.314013	-0.793284	-0.505206
H353	H	0.019321	-0.459951	-0.171873
H354	H	0.352654	-0.126618	0.161460
N355	N	-0.495477	-0.988788	-1.072044
N356	N	-0.162143	-0.655455	-0.738711
N357	N	0.171190	-0.322122	-0.405378
H358	H	-0.487640	-0.982714	-1.118460
H359	H	-0.154307	-0.649380	-0.785127
H360	H	0.179026	-0.316047	-0.451794
H361	H	-0.482939	-1.033541	-1.060628
H362	H	-0.149606	-0.700208	-0.727294
H363	H	0.183728	-0.366875	-0.393961
