data_functionalizedCrystal
_audit_creation_method	'MofGen! by Chris Wilmer'
_symmetry_space_group_name_H-M	'P1'
_symmetry_Int_Tables_number	1
_symmetry_cell_setting	triclinic
loop_
_symmetry_equiv_pos_as_xyz
  x,y,z
_cell_length_a	14.044191
_cell_length_b	14.044190
_cell_length_c	16.176319
_cell_angle_alpha	89.988653
_cell_angle_beta	89.995217
_cell_angle_gamma	93.191777
loop_
_atom_site_label
_atom_site_type_symbol
_atom_site_fract_x
_atom_site_fract_y
_atom_site_fract_z
O1	O	1.277182	0.230203	-0.068724
O2	O	1.777182	0.730203	0.431276
O3	O	1.000510	0.221891	-0.068734
O4	O	1.500510	0.721891	0.431266
O5	O	1.134690	0.087711	-0.068713
O6	O	1.634690	0.587711	0.431287
O7	O	1.143002	0.364383	-0.068745
O8	O	1.643002	0.864383	0.431255
O9	O	1.134669	0.087700	0.068781
O10	O	1.634669	0.587700	0.568781
O11	O	1.000489	0.221880	0.068760
O12	O	1.500489	0.721880	0.568760
O13	O	1.277161	0.230192	0.068769
O14	O	1.777161	0.730192	0.568769
Cu15	Cu	1.138823	0.226035	0.081319
Cu16	Cu	1.638823	0.726035	0.581319
Cu17	Cu	1.138848	0.226048	-0.081283
Cu18	Cu	1.638848	0.726048	0.418717
O19	O	1.142981	0.364372	0.068748
O20	O	1.642981	0.864372	0.568748
C21	C	0.964877	0.218249	0.000012
C22	C	1.464877	0.718249	0.500012
C23	C	0.858734	0.207401	0.000009
C24	C	1.358734	0.707401	0.500009
C25	C	1.131043	0.052083	0.000036
C26	C	1.631043	0.552083	0.500036
C27	C	1.120195	-0.054060	0.000043
C28	C	1.620195	0.445940	0.500043
C29	C	0.613277	0.264502	0.000011
C30	C	1.113277	0.764502	0.500011
C31	C	0.664400	0.187585	0.000018
C32	C	1.164400	0.687585	0.500018
C33	C	0.772537	0.198614	0.000013
C34	C	1.272537	0.698614	0.500013
C35	C	0.505130	0.253475	0.000016
C36	C	1.005130	0.753475	0.500016
C37	C	1.177296	-0.299517	0.000013
C38	C	1.677296	0.200483	0.500013
C39	C	1.100379	-0.248394	0.000016
C40	C	1.600379	0.251606	0.500016
C41	C	1.111408	-0.140257	0.000031
C42	C	1.611408	0.359743	0.500031
C43	C	1.166269	-0.407664	-0.000002
C44	C	1.666269	0.092336	0.499998
C45	C	1.312794	0.233834	0.000022
C46	C	1.812794	0.733834	0.500022
C47	C	1.418937	0.244682	0.000020
C48	C	1.918937	0.744682	0.500020
C49	C	1.146628	0.400000	-0.000002
C50	C	1.646628	0.900000	0.499998
C51	C	1.157476	0.506143	-0.000015
C52	C	1.657476	1.006143	0.499985
N53	N	1.138813	0.226026	0.195684
N54	N	1.638813	0.726026	0.695684
N55	N	1.138865	0.226050	-0.195648
N56	N	1.638865	0.726050	0.304352
C57	C	1.198249	0.166639	0.238957
C58	C	1.698249	0.666639	0.738957
C59	C	1.198254	0.166638	0.325505
C60	C	1.698254	0.666638	0.825505
C61	C	1.138826	0.226030	0.368777
C62	C	1.638826	0.726030	0.868777
C63	C	1.079383	0.285419	0.325497
C64	C	1.579383	0.785419	0.825497
C65	C	1.079374	0.285414	0.238951
C66	C	1.579374	0.785414	0.738951
C67	C	1.079417	0.285440	0.674525
C68	C	1.579417	0.785440	1.174525
C69	C	1.079433	0.285443	0.761077
C70	C	1.579433	0.785443	1.261077
C71	C	1.198297	0.166664	0.761078
C72	C	1.698297	0.666664	1.261078
C73	C	1.198288	0.166659	0.674533
C74	C	1.698288	0.666659	1.174533
C75	C	1.138842	0.226044	0.631261
C76	C	1.638842	0.726044	1.131261
C77	C	1.138836	0.226043	0.537417
C78	C	1.638836	0.726043	1.037417
C79	C	1.138836	0.226037	0.462619
C80	C	1.638836	0.726037	0.962619
H81	H	0.626955	0.113453	-0.000031
H82	H	1.126955	0.613453	0.499969
H83	H	0.650720	0.338629	-0.000001
H84	H	1.150720	0.838629	0.499999
H85	H	1.026247	-0.285839	0.000008
H86	H	1.526247	0.214161	0.500008
H87	H	1.031016	0.333795	0.639300
H88	H	1.531016	0.833795	1.139300
C89	C	1.277440	-0.248932	0.000037
C90	C	1.777440	0.251068	0.500037
N91	N	1.352867	-0.210821	0.000062
N92	N	1.852867	0.289179	0.500062
H93	H	1.246646	0.118280	0.203731
H94	H	1.746646	0.618280	0.703731
C95	C	1.263614	0.101284	0.373101
C96	C	1.763614	0.601284	0.873101
N97	N	1.312837	0.052046	0.408951
N98	N	1.812837	0.552046	0.908951
C99	C	1.013997	0.350753	0.191351
C100	C	1.513997	0.850753	0.691351
N101	N	0.964754	0.399968	0.155500
N102	N	1.464754	0.899968	0.655500
C103	C	1.263661	0.101322	0.626938
C104	C	1.763661	0.601322	1.126938
N105	N	1.312897	0.052104	0.591092
N106	N	1.812897	0.552104	1.091092
C107	C	1.263682	0.101330	0.808685
C108	C	1.763682	0.601330	1.308685
N109	N	1.312928	0.052122	0.844541
N110	N	1.812928	0.552122	1.344541
H111	H	1.031036	0.333808	0.796307
H112	H	1.531036	0.833808	1.296307
C113	C	1.014002	0.350741	0.373099
C114	C	1.514002	0.850741	0.873099
N115	N	0.964755	0.399943	0.408953
N116	N	1.464755	0.899943	0.908953
