data_functionalizedCrystal
_audit_creation_method	'MofGen! by Chris Wilmer'
_symmetry_space_group_name_H-M	'P1'
_symmetry_Int_Tables_number	1
_symmetry_cell_setting	triclinic
loop_
_symmetry_equiv_pos_as_xyz
  x,y,z
_cell_length_a	19.288866
_cell_length_b	14.750779
_cell_length_c	19.288865
_cell_angle_alpha	102.602845
_cell_angle_beta	96.863554
_cell_angle_gamma	102.598815
loop_
_atom_site_label
_atom_site_type_symbol
_atom_site_fract_x
_atom_site_fract_y
_atom_site_fract_z
O1	O	-0.906227	0.079805	0.101764
O2	O	-0.703964	0.079816	0.113454
O3	O	-0.810944	0.079791	0.006475
O4	O	-0.799247	0.079830	0.208743
O5	O	-0.841185	-0.079866	-0.023763
O6	O	-0.734206	-0.079841	0.083216
O7	O	-0.936469	-0.079852	0.071526
Zn8	Zn	-0.840139	-0.105196	0.072570
Zn9	Zn	-0.800294	0.105160	0.112410
O10	O	-0.829489	-0.079828	0.178505
C11	C	-0.693208	-0.000012	0.097959
C12	C	-0.616104	-0.000008	0.096830
N13	N	-0.867337	-0.248758	0.045379
C14	C	-0.044056	0.087009	0.105177
C15	C	-0.116503	0.087013	0.106234
C16	C	-0.169216	-0.000016	0.090283
C17	C	-0.149480	-0.087055	0.073255
C18	C	-0.077035	-0.087057	0.072191
C19	C	-0.291172	-0.066684	0.120024
C20	C	-0.363614	-0.066679	0.121093
C21	C	-0.392662	-0.000016	0.093561
C22	C	-0.349254	0.066658	0.064973
C23	C	-0.276809	0.066657	0.063909
C24	C	-0.247773	-0.000025	0.091435
C25	C	-0.490946	0.087021	0.111730
C26	C	-0.563396	0.087022	0.112783
C27	C	-0.596371	-0.087049	0.079810
C28	C	-0.523924	-0.087047	0.078751
C29	C	-0.471214	-0.000009	0.094715
C30	C	-0.697141	-0.600537	0.215503
C31	C	-0.716205	-0.701040	0.196454
C32	C	-0.810954	-0.701025	0.101759
C33	C	-0.791896	-0.600519	0.120798
C34	C	-0.734990	-0.550283	0.177671
C35	C	-0.829745	-0.550266	0.082965
C36	C	-0.810690	-0.449769	0.102005
C37	C	-0.753787	-0.399526	0.158877
C38	C	-0.715935	-0.449786	0.196711
C39	C	-0.886655	-0.600504	0.026096
C40	C	-0.924503	-0.550250	-0.011736
C41	C	-0.905446	-0.449752	0.007300
C42	C	-0.848543	-0.399508	0.064172
C43	C	-0.943298	-0.399491	-0.030534
C44	C	-0.924243	-0.298994	-0.011494
C45	C	-0.829488	-0.299011	0.083212
C46	C	0.052776	-0.000022	0.087022
C47	C	-0.024326	-0.000019	0.088155
C48	C	-0.825689	-0.000040	-0.034521
C49	C	-0.824561	-0.000049	-0.111626
N50	N	-0.773101	0.248722	0.139595
C51	C	-0.887331	-0.000057	-0.156324
C52	C	-0.886267	-0.000042	-0.228768
C53	C	-0.822434	-0.000038	-0.256515
C54	C	-0.759656	-0.000024	-0.211807
C55	C	-0.760719	-0.000030	-0.139362
C56	C	-0.782847	-0.055959	-0.375394
C57	C	-0.781788	-0.055960	-0.447839
C58	C	-0.819151	-0.000016	-0.479957
C59	C	-0.857588	0.055916	-0.439625
C60	C	-0.858651	0.055910	-0.367181
C61	C	-0.821274	-0.000031	-0.335068
C62	C	-0.880771	-0.000006	-0.603207
C63	C	-0.879704	0.000015	-0.675651
C64	C	-0.753092	0.000023	-0.658690
C65	C	-0.754159	0.000012	-0.586245
C66	C	-0.818001	-0.000008	-0.558509
C67	C	-0.814744	0.000006	0.219501
C68	C	-0.815870	0.000021	0.296608
H69	H	-0.001144	0.157882	0.118173
H70	H	-0.372902	0.120944	0.042557
F71	F	-0.137507	0.179643	0.124353
H72	H	-0.937383	-0.000044	-0.265167
H73	H	-0.448028	0.157893	0.124727
F74	F	-0.687351	0.000016	-0.538673
H75	H	-0.241470	0.120943	0.040629
F76	F	-1.003867	-0.452967	-0.091054
F77	F	-0.964529	-0.245510	-0.051759
H78	H	-0.889946	0.101453	-0.334345
F79	F	-0.502924	-0.179675	0.060643
F80	F	-0.740883	-0.115490	-0.490757
H81	H	-0.857290	-0.741939	0.055454
H82	H	-0.939315	-0.000069	-0.133746
H83	H	-0.579457	0.157893	0.126639
H84	H	-0.783144	-0.258107	0.129518
H85	H	-0.709603	-0.000023	-0.102969
H86	H	-0.888012	0.101471	-0.465773
H87	H	-0.639290	-0.157910	0.066820
H88	H	-0.192404	-0.157915	0.060266
H89	H	-0.060974	-0.157927	0.058332
H90	H	-0.932754	-0.000017	-0.580622
H91	H	-0.669591	-0.408882	0.243017
F92	F	-0.675916	-0.754517	0.236729
F93	F	-0.733511	-0.292567	0.179143
H94	H	-0.930819	0.000014	-0.712043
F95	F	-0.409803	-0.137632	0.151526
H96	H	-0.267530	-0.120979	0.142438
F97	F	-0.685155	0.000032	-0.688214
H98	H	-0.752421	-0.101521	-0.349251
H99	H	-0.650797	-0.559632	0.261810
H100	H	-0.902169	-0.682335	0.010598
F101	F	-0.691719	-0.000013	-0.241337
H102	H	-0.970839	-0.591164	-0.058041
