data_functionalizedCrystal
_audit_creation_method	'MofGen! by Chris Wilmer'
_symmetry_space_group_name_H-M	'P1'
_symmetry_Int_Tables_number	1
_symmetry_cell_setting	triclinic
loop_
_symmetry_equiv_pos_as_xyz
  x,y,z
_cell_length_a	17.699077
_cell_length_b	17.699083
_cell_length_c	8.140239
_cell_angle_alpha	89.995596
_cell_angle_beta	89.997839
_cell_angle_gamma	83.281795
loop_
_atom_site_label
_atom_site_type_symbol
_atom_site_fract_x
_atom_site_fract_y
_atom_site_fract_z
O1	O	1.004077	0.095689	-0.136595
O2	O	0.783698	0.108146	-0.136603
O3	O	0.900114	-0.008272	-0.136584
O4	O	0.887661	0.212106	-0.136614
O5	O	0.900107	-0.008273	0.136643
O6	O	0.783691	0.108144	0.136624
O7	O	1.004070	0.095687	0.136632
Zn8	Zn	0.893880	0.101916	0.180009
Zn9	Zn	0.893888	0.101917	-0.179980
O10	O	0.887655	0.212105	0.136613
C11	C	0.755498	0.107700	0.000009
C12	C	0.671479	0.106363	0.000006
C13	C	0.632008	0.105732	0.148944
C14	C	0.553066	0.104464	0.148946
C15	C	0.513595	0.103832	0.000009
C16	C	0.553072	0.104460	-0.148941
C17	C	0.632013	0.105723	-0.148941
C18	C	0.234708	0.099367	-0.148943
C19	C	0.155761	0.098106	-0.148932
C20	C	0.155761	0.098108	0.148944
C21	C	0.234703	0.099371	0.148944
C22	C	0.274173	0.099995	-0.000004
C23	C	0.359772	0.101369	-0.000005
C24	C	0.427997	0.102464	0.000007
C25	C	0.899664	-0.036470	0.000029
C26	C	0.898326	-0.120488	0.000030
C27	C	0.966659	-0.169110	0.000035
C28	C	0.965397	-0.248054	0.000020
C29	C	0.895800	-0.278373	0.000013
C30	C	0.827461	-0.229744	0.000003
C31	C	0.828724	-0.150803	0.000006
C32	C	0.822366	-0.548107	-0.000011
C33	C	0.821108	-0.627055	-0.000009
C34	C	0.959039	-0.645358	0.000004
C35	C	0.960302	-0.566417	0.000007
C36	C	0.891963	-0.517795	-0.000012
C37	C	0.893333	-0.432196	0.000001
C38	C	0.894430	-0.363971	0.000012
C39	C	1.032271	0.096133	0.000016
C40	C	1.116289	0.097470	0.000008
C41	C	0.888104	0.240303	-0.000004
C42	C	0.889443	0.324321	-0.000016
N43	N	0.893880	0.101914	0.425691
N44	N	0.893895	0.101913	-0.425662
H45	H	0.664139	0.106253	0.270227
Cl46	Cl	0.503447	0.103685	0.336192
Cl47	Cl	0.742816	-0.089676	-0.000007
H48	H	0.123615	0.097596	0.270225
H49	H	0.266835	0.099889	0.270224
H50	H	1.014683	-0.684956	0.000011
Cl51	Cl	0.503454	0.103638	-0.336178
Cl52	Cl	0.106141	0.097310	-0.336183
Cl53	Cl	0.739968	-0.267860	-0.000027
H54	H	0.266836	0.099873	-0.270226
H55	H	0.664149	0.106238	-0.270222
Cl56	Cl	1.054157	-0.131003	0.000062
H57	H	0.764431	-0.651737	-0.000012
H58	H	0.766721	-0.508528	-0.000025
Cl59	Cl	1.051306	-0.309176	0.000032
H60	H	1.016974	-0.541735	0.000021
