data_functionalizedCrystal
_audit_creation_method	'MofGen! by Chris Wilmer'
_symmetry_space_group_name_H-M	'P1'
_symmetry_Int_Tables_number	1
_symmetry_cell_setting	triclinic
loop_
_symmetry_equiv_pos_as_xyz
  x,y,z
_cell_length_a	14.044220
_cell_length_b	14.044220
_cell_length_c	12.503572
_cell_angle_alpha	93.843168
_cell_angle_beta	86.164750
_cell_angle_gamma	93.188878
loop_
_atom_site_label
_atom_site_type_symbol
_atom_site_fract_x
_atom_site_fract_y
_atom_site_fract_z
O1	O	1.282200	0.225116	-0.089210
O2	O	1.615533	0.558450	0.244123
O3	O	1.948867	0.891783	0.577457
O4	O	1.005530	0.216809	-0.089237
O5	O	1.338863	0.550142	0.244096
O6	O	1.672197	0.883476	0.577430
O7	O	1.139712	0.082627	-0.089213
O8	O	1.473045	0.415961	0.244120
O9	O	1.806378	0.749294	0.577453
O10	O	1.148019	0.359298	-0.089234
O11	O	1.481352	0.692631	0.244100
O12	O	1.814685	1.025964	0.577433
O13	O	1.129622	0.092737	0.089427
O14	O	1.462955	0.426070	0.422760
O15	O	1.796289	0.759404	0.756093
O16	O	0.995440	0.226918	0.089403
O17	O	1.328774	0.560252	0.422736
O18	O	1.662107	0.893585	0.756070
O19	O	1.272110	0.235226	0.089430
O20	O	1.605444	0.568559	0.422763
O21	O	1.938777	0.901892	0.756097
Cu22	Cu	1.132854	0.231995	0.105728
Cu23	Cu	1.466187	0.565328	0.439061
Cu24	Cu	1.799521	0.898662	0.772395
Cu25	Cu	1.144786	0.220040	-0.105535
Cu26	Cu	1.478120	0.553373	0.227798
Cu27	Cu	1.811453	0.886706	0.561132
O28	O	1.137929	0.369407	0.089406
O29	O	1.471262	0.702741	0.422740
O30	O	1.804595	1.036074	0.756073
C31	C	0.964864	0.218228	0.000080
C32	C	1.298197	0.551561	0.333413
C33	C	1.631530	0.884895	0.666746
C34	C	0.858721	0.207383	0.000070
C35	C	1.192055	0.540716	0.333403
C36	C	1.525388	0.874049	0.666736
C37	C	0.664382	0.187558	0.000092
C38	C	0.997716	0.520891	0.333426
C39	C	1.331049	0.854224	0.666759
C40	C	0.613253	0.264472	0.000091
C41	C	0.946586	0.597805	0.333425
C42	C	1.279919	0.931139	0.666758
C43	C	0.505116	0.253441	0.000104
C44	C	0.838449	0.586775	0.333437
C45	C	1.171782	0.920108	0.666771
C46	C	0.772529	0.198587	0.000080
C47	C	1.105863	0.531921	0.333413
C48	C	1.439196	0.865254	0.666746
C49	C	1.131031	0.052060	0.000107
C50	C	1.464365	0.385394	0.333440
C51	C	1.797698	0.718727	0.666773
C52	C	1.120187	-0.054082	0.000107
C53	C	1.453520	0.279251	0.333440
C54	C	1.786853	0.612584	0.666774
C55	C	1.312777	0.233807	0.000111
C56	C	1.646110	0.567140	0.333444
C57	C	1.979444	0.900473	0.666778
C58	C	1.418920	0.244651	0.000114
C59	C	1.752253	0.577985	0.333447
C60	C	2.085586	0.911318	0.666781
C61	C	1.100361	-0.248421	0.000090
C62	C	1.433695	0.084912	0.333423
C63	C	1.767028	0.418246	0.666756
C64	C	1.177275	-0.299551	0.000094
C65	C	1.510609	0.033783	0.333427
C66	C	1.843942	0.367116	0.666761
C67	C	1.166244	-0.407687	0.000084
C68	C	1.499578	-0.074354	0.333418
C69	C	1.832911	0.258979	0.666751
C70	C	1.111391	-0.140274	0.000099
C71	C	1.444724	0.193059	0.333433
C72	C	1.778058	0.526392	0.666766
N73	N	1.124469	0.240404	0.254319
N74	N	1.457802	0.573737	0.587652
N75	N	1.791135	0.907071	0.920985
C76	C	1.146609	0.399974	0.000084
C77	C	1.479943	0.733308	0.333417
C78	C	1.813276	1.066641	0.666751
C79	C	1.157454	0.506117	0.000077
C80	C	1.490788	0.839450	0.333410
C81	C	1.824121	1.172783	0.666743
N82	N	1.153179	0.211624	-0.254126
N83	N	1.486512	0.544957	0.079208
N84	N	1.819846	0.878290	0.412541
C85	C	1.112134	0.252782	0.473432
C86	C	1.445467	0.586115	0.806765
C87	C	1.778800	0.919449	1.140098
C88	C	1.165511	0.199249	0.526768
C89	C	1.498844	0.532582	0.860102
C90	C	1.832178	0.865915	1.193435
C91	C	1.158648	0.206136	0.648690
C92	C	1.491981	0.539469	0.982024
C93	C	1.825314	0.872802	1.315357
C94	C	1.118996	0.245896	0.351499
C95	C	1.452329	0.579229	0.684832
C96	C	1.785662	0.912563	1.018165
H97	H	0.626945	0.113431	0.000104
H98	H	0.960278	0.446764	0.333437
H99	H	1.293612	0.780098	0.666770
H100	H	1.251413	-0.262115	0.000029
H101	H	1.584746	0.071218	0.333362
H102	H	1.918079	0.404551	0.666696
H103	H	0.650692	0.338605	0.000081
H104	H	0.984026	0.671938	0.333414
H105	H	1.317359	1.005272	0.666747
C106	C	1.043450	0.321688	0.535435
C107	C	1.376783	0.655022	0.868769
C108	C	1.710117	0.988355	1.202102
H109	H	1.047800	0.317342	0.610433
H110	H	1.381133	0.650676	0.943767
H111	H	1.714466	0.984009	1.277100
H112	H	0.979850	0.304996	0.517080
H113	H	1.313184	0.638329	0.850413
H114	H	1.646517	0.971662	1.183747
H115	H	1.060345	0.385248	0.517066
H116	H	1.393678	0.718581	0.850399
H117	H	1.727012	1.051915	1.183732
C118	C	1.000220	-0.298992	0.000089
C119	C	1.333554	0.034342	0.333422
C120	C	1.666887	0.367675	0.666755
H121	H	1.005851	-0.366090	0.000095
H122	H	1.339184	-0.032757	0.333428
H123	H	1.672517	0.300577	0.666762
H124	H	0.970026	-0.284571	-0.062203
H125	H	1.303359	0.048762	0.271130
H126	H	1.636692	0.382095	0.604463
H127	H	0.963008	-0.277529	0.062396
H128	H	1.296341	0.055804	0.395729
H129	H	1.629675	0.389138	0.729063
C130	C	1.234215	0.130350	0.464769
C131	C	1.567549	0.463684	0.798102
C132	C	1.900882	0.797017	1.131436
H133	H	1.266800	0.097665	0.514269
H134	H	1.600134	0.430998	0.847603
H135	H	1.933467	0.764331	1.180936
H136	H	1.279348	0.165571	0.420895
H137	H	1.612682	0.498904	0.754229
H138	H	1.946015	0.832238	1.087562
H139	H	1.198874	0.085298	0.420901
H140	H	1.532208	0.418631	0.754235
H141	H	1.865541	0.751964	1.087568
