data_functionalizedCrystal
_audit_creation_method	'MofGen! by Chris Wilmer'
_symmetry_space_group_name_H-M	'P1'
_symmetry_Int_Tables_number	1
_symmetry_cell_setting	triclinic
loop_
_symmetry_equiv_pos_as_xyz
  x,y,z
_cell_length_a	19.805407
_cell_length_b	19.805405
_cell_length_c	21.395356
_cell_angle_alpha	89.973607
_cell_angle_beta	89.975469
_cell_angle_gamma	90.026726
loop_
_atom_site_label
_atom_site_type_symbol
_atom_site_fract_x
_atom_site_fract_y
_atom_site_fract_z
Zn1	Zn	1.034767	-0.269480	-0.354283
Zn2	Zn	1.534767	0.230520	0.145717
Zn3	Zn	1.034672	-0.382668	-0.249508
Zn4	Zn	1.534672	0.117332	0.250492
Zn5	Zn	0.921572	-0.269499	-0.249518
Zn6	Zn	1.421572	0.230501	0.250482
Zn7	Zn	0.921545	-0.382633	-0.354246
Zn8	Zn	1.421545	0.117367	0.145754
O9	O	0.978139	-0.326070	-0.301889
O10	O	1.478139	0.173930	0.198111
O11	O	1.129471	-0.284502	-0.340395
O12	O	1.629471	0.215498	0.159605
O13	O	1.019640	-0.367679	-0.161831
O14	O	1.519640	0.132321	0.338169
O15	O	0.936639	-0.174780	-0.263435
O16	O	1.436639	0.325220	0.236565
O17	O	1.129401	-0.367661	-0.263417
O18	O	1.629401	0.132339	0.236583
O19	O	1.019803	-0.174766	-0.340405
O20	O	1.519803	0.325234	0.159595
O21	O	0.936546	-0.284533	-0.161838
O22	O	1.436546	0.215467	0.338162
O23	O	0.826852	-0.284499	-0.263399
O24	O	1.326852	0.215501	0.236601
O25	O	0.936593	-0.367600	-0.441929
O26	O	1.436593	0.132400	0.058071
O27	O	0.826832	-0.367618	-0.340343
O28	O	1.326832	0.132382	0.159657
O29	O	1.019777	-0.284468	-0.441956
O30	O	1.519777	0.215532	0.058044
O31	O	1.019614	-0.477380	-0.263382
O32	O	1.519614	0.022620	0.236618
O33	O	0.936500	-0.477354	-0.340333
O34	O	1.436500	0.022646	0.159667
C35	C	0.802283	-0.326057	-0.301868
C36	C	1.302283	0.173943	0.198132
C37	C	0.727051	-0.326068	-0.301874
C38	C	1.227051	0.173932	0.198126
C39	C	0.691714	-0.369413	-0.341874
C40	C	1.191714	0.130587	0.158126
C41	C	0.621026	-0.369414	-0.341883
C42	C	1.121026	0.130586	0.158117
C43	C	0.585675	-0.326073	-0.301889
C44	C	1.085675	0.173927	0.198111
C45	C	0.621017	-0.282723	-0.261887
C46	C	1.121017	0.217277	0.238113
C47	C	0.691704	-0.282719	-0.261882
C48	C	1.191704	0.217281	0.238118
C49	C	0.335944	-0.282738	-0.261908
C50	C	0.835944	0.217262	0.238092
C51	C	0.265252	-0.282747	-0.261915
C52	C	0.765252	0.217253	0.238085
C53	C	0.265265	-0.369433	-0.341909
C54	C	0.765265	0.130567	0.158091
C55	C	0.335952	-0.369429	-0.341904
C56	C	0.835952	0.130571	0.158096
C57	C	0.371288	-0.326077	-0.301905
C58	C	0.871288	0.173923	0.198095
C59	C	0.447936	-0.326075	-0.301897
C60	C	0.947936	0.173925	0.198103
C61	C	0.509028	-0.326078	-0.301893
C62	C	1.009028	0.173922	0.198107
C63	C	0.978062	-0.501926	-0.301866
C64	C	1.478062	-0.001926	0.198134
C65	C	0.978091	-0.577158	-0.301877
C66	C	1.478091	-0.077158	0.198123
C67	C	1.021369	-0.612437	-0.341987
C68	C	1.521369	-0.112437	0.158013
C69	C	1.021393	-0.683125	-0.341999
C70	C	1.521393	-0.183125	0.158001
C71	C	0.978143	-0.718534	-0.301897
C72	C	1.478143	-0.218534	0.198103
C73	C	0.934860	-0.683250	-0.261785
C74	C	1.434860	-0.183250	0.238215
C75	C	0.934833	-0.612563	-0.261777
C76	C	1.434833	-0.112563	0.238223
C77	C	0.934969	-0.968323	-0.261817
C78	C	1.434969	-0.468323	0.238183
C79	C	0.935001	-1.039015	-0.261827
C80	C	1.435001	-0.539015	0.238173
C81	C	1.021529	-1.038886	-0.342039
C82	C	1.521529	-0.538886	0.157961
C83	C	1.021502	-0.968199	-0.342031
C84	C	1.521502	-0.468199	0.157969
C85	C	0.978217	-0.932921	-0.301922
C86	C	1.478217	-0.432921	0.198078
C87	C	0.978190	-0.856272	-0.301910
C88	C	1.478190	-0.356272	0.198090
C89	C	0.978172	-0.795181	-0.301905
C90	C	1.478172	-0.295181	0.198095
C91	C	1.154682	-0.326083	-0.301909
C92	C	1.654682	0.173917	0.198091
C93	C	1.229914	-0.326089	-0.301918
C94	C	1.729914	0.173911	0.198082
C95	C	0.978192	-0.326028	-0.465312
C96	C	1.478192	0.173972	0.034688
C97	C	0.978215	-0.326010	-0.534953
C98	C	1.478215	0.173990	-0.034953
C99	C	0.978235	-0.149527	-0.301925
C100	C	1.478235	0.350473	0.198075
C101	C	0.978276	-0.074295	-0.301941
C102	C	1.478276	0.425705	0.198059
C103	C	0.934960	-0.282712	-0.567660
C104	C	1.434960	0.217288	-0.067660
C105	C	0.934957	-0.282699	-0.633096
C106	C	1.434957	0.217301	-0.133096
C107	C	0.978222	-0.325978	-0.665822
C108	C	1.478222	0.174022	-0.165822
C109	C	1.021481	-0.369285	-0.633107
C110	C	1.521481	0.130715	-0.133107
C111	C	1.021477	-0.369301	-0.567672
C112	C	1.521477	0.130699	-0.067672
C113	C	1.039207	-0.331299	-0.769509
C114	C	1.539207	0.168701	-0.269509
C115	C	1.039212	-0.331278	-0.834942
C116	C	1.539212	0.168722	-0.334942
C117	C	0.978234	-0.325932	-0.867642
C118	C	1.478234	0.174068	-0.367642
C119	C	0.917249	-0.320593	-0.834902
C120	C	1.417249	0.179407	-0.334902
C121	C	0.917245	-0.320609	-0.769468
C122	C	1.417245	0.179391	-0.269468
C123	C	0.978231	-0.325966	-0.736774
C124	C	1.478231	0.174034	-0.236774
C125	C	0.934972	-0.282618	-0.971302
C126	C	1.434972	0.217382	-0.471302
C127	C	0.934969	-0.282610	-1.036739
C128	C	1.434969	0.217390	-0.536739
C129	C	1.021498	-0.369192	-1.036748
C130	C	1.521498	0.130808	-0.536748
C131	C	1.021496	-0.369204	-0.971313
C132	C	1.521496	0.130796	-0.471313
C133	C	0.978233	-0.325913	-0.938594
C134	C	1.478233	0.174087	-0.438594
C135	C	0.978125	-0.326063	-0.139101
C136	C	1.478125	0.173937	0.360899
C137	C	0.978233	-0.325890	-0.069460
C138	C	1.478233	0.174110	0.430540
H139	H	0.592257	-0.404711	-0.374454
H140	H	1.092257	0.095289	0.125546
H141	H	0.899591	-0.583839	-0.229116
H142	H	1.399591	-0.083839	0.270884
H143	H	0.899740	-0.247353	-1.063368
H144	H	1.399740	0.252647	-0.563368
H145	H	1.056591	-0.583612	-0.374640
H146	H	1.556591	-0.083612	0.125360
H147	H	1.056772	-1.067617	-0.374700
H148	H	1.556772	-0.567617	0.125300
H149	H	1.056640	-0.711846	-0.374655
H150	H	1.556640	-0.211846	0.125345
H151	H	1.056727	-0.404430	-1.063393
H152	H	1.556727	0.095570	-0.563393
H153	H	1.056720	-0.404461	-0.944682
H154	H	1.556720	0.095539	-0.444682
H155	H	0.236472	-0.247449	-0.229347
H156	H	0.736472	0.252551	0.270653
H157	H	1.056723	-0.939371	-0.374683
H158	H	1.556723	-0.439371	0.125317
H159	H	0.899726	-0.939605	-0.229158
H160	H	1.399726	-0.439605	0.270842
H161	H	0.236486	-0.404730	-0.374480
H162	H	0.736486	0.095270	0.125520
H163	H	0.899730	-0.247463	-0.541024
H164	H	1.399730	0.252537	-0.041024
H165	H	0.364731	-0.404724	-0.374469
H166	H	0.864731	0.095276	0.125531
H167	H	1.088866	-0.335647	-0.742890
H168	H	1.588866	0.164353	-0.242890
H169	H	1.088869	-0.335623	-0.861594
H170	H	1.588869	0.164377	-0.361594
H171	H	1.056707	-0.404523	-0.659756
H172	H	1.556707	0.095477	-0.159756
H173	H	0.899642	-0.712085	-0.229136
H174	H	1.399642	-0.212085	0.270864
H175	H	1.056704	-0.404559	-0.541043
H176	H	1.556704	0.095441	-0.041043
H177	H	0.899778	-1.067842	-0.229170
H178	H	1.399778	-0.567842	0.270830
H179	H	0.899735	-0.247437	-0.659731
H180	H	1.399735	0.252563	-0.159731
H181	H	0.867595	-0.316235	-0.861525
H182	H	1.367595	0.183765	-0.361525
H183	H	0.720475	-0.247419	-0.229313
H184	H	1.220475	0.252581	0.270687
H185	H	0.867589	-0.316262	-0.742813
H186	H	1.367589	0.183738	-0.242813
H187	H	0.899745	-0.247368	-0.944661
H188	H	1.399745	0.252632	-0.444661
H189	H	0.364706	-0.247443	-0.229334
H190	H	0.864706	0.252557	0.270666
H191	H	0.720491	-0.404709	-0.374440
H192	H	1.220491	0.095291	0.125560
H193	H	0.592229	-0.247431	-0.229326
H194	H	1.092229	0.252569	0.270674
