data_functionalizedCrystal
_audit_creation_method	'MofGen! by Chris Wilmer'
_symmetry_space_group_name_H-M	'P1'
_symmetry_Int_Tables_number	1
_symmetry_cell_setting	triclinic
loop_
_symmetry_equiv_pos_as_xyz
  x,y,z
_cell_length_a	14.044220
_cell_length_b	13.262390
_cell_length_c	12.376774
_cell_angle_alpha	118.171381
_cell_angle_beta	101.658870
_cell_angle_gamma	88.642105
loop_
_atom_site_label
_atom_site_type_symbol
_atom_site_fract_x
_atom_site_fract_y
_atom_site_fract_z
O1	O	0.225100	1.520986	0.561640
O2	O	0.221663	1.196002	0.461725
O3	O	0.085117	1.353613	0.510171
O4	O	0.361646	1.363374	0.513194
O5	O	0.050298	1.312010	0.309373
O6	O	0.186845	1.154399	0.260927
O7	O	0.190281	1.479383	0.360842
Zn8	Zn	0.183035	1.310285	0.279004
Zn9	Zn	0.228910	1.365099	0.543563
O10	O	0.326828	1.321771	0.312396
C11	C	0.201245	1.133358	0.348462
C12	C	0.192269	1.008680	0.310130
C13	C	0.242874	0.747957	0.639916
C14	C	0.251303	0.865099	0.675933
C15	C	0.236546	0.901000	0.584485
C16	C	0.213356	0.819748	0.457014
C17	C	0.204918	0.702596	0.420994
C18	C	0.198590	0.855638	0.365563
C19	C	0.175401	0.774386	0.238093
C20	C	0.166965	0.657246	0.202079
C21	C	0.181722	0.621344	0.293526
C22	C	0.207028	0.972791	0.401584
C23	C	0.169073	0.927429	0.182662
C24	C	0.160643	0.810288	0.146645
C25	C	0.032150	1.328541	0.408458
C26	C	-0.073802	1.315802	0.404541
C27	C	-0.267788	1.292518	0.397398
C28	C	-0.320271	1.382864	0.425178
C29	C	-0.428211	1.369908	0.421204
C30	C	-0.159838	1.305472	0.401372
C31	C	0.379795	1.346844	0.414111
C32	C	0.485749	1.359584	0.418037
C33	C	0.210700	1.542027	0.474108
C34	C	0.219678	1.666706	0.512448
N35	N	0.151726	1.272884	0.098451
C36	C	0.079035	1.186029	0.012574
C37	C	0.057121	1.159837	-0.113815
C38	C	0.107891	1.220503	-0.154338
C39	C	0.180580	1.307365	-0.068459
C40	C	0.202501	1.333554	0.057941
C41	C	0.231358	1.368027	-0.108972
C42	C	0.304046	1.454890	-0.023092
C43	C	0.325964	1.481075	0.103295
C44	C	0.275193	1.420409	0.143818
C45	C	0.209437	1.341838	-0.235371
C46	C	0.332903	1.489363	-0.190005
C47	C	0.354817	1.515556	-0.063616
N48	N	0.260211	1.402508	0.724118
H49	H	0.225911	1.038936	0.505371
O50	O	0.138703	1.257597	-0.318694
C51	C	0.049090	1.285439	-0.281196
H52	H	0.051101	1.382157	-0.218932
H53	H	-0.012603	1.257021	-0.367759
H54	H	0.036307	1.239655	-0.226577
O55	O	0.273787	0.944174	0.799693
C56	C	0.278093	1.055266	0.811875
H57	H	0.233036	1.053420	0.723228
H58	H	0.247576	1.116791	0.896241
H59	H	0.357148	1.085421	0.826009
H60	H	0.174863	0.525960	0.264208
O61	O	-0.013543	1.075471	-0.197061
C62	C	-0.053645	1.027516	-0.134211
H63	H	-0.040917	1.092050	-0.030011
H64	H	-0.135341	1.005544	-0.175170
H65	H	-0.017105	0.946179	-0.146631
H66	H	-0.284123	1.469959	0.452031
O67	O	-0.310970	1.188730	0.365635
C68	C	-0.350175	1.197402	0.465687
H69	H	-0.363758	1.290553	0.526799
H70	H	-0.421962	1.141513	0.426602
H71	H	-0.296511	1.167152	0.524562
H72	H	0.243412	0.996383	0.613818
H73	H	0.414002	1.586280	0.006324
O74	O	0.086449	1.194958	-0.277143
C75	C	0.011421	1.105268	-0.344258
H76	H	-0.031889	1.102828	-0.276809
H77	H	-0.039189	1.120452	-0.418757
H78	H	0.044668	1.019998	-0.391479
H79	H	0.374249	1.538758	-0.222998
O80	O	0.029784	1.127255	0.052161
C81	C	0.064739	1.168978	0.182126
H82	H	0.099800	1.260189	0.226326
H83	H	0.001459	1.169014	0.227115
H84	H	0.121222	1.111470	0.198032
H85	H	0.293028	1.441736	0.246734
O86	O	0.257363	0.713012	0.728683
C87	C	0.335385	0.642084	0.713000
H88	H	0.384327	0.661384	0.660790
H89	H	0.379524	0.659291	0.808938
H90	H	0.305397	0.548227	0.656594
H91	H	0.385158	1.551796	0.173214
H92	H	0.141761	0.744116	0.042856
O93	O	0.144299	0.578436	0.078218
C94	C	0.053019	0.597748	0.021814
H95	H	0.037277	0.690750	0.079553
H96	H	0.054339	0.580005	-0.077395
H97	H	-0.006371	0.538107	0.017675
H98	H	0.157055	0.956658	0.108197
