data_functionalizedCrystal
_audit_creation_method	'MofGen! by Chris Wilmer'
_symmetry_space_group_name_H-M	'P1'
_symmetry_Int_Tables_number	1
_symmetry_cell_setting	triclinic
loop_
_symmetry_equiv_pos_as_xyz
  x,y,z
_cell_length_a	14.519731
_cell_length_b	15.995343
_cell_length_c	12.996460
_cell_angle_alpha	89.989133
_cell_angle_beta	89.994327
_cell_angle_gamma	83.589018
loop_
_atom_site_label
_atom_site_type_symbol
_atom_site_fract_x
_atom_site_fract_y
_atom_site_fract_z
O1	O	1.223654	0.109845	-0.085580
O2	O	1.473654	0.359845	0.164420
O3	O	1.723654	0.609845	0.414420
O4	O	1.973654	0.859845	0.664420
O5	O	0.955156	0.122752	-0.085583
O6	O	1.205156	0.372752	0.164417
O7	O	1.455156	0.622752	0.414417
O8	O	1.705156	0.872752	0.664417
O9	O	1.096748	-0.005578	-0.085562
O10	O	1.346748	0.244422	0.164438
O11	O	1.596748	0.494422	0.414438
O12	O	1.846748	0.744422	0.664438
O13	O	1.082061	0.238175	-0.085601
O14	O	1.332061	0.488175	0.164399
O15	O	1.582061	0.738175	0.414399
O16	O	1.832061	0.988175	0.664399
O17	O	1.096733	-0.005585	0.085571
O18	O	1.346733	0.244415	0.335571
O19	O	1.596733	0.494415	0.585571
O20	O	1.846733	0.744415	0.835571
O21	O	0.955141	0.122745	0.085551
O22	O	1.205141	0.372745	0.335551
O23	O	1.455141	0.622745	0.585551
O24	O	1.705141	0.872745	0.835551
O25	O	1.223639	0.109838	0.085554
O26	O	1.473639	0.359838	0.335554
O27	O	1.723639	0.609838	0.585554
O28	O	1.973639	0.859838	0.835554
Cu29	Cu	1.089389	0.116291	0.101178
Cu30	Cu	1.339389	0.366291	0.351178
Cu31	Cu	1.589389	0.616291	0.601178
Cu32	Cu	1.839389	0.866291	0.851178
Cu33	Cu	1.089406	0.116300	-0.101208
Cu34	Cu	1.339406	0.366300	0.148792
Cu35	Cu	1.589406	0.616300	0.398792
Cu36	Cu	1.839406	0.866300	0.648792
O37	O	1.082047	0.238168	0.085533
O38	O	1.332047	0.488168	0.335533
O39	O	1.582047	0.738168	0.585533
O40	O	1.832047	0.988168	0.835533
C41	C	0.920790	0.122144	-0.000016
C42	C	1.170790	0.372144	0.249984
C43	C	1.420790	0.622144	0.499984
C44	C	1.670790	0.872144	0.749984
C45	C	0.818413	0.120332	-0.000017
C46	C	1.068413	0.370332	0.249983
C47	C	1.318413	0.620332	0.499983
C48	C	1.568413	0.870332	0.749983
C49	C	0.735272	0.118859	-0.000020
C50	C	0.985272	0.368859	0.249980
C51	C	1.235272	0.618859	0.499980
C52	C	1.485272	0.868859	0.749980
C53	C	0.630966	0.117019	-0.000021
C54	C	0.880966	0.367019	0.249979
C55	C	1.130966	0.617019	0.499979
C56	C	1.380966	0.867019	0.749979
C57	C	0.547830	0.115559	-0.000020
C58	C	0.797830	0.365559	0.249980
C59	C	1.047830	0.615559	0.499980
C60	C	1.297830	0.865559	0.749980
C61	C	0.443518	0.113719	-0.000022
C62	C	0.693518	0.363719	0.249978
C63	C	0.943518	0.613719	0.499978
C64	C	1.193518	0.863719	0.749978
C65	C	1.096135	-0.036777	0.000007
C66	C	1.346135	0.213223	0.250007
C67	C	1.596135	0.463223	0.500007
C68	C	1.846135	0.713223	0.750007
C69	C	1.094318	-0.129731	0.000015
C70	C	1.344318	0.120269	0.250015
C71	C	1.594318	0.370269	0.500015
C72	C	1.844318	0.620269	0.750015
C73	C	1.091021	-0.299922	-0.000008
C74	C	1.341021	-0.049922	0.249992
C75	C	1.591021	0.200078	0.499992
C76	C	1.841021	0.450078	0.749992
C77	C	0.988813	-0.323428	-0.000012
C78	C	1.238813	-0.073428	0.249988
C79	C	1.488813	0.176572	0.499988
C80	C	1.738813	0.426572	0.749988
C81	C	0.986890	-0.420109	-0.000411
C82	C	1.236890	-0.170109	0.249589
C83	C	1.486890	0.079891	0.499589
C84	C	1.736890	0.329891	0.749589
C85	C	1.087774	-0.467487	-0.000030
C86	C	1.337774	-0.217487	0.249970
C87	C	1.587774	0.032513	0.499970
C88	C	1.837774	0.282513	0.749970
C89	C	1.139174	-0.438304	-0.097559
C90	C	1.389174	-0.188304	0.152441
C91	C	1.639174	0.061696	0.402441
C92	C	1.889174	0.311696	0.652441
C93	C	1.140386	-0.341509	-0.097629
C94	C	1.390386	-0.091509	0.152371
C95	C	1.640386	0.158491	0.402371
C96	C	1.890386	0.408491	0.652371
C97	C	1.141866	-0.341619	0.096989
C98	C	1.391866	-0.091619	0.346989
C99	C	1.641866	0.158381	0.596989
C100	C	1.891866	0.408381	0.846989
C101	C	1.138092	-0.438120	0.098259
C102	C	1.388092	-0.188120	0.348259
C103	C	1.638092	0.061880	0.598259
C104	C	1.888092	0.311880	0.848259
C105	C	1.085944	-0.562188	-0.000046
C106	C	1.335944	-0.312188	0.249954
C107	C	1.585944	-0.062188	0.499954
C108	C	1.835944	0.187812	0.749954
C109	C	1.092854	-0.205221	0.000001
C110	C	1.342854	0.044779	0.250001
C111	C	1.592854	0.294779	0.500001
C112	C	1.842854	0.544779	0.750001
C113	C	1.258005	0.110447	-0.000015
C114	C	1.508005	0.360447	0.249985
C115	C	1.758005	0.610447	0.499985
C116	C	2.008005	0.860447	0.749985
C117	C	1.360382	0.112259	-0.000022
C118	C	1.610382	0.362259	0.249978
C119	C	1.860382	0.612259	0.499978
C120	C	2.110382	0.862259	0.749978
C121	C	1.082660	0.269368	-0.000039
C122	C	1.332660	0.519368	0.249961
C123	C	1.582660	0.769368	0.499961
C124	C	1.832660	1.019368	0.749961
C125	C	1.084476	0.362321	-0.000054
C126	C	1.334476	0.612321	0.249946
C127	C	1.584476	0.862321	0.499946
C128	C	1.834476	1.112321	0.749946
N129	N	1.089383	0.116285	0.243525
N130	N	1.339383	0.366285	0.493525
N131	N	1.589383	0.616285	0.743525
N132	N	1.839383	0.866285	0.993525
N133	N	1.089419	0.116299	-0.243555
N134	N	1.339419	0.366299	0.006445
N135	N	1.589419	0.616299	0.256445
N136	N	1.839419	0.866299	0.506445
C137	C	1.089405	0.116300	0.663339
C138	C	1.339405	0.366300	0.913339
C139	C	1.589405	0.616300	1.163339
C140	C	1.839405	0.866300	1.413339
C141	C	1.089396	0.116299	0.546534
C142	C	1.339396	0.366299	0.796534
C143	C	1.589396	0.616299	1.046534
C144	C	1.839396	0.866299	1.296534
C145	C	1.089394	0.116293	0.453436
C146	C	1.339394	0.366293	0.703436
C147	C	1.589394	0.616293	0.953436
C148	C	1.839394	0.866293	1.203436
C149	C	1.089385	0.116290	0.336623
C150	C	1.339385	0.366290	0.586623
C151	C	1.589385	0.616290	0.836623
C152	C	1.839385	0.866290	1.086623
H153	H	0.946646	-0.439198	0.069481
H154	H	1.196646	-0.189198	0.319481
H155	H	1.446646	0.060802	0.569481
H156	H	1.696646	0.310802	0.819481
Cl157	Cl	1.256105	-0.318822	-0.104013
Cl158	Cl	1.506105	-0.068822	0.145987
Cl159	Cl	1.756105	0.181178	0.395987
Cl160	Cl	2.006105	0.431178	0.645987
Cl161	Cl	1.253808	-0.487288	-0.102742
Cl162	Cl	1.503808	-0.237288	0.147258
Cl163	Cl	1.753808	0.012712	0.397258
Cl164	Cl	2.003808	0.262712	0.647258
H165	H	1.211707	-0.470954	0.104442
H166	H	1.461707	-0.220954	0.354442
H167	H	1.711707	0.029046	0.604442
H168	H	1.961707	0.279046	0.854442
H169	H	0.949190	-0.295490	0.069919
H170	H	1.199190	-0.045490	0.319919
H171	H	1.449190	0.204510	0.569919
H172	H	1.699190	0.454510	0.819919
Cl173	Cl	1.080304	-0.466876	0.209662
Cl174	Cl	1.330304	-0.216876	0.459662
Cl175	Cl	1.580304	0.033124	0.709662
Cl176	Cl	1.830304	0.283124	0.959662
H177	H	0.949848	-0.294497	-0.069848
H178	H	1.199848	-0.044497	0.180152
H179	H	1.449848	0.205503	0.430152
H180	H	1.699848	0.455503	0.680152
Cl181	Cl	0.925086	-0.448665	-0.108993
Cl182	Cl	1.175086	-0.198665	0.141007
Cl183	Cl	1.425086	0.051335	0.391007
Cl184	Cl	1.675086	0.301335	0.641007
Cl185	Cl	1.092068	-0.298067	0.211163
Cl186	Cl	1.342068	-0.048067	0.461163
Cl187	Cl	1.592068	0.201933	0.711163
Cl188	Cl	1.842068	0.451933	0.961163
H189	H	1.105218	-0.314770	-0.170812
H190	H	1.355218	-0.064770	0.079188
H191	H	1.605218	0.185230	0.329188
H192	H	1.855218	0.435230	0.579188
H193	H	1.217094	-0.327481	0.097937
H194	H	1.467094	-0.077481	0.347937
H195	H	1.717094	0.172519	0.597937
H196	H	1.967094	0.422519	0.847937
Cl197	Cl	1.084746	-0.469393	-0.210053
Cl198	Cl	1.334746	-0.219393	0.039947
Cl199	Cl	1.584746	0.030607	0.289947
Cl200	Cl	1.834746	0.280607	0.539947
