data_functionalizedCrystal
_audit_creation_method	'MofGen! by Chris Wilmer'
_symmetry_space_group_name_H-M	'P1'
_symmetry_Int_Tables_number	1
_symmetry_cell_setting	triclinic
loop_
_symmetry_equiv_pos_as_xyz
  x,y,z
_cell_length_a	14.519709
_cell_length_b	14.519709
_cell_length_c	14.048226
_cell_angle_alpha	89.992623
_cell_angle_beta	89.999158
_cell_angle_gamma	83.680145
loop_
_atom_site_label
_atom_site_type_symbol
_atom_site_fract_x
_atom_site_fract_y
_atom_site_fract_z
O1	O	1.223870	0.120893	-0.079039
O2	O	0.955393	0.135130	-0.079068
O3	O	1.096750	-0.006227	-0.079044
O4	O	1.082513	0.262250	-0.079063
O5	O	1.096733	-0.006235	0.079277
O6	O	0.955376	0.135121	0.079253
O7	O	1.223853	0.120885	0.079283
Zn8	Zn	1.089612	0.128002	0.104405
Zn9	Zn	1.089634	0.128013	-0.104190
O10	O	1.082496	0.262242	0.079259
C11	C	1.096078	-0.040591	0.000117
C12	C	1.094090	-0.142972	0.000117
C13	C	0.921025	0.134462	0.000089
C14	C	0.818643	0.132474	0.000078
C15	C	1.086770	-0.517868	0.000091
C16	C	1.088803	-0.413560	0.000099
C17	C	1.090430	-0.330423	0.000105
C18	C	1.092463	-0.226109	0.000111
C19	C	0.443748	0.125154	0.000122
C20	C	0.548056	0.127187	0.000109
C21	C	0.631192	0.128814	0.000099
C22	C	0.735507	0.130847	0.000088
C23	C	1.258221	0.121553	0.000124
C24	C	1.360602	0.123541	0.000128
C25	C	1.083168	0.296605	0.000096
C26	C	1.085156	0.398987	0.000089
N27	N	1.089603	0.127994	0.246766
N28	N	1.089650	0.128014	-0.246551
C29	C	1.152216	0.065427	0.296594
C30	C	1.152222	0.065426	0.396252
C31	C	1.089619	0.127998	0.446079
C32	C	1.027000	0.190568	0.396243
C33	C	1.026990	0.190563	0.296588
C34	C	1.027027	0.190574	0.603958
C35	C	1.027038	0.190580	0.703620
C36	C	1.152258	0.065438	0.703622
C37	C	1.152248	0.065433	0.603966
C38	C	1.089630	0.128004	0.554137
H39	H	1.203198	0.014478	0.256031
C40	C	1.220100	-0.002466	0.549685
C41	C	1.276656	0.046614	0.492318
C42	C	1.339078	-0.015957	0.442252
H43	H	1.186734	-0.040825	0.510834
H44	H	1.257460	-0.039837	0.593496
H45	H	1.239301	0.083969	0.448512
H46	H	1.310043	0.084970	0.531145
H47	H	1.376438	-0.053328	0.486063
H48	H	1.305704	-0.054312	0.403407
H49	H	1.377464	0.017335	0.403329
H50	H	0.976033	0.241524	0.563390
C51	C	0.959119	0.258645	0.242534
C52	C	0.974235	0.349306	0.266734
C53	C	0.911734	0.412046	0.216951
H54	H	0.897519	0.248616	0.258835
H55	H	0.968081	0.249742	0.176038
H56	H	0.965265	0.358205	0.333216
H57	H	1.035823	0.359364	0.250430
H58	H	0.920696	0.403143	0.150455
H59	H	0.850137	0.402009	0.233256
H60	H	0.921987	0.473567	0.233357
C61	C	1.220096	-0.002609	0.757764
C62	C	1.170895	-0.059197	0.814971
C63	C	1.233356	-0.121895	0.864852
H64	H	1.258563	0.030545	0.796708
H65	H	1.257366	-0.039923	0.713843
H66	H	1.133640	-0.021888	0.858886
H67	H	1.132431	-0.092372	0.776050
H68	H	1.270627	-0.159209	0.820931
H69	H	1.271821	-0.088733	0.903791
H70	H	1.199983	-0.160303	0.903666
H71	H	0.976023	0.241512	0.436818
C72	C	0.958951	0.258540	0.757549
C73	C	0.904084	0.313310	0.692584
C74	C	0.841339	0.375911	0.742228
H75	H	0.992068	0.297102	0.796422
H76	H	0.920476	0.225285	0.796411
H77	H	0.942554	0.346562	0.653738
H78	H	0.870946	0.274773	0.653709
H79	H	0.802864	0.342656	0.781090
H80	H	0.874464	0.414466	0.781099
H81	H	0.804099	0.413074	0.698157
H82	H	1.203205	0.014479	0.436822
