data_functionalizedCrystal
_audit_creation_method	'MofGen! by Chris Wilmer'
_symmetry_space_group_name_H-M	'P1'
_symmetry_Int_Tables_number	1
_symmetry_cell_setting	triclinic
loop_
_symmetry_equiv_pos_as_xyz
  x,y,z
_cell_length_a	15.944551
_cell_length_b	9.798715
_cell_length_c	10.723024
_cell_angle_alpha	90.001978
_cell_angle_beta	96.016696
_cell_angle_gamma	90.000805
loop_
_atom_site_label
_atom_site_type_symbol
_atom_site_fract_x
_atom_site_fract_y
_atom_site_fract_z
O1	O	1.115445	-0.113345	-0.160932
O2	O	1.615445	0.386655	0.339068
O3	O	0.871009	-0.113379	-0.180773
O4	O	1.371009	0.386621	0.319227
O5	O	0.998865	-0.113356	0.010795
O6	O	1.498865	0.386644	0.510795
O7	O	0.987588	-0.113368	-0.352500
O8	O	1.487588	0.386632	0.147500
O9	O	0.998855	0.113626	0.010795
O10	O	1.498855	0.613626	0.510795
O11	O	0.870999	0.113604	-0.180773
O12	O	1.370999	0.613604	0.319227
O13	O	1.115435	0.113637	-0.160931
O14	O	1.615435	0.613637	0.339069
Zn15	Zn	0.993215	0.149659	-0.170852
Zn16	Zn	1.493215	0.649659	0.329148
Zn17	Zn	0.993228	-0.149400	-0.170853
Zn18	Zn	1.493228	0.350600	0.329147
O19	O	0.987579	0.113615	-0.352500
O20	O	1.487579	0.613615	0.147500
C21	C	0.839705	0.000108	-0.179949
C22	C	1.339705	0.500108	0.320051
C23	C	0.746445	0.000095	-0.177480
C24	C	1.246445	0.500095	0.322520
N25	N	0.993213	0.353758	-0.170851
N26	N	1.493213	0.853758	0.329149
N27	N	0.993237	-0.353500	-0.170844
N28	N	1.493237	0.146500	0.329156
C29	C	0.530875	0.000126	-0.052834
C30	C	1.030875	0.500126	0.447166
C31	C	0.470191	-0.111790	-0.110716
C32	C	0.970191	0.388210	0.389284
C33	C	0.575693	0.000112	-0.173012
C34	C	1.075693	0.500112	0.326988
C35	C	0.470204	0.111996	-0.110744
C36	C	0.970204	0.611996	0.389256
C37	C	0.410756	0.000133	-0.168688
C38	C	0.910756	0.500133	0.331312
C39	C	0.516238	-0.111897	-0.230927
C40	C	1.016238	0.388103	0.269073
C41	C	0.516257	0.111990	-0.230938
C42	C	1.016257	0.611990	0.269062
C43	C	0.455591	0.000047	-0.288907
C44	C	0.955591	0.500047	0.211093
C45	C	0.670710	0.000098	-0.175500
C46	C	1.170710	0.500098	0.324500
C47	C	0.315741	0.000137	-0.166210
C48	C	0.815741	0.500137	0.333790
C49	C	1.146738	0.000147	-0.161755
C50	C	1.646738	0.500147	0.338245
C51	C	1.239999	0.000151	-0.164225
C52	C	1.739999	0.500151	0.335775
C53	C	0.998039	0.000133	0.057284
C54	C	1.498039	0.500133	0.557284
C55	C	0.995584	0.000128	0.195808
C56	C	1.495584	0.500128	0.695808
C57	C	1.046896	0.421545	-0.090065
C58	C	1.546896	0.921545	0.409935
C59	C	1.046910	0.578707	-0.090061
C60	C	1.546910	1.078707	0.409939
C61	C	0.988404	0.000122	-0.398989
C62	C	1.488404	0.500122	0.101011
C63	C	0.990859	0.000118	-0.537512
C64	C	1.490859	0.500118	-0.037512
C65	C	1.067126	0.000136	0.271694
C66	C	1.567126	0.500136	0.771694
C67	C	1.064590	0.000131	0.414865
C68	C	1.564590	0.500131	0.914865
H69	H	0.563637	-0.000009	0.046904
H70	H	1.063637	0.499991	0.546904
H71	H	0.947277	0.588216	-0.240016
H72	H	1.447277	1.088216	0.259984
H73	H	1.125835	0.000144	0.480072
H74	H	1.625835	0.500144	0.980072
H75	H	1.092844	0.363230	-0.020899
H76	H	1.592844	0.863230	0.479101
Br77	Br	0.916614	0.450944	-0.286120
Br78	Br	1.416614	0.950944	0.213880
H79	H	0.929611	0.000121	0.397289
H80	H	1.429611	0.500121	0.897289
H81	H	0.449793	-0.206404	-0.059886
H82	H	0.949793	0.293596	0.440114
Br83	Br	1.172348	0.000136	0.203332
Br84	Br	1.672348	0.500136	0.703332
Br85	Br	0.890362	0.000094	0.264170
Br86	Br	1.390362	0.500094	0.764170
H87	H	0.536520	-0.206616	-0.281719
H88	H	1.036520	0.293384	0.218281
H89	H	0.423004	-0.000019	-0.388748
H90	H	0.923004	0.499981	0.111252
H91	H	0.449822	0.206609	-0.059891
H92	H	0.949822	0.706609	0.440109
Br93	Br	0.550292	0.269695	-0.315592
Br94	Br	1.050292	0.769695	0.184408
Br95	Br	1.123525	0.675859	0.025214
Br96	Br	1.623525	1.175859	0.525214
