data_functionalizedCrystal
_audit_creation_method	'MofGen! by Chris Wilmer'
_symmetry_space_group_name_H-M	'P1'
_symmetry_Int_Tables_number	1
_symmetry_cell_setting	triclinic
loop_
_symmetry_equiv_pos_as_xyz
  x,y,z
_cell_length_a	15.944551
_cell_length_b	19.288865
_cell_length_c	18.366186
_cell_angle_alpha	90.011479
_cell_angle_beta	90.004555
_cell_angle_gamma	83.317493
loop_
_atom_site_label
_atom_site_type_symbol
_atom_site_fract_x
_atom_site_fract_y
_atom_site_fract_z
O1	O	-1.114185	-0.089583	-0.060482
O2	O	-0.614185	0.410417	0.439518
O3	O	-0.869592	-0.100628	-0.060501
O4	O	-0.369592	0.399372	0.439499
O5	O	-0.998956	0.006006	-0.060477
O6	O	-0.498956	0.506006	0.439523
O7	O	-0.984821	-0.196217	-0.060507
O8	O	-0.484821	0.303783	0.439493
O9	O	-0.998934	0.006012	0.060622
O10	O	-0.498934	0.506012	0.560622
O11	O	-0.869570	-0.100622	0.060598
O12	O	-0.369570	0.399378	0.560598
O13	O	-1.114163	-0.089578	0.060617
O14	O	-0.614163	0.410422	0.560617
Zn15	Zn	-0.991863	-0.095099	0.079835
Zn16	Zn	-0.491863	0.404901	0.579835
Zn17	Zn	-0.991892	-0.095106	-0.079719
Zn18	Zn	-0.491892	0.404894	0.420281
O19	O	-0.984799	-0.196212	0.060593
O20	O	-0.484799	0.303788	0.560593
C21	C	-0.838289	-0.100167	0.000046
C22	C	-0.338289	0.399833	0.500046
C23	C	-0.745048	-0.098792	0.000039
C24	C	-0.245048	0.401208	0.500039
C25	C	-0.998490	0.031887	0.000075
C26	C	-0.498490	0.531887	0.500075
C27	C	-0.997125	0.108994	0.000081
C28	C	-0.497125	0.608994	0.500081
C29	C	-1.145466	-0.090039	0.000068
C30	C	-0.645466	0.409961	0.500068
C31	C	-1.238706	-0.091414	0.000070
C32	C	-0.738706	0.408586	0.500070
C33	C	-0.530459	-0.029410	0.000064
C34	C	-0.030459	0.470590	0.500064
C35	C	-0.469326	-0.061631	-0.059649
C36	C	0.030674	0.438369	0.440351
C37	C	-0.574332	-0.096305	0.000048
C38	C	-0.074332	0.403695	0.500048
C39	C	-0.469326	-0.061642	0.059745
C40	C	0.030674	0.438358	0.559745
C41	C	-0.409429	-0.093898	0.000060
C42	C	0.090571	0.406102	0.500060
C43	C	-0.514427	-0.128545	-0.059714
C44	C	-0.014427	0.371455	0.440286
C45	C	-0.514434	-0.128546	0.059734
C46	C	-0.014434	0.371454	0.559734
C47	C	-0.453318	-0.160816	0.000006
C48	C	0.046682	0.339184	0.500006
C49	C	-0.669329	-0.097690	0.000041
C50	C	-0.169329	0.402310	0.500041
C51	C	-0.314433	-0.092519	0.000062
C52	C	0.185567	0.407481	0.500062
C53	C	-0.985265	-0.222092	0.000039
C54	C	-0.485265	0.277908	0.500039
C55	C	-0.986630	-0.299199	0.000028
C56	C	-0.486630	0.200801	0.500028
N57	N	-0.991849	-0.095094	0.188726
N58	N	-0.491849	0.404906	0.688726
C59	C	-1.073030	0.153490	0.000091
C60	C	-0.573030	0.653490	0.500091
C61	C	-1.071747	0.225941	0.000079
C62	C	-0.571747	0.725941	0.500079
C63	C	-0.994555	0.253891	0.000073
C64	C	-0.494555	0.753891	0.500073
C65	C	-0.918641	0.209385	0.000059
C66	C	-0.418641	0.709385	0.500059
C67	C	-0.919925	0.136936	0.000063
C68	C	-0.419925	0.636936	0.500063
C69	C	-0.933866	0.362341	0.042486
C70	C	-0.433866	0.862341	0.542486
C71	C	-0.932584	0.434788	0.042486
C72	C	-0.432584	0.934788	0.542486
C73	C	-0.990589	0.477347	0.000056
C74	C	-0.490589	0.977347	0.500056
C75	C	-1.049890	0.447451	-0.042365
C76	C	-0.549890	0.947451	0.457635
C77	C	-1.051175	0.375003	-0.042361
C78	C	-0.551175	0.875003	0.457639
C79	C	-0.993153	0.332449	0.000067
C80	C	-0.493153	0.832449	0.500067
C81	C	-1.065108	0.600404	0.000052
C82	C	-0.565108	1.100404	0.500052
C83	C	-1.063822	0.672855	0.000036
C84	C	-0.563822	1.172855	0.500036
C85	C	-0.910714	0.656298	0.000023
C86	C	-0.410714	1.156298	0.500023
C87	C	-0.912002	0.583848	0.000032
C88	C	-0.412002	1.083848	0.500032
C89	C	-0.989201	0.555906	0.000050
C90	C	-0.489201	1.055906	0.500050
N91	N	-0.991912	-0.095106	-0.188610
N92	N	-0.491912	0.404894	0.311390
C93	C	-1.049150	-0.047900	0.226837
C94	C	-0.549150	0.452100	0.726837
C95	C	-1.049156	-0.047897	0.303065
C96	C	-0.549156	0.452103	0.803065
C97	C	-0.991868	-0.095100	0.341178
C98	C	-0.491868	0.404900	0.841178
C99	C	-0.934556	-0.142298	0.303058
C100	C	-0.434556	0.357702	0.803058
C101	C	-0.934547	-0.142295	0.226832
C102	C	-0.434547	0.357705	0.726832
C103	C	-0.980624	-0.158358	0.461929
C104	C	-0.480624	0.341642	0.961929
C105	C	-0.980639	-0.158362	0.538154
C106	C	-0.480639	0.341638	1.038154
C107	C	-0.991892	-0.095109	0.576286
C108	C	-0.491892	0.404891	1.076286
C109	C	-1.003148	-0.031849	0.538184
C110	C	-0.503148	0.468151	1.038184
C111	C	-1.003138	-0.031846	0.461957
C112	C	-0.503138	0.468154	0.961957
C113	C	-0.991871	-0.095108	0.423833
C114	C	-0.491871	0.404892	0.923833
C115	C	-1.049202	-0.047907	0.697052
C116	C	-0.549202	0.452093	1.197052
C117	C	-1.049201	-0.047903	0.773281
C118	C	-0.549201	0.452097	1.273281
C119	C	-0.934606	-0.142310	0.773273
C120	C	-0.434606	0.357690	1.273273
C121	C	-0.934603	-0.142308	0.697045
C122	C	-0.434603	0.357692	1.197045
C123	C	-0.991905	-0.095107	0.658939
C124	C	-0.491905	0.404893	1.158939
H125	H	-0.564006	0.026108	-0.000002
H126	H	-0.064006	0.526108	0.499998
H127	H	-0.534315	-0.156820	-0.110252
H128	H	-0.034315	0.343180	0.389748
N129	N	-1.109132	0.490916	-0.085723
N130	N	-0.609132	0.990916	0.414277
N131	N	-1.110501	0.482940	-0.153238
N132	N	-0.610501	0.982940	0.346762
H133	H	-1.152339	0.513640	-0.183858
H134	H	-0.652339	1.013640	0.316142
H135	H	-0.887958	-0.180741	0.804305
H136	H	-0.387958	0.319259	1.304305
N137	N	-0.444240	-0.026131	0.123068
N138	N	0.055760	0.473869	0.623068
N139	N	-0.406986	0.027066	0.116441
N140	N	0.093014	0.527066	0.616441
H141	H	-0.389269	0.052151	0.161160
H142	H	0.110731	0.552151	0.661160
H143	H	-0.887946	-0.180741	0.666013
H144	H	-0.387946	0.319259	1.166013
H145	H	-0.884294	0.459123	0.077024
H146	H	-0.384294	0.959123	0.577024
H147	H	-0.534447	-0.156815	0.110211
H148	H	-0.034447	0.343185	0.610211
N149	N	-0.969153	-0.222983	0.577059
N150	N	-0.469153	0.277017	1.077059
N151	N	-0.959098	-0.279454	0.543007
N152	N	-0.459098	0.220546	1.043007
H153	H	-0.950987	-0.325096	0.570482
H154	H	-0.450987	0.174904	1.070482
H155	H	-0.847863	0.679055	0.000014
H156	H	-0.347863	1.179055	0.500014
N157	N	-0.969137	-0.222981	0.422993
N158	N	-0.469137	0.277019	0.922993
N159	N	-0.959108	-0.279456	0.457018
N160	N	-0.459108	0.220544	0.957018
H161	H	-0.951000	-0.325095	0.429522
H162	H	-0.451000	0.174905	0.929522
H163	H	-0.886629	0.327694	0.077042
H164	H	-0.386629	0.827694	0.577042
H165	H	-0.887911	-0.180730	0.334094
H166	H	-0.387911	0.319270	0.834094
H167	H	-0.449334	-0.033339	-0.110125
H168	H	0.050666	0.466661	0.389875
N169	N	-0.876005	-0.190508	0.187909
N170	N	-0.376005	0.309492	0.687909
N171	N	-0.824853	-0.232647	0.221943
N172	N	-0.324853	0.267353	0.721943
H173	H	-0.783506	-0.266699	0.194454
H174	H	-0.283506	0.233301	0.694454
H175	H	-1.095858	-0.009471	0.666025
H176	H	-0.595858	0.490529	1.166025
H177	H	-0.419945	-0.216391	-0.000035
H178	H	0.080055	0.283609	0.499965
H179	H	-1.125636	0.709084	0.000039
H180	H	-0.625636	1.209084	0.500039
H181	H	-1.135891	0.130744	0.000103
H182	H	-0.635891	0.630744	0.500103
N183	N	-1.111750	0.344464	-0.085684
N184	N	-0.611750	0.844464	0.414316
N185	N	-1.188920	0.360913	-0.074984
N186	N	-0.688920	0.860913	0.425016
H187	H	-1.231702	0.339345	-0.105582
H188	H	-0.731702	0.839345	0.394418
N189	N	-1.149293	0.271393	0.000088
N190	N	-0.649293	0.771393	0.500088
N191	N	-1.218212	0.246435	0.000102
N192	N	-0.718212	0.746435	0.500102
H193	H	-1.272980	0.278534	0.000110
H194	H	-0.772980	0.778534	0.500110
N195	N	-1.014632	0.032760	0.423025
N196	N	-0.514632	0.532760	0.923025
N197	N	-1.075693	0.045363	0.380480
N198	N	-0.575693	0.545363	0.880480
H199	H	-1.083808	0.090991	0.352982
H200	H	-0.583808	0.590991	0.852982
N201	N	-1.143969	0.571867	0.000072
N202	N	-0.643969	1.071867	0.500072
N203	N	-1.211738	0.611608	0.000076
N204	N	-0.711738	1.111608	0.500076
H205	H	-1.267435	0.591456	0.000092
H206	H	-0.767435	1.091456	0.500092
N207	N	-0.834458	0.538402	0.000025
N208	N	-0.334458	1.038402	0.500025
N209	N	-0.765541	0.563363	0.000016
N210	N	-0.265541	1.063363	0.500016
H211	H	-0.710771	0.531267	0.000009
H212	H	-0.210771	1.031267	0.500009
H213	H	-0.855790	0.232147	0.000052
H214	H	-0.355790	0.732147	0.500052
H215	H	-1.012310	0.019658	0.569229
H216	H	-0.512310	0.519658	1.069229
N217	N	-0.842379	0.091490	0.000050
N218	N	-0.342379	0.591490	0.500050
N219	N	-0.773461	0.116451	0.000037
N220	N	-0.273461	0.616451	0.500037
H221	H	-0.718692	0.084354	0.000027
H222	H	-0.218692	0.584354	0.500027
N223	N	-1.107757	0.000259	0.187925
N224	N	-0.607757	0.500259	0.687925
N225	N	-1.158962	0.042356	0.221969
N226	N	-0.658962	0.542356	0.721969
H227	H	-1.200381	0.076347	0.194487
H228	H	-0.700381	0.576347	0.694487
H229	H	-1.095818	-0.009464	0.334101
H230	H	-0.595818	0.490536	0.834101
N231	N	-1.107735	0.000318	0.812203
N232	N	-0.607735	0.500318	1.312203
N233	N	-1.158887	0.042456	0.778167
N234	N	-0.658887	0.542456	1.278167
H235	H	-1.200228	0.076514	0.805655
H236	H	-0.700228	0.576514	1.305655
