data_functionalizedCrystal
_audit_creation_method	'MofGen! by Chris Wilmer'
_symmetry_space_group_name_H-M	'P1'
_symmetry_Int_Tables_number	1
_symmetry_cell_setting	triclinic
loop_
_symmetry_equiv_pos_as_xyz
  x,y,z
_cell_length_a	14.971486
_cell_length_b	14.971507
_cell_length_c	13.448316
_cell_angle_alpha	90.008408
_cell_angle_beta	89.993539
_cell_angle_gamma	96.381605
loop_
_atom_site_label
_atom_site_type_symbol
_atom_site_fract_x
_atom_site_fract_y
_atom_site_fract_z
O1	O	0.116653	-1.186937	-0.082718
O2	O	0.130592	-0.926539	-0.082714
O3	O	-0.006577	-1.063717	-0.082709
O4	O	0.253822	-1.049758	-0.082723
O5	O	-0.006584	-1.063698	0.082675
O6	O	0.130585	-0.926520	0.082669
O7	O	0.116646	-1.186918	0.082666
Cu8	Cu	0.123615	-1.056717	0.097769
Cu9	Cu	0.123624	-1.056740	-0.097817
O10	O	0.253815	-1.049740	0.082661
C11	C	0.129962	-0.893205	-0.000022
C12	C	0.128084	-0.793909	-0.000020
C13	C	0.201501	-0.355627	-0.000028
C14	C	0.203259	-0.448927	-0.000034
C15	C	0.122666	-0.506147	-0.000026
C16	C	0.040311	-0.470062	-0.000022
C17	C	0.038554	-0.376764	-0.000023
C18	C	0.043978	-0.664525	-0.000017
C19	C	0.045735	-0.757830	-0.000014
C20	C	0.208683	-0.736688	-0.000027
C21	C	0.206926	-0.643390	-0.000029
C22	C	0.124570	-0.607312	-0.000023
C23	C	-0.039905	-1.063084	-0.000018
C24	C	-0.139202	-1.061213	-0.000018
C25	C	-0.196422	-1.141801	-0.000019
C26	C	-0.289721	-1.140038	-0.000029
C27	C	-0.325800	-1.057686	-0.000031
C28	C	-0.268573	-0.977091	-0.000034
C29	C	-0.175275	-0.978855	-0.000031
C30	C	-0.463036	-0.973420	-0.000037
C31	C	-0.556340	-0.971656	-0.000038
C32	C	-0.577482	-1.134603	-0.000035
C33	C	-0.484184	-1.136367	-0.000032
C34	C	-0.426964	-1.055772	-0.000033
C35	C	0.287143	-1.050373	-0.000033
C36	C	0.386441	-1.052244	-0.000039
N37	N	0.123608	-1.056708	0.235333
C38	C	0.117276	-0.220252	-0.000025
C39	C	0.119152	-0.319548	-0.000021
C40	C	0.062895	-1.117469	0.287376
C41	C	0.062895	-1.117474	0.391479
C42	C	0.123613	-1.056721	0.443537
C43	C	0.184329	-0.995954	0.391487
C44	C	0.184324	-0.995945	0.287386
C45	C	0.184336	-0.995977	0.608468
C46	C	0.184343	-0.995986	0.712576
C47	C	0.062907	-1.117505	0.712560
C48	C	0.062902	-1.117497	0.608459
C49	C	0.123620	-1.056730	0.556416
N50	N	0.123630	-1.056746	0.764619
H51	H	-0.023084	-0.635155	-0.000017
H52	H	-0.336306	-1.205662	-0.000027
C53	C	0.236560	-0.841202	0.744684
C54	C	0.251067	-0.929196	0.769811
H55	H	0.277747	-0.799968	0.780027
H56	H	0.245259	-0.832498	0.675248
H57	H	0.176837	-0.831460	0.761754
H58	H	0.310788	-0.938940	0.752734
H59	H	0.242375	-0.937903	0.839262
H60	H	0.233776	-0.946491	0.566098
H61	H	-0.128688	-0.913232	-0.000031
C62	C	-0.057136	-1.237610	0.618894
C63	C	-0.003840	-1.184275	0.551233
H64	H	-0.098345	-1.278831	0.583563
H65	H	-0.019848	-1.269825	0.659478
H66	H	-0.089373	-1.200344	0.659517
H67	H	0.028402	-1.221542	0.510615
H68	H	-0.041133	-1.152058	0.510632
H69	H	0.013455	-1.166945	0.244996
C70	C	0.203530	-0.874267	0.508598
C71	C	0.251070	-0.929174	0.448713
H72	H	0.244737	-0.833045	0.543930
H73	H	0.166249	-0.842053	0.468004
H74	H	0.167375	-0.910467	0.554487
H75	H	0.287221	-0.892973	0.402819
H76	H	0.288367	-0.961390	0.489311
C77	C	0.304366	-0.875839	0.297851
C78	C	0.251066	-0.929159	0.230177
H79	H	0.345572	-0.834610	0.262531
H80	H	0.267079	-0.843634	0.338468
H81	H	0.336605	-0.913115	0.338440
H82	H	0.218822	-0.891884	0.189593
H83	H	0.288357	-0.961367	0.189543
C84	C	-0.052238	-0.587267	-0.085025
C85	C	-0.048277	-0.532960	-0.000013
H86	H	-0.106928	-0.626100	-0.085013
H87	H	-0.049543	-0.550441	-0.142690
H88	H	-0.002936	-0.622102	-0.085017
H89	H	-0.097575	-0.498120	-0.000025
H90	H	-0.050981	-0.569790	0.057666
H91	H	0.270315	-0.478297	-0.000048
C92	C	0.362743	-0.344110	-0.000055
C93	C	0.290092	-0.292735	-0.000041
H94	H	0.417436	-0.305283	-0.000073
H95	H	0.360042	-0.380927	0.057616
H96	H	0.360028	-0.380952	-0.057730
H97	H	0.292804	-0.255897	0.057638
H98	H	0.292795	-0.255902	-0.057719
C99	C	-0.689975	-0.896610	-0.000036
C100	C	-0.596001	-0.881134	-0.000044
H101	H	-0.714458	-0.840725	-0.000032
H102	H	-0.709598	-0.929802	-0.057702
H103	H	-0.709601	-0.929789	0.057644
H104	H	-0.576375	-0.847961	-0.057728
H105	H	-0.576371	-0.847928	0.057629
H106	H	0.013457	-1.166949	0.433851
C107	C	0.368171	-0.631858	-0.000047
C108	C	0.295513	-0.580491	-0.000037
H109	H	0.422860	-0.593025	-0.000061
H110	H	0.365470	-0.668676	0.057623
H111	H	0.365463	-0.668699	-0.057723
H112	H	0.298217	-0.543655	0.057642
H113	H	0.298215	-0.543658	-0.057714
C114	C	-0.057952	-0.284084	0.084998
C115	C	-0.051965	-0.337100	-0.000015
H116	H	-0.113835	-0.259595	0.084994
H117	H	-0.053887	-0.320033	0.142662
H118	H	-0.010201	-0.236658	0.084982
H119	H	-0.099713	-0.384530	0.000005
H120	H	-0.056039	-0.301150	-0.057694
H121	H	0.275740	-0.766067	-0.000031
H122	H	-0.019890	-0.804417	-0.000015
H123	H	-0.167054	-1.208862	-0.000011
H124	H	-0.454812	-1.203426	-0.000023
C125	C	-0.729885	-1.204261	-0.000067
C126	C	-0.640375	-1.223196	-0.000050
H127	H	-0.768713	-1.258954	-0.000081
H128	H	-0.740839	-1.170499	0.057602
H129	H	-0.740809	-1.170501	-0.057744
H130	H	-0.629449	-1.256951	0.057631
H131	H	-0.629416	-1.256972	-0.057725
H132	H	-0.416449	-0.907791	-0.000041
H133	H	-0.297955	-0.910038	-0.000042
H134	H	0.013469	-1.166982	0.754939
