data_functionalizedCrystal
_audit_creation_method	'MofGen! by Chris Wilmer'
_symmetry_space_group_name_H-M	'P1'
_symmetry_Int_Tables_number	1
_symmetry_cell_setting	triclinic
loop_
_symmetry_equiv_pos_as_xyz
  x,y,z
_cell_length_a	19.121102
_cell_length_b	17.077402
_cell_length_c	17.077396
_cell_angle_alpha	90.029784
_cell_angle_beta	87.541651
_cell_angle_gamma	92.422851
loop_
_atom_site_label
_atom_site_type_symbol
_atom_site_fract_x
_atom_site_fract_y
_atom_site_fract_z
Zn1	Zn	1.073738	0.363784	-0.494968
Zn2	Zn	1.073655	0.495055	-0.363695
Zn3	Zn	0.956287	0.358202	-0.358123
Zn4	Zn	0.956259	0.489402	-0.489328
O5	O	1.014985	0.426611	-0.426529
O6	O	1.172012	0.385900	-0.482247
O7	O	1.058063	0.476931	-0.253108
O8	O	0.971914	0.249098	-0.376304
O9	O	1.171951	0.482344	-0.385801
O10	O	1.058205	0.253199	-0.476844
O11	O	0.971834	0.376386	-0.249014
O12	O	0.857999	0.370904	-0.370835
O13	O	0.971865	0.472708	-0.599924
O14	O	0.857978	0.467296	-0.467231
O15	O	1.058177	0.380418	-0.604068
O16	O	1.058036	0.604150	-0.380332
O17	O	0.971785	0.599996	-0.472634
C18	C	1.014917	0.630556	-0.426494
C19	C	1.014952	0.717807	-0.426509
C20	C	0.832504	0.417882	-0.417817
C21	C	0.754438	0.414166	-0.414109
C22	C	1.015027	0.426555	-0.631275
C23	C	1.015046	0.426531	-0.718526
C24	C	0.717770	0.462682	-0.462476
C25	C	0.644419	0.459181	-0.458996
C26	C	0.607737	0.407167	-0.407143
C27	C	0.644410	0.358645	-0.358774
C28	C	0.717760	0.362143	-0.362259
C29	C	0.386267	0.394086	-0.394118
C30	C	0.312912	0.390594	-0.390635
C31	C	0.312926	0.491129	-0.490857
C32	C	0.386277	0.494625	-0.494334
C33	C	0.422944	0.446101	-0.445968
C34	C	0.532760	0.403588	-0.403583
C35	C	0.497920	0.449676	-0.449533
C36	C	1.198178	0.435375	-0.435275
C37	C	1.276244	0.439110	-0.439002
C38	C	1.015072	0.221871	-0.426581
C39	C	1.015109	0.134623	-0.426604
C40	C	1.059909	0.760936	-0.378503
C41	C	1.059943	0.842918	-0.378525
C42	C	1.015017	0.881770	-0.426548
C43	C	0.970058	0.838635	-0.474559
C44	C	0.970028	0.756654	-0.474541
C45	C	0.970123	1.009508	-0.474592
C46	C	0.970153	1.091494	-0.474610
C47	C	1.060039	1.095772	-0.378576
C48	C	1.060008	1.013791	-0.378558
C49	C	1.015049	0.970662	-0.426568
C50	C	1.059990	0.378472	-0.761675
C51	C	1.059998	0.378446	-0.843656
C52	C	1.015065	0.426485	-0.882486
C53	C	0.970116	0.474546	-0.839331
C54	C	0.970105	0.474567	-0.757352
C55	C	0.970145	0.474501	-1.010203
C56	C	0.970157	0.474481	-1.092188
C57	C	1.060038	0.378379	-1.096507
C58	C	1.060026	0.378400	-1.014527
C59	C	1.015078	0.426463	-0.971378
C60	C	1.014983	0.426612	-0.222581
C61	C	1.015101	0.426421	-0.135337
H62	H	0.614567	0.498688	-0.498381
O63	O	0.533626	0.500096	-0.499943
C64	C	0.576074	0.457492	-0.552753
H65	H	0.587063	0.398490	-0.525700
H66	H	0.547835	0.447603	-0.609602
C67	C	0.632250	0.576484	-0.603415
C68	C	0.645752	0.504018	-0.570186
H69	H	0.675229	0.605184	-0.614173
H70	H	0.603650	0.605187	-0.567839
H71	H	0.608715	0.568232	-0.650786
H72	H	0.669278	0.512271	-0.522812
H73	H	0.674357	0.475317	-0.605755
H74	H	0.933515	0.974395	-0.513690
O75	O	0.926395	0.876250	-0.521285
C76	C	0.886697	0.820600	-0.563639
H77	H	0.915443	0.763507	-0.567743
H78	H	0.833366	0.809403	-0.532299
C79	C	0.841239	0.922181	-0.641656
C80	C	0.876548	0.852061	-0.646702
H81	H	0.834975	0.941588	-0.692892
H82	H	0.867982	0.959674	-0.613119
H83	H	0.796800	0.912840	-0.615536
H84	H	0.920989	0.861404	-0.672813
H85	H	0.849812	0.814570	-0.675245
H86	H	0.502886	0.361239	-0.361363
H87	H	1.096551	0.878030	-0.339433
H88	H	0.614538	0.316291	-0.316558
O89	O	1.103796	0.331775	-1.138391
C90	C	1.173788	0.352272	-1.121695
H91	H	1.177305	0.415156	-1.099312
H92	H	1.192163	0.311079	-1.075001
C93	C	1.216349	0.268126	-1.224260
C94	C	1.220670	0.345364	-1.196775
H95	H	1.245270	0.263862	-1.270572
H96	H	1.169195	0.254314	-1.235508
H97	H	1.231661	0.233807	-1.185342
H98	H	1.205351	0.379680	-1.235689
H99	H	1.267823	0.359182	-1.185536
O100	O	0.926441	0.521163	-1.129785
C101	C	0.886774	0.563599	-1.074124
H102	H	0.884346	0.531348	-1.015577
H103	H	0.912460	0.624451	-1.066618
C104	C	0.815006	0.610929	-1.174456
C105	C	0.812019	0.571315	-1.102550
H106	H	0.768895	0.615693	-1.191991
H107	H	0.841732	0.582342	-1.211957
H108	H	0.836415	0.661635	-1.168191
H109	H	0.790619	0.520607	-1.108817
H110	H	0.785287	0.599893	-1.065050
O111	O	1.103515	0.723283	-0.331740
C112	C	1.088202	0.742641	-0.252763
H113	H	1.061226	0.800901	-0.249837
H114	H	1.052089	0.694831	-0.224557
C115	C	1.189831	0.678117	-0.212141
C116	C	1.156704	0.749676	-0.208547
H117	H	1.232085	0.682453	-0.184865
H118	H	1.200147	0.665072	-0.265349
H119	H	1.159730	0.638282	-0.188637
H120	H	1.186802	0.789508	-0.232059
H121	H	1.146395	0.762728	-0.155342
H122	H	0.747615	0.322632	-0.322877
O123	O	0.926367	0.521124	-0.877008
C124	C	0.856372	0.500638	-0.853619
H125	H	0.852849	0.437764	-0.830933
H126	H	0.837988	0.541854	-0.805142
C127	C	0.813832	0.584737	-0.952062
C128	C	0.809504	0.507513	-0.924206
H129	H	0.784920	0.588981	-0.995601
H130	H	0.860989	0.598542	-0.967818
H131	H	0.798513	0.619075	-0.911658
H132	H	0.824830	0.473177	-0.964606
H133	H	0.762348	0.493702	-0.908458
O134	O	0.926586	0.521234	-0.968198
C135	C	0.966557	0.573863	-0.922695
H136	H	1.019792	0.548720	-0.912978
H137	H	0.974255	0.632396	-0.954640
C138	C	0.862524	0.617128	-0.854898
C139	C	0.927906	0.586244	-0.842958
H140	H	0.838682	0.624769	-0.805714
H141	H	0.835594	0.581673	-0.885557
H142	H	0.868949	0.665902	-0.881521
H143	H	0.921481	0.537466	-0.816345
H144	H	0.954835	0.621691	-0.812293
H145	H	0.933500	0.513694	-0.722220
H146	H	0.283064	0.530633	-0.530235
O147	O	0.753369	0.513124	-0.512958
C148	C	0.735466	0.495224	-0.590371
H149	H	0.715324	0.431559	-0.593487
H150	H	0.692884	0.535304	-0.608792
C151	C	0.825381	0.585728	-0.642014
C152	C	0.800648	0.507531	-0.645843
H153	H	0.865587	0.593323	-0.676233
H154	H	0.837441	0.597790	-0.589860
H155	H	0.789890	0.619119	-0.657363
H156	H	0.836135	0.474143	-0.630485
H157	H	0.788595	0.495463	-0.697997
O158	O	0.421799	0.545172	-0.544774
C159	C	0.373705	0.587259	-0.586704
H160	H	0.321430	0.552617	-0.587000
H161	H	0.365873	0.646464	-0.557476
C162	C	0.466570	0.642598	-0.671223
C163	C	0.402366	0.600047	-0.671593
H164	H	0.484250	0.650490	-0.723586
H165	H	0.498973	0.614246	-0.642973
H166	H	0.460035	0.691931	-0.646863
H167	H	0.408904	0.550712	-0.695944
H168	H	0.369965	0.628392	-0.699850
H169	H	1.096649	1.130892	-0.339487
H170	H	1.096598	0.339313	-0.878784
O171	O	0.421771	0.346921	-0.347058
C172	C	0.373663	0.300251	-0.300561
H173	H	0.321369	0.329913	-0.295296
H174	H	0.365884	0.240303	-0.329049
C175	C	0.466488	0.253750	-0.224862
C176	C	0.402262	0.290185	-0.218391
H177	H	0.484130	0.247538	-0.174177
H178	H	0.498900	0.285191	-0.256190
H179	H	0.459997	0.203798	-0.248606
H180	H	0.408755	0.340140	-0.194657
H181	H	0.369851	0.258753	-0.187058
H182	H	1.096581	0.339355	-0.730065
H183	H	0.283048	0.348228	-0.348415
H184	H	1.096587	0.982159	-0.339449
H185	H	0.933583	1.123125	-0.513730
H186	H	0.933421	0.721539	-0.513633
H187	H	1.096619	0.339287	-0.982914
