data_functionalizedCrystal
_audit_creation_method	'MofGen! by Chris Wilmer'
_symmetry_space_group_name_H-M	'P1'
_symmetry_Int_Tables_number	1
_symmetry_cell_setting	triclinic
loop_
_symmetry_equiv_pos_as_xyz
  x,y,z
_cell_length_a	15.944551
_cell_length_b	15.944493
_cell_length_c	9.730223
_cell_angle_alpha	90.004543
_cell_angle_beta	90.004286
_cell_angle_gamma	83.486891
loop_
_atom_site_label
_atom_site_type_symbol
_atom_site_fract_x
_atom_site_fract_y
_atom_site_fract_z
O1	O	1.114497	0.108331	-0.114128
O2	O	1.614497	0.608331	0.385872
O3	O	0.869944	0.121688	-0.114160
O4	O	1.369944	0.621688	0.385840
O5	O	0.998924	-0.007268	-0.114155
O6	O	1.498924	0.492732	0.385845
O7	O	0.985517	0.237288	-0.114134
O8	O	1.485517	0.737288	0.385866
O9	O	0.998923	-0.007265	0.114425
O10	O	1.498923	0.492735	0.614425
O11	O	0.869943	0.121691	0.114420
O12	O	1.369943	0.621691	0.614420
O13	O	1.114495	0.108335	0.114452
O14	O	1.614495	0.608335	0.614452
Zn15	Zn	0.992219	0.115013	0.150728
Zn16	Zn	1.492219	0.615013	0.650728
Zn17	Zn	0.992221	0.115009	-0.150436
Zn18	Zn	1.492221	0.615009	0.349564
O19	O	0.985516	0.237291	0.114446
O20	O	1.485516	0.737291	0.614446
C21	C	0.838650	0.121135	0.000125
C22	C	1.338650	0.621135	0.500125
C23	C	0.745404	0.119473	0.000112
C24	C	1.245404	0.619473	0.500112
C25	C	0.530565	0.035566	0.000131
C26	C	1.030565	0.535566	0.500131
C27	C	0.469537	0.074528	-0.112567
C28	C	0.969537	0.574528	0.387433
C29	C	0.574679	0.116465	0.000128
C30	C	1.074679	0.616465	0.500128
C31	C	0.469558	0.074550	0.112795
C32	C	0.969558	0.574550	0.612795
C33	C	0.409767	0.113555	0.000150
C34	C	0.909767	0.613555	0.500150
C35	C	0.514880	0.155449	-0.112664
C36	C	1.014880	0.655449	0.387336
C37	C	0.514907	0.155460	0.112800
C38	C	1.014907	0.655460	0.612800
C39	C	0.453897	0.194481	0.000073
C40	C	0.953897	0.694481	0.500073
C41	C	0.669681	0.118140	0.000115
C42	C	1.169681	0.618140	0.500115
C43	C	0.314766	0.111886	0.000153
C44	C	0.814766	0.611886	0.500153
C45	C	0.998375	-0.038562	0.000129
C46	C	1.498375	0.461438	0.500129
C47	C	0.996733	-0.131810	0.000111
C48	C	1.496733	0.368190	0.500111
C49	C	1.072653	-0.367570	0.000147
C50	C	1.572653	0.132430	0.500147
C51	C	1.031713	-0.418140	-0.112559
C52	C	1.531713	0.081860	0.387441
C53	C	0.993688	-0.302531	0.000128
C54	C	1.493688	0.197469	0.500128
C55	C	1.031693	-0.418113	0.112803
C56	C	1.531693	0.081887	0.612803
C57	C	0.990754	-0.467441	0.000150
C58	C	1.490754	0.032559	0.500150
C59	C	0.952769	-0.351873	-0.112672
C60	C	1.452769	0.148127	0.387328
C61	C	0.952761	-0.351842	0.112792
C62	C	1.452761	0.148158	0.612792
C63	C	0.911763	-0.402379	0.000058
C64	C	1.411763	0.097621	0.500058
C65	C	0.995381	-0.207531	0.000114
C66	C	1.495381	0.292469	0.500114
C67	C	0.989055	-0.562438	0.000154
C68	C	1.489055	-0.062438	0.500154
C69	C	1.145790	0.108888	0.000163
C70	C	1.645790	0.608888	0.500163
C71	C	1.239036	0.110550	0.000167
C72	C	1.739036	0.610550	0.500167
C73	C	0.986064	0.268584	0.000159
C74	C	1.486064	0.768584	0.500159
C75	C	0.987707	0.361833	0.000168
C76	C	1.487707	0.861833	0.500168
N77	N	0.992224	0.115016	0.356264
N78	N	1.492224	0.615016	0.856264
N79	N	0.992223	0.115000	-0.355973
N80	N	1.492223	0.615000	0.144027
C81	C	1.049350	0.057933	0.428192
C82	C	1.549350	0.557933	0.928192
C83	C	1.049348	0.057923	0.572075
C84	C	1.549348	0.557923	1.072075
C85	C	0.935090	0.172086	0.572089
C86	C	1.435090	0.672086	1.072089
C87	C	0.935089	0.172091	0.428208
C88	C	1.435089	0.672091	0.928208
C89	C	1.106485	0.000858	0.356248
C90	C	1.606485	0.500858	0.856248
C91	C	1.163617	-0.056229	0.428177
C92	C	1.663617	0.443771	0.928177
C93	C	1.163615	-0.056239	0.572060
C94	C	1.663615	0.443761	1.072060
C95	C	1.106481	0.000838	0.644014
C96	C	1.606481	0.500838	1.144014
H97	H	0.563912	-0.031574	-0.000014
H98	H	1.063912	0.468426	0.499986
H99	H	0.843692	-0.417845	-0.000013
H100	H	1.343692	0.082155	0.499987
H101	H	0.919441	-0.323054	-0.208058
H102	H	1.419441	0.176946	0.291942
H103	H	0.919441	-0.322880	0.208072
H104	H	1.419441	0.177120	0.708072
H105	H	1.065061	-0.447087	-0.207836
H106	H	1.565061	0.052913	0.292164
H107	H	0.534861	0.189640	-0.208045
H108	H	1.034861	0.689640	0.291955
H109	H	1.065057	-0.447042	0.208081
H110	H	1.565057	0.052958	0.708081
H111	H	0.535030	0.189651	0.208089
H112	H	1.035030	0.689651	0.708089
H113	H	1.210130	-0.102703	0.369584
H114	H	1.710130	0.397297	0.869584
H115	H	1.106494	0.000863	0.239091
H116	H	1.606494	0.500863	0.739091
H117	H	0.420724	0.261690	0.000016
H118	H	0.920724	0.761690	0.500016
H119	H	0.888570	0.218572	0.369644
H120	H	1.388570	0.718572	0.869644
H121	H	1.210129	-0.102727	0.630622
H122	H	1.710129	0.397273	1.130622
H123	H	1.106479	0.000819	0.761173
H124	H	1.606479	0.500819	1.261173
H125	H	0.888574	0.218556	0.630683
H126	H	1.388574	0.718556	1.130683
H127	H	0.449435	0.040310	-0.207852
H128	H	0.949435	0.540310	0.292148
H129	H	1.140671	-0.351942	0.000043
H130	H	1.640671	0.148058	0.500043
H131	H	0.449478	0.040320	0.208069
H132	H	0.949478	0.540320	0.708069
