data_functionalizedCrystal
_audit_creation_method	'MofGen! by Chris Wilmer'
_symmetry_space_group_name_H-M	'P1'
_symmetry_Int_Tables_number	1
_symmetry_cell_setting	triclinic
loop_
_symmetry_equiv_pos_as_xyz
  x,y,z
_cell_length_a	16.974829
_cell_length_b	14.044220
_cell_length_c	16.053789
_cell_angle_alpha	92.661029
_cell_angle_beta	96.542606
_cell_angle_gamma	88.283427
loop_
_atom_site_label
_atom_site_type_symbol
_atom_site_fract_x
_atom_site_fract_y
_atom_site_fract_z
O1	O	1.064233	0.128083	0.141338
O2	O	1.397566	0.461416	0.474671
O3	O	1.730900	0.794749	0.808005
O4	O	0.834390	0.142665	0.125810
O5	O	1.167724	0.475999	0.459144
O6	O	1.501057	0.809332	0.792477
O7	O	0.945861	-0.002618	0.133333
O8	O	1.279195	0.330715	0.466666
O9	O	1.612528	0.664048	0.800000
O10	O	0.952762	0.273367	0.133816
O11	O	1.286095	0.606700	0.467149
O12	O	1.619429	0.940033	0.800482
O13	O	0.939381	-0.009766	-0.005965
O14	O	1.272714	0.323568	0.327369
O15	O	1.606047	0.656901	0.660702
O16	O	0.827910	0.135518	-0.013487
O17	O	1.161243	0.468852	0.319846
O18	O	1.494576	0.802185	0.653179
O19	O	1.057752	0.120936	0.002040
O20	O	1.391086	0.454269	0.335374
O21	O	1.724419	0.787602	0.668707
Zn22	Zn	0.941802	0.127092	-0.027840
Zn23	Zn	1.275135	0.460426	0.305493
Zn24	Zn	1.608469	0.793759	0.638827
Zn25	Zn	0.950341	0.136509	0.155691
Zn26	Zn	1.283674	0.469842	0.489024
Zn27	Zn	1.617007	0.803176	0.822357
O28	O	0.946281	0.266220	-0.005482
O29	O	1.279615	0.599553	0.327851
O30	O	1.612948	0.932886	0.661185
C31	C	0.801557	0.138403	0.054162
C32	C	1.134891	0.471736	0.387496
C33	C	1.468224	0.805070	0.720829
C34	C	0.713380	0.136339	0.048205
C35	C	1.046713	0.469673	0.381538
C36	C	1.380047	0.803006	0.714872
C37	C	0.216655	0.124336	0.006521
C38	C	0.549988	0.457669	0.339854
C39	C	0.883321	0.791003	0.673188
C40	C	0.299507	0.126275	0.012120
C41	C	0.632840	0.459608	0.345453
C42	C	0.966173	0.792942	0.678787
C43	C	0.344466	0.131134	0.090852
C44	C	0.677799	0.464467	0.424186
C45	C	1.011132	0.797800	0.757519
C46	C	0.306568	0.134063	0.163990
C47	C	0.639902	0.467396	0.497323
C48	C	0.973235	0.800729	0.830656
C49	C	0.223718	0.132130	0.158390
C50	C	0.557051	0.465464	0.491723
C51	C	0.890384	0.798797	0.825057
C52	C	0.592632	0.137336	0.115743
C53	C	0.925965	0.470670	0.449076
C54	C	1.259299	0.804003	0.782409
C55	C	0.675488	0.139265	0.121337
C56	C	1.008822	0.472599	0.454671
C57	C	1.342155	0.805932	0.788004
C58	C	0.668421	0.131480	-0.030533
C59	C	1.001754	0.464813	0.302800
C60	C	1.335087	0.798146	0.636133
C61	C	0.585569	0.129542	-0.036126
C62	C	0.918902	0.462875	0.297207
C63	C	1.252236	0.796209	0.630540
C64	C	0.547679	0.132476	0.037011
C65	C	0.881012	0.465810	0.370345
C66	C	1.214345	0.799143	0.703678
N67	N	0.429154	0.133113	0.096577
N68	N	0.762487	0.466446	0.429911
N69	N	1.095821	0.799779	0.763244
N70	N	0.462992	0.130504	0.031285
N71	N	0.796325	0.463837	0.364619
N72	N	1.129658	0.797170	0.697952
C73	C	0.939601	-0.041513	0.063480
C74	C	1.272934	0.291820	0.396813
C75	C	1.606267	0.625154	0.730146
C76	C	0.930592	-0.146759	0.062870
C77	C	1.263925	0.186575	0.396203
C78	C	1.597258	0.519908	0.729537
C79	C	0.914122	-0.339456	0.061769
C80	C	1.247455	-0.006122	0.395103
C81	C	1.580788	0.327211	0.728436
C82	C	0.978018	-0.396948	0.066089
C83	C	1.311351	-0.063615	0.399422
C84	C	1.644684	0.269718	0.732755
C85	C	0.968854	-0.504172	0.065476
C86	C	1.302187	-0.170838	0.398809
C87	C	1.635520	0.162495	0.732143
C88	C	0.923285	-0.232222	0.062382
C89	C	1.256618	0.101111	0.395715
C90	C	1.589951	0.434444	0.729048
C91	C	1.090585	0.125198	0.073690
C92	C	1.423919	0.458531	0.407024
C93	C	1.757252	0.791865	0.740357
C94	C	1.178763	0.127262	0.079653
C95	C	1.512096	0.460595	0.412986
C96	C	1.845430	0.793929	0.746320
C97	C	0.952542	0.305114	0.064373
C98	C	1.285875	0.638448	0.397706
C99	C	1.619209	0.971781	0.731040
C100	C	0.961551	0.410360	0.064988
C101	C	1.294885	0.743694	0.398321
C102	C	1.628218	1.077027	0.731655
N103	N	0.935980	0.120665	-0.153094
N104	N	1.269314	0.453998	0.180239
N105	N	1.602647	0.787332	0.513572
C106	C	0.986113	0.176057	-0.193394
C107	C	1.319447	0.509390	0.139939
C108	C	1.652780	0.842723	0.473272
C109	C	0.982051	0.171555	-0.281076
C110	C	1.315385	0.504888	0.052257
C111	C	1.648718	0.838221	0.385590
C112	C	0.927852	0.111665	-0.328457
C113	C	1.261185	0.444999	0.004877
C114	C	1.594518	0.778332	0.338210
C115	C	0.877717	0.056267	-0.288150
C116	C	1.211050	0.389601	0.045183
C117	C	1.544383	0.722934	0.378516
C118	C	0.881783	0.060765	-0.200470
C119	C	1.215116	0.394098	0.132863
C120	C	1.548450	0.727432	0.466197
C121	C	0.910099	0.092028	-0.591068
C122	C	1.243433	0.425362	-0.257735
C123	C	1.576766	0.758695	0.075599
C124	C	0.906035	0.087537	-0.678754
C125	C	1.239368	0.420870	-0.345421
C126	C	1.572702	0.754203	-0.012088
C127	C	1.010371	0.202823	-0.671674
C128	C	1.343705	0.536157	-0.338341
C129	C	1.677038	0.869490	-0.005007
C130	C	1.014430	0.207320	-0.583992
C131	C	1.347763	0.540653	-0.250659
C132	C	1.681096	0.873987	0.082674
C133	C	0.964297	0.151918	-0.543694
C134	C	1.297631	0.485252	-0.210360
C135	C	1.630964	0.818585	0.122973
N136	N	0.923697	0.107064	-0.418082
N137	N	1.257030	0.440397	-0.084748
N138	N	1.590363	0.773731	0.248585
N139	N	0.968457	0.156515	-0.454070
N140	N	1.301790	0.489848	-0.120737
N141	N	1.635124	0.823182	0.212597
N142	N	0.956168	0.142929	0.280946
N143	N	1.289501	0.476262	0.614279
N144	N	1.622835	0.809595	0.947612
H145	H	0.561792	0.139722	0.175297
H146	H	0.895125	0.473055	0.508630
H147	H	1.228459	0.806389	0.841963
F148	F	0.833630	-0.380373	0.056336
F149	F	1.166963	-0.047039	0.389669
F150	F	1.500296	0.286294	0.723003
F151	F	1.035409	0.230512	-0.323963
F152	F	1.368742	0.563845	0.009371
F153	F	1.702076	0.897178	0.342704
F154	F	1.058515	-0.356032	0.071520
F155	F	1.391849	-0.022699	0.404854
F156	F	1.725182	0.310635	0.738187
H157	H	0.548969	0.125565	-0.100238
H158	H	0.882303	0.458898	0.233095
H159	H	1.215636	0.792232	0.566428
F160	F	0.828431	0.001801	-0.157580
F161	F	1.161764	0.335135	0.175753
F162	F	1.495097	0.668468	0.509087
H163	H	0.712092	0.143230	0.185454
H164	H	1.045426	0.476563	0.518787
H165	H	1.378759	0.809896	0.852120
F166	F	0.168813	0.119157	-0.077277
F167	F	0.502146	0.452490	0.256056
F168	F	0.835480	0.785823	0.589389
H169	H	0.330354	0.123890	-0.047432
H170	H	0.663687	0.457223	0.285901
H171	H	0.997021	0.790557	0.619235
H172	H	0.343181	0.138024	0.228095
H173	H	0.676514	0.471358	0.561429
H174	H	1.009847	0.804691	0.894762
H175	H	1.030244	0.224831	-0.154823
H176	H	1.363577	0.558164	0.178510
H177	H	1.696911	0.891498	0.511843
H178	H	0.699280	0.129093	-0.090078
H179	H	1.032613	0.462426	0.243256
H180	H	1.365947	0.795759	0.576589
F181	F	1.072092	0.271094	-0.533574
F182	F	1.405425	0.604428	-0.200241
F183	F	1.738758	0.937761	0.133092
H184	H	0.192868	0.134516	0.217942
H185	H	0.526201	0.467849	0.551275
H186	H	0.859534	0.801182	0.884609
H187	H	1.051186	0.247928	-0.704495
H188	H	1.384520	0.581261	-0.371161
H189	H	1.717853	0.914594	-0.037828
F190	F	0.848346	0.023791	-0.729179
F191	F	1.181680	0.357124	-0.395845
F192	F	1.515013	0.690457	-0.062512
F193	F	0.856721	0.033093	-0.548192
F194	F	1.190055	0.366426	-0.214859
F195	F	1.523388	0.699760	0.118475
F196	F	0.820035	-0.007474	-0.338578
F197	F	1.153368	0.325859	-0.005245
F198	F	1.486701	0.659192	0.328088
