data_functionalizedCrystal
_audit_creation_method	'MofGen! by Chris Wilmer'
_symmetry_space_group_name_H-M	'P1'
_symmetry_Int_Tables_number	1
_symmetry_cell_setting	triclinic
loop_
_symmetry_equiv_pos_as_xyz
  x,y,z
_cell_length_a	10.489746
_cell_length_b	10.489768
_cell_length_c	16.776229
_cell_angle_alpha	90.004062
_cell_angle_beta	90.013225
_cell_angle_gamma	95.454106
loop_
_atom_site_label
_atom_site_type_symbol
_atom_site_fract_x
_atom_site_fract_y
_atom_site_fract_z
O1	O	0.180152	-1.694024	0.066247
O2	O	0.680152	-1.194024	0.566247
O3	O	0.197008	-1.322833	0.066258
O4	O	0.697008	-0.822833	0.566258
O5	O	0.002983	-1.516871	0.066246
O6	O	0.502983	-1.016871	0.566246
O7	O	0.374176	-1.499985	0.066258
O8	O	0.874176	-0.999985	0.566258
O9	O	0.002944	-1.516880	-0.066331
O10	O	0.502944	-1.016880	0.433669
O11	O	0.196969	-1.322842	-0.066319
O12	O	0.696969	-0.822842	0.433681
O13	O	0.180113	-1.694033	-0.066330
O14	O	0.680113	-1.194033	0.433670
Zn15	Zn	0.188535	-1.508439	-0.087374
Zn16	Zn	0.688535	-1.008439	0.412626
Zn17	Zn	0.188586	-1.508427	0.087301
Zn18	Zn	0.688586	-1.008427	0.587301
O19	O	0.374138	-1.499994	-0.066318
O20	O	0.874138	-0.999994	0.433682
C21	C	0.195708	-1.275306	-0.000029
C22	C	0.695708	-0.775306	0.499971
C23	C	0.191877	-1.133678	-0.000025
C24	C	0.691877	-0.633678	0.499975
C25	C	-0.044568	-1.515599	-0.000042
C26	C	0.455432	-1.015599	0.499958
C27	C	-0.186197	-1.511779	-0.000042
C28	C	0.313803	-1.011779	0.499958
N29	N	0.188499	-1.508456	-0.206585
N30	N	0.688499	-1.008456	0.293415
C31	C	-0.339068	-1.386057	-0.000028
C32	C	0.160932	-0.886057	0.499972
C33	C	-0.261650	-1.448908	0.065336
C34	C	0.238350	-0.948908	0.565336
C35	C	-0.261730	-1.448947	-0.065374
C36	C	0.238270	-0.948947	0.434626
C37	C	-0.361130	-1.567889	0.065394
C38	C	0.138870	-1.067889	0.565394
C39	C	-0.361215	-1.567910	-0.065375
C40	C	0.138785	-1.067910	0.434625
C41	C	-0.283846	-1.630848	0.000005
C42	C	0.216154	-1.130848	0.500005
C43	C	0.421689	-1.501267	-0.000028
C44	C	0.921689	-1.001267	0.499972
C45	C	0.563318	-1.505086	-0.000024
C46	C	1.063318	-1.005086	0.499976
C47	C	0.066141	-0.980820	-0.000042
C48	C	0.566141	-0.480820	0.499958
C49	C	0.128985	-1.058218	-0.065404
C50	C	0.628985	-0.558218	0.434596
C51	C	0.129052	-1.058165	0.065306
C52	C	0.629052	-0.558165	0.565306
C53	C	0.247958	-0.958730	-0.065463
C54	C	0.747958	-0.458730	0.434537
C55	C	0.248008	-0.958671	0.065306
C56	C	0.748008	-0.458671	0.565306
C57	C	0.310939	-1.036021	-0.000072
C58	C	0.810939	-0.536021	0.499928
C59	C	0.181393	-0.741562	-0.000043
C60	C	0.681393	-0.241562	0.499957
C61	C	0.185164	-0.883197	-0.000047
C62	C	0.685164	-0.383197	0.499953
N63	N	0.188612	-1.508419	0.206513
N64	N	0.688612	-1.008419	0.706513
C65	C	0.110315	-1.430513	0.248223
C66	C	0.610315	-0.930513	0.748223
C67	C	0.110294	-1.430522	0.331675
C68	C	0.610294	-0.930522	0.831675
C69	C	0.188576	-1.508431	0.373416
C70	C	0.688576	-1.008431	0.873416
C71	C	0.266876	-1.586347	0.331699
C72	C	0.766876	-1.086347	0.831699
C73	C	0.266890	-1.586343	0.248249
C74	C	0.766890	-1.086343	0.748249
C75	C	0.266820	-1.586362	0.668247
C76	C	0.766820	-1.086362	1.168247
C77	C	0.266803	-1.586357	0.751703
C78	C	0.766803	-1.086357	1.251703
C79	C	0.110224	-1.430541	0.751673
C80	C	0.610224	-0.930541	1.251673
C81	C	0.110238	-1.430538	0.668222
C82	C	0.610238	-0.930538	1.168222
C83	C	0.188532	-1.508457	0.626513
C84	C	0.688532	-1.008457	1.126513
C85	C	0.188553	-1.508448	0.536025
C86	C	0.688553	-1.008448	1.036025
C87	C	0.188563	-1.508434	0.463902
C88	C	0.688563	-1.008434	0.963902
H89	H	-0.363797	-1.282556	0.000040
H90	H	0.136203	-0.782556	0.500040
Cl91	Cl	0.470860	-1.073813	-0.000116
Cl92	Cl	0.970860	-0.573813	0.499884
Cl93	Cl	-0.428398	-1.645425	-0.150703
Cl94	Cl	0.071602	-1.145425	0.349297
H95	H	-0.218306	-1.398680	-0.120635
H96	H	0.281694	-0.898680	0.379365
H97	H	-0.218163	-1.398657	0.120600
H98	H	0.281837	-0.898657	0.620600
H99	H	0.330554	-1.649804	0.785686
H100	H	0.830554	-1.149804	1.285686
H101	H	-0.404390	-1.618098	0.120717
H102	H	0.095610	-1.118098	0.620717
H103	H	-0.259361	-1.734427	0.000037
H104	H	0.240639	-1.234427	0.500037
H105	H	-0.037362	-0.956097	-0.000111
H106	H	0.462638	-0.456097	0.499889
Cl107	Cl	0.051390	-1.125345	-0.150729
Cl108	Cl	0.551390	-0.625345	0.349271
Cl109	Cl	0.325453	-0.891926	-0.150880
Cl110	Cl	0.825453	-0.391926	0.349120
H111	H	0.298224	-0.915168	0.120572
H112	H	0.798224	-0.415168	0.620572
H113	H	0.078801	-1.101603	0.120567
H114	H	0.578801	-0.601603	0.620567
H115	H	0.046575	-1.367063	0.214244
H116	H	0.546575	-0.867063	0.714244
Cl117	Cl	0.011899	-1.332538	0.384108
Cl118	Cl	0.511899	-0.832538	0.884108
Cl119	Cl	0.011827	-1.332585	0.615753
Cl120	Cl	0.511827	-0.832585	1.115753
Cl121	Cl	0.011790	-1.332588	0.804112
Cl122	Cl	0.511790	-0.832588	1.304112
Cl123	Cl	0.365258	-1.684309	0.615823
Cl124	Cl	0.865258	-1.184309	1.115823
H125	H	0.330609	-1.649788	0.365691
H126	H	0.830609	-1.149788	0.865691
H127	H	0.330646	-1.649783	0.214289
H128	H	0.830646	-1.149783	0.714289
