data_functionalizedCrystal
_audit_creation_method	'MofGen! by Chris Wilmer'
_symmetry_space_group_name_H-M	'P1'
_symmetry_Int_Tables_number	1
_symmetry_cell_setting	triclinic
loop_
_symmetry_equiv_pos_as_xyz
  x,y,z
_cell_length_a	19.077105
_cell_length_b	14.908520
_cell_length_c	14.908858
_cell_angle_alpha	89.778004
_cell_angle_beta	90.849215
_cell_angle_gamma	91.150228
loop_
_atom_site_label
_atom_site_type_symbol
_atom_site_fract_x
_atom_site_fract_y
_atom_site_fract_z
Zn1	Zn	1.032621	-0.378634	-0.585050
Zn2	Zn	1.031758	-0.537647	-0.443317
Zn3	Zn	0.921809	-0.381979	-0.428699
Zn4	Zn	0.908314	-0.522932	-0.586931
O5	O	0.973625	-0.455298	-0.510999
O6	O	1.130543	-0.404486	-0.571580
O7	O	1.022460	-0.524555	-0.315841
O8	O	0.942517	-0.255999	-0.442535
O9	O	1.129910	-0.521312	-0.467449
O10	O	1.023930	-0.253542	-0.557405
O11	O	0.941680	-0.410187	-0.305102
O12	O	0.821982	-0.395918	-0.444358
O13	O	0.919517	-0.496232	-0.712218
O14	O	0.812067	-0.499476	-0.560610
O15	O	1.010844	-0.390218	-0.710836
O16	O	1.009375	-0.661231	-0.469272
O17	O	0.918681	-0.650420	-0.574784
C18	C	0.791605	-0.446464	-0.501102
C19	C	0.713733	-0.442705	-0.496891
C20	C	0.672005	-0.494947	-0.555353
C21	C	0.598838	-0.491403	-0.551400
C22	C	0.567399	-0.435621	-0.488979
C23	C	0.609132	-0.383372	-0.430514
C24	C	0.682299	-0.386912	-0.434472
C25	C	0.349126	-0.419238	-0.470663
C26	C	0.275954	-0.415704	-0.466707
C27	C	0.265664	-0.523734	-0.587594
C28	C	0.338833	-0.527273	-0.591544
C29	C	0.380560	-0.475021	-0.533082
N30	N	0.492610	-0.431999	-0.484934
N31	N	0.455348	-0.478639	-0.537131
C32	C	0.962488	-0.688375	-0.523839
C33	C	0.957786	-0.788088	-0.529366
C34	C	1.043479	-0.986654	-0.429978
C35	C	1.039063	-1.080343	-0.435168
C36	C	0.944544	-1.069158	-0.544939
C37	C	0.948959	-0.975468	-0.539749
C38	C	0.998428	-0.934220	-0.482266
C39	C	1.002839	-0.840529	-0.477072
C40	C	0.908324	-0.829345	-0.586847
C41	C	0.903908	-0.923034	-0.592037
C42	C	1.156357	-0.464167	-0.520935
C43	C	1.234226	-0.467947	-0.525169
C44	C	0.963772	-0.441211	-0.744987
C45	C	0.959573	-0.435207	-0.844699
C46	C	0.984825	-0.221310	-0.498130
C47	C	0.989597	-0.121599	-0.492646
C48	C	0.911602	-0.367203	-0.979646
C49	C	0.915544	-0.372842	-0.885958
C50	C	0.999663	-0.491936	-0.897135
C51	C	0.995720	-0.486297	-0.990824
C52	C	0.951687	-0.423930	-1.032076
C53	C	0.947741	-0.418296	-1.125766
C54	C	1.031862	-0.537385	-1.136941
C55	C	1.035805	-0.543024	-1.043253
C56	C	0.983484	-0.469268	-0.277920
C57	C	0.987831	-0.475025	-0.178202
H58	H	0.697597	-0.540375	-0.606180
C59	C	0.395020	-0.361769	-0.406356
H60	H	0.443098	-0.371854	-0.417656
H61	H	0.384936	-0.377852	-0.346129
H62	H	0.385347	-0.300136	-0.415624
H63	H	0.882904	-0.326647	-0.843273
H64	H	1.083753	-0.953070	-0.383166
H65	H	1.075750	-1.123032	-0.392591
C66	C	0.849495	-0.968413	-0.655259
H67	H	0.853314	-1.031721	-0.650858
H68	H	0.857887	-0.949890	-0.715250
H69	H	0.803708	-0.951631	-0.638659
C70	C	0.552937	-0.548871	-0.615704
H71	H	0.504859	-0.538767	-0.604416
H72	H	0.562603	-0.610501	-0.606443
H73	H	0.563024	-0.532783	-0.675935
C74	C	0.373410	-0.588628	-0.660212
H75	H	0.338079	-0.619229	-0.694470
H76	H	0.401532	-0.631112	-0.629528
H77	H	0.401945	-0.553388	-0.699014
C78	C	1.084234	-0.611626	-0.997871
H79	H	1.080838	-0.606865	-0.934564
H80	H	1.131288	-0.599865	-1.015061
H81	H	1.070441	-0.670481	-1.015981
H82	H	0.231683	-0.566274	-0.635192
H83	H	0.904274	-1.102758	-0.591746
C84	C	1.048096	-0.560529	-0.851747
H85	H	1.044700	-0.555761	-0.788441
H86	H	1.095149	-0.548761	-0.868938
H87	H	1.034309	-0.619388	-0.869851
C88	C	0.241373	-0.354335	-0.398047
H89	H	0.276702	-0.323715	-0.363802
H90	H	0.212837	-0.389563	-0.359244
H91	H	0.213252	-0.311853	-0.428745
H92	H	0.911887	-0.367513	-1.159351
C93	C	1.075960	-0.599785	-1.194615
H94	H	1.067310	-0.587493	-1.256322
H95	H	1.063471	-0.660486	-1.182016
H96	H	1.124309	-0.589857	-1.181098
H97	H	0.875746	-0.316424	-1.013234
C98	C	0.574552	-0.322016	-0.361850
H99	H	0.525000	-0.327397	-0.367857
H100	H	0.588863	-0.261544	-0.372403
H101	H	0.588452	-0.339270	-0.302919
C102	C	0.858767	-0.771666	-0.644369
H103	H	0.868483	-0.709959	-0.633051
H104	H	0.811534	-0.785594	-0.629485
H105	H	0.865724	-0.783851	-0.706063
H106	H	0.716273	-0.344366	-0.386871
H107	H	1.043117	-0.806946	-0.430263
