data_functionalizedCrystal
_audit_creation_method	'MofGen! by Chris Wilmer'
_symmetry_space_group_name_H-M	'P1'
_symmetry_Int_Tables_number	1
_symmetry_cell_setting	triclinic
loop_
_symmetry_equiv_pos_as_xyz
  x,y,z
_cell_length_a	12.811457
_cell_length_b	17.038278
_cell_length_c	11.892095
_cell_angle_alpha	94.163889
_cell_angle_beta	91.498327
_cell_angle_gamma	87.561795
loop_
_atom_site_label
_atom_site_type_symbol
_atom_site_fract_x
_atom_site_fract_y
_atom_site_fract_z
O1	O	1.398771	0.107946	0.049373
O2	O	1.898771	0.607946	0.549373
O3	O	1.096281	0.117760	0.018359
O4	O	1.596281	0.617760	0.518359
O5	O	1.245727	-0.000977	0.033711
O6	O	1.745727	0.499023	0.533711
O7	O	1.249324	0.226683	0.034022
O8	O	1.749324	0.726683	0.534022
O9	O	1.233265	0.008908	0.220438
O10	O	1.733265	0.508908	0.720438
O11	O	1.083819	0.127644	0.205086
O12	O	1.583819	0.627644	0.705086
O13	O	1.386309	0.117831	0.236101
O14	O	1.886309	0.617831	0.736101
Zn15	Zn	1.233085	0.124307	0.250241
Zn16	Zn	1.733085	0.624307	0.750241
Zn17	Zn	1.249504	0.111283	0.004219
Zn18	Zn	1.749504	0.611283	0.504219
O19	O	1.236862	0.236567	0.220749
O20	O	1.736862	0.736567	0.720749
C21	C	1.051154	0.121849	0.107735
C22	C	1.551154	0.621849	0.607735
C23	C	0.935258	0.119299	0.095854
C24	C	1.435258	0.619299	0.595854
C25	C	0.703890	0.125269	0.277120
C26	C	1.203890	0.625269	0.777120
C27	C	0.594995	0.122872	0.265962
C28	C	1.094995	0.622872	0.765962
C29	C	0.608572	0.112104	0.062381
C30	C	1.108572	0.612104	0.562381
C31	C	0.717467	0.114500	0.073539
C32	C	1.217467	0.614500	0.573539
C33	C	0.765122	0.121084	0.180912
C34	C	1.265122	0.621084	0.680912
C35	C	0.874018	0.123486	0.192069
C36	C	1.374018	0.623486	0.692069
C37	C	0.887594	0.112712	-0.011511
C38	C	1.387594	0.612712	0.488489
C39	C	0.778699	0.110316	-0.022669
C40	C	1.278699	0.610316	0.477331
C41	C	1.236226	-0.025192	0.126744
C42	C	1.736226	0.474808	0.626744
C43	C	1.226469	-0.112071	0.125758
C44	C	1.726469	0.387929	0.625758
C45	C	1.166542	-0.603021	0.119511
C46	C	1.666542	-0.103021	0.619511
C47	C	1.175716	-0.521388	0.120462
C48	C	1.675716	-0.021388	0.620462
C49	C	1.274469	-0.489076	0.130603
C50	C	1.774469	0.010924	0.630603
C51	C	1.364054	-0.538401	0.139781
C52	C	1.864054	-0.038401	0.639781
C53	C	1.354880	-0.620032	0.138821
C54	C	1.854880	-0.120032	0.638821
C55	C	1.306881	-0.243027	0.133977
C56	C	1.806881	0.256973	0.633977
C57	C	1.316048	-0.161389	0.134939
C58	C	1.816048	0.338611	0.634939
C59	C	1.127709	-0.144383	0.115618
C60	C	1.627709	0.355617	0.615618
C61	C	1.118543	-0.226016	0.114666
C62	C	1.618543	0.273984	0.614666
C63	C	1.208129	-0.275334	0.123838
C64	C	1.708129	0.224666	0.623838
C65	C	1.283848	-0.405634	0.131579
C66	C	1.783848	0.094366	0.631579
C67	C	1.198749	-0.358775	0.122854
C68	C	1.698749	0.141225	0.622854
C69	C	1.431435	0.113741	0.146722
C70	C	1.931435	0.613741	0.646722
C71	C	1.547332	0.116291	0.158596
C72	C	2.047332	0.616291	0.658596
C73	C	1.246363	0.260782	0.127713
C74	C	1.746363	0.760782	0.627713
C75	C	1.256121	0.347660	0.128691
C76	C	1.756121	0.847660	0.628691
N77	N	1.221887	0.133195	0.418144
N78	N	1.721887	0.633195	0.918144
N79	N	1.260710	0.102390	-0.163684
N80	N	1.760710	0.602390	0.336316
C81	C	1.338628	0.040500	0.666784
C82	C	1.838628	0.540500	1.166784
C83	C	1.330808	0.046718	0.784323
C84	C	1.830808	0.546718	1.284323
C85	C	1.198424	0.151845	0.770762
C86	C	1.698424	0.651845	1.270762
C87	C	1.206244	0.145627	0.653223
C88	C	1.706244	0.645627	1.153223
C89	C	1.276349	0.089953	0.601239
C90	C	1.776349	0.589953	1.101239
C91	C	1.284173	0.083739	0.483698
C92	C	1.784173	0.583739	0.983698
C93	C	1.151784	0.188862	0.470140
C94	C	1.651784	0.688862	0.970140
C95	C	1.143965	0.195080	0.587678
C96	C	1.643965	0.695080	1.087678
H97	H	0.912816	0.128851	0.279498
H98	H	1.412816	0.628851	0.779498
H99	H	1.086884	0.240406	0.630017
H100	H	1.586884	0.740406	1.130017
H101	H	0.545143	0.126284	0.344305
H102	H	1.045143	0.626284	0.844305
Br103	Br	0.543887	0.103084	-0.083327
Br104	Br	1.043887	0.603084	0.416673
H105	H	1.395717	-0.004826	0.624458
H106	H	1.895717	0.495174	1.124458
H107	H	1.444461	-0.512085	0.148040
H108	H	1.944461	-0.012085	0.648040
H109	H	0.742690	0.130640	0.364548
H110	H	1.242690	0.630640	0.864548
Br111	Br	1.103272	0.227387	0.841322
Br112	Br	1.603272	0.727387	1.341322
Br113	Br	0.714018	0.101350	-0.168382
Br114	Br	1.214018	0.601350	0.331618
Br115	Br	1.476457	-0.686967	0.151269
Br116	Br	1.976457	-0.186967	0.651269
Br117	Br	1.064732	-0.402630	0.109080
Br118	Br	1.564732	0.097370	0.609080
H119	H	0.937461	0.109309	-0.089851
H120	H	1.437461	0.609309	0.410149
H121	H	1.364251	-0.379314	0.139873
H122	H	1.864251	0.120686	0.639873
Br123	Br	1.415328	-0.020403	0.873275
Br124	Br	1.915328	0.479597	1.373275
Br125	Br	1.032513	-0.646865	0.105761
Br126	Br	1.532513	-0.146865	0.605761
H127	H	1.101076	0.229132	0.416759
H128	H	1.601076	0.729132	0.916759
H129	H	1.341258	0.038409	0.441374
H130	H	1.841258	0.538409	0.941374
Br131	Br	0.984516	-0.269863	0.100904
Br132	Br	1.484516	0.230137	0.600904
H133	H	1.102771	-0.481236	0.112983
H134	H	1.602771	0.018764	0.612983
H135	H	1.054773	-0.104219	0.108150
H136	H	1.554773	0.395781	0.608150
Br137	Br	1.428462	-0.309949	0.146434
Br138	Br	1.928462	0.190051	0.646434
Br139	Br	1.450076	-0.117535	0.148740
Br140	Br	1.950076	0.382465	0.648740
