data_functionalizedCrystal
_audit_creation_method	'MofGen! by Chris Wilmer'
_symmetry_space_group_name_H-M	'P1'
_symmetry_Int_Tables_number	1
_symmetry_cell_setting	triclinic
loop_
_symmetry_equiv_pos_as_xyz
  x,y,z
_cell_length_a	12.996460
_cell_length_b	11.792241
_cell_length_c	11.792241
_cell_angle_alpha	95.806584
_cell_angle_beta	90.006284
_cell_angle_gamma	89.998631
loop_
_atom_site_label
_atom_site_type_symbol
_atom_site_fract_x
_atom_site_fract_y
_atom_site_fract_z
O1	O	0.085467	-1.506910	0.155570
O2	O	0.418801	-1.173577	0.488903
O3	O	0.752134	-0.840244	0.822237
O4	O	0.085491	-1.176569	0.171603
O5	O	0.418825	-0.843236	0.504936
O6	O	0.752158	-0.509903	0.838270
O7	O	0.085472	-1.349756	-0.001584
O8	O	0.418805	-1.016423	0.331749
O9	O	0.752138	-0.683090	0.665083
O10	O	0.085487	-1.333723	0.328757
O11	O	0.418820	-1.000390	0.662090
O12	O	0.752154	-0.667057	0.995424
O13	O	-0.085662	-1.349738	-0.001594
O14	O	0.247671	-1.016405	0.331739
O15	O	0.581004	-0.683071	0.665073
O16	O	-0.085642	-1.176551	0.171593
O17	O	0.247691	-0.843218	0.504926
O18	O	0.581024	-0.509884	0.838260
O19	O	-0.085666	-1.506892	0.155560
O20	O	0.247667	-1.173559	0.488894
O21	O	0.581000	-0.840225	0.822227
Cu22	Cu	-0.101280	-1.341720	0.163576
Cu23	Cu	0.232053	-1.008387	0.496909
Cu24	Cu	0.565386	-0.675053	0.830242
Cu25	Cu	0.101105	-1.341741	0.163587
Cu26	Cu	0.434439	-1.008408	0.496921
Cu27	Cu	0.767772	-0.675075	0.830254
O28	O	-0.085647	-1.333705	0.328747
O29	O	0.247687	-1.000372	0.662081
O30	O	0.581020	-0.667038	0.995414
C31	C	-0.000073	-1.134269	0.170591
C32	C	0.333261	-0.800936	0.503924
C33	C	0.666594	-0.467603	0.837258
C34	C	-0.000064	-1.008255	0.167576
C35	C	0.333270	-0.674922	0.500910
C36	C	0.666603	-0.341589	0.834243
C37	C	-0.000095	-1.348740	-0.043880
C38	C	0.333238	-1.015407	0.289453
C39	C	0.666572	-0.682073	0.622787
C40	C	-0.000094	-1.345726	-0.169894
C41	C	0.333240	-1.012392	0.163440
C42	C	0.666573	-0.679059	0.496773
N43	N	-0.243627	-1.341713	0.163567
N44	N	0.089706	-1.008380	0.496900
N45	N	0.423039	-0.675046	0.830234
C46	C	-0.663442	-1.341740	0.163588
C47	C	-0.330108	-1.008407	0.496922
C48	C	0.003225	-0.675073	0.830255
C49	C	-0.546637	-1.341729	0.163586
C50	C	-0.213303	-1.008396	0.496920
C51	C	0.120030	-0.675062	0.830253
C52	C	-0.453538	-1.341727	0.163579
C53	C	-0.120205	-1.008394	0.496912
C54	C	0.213128	-0.675060	0.830245
C55	C	-0.336726	-1.341715	0.163575
C56	C	-0.003392	-1.008382	0.496908
C57	C	0.329941	-0.675048	0.830241
N58	N	0.243452	-1.341757	0.163587
N59	N	0.576786	-1.008424	0.496920
N60	N	0.910119	-0.675091	0.830254
C61	C	-0.000100	-1.549192	0.156572
C62	C	0.333233	-1.215859	0.489905
C63	C	0.666566	-0.882525	0.823239
C64	C	-0.000103	-1.675206	0.159587
C65	C	0.333231	-1.341873	0.492920
C66	C	0.666564	-1.008539	0.826253
C67	C	-0.000093	-0.777543	0.162034
C68	C	0.333240	-0.444210	0.495367
C69	C	0.666573	-0.110877	0.828700
C70	C	-0.000077	-0.905928	0.165113
C71	C	0.333256	-0.572595	0.498447
C72	C	0.666590	-0.239262	0.831780
C73	C	-0.000076	-1.340183	-0.400606
C74	C	0.333257	-1.006849	-0.067272
C75	C	0.666591	-0.673516	0.266061
C76	C	-0.000086	-1.343262	-0.272221
C77	C	0.333248	-1.009929	0.061113
C78	C	0.666581	-0.676596	0.394446
C79	C	-0.000078	-1.334721	0.371043
C80	C	0.333255	-1.001388	0.704376
C81	C	0.666589	-0.668055	1.037710
C82	C	-0.000072	-1.337736	0.497057
C83	C	0.333261	-1.004402	0.830390
C84	C	0.666594	-0.671069	1.163723
