data_functionalizedCrystal
_audit_creation_method	'MofGen! by Chris Wilmer'
_symmetry_space_group_name_H-M	'P1'
_symmetry_Int_Tables_number	1
_symmetry_cell_setting	triclinic
loop_
_symmetry_equiv_pos_as_xyz
  x,y,z
_cell_length_a	15.944551
_cell_length_b	15.944545
_cell_length_c	10.868271
_cell_angle_alpha	89.992762
_cell_angle_beta	90.000173
_cell_angle_gamma	83.497456
loop_
_atom_site_label
_atom_site_type_symbol
_atom_site_fract_x
_atom_site_fract_y
_atom_site_fract_z
O1	O	1.114521	0.108333	-0.102200
O2	O	1.364521	0.358333	0.147800
O3	O	1.614521	0.608333	0.397800
O4	O	1.864521	0.858333	0.647800
O5	O	0.869971	0.121689	-0.102231
O6	O	1.119971	0.371689	0.147769
O7	O	1.369971	0.621689	0.397769
O8	O	1.619971	0.871689	0.647769
O9	O	0.998927	-0.007264	-0.102200
O10	O	1.248927	0.242736	0.147800
O11	O	1.498927	0.492736	0.397800
O12	O	1.748927	0.742736	0.647800
O13	O	0.985566	0.237286	-0.102231
O14	O	1.235566	0.487286	0.147769
O15	O	1.485566	0.737286	0.397769
O16	O	1.735566	0.987286	0.647769
O17	O	0.998917	-0.007269	0.102445
O18	O	1.248917	0.242731	0.352445
O19	O	1.498917	0.492731	0.602445
O20	O	1.748917	0.742731	0.852445
O21	O	0.869961	0.121684	0.102414
O22	O	1.119961	0.371684	0.352414
O23	O	1.369961	0.621684	0.602414
O24	O	1.619961	0.871684	0.852414
O25	O	1.114511	0.108328	0.102445
O26	O	1.364511	0.358328	0.352445
O27	O	1.614511	0.608328	0.602445
O28	O	1.864511	0.858328	0.852445
Zn29	Zn	0.992234	0.115005	0.134921
Zn30	Zn	1.242234	0.365005	0.384921
Zn31	Zn	1.492234	0.615005	0.634921
Zn32	Zn	1.742234	0.865005	0.884921
Zn33	Zn	0.992248	0.115012	-0.134707
Zn34	Zn	1.242248	0.365012	0.115293
Zn35	Zn	1.492248	0.615012	0.365293
Zn36	Zn	1.742248	0.865012	0.615293
O37	O	0.985555	0.237281	0.102414
O38	O	1.235555	0.487281	0.352414
O39	O	1.485555	0.737281	0.602414
O40	O	1.735555	0.987281	0.852414
C41	C	0.838672	0.121132	0.000087
C42	C	1.088672	0.371132	0.250087
C43	C	1.338672	0.621132	0.500087
C44	C	1.588672	0.871132	0.750087
C45	C	0.745426	0.119470	0.000076
C46	C	0.995426	0.369470	0.250076
C47	C	1.245426	0.619470	0.500076
C48	C	1.495426	0.869470	0.750076
C49	C	0.998368	-0.038561	0.000123
C50	C	1.248368	0.211439	0.250123
C51	C	1.498368	0.461439	0.500123
C52	C	1.748368	0.711439	0.750123
C53	C	0.996708	-0.131807	0.000127
C54	C	1.246708	0.118193	0.250127
C55	C	1.496708	0.368193	0.500127
C56	C	1.746708	0.618193	0.750127
C57	C	0.530571	0.035565	0.000110
C58	C	0.780571	0.285565	0.250110
C59	C	1.030571	0.535565	0.500110
C60	C	1.280571	0.785565	0.750110
C61	C	0.469556	0.074530	-0.100795
C62	C	0.719556	0.324530	0.149205
C63	C	0.969556	0.574530	0.399205
C64	C	1.219556	0.824530	0.649205
C65	C	0.574700	0.116463	0.000091
C66	C	0.824700	0.366463	0.250091
C67	C	1.074700	0.616463	0.500091
C68	C	1.324700	0.866463	0.750091
C69	C	0.469567	0.074544	0.100968
C70	C	0.719567	0.324544	0.350968
C71	C	0.969567	0.574544	0.600968
C72	C	1.219567	0.824544	0.850968
C73	C	0.409788	0.113552	0.000111
C74	C	0.659788	0.363552	0.250111
C75	C	0.909788	0.613552	0.500111
C76	C	1.159788	0.863552	0.750111
C77	C	0.514913	0.155450	-0.100898
C78	C	0.764913	0.405450	0.149102
C79	C	1.014913	0.655450	0.399102
C80	C	1.264913	0.905450	0.649102
C81	C	0.514931	0.155453	0.100956
C82	C	0.764931	0.405453	0.350956
C83	C	1.014931	0.655453	0.600956
C84	C	1.264931	0.905453	0.850956
C85	C	0.453933	0.194476	0.000026
C86	C	0.703933	0.444476	0.250026
C87	C	0.953933	0.694476	0.500026
C88	C	1.203933	0.944476	0.750026
C89	C	0.669703	0.118137	0.000078
C90	C	0.919703	0.368137	0.250078
C91	C	1.169703	0.618137	0.500078
C92	C	1.419703	0.868137	0.750078
C93	C	0.314787	0.111884	0.000114
C94	C	0.564787	0.361884	0.250114
C95	C	0.814787	0.611884	0.500114
C96	C	1.064787	0.861884	0.750114
C97	C	0.911814	-0.402440	0.000091
C98	C	1.161814	-0.152440	0.250091
C99	C	1.411814	0.097560	0.500091
C100	C	1.661814	0.347560	0.750091
C101	C	0.952749	-0.351852	-0.100805
C102	C	1.202749	-0.101852	0.149195
C103	C	1.452749	0.148148	0.399195
C104	C	1.702749	0.398148	0.649195
C105	C	0.990787	-0.467451	0.000091
C106	C	1.240787	-0.217451	0.250091
C107	C	1.490787	0.032549	0.500091
C108	C	1.740787	0.282549	0.750091
C109	C	0.952759	-0.351884	0.100959
C110	C	1.202759	-0.101884	0.350959
C111	C	1.452759	0.148116	0.600959
C112	C	1.702759	0.398116	0.850959
C113	C	0.993692	-0.302537	0.000111
C114	C	1.243692	-0.052537	0.250111
C115	C	1.493692	0.197463	0.500111
C116	C	1.743692	0.447463	0.750111
C117	C	1.031700	-0.418091	-0.100888
C118	C	1.281700	-0.168091	0.149112
C119	C	1.531700	0.081909	0.399112
C120	C	1.781700	0.331909	0.649112
C121	C	1.031700	-0.418127	0.100966
C122	C	1.281700	-0.168127	0.350966
C123	C	1.531700	0.081873	0.600966
C124	C	1.781700	0.331873	0.850966
C125	C	1.072692	-0.367571	0.000046
C126	C	1.322692	-0.117571	0.250046
C127	C	1.572692	0.132429	0.500046
C128	C	1.822692	0.382429	0.750046
C129	C	0.989112	-0.562453	0.000079
C130	C	1.239112	-0.312453	0.250079
C131	C	1.489112	-0.062453	0.500079
C132	C	1.739112	0.187547	0.750079
C133	C	0.995374	-0.207538	0.000114
C134	C	1.245374	0.042462	0.250114
C135	C	1.495374	0.292462	0.500114
C136	C	1.745374	0.542462	0.750114
C137	C	1.145810	0.108885	0.000124
C138	C	1.395810	0.358885	0.250124
C139	C	1.645810	0.608885	0.500124
C140	C	1.895810	0.858885	0.750124
C141	C	1.239056	0.110547	0.000127
C142	C	1.489056	0.360547	0.250127
C143	C	1.739056	0.610547	0.500127
C144	C	1.989056	0.860547	0.750127
C145	C	0.986114	0.268578	0.000088
C146	C	1.236114	0.518578	0.250088
C147	C	1.486114	0.768578	0.500088
C148	C	1.736114	1.018578	0.750088
C149	C	0.987774	0.361824	0.000076
C150	C	1.237774	0.611824	0.250076
C151	C	1.487774	0.861824	0.500076
C152	C	1.737774	1.111824	0.750076
N153	N	0.992231	0.115000	0.318935
N154	N	1.242231	0.365000	0.568935
N155	N	1.492231	0.615000	0.818935
N156	N	1.742231	0.865000	1.068935
N157	N	0.992258	0.115010	-0.318721
N158	N	1.242258	0.365010	-0.068721
N159	N	1.492258	0.615010	0.181279
N160	N	1.742258	0.865010	0.431279
C161	C	0.992244	0.115010	0.569941
C162	C	1.242244	0.365010	0.819941
C163	C	1.492244	0.615010	1.069941
C164	C	1.742244	0.865010	1.319941
C165	C	0.992234	0.115007	0.430264
C166	C	1.242234	0.365007	0.680264
C167	C	1.492234	0.615007	0.930264
C168	C	1.742234	0.865007	1.180264
H169	H	0.563906	-0.031573	-0.000006
H170	H	0.813906	0.218427	0.249994
H171	H	1.063906	0.468427	0.499994
H172	H	1.313906	0.718427	0.749994
H173	H	1.140757	-0.352081	-0.000003
H174	H	1.390757	-0.102081	0.249997
H175	H	1.640757	0.147919	0.499997
H176	H	1.890757	0.397919	0.749997
H177	H	0.449451	0.040316	-0.186095
H178	H	0.699451	0.290316	0.063905
H179	H	0.949451	0.540316	0.313905
H180	H	1.199451	0.790316	0.563905
H181	H	0.449478	0.040311	0.186273
H182	H	0.699478	0.290311	0.436273
H183	H	0.949478	0.540311	0.686273
H184	H	1.199478	0.790311	0.936273
H185	H	0.534904	0.189642	-0.186299
H186	H	0.784904	0.439642	0.063701
H187	H	1.034904	0.689642	0.313701
H188	H	1.284904	0.939642	0.563701
H189	H	0.420773	0.261684	-0.000039
H190	H	0.670773	0.511684	0.249961
H191	H	0.920773	0.761684	0.499961
H192	H	1.170773	1.011684	0.749961
H193	H	0.843802	-0.418092	-0.000016
H194	H	1.093802	-0.168092	0.249984
H195	H	1.343802	0.081908	0.499984
H196	H	1.593802	0.331908	0.749984
H197	H	1.065018	-0.447078	0.186278
H198	H	1.315018	-0.197078	0.436278
H199	H	1.565018	0.052922	0.686278
H200	H	1.815018	0.302922	0.936278
H201	H	0.919401	-0.322915	-0.186114
H202	H	1.169401	-0.072915	0.063886
H203	H	1.419401	0.177085	0.313886
H204	H	1.669401	0.427085	0.563886
H205	H	1.065033	-0.446895	-0.186282
H206	H	1.315033	-0.196895	0.063718
H207	H	1.565033	0.053105	0.313718
H208	H	1.815033	0.303105	0.563718
H209	H	0.919389	-0.322972	0.186256
H210	H	1.169389	-0.072972	0.436256
H211	H	1.419389	0.177028	0.686256
H212	H	1.669389	0.427028	0.936256
H213	H	0.535057	0.189639	0.186260
H214	H	0.785057	0.439639	0.436260
H215	H	1.035057	0.689639	0.686260
H216	H	1.285057	0.939639	0.936260
