data_functionalizedCrystal
_audit_creation_method	'MofGen! by Chris Wilmer'
_symmetry_space_group_name_H-M	'P1'
_symmetry_Int_Tables_number	1
_symmetry_cell_setting	triclinic
loop_
_symmetry_equiv_pos_as_xyz
  x,y,z
_cell_length_a	14.971487
_cell_length_b	15.944545
_cell_length_c	13.448316
_cell_angle_alpha	90.005758
_cell_angle_beta	90.001095
_cell_angle_gamma	96.444712
loop_
_atom_site_label
_atom_site_type_symbol
_atom_site_fract_x
_atom_site_fract_y
_atom_site_fract_z
O1	O	-1.186824	0.109463	0.082554
O2	O	-0.926410	0.122571	0.082588
O3	O	-1.063731	-0.006251	0.082558
O4	O	-1.049503	0.238285	0.082584
O5	O	-1.063718	-0.006253	-0.082825
O6	O	-0.926396	0.122570	-0.082796
O7	O	-1.186811	0.109462	-0.082830
Cu8	Cu	-1.056602	0.116016	-0.097914
Cu9	Cu	-1.056618	0.116017	0.097672
O10	O	-1.049489	0.238284	-0.082800
C11	C	-0.893079	0.121984	-0.000100
C12	C	-0.793784	0.120227	-0.000087
C13	C	-1.063135	-0.037547	-0.000134
C14	C	-1.061367	-0.130795	-0.000137
C15	C	-0.736475	0.195907	-0.000079
C16	C	-0.643178	0.194251	-0.000092
C17	C	-0.607191	0.116914	-0.000106
C18	C	-0.664507	0.041229	-0.000116
C19	C	-0.757802	0.042886	-0.000111
C20	C	-0.470048	0.037781	-0.000126
C21	C	-0.376746	0.036124	-0.000130
C22	C	-0.355423	0.189146	-0.000107
C23	C	-0.448719	0.190803	-0.000102
C24	C	-0.506029	0.115117	-0.000111
C25	C	-0.970966	-0.401514	-0.000105
C26	C	-1.014557	-0.350886	0.081433
C27	C	-1.055062	-0.466444	-0.000108
C28	C	-1.014566	-0.350914	-0.081623
C29	C	-1.058155	-0.301528	-0.000124
C30	C	-1.098631	-0.417045	0.081497
C31	C	-1.098627	-0.417077	-0.081632
C32	C	-1.142280	-0.366482	-0.000074
C33	C	-1.053278	-0.561448	-0.000098
C34	C	-1.059946	-0.206527	-0.000127
C35	C	-0.220142	0.110048	-0.000134
C36	C	-0.319437	0.111804	-0.000122
C37	C	-1.050086	0.269579	-0.000105
C38	C	-1.051854	0.362827	-0.000096
N39	N	-1.056597	0.116014	-0.235478
C40	C	-1.110843	0.167045	-0.287516
C41	C	-1.110855	0.167041	-0.391619
C42	C	-1.056614	0.116011	-0.443682
C43	C	-1.002366	0.064974	-0.391637
C44	C	-1.002360	0.064974	-0.287536
C45	C	-1.002380	0.064980	-0.608617
C46	C	-1.002384	0.064981	-0.712726
C47	C	-1.110874	0.167047	-0.712700
C48	C	-1.110869	0.167047	-0.608599
C49	C	-1.056619	0.116011	-0.556561
N50	N	-1.056630	0.116012	0.235236
H51	H	-0.765768	0.258883	-0.000068
C52	C	-1.240198	-0.345459	-0.000028
N53	N	-1.313949	-0.329625	0.000011
C54	C	-0.966560	-0.311902	-0.174750
N55	N	-0.930397	-0.282522	-0.244889
C56	C	-1.146554	-0.456149	-0.174776
N57	N	-1.182644	-0.485580	-0.244941
C58	C	-0.292381	0.272402	-0.000103
N59	N	-0.244893	0.335107	-0.000097
C60	C	-1.170494	0.223213	-0.448856
N61	N	-1.215405	0.265535	-0.491966
H62	H	-1.155007	0.208605	-0.245133
C63	C	-1.170554	0.223183	-0.769944
N64	N	-1.215501	0.265465	-0.813064
C65	C	-1.146578	-0.455911	0.174731
N66	N	-1.182687	-0.485186	0.244956
C67	C	-0.488302	0.275877	-0.000091
N68	N	-0.518116	0.339956	-0.000089
C69	C	-0.337162	-0.048950	-0.000146
N70	N	-0.307348	-0.113029	-0.000159
C71	C	-0.942730	0.008833	-0.769994
N72	N	-0.897801	-0.033462	-0.813128
C73	C	-0.942683	0.008838	-0.230295
N74	N	-0.897734	-0.033447	-0.187182
C75	C	-0.624918	-0.043842	-0.000133
N76	N	-0.595100	-0.107920	-0.000142
C77	C	-0.820842	-0.040368	-0.000116
N78	N	-0.868323	-0.103077	-0.000123
C79	C	-0.873127	-0.422760	0.000016
N80	N	-0.799436	-0.438764	0.000112
H81	H	-0.979047	-0.321985	0.150376
C82	C	-0.942700	0.008840	-0.551378
N83	N	-0.897746	-0.033440	-0.508265
H84	H	-0.516708	-0.023851	-0.000135
H85	H	-0.596520	0.255877	-0.000085
H86	H	-1.155032	0.208605	-0.566212
H87	H	-0.958207	0.023420	-0.434036
