data_functionalizedCrystal
_audit_creation_method	'MofGen! by Chris Wilmer'
_symmetry_space_group_name_H-M	'P1'
_symmetry_Int_Tables_number	1
_symmetry_cell_setting	triclinic
loop_
_symmetry_equiv_pos_as_xyz
  x,y,z
_cell_length_a	12.759401
_cell_length_b	25.639239
_cell_length_c	12.759393
_cell_angle_alpha	89.964022
_cell_angle_beta	89.979062
_cell_angle_gamma	90.040211
loop_
_atom_site_label
_atom_site_type_symbol
_atom_site_fract_x
_atom_site_fract_y
_atom_site_fract_z
Zn1	Zn	1.606091	-0.208104	-0.593980
Zn2	Zn	1.605909	-0.295549	-0.418283
Zn3	Zn	1.430390	-0.208132	-0.418315
Zn4	Zn	1.430308	-0.295513	-0.593921
O5	O	1.518175	-0.251825	-0.506125
O6	O	1.753088	-0.219708	-0.570685
O7	O	1.582584	-0.283980	-0.271266
O8	O	1.453808	-0.134963	-0.441656
O9	O	1.752954	-0.283953	-0.441601
O10	O	1.582895	-0.134943	-0.570716
O11	O	1.453631	-0.219755	-0.271290
O12	O	1.283358	-0.219720	-0.441598
O13	O	1.453669	-0.283891	-0.740950
O14	O	1.283298	-0.283918	-0.570615
O15	O	1.582816	-0.219672	-0.740993
O16	O	1.582505	-0.368710	-0.441544
O17	O	1.453492	-0.368683	-0.570584
C18	C	1.245207	-0.251818	-0.506104
C19	C	1.128431	-0.251828	-0.506120
C20	C	1.517998	-0.387667	-0.506077
C21	C	1.518018	-0.445781	-0.506091
C22	C	1.073565	-0.285307	-0.573193
C23	C	0.963841	-0.285309	-0.573214
C24	C	0.963858	-0.218352	-0.439079
C25	C	1.073580	-0.218347	-0.439065
C26	C	0.813929	-0.304070	-0.697071
C27	C	0.759060	-0.337557	-0.764135
C28	C	0.794614	-0.388581	-0.780073
C29	C	0.885037	-0.406129	-0.728931
C30	C	0.939901	-0.372645	-0.661860
C31	C	0.904348	-0.321613	-0.645942
C32	C	1.223494	-0.199592	-0.315206
C33	C	1.278359	-0.166110	-0.248129
C34	C	1.242807	-0.115085	-0.232180
C35	C	1.152381	-0.097539	-0.283303
C36	C	1.097515	-0.131021	-0.350380
C37	C	1.133075	-0.182046	-0.366331
C38	C	1.585527	-0.806146	-0.439048
C39	C	1.585568	-0.860750	-0.439062
O40	O	1.642783	-0.888988	-0.382007
N41	N	1.518359	-0.888064	-0.506194
C42	C	1.451113	-0.860770	-0.573324
O43	O	1.393952	-0.889017	-0.630428
C44	C	1.451079	-0.806167	-0.573315
C45	C	1.518284	-0.778856	-0.506171
C46	C	1.652728	-0.778835	-0.371910
C47	C	1.652685	-0.724234	-0.371895
C48	C	1.585442	-0.696945	-0.439018
C49	C	1.518242	-0.724255	-0.506156
C50	C	1.383839	-0.778874	-0.640449
C51	C	1.383810	-0.724267	-0.640435
C52	C	1.451016	-0.696957	-0.573291
C53	C	1.450956	-0.642365	-0.573263
N54	N	1.518165	-0.615052	-0.506131
C55	C	1.585408	-0.642341	-0.439008
C56	C	1.451192	-0.975441	-0.573341
C57	C	1.451221	-1.030043	-0.573346
C58	C	1.585677	-1.030019	-0.439085
C59	C	1.585642	-0.975416	-0.439075
C60	C	1.518401	-0.948127	-0.506208
C61	C	1.585313	-0.527676	-0.438981
C62	C	1.585261	-0.473071	-0.438969
C63	C	1.450810	-0.473100	-0.573233
C64	C	1.450857	-0.527700	-0.573242
C65	C	1.518117	-0.554987	-0.506112
O66	O	1.393774	-0.614093	-0.630292
O67	O	1.642569	-0.614088	-0.381925
C68	C	1.792208	-0.251831	-0.506146
C69	C	1.908984	-0.251834	-0.506156
C70	C	1.518253	-0.251774	-0.780158
C71	C	1.518287	-0.251753	-0.896935
C72	C	1.518381	-0.115452	-0.506196
C73	C	1.518468	-0.057337	-0.506226
C74	C	1.585539	-0.218309	-0.951821
C75	C	1.585556	-0.218286	-1.061546
C76	C	1.451068	-0.285156	-1.061487
C77	C	1.451045	-0.285176	-0.951765
C78	C	1.623220	-0.156599	-1.211536
C79	C	1.690489	-0.123160	-1.266426
C80	C	1.793008	-0.115142	-1.230836
C81	C	1.828280	-0.140572	-1.140358
C82	C	1.761018	-0.174015	-1.085473
C83	C	1.658484	-0.182023	-1.121061
C84	C	1.413392	-0.346864	-0.801773
C85	C	1.346134	-0.380310	-0.746887
C86	C	1.243613	-0.388333	-0.782474
C87	C	1.208344	-0.362913	-0.872956
C88	C	1.275603	-0.329466	-0.927843
C89	C	1.378123	-0.321443	-0.892247
C90	C	1.518157	-0.251837	-0.233157
C91	C	1.518327	-0.251711	-0.116381
H92	H	1.013520	-0.386932	-0.620221
O93	O	0.671276	-0.320420	-0.813772
C94	C	0.651650	-0.268203	-0.785319
H95	H	0.727616	-0.249238	-0.757744
H96	H	0.619953	-0.246008	-0.855954
H97	H	0.591511	-0.267139	-0.719255
O98	O	1.927811	-0.132781	-1.105614
C99	C	1.924967	-0.111701	-1.003619
H100	H	1.847093	-0.121988	-0.964935
H101	H	1.992063	-0.128584	-0.955385
H102	H	1.933445	-0.067488	-1.008059
H103	H	1.246878	-0.308768	-1.001518
H104	H	1.847778	-0.087915	-1.275535
O105	O	1.126801	-0.317769	-0.638486
C106	C	1.100035	-0.306412	-0.743240
H107	H	1.069928	-0.264647	-0.748698
H108	H	1.172211	-0.310943	-0.795121
H109	H	1.036323	-0.334461	-0.770610
O110	O	1.295952	-0.082499	-0.167016
C111	C	1.245194	-0.033695	-0.163933
H112	H	1.159519	-0.038725	-0.187162
H113	H	1.249865	-0.017107	-0.081190
H114	H	1.285152	-0.005790	-0.220952
H115	H	0.749932	-0.415847	-0.834679
O116	O	0.779543	-0.254467	-0.681705
C117	C	0.857831	-0.218966	-0.713409
H118	H	0.912200	-0.238672	-0.772188
H119	H	0.819633	-0.183535	-0.751530
H120	H	0.904965	-0.205984	-0.642149
O121	O	1.650507	-0.554240	-0.373733
C122	C	1.590766	-0.585877	-0.305808
H123	H	1.511129	-0.594088	-0.342782
H124	H	1.633606	-0.624255	-0.291787
H125	H	1.579256	-0.564872	-0.227929
H126	H	1.123421	-0.055993	-0.270300
H127	H	1.252456	-0.241140	-0.328196
O128	O	1.178400	-0.420825	-0.729011
C129	C	1.231518	-0.441560	-0.641539
H130	H	1.298931	-0.414590	-0.619101
H131	H	1.174819	-0.445106	-0.572828
H132	H	1.263756	-0.481750	-0.661955
O133	O	0.919451	-0.455707	-0.744559
C134	C	0.851623	-0.481502	-0.814703
H135	H	0.808392	-0.451460	-0.864382
H136	H	0.899199	-0.508231	-0.867893
H137	H	0.792432	-0.505673	-0.768557
H138	H	1.661760	-0.102455	-1.340093
H139	H	1.351989	-0.180401	-0.206501
O140	O	1.523560	-0.164330	-1.245959
C141	C	1.452195	-0.148625	-1.167731
H142	H	1.491757	-0.119344	-1.113387
H143	H	1.380988	-0.129712	-1.205994
H144	H	1.426132	-0.184116	-1.120555
H145	H	1.496871	-0.340330	-0.772783
O146	O	1.651185	-1.056538	-0.374073
C147	C	1.719003	-1.088048	-0.434028
H148	H	1.725328	-1.071554	-0.516782
H149	H	1.799916	-1.088610	-0.396184
H150	H	1.686605	-1.129459	-0.437599
H151	H	1.396324	-0.312369	-1.106143
O152	O	0.910411	-0.185880	-0.373977
C153	C	0.801802	-0.193053	-0.388390
H154	H	0.786781	-0.233425	-0.422646
H155	H	0.760066	-0.189457	-0.309714
H156	H	0.770734	-0.162077	-0.444462
O157	O	1.009722	-0.113886	-0.400003
C158	C	0.990086	-0.061673	-0.371524
H159	H	1.066050	-0.042707	-0.343943
H160	H	0.958382	-0.039472	-0.442148
H161	H	0.929950	-0.060620	-0.305457
O162	O	1.650649	-0.446623	-0.373710
C163	C	1.709989	-0.482423	-0.314455
H164	H	1.713630	-0.521326	-0.357507
H165	H	1.792762	-0.466608	-0.303316
H166	H	1.671562	-0.488282	-0.234630
H167	H	1.707412	-0.702001	-0.317224
O168	O	1.795430	-0.198740	-0.997679
C169	C	1.882092	-0.230417	-1.022987
H170	H	1.920791	-0.215180	-1.097512
H171	H	1.941046	-0.229469	-0.955900
H172	H	1.854518	-0.272217	-1.036012
H173	H	1.707491	-0.801048	-0.317251
H174	H	1.374863	-0.401014	-0.673218
H175	H	1.640367	-0.953182	-0.384401
H176	H	1.396428	-0.953225	-0.628006
O177	O	1.385896	-1.056489	-0.638660
C178	C	1.326522	-1.020686	-0.697875
H179	H	1.369530	-0.981740	-0.701534
H180	H	1.315279	-1.036433	-0.780650
H181	H	1.246746	-1.014935	-0.659327
O182	O	1.318525	-0.805315	-0.705777
C183	C	1.259164	-0.769509	-0.764996
H184	H	1.302178	-0.730564	-0.768644
H185	H	1.247930	-0.785253	-0.847774
H186	H	1.179384	-0.763756	-0.726458
H187	H	1.396058	-0.450872	-0.627881
H188	H	1.329055	-0.702052	-0.695106
H189	H	1.124864	-0.369447	-0.901935
H190	H	1.396136	-0.549938	-0.627919
H191	H	1.640288	-0.191092	-0.907182
