data_functionalizedCrystal
_audit_creation_method	'MofGen! by Chris Wilmer'
_symmetry_space_group_name_H-M	'P1'
_symmetry_Int_Tables_number	1
_symmetry_cell_setting	triclinic
loop_
_symmetry_equiv_pos_as_xyz
  x,y,z
_cell_length_a	10.686220
_cell_length_b	21.295417
_cell_length_c	10.685986
_cell_angle_alpha	85.582048
_cell_angle_beta	99.031303
_cell_angle_gamma	94.412682
loop_
_atom_site_label
_atom_site_type_symbol
_atom_site_fract_x
_atom_site_fract_y
_atom_site_fract_z
Zn1	Zn	1.885440	-0.156539	-0.568992
Zn2	Zn	2.385440	0.343461	-0.068992
Zn3	Zn	1.901513	-0.269335	-0.356730
Zn4	Zn	2.401513	0.230665	0.143270
Zn5	Zn	1.689432	-0.171586	-0.373018
Zn6	Zn	2.189432	0.328414	0.126982
Zn7	Zn	1.673110	-0.269290	-0.585174
Zn8	Zn	2.173110	0.230710	-0.085174
O9	O	1.787374	-0.216688	-0.470979
O10	O	2.287374	0.283312	0.029021
O11	O	2.065190	-0.165223	-0.527246
O12	O	2.565190	0.334777	-0.027246
O13	O	1.886937	-0.262685	-0.181270
O14	O	2.386937	0.237315	0.318730
O15	O	1.715537	-0.081495	-0.399059
O16	O	2.215537	0.418505	0.100941
O17	O	2.076998	-0.248094	-0.371298
O18	O	2.576998	0.251906	0.128702
O19	O	1.859543	-0.070440	-0.543040
O20	O	2.359543	0.429560	-0.043040
O21	O	1.731122	-0.190869	-0.193238
O22	O	2.231122	0.309131	0.306762
O23	O	1.509650	-0.190826	-0.414750
O24	O	2.009650	0.309174	0.085250
O25	O	1.687719	-0.248018	-0.760648
O26	O	2.187719	0.251982	-0.260648
O27	O	1.497658	-0.262608	-0.570620
O28	O	1.997658	0.237392	-0.070620
O29	O	1.843717	-0.165179	-0.748759
O30	O	2.343717	0.334821	-0.248759
O31	O	1.871111	-0.357424	-0.386989
O32	O	2.371111	0.142576	0.113011
O33	O	1.703304	-0.357391	-0.554826
O34	O	2.203304	0.142609	-0.054826
C35	C	1.457599	-0.228346	-0.496210
C36	C	1.957599	0.271654	0.003790
C37	C	1.316518	-0.233347	-0.507034
C38	C	1.816518	0.266653	-0.007034
C39	C	1.787213	-0.380248	-0.470921
C40	C	2.287213	0.119752	0.029079
C41	C	1.787257	-0.450214	-0.470930
C42	C	2.287257	0.049786	0.029070
C43	C	1.874700	-0.483071	-0.383615
C44	C	2.374700	0.016929	0.116385
C45	C	1.874757	-0.548811	-0.383639
C46	C	2.374757	-0.048811	0.116361
C47	C	1.787350	-0.581691	-0.470966
C48	C	2.287350	-0.081691	0.029034
C49	C	1.699900	-0.548826	-0.558298
C50	C	2.199900	-0.048826	-0.058298
C51	C	1.699854	-0.483087	-0.558279
C52	C	2.199854	0.016913	-0.058279
N53	N	1.675575	-0.688544	-0.489138
N54	N	2.175575	-0.188544	0.010862
N55	N	1.675623	-0.750993	-0.489148
N56	N	2.175623	-0.250993	0.010852
C57	C	1.787486	-0.779758	-0.471028
C58	C	2.287486	-0.279758	0.028972
N59	N	1.899304	-0.743716	-0.452874
N60	N	2.399304	-0.243716	0.047126
N61	N	1.899255	-0.681262	-0.452858
N62	N	2.399255	-0.181262	0.047142
C63	C	1.787391	-0.652974	-0.470996
C64	C	2.287391	-0.152974	0.029004
C65	C	1.874998	-0.883898	-0.383734
C66	C	2.374998	-0.383898	0.116266
C67	C	1.875057	-0.949638	-0.383767
C68	C	2.375057	-0.449638	0.116233
C69	C	1.700190	-0.949653	-0.558420
C70	C	2.200190	-0.449653	-0.058420
C71	C	1.700142	-0.883913	-0.558393
C72	C	2.200142	-0.383913	-0.058393
C73	C	1.787545	-0.851040	-0.471044
C74	C	2.287545	-0.351040	0.028956
C75	C	2.118436	-0.204985	-0.445650
C76	C	2.618436	0.295015	0.054350
C77	C	2.259515	-0.199998	-0.434856
C78	C	2.759515	0.300002	0.065144
C79	C	1.762104	-0.204915	-0.802046
C80	C	2.262104	0.295085	-0.302046
C81	C	1.751336	-0.199898	-0.943127
C82	C	2.251336	0.300102	-0.443127
C83	C	1.787568	-0.052487	-0.471062
C84	C	2.287568	0.447513	0.028938
C85	C	1.787651	0.017486	-0.471097
C86	C	2.287651	0.517486	0.028903
C87	C	1.812618	-0.228367	-0.141194
C88	C	2.312618	0.271633	0.358806
C89	C	1.823633	-0.233197	-0.000094
C90	C	2.323633	0.266803	0.499906
H91	H	1.257383	-0.265731	-0.577106
H92	H	1.757383	0.234269	-0.077106
F93	F	1.968139	-0.984607	-0.290837
F94	F	2.468139	-0.484607	0.209163
F95	F	1.606880	-0.583820	-0.651242
F96	F	2.106880	-0.083820	-0.151242
H97	H	1.681208	-0.167551	-1.002286
H98	H	2.181208	0.332449	-0.502286
H99	H	1.318644	-0.167620	-0.364780
H100	H	1.818644	0.332380	0.135220
F101	F	1.967735	-0.448088	-0.290662
F102	F	2.467735	0.051912	0.209338
H103	H	1.945968	-0.575568	-0.312537
H104	H	2.445968	-0.075568	0.187463
F105	F	1.606781	-0.448117	-0.651216
F106	F	2.106781	0.051883	-0.151216
H107	H	1.893776	-0.265541	-0.940928
H108	H	2.393776	0.234459	-0.440928
H109	H	1.946171	-0.857131	-0.312613
H110	H	2.446171	-0.357131	0.187387
H111	H	1.629027	-0.976423	-0.629529
H112	H	2.129027	-0.476423	-0.129529
F113	F	1.607068	-0.848943	-0.651322
F114	F	2.107068	-0.348943	-0.151322
