data_functionalizedCrystal
_audit_creation_method	'MofGen! by Chris Wilmer'
_symmetry_space_group_name_H-M	'P1'
_symmetry_Int_Tables_number	1
_symmetry_cell_setting	triclinic
loop_
_symmetry_equiv_pos_as_xyz
  x,y,z
_cell_length_a	12.811445
_cell_length_b	10.654551
_cell_length_c	11.892095
_cell_angle_alpha	93.929772
_cell_angle_beta	80.666316
_cell_angle_gamma	84.264746
loop_
_atom_site_label
_atom_site_type_symbol
_atom_site_fract_x
_atom_site_fract_y
_atom_site_fract_z
O1	O	1.410793	0.148905	-0.238612
O2	O	1.103111	0.169972	-0.207074
O3	O	1.264026	-0.023399	-0.223569
O4	O	1.249879	0.342275	-0.222118
O5	O	1.250609	-0.007301	-0.034186
O6	O	1.089694	0.186070	-0.017691
O7	O	1.397376	0.165003	-0.049230
Zn8	Zn	1.241405	0.178092	-0.003392
Zn9	Zn	1.259083	0.156882	-0.252912
O10	O	1.236462	0.358374	-0.032735
C11	C	1.057005	0.177332	-0.108345
C12	C	0.939613	0.175266	-0.096312
C13	C	0.733645	0.153854	-0.280187
C14	C	0.623346	0.151913	-0.268887
C15	C	0.608711	0.169450	-0.062410
C16	C	0.719011	0.171391	-0.073711
C17	C	0.781475	0.163591	-0.182603
C18	C	0.891777	0.165524	-0.193903
C19	C	0.877140	0.183070	0.012572
C20	C	0.766840	0.181128	0.023873
C21	C	1.256279	-0.062134	-0.128774
C22	C	1.253171	-0.201534	-0.128463
C23	C	1.259026	-0.275801	-0.231544
C24	C	1.256096	-0.406780	-0.231238
C25	C	1.241459	-0.389215	-0.024762
C26	C	1.244382	-0.258237	-0.025068
C27	C	1.267815	-0.219099	-0.334939
C28	C	1.273672	-0.293366	-0.438028
C29	C	1.270741	-0.424346	-0.437723
C30	C	1.261954	-0.481057	-0.334328
C31	C	1.443483	0.157642	-0.147962
C32	C	1.560875	0.159708	-0.160002
C33	C	1.244209	0.397108	-0.127533
C34	C	1.247318	0.536508	-0.127851
N35	N	1.229348	0.192567	0.166898
N36	N	1.271147	0.142398	-0.423203
C37	C	1.355043	0.041606	0.390662
C38	C	1.346623	0.051733	0.509867
C39	C	1.204085	0.222940	0.524516
C40	C	1.212505	0.212813	0.405311
C41	C	1.287987	0.122145	0.338387
C42	C	1.296411	0.112025	0.219180
C43	C	1.153869	0.283225	0.233831
C44	C	1.145449	0.293352	0.353036
H45	H	1.270204	-0.112450	-0.335199
H46	H	1.142622	0.296752	0.579020
O47	O	0.548175	0.177096	0.043444
C48	C	0.545293	0.194618	0.247049
C49	C	0.613972	0.185998	0.127239
H50	H	0.598464	0.201791	0.314829
H51	H	0.484282	0.282042	0.258503
H52	H	0.502287	0.106303	0.256507
H53	H	0.657047	0.274248	0.117698
H54	H	0.674919	0.098519	0.115839
O55	O	1.072221	0.381391	0.418215
C56	C	0.996035	0.472821	0.608353
C57	C	1.079027	0.373076	0.534677
H58	H	1.001495	0.466114	0.702528
H59	H	1.012206	0.571408	0.583512
H60	H	0.912903	0.454726	0.593556
H61	H	1.162192	0.391053	0.549435
H62	H	1.062764	0.274522	0.559533
H63	H	1.234305	-0.435400	0.059418
H64	H	1.099270	0.348808	0.191257
H65	H	0.942634	0.159172	-0.282569
H66	H	1.275500	-0.484810	-0.521662
O67	O	1.428392	-0.046565	0.325818
C68	C	1.568937	-0.215245	0.323858
C69	C	1.485898	-0.115468	0.397429
H70	H	1.615469	-0.270963	0.381723
H71	H	1.526828	-0.282679	0.272810
H72	H	1.626044	-0.165890	0.262558
H73	H	1.428768	-0.164715	0.458793
H74	H	1.528078	-0.048042	0.448398
O75	O	1.238709	-0.186275	0.075163
C76	C	1.223764	-0.182644	0.280004
C77	C	1.230226	-0.264297	0.166570
H78	H	1.216881	-0.245687	0.353939
H79	H	1.298627	-0.132646	0.277554
H80	H	1.150916	-0.109124	0.292499
H81	H	1.303027	-0.337884	0.154004
H82	H	1.155312	-0.314204	0.169073
H83	H	0.584408	0.143987	-0.348350
O84	O	1.369756	0.023846	0.154341
C85	C	1.510281	-0.144855	0.152394
C86	C	1.427250	-0.045063	0.225957
H87	H	1.556803	-0.200578	0.210264
H88	H	1.468166	-0.212282	0.101347
H89	H	1.567397	-0.095513	0.091093
H90	H	1.370111	-0.094297	0.287322
H91	H	1.469436	0.022356	0.276926
H92	H	1.259553	-0.587708	-0.334085
H93	H	0.784505	0.147497	-0.368852
H94	H	0.715967	0.187483	0.112530
H95	H	1.401225	-0.013851	0.552424
H96	H	0.916094	0.190997	0.092032
H97	H	1.280816	-0.247181	-0.522207
