data_functionalizedCrystal
_audit_creation_method	'MofGen! by Chris Wilmer'
_symmetry_space_group_name_H-M	'P1'
_symmetry_Int_Tables_number	1
_symmetry_cell_setting	triclinic
loop_
_symmetry_equiv_pos_as_xyz
  x,y,z
_cell_length_a	6.817900
_cell_length_b	12.200875
_cell_length_c	11.168129
_cell_angle_alpha	92.527662
_cell_angle_beta	108.508637
_cell_angle_gamma	107.143593
loop_
_atom_site_label
_atom_site_type_symbol
_atom_site_fract_x
_atom_site_fract_y
_atom_site_fract_z
V1	V	-4.093963	-0.357671	-0.174992
V2	V	-3.593963	0.142329	0.325008
O3	O	-4.053850	-0.350852	0.008114
O4	O	-3.553850	0.149148	0.508114
O5	O	-4.070360	-0.355235	-0.346695
O6	O	-3.570360	0.144765	0.153305
O7	O	-4.063311	-0.513659	-0.172429
O8	O	-3.563311	-0.013659	0.327571
O9	O	-4.060948	-0.191331	-0.167358
O10	O	-3.560948	0.308669	0.332642
V11	V	-4.572078	-0.337774	-0.153075
V12	V	-4.072078	0.162226	0.346925
O13	O	-4.367084	-0.401316	-0.223068
O14	O	-3.867084	0.098684	0.276932
O15	O	-4.749155	-0.294129	-0.104998
O16	O	-4.249155	0.205871	0.395002
O17	O	-4.372475	-0.340210	0.018629
O18	O	-3.872475	0.159790	0.518629
O19	O	-4.729588	-0.344593	-0.336180
O20	O	-4.229588	0.155407	0.163820
O21	O	-4.722490	-0.504114	-0.160708
O22	O	-4.222490	-0.004114	0.339292
O23	O	-4.379524	-0.181786	-0.155637
O24	O	-3.879524	0.318214	0.344363
C25	C	-3.920819	-0.349595	-0.388549
C26	C	-3.420819	0.150405	0.111451
C27	C	-3.982926	-0.348643	-0.528919
C28	C	-3.482926	0.151357	-0.028919
C29	C	-3.958246	-0.248384	-0.574285
C30	C	-3.458246	0.251616	-0.074285
C31	C	-4.022435	-0.247398	-0.719365
C32	C	-3.522435	0.252602	-0.219365
C33	C	-3.911826	-0.551679	-0.166254
C34	C	-3.411826	-0.051679	0.333746
C35	C	-3.968211	-0.679201	-0.165295
C36	C	-3.468211	-0.179201	0.334705
C37	C	-4.071406	-0.912675	-0.163541
C38	C	-3.571406	-0.412675	0.336459
C39	C	-4.013973	-0.782753	-0.164517
C40	C	-3.513973	-0.282753	0.335483
C41	C	-4.185358	-0.345847	0.060476
C42	C	-3.685358	0.154153	0.560476
C43	C	-4.102491	-0.346807	0.200845
C44	C	-3.602491	0.153193	0.700845
C45	C	-4.194351	-0.143760	-0.161817
C46	C	-3.694351	0.356240	0.338183
C47	C	-4.117203	-0.016237	-0.162769
C48	C	-3.617203	0.483763	0.337231
H49	H	-4.001398	-0.161561	-0.758443
H50	H	-3.501398	0.338439	-0.258443
Br51	Br	-4.097373	-0.490499	-0.643192
Br52	Br	-3.597373	0.009501	-0.143192
Br53	Br	-3.843918	-0.106531	-0.460016
Br54	Br	-3.343918	0.393469	0.039984
H55	H	-4.123510	-0.432647	-0.760084
H56	H	-3.623510	0.067353	-0.260084
