data_functionalizedCrystal
_audit_creation_method	'MofGen! by Chris Wilmer'
_symmetry_space_group_name_H-M	'P1'
_symmetry_Int_Tables_number	1
_symmetry_cell_setting	triclinic
loop_
_symmetry_equiv_pos_as_xyz
  x,y,z
_cell_length_a	8.497374
_cell_length_b	12.759401
_cell_length_c	12.759400
_cell_angle_alpha	89.985155
_cell_angle_beta	89.991978
_cell_angle_gamma	90.000368
loop_
_atom_site_label
_atom_site_type_symbol
_atom_site_fract_x
_atom_site_fract_y
_atom_site_fract_z
Zn1	Zn	0.891904	1.606068	0.418444
Zn2	Zn	0.628108	1.606017	0.594091
Zn3	Zn	0.628137	1.430425	0.418427
Zn4	Zn	0.891846	1.430358	0.594082
O5	O	0.759999	1.518217	0.506261
O6	O	0.856923	1.753082	0.441755
O7	O	0.407350	1.582732	0.570785
O8	O	0.663163	1.453773	0.271408
O9	O	0.663113	1.753045	0.570802
O10	O	0.856951	1.582817	0.271421
O11	O	0.407371	1.453725	0.441725
O12	O	0.663107	1.283395	0.441717
O13	O	1.112616	1.453659	0.570787
O14	O	0.856853	1.283346	0.570770
O15	O	1.112658	1.582752	0.441746
O16	O	0.663058	1.582667	0.741110
O17	O	0.856824	1.453611	0.741104
C18	C	0.759978	1.245250	0.506241
C19	C	0.760006	1.128473	0.506258
C20	C	0.860722	1.073613	0.573564
C21	C	0.860739	0.963889	0.573577
C22	C	0.659310	0.963895	0.438977
C23	C	0.659302	1.073617	0.438959
C24	C	0.977011	1.073609	0.651278
C25	C	0.977028	0.963885	0.651291
C26	C	0.759966	1.518155	0.779228
C27	C	0.760005	1.518224	0.896005
C28	C	1.171479	1.518209	0.506262
C29	C	1.350123	1.518212	0.506274
C30	C	0.760021	1.792250	0.506281
C31	C	0.760031	1.909027	0.506290
C32	C	0.760066	1.518308	0.232228
C33	C	0.760095	1.518347	0.115451
C34	C	0.659222	1.585498	0.950835
C35	C	0.659270	1.585563	1.060559
C36	C	0.860889	1.451070	1.060613
C37	C	0.860847	1.451012	0.950891
C38	C	0.542814	1.663143	0.950805
C39	C	0.542862	1.663208	1.060529
H40	H	1.099249	1.103391	0.629612
O41	O	0.581873	1.760122	0.915009
C42	C	0.581790	1.759872	0.804508
H43	H	0.503695	1.693529	0.774931
H44	H	0.706987	1.747919	0.774691
C45	C	0.613986	1.946848	0.800358
C46	C	0.518058	1.865370	0.764031
H47	H	0.574681	2.011926	0.775389
H48	H	0.614049	1.947017	0.874805
H49	H	0.718311	1.936873	0.775508
H50	H	0.413741	1.875339	0.788892
H51	H	0.517976	1.865205	0.689587
O52	O	0.561263	0.910723	0.373661
C53	C	0.403967	0.937506	0.396470
H54	H	0.400587	1.017165	0.436846
H55	H	0.350696	0.875743	0.450435
C56	C	0.312824	0.844751	0.244355
C57	C	0.308672	0.942594	0.293938
H58	H	0.254038	0.847885	0.181110
H59	H	0.418796	0.826703	0.228990
H60	H	0.268434	0.793292	0.289337
H61	H	0.353079	0.994048	0.248962
H62	H	0.202705	0.960650	0.309294
H63	H	0.933039	1.107632	0.728518
H64	H	0.420664	1.641496	1.090358
O65	O	0.404299	1.628287	0.910384
C66	C	0.376504	1.524873	0.944674
H67	H	0.444897	1.509878	1.020057
H68	H	0.416761	1.467391	0.881754
C69	C	0.115374	1.528234	0.872708
C70	C	0.199365	1.509819	0.965300
H71	H	0.006107	1.518945	0.885427
H72	H	0.134101	1.597904	0.849602
H73	H	0.148939	1.480330	0.820284
H74	H	0.165815	1.557731	1.017718
H75	H	0.180629	1.440157	0.988415
H76	H	0.577299	1.118280	0.384145
O77	O	1.115592	0.923166	0.616833
C78	C	1.182950	0.861024	0.696446
H79	H	1.086907	0.833802	0.752590
H80	H	1.273756	0.909143	0.741267
C81	C	1.381562	0.798350	0.578066
C82	C	1.263598	0.764908	0.647019
H83	H	1.431316	0.739063	0.547579
H84	H	1.336186	0.840219	0.524430
H85	H	1.457218	0.838449	0.615428
H86	H	1.187935	0.724820	0.609655
H87	H	1.308963	0.723029	0.700648
H88	H	0.942993	1.396349	1.105314
O89	O	0.937917	0.928460	0.748401
C90	C	1.048496	0.965359	0.822043
H91	H	1.108196	1.038760	0.790173
H92	H	1.140811	0.902246	0.836894
C93	C	0.890616	0.901615	0.964617
C94	C	0.963930	0.991773	0.925477
H95	H	0.838455	0.917905	1.028422
H96	H	0.816119	0.876752	0.915003
H97	H	0.967558	0.849030	0.976984
H98	H	0.886987	1.044352	0.913098
H99	H	1.038413	1.016645	0.975091
H100	H	0.942927	1.396242	0.906249
O101	O	0.595445	1.755330	1.101096
C102	C	0.729704	1.736568	1.163250
H103	H	0.787620	1.660155	1.137656
H104	H	0.693481	1.730456	1.249069
C105	C	0.775922	1.921404	1.181227
C106	C	0.847063	1.827557	1.149785
H107	H	0.848313	1.977531	1.172926
H108	H	0.685466	1.934045	1.139356
H109	H	0.745739	1.916296	1.252741
H110	H	0.877227	1.832662	1.078270
H111	H	0.937528	1.814919	1.191644
