data_functionalizedCrystal
_audit_creation_method	'MofGen! by Chris Wilmer'
_symmetry_space_group_name_H-M	'P1'
_symmetry_Int_Tables_number	1
_symmetry_cell_setting	triclinic
loop_
_symmetry_equiv_pos_as_xyz
  x,y,z
_cell_length_a	15.995363
_cell_length_b	15.072220
_cell_length_c	11.792241
_cell_angle_alpha	90.001222
_cell_angle_beta	96.154594
_cell_angle_gamma	89.990650
loop_
_atom_site_label
_atom_site_type_symbol
_atom_site_fract_x
_atom_site_fract_y
_atom_site_fract_z
O1	O	-1.111654	0.073718	0.146354
O2	O	-0.867962	0.073734	0.164405
O3	O	-0.995722	0.073719	-0.009840
O4	O	-0.983894	0.073733	0.320599
O5	O	-0.995690	-0.073846	-0.009830
O6	O	-0.867930	-0.073831	0.164415
O7	O	-1.111622	-0.073847	0.146364
Zn8	Zn	-0.989771	-0.097268	0.155391
Zn9	Zn	-0.989813	0.097155	0.155378
O10	O	-0.983862	-0.073833	0.320609
C11	C	-0.836748	-0.000047	0.163662
C12	C	-0.743788	-0.000041	0.161417
C13	C	-0.406006	-0.000063	0.153356
C14	C	-0.452876	-0.000396	0.029259
C15	C	-0.549576	-0.000057	0.031504
C16	C	-0.573584	-0.000052	0.157354
C17	C	-0.532793	0.084213	0.218556
C18	C	-0.436143	0.084277	0.215433
C19	C	-0.435780	-0.083532	0.218008
C20	C	-0.532725	-0.084639	0.217984
C21	C	-0.668291	-0.000043	0.159621
C22	C	-0.311298	-0.000065	0.151093
N23	N	-0.989749	-0.229957	0.155399
C24	C	-0.989811	-0.589159	0.155374
C25	C	-0.921217	-0.551544	0.248296
C26	C	-0.921377	-0.448718	0.248636
C27	C	-0.989779	-0.410955	0.155387
C28	C	-1.077261	-0.448250	0.181257
C29	C	-1.076877	-0.551108	0.181918
C30	C	-0.971701	-0.551262	0.036306
C31	C	-0.969700	-0.448399	0.037100
C32	C	-0.989767	-0.310241	0.155391
C33	C	-0.989829	-0.689872	0.155372
C34	C	-0.142837	-0.000067	0.147093
C35	C	-0.235801	-0.000074	0.149293
C36	C	-0.994963	-0.000063	-0.052120
C37	C	-0.992739	-0.000062	-0.178115
N38	N	-0.989842	0.229844	0.155361
C39	C	-0.988650	-0.000047	-0.408793
C40	C	-0.990922	-0.000055	-0.280427
C41	C	-0.984621	-0.000048	0.362889
C42	C	-0.986845	-0.000044	0.488884
H43	H	-0.856367	-0.423504	0.233221
H44	H	-0.404434	-0.084100	0.309504
H45	H	-0.905345	-0.424023	0.017467
C46	C	-0.553877	-0.091565	0.340294
C47	C	-0.597191	-0.170880	0.354142
C48	C	-0.616701	-0.177276	0.466797
H49	H	-0.503459	-0.090913	0.390808
H50	H	-0.588163	-0.042755	0.356798
H51	H	-0.562906	-0.219677	0.337650
H52	H	-0.647618	-0.171550	0.303654
H53	H	-0.650988	-0.128466	0.483302
H54	H	-0.566279	-0.176621	0.517302
H55	H	-0.646099	-0.231087	0.476206
H56	H	-0.855999	-0.576302	0.233135
H57	H	-0.932680	-0.577380	0.336157
H58	H	-1.016374	-0.422696	-0.035289
H59	H	-0.559825	-0.146978	0.173307
C60	C	-0.570215	0.167911	0.161880
C61	C	-0.506321	0.217822	0.120172
C62	C	-0.540762	0.294935	0.067968
H63	H	-0.610953	0.152240	0.100558
H64	H	-0.596171	0.202046	0.216094
H65	H	-0.480378	0.183695	0.065962
H66	H	-0.465579	0.233517	0.181471
H67	H	-0.566718	0.329069	0.122182
H68	H	-0.581499	0.279255	0.006652
H69	H	-0.497414	0.328813	0.039673
H70	H	-1.021717	-0.575586	-0.032844
C71	C	-0.393733	0.089579	0.336920
C72	C	-0.418558	0.167693	0.388169
C73	C	-0.379501	0.172622	0.500073
H74	H	-0.409701	0.039823	0.379096
H75	H	-0.334424	0.089705	0.335887
H76	H	-0.477854	0.167559	0.389209
H77	H	-0.402590	0.217462	0.346027
H78	H	-0.320192	0.172748	0.499039
H79	H	-0.395472	0.122863	0.542237
H80	H	-0.396333	0.225626	0.534855
C81	C	-0.936930	-0.416060	0.366506
C82	C	-0.946218	-0.488943	0.437696
C83	C	-0.960563	-0.458894	0.546284
H84	H	-0.890605	-0.381099	0.397490
H85	H	-0.986699	-0.381209	0.360890
H86	H	-0.896454	-0.523779	0.443315
H87	H	-0.992543	-0.523912	0.406748
H88	H	-1.010332	-0.424043	0.540669
H89	H	-0.914236	-0.423932	0.577257
H90	H	-0.966874	-0.508339	0.594597
H91	H	-1.093503	-0.422479	0.267103
H92	H	-0.577773	-0.060462	-0.016605
H93	H	-1.129543	-0.575989	0.116906
H94	H	-1.129546	-0.423787	0.115378
C95	C	-0.888389	-0.585938	0.003384
C96	C	-0.851764	-0.642020	0.089459
C97	C	-0.775007	-0.673970	0.059194
H98	H	-0.897752	-0.618034	-0.066141
H99	H	-0.851795	-0.537466	-0.005991
H100	H	-0.888350	-0.690485	0.098821
H101	H	-0.842380	-0.609944	0.158992
H102	H	-0.738413	-0.625498	0.049819
H103	H	-0.784378	-0.706062	-0.010332
H104	H	-0.750144	-0.712018	0.117595
H105	H	-0.434116	-0.060827	-0.020344
H106	H	-0.433071	0.059697	-0.020123
H107	H	-0.417646	0.147264	0.170791
C108	C	-0.586288	0.080700	-0.033075
C109	C	-0.521387	0.129377	-0.074271
C110	C	-0.555172	0.203786	-0.133754
H111	H	-0.624960	0.062021	-0.095253
H112	H	-0.614549	0.116845	0.016710
H113	H	-0.493140	0.093239	-0.124053
H114	H	-0.482711	0.148078	-0.012117
H115	H	-0.583433	0.239931	-0.083969
H116	H	-0.593844	0.185099	-0.195927
H117	H	-0.511142	0.236827	-0.161704
C118	C	-0.408245	-0.168605	0.163583
C119	C	-0.363969	-0.147625	0.070964
C120	C	-0.338664	-0.225966	0.020718
H121	H	-0.372979	-0.201681	0.218109
H122	H	-0.456386	-0.202900	0.137779
H123	H	-0.315835	-0.113345	0.096770
H124	H	-0.399219	-0.114562	0.016414
H125	H	-0.386806	-0.260261	-0.005086
H126	H	-0.303402	-0.259036	0.075252
H127	H	-0.308628	-0.211742	-0.042135
C128	C	-0.552233	0.088591	0.341809
C129	C	-0.596214	0.166925	0.359012
C130	C	-0.614128	0.170992	0.472541
H131	H	-0.585600	0.038963	0.357912
H132	H	-0.501175	0.087857	0.391053
H133	H	-0.647264	0.167651	0.309784
H134	H	-0.562861	0.216566	0.342934
H135	H	-0.563070	0.170258	0.521784
H136	H	-0.647493	0.121361	0.488633
H137	H	-0.643964	0.224144	0.484230
C138	C	-1.098013	-0.582914	0.297794
C139	C	-1.111014	-0.509519	0.366548
C140	C	-1.130472	-0.538779	0.473308
H141	H	-1.147612	-0.617977	0.288384
H142	H	-1.052781	-0.617475	0.332996
H143	H	-1.156241	-0.474972	0.331353
H144	H	-1.061424	-0.474448	0.375990
H145	H	-1.085241	-0.573340	0.508511
H146	H	-1.180070	-0.573843	0.463887
H147	H	-1.139288	-0.488986	0.519974
