data_functionalizedCrystal
_audit_creation_method	'MofGen! by Chris Wilmer'
_symmetry_space_group_name_H-M	'P1'
_symmetry_Int_Tables_number	1
_symmetry_cell_setting	triclinic
loop_
_symmetry_equiv_pos_as_xyz
  x,y,z
_cell_length_a	19.288864
_cell_length_b	10.654551
_cell_length_c	17.766277
_cell_angle_alpha	89.995451
_cell_angle_beta	89.976791
_cell_angle_gamma	83.810838
loop_
_atom_site_label
_atom_site_type_symbol
_atom_site_fract_x
_atom_site_fract_y
_atom_site_fract_z
O1	O	0.922379	0.156657	-0.062833
O2	O	1.422379	0.656657	0.437167
O3	O	0.720257	0.177789	-0.062781
O4	O	1.220257	0.677789	0.437219
O5	O	0.825965	-0.015616	-0.062807
O6	O	1.325965	0.484384	0.437193
O7	O	0.816671	0.350062	-0.062808
O8	O	1.316671	0.850062	0.437192
O9	O	0.825946	-0.015625	0.062382
O10	O	1.325946	0.484375	0.562382
O11	O	0.720238	0.177780	0.062407
O12	O	1.220238	0.677780	0.562407
O13	O	0.922360	0.156647	0.062356
O14	O	1.422360	0.656647	0.562356
Cu15	Cu	0.821298	0.167212	0.073812
Cu16	Cu	1.321298	0.667212	0.573812
Cu17	Cu	0.821320	0.167224	-0.074238
Cu18	Cu	1.321320	0.667224	0.425762
O19	O	0.816653	0.350052	0.062381
O20	O	1.316653	0.850052	0.562381
C21	C	0.694367	0.177104	-0.000180
C22	C	1.194367	0.677104	0.499820
C23	C	0.617250	0.175063	-0.000161
C24	C	1.117250	0.675063	0.499839
C25	C	0.573297	0.288544	-0.000173
C26	C	1.073297	0.788544	0.499827
C27	C	0.500837	0.286627	-0.000181
C28	C	1.000837	0.786627	0.499819
C29	C	0.472334	0.171221	-0.000192
C30	C	0.972334	0.671221	0.499808
C31	C	0.516296	0.057725	-0.000176
C32	C	1.016296	0.557725	0.499824
C33	C	0.588754	0.059646	-0.000160
C34	C	1.088754	0.559646	0.499840
C35	C	0.363484	0.080503	-0.044077
C36	C	0.863484	0.580503	0.455923
C37	C	0.291027	0.078587	-0.044097
C38	C	0.791027	0.578587	0.455903
C39	C	0.248849	0.165292	-0.000238
C40	C	0.748849	0.665292	0.499762
C41	C	0.279136	0.253934	0.043632
C42	C	0.779136	0.753934	0.543632
C43	C	0.351594	0.255855	0.043648
C44	C	0.851594	0.755855	0.543648
C45	C	0.393766	0.169126	-0.000209
C46	C	0.893766	0.669126	0.499791
C47	C	0.126327	0.276702	-0.000258
C48	C	0.626327	0.776702	0.499742
C49	C	0.053866	0.274779	-0.000262
C50	C	0.553866	0.774779	0.499738
C51	C	0.069327	0.045875	-0.000264
C52	C	0.569327	0.545875	0.499736
C53	C	0.141786	0.047800	-0.000253
C54	C	0.641786	0.547800	0.499747
C55	C	0.170281	0.163217	-0.000253
C56	C	0.670281	0.663217	0.499747
C57	C	0.825273	-0.062404	-0.000213
C58	C	1.325273	0.437596	0.499787
C59	C	0.823231	-0.201803	-0.000216
C60	C	1.323231	0.298197	0.499784
C61	C	0.822283	-0.267281	-0.068457
C62	C	1.322283	0.232719	0.431543
C63	C	0.820358	-0.398261	-0.068457
C64	C	1.320358	0.101739	0.431543
C65	C	0.820333	-0.398273	0.068030
C66	C	1.320333	0.101727	0.568030
C67	C	0.822252	-0.267295	0.068029
C68	C	1.322252	0.232705	0.568029
C69	C	0.777128	-0.567401	-0.150433
C70	C	1.277128	-0.067401	0.349567
C71	C	0.776192	-0.632886	-0.218677
C72	C	1.276192	-0.132886	0.281323
C73	C	0.817453	-0.600224	-0.278938
C74	C	1.317453	-0.100224	0.221062
C75	C	0.859668	-0.502083	-0.270958
C76	C	1.359668	-0.002083	0.229042
C77	C	0.860610	-0.436606	-0.202712
C78	C	1.360610	0.063394	0.297288
C79	C	0.819332	-0.469262	-0.142454
C80	C	1.319332	0.030738	0.357546
C81	C	0.865488	-0.098154	0.150000
C82	C	1.365488	0.401846	0.650000
C83	C	0.866436	-0.032675	0.218247
C84	C	1.366436	0.467325	0.718247
C85	C	0.825179	-0.065336	0.278514
C86	C	1.325179	0.434664	0.778514
C87	C	0.782974	-0.163484	0.270541
C88	C	1.282974	0.336516	0.770541
C89	C	0.782027	-0.228962	0.202295
C90	C	1.282027	0.271038	0.702295
C91	C	0.823283	-0.196292	0.142027
C92	C	1.323283	0.303708	0.642027
C93	C	0.948251	0.157332	-0.000247
C94	C	1.448251	0.657332	0.499753
C95	C	1.025368	0.159373	-0.000272
C96	C	1.525368	0.659373	0.499728
C97	C	0.817345	0.396840	-0.000214
C98	C	1.317345	0.896840	0.499786
C99	C	0.819387	0.536239	-0.000216
C100	C	1.319387	1.036239	0.499784
N101	N	0.821287	0.167203	0.177942
N102	N	1.321287	0.667203	0.677942
N103	N	0.821336	0.167223	-0.178368
N104	N	1.321336	0.667223	0.321632
C105	C	0.868110	0.081606	0.217318
C106	C	1.368110	0.581606	0.717318
C107	C	0.868114	0.081600	0.296120
C108	C	1.368114	0.581600	0.796120
C109	C	0.821302	0.167213	0.335543
C110	C	1.321302	0.667213	0.835543
C111	C	0.774470	0.252818	0.296158
C112	C	1.274470	0.752818	0.796158
C113	C	0.774463	0.252813	0.217358
C114	C	1.274463	0.752813	0.717358
C115	C	0.812752	0.281634	0.460382
C116	C	1.312752	0.781634	0.960382
C117	C	0.812765	0.281641	0.539181
C118	C	1.312765	0.781641	1.039181
C119	C	0.821320	0.167228	0.578589
C120	C	1.321320	0.667228	1.078589
C121	C	0.829879	0.052804	0.539189
C122	C	1.329879	0.552804	1.039189
C123	C	0.829871	0.052799	0.460389
C124	C	1.329871	0.552799	0.960389
C125	C	0.821304	0.167228	0.420989
C126	C	1.321304	0.667228	0.920989
C127	C	0.868150	0.081617	0.703411
C128	C	1.368150	0.581617	1.203411
C129	C	0.868149	0.081610	0.782214
C130	C	1.368149	0.581610	1.282214
C131	C	0.774509	0.252839	0.782251
C132	C	1.274509	0.752839	1.282251
C133	C	0.774506	0.252835	0.703449
C134	C	1.274506	0.752835	1.203449
C135	C	0.821331	0.167226	0.664034
C136	C	1.321331	0.667226	1.164034
H137	H	0.397820	0.009895	-0.079796
H138	H	0.897820	0.509895	0.420204
H139	H	0.736391	0.322542	0.814348
H140	H	1.236391	0.822542	1.314348
H141	H	0.894982	-0.356703	-0.196215
H142	H	1.394982	0.143297	0.303785
H143	H	0.899080	-0.071541	0.100925
H144	H	1.399080	0.428459	0.600925
Cl145	Cl	0.252959	-0.032835	-0.099255
Cl146	Cl	0.752959	0.467165	0.400745
H147	H	0.816690	-0.653551	-0.334504
H148	H	1.316690	-0.153551	0.165496
Cl149	Cl	0.197044	-0.094871	-0.000242
Cl150	Cl	0.697044	0.405129	0.499758
Cl151	Cl	0.911551	-0.461043	-0.346717
Cl152	Cl	1.411551	0.038957	0.153283
Cl153	Cl	0.389667	0.367280	0.098799
Cl154	Cl	0.889667	0.867280	0.598799
Cl155	Cl	0.715644	0.360456	0.653943
Cl156	Cl	1.215644	0.860456	1.153943
Cl157	Cl	0.823508	-0.184953	-0.154252
Cl158	Cl	1.323508	0.315047	0.345748
H159	H	0.493084	-0.036239	-0.000196
H160	H	0.993084	0.463761	0.499804
Cl161	Cl	0.840622	-0.091041	0.410860
Cl162	Cl	1.340622	0.408959	0.910860
H163	H	0.906244	0.011893	0.328185
H164	H	1.406244	0.511893	0.828185
Cl165	Cl	0.927013	-0.026015	0.831718
Cl166	Cl	1.427013	0.473985	1.331718
H167	H	0.743519	-0.593993	-0.101371
H168	H	1.243519	-0.093993	0.398629
Cl169	Cl	0.819103	-0.480614	0.153820
Cl170	Cl	1.319103	0.019386	0.653820
Cl171	Cl	0.162153	0.421794	-0.000251
Cl172	Cl	0.662153	0.921794	0.499749
Cl173	Cl	0.609116	0.433640	-0.000170
Cl174	Cl	1.109116	0.933640	0.499830
H175	H	0.624542	-0.032767	-0.000151
H176	H	1.124542	0.467233	0.499849
Cl177	Cl	0.715596	0.360432	0.167853
Cl178	Cl	1.215596	0.860432	0.667853
Cl179	Cl	0.445572	0.429300	-0.000195
Cl180	Cl	0.945572	0.929300	0.499805
H181	H	0.906235	0.011895	0.185229
H182	H	1.406235	0.511895	0.685229
H183	H	0.805800	0.374812	0.571255
H184	H	1.305800	0.874812	1.071255
Cl185	Cl	0.723121	-0.756255	-0.228709
Cl186	Cl	1.223121	-0.256255	0.271291
Cl187	Cl	0.226121	0.362943	0.098773
Cl188	Cl	0.726121	0.862943	0.598773
Cl189	Cl	-0.001391	0.417455	-0.000273
Cl190	Cl	0.498609	0.917455	0.499727
H191	H	0.836845	-0.040361	0.571274
H192	H	1.336845	0.459639	1.071274
Cl193	Cl	0.826379	0.016971	0.364314
Cl194	Cl	1.326379	0.516971	0.864314
Cl195	Cl	0.033501	-0.099208	-0.000269
Cl196	Cl	0.533501	0.400792	0.499731
Cl197	Cl	0.728971	-0.352354	0.192272
Cl198	Cl	1.228971	0.147646	0.692272
H199	H	0.749364	-0.190053	0.319609
H200	H	1.249364	0.309947	0.819609
H201	H	0.906276	0.011905	0.671318
H202	H	1.406276	0.511905	1.171318
H203	H	0.805773	0.374809	0.428302
H204	H	1.305773	0.874809	0.928302
H205	H	0.736354	0.322524	0.328260
H206	H	1.236354	0.822524	0.828260
Cl207	Cl	0.919502	0.090701	0.228273
Cl208	Cl	1.419502	0.590701	0.728273
