data_functionalizedCrystal
_audit_creation_method	'MofGen! by Chris Wilmer'
_symmetry_space_group_name_H-M	'P1'
_symmetry_Int_Tables_number	1
_symmetry_cell_setting	triclinic
loop_
_symmetry_equiv_pos_as_xyz
  x,y,z
_cell_length_a	29.839134
_cell_length_b	29.839131
_cell_length_c	29.839125
_cell_angle_alpha	89.982291
_cell_angle_beta	89.978020
_cell_angle_gamma	90.036281
loop_
_atom_site_label
_atom_site_type_symbol
_atom_site_fract_x
_atom_site_fract_y
_atom_site_fract_z
Zn1	Zn	0.686720	-0.178978	-0.254125
Zn2	Zn	1.020053	0.154355	0.079208
Zn3	Zn	1.353386	0.487689	0.412542
Zn4	Zn	0.686652	-0.254090	-0.178995
Zn5	Zn	1.019985	0.079243	0.154338
Zn6	Zn	1.353318	0.412577	0.487672
Zn7	Zn	0.611602	-0.178968	-0.178995
Zn8	Zn	0.944936	0.154365	0.154339
Zn9	Zn	1.278269	0.487699	0.487672
Zn10	Zn	0.611550	-0.254075	-0.254083
Zn11	Zn	0.944883	0.079258	0.079250
Zn12	Zn	1.278217	0.412592	0.412583
O13	O	0.649131	-0.216528	-0.216549
O14	O	0.982464	0.116806	0.116784
O15	O	1.315798	0.450139	0.450117
O16	O	0.749578	-0.188952	-0.244176
O17	O	1.082911	0.144381	0.089157
O18	O	1.416244	0.477715	0.422490
O19	O	0.676690	-0.244127	-0.116128
O20	O	1.010023	0.089206	0.217206
O21	O	1.343356	0.422540	0.550539
O22	O	0.621617	-0.116102	-0.188978
O23	O	0.954950	0.217231	0.144355
O24	O	1.288284	0.550564	0.477689
O25	O	0.749528	-0.244137	-0.188979
O26	O	1.082861	0.089197	0.144355
O27	O	1.416195	0.422530	0.477688
O28	O	0.676805	-0.116109	-0.244176
O29	O	1.010139	0.217224	0.089157
O30	O	1.343472	0.550557	0.422491
O31	O	0.621551	-0.188935	-0.116127
O32	O	0.954885	0.144398	0.217206
O33	O	1.288218	0.477731	0.550539
O34	O	0.548728	-0.188921	-0.188938
O35	O	0.882062	0.144413	0.144396
O36	O	1.215395	0.477746	0.477729
O37	O	0.621528	-0.244111	-0.316956
O38	O	0.954861	0.089222	0.016377
O39	O	1.288195	0.422556	0.349711
O40	O	0.548690	-0.244101	-0.244105
O41	O	0.882023	0.089232	0.089228
O42	O	1.215357	0.422565	0.422562
O43	O	0.676755	-0.188937	-0.316987
O44	O	1.010088	0.144396	0.016347
O45	O	1.343421	0.477729	0.349680
O46	O	0.676639	-0.316955	-0.188938
O47	O	1.009972	0.016378	0.144395
O48	O	1.343306	0.349712	0.477728
O49	O	0.621462	-0.316944	-0.244105
O50	O	0.954796	0.016389	0.089228
O51	O	1.288129	0.349723	0.422561
C52	C	0.532408	-0.216509	-0.216517
C53	C	0.865742	0.116825	0.116816
C54	C	1.199075	0.450158	0.450150
C55	C	0.482474	-0.216511	-0.216514
C56	C	0.815807	0.116822	0.116819
C57	C	1.149141	0.450155	0.450153
C58	C	0.172820	-0.245303	-0.245240
C59	C	0.506153	0.088031	0.088093
C60	C	0.839487	0.421364	0.421427
C61	C	-0.014853	-0.245315	-0.245260
C62	C	0.318480	0.088018	0.088073
C63	C	0.651814	0.421351	0.421407
O64	O	-0.039127	-0.269774	-0.269665
O65	O	0.294207	0.063560	0.063669
O66	O	0.627540	0.396893	0.397002
N67	N	-0.038311	-0.216544	-0.216583
N68	N	0.295022	0.116789	0.116750
N69	N	0.628356	0.450123	0.450083
C70	C	-0.014848	-0.187766	-0.187902
C71	C	0.318485	0.145568	0.145432
C72	C	0.651819	0.478901	0.478765
O73	O	-0.039107	-0.163291	-0.163514
O74	O	0.294226	0.170042	0.169819
O75	O	0.627560	0.503376	0.503152
C76	C	0.172824	-0.187751	-0.187884
C77	C	0.506157	0.145582	0.145449
C78	C	0.839491	0.478916	0.478782
C79	C	0.196280	-0.216527	-0.216560
C80	C	0.529613	0.116806	0.116774
C81	C	0.862946	0.450139	0.450107
C82	C	0.196276	-0.274076	-0.273913
C83	C	0.529609	0.059257	0.059420
C84	C	0.862942	0.392590	0.392753
C85	C	0.243191	-0.274075	-0.273906
C86	C	0.576525	0.059259	0.059427
C87	C	0.909858	0.392592	0.392760
C88	C	0.266651	-0.245299	-0.245226
C89	C	0.599984	0.088034	0.088107
C90	C	0.933318	0.421367	0.421441
C91	C	0.243195	-0.216526	-0.216553
C92	C	0.576529	0.116808	0.116781
C93	C	0.909862	0.450141	0.450114
C94	C	0.196286	-0.158971	-0.159205
C95	C	0.529620	0.174363	0.174128
C96	C	0.862953	0.507696	0.507461
C97	C	0.243207	-0.158969	-0.159204
C98	C	0.576541	0.174365	0.174129
C99	C	0.909874	0.507698	0.507462
C100	C	0.266663	-0.187745	-0.187880
C101	C	0.599996	0.145588	0.145454
C102	C	0.933330	0.478922	0.478787
C103	C	0.313570	-0.187749	-0.187865
C104	C	0.646904	0.145585	0.145468
C105	C	0.980237	0.478918	0.478801
N106	N	0.337029	-0.216520	-0.216542
N107	N	0.670362	0.116814	0.116791
N108	N	1.003695	0.450147	0.450125
C109	C	0.313569	-0.245295	-0.245222
C110	C	0.646902	0.088038	0.088111
C111	C	0.980235	0.421372	0.421444
C112	C	-0.113379	-0.187776	-0.187912
C113	C	0.219955	0.145557	0.145421
C114	C	0.553288	0.478891	0.478754
C115	C	-0.160297	-0.187780	-0.187916
C116	C	0.173037	0.145553	0.145417
C117	C	0.506370	0.478887	0.478751
C118	C	-0.160298	-0.245329	-0.245275
C119	C	0.173035	0.088004	0.088058
C120	C	0.506368	0.421337	0.421392
C121	C	-0.113380	-0.245327	-0.245269
C122	C	0.219954	0.088006	0.088065
C123	C	0.553287	0.421339	0.421398
C124	C	-0.089921	-0.216547	-0.216589
C125	C	0.243413	0.116786	0.116744
C126	C	0.576746	0.450119	0.450078
C127	C	0.412095	-0.245290	-0.245205
C128	C	0.745428	0.088044	0.088128
C129	C	1.078761	0.421377	0.421462
C130	C	0.459014	-0.245287	-0.245194
C131	C	0.792348	0.088047	0.088139
C132	C	1.125681	0.421380	0.421472
C133	C	0.459012	-0.187736	-0.187837
C134	C	0.792345	0.145597	0.145496
C135	C	1.125678	0.478931	0.478830
C136	C	0.412096	-0.187740	-0.187846
C137	C	0.745430	0.145593	0.145487
C138	C	1.078763	0.478926	0.478821
C139	C	0.388639	-0.216519	-0.216534
C140	C	0.721972	0.116815	0.116800
C141	C	1.055306	0.450148	0.450133
O142	O	0.337873	-0.163299	-0.163477
O143	O	0.671206	0.170034	0.169856
O144	O	1.004540	0.503367	0.503190
O145	O	0.337836	-0.269759	-0.269613
O146	O	0.671169	0.063574	0.063720
O147	O	1.004502	0.396908	0.397054
C148	C	0.125905	-0.245304	-0.245247
C149	C	0.459238	0.088029	0.088086
C150	C	0.792571	0.421362	0.421420
C151	C	0.102449	-0.216531	-0.216574
C152	C	0.435782	0.116803	0.116760
C153	C	0.769116	0.450136	0.450093
C154	C	0.125909	-0.187755	-0.187893
C155	C	0.459242	0.145578	0.145440
C156	C	0.792575	0.478911	0.478773
C157	C	0.055531	-0.216535	-0.216577
C158	C	0.388864	0.116798	0.116756
C159	C	0.722198	0.450132	0.450089
C160	C	0.032071	-0.245310	-0.245258
C161	C	0.365405	0.088023	0.088076
C162	C	0.698738	0.421356	0.421409
C163	C	0.055529	-0.274082	-0.273934
C164	C	0.388863	0.059252	0.059399
C165	C	0.722196	0.392585	0.392732
C166	C	0.102445	-0.274080	-0.273927
C167	C	0.435778	0.059253	0.059406
C168	C	0.769112	0.392587	0.392739
C169	C	0.102451	-0.158984	-0.159217
C170	C	0.435784	0.174349	0.174117
C171	C	0.769117	0.507682	0.507450
C172	C	0.055535	-0.158989	-0.159226
C173	C	0.388868	0.174345	0.174108
C174	C	0.722202	0.507678	0.507441
C175	C	0.032075	-0.187764	-0.187906
C176	C	0.365409	0.145569	0.145427
C177	C	0.698742	0.478903	0.478761
C178	C	0.649050	-0.333250	-0.216527
C179	C	0.982383	0.000083	0.116806
C180	C	1.315717	0.333416	0.450139
C181	C	0.649056	-0.383185	-0.216533
C182	C	0.982390	-0.049851	0.116801
C183	C	1.315723	0.283482	0.450134
C184	C	0.677914	-0.692821	-0.187866
C185	C	1.011247	-0.359488	0.145467
C186	C	1.344580	-0.026155	0.478801
C187	C	0.677969	-0.880494	-0.187883
C188	C	1.011303	-0.547161	0.145450
C189	C	1.344636	-0.213828	0.478783
O190	O	0.702441	-0.904753	-0.163493
O191	O	1.035774	-0.571420	0.169841
O192	O	1.369107	-0.238087	0.503174
N193	N	0.649224	-0.903970	-0.216583
N194	N	0.982557	-0.570636	0.116750
N195	N	1.315891	-0.237303	0.450083
C196	C	0.620465	-0.880524	-0.245283
C197	C	0.953799	-0.547191	0.088050
C198	C	1.287132	-0.213857	0.421384
O199	O	0.596020	-0.904798	-0.269698
O200	O	0.929354	-0.571464	0.063635
O201	O	1.262687	-0.238131	0.396969
C202	C	0.620412	-0.692852	-0.245268
C203	C	0.953746	-0.359519	0.088066
C204	C	1.287079	-0.026185	0.421399
C205	C	0.649156	-0.669379	-0.216563
C206	C	0.982489	-0.336045	0.116771
C207	C	1.315823	-0.002712	0.450104
C208	C	0.706656	-0.669348	-0.159164
C209	C	1.039989	-0.336015	0.174170
C210	C	1.373322	-0.002681	0.507503
C211	C	0.706640	-0.622433	-0.159158
C212	C	1.039973	-0.289099	0.174176
C213	C	1.373306	0.044234	0.507509
C214	C	0.677882	-0.598990	-0.187854
C215	C	1.011215	-0.265657	0.145479
C216	C	1.344549	0.067676	0.478812
C217	C	0.649140	-0.622463	-0.216557
C218	C	0.982474	-0.289130	0.116777
C219	C	1.315807	0.044203	0.450110
C220	C	0.591656	-0.669407	-0.273969
C221	C	0.924989	-0.336074	0.059364
C222	C	1.258323	-0.002740	0.392697
C223	C	0.591646	-0.622486	-0.273964
C224	C	0.924979	-0.289153	0.059370
C225	C	1.258313	0.044181	0.392703
C226	C	0.620390	-0.599013	-0.245259
C227	C	0.953723	-0.265680	0.088075
C228	C	1.287057	0.067654	0.421408
C229	C	0.620367	-0.552106	-0.245248
C230	C	0.953700	-0.218772	0.088086
C231	C	1.287033	0.114561	0.421419
N232	N	0.649112	-0.528630	-0.216548
N233	N	0.982445	-0.195297	0.116786
N234	N	1.315778	0.138037	0.450119
C235	C	0.677869	-0.552072	-0.187851
C236	C	1.011203	-0.218739	0.145482
C237	C	1.344536	0.114594	0.478816
C238	C	0.620494	-0.979055	-0.245289
C239	C	0.953828	-0.645721	0.088045
C240	C	1.287161	-0.312388	0.421378
C241	C	0.620507	-1.025973	-0.245292
C242	C	0.953840	-0.692639	0.088041
C243	C	1.287174	-0.359306	0.421375
C244	C	0.678012	-1.025939	-0.187893
C245	C	1.011345	-0.692606	0.145441
C246	C	1.344678	-0.359273	0.478774
C247	C	0.677996	-0.979021	-0.187887
C248	C	1.011330	-0.645687	0.145446
C249	C	1.344663	-0.312354	0.478779
C250	C	0.649239	-0.955579	-0.216589
C251	C	0.982573	-0.622246	0.116745
C252	C	1.315906	-0.288913	0.450078
C253	C	0.677834	-0.453547	-0.187841
C254	C	1.011167	-0.120213	0.145493
C255	C	1.344500	0.213120	0.478826
C256	C	0.677814	-0.406627	-0.187836
C257	C	1.011147	-0.073294	0.145497
C258	C	1.344481	0.260040	0.478831
C259	C	0.620311	-0.406664	-0.245237
C260	C	0.953644	-0.073331	0.088097
C261	C	1.286978	0.260002	0.421430
C262	C	0.620329	-0.453580	-0.245240
C263	C	0.953662	-0.120246	0.088093
C264	C	1.286996	0.213087	0.421427
C265	C	0.649094	-0.477020	-0.216540
C266	C	0.982427	-0.143686	0.116793
C267	C	1.315761	0.189647	0.450126
O268	O	0.595912	-0.527818	-0.269629
O269	O	0.929245	-0.194484	0.063704
O270	O	1.262578	0.138849	0.397038
O271	O	0.702318	-0.527791	-0.163447
O272	O	1.035651	-0.194457	0.169886
O273	O	1.368984	0.138876	0.503220
C274	C	0.677930	-0.739737	-0.187872
C275	C	1.011263	-0.406403	0.145462
C276	C	1.344596	-0.073070	0.478795
C277	C	0.649188	-0.763210	-0.216574
C278	C	0.982521	-0.429876	0.116759
C279	C	1.315855	-0.096543	0.450093
C280	C	0.620430	-0.739767	-0.245271
C281	C	0.953764	-0.406434	0.088063
C282	C	1.287097	-0.073101	0.421396
C283	C	0.649200	-0.810128	-0.216578
C284	C	0.982534	-0.476794	0.116756
C285	C	1.315867	-0.143461	0.450089
C286	C	0.677958	-0.833570	-0.187881
C287	C	1.011291	-0.500237	0.145452
C288	C	1.344625	-0.166903	0.478786
C289	C	0.706703	-0.810094	-0.159181
C290	C	1.040037	-0.476761	0.174152
C291	C	1.373370	-0.143428	0.507486
C292	C	0.706687	-0.763179	-0.159175
C293	C	1.040021	-0.429846	0.174158
C294	C	1.373354	-0.096512	0.507492
C295	C	0.591685	-0.763243	-0.273971
C296	C	0.925018	-0.429910	0.059363
C297	C	1.258352	-0.096576	0.392696
C298	C	0.591703	-0.810158	-0.273974
C299	C	0.925036	-0.476825	0.059360
C300	C	1.258370	-0.143492	0.392693
C301	C	0.620461	-0.833601	-0.245277
C302	C	0.953794	-0.500267	0.088056
C303	C	1.287127	-0.166934	0.421389
C304	C	0.766309	-0.216547	-0.216582
C305	C	1.099643	0.116786	0.116751
C306	C	1.432976	0.450120	0.450084
C307	C	0.816244	-0.216555	-0.216596
C308	C	1.149577	0.116778	0.116737
C309	C	1.482910	0.450111	0.450070
C310	C	0.649143	-0.216524	-0.333728
C311	C	0.982476	0.116810	-0.000395
C312	C	1.315810	0.450143	0.332939
C313	C	0.649148	-0.216522	-0.383662
C314	C	0.982482	0.116811	-0.050329
C315	C	1.315815	0.450145	0.283004
C316	C	0.649225	-0.099349	-0.216582
C317	C	0.982558	0.233984	0.116752
C318	C	1.315891	0.567317	0.450085
C319	C	0.649265	-0.049415	-0.216595
C320	C	0.982598	0.283918	0.116738
C321	C	1.315931	0.617252	0.450071
C322	C	0.677935	-0.187718	-0.693325
C323	C	1.011268	0.145615	-0.359991
C324	C	1.344602	0.478949	-0.026658
C325	C	0.677957	-0.187680	-0.880998
C326	C	1.011291	0.145654	-0.547665
C327	C	1.344624	0.478987	-0.214331
O328	O	0.702399	-0.163232	-0.905279
O329	O	1.035733	0.170101	-0.571946
O330	O	1.369066	0.503435	-0.238612
N331	N	0.649208	-0.216402	-0.904448
N332	N	0.982541	0.116932	-0.571114
N333	N	1.315875	0.450265	-0.237781
C334	C	0.620449	-0.245133	-0.880976
C335	C	0.953782	0.088200	-0.547643
C336	C	1.287115	0.421533	-0.214310
O337	O	0.595993	-0.269559	-0.905228
O338	O	0.929326	0.063774	-0.571895
O339	O	1.262659	0.397108	-0.238561
C340	C	0.620424	-0.245169	-0.693304
C341	C	0.953758	0.088164	-0.359971
C342	C	1.287091	0.421498	-0.026637
C343	C	0.649179	-0.216448	-0.669857
C344	C	0.982512	0.116885	-0.336523
C345	C	1.315846	0.450218	-0.003190
C346	C	0.706687	-0.158999	-0.669877
C347	C	1.040020	0.174334	-0.336544
C348	C	1.373354	0.507667	-0.003211
C349	C	0.706683	-0.159011	-0.622962
C350	C	1.040016	0.174323	-0.289629
C351	C	1.373349	0.507656	0.043705
C352	C	0.677927	-0.187741	-0.599494
C353	C	1.011260	0.145592	-0.266160
C354	C	1.344593	0.478926	0.067173
C355	C	0.649175	-0.216460	-0.622941
C356	C	0.982508	0.116874	-0.289608
C357	C	1.315842	0.450207	0.043726
C358	C	0.591663	-0.273898	-0.669833
C359	C	0.924997	0.059435	-0.336500
C360	C	1.258330	0.392769	-0.003167
C361	C	0.591659	-0.273903	-0.622912
C362	C	0.924992	0.059430	-0.289579
C363	C	1.258326	0.392763	0.043754
C364	C	0.620414	-0.245183	-0.599465
C365	C	0.953747	0.088151	-0.266132
C366	C	1.287080	0.421484	0.067202
C367	C	0.620415	-0.245202	-0.552558
C368	C	0.953748	0.088132	-0.219224
C369	C	1.287081	0.421465	0.114109
N370	N	0.649164	-0.216480	-0.529108
N371	N	0.982498	0.116854	-0.195774
N372	N	1.315831	0.450187	0.137559
C373	C	0.677920	-0.187749	-0.552576
C374	C	1.011254	0.145584	-0.219243
C375	C	1.344587	0.478917	0.114091
C376	C	0.620464	-0.245113	-0.979507
C377	C	0.953797	0.088220	-0.646173
C378	C	1.287131	0.421554	-0.312840
C379	C	0.620471	-0.245105	-1.026425
C380	C	0.953804	0.088229	-0.693091
C381	C	1.287137	0.421562	-0.359758
C382	C	0.677979	-0.187650	-1.026443
C383	C	1.011312	0.145683	-0.693110
C384	C	1.344645	0.479016	-0.359777
C385	C	0.677974	-0.187661	-0.979524
C386	C	1.011308	0.145672	-0.646191
C387	C	1.344641	0.479005	-0.312858
C388	C	0.649214	-0.216391	-0.956057
C389	C	0.982547	0.116942	-0.622724
C390	C	1.315880	0.450276	-0.289390
C391	C	0.677910	-0.187776	-0.454050
C392	C	1.011243	0.145557	-0.120717
C393	C	1.344576	0.478891	0.212617
C394	C	0.677904	-0.187792	-0.407130
C395	C	1.011238	0.145542	-0.073797
C396	C	1.344571	0.478875	0.259536
C397	C	0.620395	-0.245244	-0.407116
C398	C	0.953728	0.088089	-0.073783
C399	C	1.287061	0.421423	0.259551
C400	C	0.620401	-0.245230	-0.454032
C401	C	0.953735	0.088103	-0.120698
C402	C	1.287068	0.421436	0.212635
C403	C	0.649161	-0.216493	-0.477497
C404	C	0.982494	0.116840	-0.144164
C405	C	1.315827	0.450174	0.189169
O406	O	0.595982	-0.269633	-0.528248
O407	O	0.929315	0.063700	-0.194914
O408	O	1.262649	0.397034	0.138419
O409	O	0.702366	-0.163320	-0.528316
O410	O	1.035699	0.170013	-0.194983
O411	O	1.369032	0.503346	0.138350
C412	C	0.677939	-0.187706	-0.740240
C413	C	1.011273	0.145627	-0.406907
C414	C	1.344606	0.478960	-0.073574
C415	C	0.649187	-0.216425	-0.763688
C416	C	0.982521	0.116908	-0.430354
C417	C	1.315854	0.450242	-0.097021
C418	C	0.620431	-0.245155	-0.740219
C419	C	0.953765	0.088178	-0.406886
C420	C	1.287098	0.421511	-0.073553
C421	C	0.649194	-0.216417	-0.810605
C422	C	0.982527	0.116917	-0.477272
C423	C	1.315861	0.450250	-0.143939
C424	C	0.677950	-0.187686	-0.834074
C425	C	1.011283	0.145647	-0.500740
C426	C	1.344617	0.478980	-0.167407
C427	C	0.706699	-0.158964	-0.810624
C428	C	1.040033	0.174369	-0.477291
C429	C	1.373366	0.507702	-0.143957
C430	C	0.706695	-0.158976	-0.763708
C431	C	1.040029	0.174357	-0.430375
C432	C	1.373362	0.507691	-0.097042
C433	C	0.591682	-0.273877	-0.763669
C434	C	0.925015	0.059456	-0.430336
C435	C	1.258349	0.392789	-0.097002
C436	C	0.591689	-0.273864	-0.810585
C437	C	0.925022	0.059470	-0.477251
C438	C	1.258355	0.392803	-0.143918
C439	C	0.620445	-0.245133	-0.834053
C440	C	0.953778	0.088200	-0.500719
C441	C	1.287111	0.421533	-0.167386
C442	C	0.649145	-0.216499	-0.099827
C443	C	0.982478	0.116834	0.233506
C444	C	1.315811	0.450167	0.566840
C445	C	0.649227	-0.216374	-0.049893
C446	C	0.982560	0.116959	0.283440
C447	C	1.315893	0.450292	0.616774
H448	H	-0.179407	-0.268759	-0.268628
H449	H	0.153926	0.064574	0.064706
H450	H	0.487260	0.397907	0.398039
C451	C	0.709161	-0.156650	-0.479580
C452	C	1.042494	0.176683	-0.146247
C453	C	1.375828	0.510016	0.187086
C454	C	0.737932	-0.182084	-0.506530
C455	C	1.071265	0.151249	-0.173197
C456	C	1.404599	0.484582	0.160137
C457	C	0.766724	-0.153429	-0.530059
C458	C	1.100058	0.179905	-0.196726
C459	C	1.433391	0.513238	0.136608
H460	H	0.726325	-0.139540	-0.458943
H461	H	1.059658	0.193793	-0.125610
H462	H	1.392992	0.527127	0.207724
H463	H	0.692009	-0.137073	-0.497906
H464	H	1.025342	0.196261	-0.164572
H465	H	1.358675	0.529594	0.168761
H466	H	0.755083	-0.201654	-0.488206
H467	H	1.088416	0.131679	-0.154873
H468	H	1.421749	0.465013	0.178460
H469	H	0.720780	-0.199193	-0.527176
H470	H	1.054114	0.134140	-0.193842
H471	H	1.387447	0.467473	0.139491
H472	H	0.749572	-0.133851	-0.548384
H473	H	1.082905	0.199482	-0.215051
H474	H	1.416239	0.532815	0.118282
H475	H	0.783885	-0.136320	-0.509419
H476	H	1.117219	0.197013	-0.176085
H477	H	1.450552	0.530346	0.157248
H478	H	0.786246	-0.170681	-0.548350
H479	H	1.119579	0.162652	-0.215017
H480	H	1.452913	0.495985	0.118316
C481	C	0.589278	-1.051373	-0.276503
C482	C	0.922612	-0.718040	0.056830
C483	C	1.255945	-0.384707	0.390163
C484	C	0.564102	-1.020796	-0.301641
C485	C	0.897435	-0.687462	0.031693
C486	C	1.230769	-0.354129	0.365026
C487	C	0.535335	-1.044177	-0.330405
C488	C	0.868668	-0.710843	0.002929
C489	C	1.202002	-0.377510	0.336262
H490	H	0.569679	-1.069703	-0.259351
H491	H	0.903013	-0.736369	0.073983
H492	H	1.236346	-0.403036	0.407316
H493	H	0.606444	-1.069642	-0.296124
H494	H	0.939778	-0.736309	0.037210
H495	H	1.273111	-0.402976	0.370543
H496	H	0.546937	-1.002534	-0.282023
H497	H	0.880271	-0.669201	0.051310
H498	H	1.213604	-0.335868	0.384644
H499	H	0.583689	-1.002465	-0.318803
H500	H	0.917022	-0.669132	0.014531
H501	H	1.250356	-0.335799	0.347864
H502	H	0.552501	-1.062446	-0.350025
H503	H	0.885835	-0.729112	-0.016691
H504	H	1.219168	-0.395779	0.316642
H505	H	0.515739	-1.062505	-0.313248
H506	H	0.849073	-0.729172	0.020085
H507	H	1.182406	-0.395838	0.353418
H508	H	0.518253	-1.023433	-0.347467
H509	H	0.851586	-0.690100	-0.014133
H510	H	1.184919	-0.356767	0.319200
H511	H	0.568292	-0.829266	-0.297349
H512	H	0.901626	-0.495933	0.035985
H513	H	1.234959	-0.162599	0.369318
C514	C	0.737916	-0.127774	-0.597590
C515	C	1.071249	0.205559	-0.264257
C516	C	1.404582	0.538893	0.069077
C517	C	0.763087	-0.102605	-0.628192
C518	C	1.096420	0.230728	-0.294859
C519	C	1.429754	0.564062	0.038474
C520	C	0.791859	-0.073818	-0.604840
C521	C	1.125192	0.259515	-0.271506
C522	C	1.458525	0.592849	0.061827
H523	H	0.757517	-0.144911	-0.579288
H524	H	1.090851	0.188422	-0.245954
H525	H	1.424184	0.521755	0.087379
H526	H	0.720753	-0.108175	-0.579296
H527	H	1.054087	0.225158	-0.245963
H528	H	1.387420	0.558492	0.087371
H529	H	0.780248	-0.122202	-0.646478
H530	H	1.113581	0.211132	-0.313145
H531	H	1.446915	0.544465	0.020188
H532	H	0.743497	-0.085459	-0.646495
H533	H	1.076830	0.247875	-0.313162
H534	H	1.410164	0.581208	0.020171
H535	H	0.774696	-0.054219	-0.586546
H536	H	1.108030	0.279115	-0.253212
H537	H	1.441363	0.612448	0.080121
H538	H	0.811457	-0.090959	-0.586538
H539	H	1.144791	0.242375	-0.253205
H540	H	1.478124	0.575708	0.080128
H541	H	0.808938	-0.056734	-0.625600
H542	H	1.142271	0.276599	-0.292266
H543	H	1.475605	0.609932	0.041067
C544	C	0.589219	-0.276357	-0.954113
C545	C	0.922552	0.056976	-0.620779
C546	C	1.255886	0.390309	-0.287446
C547	C	0.564054	-0.301513	-0.984697
C548	C	0.897388	0.031820	-0.651363
C549	C	1.230721	0.365153	-0.318030
C550	C	0.535272	-0.330305	-0.961322
C551	C	0.868605	0.003029	-0.627989
C552	C	1.201938	0.336362	-0.294656
H553	H	0.569613	-0.259224	-0.935807
H554	H	0.902947	0.074110	-0.602474
H555	H	1.236280	0.407443	-0.269140
H556	H	0.606373	-0.295964	-0.935821
H557	H	0.939707	0.037369	-0.602488
H558	H	1.273040	0.370702	-0.269154
H559	H	0.546902	-0.281909	-1.002981
H560	H	0.880235	0.051425	-0.669647
H561	H	1.213568	0.384758	-0.336314
H562	H	0.583648	-0.318656	-1.003003
H563	H	0.916981	0.014677	-0.669670
H564	H	1.250315	0.348011	-0.336337
H565	H	0.552426	-0.349912	-0.943031
H566	H	0.885759	-0.016579	-0.609697
H567	H	1.219093	0.316755	-0.276364
H568	H	0.515669	-0.313168	-0.943017
H569	H	0.849003	0.020166	-0.609684
H570	H	1.182336	0.353499	-0.276351
H571	H	0.518197	-0.347380	-0.982070
H572	H	0.851531	-0.014046	-0.648736
H573	H	1.184864	0.319287	-0.315403
C574	C	0.560432	-0.737737	-0.305054
C575	C	0.893766	-0.404404	0.028279
C576	C	1.227099	-0.071071	0.361613
C577	C	0.531653	-0.710834	-0.279582
C578	C	0.864987	-0.377500	0.053752
C579	C	1.198320	-0.044167	0.387085
C580	C	0.502858	-0.687329	-0.308200
C581	C	0.836191	-0.353996	0.025133
C582	C	1.169524	-0.020662	0.358466
H583	H	0.543274	-0.758389	-0.322156
H584	H	0.876607	-0.425056	0.011177
H585	H	1.209941	-0.091723	0.344511
H586	H	0.577582	-0.719383	-0.324641
H587	H	0.910915	-0.386050	0.008693
H588	H	1.244248	-0.052716	0.342026
H589	H	0.514506	-0.729187	-0.260003
H590	H	0.847839	-0.395853	0.073330
H591	H	1.181173	-0.062520	0.406664
H592	H	0.548799	-0.690173	-0.262481
H593	H	0.882133	-0.356840	0.070853
H594	H	1.215466	-0.023507	0.404186
H595	H	0.520007	-0.668975	-0.327787
H596	H	0.853340	-0.335641	0.005546
H597	H	1.186674	-0.002308	0.338880
H598	H	0.485702	-0.707984	-0.325301
H599	H	0.819036	-0.374651	0.008033
H600	H	1.152369	-0.041318	0.341366
H601	H	0.483331	-0.669069	-0.290922
H602	H	0.816664	-0.335736	0.042411
H603	H	1.149997	-0.002403	0.375745
C604	C	0.560543	-0.305108	-0.836060
C605	C	0.893877	0.028225	-0.502727
C606	C	1.227210	0.361558	-0.169394
C607	C	0.585956	-0.333912	-0.862992
C608	C	0.919289	-0.000579	-0.529659
C609	C	1.252623	0.332754	-0.196326
C610	C	0.557280	-0.362702	-0.886459
C611	C	0.890613	-0.029369	-0.553126
C612	C	1.223947	0.303965	-0.219793
H613	H	0.540973	-0.287970	-0.854394
H614	H	0.874306	0.045364	-0.521061
H615	H	1.207640	0.378697	-0.187728
H616	H	0.543427	-0.322244	-0.815372
H617	H	0.876761	0.011089	-0.482039
H618	H	1.210094	0.344422	-0.148705
H619	H	0.603065	-0.316778	-0.883678
H620	H	0.936398	0.016555	-0.550345
H621	H	1.269731	0.349889	-0.217011
H622	H	0.605525	-0.351061	-0.844669
H623	H	0.938859	-0.017727	-0.511336
H624	H	1.272192	0.315606	-0.178003
H625	H	0.540164	-0.379838	-0.865771
H626	H	0.873497	-0.046505	-0.532438
H627	H	1.206830	0.286828	-0.199105
H628	H	0.537711	-0.345560	-0.904791
H629	H	0.871044	-0.012227	-0.571458
H630	H	1.204377	0.321107	-0.238124
H631	H	0.574518	-0.382252	-0.904732
H632	H	0.907852	-0.048918	-0.571399
H633	H	1.241185	0.284415	-0.238066
H634	H	0.730115	-0.135573	-0.829740
H635	H	1.063448	0.197761	-0.496407
H636	H	1.396782	0.531094	-0.163073
C637	C	0.709141	-0.156557	-0.381755
C638	C	1.042474	0.176776	-0.048422
C639	C	1.375808	0.510110	0.284912
C640	C	0.734315	-0.131385	-0.412353
C641	C	1.067648	0.201948	-0.079020
C642	C	1.400981	0.535281	0.254313
C643	C	0.763088	-0.102604	-0.388996
C644	C	1.096422	0.230730	-0.055663
C645	C	1.429755	0.564063	0.277671
H646	H	0.728741	-0.173698	-0.363455
H647	H	1.062075	0.159635	-0.030122
H648	H	1.395408	0.492968	0.303211
H649	H	0.691980	-0.136959	-0.363459
H650	H	1.025313	0.196374	-0.030125
H651	H	1.358647	0.529707	0.303208
H652	H	0.751475	-0.150981	-0.430642
H653	H	1.084808	0.182353	-0.097309
H654	H	1.418141	0.515686	0.236025
H655	H	0.714726	-0.114235	-0.430654
H656	H	1.048060	0.219099	-0.097321
H657	H	1.381393	0.552432	0.236012
H658	H	0.745927	-0.083006	-0.370700
H659	H	1.079261	0.250327	-0.037366
H660	H	1.412594	0.583661	0.295967
H661	H	0.782686	-0.119749	-0.370697
H662	H	1.116019	0.213585	-0.037364
H663	H	1.449352	0.546918	0.295970
H664	H	0.780169	-0.085519	-0.409753
H665	H	1.113502	0.247815	-0.076420
H666	H	1.446836	0.581148	0.256913
C667	C	0.589140	-0.381126	-0.276376
C668	C	0.922473	-0.047793	0.056957
C669	C	1.255806	0.285541	0.390290
C670	C	0.595292	-0.335014	-0.270234
C671	C	0.928625	-0.001681	0.063099
C672	C	1.261958	0.331653	0.396433
C673	C	0.566592	-0.311473	-0.298919
C674	C	0.899925	0.021860	0.034415
C675	C	1.233258	0.355193	0.367748
H676	H	0.558942	-0.388789	-0.269802
H677	H	0.892275	-0.055455	0.063531
H678	H	1.225608	0.277878	0.396865
H679	H	0.595703	-0.388769	-0.306579
H680	H	0.929036	-0.055436	0.026755
H681	H	1.262370	0.277898	0.360088
H682	H	0.588726	-0.327374	-0.240038
H683	H	0.922059	0.005959	0.093295
H684	H	1.255392	0.339293	0.426628
H685	H	0.625484	-0.327338	-0.276811
H686	H	0.958817	0.005995	0.056522
H687	H	1.292151	0.339329	0.389855
H688	H	0.573155	-0.319117	-0.329121
H689	H	0.906488	0.014217	0.004212
H690	H	1.239821	0.347550	0.337546
H691	H	0.536395	-0.319140	-0.292342
H692	H	0.869729	0.014194	0.040991
H693	H	1.203062	0.347527	0.374325
H694	H	0.570765	-0.280184	-0.294758
H695	H	0.904098	0.053149	0.038575
H696	H	1.237431	0.386482	0.371909
H697	H	0.596925	-0.472692	-0.268615
H698	H	0.930258	-0.139359	0.064718
H699	H	1.263591	0.193974	0.398051
C700	C	0.709255	-1.051315	-0.156689
C701	C	1.042588	-0.717982	0.176644
C702	C	1.375921	-0.384649	0.509978
C703	C	0.734423	-1.020721	-0.131545
C704	C	1.067757	-0.687388	0.201789
C705	C	1.401090	-0.354054	0.535122
C706	C	0.763205	-1.044083	-0.102796
C707	C	1.096539	-0.710749	0.230538
C708	C	1.429872	-0.377416	0.563871
H709	H	0.728857	-1.069595	-0.173853
H710	H	1.062191	-0.736261	0.159481
H711	H	1.395524	-0.402928	0.492814
H712	H	0.692100	-1.069633	-0.137073
H713	H	1.025433	-0.736299	0.196261
H714	H	1.358766	-0.402966	0.529594
H715	H	0.751577	-1.002411	-0.151159
H716	H	1.084910	-0.669078	0.182175
H717	H	1.418244	-0.335745	0.515508
H718	H	0.714832	-1.002441	-0.114372
H719	H	1.048166	-0.669107	0.218961
H720	H	1.381499	-0.335774	0.552295
H721	H	0.746050	-1.062400	-0.083179
H722	H	1.079384	-0.729067	0.250154
H723	H	1.412717	-0.395733	0.583487
H724	H	0.782805	-1.062361	-0.119963
H725	H	1.116138	-0.729028	0.213370
H726	H	1.449472	-0.395695	0.546704
H727	H	0.780283	-1.023328	-0.085729
H728	H	1.113616	-0.689995	0.247604
H729	H	1.446949	-0.356662	0.580938
C730	C	0.268735	-0.127795	-0.128038
C731	C	0.602068	0.205538	0.205296
C732	C	0.935401	0.538871	0.538629
C733	C	0.295648	-0.153186	-0.099199
C734	C	0.628982	0.180147	0.234134
C735	C	0.962315	0.513481	0.567468
C736	C	0.319174	-0.124487	-0.070486
C737	C	0.652508	0.208847	0.262848
C738	C	0.985841	0.542180	0.596181
H739	H	0.248095	-0.110649	-0.110919
H740	H	0.581429	0.222684	0.222415
H741	H	0.914762	0.556017	0.555748
H742	H	0.287084	-0.108253	-0.145244
H743	H	0.620417	0.225080	0.188089
H744	H	0.953751	0.558413	0.521423
H745	H	0.277301	-0.172720	-0.081994
H746	H	0.610634	0.160613	0.251339
H747	H	0.943967	0.493946	0.584672
H748	H	0.316296	-0.170331	-0.116305
H749	H	0.649629	0.163002	0.217028
H750	H	0.982963	0.496335	0.550361
H751	H	0.337524	-0.104945	-0.087692
H752	H	0.670857	0.228389	0.245641
H753	H	1.004190	0.561722	0.578975
H754	H	0.298532	-0.107342	-0.053370
H755	H	0.631865	0.225992	0.279963
H756	H	0.965198	0.559325	0.613297
H757	H	0.337441	-0.141710	-0.050918
H758	H	0.670774	0.191624	0.282415
H759	H	1.004108	0.524957	0.615749
H760	H	0.568248	-0.297285	-0.688916
H761	H	0.901582	0.036048	-0.355583
H762	H	1.234915	0.369381	-0.022249
H763	H	0.568233	-0.297294	-0.603808
H764	H	0.901567	0.036039	-0.270474
H765	H	1.234900	0.369372	0.062859
C766	C	0.589331	-0.276350	-1.051901
C767	C	0.922664	0.056983	-0.718567
C768	C	1.255998	0.390317	-0.385234
C769	C	0.614748	-0.305154	-1.078828
C770	C	0.948082	0.028179	-0.745495
C771	C	1.281415	0.361512	-0.412162
C772	C	0.586076	-0.333948	-1.102296
C773	C	0.919410	-0.000615	-0.768962
C774	C	1.252743	0.332719	-0.435629
H775	H	0.569761	-0.259214	-1.070238
H776	H	0.903094	0.074119	-0.736905
H777	H	1.236428	0.407452	-0.403571
H778	H	0.572214	-0.293486	-1.031213
H779	H	0.905548	0.039847	-0.697879
H780	H	1.238881	0.373181	-0.364546
H781	H	0.631857	-0.288020	-1.099514
H782	H	0.965191	0.045313	-0.766180
H783	H	1.298524	0.378646	-0.432847
H784	H	0.634317	-0.322300	-1.060502
H785	H	0.967651	0.011033	-0.727169
H786	H	1.300984	0.344367	-0.393836
H787	H	0.568960	-0.351084	-1.081608
H788	H	0.902293	-0.017750	-0.748275
H789	H	1.235626	0.315583	-0.414941
H790	H	0.566508	-0.316809	-1.120631
H791	H	0.899841	0.016525	-0.787297
H792	H	1.233174	0.349858	-0.453964
H793	H	0.603318	-0.353498	-1.120566
H794	H	0.936651	-0.020164	-0.787232
H795	H	1.269984	0.313169	-0.453899
C796	C	0.127836	-0.127724	-0.128026
C797	C	0.461169	0.205609	0.205308
C798	C	0.794502	0.538942	0.538641
C799	C	0.097245	-0.102539	-0.102909
C800	C	0.430578	0.230794	0.230424
C801	C	0.763912	0.564128	0.563758
C802	C	0.120611	-0.073742	-0.074163
C803	C	0.453945	0.259592	0.259170
C804	C	0.787278	0.592925	0.592504
H805	H	0.146161	-0.108133	-0.145190
H806	H	0.479495	0.225201	0.188143
H807	H	0.812828	0.558534	0.521477
H808	H	0.146107	-0.144869	-0.108391
H809	H	0.479440	0.188464	0.224942
H810	H	0.812774	0.521798	0.558275
H811	H	0.078981	-0.085396	-0.122540
H812	H	0.412315	0.247938	0.210793
H813	H	0.745648	0.581271	0.544126
H814	H	0.078918	-0.122119	-0.085735
H815	H	0.412252	0.211214	0.247598
H816	H	0.745585	0.544548	0.580931
H817	H	0.138883	-0.090886	-0.054529
H818	H	0.472216	0.242447	0.278804
H819	H	0.805549	0.575780	0.612138
H820	H	0.138936	-0.054153	-0.091331
H821	H	0.472269	0.279180	0.242002
H822	H	0.805603	0.612514	0.575335
H823	H	0.099859	-0.056653	-0.057115
H824	H	0.433192	0.276680	0.276218
H825	H	0.766526	0.610014	0.609552
C826	C	0.737837	-0.127746	-0.695374
C827	C	1.071170	0.205587	-0.362041
C828	C	1.404503	0.538920	-0.028707
C829	C	0.712432	-0.098929	-0.722298
C830	C	1.045765	0.234404	-0.388965
C831	C	1.379099	0.567738	-0.055632
C832	C	0.741115	-0.070128	-0.745783
C833	C	1.074449	0.263205	-0.412450
C834	C	1.407782	0.596538	-0.079116
H835	H	0.757412	-0.144876	-0.713715
H836	H	1.090745	0.188457	-0.380382
H837	H	1.424079	0.521790	-0.047049
H838	H	0.754947	-0.110620	-0.674697
H839	H	1.088280	0.222713	-0.341363
H840	H	1.421614	0.556046	-0.008030
H841	H	0.695329	-0.116053	-0.742973
H842	H	1.028663	0.217280	-0.409640
H843	H	1.361996	0.550614	-0.076307
H844	H	0.692858	-0.081789	-0.703968
H845	H	1.026191	0.251544	-0.370635
H846	H	1.359524	0.584878	-0.037301
H847	H	0.758226	-0.053002	-0.725105
H848	H	1.091559	0.280331	-0.391772
H849	H	1.424893	0.613664	-0.058439
H850	H	0.760690	-0.087262	-0.764122
H851	H	1.094023	0.246071	-0.430788
H852	H	1.427356	0.579405	-0.097455
H853	H	0.723883	-0.050570	-0.764050
H854	H	1.057216	0.282764	-0.430717
H855	H	1.390549	0.616097	-0.097384
H856	H	0.701388	-0.164274	-0.960437
H857	H	1.034721	0.169060	-0.627103
H858	H	1.368055	0.502393	-0.293770
H859	H	0.701393	-0.164257	-1.045559
H860	H	1.034727	0.169076	-0.712226
H861	H	1.368060	0.502409	-0.378892
H862	H	0.478110	-0.268721	-0.268545
H863	H	0.811443	0.064612	0.064788
H864	H	1.144776	0.397945	0.398121
C865	C	0.589137	-0.276433	-0.479410
C866	C	0.922470	0.056901	-0.146077
C867	C	1.255804	0.390234	0.187256
C868	C	0.563947	-0.301590	-0.448813
C869	C	0.897281	0.031744	-0.115480
C870	C	1.230614	0.365077	0.217853
C871	C	0.535134	-0.330331	-0.472172
C872	C	0.868468	0.003002	-0.138839
C873	C	1.201801	0.336336	0.194495
H874	H	0.606256	-0.296045	-0.497721
H875	H	0.939590	0.037289	-0.164387
H876	H	1.272923	0.370622	0.168946
H877	H	0.569552	-0.259249	-0.497697
H878	H	0.902885	0.074085	-0.164363
H879	H	1.236219	0.407418	0.168970
H880	H	0.583530	-0.318772	-0.430535
H881	H	0.916863	0.014561	-0.097202
H882	H	1.250196	0.347894	0.236132
H883	H	0.546819	-0.281990	-0.430502
H884	H	0.880152	0.051344	-0.097169
H885	H	1.213485	0.384677	0.236165
H886	H	0.515549	-0.313147	-0.490458
H887	H	0.848883	0.020186	-0.157125
H888	H	1.182216	0.353520	0.176209
H889	H	0.552257	-0.349940	-0.490482
H890	H	0.885591	-0.016607	-0.157148
H891	H	1.218924	0.316727	0.176185
H892	H	0.518037	-0.347400	-0.451416
H893	H	0.851370	-0.014067	-0.118082
H894	H	1.184703	0.319266	0.215251
C895	C	0.560442	-0.305121	-0.738275
C896	C	0.893775	0.028212	-0.404941
C897	C	1.227108	0.361545	-0.071608
C898	C	0.535275	-0.330276	-0.768858
C899	C	0.868608	0.003057	-0.435525
C900	C	1.201942	0.336391	-0.102191
C901	C	0.506495	-0.359070	-0.745483
C902	C	0.839829	-0.025737	-0.412150
C903	C	1.173162	0.307597	-0.078817
H904	H	0.540837	-0.287990	-0.719966
H905	H	0.874170	0.045344	-0.386633
H906	H	1.207504	0.378677	-0.053299
H907	H	0.577598	-0.324729	-0.719986
H908	H	0.910931	0.008604	-0.386652
H909	H	1.244265	0.341937	-0.053319
H910	H	0.518120	-0.310671	-0.787139
H911	H	0.851453	0.022663	-0.453806
H912	H	1.184787	0.355996	-0.120473
H913	H	0.554868	-0.347417	-0.787168
H914	H	0.888201	-0.014084	-0.453834
H915	H	1.221534	0.319250	-0.120501
H916	H	0.523652	-0.378678	-0.727194
H917	H	0.856985	-0.045345	-0.393861
H918	H	1.190318	0.287989	-0.060528
H919	H	0.486894	-0.341935	-0.727175
H920	H	0.820227	-0.008601	-0.393842
H921	H	1.153560	0.324732	-0.060509
H922	H	0.489419	-0.376144	-0.766231
H923	H	0.822753	-0.042810	-0.432897
H924	H	1.156086	0.290523	-0.099564
H925	H	0.596984	-0.268637	-0.388000
H926	H	0.930317	0.064696	-0.054666
H927	H	1.263650	0.398030	0.278667
H928	H	0.730110	-0.135588	-0.744622
H929	H	1.063443	0.197745	-0.411288
H930	H	1.396777	0.531078	-0.077955
H931	H	0.597076	-0.959972	-0.268661
H932	H	0.930409	-0.626638	0.064672
H933	H	1.263742	-0.293305	0.398005
H934	H	0.177197	-0.135539	-0.135854
H935	H	0.510530	0.197794	0.197480
H936	H	0.843863	0.531128	0.530813
C937	C	0.386712	-0.276583	-0.276369
C938	C	0.720046	0.056750	0.056965
C939	C	1.053379	0.390083	0.390298
C940	C	0.417303	-0.301786	-0.301467
C941	C	0.750637	0.031547	0.031866
C942	C	1.083970	0.364881	0.365200
C943	C	0.393938	-0.330623	-0.330173
C944	C	0.727271	0.002710	0.003160
C945	C	1.060605	0.336044	0.336493
H946	H	0.368429	-0.259481	-0.296019
H947	H	0.701762	0.073853	0.037314
H948	H	1.035096	0.407186	0.370648
H949	H	0.368399	-0.296159	-0.259162
H950	H	0.701732	0.037175	0.074171
H951	H	1.035065	0.370508	0.407504
H952	H	0.435609	-0.282213	-0.318672
H953	H	0.768943	0.051121	0.014661
H954	H	1.102276	0.384454	0.347995
H955	H	0.435588	-0.318898	-0.281828
H956	H	0.768921	0.014436	0.051505
H957	H	1.102254	0.347769	0.384838
H958	H	0.375624	-0.350199	-0.312967
H959	H	0.708958	-0.016865	0.020366
H960	H	1.042291	0.316468	0.353700
H961	H	0.375655	-0.313517	-0.349821
H962	H	0.708989	0.019817	-0.016487
H963	H	1.042322	0.353150	0.316846
H964	H	0.414690	-0.347729	-0.347203
H965	H	0.748024	-0.014396	-0.013870
H966	H	1.081357	0.318937	0.319464
C967	C	0.268709	-0.305240	-0.305073
C968	C	0.602043	0.028093	0.028260
C969	C	0.935376	0.361427	0.361594
C970	C	0.295679	-0.279844	-0.333905
C971	C	0.629012	0.053490	-0.000572
C972	C	0.962345	0.386823	0.332761
C973	C	0.319193	-0.308538	-0.362622
C974	C	0.652526	0.024796	-0.029289
C975	C	0.985859	0.358129	0.304044
H976	H	0.248063	-0.322384	-0.322196
H977	H	0.581396	0.010950	0.011137
H978	H	0.914730	0.344283	0.344471
H979	H	0.287020	-0.324785	-0.287869
H980	H	0.620354	0.008549	0.045464
H981	H	0.953687	0.341882	0.378798
H982	H	0.277369	-0.260307	-0.351108
H983	H	0.610703	0.073026	-0.017774
H984	H	0.944036	0.406360	0.315559
H985	H	0.316333	-0.262701	-0.316795
H986	H	0.649667	0.070632	0.016539
H987	H	0.983000	0.403966	0.349872
H988	H	0.337503	-0.328082	-0.345418
H989	H	0.670837	0.005251	-0.012085
H990	H	1.004170	0.338584	0.321248
H991	H	0.298543	-0.325680	-0.379742
H992	H	0.631876	0.007653	-0.046409
H993	H	0.965210	0.340987	0.286924
H994	H	0.337497	-0.291311	-0.382186
H995	H	0.670830	0.042022	-0.048853
H996	H	1.004164	0.375356	0.284481
H997	H	0.730093	-0.744071	-0.135801
H998	H	1.063427	-0.410737	0.197532
H999	H	1.396760	-0.077404	0.530866
H1000	H	0.177180	-0.297509	-0.297271
H1001	H	0.510513	0.035824	0.036063
H1002	H	0.843847	0.369158	0.369396
C1003	C	-0.087997	-0.276584	-0.276454
C1004	C	0.245337	0.056749	0.056879
C1005	C	0.578670	0.390083	0.390212
C1006	C	-0.118590	-0.301776	-0.301577
C1007	C	0.214744	0.031558	0.031756
C1008	C	0.548077	0.364891	0.365090
C1009	C	-0.095226	-0.330570	-0.330316
C1010	C	0.238107	0.002763	0.003017
C1011	C	0.571441	0.336097	0.336351
H1012	H	-0.069709	-0.296172	-0.259284
H1013	H	0.263624	0.037162	0.074049
H1014	H	0.596957	0.370495	0.407382
H1015	H	-0.069687	-0.259437	-0.296085
H1016	H	0.263646	0.073897	0.037249
H1017	H	0.596980	0.407230	0.370582
H1018	H	-0.136892	-0.318922	-0.281949
H1019	H	0.196442	0.014412	0.051384
H1020	H	0.529775	0.347745	0.384718
H1021	H	-0.136878	-0.282200	-0.318756
H1022	H	0.196456	0.051134	0.014578
H1023	H	0.529789	0.384467	0.347911
H1024	H	-0.076916	-0.313423	-0.349947
H1025	H	0.256417	0.019910	-0.016613
H1026	H	0.589750	0.353244	0.316720
H1027	H	-0.076940	-0.350155	-0.313143
H1028	H	0.256394	-0.016821	0.020190
H1029	H	0.589727	0.316512	0.353524
H1030	H	-0.115980	-0.347663	-0.347368
H1031	H	0.217354	-0.014330	-0.014035
H1032	H	0.550687	0.319004	0.319299
H1033	H	-0.179390	-0.164352	-0.164561
H1034	H	0.153943	0.168981	0.168772
H1035	H	0.487276	0.502315	0.502106
H1036	H	-0.094283	-0.164339	-0.164556
H1037	H	0.239051	0.168994	0.168778
H1038	H	0.572384	0.502327	0.502111
C1039	C	0.484407	-0.156480	-0.156648
C1040	C	0.817740	0.176853	0.176685
C1041	C	1.151074	0.510187	0.510018
C1042	C	0.453827	-0.131287	-0.131526
C1043	C	0.787160	0.202046	0.201807
C1044	C	1.120494	0.535379	0.535140
C1045	C	0.477206	-0.102493	-0.102787
C1046	C	0.810539	0.230840	0.230546
C1047	C	1.143872	0.564174	0.563879
H1048	H	0.502733	-0.136893	-0.173818
H1049	H	0.836066	0.196440	0.159515
H1050	H	1.169399	0.529774	0.492848
H1051	H	0.502679	-0.173627	-0.137018
H1052	H	0.836013	0.159706	0.196316
H1053	H	1.169346	0.493039	0.529649
H1054	H	0.435562	-0.114141	-0.151155
H1055	H	0.768896	0.219192	0.182179
H1056	H	1.102229	0.552525	0.515512
H1057	H	0.435501	-0.150862	-0.114347
H1058	H	0.768834	0.182471	0.218986
H1059	H	1.102167	0.515804	0.552320
H1060	H	0.495478	-0.119640	-0.083157
H1061	H	0.828811	0.213693	0.250177
H1062	H	1.162145	0.547026	0.583510
H1063	H	0.495531	-0.082909	-0.119961
H1064	H	0.828864	0.250424	0.213372
H1065	H	1.162197	0.583758	0.546706
H1066	H	0.456461	-0.085399	-0.085736
H1067	H	0.789794	0.247934	0.247598
H1068	H	1.123128	0.581267	0.580931
C1069	C	0.127826	-0.305338	-0.305113
C1070	C	0.461159	0.027995	0.028220
C1071	C	0.794493	0.361329	0.361554
C1072	C	0.097231	-0.330527	-0.330236
C1073	C	0.430564	0.002807	0.003097
C1074	C	0.763898	0.336140	0.336430
C1075	C	0.120592	-0.359323	-0.358976
C1076	C	0.453926	-0.025989	-0.025642
C1077	C	0.787259	0.307344	0.307691
H1078	H	0.146111	-0.324928	-0.287943
H1079	H	0.479444	0.008406	0.045390
H1080	H	0.812778	0.341739	0.378724
H1081	H	0.146138	-0.288192	-0.324743
H1082	H	0.479471	0.045141	0.008590
H1083	H	0.812804	0.378474	0.341924
H1084	H	0.078927	-0.347671	-0.310609
H1085	H	0.412261	-0.014338	0.022725
H1086	H	0.745594	0.318996	0.356058
H1087	H	0.078945	-0.310949	-0.347415
H1088	H	0.412278	0.022385	-0.014082
H1089	H	0.745612	0.355718	0.319252
H1090	H	0.138904	-0.342177	-0.378606
H1091	H	0.472237	-0.008844	-0.045272
H1092	H	0.805571	0.324490	0.288061
H1093	H	0.138877	-0.378909	-0.341802
H1094	H	0.472210	-0.045576	-0.008469
H1095	H	0.805543	0.287757	0.324864
H1096	H	0.099837	-0.376414	-0.376028
H1097	H	0.433171	-0.043080	-0.042695
H1098	H	0.766504	0.290253	0.290639
H1099	H	0.568248	-0.688511	-0.297342
H1100	H	0.901581	-0.355178	0.035991
H1101	H	1.234914	-0.021844	0.369325
H1102	H	0.392998	-0.164309	-0.164496
H1103	H	0.726331	0.169024	0.168838
H1104	H	1.059664	0.502357	0.502171
C1105	C	0.709233	-0.953481	-0.156797
C1106	C	1.042566	-0.620148	0.176536
C1107	C	1.375899	-0.286814	0.509870
C1108	C	0.737998	-0.926503	-0.182261
C1109	C	1.071331	-0.593169	0.151073
C1110	C	1.404664	-0.259836	0.484406
C1111	C	0.766776	-0.902967	-0.153635
C1112	C	1.100110	-0.569634	0.179699
C1113	C	1.433443	-0.236301	0.513032
H1114	H	0.726402	-0.974115	-0.139697
H1115	H	1.059735	-0.640781	0.193636
H1116	H	1.393068	-0.307448	0.526969
H1117	H	0.692070	-0.935175	-0.137208
H1118	H	1.025403	-0.601841	0.196125
H1119	H	1.358737	-0.268508	0.529458
H1120	H	0.755159	-0.944807	-0.201841
H1121	H	1.088492	-0.611474	0.131492
H1122	H	1.421825	-0.278141	0.464825
H1123	H	0.720841	-0.905860	-0.199360
H1124	H	1.054174	-0.572527	0.133974
H1125	H	1.387508	-0.239194	0.467307
H1126	H	0.749614	-0.884661	-0.134046
H1127	H	1.082947	-0.551328	0.199287
H1128	H	1.416281	-0.217994	0.532620
H1129	H	0.783942	-0.923604	-0.136537
H1130	H	1.117276	-0.590271	0.196797
H1131	H	1.450609	-0.256938	0.530130
H1132	H	0.786294	-0.884657	-0.170907
H1133	H	1.119628	-0.551323	0.162426
H1134	H	1.452961	-0.217990	0.495759
H1135	H	0.036420	-0.297513	-0.297286
H1136	H	0.369754	0.035820	0.036048
H1137	H	0.703087	0.369154	0.369381
H1138	H	0.036441	-0.135556	-0.135871
H1139	H	0.369775	0.197777	0.197463
H1140	H	0.703108	0.531111	0.530796
C1141	C	0.737944	-0.835471	-0.127976
C1142	C	1.071278	-0.502137	0.205357
C1143	C	1.404611	-0.168804	0.538691
C1144	C	0.763110	-0.804877	-0.102828
C1145	C	1.096444	-0.471543	0.230505
C1146	C	1.429777	-0.138210	0.563839
C1147	C	0.791890	-0.828239	-0.074077
C1148	C	1.125223	-0.494906	0.259256
C1149	C	1.458557	-0.161572	0.592590
H1150	H	0.757549	-0.853749	-0.145138
H1151	H	1.090883	-0.520416	0.188195
H1152	H	1.424216	-0.187082	0.521528
H1153	H	0.720788	-0.853789	-0.108362
H1154	H	1.054121	-0.520456	0.224972
H1155	H	1.387455	-0.187122	0.558305
H1156	H	0.780265	-0.786566	-0.122440
H1157	H	1.113599	-0.453233	0.210894
H1158	H	1.446932	-0.119899	0.544227
H1159	H	0.743517	-0.786597	-0.085657
H1160	H	1.076851	-0.453264	0.247677
H1161	H	1.410184	-0.119931	0.581010
H1162	H	0.774733	-0.846557	-0.054463
H1163	H	1.108067	-0.513224	0.278870
H1164	H	1.441400	-0.179891	0.612204
H1165	H	0.811492	-0.846517	-0.091243
H1166	H	1.144825	-0.513183	0.242090
H1167	H	1.478158	-0.179850	0.575424
H1168	H	0.808965	-0.807485	-0.057008
H1169	H	1.142299	-0.474152	0.276325
H1170	H	1.475632	-0.140818	0.609659
H1171	H	0.701258	-0.472626	-0.164472
H1172	H	1.034591	-0.139293	0.168862
H1173	H	1.367924	0.194041	0.502195
C1174	C	0.709073	-0.381224	-0.156653
C1175	C	1.042407	-0.047890	0.176681
C1176	C	1.375740	0.285443	0.510014
C1177	C	0.734270	-0.411799	-0.131533
C1178	C	1.067603	-0.078466	0.201800
C1179	C	1.400936	0.254867	0.535133
C1180	C	0.763074	-0.388416	-0.102809
C1181	C	1.096407	-0.055083	0.230525
C1182	C	1.429740	0.278251	0.563858
H1183	H	0.691947	-0.362944	-0.137016
H1184	H	1.025280	-0.029611	0.196317
H1185	H	1.358614	0.303722	0.529650
H1186	H	0.728654	-0.362904	-0.173847
H1187	H	1.061988	-0.029571	0.159486
H1188	H	1.395321	0.303762	0.492820
H1189	H	0.714691	-0.430111	-0.114340
H1190	H	1.048024	-0.096778	0.218993
H1191	H	1.381358	0.236556	0.552326
H1192	H	0.751405	-0.430080	-0.151158
H1193	H	1.084738	-0.096746	0.182176
H1194	H	1.418072	0.236587	0.515509
H1195	H	0.782655	-0.370097	-0.120003
H1196	H	1.115988	-0.036764	0.213331
H1197	H	1.449322	0.296570	0.546664
H1198	H	0.745944	-0.370138	-0.083175
H1199	H	1.079277	-0.036804	0.250158
H1200	H	1.412611	0.296529	0.583491
H1201	H	0.780176	-0.409158	-0.085765
H1202	H	1.113509	-0.075825	0.247569
H1203	H	1.446842	0.257509	0.580902
C1204	C	0.737828	-0.597010	-0.127923
C1205	C	1.071161	-0.263677	0.205410
C1206	C	1.404495	0.069657	0.538743
C1207	C	0.728092	-0.608461	-0.083465
C1208	C	1.061425	-0.275128	0.249869
C1209	C	1.394758	0.058205	0.583202
C1210	C	0.756820	-0.585060	-0.054680
C1211	C	1.090154	-0.251726	0.278654
C1212	C	1.423487	0.081607	0.611987
H1213	H	0.733736	-0.565702	-0.131965
H1214	H	1.067069	-0.232369	0.201369
H1215	H	1.400402	0.100965	0.534702
H1216	H	0.768016	-0.604684	-0.134510
H1217	H	1.101349	-0.271350	0.198823
H1218	H	1.434682	0.061983	0.532157
H1219	H	0.697911	-0.600785	-0.076880
H1220	H	1.031244	-0.267452	0.256453
H1221	H	1.364578	0.065882	0.589786
H1222	H	0.732186	-0.639766	-0.079409
H1223	H	1.065520	-0.306432	0.253924
H1224	H	1.398853	0.026901	0.587258
H1225	H	0.787008	-0.592733	-0.061266
H1226	H	1.120341	-0.259400	0.272067
H1227	H	1.453675	0.073933	0.605400
H1228	H	0.752726	-0.553753	-0.058725
H1229	H	1.086059	-0.220419	0.274608
H1230	H	1.419393	0.112914	0.607941
H1231	H	0.750221	-0.592829	-0.024512
H1232	H	1.083554	-0.259496	0.308822
H1233	H	1.416888	0.073837	0.642155
C1234	C	0.560450	-0.597092	-0.305199
C1235	C	0.893783	-0.263759	0.028134
C1236	C	1.227116	0.069575	0.361467
C1237	C	0.570201	-0.608487	-0.349659
C1238	C	0.903534	-0.275154	-0.016325
C1239	C	1.236868	0.058179	0.317008
C1240	C	0.541469	-0.585108	-0.378444
C1241	C	0.874802	-0.251775	-0.045111
C1242	C	1.208136	0.081558	0.288223
H1243	H	0.564528	-0.565781	-0.301148
H1244	H	0.897861	-0.232447	0.032185
H1245	H	1.231194	0.100886	0.365518
H1246	H	0.530264	-0.604823	-0.298622
H1247	H	0.863597	-0.271489	0.034712
H1248	H	1.196930	0.061844	0.368045
H1249	H	0.600380	-0.600754	-0.356234
H1250	H	0.933713	-0.267421	-0.022901
H1251	H	1.267047	0.065913	0.310433
H1252	H	0.566120	-0.639795	-0.353724
H1253	H	0.899454	-0.306462	-0.020391
H1254	H	1.232787	0.026872	0.312943
H1255	H	0.511283	-0.592839	-0.371866
H1256	H	0.844616	-0.259506	-0.038533
H1257	H	1.177950	0.073828	0.294800
H1258	H	0.545549	-0.553798	-0.374389
H1259	H	0.878883	-0.220465	-0.041056
H1260	H	1.212216	0.112869	0.292278
H1261	H	0.548079	-0.592840	-0.408612
H1262	H	0.881412	-0.259507	-0.075279
H1263	H	1.214745	0.073827	0.258054
H1264	H	0.730076	-0.688430	-0.135795
H1265	H	1.063409	-0.355097	0.197538
H1266	H	1.396743	-0.021763	0.530871
