data_functionalizedCrystal
_audit_creation_method	'MofGen! by Chris Wilmer'
_symmetry_space_group_name_H-M	'P1'
_symmetry_Int_Tables_number	1
_symmetry_cell_setting	triclinic
loop_
_symmetry_equiv_pos_as_xyz
  x,y,z
_cell_length_a	14.628931
_cell_length_b	23.196402
_cell_length_c	23.196401
_cell_angle_alpha	59.999265
_cell_angle_beta	90.005672
_cell_angle_gamma	60.000556
loop_
_atom_site_label
_atom_site_type_symbol
_atom_site_fract_x
_atom_site_fract_y
_atom_site_fract_z
Zr1	Zr	0.880624	0.631009	-0.075632
O2	O	0.734642	0.751291	-0.167686
O3	O	0.925372	0.510739	-0.047417
O4	O	0.925342	0.631025	-0.167691
O5	O	0.734699	0.630988	0.047467
O6	O	1.075774	0.631025	-0.167691
O7	O	0.734672	0.631005	-0.047412
O8	O	1.075828	0.415855	0.047458
O9	O	0.734646	0.846158	-0.167682
O10	O	1.056727	0.560204	-0.035378
O11	O	0.944482	0.560192	0.035428
O12	O	0.944446	0.701813	-0.106179
O13	O	0.832201	0.701801	-0.035373
Zr14	Zr	1.120591	0.630983	0.075688
Zr15	Zr	1.120546	0.631009	-0.075632
Zr16	Zr	0.880669	0.630983	0.075688
Zr17	Zr	0.880631	0.782312	-0.075626
Zr18	Zr	1.120584	0.479680	0.075682
O19	O	1.075843	0.751253	0.047473
O20	O	1.075780	0.751290	-0.167686
O21	O	0.734705	0.751254	0.047472
O22	O	1.266573	0.510701	0.167742
O23	O	1.266510	0.510738	-0.047416
O24	O	0.925435	0.510702	0.167742
O25	O	1.266515	0.631004	-0.047411
O26	O	1.075873	0.630967	0.167747
O27	O	0.925441	0.630967	0.167747
O28	O	1.266543	0.630987	0.047468
O29	O	0.925352	0.846157	-0.167682
O30	O	1.075863	0.415834	0.167738
O31	O	1.266569	0.415834	0.167738
O32	O	1.266534	0.415855	0.047458
O33	O	0.734681	0.846137	-0.047402
O34	O	0.925387	0.846137	-0.047402
O35	O	1.056768	0.560179	0.106236
O36	O	1.169013	0.560191	0.035429
O37	O	1.056733	0.701800	-0.035372
O38	O	0.944488	0.701788	0.035434
C39	C	1.000599	0.441740	0.000020
C40	C	1.000596	0.377508	0.000017
C41	C	1.059179	0.347344	-0.036946
C42	C	1.059190	0.286983	-0.036940
C43	C	1.000596	0.256800	0.000019
C44	C	0.942010	0.286968	0.036990
C45	C	0.942011	0.347322	0.036989
C46	C	0.902435	0.194771	-0.005256
C47	C	0.902432	0.134422	-0.005260
C48	C	1.000598	0.070645	0.000026
C49	C	1.098765	0.067232	0.005302
C50	C	1.098765	0.127586	0.005301
C51	C	1.000590	0.191355	0.000025
C52	C	1.059198	-0.024970	-0.036933
C53	C	1.059212	-0.085336	-0.036922
C54	C	0.942021	-0.085344	0.037004
C55	C	0.942018	-0.024985	0.036998
C56	C	1.000604	0.005201	0.000026
C57	C	0.700502	0.630996	0.000028
C58	C	0.598649	0.630997	0.000028
C59	C	0.608938	0.560749	0.035150
C60	C	0.503669	0.560748	0.035150
C61	C	1.300713	0.630995	0.000028
C62	C	1.402566	0.630995	0.000028
C63	C	1.000552	0.631028	-0.189251
C64	C	1.000533	0.631040	-0.253491
C65	C	1.000616	0.820252	0.000036
C66	C	1.000618	0.884484	0.000039
C67	C	1.083410	0.631041	-0.283654
C68	C	1.083435	0.631024	-0.344001
C69	C	1.000565	0.631023	-0.374190
C70	C	0.917681	0.631017	-0.344017
C71	C	0.917665	0.631025	-0.283668
C72	C	0.899430	0.678518	-0.493570
C73	C	0.899446	0.678515	-0.553921
C74	C	1.000615	0.630994	-0.560326
C75	C	1.101776	0.583487	-0.506379
C76	C	1.101759	0.583495	-0.446029
C77	C	1.000574	0.631014	-0.439629
C78	C	1.083525	0.630976	-0.655923
C79	C	1.083551	0.630955	-0.716269
C80	C	0.917788	0.630956	-0.716288
C81	C	0.917772	0.630969	-0.655940
C82	C	1.000640	0.630983	-0.625763
C83	C	1.000663	0.630963	0.189307
C84	C	1.000682	0.630952	0.253547
C85	C	1.300705	0.441739	0.000020
C86	C	1.402555	0.377507	0.000017
C87	C	1.000655	0.441707	0.189299
C88	C	1.000671	0.377464	0.253536
C89	C	1.300760	0.441707	0.189299
C90	C	1.402629	0.377464	0.253536
C91	C	0.700454	0.820285	-0.189243
C92	C	0.598585	0.884528	-0.253480
C93	C	0.700510	0.820253	0.000036
C94	C	0.598660	0.884485	0.000039
C95	C	1.000560	0.820285	-0.189243
C96	C	1.000544	0.884528	-0.253480
C97	C	1.391773	0.347350	-0.036951
C98	C	1.487463	0.287005	-0.036967
C99	C	1.593934	0.256815	-0.000011
C100	C	1.604714	0.286979	0.036958
C101	C	1.509025	0.347326	0.036970
C102	C	1.059291	0.347289	0.320669
C103	C	1.059301	0.286934	0.381032
C104	C	1.000698	0.256752	0.374261
C105	C	0.942071	0.286934	0.307120
C106	C	0.942054	0.347291	0.246759
C107	C	1.509069	0.347301	0.246742
C108	C	1.604795	0.286946	0.307094
C109	C	1.594079	0.256751	0.374239
C110	C	1.487628	0.286920	0.381032
C111	C	1.391905	0.347278	0.320681
C112	C	0.492146	0.914699	-0.246686
C113	C	0.396420	0.975072	-0.307038
C114	C	0.407136	1.005270	-0.374183
C115	C	0.513587	0.975097	-0.380976
C116	C	0.609310	0.914729	-0.320625
C117	C	0.609442	0.914649	0.037000
C118	C	0.513752	0.975010	0.037000
C119	C	0.407281	1.005202	0.000042
C120	C	0.396500	0.975035	-0.036924
C121	C	0.492189	0.914680	-0.036928
C122	C	1.059159	0.914690	-0.246686
C123	C	1.059166	0.975045	-0.307037
C124	C	1.000551	1.005241	-0.374182
C125	C	0.941934	0.975072	-0.380975
C126	C	0.941934	0.914714	-0.320624
H127	H	1.178705	0.015297	0.009615
N128	N	1.000740	0.191644	0.439373
H129	H	1.034096	0.141560	0.439404
H130	H	0.921355	0.212709	0.439375
N131	N	0.525140	1.007666	-0.453397
H132	H	0.488038	1.068254	-0.480083
H133	H	0.488038	0.997113	-0.480024
H134	H	1.151045	0.630951	-0.740825
N135	N	0.724112	0.882188	-0.327958
H136	H	0.716364	0.910481	-0.379653
H137	H	0.766369	0.821602	-0.304536
H138	H	0.894211	0.999666	-0.435653
H139	H	1.000559	1.054388	-0.423318
H140	H	1.672033	0.207604	0.423375
H141	H	1.106906	-0.000395	-0.067035
H142	H	0.511906	0.691137	-0.030040
H143	H	1.671841	0.207676	-0.000026
H144	H	1.517820	0.371873	0.067078
H145	H	1.106890	0.890115	-0.192018
H146	H	0.894358	0.262350	0.301617
H147	H	1.517816	0.371876	0.192075
N148	N	1.122383	1.007577	-0.299692
H149	H	1.068637	1.068165	-0.323086
H150	H	1.181366	0.997016	-0.323065
N151	N	0.878709	0.882185	-0.327958
H152	H	0.841579	0.910478	-0.379653
H153	H	0.819792	0.892692	-0.304532
N154	N	1.210859	0.532258	-0.387845
H155	H	1.195493	0.539480	-0.348646
H156	H	1.260725	0.550024	-0.407273
N157	N	0.878758	0.379877	0.174352
H158	H	0.841619	0.351607	0.179228
H159	H	0.932500	0.369403	0.147659
H160	H	1.184157	0.544791	-0.511590
H161	H	0.309752	0.999629	-0.301493
N162	N	1.122367	0.379901	-0.076820
H163	H	1.159481	0.351628	-0.100236
H164	H	1.181293	0.369393	-0.042886
H165	H	1.107047	0.262367	0.435695
N166	N	1.719554	0.254414	0.076815
H167	H	1.778527	0.211606	0.071196
H168	H	1.728442	0.229401	0.128505
H169	H	1.178697	0.124803	0.009599
N170	N	1.122380	0.254437	-0.076808
H171	H	1.159495	0.282717	-0.100228
H172	H	1.068554	0.264946	-0.113961
H173	H	0.329182	1.054426	-0.423319
N174	N	1.719600	0.254413	0.299758
H175	H	1.711854	0.282697	0.248064
H176	H	1.761871	0.193824	0.323191
N177	N	1.476079	0.254348	0.453454
H178	H	1.552876	0.211533	0.490649
H179	H	1.433773	0.229343	0.459049
N180	N	1.277103	0.379804	0.328014
H181	H	1.284851	0.351511	0.379709
H182	H	1.234841	0.369296	0.304588
N183	N	1.122506	0.379833	0.327983
H184	H	1.159634	0.351553	0.379675
H185	H	1.068692	0.440421	0.304549
H186	H	1.106924	-0.109900	-0.067018
H187	H	0.894313	-0.109919	0.067097
H188	H	0.483399	0.890115	-0.192019
N189	N	1.172788	0.631052	-0.251104
H190	H	1.225295	0.631049	-0.279373
H191	H	1.216254	0.580784	-0.200923
N192	N	0.724266	0.882104	0.076861
H193	H	0.766572	0.892611	0.042959
H194	H	0.766510	0.821525	0.114059
N195	N	0.391115	0.710665	-0.039806
H196	H	0.348878	0.742997	-0.020428
H197	H	0.348888	0.742941	-0.091511
H198	H	0.512303	0.500606	0.065215
N199	N	0.878831	0.007554	0.076865
H200	H	0.841714	-0.020725	0.100282
H201	H	0.819907	0.068143	0.042931
N202	N	0.525394	1.007538	0.076874
H203	H	0.607364	0.979243	0.100290
H204	H	0.488248	0.997033	0.114031
H205	H	0.822497	0.137210	-0.009560
H206	H	0.483394	0.890122	-0.067025
H207	H	0.329374	1.054347	0.000051
N208	N	0.281661	1.007590	-0.076771
H209	H	0.222688	1.050394	-0.071148
H210	H	0.272811	0.961488	-0.057351
H211	H	0.822486	0.246709	-0.009575
H212	H	0.894302	0.371882	0.067089
N213	N	0.878820	0.254410	0.076856
H214	H	0.819835	0.264918	0.042960
H215	H	0.841778	0.282692	0.100273
N216	N	0.723831	0.481080	0.074985
H217	H	0.782746	0.492374	0.069339
H218	H	0.732750	0.448788	0.055585
H219	H	1.151005	0.630984	-0.631351
N220	N	1.172829	0.631023	-0.376542
H221	H	1.225323	0.631031	-0.348266
H222	H	1.136578	0.681291	-0.426723
H223	H	0.850318	0.630950	-0.740866
N224	N	0.828375	0.630971	-0.623409
H225	H	0.752286	0.681238	-0.659057
H226	H	0.841035	0.630943	-0.580591
N227	N	0.790343	0.729747	-0.612101
H228	H	0.726249	0.759842	-0.598882
H229	H	0.780268	0.693293	-0.618913
H230	H	0.817038	0.717207	-0.488358
H231	H	0.850209	0.631014	-0.368599
N232	N	0.828276	0.631020	-0.251128
H233	H	0.775783	0.631012	-0.279405
H234	H	0.784797	0.681294	-0.251232
H235	H	1.305087	0.371930	-0.067053
N236	N	1.475821	0.254480	-0.076844
H237	H	1.393850	0.282760	-0.100245
H238	H	1.512985	0.193889	-0.042914
