data_functionalizedCrystal
_audit_creation_method	'MofGen! by Chris Wilmer'
_symmetry_space_group_name_H-M	'P1'
_symmetry_Int_Tables_number	1
_symmetry_cell_setting	triclinic
loop_
_symmetry_equiv_pos_as_xyz
  x,y,z
_cell_length_a	8.559649
_cell_length_b	8.559649
_cell_length_c	7.681481
_cell_angle_alpha	85.069100
_cell_angle_beta	94.913240
_cell_angle_gamma	69.778664
loop_
_atom_site_label
_atom_site_type_symbol
_atom_site_fract_x
_atom_site_fract_y
_atom_site_fract_z
O1	O	2.109661	-0.037797	-0.146402
O2	O	1.634175	0.045985	-0.146408
O3	O	1.913809	-0.233649	-0.146402
O4	O	1.830027	0.241837	-0.146407
O5	O	1.948236	-0.268136	0.146456
O6	O	1.668602	0.011497	0.146450
O7	O	2.144088	-0.072285	0.146457
Zn8	Zn	1.911811	-0.035869	0.192951
Zn9	Zn	1.866452	0.009570	-0.192902
O10	O	1.864454	0.207349	0.146451
C11	C	1.591080	0.035090	0.000020
C12	C	1.411380	0.053990	0.000017
C13	C	1.937371	-0.311201	0.000024
C14	C	1.956269	-0.490899	0.000014
C15	C	2.187183	-0.061390	0.000025
C16	C	2.366881	-0.080288	0.000016
C17	C	1.840891	0.284902	0.000021
C18	C	1.821992	0.464601	0.000019
N19	N	1.942779	-0.066883	0.456286
N20	N	1.835499	0.040569	-0.456237
H21	H	1.466259	-0.209706	0.000009
C22	C	2.128939	-0.623380	0.000385
C23	C	2.232978	-0.622801	0.151071
C24	C	2.392041	-0.744833	0.151483
H25	H	2.175982	-0.599303	-0.101625
H26	H	2.119220	-0.730645	0.000490
H27	H	2.242702	-0.515560	0.150950
H28	H	2.185988	-0.646898	0.253105
H29	H	2.382322	-0.852098	0.151588
H30	H	2.439068	-0.720744	0.049466
H31	H	2.462646	-0.744467	0.253729
C32	C	1.689632	0.187037	0.443598
C33	C	1.701845	0.337932	0.488276
C34	C	1.567514	0.472896	0.396011
H35	H	1.586889	0.179517	0.473667
H36	H	1.692989	0.183767	0.320621
H37	H	1.698473	0.341201	0.611226
H38	H	1.804559	0.345507	0.458203
H39	H	1.570870	0.469626	0.273034
H40	H	1.464780	0.465359	0.426087
H41	H	1.575790	0.575293	0.426300
H42	H	1.311991	0.183419	0.000006
C43	C	1.649282	-0.403040	-0.000268
C44	C	1.545223	-0.403675	-0.150915
C45	C	1.386103	-0.281774	-0.151229
H46	H	1.658838	-0.295727	-0.000368
H47	H	1.602359	-0.427256	0.101805
H48	H	1.592134	-0.379448	-0.252962
H49	H	1.535617	-0.510959	-0.150847
H50	H	1.339180	-0.305990	-0.049155
H51	H	1.395676	-0.174469	-0.151324
H52	H	1.315475	-0.282199	-0.253432
H53	H	2.052307	-0.176556	0.531494
