data_functionalizedCrystal
_audit_creation_method	'MofGen! by Chris Wilmer'
_symmetry_space_group_name_H-M	'P1'
_symmetry_Int_Tables_number	1
_symmetry_cell_setting	triclinic
loop_
_symmetry_equiv_pos_as_xyz
  x,y,z
_cell_length_a	15.995350
_cell_length_b	17.019294
_cell_length_c	15.072220
_cell_angle_alpha	86.119892
_cell_angle_beta	89.991149
_cell_angle_gamma	83.443443
loop_
_atom_site_label
_atom_site_type_symbol
_atom_site_fract_x
_atom_site_fract_y
_atom_site_fract_z
O1	O	1.110876	0.101674	-0.081474
O2	O	1.444209	0.435007	0.251859
O3	O	1.777542	0.768341	0.585193
O4	O	0.867085	0.114230	-0.082451
O5	O	1.200419	0.447563	0.250882
O6	O	1.533752	0.780897	0.584215
O7	O	0.995780	-0.006880	-0.073185
O8	O	1.329113	0.326453	0.260149
O9	O	1.662447	0.659787	0.593482
O10	O	0.982181	0.222784	-0.090741
O11	O	1.315514	0.556118	0.242592
O12	O	1.648848	0.889451	0.575926
O13	O	0.995748	-0.006873	0.074380
O14	O	1.329082	0.326460	0.407713
O15	O	1.662415	0.659793	0.741047
O16	O	0.867054	0.114237	0.065113
O17	O	1.200387	0.447570	0.398446
O18	O	1.533720	0.780903	0.731780
O19	O	1.110844	0.101681	0.066091
O20	O	1.444177	0.435014	0.399424
O21	O	1.777510	0.768347	0.732757
Zn22	Zn	0.988944	0.107960	0.089031
Zn23	Zn	1.322277	0.441293	0.422364
Zn24	Zn	1.655610	0.774627	0.755698
Zn25	Zn	0.988986	0.107951	-0.105392
Zn26	Zn	1.322319	0.441284	0.227942
Zn27	Zn	1.655652	0.774618	0.561275
O28	O	0.982149	0.222791	0.056824
O29	O	1.315482	0.556124	0.390157
O30	O	1.648816	0.889458	0.723490
C31	C	0.835875	0.113714	-0.008632
C32	C	1.169209	0.447048	0.324702
C33	C	1.502542	0.780381	0.658035
C34	C	0.742927	0.112158	-0.008520
C35	C	1.076260	0.445491	0.324814
C36	C	1.409594	0.778825	0.658147
C37	C	0.995248	-0.036266	0.002842
C38	C	1.328581	0.297068	0.336176
C39	C	1.661915	0.630401	0.669509
C40	C	0.993700	-0.123836	0.009530
C41	C	1.327033	0.209498	0.342864
C42	C	1.660367	0.542831	0.676197
C43	C	0.405186	0.106569	-0.008074
C44	C	0.738519	0.439903	0.325259
C45	C	1.071853	0.773236	0.658593
C46	C	0.452722	0.020317	-0.001151
C47	C	0.786055	0.353650	0.332182
C48	C	1.119389	0.686984	0.665515
C49	C	0.549410	0.021873	-0.001609
C50	C	0.882744	0.355207	0.331724
C51	C	1.216077	0.688540	0.665057
C52	C	0.572743	0.109342	-0.008295
C53	C	0.906077	0.442675	0.325039
C54	C	1.239410	0.776008	0.658372
C55	C	0.531624	0.151880	-0.095810
C56	C	0.864957	0.485214	0.237524
C57	C	1.198291	0.818547	0.570857
C58	C	0.434991	0.149714	-0.095709
C59	C	0.768324	0.483047	0.237625
C60	C	1.101657	0.816380	0.570958
C61	C	0.434614	0.151503	0.071964
C62	C	0.767947	0.484837	0.405297
C63	C	1.101280	0.818170	0.738630
C64	C	0.531559	0.151483	0.073073
C65	C	0.864892	0.484816	0.406406
C66	C	1.198225	0.818150	0.739740
C67	C	0.667439	0.110913	-0.008423
C68	C	1.000772	0.444246	0.324911
C69	C	1.334106	0.777579	0.658244
C70	C	0.310490	0.105001	-0.007952
C71	C	0.643823	0.438334	0.325381
C72	C	0.977157	0.771667	0.658714
C73	C	0.992992	-0.164976	-0.067765
C74	C	1.326325	0.168358	0.265569
C75	C	1.659658	0.501691	0.598902
C76	C	0.991532	-0.247256	-0.061478
C77	C	1.324865	0.086077	0.271856
C78	C	1.658198	0.419411	0.605189
C79	C	0.990786	-0.288396	0.022105
C80	C	1.324119	0.044937	0.355438
C81	C	1.657452	0.378270	0.688772
C82	C	0.991491	-0.247250	0.099405
C83	C	1.324825	0.086083	0.432739
C84	C	1.658158	0.419416	0.766072
C85	C	0.992945	-0.164971	0.093118
C86	C	1.326279	0.168363	0.426451
C87	C	1.659612	0.501696	0.759784
C88	C	0.986389	-0.536828	0.045114
C89	C	1.319722	-0.203494	0.378447
C90	C	1.653056	0.129839	0.711781
C91	C	0.984937	-0.619114	0.051396
C92	C	1.318271	-0.285780	0.384729
C93	C	1.651604	0.047553	0.718063
C94	C	0.984976	-0.619113	-0.109488
C95	C	1.318310	-0.285780	0.223845
C96	C	1.651643	0.047553	0.557179
C97	C	0.986435	-0.536833	-0.115768
C98	C	1.319769	-0.203499	0.217565
C99	C	1.653102	0.129834	0.550898
C100	C	0.987136	-0.495693	-0.038468
C101	C	1.320470	-0.162360	0.294865
C102	C	1.653803	0.170973	0.628199
C103	C	0.989296	-0.372501	0.028533
C104	C	1.322629	-0.039167	0.361866
C105	C	1.655963	0.294166	0.695200
C106	C	0.988620	-0.411590	-0.044897
C107	C	1.321954	-0.078257	0.288436
C108	C	1.655287	0.255077	0.621770
C109	C	1.142054	0.102196	-0.007731
C110	C	1.475387	0.435530	0.325602
C111	C	1.808720	0.768863	0.658936
C112	C	1.235002	0.103753	-0.007849
C113	C	1.568336	0.437086	0.325484
C114	C	1.901669	0.770419	0.658818
C115	C	0.982681	0.252177	-0.019205
C116	C	1.316014	0.585510	0.314128
C117	C	1.649348	0.918843	0.647462
C118	C	0.984229	0.339747	-0.025899
C119	C	1.317563	0.673080	0.307434
C120	C	1.650896	1.006413	0.640768
N121	N	0.988921	0.107965	0.221719
N122	N	1.322255	0.441299	0.555053
N123	N	1.655588	0.774632	0.888386
N124	N	0.989015	0.107939	-0.238080
N125	N	1.322348	0.441272	0.095254
N126	N	1.655681	0.774606	0.428587
C127	C	0.988984	0.107948	0.580922
C128	C	1.322317	0.441281	0.914256
C129	C	1.655650	0.774615	1.247589
C130	C	0.919891	0.172534	0.538373
C131	C	1.253224	0.505868	0.871707
C132	C	1.586558	0.839201	1.205040
C133	C	0.920049	0.172770	0.435530
C134	C	1.253382	0.506103	0.768863
C135	C	1.586716	0.839437	1.102196
C136	C	0.988952	0.107957	0.402717
C137	C	1.322285	0.441290	0.736051
C138	C	1.655619	0.774623	1.069384
C139	C	1.076296	0.125934	0.438641
C140	C	1.409629	0.459267	0.771974
C141	C	1.742962	0.792600	1.105308
C142	C	1.075908	0.126393	0.541464
C143	C	1.409242	0.459726	0.874797
C144	C	1.742575	0.793059	1.208130
C145	C	0.971512	0.025193	0.549347
C146	C	1.304846	0.358526	0.882680
C147	C	1.638179	0.691860	1.216014
C148	C	0.969507	0.025745	0.446441
C149	C	1.302840	0.359078	0.779774
C150	C	1.636174	0.692412	1.113108
C151	C	0.988940	0.107960	0.302004
C152	C	1.322273	0.441293	0.635337
C153	C	1.655606	0.774627	0.968670
C154	C	0.989002	0.107946	0.681636
C155	C	1.322335	0.441280	1.014969
C156	C	1.655669	0.774613	1.348302
H157	H	0.577866	-0.011565	0.061351
H158	H	0.911199	0.321769	0.394684
H159	H	1.244533	0.655102	0.728017
H160	H	0.402668	0.213038	-0.104373
H161	H	0.736001	0.546372	0.228961
H162	H	1.069335	0.879705	0.562294
H163	H	0.545673	0.216141	-0.103855
H164	H	0.879007	0.549474	0.229479
H165	H	1.212340	0.882807	0.562812
H166	H	0.988691	-0.406006	0.096586
H167	H	1.322025	-0.072673	0.429920
H168	H	1.655358	0.260660	0.763253
F169	F	0.551537	0.234857	0.073353
F170	F	0.884870	0.568190	0.406686
F171	F	1.218203	0.901524	0.740019
F172	F	0.993791	-0.121199	-0.156725
F173	F	1.327125	0.212134	0.176608
F174	F	1.660458	0.545468	0.509941
H175	H	0.930883	0.233600	0.559545
H176	H	1.264217	0.566933	0.892878
H177	H	1.597550	0.900266	1.226211
H178	H	1.128923	0.081206	0.569796
H179	H	1.462256	0.414539	0.903130
H180	H	1.795589	0.747873	1.236463
H181	H	1.128934	0.080144	0.417676
H182	H	1.462267	0.413477	0.751009
H183	H	1.795601	0.746810	1.084342
H184	H	0.414098	0.123308	0.137989
H185	H	0.747431	0.456642	0.471322
H186	H	1.080764	0.789975	0.804656
F187	F	0.835173	0.158810	0.403635
F188	F	1.168506	0.492144	0.736969
F189	F	1.501839	0.825477	1.070302
H190	H	0.560047	0.122329	-0.156262
H191	H	0.893380	0.455663	0.177071
H192	H	1.226713	0.788996	0.510405
H193	H	0.984404	-0.652618	-0.172422
H194	H	1.317737	-0.319284	0.160912
H195	H	1.651070	0.014049	0.494245
H196	H	1.092077	0.185598	0.408312
H197	H	1.425410	0.518932	0.741645
H198	H	1.758744	0.852265	1.074979
F199	F	0.990779	-0.291037	-0.143746
F200	F	1.324112	0.042297	0.189587
F201	F	1.657446	0.375630	0.522921
H202	H	0.984326	-0.652607	0.119462
H203	H	1.317659	-0.319274	0.452796
H204	H	1.650992	0.014060	0.786129
F205	F	0.567211	0.110831	0.157660
F206	F	0.900544	0.444164	0.490993
F207	F	1.233877	0.777497	0.824327
H208	H	1.016569	-0.024569	0.424582
H209	H	1.349903	0.308764	0.757916
H210	H	1.683236	0.642098	1.091249
H211	H	0.402777	0.215097	0.067673
H212	H	0.736110	0.548430	0.401006
H213	H	1.069443	0.881763	0.734340
F214	F	0.987124	-0.493053	0.127385
F215	F	1.320458	-0.159720	0.460718
F216	F	1.653791	0.173613	0.794052
F217	F	0.989416	-0.367804	-0.133849
F218	F	1.322750	-0.034471	0.199485
F219	F	1.656083	0.298862	0.532818
H220	H	0.931196	0.234181	0.406222
H221	H	1.264529	0.567514	0.739556
H222	H	1.597862	0.900848	1.072889
H223	H	0.987044	-0.503342	-0.183830
H224	H	1.320377	-0.170009	0.149503
H225	H	1.653711	0.163325	0.482837
H226	H	1.091319	0.186745	0.560833
H227	H	1.424653	0.520079	0.894166
H228	H	1.757986	0.853412	1.227500
F229	F	0.834747	0.158756	0.571768
F230	F	1.168080	0.492090	0.905101
F231	F	1.501413	0.825423	1.238434
F232	F	0.990688	-0.291036	0.188361
F233	F	1.324021	0.042297	0.521694
F234	F	1.657355	0.375631	0.855027
F235	F	0.890064	0.002610	0.585013
F236	F	1.223398	0.335944	0.918346
F237	F	1.556731	0.669277	1.251679
F238	F	0.993698	-0.121187	0.175386
F239	F	1.327031	0.212146	0.508719
F240	F	1.660365	0.545480	0.842052
H241	H	0.905257	0.012102	0.423107
H242	H	1.238590	0.345435	0.756440
H243	H	1.571923	0.678769	1.089774
H244	H	0.433182	-0.014004	-0.058623
H245	H	0.766515	0.319329	0.274710
H246	H	1.099849	0.652662	0.608043
F247	F	0.428545	-0.024744	0.081278
F248	F	0.761878	0.308590	0.414612
F249	F	1.095211	0.641923	0.747945
F250	F	1.037371	-0.037629	0.585939
F251	F	1.370704	0.295704	0.919273
F252	F	1.704037	0.629037	1.252606
H253	H	0.577321	-0.011796	-0.059544
H254	H	0.910655	0.321537	0.273789
H255	H	1.243988	0.654871	0.607123
H256	H	0.416733	0.118687	-0.156326
H257	H	0.750066	0.452020	0.177007
H258	H	1.083399	0.785353	0.510340
