data_functionalizedCrystal
_audit_creation_method	'MofGen! by Chris Wilmer'
_symmetry_space_group_name_H-M	'P1'
_symmetry_Int_Tables_number	1
_symmetry_cell_setting	triclinic
loop_
_symmetry_equiv_pos_as_xyz
  x,y,z
_cell_length_a	19.188930
_cell_length_b	11.792241
_cell_length_c	10.268362
_cell_angle_alpha	89.994572
_cell_angle_beta	89.981535
_cell_angle_gamma	83.669098
loop_
_atom_site_label
_atom_site_type_symbol
_atom_site_fract_x
_atom_site_fract_y
_atom_site_fract_z
O1	O	0.926947	0.141694	-0.108720
O2	O	1.176947	0.391694	0.141280
O3	O	1.426947	0.641694	0.391280
O4	O	1.676947	0.891694	0.641280
O5	O	0.723744	0.160769	-0.108631
O6	O	0.973744	0.410769	0.141369
O7	O	1.223744	0.660769	0.391369
O8	O	1.473744	0.910769	0.641369
O9	O	0.830277	-0.014013	-0.108668
O10	O	1.080277	0.235987	0.141332
O11	O	1.330277	0.485987	0.391332
O12	O	1.580277	0.735987	0.641332
O13	O	0.820415	0.316476	-0.108682
O14	O	1.070415	0.566476	0.141318
O15	O	1.320415	0.816476	0.391318
O16	O	1.570415	1.066476	0.641318
O17	O	0.830268	-0.014020	0.107932
O18	O	1.080268	0.235980	0.357932
O19	O	1.330268	0.485980	0.607932
O20	O	1.580268	0.735980	0.857932
O21	O	0.723735	0.160762	0.107970
O22	O	0.973735	0.410762	0.357970
O23	O	1.223735	0.660762	0.607970
O24	O	1.473735	0.910762	0.857970
O25	O	0.926938	0.141687	0.107881
O26	O	1.176938	0.391687	0.357881
O27	O	1.426938	0.641687	0.607881
O28	O	1.676938	0.891687	0.857881
Cu29	Cu	0.825336	0.151224	0.127703
Cu30	Cu	1.075336	0.401224	0.377703
Cu31	Cu	1.325336	0.651224	0.627703
Cu32	Cu	1.575336	0.901224	0.877703
Cu33	Cu	0.825347	0.151232	-0.128453
Cu34	Cu	1.075347	0.401232	0.121547
Cu35	Cu	1.325347	0.651232	0.371547
Cu36	Cu	1.575347	0.901232	0.621547
O37	O	0.820405	0.316469	0.107919
O38	O	1.070405	0.566469	0.357919
O39	O	1.320405	0.816469	0.607919
O40	O	1.570405	1.066469	0.857919
C41	C	0.697725	0.160148	-0.000319
C42	C	0.947725	0.410148	0.249681
C43	C	1.197725	0.660148	0.499681
C44	C	1.447725	0.910148	0.749681
C45	C	0.620210	0.158293	-0.000285
C46	C	0.870210	0.408293	0.249715
C47	C	1.120210	0.658293	0.499715
C48	C	1.370210	0.908293	0.749715
C49	C	0.829653	-0.056298	-0.000368
C50	C	1.079653	0.193702	0.249632
C51	C	1.329653	0.443702	0.499632
C52	C	1.579653	0.693702	0.749632
C53	C	0.827799	-0.182284	-0.000368
C54	C	1.077799	0.067716	0.249632
C55	C	1.327799	0.317716	0.499632
C56	C	1.577799	0.567716	0.749632
C57	C	0.824389	-0.412945	-0.000389
C58	C	1.074389	-0.162945	0.249611
C59	C	1.324389	0.087055	0.499611
C60	C	1.574389	0.337055	0.749611
C61	C	0.826283	-0.284588	-0.000378
C62	C	1.076283	-0.034588	0.249622
C63	C	1.326283	0.215412	0.499622
C64	C	1.576283	0.465412	0.749622
C65	C	0.575867	0.260849	-0.000309
C66	C	0.825867	0.510849	0.249691
C67	C	1.075867	0.760849	0.499691
C68	C	1.325867	1.010849	0.749691
C69	C	0.503033	0.259107	-0.000324
C70	C	0.753033	0.509107	0.249676
C71	C	1.003033	0.759107	0.499676
C72	C	1.253033	1.009107	0.749676
C73	C	0.474546	0.154803	-0.000339
C74	C	0.724546	0.404803	0.249661
C75	C	0.974546	0.654803	0.499661
C76	C	1.224546	0.904803	0.749661
C77	C	0.518899	0.052234	-0.000307
C78	C	0.768899	0.302234	0.249693
C79	C	1.018899	0.552234	0.499693
C80	C	1.268899	0.802234	0.749693
C81	C	0.591731	0.053979	-0.000280
C82	C	0.841731	0.303979	0.249720
C83	C	1.091731	0.553979	0.499720
C84	C	1.341731	0.803979	0.749720
N85	N	0.366117	0.075079	-0.074107
N86	N	0.616117	0.325079	0.175893
N87	N	0.866117	0.575079	0.425893
N88	N	1.116117	0.825079	0.675893
N89	N	0.296929	0.073428	-0.074136
N90	N	0.546929	0.323428	0.175864
N91	N	0.796929	0.573428	0.425864
N92	N	1.046929	0.823428	0.675864
C93	C	0.255107	0.149540	-0.000419
C94	C	0.505107	0.399540	0.249581
C95	C	0.755107	0.649540	0.499581
C96	C	1.005107	0.899540	0.749581
N97	N	0.285086	0.227382	0.073312
N98	N	0.535086	0.477382	0.323312
N99	N	0.785086	0.727382	0.573312
N100	N	1.035086	0.977382	0.823312
N101	N	0.354280	0.229036	0.073335
N102	N	0.604280	0.479036	0.323335
N103	N	0.854280	0.729036	0.573335
N104	N	1.104280	0.979036	0.823335
C105	C	0.395573	0.152900	-0.000368
C106	C	0.645573	0.402900	0.249632
C107	C	0.895573	0.652900	0.499632
C108	C	1.145573	0.902900	0.749632
C109	C	0.131789	0.250214	-0.000457
C110	C	0.381789	0.500214	0.249543
C111	C	0.631789	0.750214	0.499543
C112	C	0.881789	1.000214	0.749543
C113	C	0.058955	0.248468	-0.000463
C114	C	0.308955	0.498468	0.249537
C115	C	0.558955	0.748468	0.499537
C116	C	0.808955	0.998468	0.749537
C117	C	0.074822	0.041591	-0.000460
C118	C	0.324822	0.291591	0.249540
C119	C	0.574822	0.541591	0.499540
C120	C	0.824822	0.791591	0.749540
C121	C	0.147655	0.043341	-0.000440
C122	C	0.397655	0.293341	0.249560
C123	C	0.647655	0.543341	0.499560
C124	C	0.897655	0.793341	0.749560
C125	C	0.176134	0.147655	-0.000445
C126	C	0.426134	0.397655	0.249555
C127	C	0.676134	0.647655	0.499555
C128	C	0.926134	0.897655	0.749555
C129	C	0.952957	0.142309	-0.000434
C130	C	1.202957	0.392309	0.249566
C131	C	1.452957	0.642309	0.499566
C132	C	1.702957	0.892309	0.749566
C133	C	1.030472	0.144163	-0.000477
C134	C	1.280472	0.394163	0.249523
C135	C	1.530472	0.644163	0.499523
C136	C	1.780472	0.894163	0.749523
C137	C	0.821029	0.358754	-0.000385
C138	C	1.071029	0.608754	0.249615
C139	C	1.321029	0.858754	0.499615
C140	C	1.571029	1.108754	0.749615
C141	C	0.822884	0.484740	-0.000393
C142	C	1.072884	0.734740	0.249607
C143	C	1.322884	0.984740	0.499607
C144	C	1.572884	1.234740	0.749607
N145	N	0.825333	0.151217	0.307869
N146	N	1.075333	0.401217	0.557869
N147	N	1.325333	0.651217	0.807869
N148	N	1.575333	0.901217	1.057869
N149	N	0.825355	0.151230	-0.308618
N150	N	1.075355	0.401230	-0.058618
N151	N	1.325355	0.651230	0.191382
N152	N	1.575355	0.901230	0.441382
C153	C	0.825343	0.151230	0.573539
C154	C	1.075343	0.401230	0.823539
C155	C	1.325343	0.651230	1.073539
C156	C	1.575343	0.901230	1.323539
C157	C	0.825335	0.151226	0.425701
C158	C	1.075335	0.401226	0.675701
C159	C	1.325335	0.651226	0.925701
C160	C	1.575335	0.901226	1.175701
H161	H	0.599050	0.345790	-0.000316
H162	H	0.849050	0.595790	0.249684
H163	H	1.099050	0.845790	0.499684
H164	H	1.349050	1.095790	0.749684
H165	H	0.051628	-0.043335	-0.000553
H166	H	0.301628	0.206665	0.249447
H167	H	0.551628	0.456665	0.499447
H168	H	0.801628	0.706665	0.749447
N169	N	0.457737	0.363881	-0.000342
N170	N	0.707737	0.613881	0.249658
N171	N	0.957737	0.863881	0.499658
N172	N	1.207737	1.113881	0.749658
N173	N	0.483174	0.457007	-0.000339
N174	N	0.733174	0.707007	0.249661
N175	N	0.983174	0.957007	0.499661
N176	N	1.233174	1.207007	0.749661
H177	H	0.451186	0.531005	-0.000352
H178	H	0.701186	0.781005	0.249648
H179	H	0.951186	1.031005	0.499648
H180	H	1.201186	1.281005	0.749648
H181	H	0.627836	-0.029537	-0.000260
H182	H	0.877836	0.220463	0.249740
H183	H	1.127836	0.470463	0.499740
H184	H	1.377836	0.720463	0.749740
N185	N	0.013646	0.353222	-0.000481
N186	N	0.263646	0.603222	0.249519
N187	N	0.513646	0.853222	0.499519
N188	N	0.763646	1.103222	0.749519
N189	N	-0.051381	0.351651	-0.000488
N190	N	0.198619	0.601651	0.249512
N191	N	0.448619	0.851651	0.499512
N192	N	0.698619	1.101651	0.749512
H193	H	-0.083382	0.425635	-0.000495
H194	H	0.166618	0.675635	0.249505
H195	H	0.416618	0.925635	0.499505
H196	H	0.666618	1.175635	0.749505
N197	N	0.192954	-0.061420	-0.000405
N198	N	0.442954	0.188580	0.249595
N199	N	0.692954	0.438580	0.499595
N200	N	0.942954	0.688580	0.749595
N201	N	0.190106	-0.130873	0.090899
N202	N	0.440106	0.119127	0.340899
N203	N	0.690106	0.369127	0.590899
N204	N	0.940106	0.619127	0.840899
H205	H	0.222099	-0.204865	0.090930
H206	H	0.472099	0.045135	0.340930
H207	H	0.722099	0.295135	0.590930
H208	H	0.972099	0.545135	0.840930
H209	H	0.154978	0.335153	-0.000442
H210	H	0.404978	0.585153	0.249558
H211	H	0.654978	0.835153	0.499558
H212	H	0.904978	1.085153	0.749558
H213	H	0.495700	-0.032691	-0.000338
H214	H	0.745700	0.217309	0.249662
H215	H	0.995700	0.467309	0.499662
H216	H	1.245700	0.717309	0.749662
