data_functionalizedCrystal
_audit_creation_method	'MofGen! by Chris Wilmer'
_symmetry_space_group_name_H-M	'P1'
_symmetry_Int_Tables_number	1
_symmetry_cell_setting	triclinic
loop_
_symmetry_equiv_pos_as_xyz
  x,y,z
_cell_length_a	19.288864
_cell_length_b	17.038272
_cell_length_c	17.766277
_cell_angle_alpha	89.993732
_cell_angle_beta	89.976791
_cell_angle_gamma	87.123901
loop_
_atom_site_label
_atom_site_type_symbol
_atom_site_fract_x
_atom_site_fract_y
_atom_site_fract_z
O1	O	0.927386	0.097514	-0.062838
O2	O	1.260720	0.430847	0.270495
O3	O	1.594053	0.764181	0.603829
O4	O	0.725940	0.110668	-0.062787
O5	O	1.059273	0.444002	0.270546
O6	O	1.392606	0.777335	0.603880
O7	O	0.825466	-0.009720	-0.062806
O8	O	1.158799	0.323613	0.270527
O9	O	1.492132	0.656946	0.603861
O10	O	0.827860	0.217903	-0.062819
O11	O	1.161194	0.551236	0.270515
O12	O	1.494527	0.884569	0.603848
O13	O	0.825447	-0.009726	0.062382
O14	O	1.158780	0.323607	0.395716
O15	O	1.492113	0.656940	0.729049
O16	O	0.725920	0.110662	0.062402
O17	O	1.059254	0.443996	0.395735
O18	O	1.392587	0.777329	0.729068
O19	O	0.927367	0.097508	0.062351
O20	O	1.260701	0.430841	0.395684
O21	O	1.594034	0.764175	0.729017
Cu22	Cu	0.826642	0.104085	0.073807
Cu23	Cu	1.159975	0.437418	0.407140
Cu24	Cu	1.493309	0.770751	0.740473
Cu25	Cu	0.826665	0.104092	-0.074243
Cu26	Cu	1.159998	0.437425	0.259090
Cu27	Cu	1.493331	0.770758	0.592424
O28	O	0.827841	0.217897	0.062370
O29	O	1.161174	0.551230	0.395703
O30	O	1.494508	0.884563	0.729037
C31	C	0.700027	0.110242	-0.000186
C32	C	1.033361	0.443575	0.333147
C33	C	1.366694	0.776909	0.666481
C34	C	0.622845	0.108972	-0.000166
C35	C	0.956179	0.442305	0.333167
C36	C	1.289512	0.775638	0.666500
C37	C	0.582519	0.179610	-0.000182
C38	C	0.915853	0.512944	0.333151
C39	C	1.249186	0.846277	0.666485
C40	C	0.509998	0.178417	-0.000190
C41	C	0.843332	0.511750	0.333143
C42	C	1.176665	0.845083	0.666477
C43	C	0.477806	0.106580	-0.000198
C44	C	0.811140	0.439913	0.333136
C45	C	1.144473	0.773247	0.666469
C46	C	0.518141	0.035932	-0.000178
C47	C	0.851475	0.369266	0.333156
C48	C	1.184808	0.702599	0.666489
C49	C	0.590661	0.037128	-0.000162
C50	C	0.923994	0.370461	0.333171
C51	C	1.257328	0.703795	0.666505
C52	C	0.366057	0.050111	-0.044079
C53	C	0.699390	0.383444	0.289254
C54	C	1.032724	0.716778	0.622588
C55	C	0.293539	0.048918	-0.044100
C56	C	0.626872	0.382252	0.289234
C57	C	0.960205	0.715585	0.622567
C58	C	0.254132	0.102889	-0.000243
C59	C	0.587466	0.436223	0.333090
C60	C	0.920799	0.769556	0.666424
C61	C	0.287252	0.158066	0.043624
C62	C	0.620586	0.491400	0.376957
C63	C	0.953919	0.824733	0.710291
C64	C	0.359772	0.159262	0.043640
C65	C	0.693105	0.492595	0.376973
C66	C	1.026439	0.825929	0.710306
C67	C	0.399172	0.105276	-0.000214
C68	C	0.732505	0.438609	0.333119
C69	C	1.065838	0.771942	0.666452
C70	C	0.135171	0.172238	-0.000267
C71	C	0.468504	0.505572	0.333067
C72	C	0.801838	0.838905	0.666400
C73	C	0.062649	0.171042	-0.000270
C74	C	0.395982	0.504375	0.333063
C75	C	0.729315	0.837708	0.666396
C76	C	0.070793	0.028556	-0.000266
C77	C	0.404127	0.361889	0.333068
C78	C	0.737460	0.695222	0.666401
C79	C	0.143314	0.029754	-0.000254
C80	C	0.476647	0.363088	0.333079
C81	C	0.809980	0.696421	0.666412
C82	C	0.175498	0.101598	-0.000259
C83	C	0.508831	0.434931	0.333075
C84	C	0.842165	0.768265	0.666408
C85	C	0.823278	-0.038845	-0.000211
C86	C	1.156612	0.294489	0.333122
C87	C	1.489945	0.627822	0.666455
C88	C	0.816781	-0.125616	-0.000210
C89	C	1.150114	0.207717	0.333123
C90	C	1.483447	0.541050	0.666457
C91	C	0.876437	-0.175923	-0.000224
C92	C	1.209770	0.157410	0.333109
C93	C	1.543103	0.490744	0.666442
C94	C	0.870327	-0.257454	-0.000230
C95	C	1.203661	0.075879	0.333103
C96	C	1.536994	0.409213	0.666437
C97	C	0.804561	-0.288677	-0.000216
C98	C	1.137895	0.044657	0.333118
C99	C	1.471228	0.377990	0.666451
C100	C	0.744901	-0.238363	-0.000204
C101	C	1.078234	0.094970	0.333130
C102	C	1.411567	0.428303	0.666463
C103	C	0.751011	-0.156834	-0.000203
C104	C	1.084344	0.176499	0.333130
C105	C	1.417677	0.509832	0.666463
C106	C	0.782976	-0.534365	-0.000221
C107	C	1.116309	-0.201031	0.333113
C108	C	1.449642	0.132302	0.666446
C109	C	0.776870	-0.615900	-0.000219
C110	C	1.110204	-0.282567	0.333115
C111	C	1.443537	0.050766	0.666448
C112	C	0.902297	-0.634985	-0.000246
C113	C	1.235631	-0.301652	0.333087
C114	C	1.568964	0.031681	0.666420
C115	C	0.908402	-0.553454	-0.000241
C116	C	1.241735	-0.220120	0.333092
C117	C	1.575068	0.113213	0.666425
C118	C	0.848741	-0.503148	-0.000233
C119	C	1.182074	-0.169814	0.333100
C120	C	1.515408	0.163519	0.666433
C121	C	0.798315	-0.372014	-0.000219
C122	C	1.131648	-0.038681	0.333114
C123	C	1.464982	0.294653	0.666448
C124	C	0.854988	-0.419812	-0.000235
C125	C	1.188321	-0.086479	0.333098
C126	C	1.521655	0.246855	0.666431
C127	C	0.953279	0.097934	-0.000252
C128	C	1.286613	0.431268	0.333081
C129	C	1.619946	0.764601	0.666415
C130	C	1.030462	0.099205	-0.000277
C131	C	1.363795	0.432538	0.333057
C132	C	1.697128	0.765871	0.666390
C133	C	0.830029	0.247021	-0.000227
C134	C	1.163362	0.580354	0.333107
C135	C	1.496695	0.913688	0.666440
C136	C	0.836526	0.333793	-0.000233
C137	C	1.169860	0.667126	0.333100
C138	C	1.503193	1.000460	0.666434
N139	N	0.826631	0.104079	0.177937
N140	N	1.159965	0.437412	0.511270
N141	N	1.493298	0.770746	0.844604
N142	N	0.826681	0.104091	-0.178373
N143	N	1.160014	0.437424	0.154960
N144	N	1.493347	0.770758	0.488293
C145	C	0.870718	0.050797	0.217315
C146	C	1.204052	0.384130	0.550649
C147	C	1.537385	0.717464	0.883982
C148	C	0.870722	0.050793	0.296117
C149	C	1.204055	0.384127	0.629451
C150	C	1.537389	0.717460	0.962784
C151	C	0.826646	0.104085	0.335538
C152	C	1.159980	0.437419	0.668871
C153	C	1.493313	0.770752	1.002204
C154	C	0.782551	0.157371	0.296150
C155	C	1.115884	0.490705	0.629483
C156	C	1.449217	0.824038	0.962817
C157	C	0.782543	0.157368	0.217350
C158	C	1.115876	0.490702	0.550683
C159	C	1.449210	0.824035	0.884016
C160	C	0.821754	0.175309	0.460373
C161	C	1.155088	0.508642	0.793707
C162	C	1.488421	0.841976	1.127040
C163	C	0.821767	0.175313	0.539172
C164	C	1.155100	0.508646	0.872505
C165	C	1.488433	0.841980	1.205839
C166	C	0.826665	0.104095	0.578584
C167	C	1.159999	0.437428	0.911917
C168	C	1.493332	0.770761	1.245251
C169	C	0.831566	0.032869	0.539188
C170	C	1.164900	0.366202	0.872521
C171	C	1.498233	0.699536	1.205854
C172	C	0.831559	0.032866	0.460387
C173	C	1.164892	0.366199	0.793721
C174	C	1.498226	0.699533	1.127054
C175	C	0.826649	0.104094	0.420983
C176	C	1.159983	0.437428	0.754317
C177	C	1.493316	0.770761	1.087650
C178	C	0.870759	0.050804	0.703408
C179	C	1.204092	0.384138	1.036742
C180	C	1.537426	0.717471	1.370075
C181	C	0.870758	0.050800	0.782212
C182	C	1.204091	0.384133	1.115545
C183	C	1.537424	0.717466	1.448878
C184	C	0.782590	0.157384	0.782243
C185	C	1.115923	0.490718	1.115576
C186	C	1.449257	0.824051	1.448909
C187	C	0.782587	0.157382	0.703441
C188	C	1.115921	0.490716	1.036774
C189	C	1.449254	0.824049	1.370108
C190	C	0.826676	0.104093	0.664028
C191	C	1.160009	0.437426	0.997362
C192	C	1.493342	0.770760	1.330695
H193	H	0.029816	0.228567	-0.000279
H194	H	0.363149	0.561900	0.333055
H195	H	0.696483	0.895233	0.666388
F196	F	0.978399	-0.520231	-0.000276
F197	F	1.311732	-0.186898	0.333058
F198	F	1.645065	0.146436	0.666391
F199	F	0.816591	0.251116	0.418436
F200	F	1.149924	0.584449	0.751769
F201	F	1.483257	0.917783	1.085102
H202	H	0.906616	0.007404	0.185228
H203	H	1.239949	0.340737	0.518562
H204	H	1.573282	0.674071	0.851895
F205	F	0.735618	0.214081	0.175438
F206	F	1.068951	0.547414	0.508772
F207	F	1.402285	0.880748	0.842105
F208	F	0.616768	0.256073	-0.000184
F209	F	0.950101	0.589406	0.333149
F210	F	1.283435	0.922740	0.666483
F211	F	0.467072	0.253603	-0.000205
F212	F	0.800406	0.586936	0.333128
F213	F	1.133739	0.920269	0.666462
H214	H	0.950869	-0.675953	-0.000254
H215	H	1.284203	-0.342619	0.333079
H216	H	1.617536	-0.009286	0.666412
F217	F	0.917678	-0.005914	0.661462
F218	F	1.251012	0.327419	0.994795
F219	F	1.584345	0.660753	1.328129
F220	F	0.186233	-0.045430	-0.000242
F221	F	0.519567	0.287903	0.333092
F222	F	0.852900	0.621236	0.666425
H223	H	0.906624	0.007403	0.328185
H224	H	1.239957	0.340736	0.661518
H225	H	1.573291	0.674070	0.994852
H226	H	0.044583	-0.029935	-0.000318
H227	H	0.377917	0.303398	0.333015
H228	H	0.711250	0.636732	0.666348
H229	H	0.835548	-0.025128	0.428314
H230	H	1.168881	0.308205	0.761647
H231	H	1.502214	0.641539	1.094980
H232	H	0.398136	0.006160	-0.079797
H233	H	0.731470	0.339493	0.253537
H234	H	1.064803	0.672826	0.586870
H235	H	0.702432	-0.115875	-0.000192
H236	H	1.035766	0.217459	0.333141
H237	H	1.369099	0.550792	0.666475
H238	H	0.746691	0.200773	0.671377
H239	H	1.080024	0.534106	1.004710
H240	H	1.413357	0.867439	1.338044
H241	H	0.491926	-0.022557	-0.000194
H242	H	0.825259	0.310776	0.333139
H243	H	1.158593	0.644109	0.666472
H244	H	0.744768	-0.397444	-0.000206
H245	H	1.078101	-0.064111	0.333127
H246	H	1.411435	0.269222	0.666461
H247	H	0.623494	-0.020396	-0.000150
H248	H	0.956828	0.312937	0.333184
H249	H	1.290161	0.646270	0.666517
F250	F	0.258296	-0.009799	-0.090793
F251	F	0.591630	0.323534	0.242540
F252	F	0.924963	0.656868	0.575874
F253	F	0.816555	0.251117	0.581093
F254	F	1.149889	0.584450	0.914427
F255	F	1.483222	0.917783	1.247760
H256	H	0.835555	-0.025124	0.571275
H257	H	1.168889	0.308210	0.904608
H258	H	1.502222	0.641543	1.237942
H259	H	0.723313	-0.641318	-0.000195
H260	H	1.056646	-0.307985	0.333138
H261	H	1.389980	0.025349	0.666472
F262	F	0.735639	0.214086	0.338104
F263	F	1.068973	0.547419	0.671438
F264	F	1.402306	0.880753	1.004771
F265	F	0.924979	-0.386581	-0.000255
F266	F	1.258312	-0.053248	0.333079
F267	F	1.591645	0.280086	0.666412
F268	F	0.946434	-0.142702	-0.000232
F269	F	1.279768	0.190632	0.333101
F270	F	1.613101	0.523965	0.666435
F271	F	0.933822	-0.310991	-0.000244
F272	F	1.267155	0.022342	0.333089
F273	F	1.600489	0.355676	0.666423
F274	F	0.169426	0.248700	-0.000265
F275	F	0.502760	0.582033	0.333068
F276	F	0.836093	0.915366	0.666401
F277	F	0.917679	-0.005917	0.824123
F278	F	1.251013	0.327416	1.157456
F279	F	1.584346	0.660749	1.490789
H280	H	0.734396	-0.493415	-0.000214
H281	H	1.067729	-0.160082	0.333120
H282	H	1.401062	0.173252	0.666453
H283	H	0.746700	0.200773	0.814338
H284	H	1.080033	0.534106	1.147671
H285	H	1.413367	0.867439	1.481005
H286	H	0.691353	-0.263791	-0.000197
H287	H	1.024686	0.069542	0.333136
H288	H	1.358019	0.402876	0.666470
H289	H	0.255169	0.202014	0.079337
H290	H	0.588502	0.535348	0.412670
H291	H	0.921836	0.868681	0.746003
F292	F	0.395018	0.217981	0.090327
F293	F	0.728352	0.551315	0.423660
F294	F	1.061685	0.884648	0.756994
