data_functionalizedCrystal
_audit_creation_method	'MofGen! by Chris Wilmer'
_symmetry_space_group_name_H-M	'P1'
_symmetry_Int_Tables_number	1
_symmetry_cell_setting	triclinic
loop_
_symmetry_equiv_pos_as_xyz
  x,y,z
_cell_length_a	29.839135
_cell_length_b	21.395362
_cell_length_c	21.395355
_cell_angle_alpha	89.980094
_cell_angle_beta	89.972219
_cell_angle_gamma	90.030029
loop_
_atom_site_label
_atom_site_type_symbol
_atom_site_fract_x
_atom_site_fract_y
_atom_site_fract_z
Zn1	Zn	0.686818	-0.249469	-0.354309
Zn2	Zn	0.936818	0.000531	-0.104309
Zn3	Zn	1.186818	0.250531	0.145691
Zn4	Zn	1.436818	0.500531	0.395691
Zn5	Zn	0.686752	-0.354229	-0.249529
Zn6	Zn	0.936752	-0.104229	0.000471
Zn7	Zn	1.186752	0.145771	0.250471
Zn8	Zn	1.436752	0.395771	0.500471
Zn9	Zn	0.611684	-0.249474	-0.249540
Zn10	Zn	0.861684	0.000526	0.000460
Zn11	Zn	1.111684	0.250526	0.250460
Zn12	Zn	1.361684	0.500526	0.500460
Zn13	Zn	0.611666	-0.354217	-0.354264
Zn14	Zn	0.861666	-0.104217	-0.104264
Zn15	Zn	1.111666	0.145783	0.145736
Zn16	Zn	1.361666	0.395783	0.395736
O17	O	0.649230	-0.301847	-0.301911
O18	O	0.899230	-0.051847	-0.051911
O19	O	1.149230	0.198153	0.198089
O20	O	1.399230	0.448153	0.448089
O21	O	0.749676	-0.263368	-0.340425
O22	O	0.999676	-0.013368	-0.090425
O23	O	1.249676	0.236632	0.159575
O24	O	1.499676	0.486632	0.409575
O25	O	0.676774	-0.340339	-0.161853
O26	O	0.926774	-0.090339	0.088147
O27	O	1.176774	0.159661	0.338147
O28	O	1.426774	0.409661	0.588147
O29	O	0.621686	-0.161795	-0.263462
O30	O	0.871686	0.088205	-0.013462
O31	O	1.121686	0.338205	0.236538
O32	O	1.371686	0.588205	0.486538
O33	O	0.749628	-0.340335	-0.263443
O34	O	0.999628	-0.090335	-0.013443
O35	O	1.249628	0.159665	0.236557
O36	O	1.499628	0.409665	0.486557
O37	O	0.676886	-0.161792	-0.340435
O38	O	0.926886	0.088208	-0.090435
O39	O	1.176886	0.338208	0.159565
O40	O	1.426886	0.588208	0.409565
O41	O	0.621622	-0.263376	-0.161861
O42	O	0.871622	-0.013376	0.088139
O43	O	1.121622	0.236624	0.338139
O44	O	1.371622	0.486624	0.588139
O45	O	0.548815	-0.263365	-0.263417
O46	O	0.798815	-0.013365	-0.013417
O47	O	1.048815	0.236635	0.236583
O48	O	1.298815	0.486635	0.486583
O49	O	0.621655	-0.340315	-0.441948
O50	O	0.871655	-0.090315	-0.191948
O51	O	1.121655	0.159685	0.058052
O52	O	1.371655	0.409685	0.308052
O53	O	0.548802	-0.340320	-0.340357
O54	O	0.798802	-0.090320	-0.090357
O55	O	1.048802	0.159680	0.159643
O56	O	1.298802	0.409680	0.409643
O57	O	0.676869	-0.263357	-0.441981
O58	O	0.926869	-0.013357	-0.191981
O59	O	1.176869	0.236643	0.058019
O60	O	1.426869	0.486643	0.308019
O61	O	0.676757	-0.441905	-0.263399
O62	O	0.926757	-0.191905	-0.013399
O63	O	1.176757	0.058095	0.236601
O64	O	1.426757	0.308095	0.486601
O65	O	0.621592	-0.441897	-0.340347
O66	O	0.871592	-0.191897	-0.090347
O67	O	1.121592	0.058103	0.159653
O68	O	1.371592	0.308103	0.409653
C69	C	0.649177	-0.464635	-0.301880
C70	C	0.899177	-0.214635	-0.051880
C71	C	1.149177	0.035365	0.198120
C72	C	1.399177	0.285365	0.448120
C73	C	0.649196	-0.534276	-0.301888
C74	C	0.899196	-0.284276	-0.051888
C75	C	1.149196	-0.034276	0.198112
C76	C	1.399196	0.215724	0.448112
C77	C	0.532507	-0.301842	-0.301884
C78	C	0.782507	-0.051842	-0.051884
C79	C	1.032507	0.198158	0.198116
C80	C	1.282507	0.448158	0.448116
C81	C	0.482573	-0.301855	-0.301887
C82	C	0.732573	-0.051855	-0.051887
C83	C	0.982573	0.198145	0.198113
C84	C	1.232573	0.448145	0.448113
C85	C	0.678063	-1.036056	-0.261946
C86	C	0.928063	-0.786056	-0.011946
C87	C	1.178063	-0.536056	0.238054
C88	C	1.428063	-0.286056	0.488054
C89	C	0.678046	-0.970620	-0.261931
C90	C	0.928046	-0.720620	-0.011931
C91	C	1.178046	-0.470620	0.238069
C92	C	1.428046	-0.220620	0.488069
C93	C	0.649294	-0.937914	-0.301955
C94	C	0.899294	-0.687914	-0.051955
C95	C	1.149294	-0.437914	0.198045
C96	C	1.399294	-0.187914	0.448045
C97	C	0.620549	-0.970649	-0.341986
C98	C	0.870549	-0.720649	-0.091986
C99	C	1.120549	-0.470649	0.158014
C100	C	1.370549	-0.220649	0.408014
C101	C	0.620563	-1.036083	-0.341995
C102	C	0.870563	-0.786083	-0.091995
C103	C	1.120563	-0.536083	0.158005
C104	C	1.370563	-0.286083	0.408005
C105	C	0.645703	-0.834224	-0.358386
C106	C	0.895703	-0.584224	-0.108386
C107	C	1.145703	-0.334224	0.141614
C108	C	1.395703	-0.084224	0.391614
C109	C	0.645691	-0.768791	-0.358378
C110	C	0.895691	-0.518791	-0.108378
C111	C	1.145691	-0.268791	0.141622
C112	C	1.395691	-0.018791	0.391622
C113	C	0.649246	-0.736093	-0.301927
C114	C	0.899246	-0.486093	-0.051927
C115	C	1.149246	-0.236093	0.198073
C116	C	1.399246	0.013907	0.448073
C117	C	0.652821	-0.768837	-0.245483
C118	C	0.902821	-0.518837	0.004517
C119	C	1.152821	-0.268837	0.254517
C120	C	1.402821	-0.018837	0.504517
C121	C	0.652836	-0.834271	-0.245492
C122	C	0.902836	-0.584271	0.004508
C123	C	1.152836	-0.334271	0.254508
C124	C	1.402836	-0.084271	0.504508
C125	C	0.649274	-0.866962	-0.301950
C126	C	0.899274	-0.616962	-0.051950
C127	C	1.149274	-0.366962	0.198050
C128	C	1.399274	-0.116962	0.448050
C129	C	0.677969	-0.632414	-0.261880
C130	C	0.927969	-0.382414	-0.011880
C131	C	1.177969	-0.132414	0.238120
C132	C	1.427969	0.117586	0.488120
C133	C	0.677948	-0.566977	-0.261864
C134	C	0.927948	-0.316977	-0.011864
C135	C	1.177948	-0.066977	0.238136
C136	C	1.427948	0.183023	0.488136
C137	C	0.620454	-0.567007	-0.341925
C138	C	0.870454	-0.317007	-0.091925
C139	C	1.120454	-0.067007	0.158075
C140	C	1.370454	0.182993	0.408075
C141	C	0.620472	-0.632443	-0.341935
C142	C	0.870472	-0.382443	-0.091935
C143	C	1.120472	-0.132443	0.158065
C144	C	1.370472	0.117557	0.408065
C145	C	0.649231	-0.665142	-0.301913
C146	C	0.899231	-0.415142	-0.051913
C147	C	1.149231	-0.165142	0.198087
C148	C	1.399231	0.084858	0.448087
C149	C	0.172952	-0.261831	-0.342054
C150	C	0.422952	-0.011831	-0.092054
C151	C	0.672952	0.238169	0.157946
C152	C	0.922952	0.488169	0.407946
C153	C	-0.014721	-0.261836	-0.342072
C154	C	0.235279	-0.011836	-0.092072
C155	C	0.485279	0.238164	0.157928
C156	C	0.735279	0.488164	0.407928
O157	O	-0.038967	-0.227791	-0.376193
O158	O	0.211033	0.022209	-0.126193
O159	O	0.461033	0.272209	0.123807
O160	O	0.711033	0.522209	0.373807
N161	N	-0.038212	-0.301848	-0.301934
N162	N	0.211788	-0.051848	-0.051934
N163	N	0.461788	0.198152	0.198066
N164	N	0.711788	0.448152	0.448066
C165	C	-0.014782	-0.341859	-0.261785
C166	C	0.235218	-0.091859	-0.011785
C167	C	0.485218	0.158141	0.238215
C168	C	0.735218	0.408141	0.488215
O169	O	-0.039068	-0.375887	-0.227641
O170	O	0.210932	-0.125887	0.022359
O171	O	0.460932	0.124113	0.272359
O172	O	0.710932	0.374113	0.522359
C173	C	0.172890	-0.341851	-0.261765
C174	C	0.422890	-0.091851	-0.011765
C175	C	0.672890	0.158149	0.238235
C176	C	0.922890	0.408149	0.488235
C177	C	0.196379	-0.301840	-0.301910
C178	C	0.446379	-0.051840	-0.051910
C179	C	0.696379	0.198160	0.198090
C180	C	0.946379	0.448160	0.448090
C181	C	0.196440	-0.221824	-0.382195
C182	C	0.446440	0.028176	-0.132195
C183	C	0.696440	0.278176	0.117805
C184	C	0.946440	0.528176	0.367805
C185	C	0.243356	-0.221825	-0.382193
C186	C	0.493356	0.028175	-0.132193
C187	C	0.743356	0.278175	0.117807
C188	C	0.993356	0.528175	0.367807
C189	C	0.266783	-0.261835	-0.342049
C190	C	0.516783	-0.011835	-0.092049
C191	C	0.766783	0.238165	0.157951
C192	C	1.016783	0.488165	0.407951
C193	C	0.243294	-0.301842	-0.301908
C194	C	0.493294	-0.051842	-0.051908
C195	C	0.743294	0.198158	0.198092
C196	C	0.993294	0.448158	0.448092
C197	C	0.196320	-0.381858	-0.221614
C198	C	0.446320	-0.131858	0.028386
C199	C	0.696320	0.118142	0.278386
C200	C	0.946320	0.368142	0.528386
C201	C	0.243241	-0.381851	-0.221611
C202	C	0.493241	-0.131851	0.028389
C203	C	0.743241	0.118149	0.278389
C204	C	0.993241	0.368149	0.528389
C205	C	0.266729	-0.341841	-0.261756
C206	C	0.516729	-0.091841	-0.011756
C207	C	0.766729	0.158159	0.238244
C208	C	1.016729	0.408159	0.488244
C209	C	0.313637	-0.341853	-0.261761
C210	C	0.563637	-0.091853	-0.011761
C211	C	0.813637	0.158147	0.238239
C212	C	1.063637	0.408147	0.488239
N213	N	0.337128	-0.301841	-0.301899
N214	N	0.587128	-0.051841	-0.051899
N215	N	0.837128	0.198159	0.198101
N216	N	1.087128	0.448159	0.448101
C217	C	0.313701	-0.261832	-0.342043
C218	C	0.563701	-0.011832	-0.092043
C219	C	0.813701	0.238168	0.157957
C220	C	1.063701	0.488168	0.407957
C221	C	-0.113312	-0.341861	-0.261800
C222	C	0.136688	-0.091861	-0.011800
C223	C	0.386688	0.158139	0.238200
C224	C	0.636688	0.408139	0.488200
C225	C	-0.160230	-0.341864	-0.261806
C226	C	0.089770	-0.091864	-0.011806
C227	C	0.339770	0.158136	0.238194
C228	C	0.589770	0.408136	0.488194
C229	C	-0.160166	-0.261840	-0.342091
C230	C	0.089834	-0.011840	-0.092091
C231	C	0.339834	0.238160	0.157909
C232	C	0.589834	0.488160	0.407909
C233	C	-0.113248	-0.261840	-0.342088
C234	C	0.136752	-0.011840	-0.092088
C235	C	0.386752	0.238160	0.157912
C236	C	0.636752	0.488160	0.407912
C237	C	-0.089822	-0.301849	-0.301938
C238	C	0.160178	-0.051849	-0.051938
C239	C	0.410178	0.198151	0.198062
C240	C	0.660178	0.448151	0.448062
C241	C	0.412226	-0.261839	-0.342035
C242	C	0.662226	-0.011839	-0.092035
C243	C	0.912226	0.238161	0.157965
C244	C	1.162226	0.488161	0.407965
C245	C	0.459146	-0.261846	-0.342031
C246	C	0.709146	-0.011846	-0.092031
C247	C	0.959146	0.238154	0.157969
C248	C	1.209146	0.488154	0.407969
C249	C	0.459078	-0.341867	-0.261743
C250	C	0.709078	-0.091867	-0.011743
C251	C	0.959078	0.158133	0.238257
C252	C	1.209078	0.408133	0.488257
C253	C	0.412163	-0.341863	-0.261750
C254	C	0.662163	-0.091863	-0.011750
C255	C	0.912163	0.158137	0.238250
C256	C	1.162163	0.408137	0.488250
C257	C	0.388738	-0.301844	-0.301898
C258	C	0.638738	-0.051844	-0.051898
C259	C	0.888738	0.198156	0.198102
C260	C	1.138738	0.448156	0.448102
O261	O	0.337912	-0.375874	-0.227653
O262	O	0.587912	-0.125874	0.022347
O263	O	0.837912	0.124126	0.272347
O264	O	1.087912	0.374126	0.522347
O265	O	0.337995	-0.227799	-0.376172
O266	O	0.587995	0.022201	-0.126172
O267	O	0.837995	0.272201	0.123828
O268	O	1.087995	0.522201	0.373828
C269	C	0.126036	-0.261829	-0.342056
C270	C	0.376036	-0.011829	-0.092056
C271	C	0.626036	0.238171	0.157944
C272	C	0.876036	0.488171	0.407944
C273	C	0.102548	-0.301837	-0.301915
C274	C	0.352548	-0.051837	-0.051915
C275	C	0.602548	0.198163	0.198085
C276	C	0.852548	0.448163	0.448085
C277	C	0.125975	-0.341846	-0.261771
C278	C	0.375975	-0.091846	-0.011771
C279	C	0.625975	0.158154	0.238229
C280	C	0.875975	0.408154	0.488229
C281	C	0.055630	-0.301840	-0.301921
C282	C	0.305630	-0.051840	-0.051921
C283	C	0.555630	0.198160	0.198079
C284	C	0.805630	0.448160	0.448079
C285	C	0.032203	-0.261831	-0.342065
C286	C	0.282203	-0.011831	-0.092065
C287	C	0.532203	0.238169	0.157935
C288	C	0.782203	0.488169	0.407935
C289	C	0.055694	-0.221819	-0.382203
C290	C	0.305694	0.028181	-0.132203
C291	C	0.555694	0.278181	0.117797
C292	C	0.805694	0.528181	0.367797
C293	C	0.102609	-0.221820	-0.382200
C294	C	0.352609	0.028180	-0.132200
C295	C	0.602609	0.278180	0.117800
C296	C	0.852609	0.528180	0.367800
C297	C	0.102484	-0.381858	-0.221633
C298	C	0.352484	-0.131858	0.028367
C299	C	0.602484	0.118142	0.278367
C300	C	0.852484	0.368142	0.528367
C301	C	0.055569	-0.381854	-0.221639
C302	C	0.305569	-0.131854	0.028361
C303	C	0.555569	0.118146	0.278361
C304	C	0.805569	0.368146	0.528361
C305	C	0.032142	-0.341845	-0.261783
C306	C	0.282142	-0.091845	-0.011783
C307	C	0.532142	0.158155	0.238217
C308	C	0.782142	0.408155	0.488217
C309	C	0.766408	-0.301852	-0.301938
C310	C	1.016408	-0.051852	-0.051938
C311	C	1.266408	0.198148	0.198062
C312	C	1.516408	0.448148	0.448062
C313	C	0.816343	-0.301855	-0.301949
C314	C	1.066343	-0.051855	-0.051949
C315	C	1.316343	0.198145	0.198051
C316	C	1.566343	0.448145	0.448051
C317	C	0.649267	-0.301834	-0.465334
C318	C	0.899267	-0.051834	-0.215334
C319	C	1.149267	0.198166	0.034666
C320	C	1.399267	0.448166	0.284666
C321	C	0.649283	-0.301829	-0.534975
C322	C	0.899283	-0.051829	-0.284975
C323	C	1.149283	0.198171	-0.034975
C324	C	1.399283	0.448171	0.215025
C325	C	0.649295	-0.138424	-0.301955
C326	C	0.899295	0.111576	-0.051955
C327	C	1.149295	0.361576	0.198045
C328	C	1.399295	0.611576	0.448045
C329	C	0.649323	-0.068782	-0.301974
C330	C	0.899323	0.181218	-0.051974
C331	C	1.149323	0.431218	0.198026
C332	C	1.399323	0.681218	0.448026
C333	C	0.678032	-0.261755	-0.567707
C334	C	0.928032	-0.011755	-0.317707
C335	C	1.178032	0.238245	-0.067707
C336	C	1.428032	0.488245	0.182293
C337	C	0.678031	-0.261728	-0.633142
C338	C	0.928031	-0.011728	-0.383142
C339	C	1.178031	0.238272	-0.133142
C340	C	1.428031	0.488272	0.116858
C341	C	0.649287	-0.301786	-0.665844
C342	C	0.899287	-0.051786	-0.415844
C343	C	1.149287	0.198214	-0.165844
C344	C	1.399287	0.448214	0.084156
C345	C	0.620533	-0.341863	-0.633104
C346	C	0.870533	-0.091863	-0.383104
C347	C	1.120533	0.158137	-0.133104
C348	C	1.370533	0.408137	0.116896
C349	C	0.620531	-0.341884	-0.567670
C350	C	0.870531	-0.091884	-0.317670
C351	C	1.120531	0.158116	-0.067670
C352	C	1.370531	0.408116	0.182330
C353	C	0.645721	-0.358202	-0.769508
C354	C	0.895721	-0.108202	-0.519508
C355	C	1.145721	0.141798	-0.269508
C356	C	1.395721	0.391798	-0.019508
C357	C	0.645726	-0.358181	-0.834941
C358	C	0.895726	-0.108181	-0.584941
C359	C	1.145726	0.141819	-0.334941
C360	C	1.395726	0.391819	-0.084941
C361	C	0.649290	-0.301720	-0.867664
C362	C	0.899290	-0.051720	-0.617664
C363	C	1.149290	0.198280	-0.367664
C364	C	1.399290	0.448280	-0.117664
C365	C	0.652858	-0.245277	-0.834947
C366	C	0.902858	0.004723	-0.584947
C367	C	1.152858	0.254723	-0.334947
C368	C	1.402858	0.504723	-0.084947
C369	C	0.652856	-0.245298	-0.769513
C370	C	0.902856	0.004702	-0.519513
C371	C	1.152856	0.254702	-0.269513
C372	C	1.402856	0.504702	-0.019513
C373	C	0.649285	-0.301767	-0.736796
C374	C	0.899285	-0.051767	-0.486796
C375	C	1.149285	0.198233	-0.236796
C376	C	1.399285	0.448233	0.013204
C377	C	0.678039	-0.261614	-0.971349
C378	C	0.928039	-0.011614	-0.721349
C379	C	1.178039	0.238386	-0.471349
C380	C	1.428039	0.488386	-0.221349
C381	C	0.678035	-0.261586	-1.036785
C382	C	0.928035	-0.011586	-0.786785
C383	C	1.178035	0.238414	-0.536785
C384	C	1.428035	0.488414	-0.286785
C385	C	0.620539	-0.341726	-1.036746
C386	C	0.870539	-0.091726	-0.786746
C387	C	1.120539	0.158274	-0.536746
C388	C	1.370539	0.408274	-0.286746
C389	C	0.620541	-0.341748	-0.971310
C390	C	0.870541	-0.091748	-0.721310
C391	C	1.120541	0.158252	-0.471310
C392	C	1.370541	0.408252	-0.221310
C393	C	0.649293	-0.301693	-0.938616
C394	C	0.899293	-0.051693	-0.688616
C395	C	1.149293	0.198307	-0.438616
C396	C	1.399293	0.448307	-0.188616
C397	C	0.649219	-0.301814	-0.139123
C398	C	0.899219	-0.051814	0.110877
C399	C	1.149219	0.198186	0.360877
C400	C	1.399219	0.448186	0.610877
C401	C	0.649290	-0.301643	-0.069482
C402	C	0.899290	-0.051643	0.180518
C403	C	1.149290	0.198357	0.430518
C404	C	1.399290	0.448357	0.680518
H405	H	0.701480	-1.062675	-0.229355
H406	H	0.951480	-0.812675	0.020645
H407	H	1.201480	-0.562675	0.270645
H408	H	1.451480	-0.312675	0.520645
H409	H	0.177204	-0.414438	-0.188922
H410	H	0.427204	-0.164438	0.061078
H411	H	0.677204	0.085562	0.311078
H412	H	0.927204	0.335562	0.561078
Br413	Br	0.275226	-0.167521	-0.436677
Br414	Br	0.525226	0.082479	-0.186677
Br415	Br	0.775226	0.332479	0.063323
Br416	Br	1.025226	0.582479	0.313323
H417	H	0.597119	-0.374516	-0.541020
H418	H	0.847119	-0.124516	-0.291020
H419	H	1.097119	0.125484	-0.041020
H420	H	1.347119	0.375484	0.208980
Br421	Br	0.717038	-0.207323	-0.677574
Br422	Br	0.967038	0.042677	-0.427574
Br423	Br	1.217038	0.292677	-0.177574
Br424	Br	1.467038	0.542677	0.072426
Br425	Br	0.717057	-0.207253	-0.926974
Br426	Br	0.967057	0.042747	-0.676974
Br427	Br	1.217057	0.292747	-0.426974
Br428	Br	1.467057	0.542747	-0.176974
H429	H	0.642783	-0.742134	-0.404336
H430	H	0.892783	-0.492134	-0.154336
H431	H	1.142783	-0.242134	0.095664
H432	H	1.392783	0.007866	0.345664
Br433	Br	0.717061	-0.207204	-1.081209
Br434	Br	0.967061	0.042796	-0.831209
Br435	Br	1.217061	0.292796	-0.581209
Br436	Br	1.467061	0.542796	-0.331209
Br437	Br	0.640807	-0.878592	-0.434995
Br438	Br	0.890807	-0.628592	-0.184995
Br439	Br	1.140807	-0.378592	0.065005
Br440	Br	1.390807	-0.128592	0.315005
H441	H	0.701450	-0.943969	-0.229334
H442	H	0.951450	-0.693969	0.020666
H443	H	1.201450	-0.443969	0.270666
H444	H	1.451450	-0.193969	0.520666
H445	H	0.655746	-0.860929	-0.199533
H446	H	0.905746	-0.610929	0.050467
H447	H	1.155746	-0.360929	0.300467
H448	H	1.405746	-0.110929	0.550467
H449	H	0.597131	-0.374336	-1.063371
H450	H	0.847131	-0.124336	-0.813371
H451	H	1.097131	0.125664	-0.563371
H452	H	1.347131	0.375664	-0.313371
Br453	Br	-0.081526	-0.396156	-0.207297
Br454	Br	0.168474	-0.146156	0.042703
Br455	Br	0.418474	0.103844	0.292703
Br456	Br	0.668474	0.353844	0.542703
Br457	Br	0.275031	-0.436152	-0.167118
Br458	Br	0.525031	-0.186152	0.082882
Br459	Br	0.775031	0.063848	0.332882
Br460	Br	1.025031	0.313848	0.582882
H461	H	0.597160	-1.062729	-0.374593
H462	H	0.847160	-0.812729	-0.124593
H463	H	1.097160	-0.562729	0.125407
H464	H	1.347160	-0.312729	0.375407
H465	H	0.597042	-0.540379	-0.374511
H466	H	0.847042	-0.290379	-0.124511
H467	H	1.097042	-0.040379	0.125489
H468	H	1.347042	0.209621	0.375489
H469	H	0.655760	-0.199341	-0.742878
H470	H	0.905760	0.050659	-0.492878
H471	H	1.155760	0.300659	-0.242878
H472	H	1.405760	0.550659	0.007122
H473	H	0.642823	-0.404141	-0.861574
H474	H	0.892823	-0.154141	-0.611574
H475	H	1.142823	0.095859	-0.361574
H476	H	1.392823	0.345859	-0.111574
Br477	Br	0.657698	-0.168645	-0.879350
Br478	Br	0.907698	0.081355	-0.629350
Br479	Br	1.157698	0.331355	-0.379350
Br480	Br	1.407698	0.581355	-0.129350
H481	H	0.597133	-0.374384	-0.944660
H482	H	0.847133	-0.124384	-0.694660
H483	H	1.097133	0.125616	-0.444660
H484	H	1.347133	0.375616	-0.194660
Br485	Br	0.657649	-0.724471	-0.168866
Br486	Br	0.907649	-0.474471	0.081134
Br487	Br	1.157649	-0.224471	0.331134
Br488	Br	1.407649	0.025529	0.581134
H489	H	0.393037	-0.374450	-0.229067
H490	H	0.643037	-0.124450	0.020933
H491	H	0.893037	0.125550	0.270933
H492	H	1.143037	0.375550	0.520933
Br493	Br	0.716996	-0.676796	-0.207563
Br494	Br	0.966996	-0.426796	0.042437
Br495	Br	1.216996	-0.176796	0.292437
Br496	Br	1.466996	0.073204	0.542437
H497	H	0.597138	-0.944016	-0.374574
H498	H	0.847138	-0.694016	-0.124574
H499	H	1.097138	-0.444016	0.125426
H500	H	1.347138	-0.194016	0.375426
H501	H	0.597128	-0.374476	-0.659734
H502	H	0.847128	-0.124476	-0.409734
H503	H	1.097128	0.125524	-0.159734
H504	H	1.347128	0.375524	0.090266
Br505	Br	-0.192101	-0.396173	-0.207328
Br506	Br	0.057899	-0.146173	0.042672
Br507	Br	0.307899	0.103827	0.292672
Br508	Br	0.557899	0.353827	0.542672
Br509	Br	0.717050	-0.207392	-0.523338
Br510	Br	0.967050	0.042608	-0.273338
Br511	Br	1.217050	0.292608	-0.023338
Br512	Br	1.467050	0.542608	0.226662
H513	H	0.177371	-0.189240	-0.414885
H514	H	0.427371	0.060760	-0.164885
H515	H	0.677371	0.310760	0.085115
H516	H	0.927371	0.560760	0.335115
Br517	Br	-0.081376	-0.207539	-0.396572
Br518	Br	0.168624	0.042461	-0.146572
Br519	Br	0.418624	0.292461	0.103428
Br520	Br	0.668624	0.542461	0.353428
Br521	Br	0.640898	-0.434837	-0.725103
Br522	Br	0.890898	-0.184837	-0.475103
Br523	Br	1.140898	0.065163	-0.225103
Br524	Br	1.390898	0.315163	0.024897
H525	H	0.393160	-0.229249	-0.374726
H526	H	0.643160	0.020751	-0.124726
H527	H	0.893160	0.270751	0.125274
H528	H	1.143160	0.520751	0.375274
Br529	Br	0.716955	-0.522561	-0.207534
Br530	Br	0.966955	-0.272561	0.042466
Br531	Br	1.216955	-0.022561	0.292466
Br532	Br	1.466955	0.227439	0.542466
Br533	Br	0.023891	-0.167524	-0.436687
Br534	Br	0.273891	0.082476	-0.186687
Br535	Br	0.523891	0.332476	0.063313
Br536	Br	0.773891	0.582476	0.313313
H537	H	0.478268	-0.229264	-0.374724
H538	H	0.728268	0.020736	-0.124724
H539	H	0.978268	0.270736	0.125276
H540	H	1.228268	0.520736	0.375276
Br541	Br	0.581470	-0.676861	-0.396268
Br542	Br	0.831470	-0.426861	-0.146268
Br543	Br	1.081470	-0.176861	0.103732
Br544	Br	1.331470	0.073139	0.353732
Br545	Br	-0.191969	-0.207541	-0.396571
Br546	Br	0.058031	0.042459	-0.146571
Br547	Br	0.308031	0.292459	0.103429
Br548	Br	0.558031	0.542459	0.353429
Br549	Br	0.490881	-0.396165	-0.207266
Br550	Br	0.740881	-0.146165	0.042734
Br551	Br	0.990881	0.103835	0.292734
Br552	Br	1.240881	0.353835	0.542734
H553	H	0.121729	-0.189239	-0.414890
H554	H	0.371729	0.060761	-0.164890
H555	H	0.621729	0.310761	0.085110
H556	H	0.871729	0.560761	0.335110
Br557	Br	0.023697	-0.436159	-0.167151
Br558	Br	0.273697	-0.186159	0.082849
Br559	Br	0.523697	0.063841	0.332849
Br560	Br	0.773697	0.313841	0.582849
H561	H	0.121554	-0.414438	-0.188941
H562	H	0.371554	-0.164438	0.061059
H563	H	0.621554	0.085562	0.311059
H564	H	0.871554	0.335562	0.561059
