data_functionalizedCrystal
_audit_creation_method	'MofGen! by Chris Wilmer'
_symmetry_space_group_name_H-M	'P1'
_symmetry_Int_Tables_number	1
_symmetry_cell_setting	triclinic
loop_
_symmetry_equiv_pos_as_xyz
  x,y,z
_cell_length_a	21.295418
_cell_length_b	25.639240
_cell_length_c	21.295411
_cell_angle_alpha	89.973291
_cell_angle_beta	89.956262
_cell_angle_gamma	90.048568
loop_
_atom_site_label
_atom_site_type_symbol
_atom_site_fract_x
_atom_site_fract_y
_atom_site_fract_z
Zn1	Zn	0.962346	-0.207990	-0.356211
Zn2	Zn	1.462346	0.292010	0.143789
Zn3	Zn	0.962244	-0.295410	-0.250928
Zn4	Zn	1.462244	0.204590	0.249072
Zn5	Zn	0.857069	-0.208014	-0.250921
Zn6	Zn	1.357069	0.291986	0.249079
Zn7	Zn	0.857034	-0.295420	-0.356124
Zn8	Zn	1.357034	0.204580	0.143876
O9	O	0.909673	-0.251708	-0.303546
O10	O	1.409673	0.248292	0.196454
O11	O	1.050422	-0.219572	-0.342285
O12	O	1.550422	0.280428	0.157715
O13	O	0.948264	-0.283822	-0.162837
O14	O	1.448264	0.216178	0.337163
O15	O	0.871091	-0.134846	-0.264922
O16	O	1.371091	0.365154	0.235078
O17	O	1.050347	-0.283799	-0.264933
O18	O	1.550347	0.216201	0.235067
O19	O	0.948438	-0.134828	-0.342278
O20	O	1.448438	0.365172	0.157722
O21	O	0.870993	-0.219613	-0.162833
O22	O	1.370993	0.280387	0.337167
O23	O	0.768975	-0.219623	-0.264837
O24	O	1.268975	0.280377	0.235163
O25	O	0.871032	-0.283816	-0.444225
O26	O	1.371032	0.216184	0.055775
O27	O	0.768950	-0.283840	-0.342129
O28	O	1.268950	0.216160	0.157871
O29	O	0.948404	-0.219582	-0.444289
O30	O	1.448404	0.280418	0.055711
O31	O	0.948231	-0.368576	-0.264848
O32	O	1.448231	0.131424	0.235152
O33	O	0.870934	-0.368584	-0.342136
O34	O	1.370934	0.131416	0.157864
C35	C	0.746122	-0.251736	-0.303474
C36	C	1.246122	0.248264	0.196526
C37	C	0.676154	-0.251760	-0.303458
C38	C	1.176154	0.248240	0.196542
C39	C	0.909584	-0.387551	-0.303497
C40	C	1.409584	0.112449	0.196503
C41	C	0.909604	-0.445665	-0.303497
C42	C	1.409604	0.054335	0.196503
C43	C	0.643290	-0.285242	-0.343643
C44	C	1.143290	0.214758	0.156357
C45	C	0.577548	-0.285229	-0.343672
C46	C	1.077548	0.214771	0.156328
C47	C	0.544671	-0.251740	-0.303503
C48	C	1.044671	0.248260	0.196497
C49	C	0.577543	-0.218252	-0.263314
C50	C	1.077543	0.281748	0.236686
C51	C	0.643284	-0.218262	-0.263292
C52	C	1.143284	0.281738	0.236708
N53	N	0.441395	-0.247648	-0.248446
N54	N	0.941395	0.252352	0.251554
N55	N	0.378944	-0.247641	-0.248469
N56	N	0.878944	0.252359	0.251531
C57	C	0.346596	-0.251707	-0.303570
C58	C	0.846596	0.248293	0.196430
N59	N	0.379060	-0.255789	-0.358647
N60	N	0.879060	0.244211	0.141353
N61	N	0.441517	-0.255798	-0.358623
N62	N	0.941517	0.244202	0.141377
C63	C	0.473386	-0.251725	-0.303523
C64	C	0.973386	0.248275	0.196477
C65	C	0.242448	-0.285176	-0.343789
C66	C	0.742448	0.214824	0.156211
C67	C	0.176704	-0.285160	-0.343819
C68	C	0.676704	0.214840	0.156181
C69	C	0.176700	-0.218185	-0.263456
C70	C	0.676700	0.281815	0.236544
C71	C	0.242442	-0.218199	-0.263432
C72	C	0.742442	0.281801	0.236568
C73	C	0.275312	-0.251697	-0.303598
C74	C	0.775312	0.248303	0.196402
C75	C	0.949968	-0.805980	-0.343898
C76	C	1.449968	-0.305980	0.156102
C77	C	0.949986	-0.860584	-0.343911
C78	C	1.449986	-0.360584	0.156089
O79	O	0.984199	-0.888781	-0.378211
O80	O	1.484199	-0.388781	0.121789
N81	N	0.909761	-0.887947	-0.303607
N82	N	1.409761	-0.387947	0.196393
C83	C	0.869510	-0.860703	-0.263292
C84	C	1.369510	-0.360703	0.236708
O85	O	0.835296	-0.888991	-0.229012
O86	O	1.335296	-0.388991	0.270988
C87	C	0.869488	-0.806100	-0.263283
C88	C	1.369488	-0.306100	0.236717
C89	C	0.909721	-0.778740	-0.303585
C90	C	1.409721	-0.278740	0.196415
C91	C	0.990197	-0.778620	-0.384197
C92	C	1.490197	-0.278620	0.115803
C93	C	0.990179	-0.724019	-0.384184
C94	C	1.490179	-0.224019	0.115816
C95	C	0.949932	-0.696779	-0.343871
C96	C	1.449932	-0.196779	0.156129
C97	C	0.909703	-0.724139	-0.303571
C98	C	1.409703	-0.224139	0.196429
C99	C	0.829234	-0.778857	-0.222972
C100	C	1.329234	-0.278857	0.277028
C101	C	0.829216	-0.724250	-0.222966
C102	C	1.329216	-0.224250	0.277034
C103	C	0.869449	-0.696890	-0.263268
C104	C	1.369449	-0.196890	0.236732
C105	C	0.869438	-0.642298	-0.263244
C106	C	1.369438	-0.142298	0.236756
N107	N	0.909664	-0.614935	-0.303548
N108	N	1.409664	-0.114935	0.196452
C109	C	0.949911	-0.642176	-0.343861
C110	C	1.449911	-0.142176	0.156139
C111	C	0.869557	-0.975374	-0.263315
C112	C	1.369557	-0.475374	0.236685
C113	C	0.869581	-1.029976	-0.263321
C114	C	1.369581	-0.529976	0.236679
C115	C	0.950057	-1.029854	-0.343941
C116	C	1.450057	-0.529854	0.156059
C117	C	0.950035	-0.975250	-0.343931
C118	C	1.450035	-0.475250	0.156069
C119	C	0.909782	-0.948011	-0.303619
C120	C	1.409782	-0.448011	0.196381
C121	C	0.949870	-0.527511	-0.343829
C122	C	1.449870	-0.027511	0.156171
C123	C	0.949851	-0.472905	-0.343810
C124	C	1.449851	0.027095	0.156190
C125	C	0.869373	-0.473033	-0.263193
C126	C	1.369373	0.026967	0.236807
C127	C	0.869394	-0.527633	-0.263209
C128	C	1.369394	-0.027633	0.236791
C129	C	0.909645	-0.554871	-0.303532
C130	C	1.409645	-0.054871	0.196468
O131	O	0.835241	-0.614068	-0.228964
O132	O	1.335241	-0.114068	0.271036
O133	O	0.984113	-0.613881	-0.378142
O134	O	1.484113	-0.113881	0.121858
C135	C	1.073864	-0.251681	-0.303619
C136	C	1.573864	0.248319	0.196381
C137	C	1.143832	-0.251670	-0.303650
C138	C	1.643832	0.248330	0.196350
C139	C	0.909726	-0.251697	-0.467736
C140	C	1.409726	0.248303	0.032264
C141	C	0.909748	-0.251693	-0.537705
C142	C	1.409748	0.248307	-0.037705
C143	C	0.909780	-0.115335	-0.303609
C144	C	1.409780	0.384665	0.196391
C145	C	0.909825	-0.057221	-0.303636
C146	C	1.409825	0.442779	0.196364
C147	C	0.950034	-0.218244	-0.570606
C148	C	1.450034	0.281756	-0.070606
C149	C	0.950033	-0.218221	-0.636348
C150	C	1.450033	0.281779	-0.136348
C151	C	0.909753	-0.251657	-0.669187
C152	C	1.409753	0.248343	-0.169187
C153	C	0.869459	-0.285108	-0.636278
C154	C	1.369459	0.214892	-0.136278
C155	C	0.869457	-0.285126	-0.570537
C156	C	1.369457	0.214874	-0.070537
N157	N	0.904894	-0.297396	-0.772396
N158	N	1.404894	0.202604	-0.272396
N159	N	0.904900	-0.297377	-0.834848
N160	N	1.404900	0.202623	-0.334848
C161	C	0.909757	-0.251604	-0.867262
C162	C	1.409757	0.248396	-0.367262
N163	N	0.914620	-0.205848	-0.834866
N164	N	1.414620	0.294152	-0.334866
N165	N	0.914617	-0.205867	-0.772408
N166	N	1.414617	0.294133	-0.272408
C167	C	0.909751	-0.251641	-0.740473
C168	C	1.409751	0.248359	-0.240473
C169	C	0.950044	-0.218128	-0.971449
C170	C	1.450044	0.281872	-0.471449
C171	C	0.950039	-0.218104	-1.037192
C172	C	1.450039	0.281896	-0.537192
C173	C	0.869468	-0.284995	-1.037121
C174	C	1.369468	0.215005	-0.537121
C175	C	0.869470	-0.285014	-0.971379
C176	C	1.369470	0.214986	-0.471379
C177	C	0.909761	-0.251581	-0.938546
C178	C	1.409761	0.248419	-0.438546
C179	C	0.909658	-0.251682	-0.139995
C180	C	1.409658	0.248318	0.360005
C181	C	0.909757	-0.251539	-0.070027
C182	C	1.409757	0.248461	0.429973
H183	H	0.550785	-0.312494	-0.376398
H184	H	1.050785	0.187506	0.123602
C185	C	0.140939	-0.321543	-0.387350
C186	C	0.640939	0.178457	0.112650
C187	C	0.103100	-0.354992	-0.351640
C188	C	0.603100	0.145008	0.148360
C189	C	0.070137	-0.388511	-0.391719
C190	C	0.570137	0.111489	0.108281
H191	H	0.169859	-0.341545	-0.411281
H192	H	0.669859	0.158455	0.088719
H193	H	0.115314	-0.301587	-0.414826
H194	H	0.615314	0.198413	0.085174
H195	H	0.128722	-0.374946	-0.324175
H196	H	0.628722	0.125054	0.175825
H197	H	0.074168	-0.335005	-0.327711
H198	H	0.574168	0.164995	0.172289
H199	H	0.044512	-0.368555	-0.419196
H200	H	0.544512	0.131445	0.080804
H201	H	0.099062	-0.408508	-0.415648
H202	H	0.599062	0.091492	0.084352
H203	H	0.044455	-0.411206	-0.367496
H204	H	0.544455	0.088794	0.132504
C205	C	0.825809	-0.321282	-1.072880
C206	C	1.325809	0.178718	-0.572880
C207	C	0.834445	-0.314118	-1.137496
C208	C	1.334445	0.185882	-0.637496
C209	C	0.794242	-0.347543	-1.170460
C210	C	1.294242	0.152457	-0.670460
H211	H	0.783491	-0.313679	-1.062155
H212	H	1.283491	0.186321	-0.562155
H213	H	0.835006	-0.356423	-1.062141
H214	H	1.335006	0.143577	-0.562141
H215	H	0.825242	-0.278986	-1.148231
H216	H	1.325242	0.221014	-0.648231
H217	H	0.876753	-0.321725	-1.148241
H218	H	1.376753	0.178275	-0.648241
H219	H	0.803440	-0.382684	-1.159721
H220	H	1.303440	0.117316	-0.659721
H221	H	0.751928	-0.339937	-1.159730
H222	H	1.251928	0.160063	-0.659730
H223	H	0.800100	-0.342691	-1.214305
H224	H	1.300100	0.157309	-0.714305
H225	H	0.982827	-1.052043	-0.376767
H226	H	1.482827	-0.552043	0.123233
C227	C	0.993454	-0.443228	-0.387676
C228	C	1.493454	0.056772	0.112324
C229	C	0.979706	-0.456481	-0.449944
C230	C	1.479706	0.043519	0.050056
C231	C	1.019852	-0.429150	-0.490371
C232	C	1.519852	0.070850	0.009629
H233	H	1.035779	-0.452121	-0.378604
H234	H	1.535779	0.047879	0.121396
H235	H	0.987677	-0.406801	-0.381940
H236	H	1.487677	0.093199	0.118060
H237	H	0.985489	-0.492899	-0.455678
H238	H	1.485489	0.007101	0.044322
H239	H	0.937389	-0.447586	-0.459037
H240	H	1.437389	0.052414	0.040963
H241	H	1.014075	-0.392723	-0.484634
H242	H	1.514075	0.107277	0.015366
H243	H	1.062175	-0.438045	-0.481293
H244	H	1.562175	0.061955	0.018707
H245	H	1.010526	-0.438134	-0.532624
H246	H	1.510526	0.061866	-0.032624
H247	H	0.670049	-0.312519	-0.376350
H248	H	1.170049	0.187481	0.123650
H249	H	0.836648	-0.312363	-0.543749
H250	H	1.336648	0.187637	-0.043749
C251	C	0.993862	-0.181915	-0.935766
C252	C	1.493862	0.318085	-0.435766
C253	C	1.034199	-0.211525	-0.898067
C254	C	1.534199	0.288475	-0.398067
C255	C	1.074580	-0.178185	-0.865197
C256	C	1.574580	0.321815	-0.365197
H257	H	0.969876	-0.159135	-0.910052
H258	H	1.469876	0.340865	-0.410052
H259	H	1.017889	-0.161998	-0.964762
H260	H	1.517889	0.338002	-0.464762
H261	H	1.010175	-0.231433	-0.869075
H262	H	1.510175	0.268567	-0.369075
H263	H	1.058199	-0.234304	-0.923766
H264	H	1.558199	0.265696	-0.423766
H265	H	1.098606	-0.158268	-0.894192
H266	H	1.598606	0.341732	-0.394192
H267	H	1.050589	-0.155406	-0.839486
H268	H	1.550589	0.344594	-0.339486
H269	H	1.101956	-0.198271	-0.839618
H270	H	1.601956	0.301729	-0.339618
C271	C	0.993849	-0.181766	-1.072803
C272	C	1.493849	0.318234	-0.572803
C273	C	1.029143	-0.152503	-1.029975
C274	C	1.529143	0.347497	-0.529975
C275	C	1.069514	-0.119028	-1.062757
C276	C	1.569514	0.380972	-0.562757
H277	H	0.969860	-0.158933	-1.098436
H278	H	1.469860	0.341067	-0.598436
H279	H	1.021292	-0.201745	-1.098454
H280	H	1.521292	0.298255	-0.598454
H281	H	1.001703	-0.132526	-1.004336
H282	H	1.501703	0.367474	-0.504336
H283	H	1.053145	-0.175323	-1.004342
H284	H	1.553145	0.324677	-0.504342
H285	H	1.096958	-0.139007	-1.088408
H286	H	1.596958	0.360993	-0.588408
H287	H	1.045520	-0.096198	-1.088389
H288	H	1.545520	0.403802	-0.588389
H289	H	1.093470	-0.099173	-1.033704
H290	H	1.593470	0.400827	-0.533704
C291	C	0.825709	-0.321390	-0.935766
C292	C	1.325709	0.178610	-0.435766
C293	C	0.790443	-0.350676	-0.978594
C294	C	1.290443	0.149324	-0.478594
C295	C	0.750126	-0.384196	-0.945811
C296	C	1.250126	0.115804	-0.445811
H297	H	0.798242	-0.301459	-0.910102
H298	H	1.298242	0.198541	-0.410102
H299	H	0.849756	-0.344203	-0.910147
H300	H	1.349756	0.155797	-0.410147
H301	H	0.766398	-0.327867	-1.004202
H302	H	1.266398	0.172133	-0.504202
H303	H	0.817894	-0.370619	-1.004259
H304	H	1.317894	0.129381	-0.504259
H305	H	0.774172	-0.407009	-0.920192
H306	H	1.274172	0.092991	-0.420192
H307	H	0.722662	-0.364260	-0.920148
H308	H	1.222662	0.135740	-0.420148
H309	H	0.726197	-0.404074	-0.974864
H310	H	1.226197	0.095926	-0.474864
H311	H	0.836661	-0.312329	-0.663020
H312	H	1.336661	0.187671	-0.163020
H313	H	0.982642	-0.549681	-0.376668
H314	H	1.482642	-0.049681	0.123332
C315	C	0.140900	-0.181896	-0.219849
C316	C	0.640900	0.318104	0.280151
C317	C	0.076292	-0.189067	-0.228450
C318	C	0.576292	0.310933	0.271550
C319	C	0.043291	-0.155656	-0.188277
C320	C	0.543291	0.344344	0.311723
H321	H	0.151643	-0.146753	-0.229081
H322	H	0.651643	0.353247	0.270919
H323	H	0.151591	-0.189518	-0.177524
H324	H	0.651591	0.310482	0.322476
H325	H	0.065606	-0.181441	-0.270765
H326	H	0.565606	0.318559	0.229235
H327	H	0.065530	-0.224203	-0.219213
H328	H	0.565530	0.275797	0.280787
H329	H	0.053981	-0.163279	-0.145953
H330	H	0.553981	0.336721	0.354047
H331	H	0.054039	-0.120515	-0.197513
H332	H	0.554039	0.379485	0.302487
H333	H	-0.000549	-0.160521	-0.194104
H334	H	0.499451	0.339479	0.305896
H335	H	0.550770	-0.190983	-0.230610
H336	H	1.050770	0.309017	0.269390
H337	H	0.670041	-0.190995	-0.230567
H338	H	1.170041	0.309005	0.269433
C339	C	0.278026	-0.321558	-0.387472
C340	C	0.778026	0.178442	0.112528
C341	C	0.235171	-0.350864	-0.422690
C342	C	0.735171	0.149136	0.077310
C343	C	0.267921	-0.384379	-0.462944
C344	C	0.767921	0.115621	0.037056
H345	H	0.303619	-0.344362	-0.363402
H346	H	0.803619	0.155638	0.136598
H347	H	0.303715	-0.301605	-0.414969
H348	H	0.803715	0.198395	0.085031
H349	H	0.209493	-0.370816	-0.395197
H350	H	0.709493	0.129184	0.104803
H351	H	0.209578	-0.328074	-0.446773
H352	H	0.709578	0.171926	0.053227
H353	H	0.293610	-0.364426	-0.490441
H354	H	0.793610	0.135574	0.009559
H355	H	0.293512	-0.407179	-0.438869
H356	H	0.793512	0.092821	0.061131
H357	H	0.238849	-0.404263	-0.486848
H358	H	0.738849	0.095737	0.013152
H359	H	0.269200	-0.190937	-0.230705
H360	H	0.769200	0.309063	0.269295
H361	H	0.796473	-0.801124	-0.190153
H362	H	1.296473	-0.301124	0.309847
C363	C	1.033881	-0.694413	-0.428014
C364	C	1.533881	-0.194413	0.071986
C365	C	1.069114	-0.729965	-0.463329
C366	C	1.569114	-0.229965	0.036671
C367	C	1.109374	-0.702715	-0.503721
C368	C	1.609374	-0.202715	-0.003721
H369	H	1.061372	-0.673096	-0.404040
H370	H	1.561372	-0.173096	0.095960
H371	H	1.009795	-0.673133	-0.455444
H372	H	1.509795	-0.173133	0.044556
H373	H	1.093198	-0.751236	-0.435902
H374	H	1.593198	-0.251236	0.064098
H375	H	1.041639	-0.751283	-0.487316
H376	H	1.541639	-0.251283	0.012684
H377	H	1.085288	-0.681435	-0.531151
H378	H	1.585288	-0.181435	-0.031151
H379	H	1.136861	-0.681399	-0.479741
H380	H	1.636861	-0.181399	0.020259
H381	H	1.133280	-0.726833	-0.527691
H382	H	1.633280	-0.226833	-0.027691
C383	C	1.033795	-0.808217	-0.428046
C384	C	1.533795	-0.308217	0.071954
C385	C	0.998156	-0.839570	-0.468373
C386	C	1.498156	-0.339570	0.031627
C387	C	1.038303	-0.866833	-0.508779
C388	C	1.538303	-0.366833	-0.008779
H389	H	1.061258	-0.829544	-0.404078
H390	H	1.561258	-0.329544	0.095922
H391	H	1.057736	-0.784111	-0.452079
H392	H	1.557736	-0.284111	0.047921
H393	H	0.974226	-0.863674	-0.444343
H394	H	1.474226	-0.363674	0.055657
H395	H	0.970694	-0.818256	-0.492355
H396	H	1.470694	-0.318256	0.007645
H397	H	1.062244	-0.842727	-0.532812
H398	H	1.562244	-0.342727	-0.032812
H399	H	1.065765	-0.888156	-0.484806
H400	H	1.565765	-0.388156	0.015194
H401	H	1.014128	-0.888105	-0.536149
H402	H	1.514128	-0.388105	-0.036149
C403	C	0.993735	-0.945642	-0.387763
C404	C	1.493735	-0.445642	0.112237
C405	C	1.028972	-0.981192	-0.423077
C406	C	1.528972	-0.481192	0.076923
C407	C	1.069228	-0.953939	-0.463470
C408	C	1.569228	-0.453939	0.036530
H409	H	1.021224	-0.924322	-0.363789
H410	H	1.521224	-0.424322	0.136211
H411	H	0.969645	-0.924365	-0.415193
H412	H	1.469645	-0.424365	0.084807
H413	H	1.053059	-1.002460	-0.395650
H414	H	1.553059	-0.502460	0.104350
H415	H	1.001499	-1.002512	-0.447063
H416	H	1.501499	-0.502512	0.052937
H417	H	1.045138	-0.932662	-0.490900
H418	H	1.545138	-0.432662	0.009100
H419	H	1.096713	-0.932620	-0.439492
H420	H	1.596713	-0.432620	0.060508
H421	H	1.093137	-0.978055	-0.487440
H422	H	1.593137	-0.478055	0.012560
C423	C	0.993815	-0.181992	-0.672159
C424	C	1.493815	0.318008	-0.172159
C425	C	1.034124	-0.211586	-0.709935
C426	C	1.534124	0.288414	-0.209935
C427	C	1.074460	-0.178230	-0.742936
C428	C	1.574460	0.321770	-0.242936
H429	H	1.017869	-0.162072	-0.643261
H430	H	1.517869	0.337928	-0.143261
H431	H	0.969775	-0.159214	-0.697830
H432	H	1.469775	0.340786	-0.197830
H433	H	1.058162	-0.234354	-0.684266
H434	H	1.558162	0.265646	-0.184266
H435	H	1.010087	-0.231505	-0.738844
H436	H	1.510087	0.268495	-0.238844
H437	H	1.050421	-0.155453	-0.768606
H438	H	1.550421	0.344547	-0.268606
H439	H	1.098510	-0.158312	-0.714033
H440	H	1.598510	0.341688	-0.214033
H441	H	1.101811	-0.198305	-0.768575
H442	H	1.601811	0.301695	-0.268575
H443	H	0.982841	-0.191020	-0.543878
H444	H	1.482841	0.308980	-0.043878
H445	H	0.836779	-0.953198	-0.230483
H446	H	1.336779	-0.453198	0.269517
C447	C	0.825835	-1.059584	-0.219534
C448	C	1.325835	-0.559584	0.280466
C449	C	0.790577	-1.024034	-0.184241
C450	C	1.290577	-0.524034	0.315759
C451	C	0.750263	-1.051287	-0.143906
C452	C	1.250263	-0.551287	0.356094
H453	H	0.849863	-1.080879	-0.192084
H454	H	1.349863	-0.580879	0.307916
H455	H	0.798366	-1.080885	-0.243569
H456	H	1.298366	-0.580885	0.256431
H457	H	0.818043	-1.002741	-0.160208
H458	H	1.318043	-0.502741	0.339792
H459	H	0.766537	-1.002737	-0.211674
H460	H	1.266537	-0.502737	0.288326
H461	H	0.722794	-1.072588	-0.167941
H462	H	1.222794	-0.572588	0.332059
H463	H	0.774296	-1.072581	-0.116460
H464	H	1.274296	-0.572581	0.383540
H465	H	0.726332	-1.027170	-0.119959
H466	H	1.226332	-0.527170	0.380041
H467	H	0.796435	-0.702074	-0.190140
H468	H	1.296435	-0.202074	0.309860
C469	C	0.825648	-0.557248	-0.219427
C470	C	1.325648	-0.057248	0.280573
C471	C	0.790389	-0.521702	-0.184129
C472	C	1.290389	-0.021702	0.315871
C473	C	0.750072	-0.548959	-0.143800
C474	C	1.250072	-0.048959	0.356200
H475	H	0.849674	-0.578547	-0.191979
H476	H	1.349674	-0.078547	0.308021
H477	H	0.798180	-0.578546	-0.243466
H478	H	1.298180	-0.078546	0.256534
H479	H	0.817854	-0.500412	-0.160091
H480	H	1.317854	-0.000412	0.339909
H481	H	0.766350	-0.500401	-0.211560
H482	H	1.266350	-0.000401	0.288440
H483	H	0.722604	-0.570257	-0.167840
H484	H	1.222604	-0.070257	0.332160
H485	H	0.774104	-0.570257	-0.116357
H486	H	1.274104	-0.070257	0.383643
H487	H	0.726140	-0.524845	-0.119850
H488	H	1.226140	-0.024845	0.380150
H489	H	0.836606	-0.450845	-0.230368
H490	H	1.336606	0.049155	0.269632
