data_functionalizedCrystal
_audit_creation_method	'MofGen! by Chris Wilmer'
_symmetry_space_group_name_H-M	'P1'
_symmetry_Int_Tables_number	1
_symmetry_cell_setting	triclinic
loop_
_symmetry_equiv_pos_as_xyz
  x,y,z
_cell_length_a	6.817900
_cell_length_b	11.168121
_cell_length_c	16.015572
_cell_angle_alpha	76.765931
_cell_angle_beta	104.485554
_cell_angle_gamma	108.508496
loop_
_atom_site_label
_atom_site_type_symbol
_atom_site_fract_x
_atom_site_fract_y
_atom_site_fract_z
V1	V	-3.999072	-0.050929	-0.269395
O2	O	-3.960769	0.129811	-0.264259
O3	O	-3.976115	-0.223478	-0.267560
O4	O	-3.927036	0.005739	-0.386884
O5	O	-4.010187	-0.100993	-0.144109
V6	V	-4.482466	-0.035914	-0.254409
O7	O	-4.260614	-0.083867	-0.302268
O8	O	-4.671122	-0.002977	-0.221536
O9	O	-4.282217	0.136635	-0.256244
O10	O	-4.638166	-0.216654	-0.259545
O11	O	-4.588748	0.014149	-0.379695
O12	O	-4.331295	-0.092583	-0.136920
C13	C	-3.828070	-0.267288	-0.263312
C14	C	-3.890428	-0.407989	-0.262594
C15	C	-3.765464	0.025102	-0.415521
C16	C	-3.788019	0.070293	-0.511569
C17	C	-4.091383	-0.474945	-0.266372
C18	C	-4.155839	-0.620367	-0.265631
C19	C	-4.135798	-0.330821	-0.889218
C20	C	-4.156989	-0.288316	-0.979466
C21	C	-4.047576	-0.068411	-0.954750
C22	C	-4.026364	-0.110897	-0.864498
C23	C	-4.070481	-0.242103	-0.831740
C24	C	-3.961048	-0.022180	-0.807020
C25	C	-3.939849	-0.064663	-0.716776
C26	C	-3.983967	-0.195864	-0.684011
C27	C	-4.049283	-0.284587	-0.741497
C28	C	-3.916947	0.109026	-0.839780
C29	C	-3.851630	0.197743	-0.782302
C30	C	-3.830416	0.155261	-0.692056
C31	C	-3.874533	0.024060	-0.659291
C32	C	-3.765100	0.243983	-0.634571
C33	C	-3.743901	0.201500	-0.544327
C34	C	-3.853335	-0.018424	-0.569047
C35	C	-4.093605	0.180437	-0.260490
C36	C	-4.010484	0.321139	-0.261213
C37	C	-4.156211	-0.111952	-0.108278
C38	C	-4.112894	-0.157137	-0.012230
H39	H	-4.327987	-0.677934	-0.268855
C40	C	-4.245066	-0.543929	-0.922683
C41	C	-4.183580	-0.475030	-0.853185
H42	H	-4.274366	-0.632948	-0.900430
H43	H	-4.134631	-0.519728	-0.954641
H44	H	-4.367924	-0.525854	-0.960105
H45	H	-4.060711	-0.493098	-0.815767
H46	H	-4.294024	-0.499241	-0.821213
H47	H	-4.011669	0.038418	-0.981435
C48	C	-4.416109	-0.372166	-1.099433
C49	C	-4.228787	-0.385843	-1.042651
H50	H	-4.460440	-0.432378	-1.138437
H51	H	-4.392854	-0.287957	-1.131856
H52	H	-4.522084	-0.386910	-1.066514
H53	H	-4.122807	-0.371089	-1.075569
H54	H	-4.252032	-0.470072	-1.010225
C55	C	-4.148884	0.105975	-0.979930
C56	C	-3.940245	0.155730	-0.938978
H57	H	-4.163259	0.134803	-1.041170
H58	H	-4.240403	0.134235	-0.957762
H59	H	-4.184470	0.015139	-0.968641
H60	H	-3.904664	0.246567	-0.950261
H61	H	-3.848697	0.127477	-0.961154
C62	C	-3.707725	-0.542158	-0.182356
C63	C	-3.778072	-0.601168	-0.256846
H64	H	-3.564244	-0.494182	-0.179664
H65	H	-3.720627	-0.605641	-0.131662
H66	H	-3.790577	-0.486613	-0.185233
H67	H	-3.695230	-0.656721	-0.253966
H68	H	-3.765153	-0.537677	-0.307553
H69	H	-3.729206	0.350812	-0.661257
H70	H	-3.766103	-0.458324	-0.258816
H71	H	-4.085180	-0.391428	-0.714823
C72	C	-3.835524	0.360520	-0.909663
C73	C	-3.803128	0.341963	-0.818315
H74	H	-3.805560	0.449558	-0.931892
H75	H	-3.978007	0.319577	-0.932334
H76	H	-3.744943	0.325029	-0.926713
H77	H	-3.893720	0.377446	-0.801265
H78	H	-3.660621	0.382923	-0.795636
C79	C	-3.767325	-0.214608	-0.558047
C80	C	-3.901217	-0.162599	-0.532896
H81	H	-3.796719	-0.303597	-0.535691
H82	H	-3.624931	-0.173338	-0.535488
H83	H	-3.789550	-0.202179	-0.620020
H84	H	-3.878980	-0.175020	-0.470922
H85	H	-4.043645	-0.203883	-0.555451
C86	C	-4.162896	-0.276098	-0.271222
C87	C	-4.259239	-0.407008	-0.271478
H88	H	-4.266530	-0.234162	-0.274369
H89	H	-4.095855	-0.240952	-0.320176
H90	H	-4.060985	-0.264399	-0.218938
H91	H	-4.361139	-0.418707	-0.323765
H92	H	-4.326314	-0.442164	-0.222519
C93	C	-3.637835	0.423150	-0.528949
C94	C	-3.672094	0.299016	-0.481140
H95	H	-3.593499	0.483351	-0.489938
H96	H	-3.764906	0.432412	-0.567470
H97	H	-3.531838	0.437879	-0.561854
H98	H	-3.778104	0.284284	-0.448240
H99	H	-3.545007	0.289750	-0.442604
H100	H	-3.966709	-0.230452	-0.610529
