data_functionalizedCrystal
_audit_creation_method	'MofGen! by Chris Wilmer'
_symmetry_space_group_name_H-M	'P1'
_symmetry_Int_Tables_number	1
_symmetry_cell_setting	triclinic
loop_
_symmetry_equiv_pos_as_xyz
  x,y,z
_cell_length_a	11.169417
_cell_length_b	13.032721
_cell_length_c	11.169409
_cell_angle_alpha	97.146154
_cell_angle_beta	89.979436
_cell_angle_gamma	97.204996
loop_
_atom_site_label
_atom_site_type_symbol
_atom_site_fract_x
_atom_site_fract_y
_atom_site_fract_z
Zn1	Zn	1.774219	-0.415926	-0.739163
Zn2	Zn	2.107552	-0.082593	-0.405830
Zn3	Zn	2.440885	0.250740	-0.072497
Zn4	Zn	1.748575	-0.590714	-0.563955
Zn5	Zn	2.081908	-0.257381	-0.230622
Zn6	Zn	2.415242	0.075952	0.102711
Zn7	Zn	1.573493	-0.415990	-0.538507
Zn8	Zn	1.906826	-0.082656	-0.205174
Zn9	Zn	2.240159	0.250677	0.128160
Zn10	Zn	1.547994	-0.590629	-0.764588
Zn11	Zn	1.881327	-0.257296	-0.431254
Zn12	Zn	2.214661	0.076037	-0.097921
O13	O	1.661070	-0.503315	-0.651553
O14	O	1.994403	-0.169982	-0.318220
O15	O	2.327737	0.163352	0.015113
O16	O	1.938765	-0.439121	-0.715932
O17	O	2.272099	-0.105788	-0.382598
O18	O	2.605432	0.227545	-0.049265
O19	O	1.725289	-0.567599	-0.392639
O20	O	2.058623	-0.234265	-0.059305
O21	O	2.391956	0.099068	0.274028
O22	O	1.621523	-0.269745	-0.543834
O23	O	1.954856	0.063589	-0.210501
O24	O	2.288189	0.396922	0.122833
O25	O	1.919925	-0.567537	-0.587207
O26	O	2.253258	-0.234204	-0.253874
O27	O	2.586592	0.099130	0.079460
O28	O	1.768995	-0.269698	-0.691255
O29	O	2.102329	0.063635	-0.357922
O30	O	2.435662	0.396969	-0.024589
O31	O	1.596657	-0.439229	-0.373942
O32	O	1.929990	-0.105896	-0.040609
O33	O	2.263324	0.227437	0.292725
O34	O	1.402162	-0.439147	-0.568487
O35	O	1.735495	-0.105814	-0.235154
O36	O	2.068829	0.227520	0.098180
O37	O	1.578064	-0.567392	-0.929156
O38	O	1.911397	-0.234059	-0.595823
O39	O	2.244731	0.099274	-0.262489
O40	O	1.383428	-0.567454	-0.734588
O41	O	1.716761	-0.234121	-0.401254
O42	O	2.050095	0.099213	-0.067921
O43	O	1.744270	-0.439039	-0.910477
O44	O	2.077603	-0.105706	-0.577143
O45	O	2.410937	0.227628	-0.243810
O46	O	1.700564	-0.736940	-0.611860
O47	O	2.033898	-0.403606	-0.278527
O48	O	2.367231	-0.070273	0.054807
O49	O	1.553198	-0.736877	-0.759264
O50	O	1.886532	-0.403544	-0.425931
O51	O	2.219865	-0.070211	-0.092597
C52	C	1.349248	-0.503299	-0.651536
C53	C	1.682581	-0.169966	-0.318202
C54	C	2.015914	0.163368	0.015131
C55	C	1.215845	-0.503317	-0.651560
C56	C	1.549178	-0.169984	-0.318227
C57	C	1.882512	0.163349	0.015107
C58	C	1.621364	-0.774826	-0.691108
C59	C	1.954697	-0.441493	-0.357775
C60	C	2.288031	-0.108159	-0.024442
C61	C	1.604488	-0.890980	-0.708070
C62	C	1.937821	-0.557646	-0.374737
C63	C	2.271154	-0.224313	-0.041404
C64	C	1.669942	-0.942761	-0.642755
C65	C	2.003275	-0.609427	-0.309421
C66	C	2.336609	-0.276094	0.023912
C67	C	1.652501	-1.062811	-0.660284
C68	C	1.985834	-0.729478	-0.326951
C69	C	2.319167	-0.396145	0.006383
C70	C	1.974110	-0.503332	-0.651572
C71	C	2.307443	-0.169998	-0.318239
C72	C	2.640777	0.163335	0.015095
C73	C	2.107509	-0.503339	-0.651580
C74	C	2.440842	-0.170005	-0.318247
C75	C	2.774176	0.163328	0.015087
C76	C	1.661183	-0.503199	-0.964579
C77	C	1.994517	-0.169866	-0.631246
C78	C	2.327850	0.163468	-0.297912
C79	C	1.661231	-0.503150	-1.097972
C80	C	1.994565	-0.169816	-0.764639
C81	C	2.327898	0.163517	-0.431305
C82	C	1.700964	-0.230744	-0.611870
C83	C	2.034297	0.102590	-0.278537
C84	C	2.367630	0.435923	0.054797
C85	C	1.717964	-0.114590	-0.594959
C86	C	2.051297	0.218743	-0.261626
C87	C	2.384631	0.552077	0.071707
C88	C	1.661037	-0.503355	-0.339734
C89	C	1.994371	-0.170021	-0.006401
C90	C	2.327704	0.163312	0.326932
C91	C	1.661265	-0.503110	-0.206299
C92	C	1.994598	-0.169776	0.127034
C93	C	2.327931	0.163557	0.460367
H94	H	1.738897	-0.898218	-0.573862
H95	H	2.072230	-0.564885	-0.240528
H96	H	2.405564	-0.231551	0.092805
H97	H	1.583551	-1.107353	-0.729190
H98	H	1.916884	-0.774019	-0.395857
H99	H	2.250217	-0.440686	-0.062524
H100	H	1.786924	-1.070050	-0.526062
H101	H	2.120257	-0.736716	-0.192729
H102	H	2.453590	-0.403383	0.140605
H103	H	1.535543	-0.935525	-0.776972
H104	H	1.868876	-0.602191	-0.443639
H105	H	2.202209	-0.268858	-0.110305
