data_functionalizedCrystal
_audit_creation_method	'MofGen! by Chris Wilmer'
_symmetry_space_group_name_H-M	'P1'
_symmetry_Int_Tables_number	1
_symmetry_cell_setting	triclinic
loop_
_symmetry_equiv_pos_as_xyz
  x,y,z
_cell_length_a	12.759401
_cell_length_b	13.897448
_cell_length_c	12.759393
_cell_angle_alpha	89.967728
_cell_angle_beta	89.979062
_cell_angle_gamma	90.019217
loop_
_atom_site_label
_atom_site_type_symbol
_atom_site_fract_x
_atom_site_fract_y
_atom_site_fract_z
Zn1	Zn	1.606245	-0.383929	-0.594007
Zn2	Zn	1.606126	-0.545255	-0.418322
Zn3	Zn	1.430543	-0.383980	-0.418342
Zn4	Zn	1.430526	-0.545188	-0.593959
O5	O	1.518360	-0.464588	-0.506158
O6	O	1.753250	-0.405336	-0.570714
O7	O	1.582793	-0.523912	-0.271303
O8	O	1.453907	-0.248992	-0.441673
O9	O	1.753163	-0.523862	-0.441638
O10	O	1.582994	-0.248954	-0.570734
O11	O	1.453793	-0.405423	-0.271318
O12	O	1.283520	-0.405358	-0.441627
O13	O	1.453878	-0.523747	-0.740987
O14	O	1.283507	-0.523797	-0.570652
O15	O	1.582977	-0.405271	-0.741022
O16	O	1.582776	-0.680228	-0.441592
O17	O	1.453763	-0.680179	-0.570632
C18	C	1.245393	-0.464576	-0.506137
C19	C	1.128616	-0.464595	-0.506153
C20	C	1.073775	-0.526359	-0.573230
C21	C	0.964051	-0.526363	-0.573251
C22	C	0.964019	-0.402834	-0.439108
C23	C	1.073741	-0.402827	-0.439093
C24	C	1.518283	-0.715203	-0.506127
C25	C	1.518347	-0.822416	-0.506149
C26	C	1.518457	-1.018711	-0.506215
C27	C	1.518393	-0.909479	-0.506182
C28	C	1.792393	-0.464601	-0.506179
C29	C	1.909170	-0.464606	-0.506188
C30	C	1.518439	-0.464496	-0.780191
C31	C	1.518472	-0.464456	-0.896968
C32	C	1.518466	-0.212995	-0.506211
C33	C	1.518511	-0.105781	-0.506234
C34	C	1.585699	-0.402756	-0.951850
C35	C	1.585717	-0.402714	-1.061574
C36	C	1.451278	-0.526082	-1.061524
C37	C	1.451255	-0.526118	-0.951802
C38	C	1.518342	-0.464611	-0.233190
C39	C	1.518512	-0.464379	-0.116414
H40	H	1.118451	-0.576652	-0.627837
C41	C	1.377309	-0.593998	-0.891428
H42	H	1.337292	-0.630727	-0.939798
H43	H	1.331540	-0.557114	-0.848623
H44	H	1.417484	-0.636043	-0.848626
C45	C	1.134070	-0.334883	-0.365303
H46	H	1.085675	-0.298107	-0.325356
H47	H	1.176905	-0.292899	-0.405569
H48	H	1.176838	-0.371735	-0.319447
H49	H	1.640429	-0.352544	-0.907207
C50	C	1.659677	-0.334856	-1.121945
H51	H	1.650061	-0.343659	-1.195145
H52	H	1.730254	-0.348993	-1.103969
H53	H	1.644330	-0.270045	-1.103976
C54	C	0.903730	-0.594302	-0.647039
H55	H	0.952130	-0.631088	-0.686968
H56	H	0.860965	-0.557456	-0.692894
H57	H	0.860892	-0.636293	-0.606772
C58	C	0.903653	-0.334906	-0.365337
H59	H	0.830451	-0.343764	-0.374943
H60	H	0.921656	-0.270110	-0.380829
H61	H	0.921599	-0.348954	-0.294715
H62	H	1.396554	-0.576287	-1.106184
