data_functionalizedCrystal
_audit_creation_method	'MofGen! by Chris Wilmer'
_symmetry_space_group_name_H-M	'P1'
_symmetry_Int_Tables_number	1
_symmetry_cell_setting	triclinic
loop_
_symmetry_equiv_pos_as_xyz
  x,y,z
_cell_length_a	6.817900
_cell_length_b	9.582860
_cell_length_c	12.200737
_cell_angle_alpha	91.578780
_cell_angle_beta	107.141108
_cell_angle_gamma	111.206767
loop_
_atom_site_label
_atom_site_type_symbol
_atom_site_fract_x
_atom_site_fract_y
_atom_site_fract_z
V1	V	-4.108275	-0.207405	-0.357451
V2	V	-3.858275	0.042595	-0.107451
V3	V	-3.608275	0.292595	0.142549
V4	V	-3.358275	0.542595	0.392549
O5	O	-4.053162	0.009607	-0.350863
O6	O	-3.803162	0.259607	-0.100863
O7	O	-3.553162	0.509607	0.149137
O8	O	-3.303162	0.759607	0.399137
O9	O	-4.098738	-0.410903	-0.354798
O10	O	-3.848738	-0.160903	-0.104798
O11	O	-3.598738	0.089097	0.145202
O12	O	-3.348738	0.339097	0.395202
O13	O	-4.077402	-0.204372	-0.513442
O14	O	-3.827402	0.045628	-0.263442
O15	O	-3.577402	0.295628	-0.013442
O16	O	-3.327402	0.545628	0.236558
O17	O	-4.074646	-0.198353	-0.191120
O18	O	-3.824646	0.051647	0.058880
O19	O	-3.574646	0.301647	0.308880
O20	O	-3.324646	0.551647	0.558880
V21	V	-4.584596	-0.181429	-0.337581
V22	V	-4.334596	0.068571	-0.087581
V23	V	-4.084596	0.318571	0.162419
V24	V	-3.834596	0.568571	0.412419
O25	O	-4.385331	-0.264385	-0.401035
O26	O	-4.135331	-0.014385	-0.151035
O27	O	-3.885331	0.235615	0.098965
O28	O	-3.635331	0.485615	0.348965
O29	O	-4.757737	-0.124449	-0.293997
O30	O	-4.507737	0.125551	-0.043997
O31	O	-4.257737	0.375551	0.206003
O32	O	-4.007737	0.625551	0.456003
O33	O	-4.370926	0.022069	-0.340234
O34	O	-4.120926	0.272069	-0.090234
O35	O	-3.870926	0.522069	0.159766
O36	O	-3.620926	0.772069	0.409766
O37	O	-4.757105	-0.398441	-0.344170
O38	O	-4.507105	-0.148441	-0.094170
O39	O	-4.257105	0.101559	0.155830
O40	O	-4.007105	0.351559	0.405830
O41	O	-4.735622	-0.190480	-0.503912
O42	O	-4.485622	0.059520	-0.253912
O43	O	-4.235622	0.309520	-0.003912
O44	O	-3.985622	0.559520	0.246088
O45	O	-4.392262	-0.184462	-0.181590
O46	O	-4.142262	0.065538	0.068410
O47	O	-3.892262	0.315538	0.318410
O48	O	-3.642262	0.565538	0.568410
C49	C	-3.952626	-0.460507	-0.349105
C50	C	-3.702626	-0.210507	-0.099105
C51	C	-3.452626	0.039493	0.150895
C52	C	-3.202626	0.289493	0.400895
C53	C	-4.026232	-0.626870	-0.347976
C54	C	-3.776232	-0.376870	-0.097976
C55	C	-3.526232	-0.126870	0.152024
C56	C	-3.276232	0.123130	0.402024
C57	C	-3.925408	-0.197054	-0.551470
C58	C	-3.675408	0.052946	-0.301470
C59	C	-3.425408	0.302946	-0.051470
C60	C	-3.175408	0.552946	0.198530
C61	C	-3.981707	-0.195921	-0.678993
C62	C	-3.731707	0.054079	-0.428993
C63	C	-3.481707	0.304079	-0.178993
C64	C	-3.231707	0.554079	0.071007
C65	C	-4.027426	-0.194999	-0.782555
C66	C	-3.777426	0.055001	-0.532555
C67	C	-3.527426	0.305001	-0.282555
C68	C	-3.277426	0.555001	-0.032555
C69	C	-4.084795	-0.193837	-0.912478
C70	C	-3.834795	0.056163	-0.662478
C71	C	-3.584795	0.306163	-0.412478
C72	C	-3.334795	0.556163	-0.162478
C73	C	-4.180381	0.071665	-0.345924
C74	C	-3.930381	0.321665	-0.095924
C75	C	-3.680381	0.571665	0.154076
C76	C	-3.430381	0.821665	0.404076
C77	C	-4.086015	0.238027	-0.347060
C78	C	-3.836015	0.488027	-0.097060
C79	C	-3.586015	0.738027	0.152940
C80	C	-3.336015	0.988027	0.402940
C81	C	-4.207598	-0.191785	-0.143556
C82	C	-3.957598	0.058215	0.106444
C83	C	-3.707598	0.308215	0.356444
C84	C	-3.457598	0.558215	0.606444
C85	C	-4.130536	-0.192910	-0.016032
C86	C	-3.880536	0.057090	0.233968
C87	C	-3.630536	0.307090	0.483968
C88	C	-3.380536	0.557090	0.733968
