data_functionalizedCrystal
_audit_creation_method	'MofGen! by Chris Wilmer'
_symmetry_space_group_name_H-M	'P1'
_symmetry_Int_Tables_number	1
_symmetry_cell_setting	triclinic
loop_
_symmetry_equiv_pos_as_xyz
  x,y,z
_cell_length_a	16.992694
_cell_length_b	12.837942
_cell_length_c	16.053802
_cell_angle_alpha	92.838962
_cell_angle_beta	87.249047
_cell_angle_gamma	92.748582
loop_
_atom_site_label
_atom_site_type_symbol
_atom_site_fract_x
_atom_site_fract_y
_atom_site_fract_z
O1	O	1.059913	0.217066	-0.069322
O2	O	0.831447	0.214638	-0.069347
O3	O	0.940614	0.064530	-0.069330
O4	O	0.950746	0.367174	-0.069339
O5	O	0.934602	0.072756	0.069528
O6	O	0.825435	0.222864	0.069511
O7	O	1.053901	0.225292	0.069536
Zn8	Zn	0.938714	0.225384	0.091570
Zn9	Zn	0.946634	0.214546	-0.091381
O10	O	0.944734	0.375400	0.069519
C11	C	0.798996	0.215629	0.000079
C12	C	0.711256	0.206315	0.000070
C13	C	0.667730	0.296178	0.000068
C14	C	0.585288	0.287422	0.000079
C15	C	0.546375	0.188801	0.000087
C16	C	0.589907	0.098931	0.000092
C17	C	0.672346	0.107689	0.000086
C18	C	0.300064	0.152502	0.000111
C19	C	0.217618	0.143751	0.000114
C20	C	0.213006	0.332243	0.000103
C21	C	0.295447	0.340992	0.000092
C22	C	0.338972	0.251122	0.000101
N23	N	0.462107	0.179847	0.000097
N24	N	0.423238	0.260077	0.000098
C25	C	0.934185	0.029738	0.000098
C26	C	0.923977	-0.086184	0.000096
C27	C	1.046699	-0.316977	0.000092
C28	C	1.037111	-0.425897	0.000089
C29	C	0.895215	-0.412948	0.000082
C30	C	0.904802	-0.304027	0.000085
C31	C	0.980547	-0.256046	0.000091
C32	C	0.990134	-0.147123	0.000099
C33	C	0.848238	-0.134176	0.000086
C34	C	0.838650	-0.243097	0.000084
C35	C	1.086353	0.224300	0.000108
C36	C	1.174092	0.233614	0.000112
C37	C	0.951163	0.410191	0.000089
C38	C	0.961371	0.526114	0.000086
N39	N	0.933314	0.232780	0.216430
N40	N	0.952040	0.207141	-0.216241
C41	C	0.979785	0.168935	0.260131
C42	C	0.976016	0.174120	0.347537
C43	C	0.925779	0.243156	0.391240
C44	C	0.879303	0.307004	0.347533
C45	C	0.883068	0.301813	0.260129
C46	C	0.909329	0.265799	0.652647
C47	C	0.905569	0.270987	0.740058
C48	C	1.002281	0.138101	0.740056
C49	C	1.006046	0.132921	0.652650
C50	C	0.959566	0.196765	0.608950
N51	N	0.921927	0.248459	0.480584
N52	N	0.963414	0.191455	0.519608
H53	H	0.699407	0.376486	0.000061
H54	H	1.051809	-0.108058	0.000107
H55	H	1.046952	0.076706	0.617068
O56	O	1.120215	-0.270191	0.000138
C57	C	1.197871	-0.108132	0.000100
C58	C	1.114568	-0.160978	0.000066
H59	H	1.193335	-0.019827	0.000024
H60	H	1.228472	-0.129223	0.058230
H61	H	1.233484	-0.136239	-0.057994
H62	H	1.078891	-0.132900	0.058121
H63	H	1.084029	-0.139890	-0.058102
H64	H	0.549853	0.360598	0.000077
O65	O	0.821635	-0.459532	-0.000079
C66	C	0.700526	-0.486013	-0.072015
C67	C	0.783843	-0.433212	-0.071942
H68	H	0.669942	-0.464735	-0.130100
H69	H	0.705002	-0.574338	-0.072076
H70	H	0.664934	-0.457996	-0.013879
H71	H	0.819482	-0.461145	-0.130067
H72	H	0.779309	-0.344894	-0.071837
O73	O	1.101453	-0.484928	0.000129
C74	C	1.243210	-0.486276	0.000083
C75	C	1.170406	-0.419298	0.000060
H76	H	1.298977	-0.433243	0.000009
H77	H	1.239812	-0.534131	0.058207
H78	H	1.244734	-0.541056	-0.058016
H79	H	1.168835	-0.364460	0.058119
H80	H	1.173832	-0.371514	-0.058103
O81	O	0.342219	0.065098	0.000079
C82	C	0.338084	-0.122780	0.000142
C83	C	0.290245	-0.023877	0.000157
H84	H	0.296083	-0.194741	0.000223
H85	H	0.379286	-0.126917	-0.057983
H86	H	0.374306	-0.119891	0.058241
H87	H	0.253977	-0.026699	-0.057902
H88	H	0.249091	-0.019777	0.058321
O89	O	0.765067	-0.289673	-0.000069
C90	C	0.643947	-0.316136	-0.071985
C91	C	0.727269	-0.263351	-0.071927
H92	H	0.613357	-0.294858	-0.130066
H93	H	0.648413	-0.404463	-0.072042
H94	H	0.608365	-0.288107	-0.013845
H95	H	0.762898	-0.291296	-0.130056
H96	H	0.722745	-0.175032	-0.071826
H97	H	0.707785	0.034512	0.000087
H98	H	0.327125	0.421299	0.000076
O99	O	1.047379	0.075926	0.782417
C100	C	1.078863	-0.100001	0.809213
C101	C	1.027756	-0.029701	0.761173
H102	H	1.063005	-0.185415	0.792069
H103	H	1.143826	-0.082242	0.792006
H104	H	1.067556	-0.084382	0.879186
H105	H	1.038995	-0.045280	0.691189
H106	H	0.962810	-0.047474	0.778450
O107	O	0.783943	-0.075021	0.000233
C108	C	0.662467	-0.026420	0.072147
C109	C	0.735247	-0.093452	0.072089
H110	H	0.623068	-0.041313	0.130228
H111	H	0.682282	0.059690	0.072206
H112	H	0.628141	-0.048067	0.014007
H113	H	0.769604	-0.071895	0.130220
H114	H	0.715380	-0.179545	0.071987
H115	H	0.177559	0.405409	0.000097
O116	O	0.856645	0.337927	0.782480
C117	C	0.722867	0.389172	0.809218
C118	C	0.778177	0.313287	0.761136
H119	H	0.659416	0.369292	0.791966
H120	H	0.728097	0.381904	0.879203
H121	H	0.740154	0.472557	0.792037
H122	H	0.760926	0.229870	0.778247
H123	H	0.772938	0.320646	0.691162
O124	O	1.028603	0.101782	0.217810
C125	C	1.124161	-0.029434	0.227043
C126	C	1.068897	0.046556	0.275072
H127	H	1.156765	-0.074089	0.273318
H128	H	1.088003	-0.086889	0.186157
H129	H	1.168670	0.016480	0.186089
H130	H	1.024377	0.000729	0.316071
H131	H	1.105106	0.104011	0.315905
O132	O	1.021046	0.111992	0.390021
C133	C	1.022973	-0.023165	0.488745
C134	C	0.971879	0.047118	0.440673
H135	H	0.983243	-0.075618	0.529722
H136	H	1.059509	-0.073463	0.442528
H137	H	1.064004	0.027617	0.529618
H138	H	0.930802	-0.003583	0.399799
H139	H	0.935396	0.097423	0.486936
O140	O	0.552078	0.003145	-0.000048
C141	C	0.464748	-0.120371	-0.071953
C142	C	0.507556	-0.011876	-0.071905
H143	H	0.428728	-0.132541	-0.130034
H144	H	0.509988	-0.183144	-0.072005
H145	H	0.423792	-0.125719	-0.013813
H146	H	0.548510	-0.006426	-0.130035
H147	H	0.462273	0.050846	-0.071810
O148	O	0.864273	0.327978	0.610247
C149	C	0.832707	0.503904	0.583548
C150	C	0.883798	0.433601	0.631605
H151	H	0.848463	0.589314	0.600811
H152	H	0.844023	0.488437	0.513559
H153	H	0.767762	0.485997	0.600741
H154	H	0.948759	0.451467	0.614482
H155	H	0.872414	0.449081	0.701582
O156	O	0.830386	0.373947	0.389949
C157	C	0.696611	0.425215	0.416670
C158	C	0.751918	0.349316	0.368599
H159	H	0.633161	0.405343	0.399413
H160	H	0.701835	0.417954	0.486657
H161	H	0.713908	0.508596	0.399483
H162	H	0.734658	0.265904	0.385715
H163	H	0.746686	0.356668	0.298623
O164	O	0.838016	0.363988	0.217712
C165	C	0.806444	0.539904	0.190987
C166	C	0.857534	0.469616	0.239060
H167	H	0.822193	0.625318	0.208243
H168	H	0.817768	0.524424	0.121000
H169	H	0.741498	0.521992	0.208174
H170	H	0.922496	0.487486	0.221943
H171	H	0.846142	0.485107	0.309035
H172	H	0.185938	0.063438	0.000120
