data_functionalizedCrystal
_audit_creation_method	'MofGen! by Chris Wilmer'
_symmetry_space_group_name_H-M	'P1'
_symmetry_Int_Tables_number	1
_symmetry_cell_setting	triclinic
loop_
_symmetry_equiv_pos_as_xyz
  x,y,z
_cell_length_a	29.839135
_cell_length_b	29.839132
_cell_length_c	29.839125
_cell_angle_alpha	90.019925
_cell_angle_beta	89.984512
_cell_angle_gamma	89.952207
loop_
_atom_site_label
_atom_site_type_symbol
_atom_site_fract_x
_atom_site_fract_y
_atom_site_fract_z
Zn1	Zn	0.686708	0.178886	-0.254040
Zn2	Zn	0.686635	0.253998	-0.178907
Zn3	Zn	0.611590	0.178886	-0.178918
Zn4	Zn	0.611533	0.253993	-0.254004
O5	O	0.649116	0.216441	-0.216468
O6	O	0.749565	0.188852	-0.244084
O7	O	0.676673	0.244036	-0.116042
O8	O	0.621609	0.116019	-0.188903
O9	O	0.749512	0.244036	-0.188884
O10	O	0.676798	0.116019	-0.244095
O11	O	0.621539	0.188852	-0.116050
O12	O	0.548716	0.188847	-0.188868
O13	O	0.621512	0.244028	-0.316876
O14	O	0.548674	0.244028	-0.244033
O15	O	0.676742	0.188847	-0.316903
O16	O	0.676618	0.316865	-0.188849
O17	O	0.621441	0.316861	-0.244023
C18	C	0.532394	0.216437	-0.216448
C19	C	0.482459	0.216447	-0.216451
C20	C	0.649028	0.333163	-0.216441
C21	C	0.649031	0.383098	-0.216444
C22	C	0.172841	0.187750	-0.245252
C23	C	-0.014832	0.187753	-0.245265
O24	O	-0.039076	0.163344	-0.269732
N25	N	-0.038326	0.216441	-0.216484
C26	C	-0.014898	0.245129	-0.187696
O27	O	-0.039187	0.269527	-0.163212
C28	C	0.172774	0.245123	-0.187681
C29	C	0.196265	0.216436	-0.216467
C30	C	0.196332	0.159065	-0.274036
C31	C	0.243248	0.159066	-0.274034
C32	C	0.266672	0.187752	-0.245249
C33	C	0.243181	0.216437	-0.216465
C34	C	0.196201	0.273808	-0.158890
C35	C	0.243122	0.273803	-0.158888
C36	C	0.266613	0.245116	-0.187675
C37	C	0.313521	0.245125	-0.187678
N38	N	0.337014	0.216437	-0.216459
C39	C	0.313590	0.187750	-0.245245
C40	C	-0.113429	0.245130	-0.187706
C41	C	-0.160346	0.245133	-0.187710
C42	C	-0.160277	0.187756	-0.245279
C43	C	-0.113359	0.187756	-0.245277
C44	C	-0.089935	0.216442	-0.216487
C45	C	0.412116	0.187755	-0.245239
C46	C	0.459035	0.187760	-0.245236
C47	C	0.458962	0.245135	-0.187665
C48	C	0.412046	0.245132	-0.187670
C49	C	0.388624	0.216438	-0.216458
O50	O	0.337793	0.269518	-0.163221
O51	O	0.337887	0.163349	-0.269717
C52	C	0.125926	0.187749	-0.245254
C53	C	0.102434	0.216434	-0.216471
C54	C	0.125859	0.245120	-0.187685
C55	C	0.055517	0.216436	-0.216475
C56	C	0.032092	0.187749	-0.245260
C57	C	0.055586	0.159061	-0.274041
C58	C	0.102501	0.159062	-0.274040
C59	C	0.102365	0.273808	-0.158904
C60	C	0.055450	0.273805	-0.158909
C61	C	0.032025	0.245119	-0.187694
C62	C	0.677867	0.692730	-0.187762
C63	C	0.677910	0.880404	-0.187773
O64	O	0.702380	0.904659	-0.163378
N65	N	0.649164	0.903883	-0.216475
C66	C	0.620406	0.880441	-0.245179
O67	O	0.595960	0.904718	-0.269595
C68	C	0.620366	0.692769	-0.245171
C69	C	0.649111	0.669292	-0.216463
C70	C	0.706611	0.669254	-0.159058
C71	C	0.706598	0.622338	-0.159054
C72	C	0.677842	0.598900	-0.187754
C73	C	0.649098	0.622377	-0.216459
C74	C	0.591611	0.669328	-0.273876
C75	C	0.591604	0.622407	-0.273873
C76	C	0.620350	0.598930	-0.245165
C77	C	0.620330	0.552023	-0.245156
N78	N	0.649076	0.528543	-0.216454
C79	C	0.677832	0.551982	-0.187753
C80	C	0.620429	0.978972	-0.245180
C81	C	0.620438	1.025890	-0.245182
C82	C	0.677943	1.025849	-0.187776
C83	C	0.677931	0.978930	-0.187773
C84	C	0.649175	0.955492	-0.216478
C85	C	0.677803	0.453456	-0.187746
C86	C	0.677787	0.406536	-0.187744
C87	C	0.620284	0.406581	-0.245151
C88	C	0.620298	0.453497	-0.245152
C89	C	0.649062	0.476933	-0.216448
O90	O	0.595876	0.527738	-0.269541
O91	O	0.702282	0.527697	-0.163347
C92	C	0.677880	0.739646	-0.187766
C93	C	0.649137	0.763123	-0.216471
C94	C	0.620381	0.739684	-0.245172
C95	C	0.649146	0.810041	-0.216473
C96	C	0.677902	0.833479	-0.187772
C97	C	0.706649	0.810000	-0.159070
C98	C	0.706636	0.763084	-0.159066
C99	C	0.591634	0.763164	-0.273874
C100	C	0.591649	0.810079	-0.273875
C101	C	0.620405	0.833518	-0.245175
C102	C	0.766295	0.216445	-0.216487
C103	C	0.816229	0.216446	-0.216495
C104	C	0.649129	0.216437	-0.333646
C105	C	0.649134	0.216435	-0.383580
C106	C	0.649201	1.099262	-0.216495
C107	C	0.649194	1.049328	-0.216481
C108	C	0.677923	0.187627	-0.693241
C109	C	0.677945	0.187589	-0.880914
O110	O	0.702389	0.163138	-0.905193
N111	N	0.649193	0.216315	-0.904366
C112	C	0.620432	0.245050	-0.880896
O113	O	0.595975	0.269479	-0.905150
C114	C	0.620408	0.245086	-0.693224
C115	C	0.649165	0.216361	-0.669775
C116	C	0.706676	0.158905	-0.669791
C117	C	0.706672	0.158916	-0.622876
C118	C	0.677914	0.187650	-0.599410
C119	C	0.649160	0.216373	-0.622859
C120	C	0.591645	0.273819	-0.669756
C121	C	0.591641	0.273824	-0.622835
C122	C	0.620397	0.245100	-0.599385
C123	C	0.620398	0.245119	-0.552478
N124	N	0.649150	0.216393	-0.529026
C125	C	0.677908	0.187659	-0.552492
C126	C	0.620448	0.245030	-0.979427
C127	C	0.620454	0.245022	-1.026345
C128	C	0.677966	0.187560	-1.026359
C129	C	0.677962	0.187571	-0.979440
C130	C	0.649199	0.216304	-0.955975
C131	C	0.677897	0.187685	-0.453966
C132	C	0.677892	0.187701	-0.407046
C133	C	0.620378	0.245161	-0.407036
C134	C	0.620385	0.245147	-0.453952
C135	C	0.649146	0.216406	-0.477416
O136	O	0.595964	0.269553	-0.528170
O137	O	0.702355	0.163226	-0.528230
C138	C	0.677927	0.187616	-0.740156
C139	C	0.649173	0.216338	-0.763606
C140	C	0.620415	0.245072	-0.740140
C141	C	0.649179	0.216330	-0.810524
C142	C	0.677937	0.187596	-0.833990
C143	C	0.706689	0.158870	-0.810538
C144	C	0.706685	0.158881	-0.763622
C145	C	0.591664	0.273798	-0.763592
C146	C	0.591670	0.273785	-0.810507
C147	C	0.620428	0.245050	-0.833973
C148	C	0.649130	0.216412	-0.099745
C149	C	0.649212	0.216288	-0.049811
H150	H	0.478160	0.164399	-0.268679
H151	H	0.730106	0.135475	-0.829652
O152	O	0.268387	0.304742	-0.127835
H153	H	0.259357	0.340014	-0.135474
O154	O	-0.088023	0.156813	-0.276323
H155	H	-0.066636	0.133926	-0.256256
O156	O	0.589369	0.276130	-0.479244
H157	H	0.566533	0.256012	-0.500616
H158	H	0.036505	0.135705	-0.297481
H159	H	0.036327	0.297170	-0.135468
H160	H	0.597011	0.959892	-0.268556
H161	H	-0.179357	0.164399	-0.268718
H162	H	0.701377	0.164180	-0.960351
O163	O	0.737671	0.835290	-0.128123
H164	H	0.717589	0.856705	-0.105252
O165	O	0.127628	0.304749	-0.127855
H166	H	0.103405	0.324697	-0.107846
H167	H	0.597043	0.268417	-1.045434
H168	H	-0.179469	0.268497	-0.164274
O169	O	0.560640	0.835395	-0.304842
H170	H	0.537797	0.856802	-0.284718
O171	O	0.589288	0.478824	-0.276105
H172	H	0.609383	0.500171	-0.298982
H173	H	-0.094361	0.268491	-0.164260
O174	O	0.170870	0.304743	-0.127836
H175	H	0.195048	0.324681	-0.107816
H176	H	0.701310	0.164310	-0.387956
H177	H	0.597026	0.268431	-0.960326
O178	O	0.560623	0.304795	-0.695041
H179	H	0.540622	0.324768	-0.670834
O180	O	0.386705	0.276073	-0.156624
H181	H	0.410878	0.296019	-0.136607
O182	O	0.484230	0.276071	-0.156615
H183	H	0.520801	0.271244	-0.161447
H184	H	0.596966	0.268557	-0.387922
O185	O	0.560607	0.737886	-0.304822
H186	H	0.540618	0.762099	-0.324773
H187	H	0.121624	0.135702	-0.297480
H188	H	0.701195	0.387423	-0.164365
H189	H	0.701382	0.164164	-1.045473
O190	O	0.560612	0.304810	-0.597525
H191	H	0.540619	0.324780	-0.621716
O192	O	0.708920	0.156691	-0.479271
H193	H	0.728915	0.136726	-0.455076
H194	H	0.701226	0.472532	-0.164374
O195	O	0.737608	0.597019	-0.128097
H196	H	0.757608	0.621205	-0.108148
H197	H	0.262370	0.135705	-0.297474
H198	H	0.730101	0.135491	-0.744534
H199	H	0.701357	1.044940	-0.164407
O200	O	0.560650	0.304765	-0.835798
H201	H	0.540650	0.324742	-0.811593
O202	O	0.737688	0.127932	-0.597589
H203	H	0.717600	0.105079	-0.576212
O204	O	0.737626	0.694530	-0.128096
H205	H	0.757605	0.670316	-0.108137
H206	H	0.730095	0.135503	-0.688892
O207	O	0.560630	0.304777	-0.738284
H208	H	0.540637	0.324743	-0.762478
H209	H	0.701338	0.959818	-0.164397
H210	H	0.177265	0.135702	-0.297477
O211	O	0.386856	0.156811	-0.276291
H212	H	0.411079	0.136870	-0.296306
O213	O	0.589430	1.051211	-0.276139
H214	H	0.597111	1.042186	-0.311405
O215	O	0.560610	0.694643	-0.304843
H216	H	0.540620	0.670455	-0.324801
O217	O	0.560582	0.597130	-0.304830
H218	H	0.568261	0.606116	-0.340097
O219	O	0.589271	0.381297	-0.276108
H220	H	0.594098	0.344729	-0.271284
O221	O	0.737645	0.737765	-0.128107
H222	H	0.757643	0.761952	-0.108157
