data_functionalizedCrystal
_audit_creation_method	'MofGen! by Chris Wilmer'
_symmetry_space_group_name_H-M	'P1'
_symmetry_Int_Tables_number	1
_symmetry_cell_setting	triclinic
loop_
_symmetry_equiv_pos_as_xyz
  x,y,z
_cell_length_a	19.288864
_cell_length_b	13.339070
_cell_length_c	17.766277
_cell_angle_alpha	89.997794
_cell_angle_beta	89.976791
_cell_angle_gamma	99.382770
loop_
_atom_site_label
_atom_site_type_symbol
_atom_site_fract_x
_atom_site_fract_y
_atom_site_fract_z
O1	O	0.945924	0.126087	-0.062840
O2	O	0.746977	0.143096	-0.062789
O3	O	0.823618	-0.012568	-0.062806
O4	O	0.869283	0.281751	-0.062822
O5	O	0.823598	-0.012576	0.062383
O6	O	0.746957	0.143088	0.062400
O7	O	0.945903	0.126079	0.062349
Cu8	Cu	0.846428	0.134583	0.073805
Cu9	Cu	0.846452	0.134592	-0.074245
O10	O	0.869263	0.281743	0.062366
C11	C	0.720984	0.142544	-0.000188
C12	C	0.643560	0.140901	-0.000168
C13	C	0.616663	0.232238	-0.000185
C14	C	0.543915	0.230694	-0.000193
C15	C	0.498067	0.137809	-0.000200
C16	C	0.524972	0.046461	-0.000178
C17	C	0.597719	0.048007	-0.000163
C18	C	0.375583	0.064794	-0.044080
C19	C	0.302838	0.063252	-0.044100
C20	C	0.273691	0.133037	-0.000245
C21	C	0.317301	0.204382	0.043621
C22	C	0.390047	0.205928	0.043637
C23	C	0.419184	0.136123	-0.000216
C24	C	0.167913	0.222706	-0.000270
C25	C	0.095163	0.221159	-0.000273
C26	C	0.076222	0.036923	-0.000266
C27	C	0.148970	0.038473	-0.000255
C28	C	0.194812	0.131367	-0.000260
C29	C	0.815894	-0.050226	-0.000211
C30	C	0.792901	-0.162423	-0.000208
C31	C	0.971681	-0.528031	-0.000253
C32	C	0.993286	-0.422617	-0.000252
C33	C	0.943192	-0.357563	-0.000241
C34	C	0.871489	-0.397934	-0.000231
C35	C	0.849881	-0.503359	-0.000227
C36	C	0.821392	-0.332891	-0.000215
C37	C	0.749689	-0.373262	-0.000205
C38	C	0.728085	-0.478677	-0.000201
C39	C	0.778180	-0.543730	-0.000212
C40	C	0.842999	-0.227467	-0.000219
C41	C	0.721199	-0.202795	-0.000193
C42	C	0.699594	-0.308209	-0.000195
C43	C	0.971897	0.126630	-0.000254
C44	C	1.049320	0.128273	-0.000278
C45	C	0.876987	0.319401	-0.000231
C46	C	0.899980	0.431598	-0.000238
N47	N	0.846416	0.134575	0.177935
N48	N	0.846468	0.134591	-0.178375
C49	C	0.880375	0.065681	0.217315
C50	C	0.880378	0.065676	0.296116
C51	C	0.846433	0.134583	0.335536
C52	C	0.812467	0.203483	0.296147
C53	C	0.812459	0.203479	0.217347
C54	C	0.855080	0.226676	0.460370
C55	C	0.855093	0.226682	0.539169
C56	C	0.846454	0.134595	0.578582
C57	C	0.837815	0.042500	0.539187
C58	C	0.837807	0.042496	0.460387
C59	C	0.846437	0.134595	0.420982
C60	C	0.880417	0.065690	0.703408
C61	C	0.880415	0.065684	0.782211
C62	C	0.812509	0.203500	0.782240
C63	C	0.812506	0.203497	0.703438
C64	C	0.846463	0.134593	0.664027
H65	H	0.073266	0.295539	-0.000282
C66	C	0.754417	-0.659694	-0.000205
N67	N	0.736521	-0.747040	-0.000196
C68	C	0.649210	-0.523081	-0.000183
N69	N	0.589800	-0.556525	-0.000170
H70	H	0.038893	-0.038706	-0.000318
H71	H	0.619617	-0.026373	-0.000149
C72	C	0.775169	0.279300	0.825597
N73	N	0.747043	0.336393	0.858257
H74	H	0.901380	-0.194607	-0.000227
C75	C	0.218341	0.324891	-0.000266
N76	N	0.256322	0.401858	-0.000262
C77	C	0.620722	-0.352631	-0.000173
N78	N	0.561315	-0.386092	-0.000154
H79	H	0.908064	0.009577	0.814274
C80	C	0.917721	-0.010125	0.173967
N81	N	0.945848	-0.067226	0.141315
C82	C	0.966961	-0.241605	-0.000245
N83	N	0.984867	-0.154261	-0.000252
C84	C	0.917745	-0.010106	0.339442
N85	N	0.945893	-0.067181	0.372073
C86	C	0.775123	0.279277	0.339510
N87	N	0.746992	0.336363	0.372171
H88	H	1.051667	-0.389754	-0.000259
H89	H	0.830779	-0.032485	0.571275
C90	C	0.828295	-0.058807	0.417055
N91	N	0.821126	-0.135110	0.384417
C92	C	0.917762	-0.010113	0.660052
N93	N	0.945890	-0.067211	0.627399
C94	C	0.775213	0.279360	0.660119
N95	N	0.747142	0.336526	0.627492
H96	H	0.170869	-0.035904	-0.000245
H97	H	0.862104	0.301669	0.428287
H98	H	0.862132	0.301671	0.571239
H99	H	0.784805	0.259582	0.185284
C100	C	0.514321	0.331176	-0.000220
N101	N	0.492033	0.406858	-0.000245
H102	H	0.653984	0.307880	-0.000191
C103	C	0.407636	-0.011976	-0.092331
N104	N	0.431778	-0.069797	-0.128674
H105	H	0.680408	-0.149828	-0.000180
C106	C	0.438013	0.284396	0.091897
N107	N	0.474141	0.343495	0.128251
H108	H	0.293572	0.261207	0.079333
H109	H	0.267337	0.005163	-0.079822
H110	H	0.487638	-0.029167	-0.000194
H111	H	1.012460	-0.581006	-0.000256
