data_functionalizedCrystal
_audit_creation_method	'MofGen! by Chris Wilmer'
_symmetry_space_group_name_H-M	'P1'
_symmetry_Int_Tables_number	1
_symmetry_cell_setting	triclinic
loop_
_symmetry_equiv_pos_as_xyz
  x,y,z
_cell_length_a	9.065218
_cell_length_b	16.992695
_cell_length_c	7.540329
_cell_angle_alpha	89.996072
_cell_angle_beta	89.996962
_cell_angle_gamma	87.842054
loop_
_atom_site_label
_atom_site_type_symbol
_atom_site_fract_x
_atom_site_fract_y
_atom_site_fract_z
O1	O	1.971074	0.115065	-0.147490
O2	O	1.542664	0.124504	-0.147492
O3	O	1.755152	0.005630	-0.147477
O4	O	1.758586	0.233939	-0.147505
O5	O	1.755138	0.005628	0.147488
O6	O	1.542651	0.124502	0.147473
O7	O	1.971060	0.115064	0.147476
Cu8	Cu	1.756854	0.119783	0.174407
Cu9	Cu	1.756870	0.119785	-0.174424
O10	O	1.758573	0.233938	0.147460
C11	C	1.487587	0.123596	-0.000010
C12	C	1.323492	0.120884	-0.000011
C13	C	1.750726	-0.023615	0.000005
C14	C	1.737542	-0.110753	0.000005
C15	C	1.864748	-0.160090	0.000008
C16	C	1.852352	-0.241964	-0.000009
C17	C	1.712748	-0.274500	-0.000016
C18	C	1.585533	-0.225157	-0.000024
C19	C	1.597931	-0.143284	-0.000020
C20	C	1.661364	-0.518463	-0.000041
C21	C	1.648976	-0.600343	-0.000040
C22	C	1.915797	-0.617144	-0.000028
C23	C	1.928182	-0.535269	-0.000013
C24	C	1.800967	-0.485933	-0.000031
N25	N	1.700074	-0.358189	-0.000028
N26	N	1.813642	-0.402245	-0.000032
C27	C	2.026138	0.115972	-0.000011
C28	C	2.190232	0.118684	-0.000022
C29	C	1.762998	0.263183	-0.000026
C30	C	1.776182	0.350320	-0.000037
N31	N	1.756853	0.119781	0.419755
N32	N	1.756882	0.119780	-0.419772
H33	H	1.978428	-0.133606	0.000024
O34	O	1.976070	-0.289777	0.000084
C35	C	2.242026	-0.297802	0.000017
C36	C	2.102031	-0.243564	-0.000048
H37	H	2.343901	-0.260461	-0.000127
H38	H	2.242981	-0.336543	0.123486
H39	H	2.242828	-0.336565	-0.123399
H40	H	2.101137	-0.204753	0.123285
H41	H	2.101131	-0.204876	-0.123598
O42	O	2.063908	-0.503796	-0.000079
C43	C	2.327248	-0.529104	0.000067
C44	C	2.173631	-0.564851	0.000082
H45	H	2.416000	-0.578450	0.000235
H46	H	2.339838	-0.491213	-0.123395
H47	H	2.339623	-0.491174	0.123490
H48	H	2.161150	-0.602817	-0.123257
H49	H	2.161110	-0.602697	0.123625
H50	H	1.535289	-0.626830	-0.000017
O51	O	1.474213	-0.095468	0.000056
C52	C	1.208257	-0.087438	-0.000076
C53	C	1.348249	-0.141679	-0.000106
H54	H	1.106380	-0.124778	-0.000245
H55	H	1.207273	-0.048704	0.123392
H56	H	1.207488	-0.048669	-0.123492
H57	H	1.349109	-0.180497	0.123227
H58	H	1.349178	-0.180360	-0.123656
H59	H	1.557776	-0.478303	-0.000055
O60	O	2.039322	-0.665103	-0.000343
C61	C	2.180139	-0.767317	-0.153115
C62	C	2.040198	-0.713038	-0.152991
H63	H	2.180878	-0.806099	-0.276499
H64	H	2.282098	-0.730038	-0.153228
H65	H	2.180990	-0.806039	-0.029620
H66	H	2.039203	-0.674307	-0.276465
H67	H	1.938301	-0.750364	-0.152786
H68	H	1.471864	-0.251654	-0.000041
