data_functionalizedCrystal
_audit_creation_method	'MofGen! by Chris Wilmer'
_symmetry_space_group_name_H-M	'P1'
_symmetry_Int_Tables_number	1
_symmetry_cell_setting	triclinic
loop_
_symmetry_equiv_pos_as_xyz
  x,y,z
_cell_length_a	6.394989
_cell_length_b	10.967874
_cell_length_c	10.065875
_cell_angle_alpha	69.229500
_cell_angle_beta	99.048558
_cell_angle_gamma	85.583740
loop_
_atom_site_label
_atom_site_type_symbol
_atom_site_fract_x
_atom_site_fract_y
_atom_site_fract_z
O1	O	0.152660	1.742288	-0.523245
O2	O	0.204476	1.365549	-0.434643
O3	O	-0.125760	1.559266	-0.480203
O4	O	0.482896	1.548571	-0.477685
O5	O	-0.062544	1.522331	-0.244527
O6	O	0.267693	1.328614	-0.198968
O7	O	0.215877	1.705353	-0.287569
Zn8	Zn	0.251822	1.511119	-0.205850
Zn9	Zn	0.168531	1.559783	-0.516362
O10	O	0.546113	1.511636	-0.242009
C11	C	0.237090	1.298780	-0.305446
C12	C	0.240063	1.154857	-0.271598
C13	C	0.208641	1.109825	-0.378595
C14	C	0.211712	0.961073	-0.343615
C15	C	0.592220	1.532219	-0.360351
C16	C	0.828135	1.538682	-0.361875
C17	C	0.183261	1.772122	-0.416770
C18	C	0.180286	1.916047	-0.450626
N19	N	0.308664	1.477917	0.006064
N20	N	0.111672	1.592995	-0.728279
C21	C	0.188295	1.548222	0.057308
C22	C	0.232058	1.522679	0.220483
H23	H	0.179475	1.181396	-0.496095
Cl24	Cl	-0.021289	1.670053	-0.061386
Cl25	Cl	0.135265	1.026530	-0.632053
H26	H	0.367510	1.443567	0.297410
H27	H	0.444107	1.398810	0.082995
H28	H	0.269251	1.083284	-0.154098
H29	H	0.240903	0.889504	-0.226106
H30	H	-0.023796	1.672097	0.194796
