data_functionalizedCrystal
_audit_creation_method	'MofGen! by Chris Wilmer'
_symmetry_space_group_name_H-M	'P1'
_symmetry_Int_Tables_number	1
_symmetry_cell_setting	triclinic
loop_
_symmetry_equiv_pos_as_xyz
  x,y,z
_cell_length_a	25.639239
_cell_length_b	19.121224
_cell_length_c	19.120904
_cell_angle_alpha	90.128641
_cell_angle_beta	92.410104
_cell_angle_gamma	87.529144
loop_
_atom_site_label
_atom_site_type_symbol
_atom_site_fract_x
_atom_site_fract_y
_atom_site_fract_z
Zn1	Zn	-0.188807	-1.054808	-0.442259
Zn2	Zn	-0.272363	-1.059701	-0.325017
Zn3	Zn	-0.188493	-0.942575	-0.320020
Zn4	Zn	-0.279766	-0.937508	-0.437194
O5	O	-0.232357	-0.998648	-0.381122
O6	O	-0.196923	-1.153566	-0.430917
O7	O	-0.258008	-1.048333	-0.226250
O8	O	-0.115368	-0.957535	-0.336264
O9	O	-0.258312	-1.157161	-0.344780
O10	O	-0.115599	-1.039993	-0.426072
O11	O	-0.196389	-0.962280	-0.222579
O12	O	-0.203568	-0.843794	-0.331353
O13	O	-0.270930	-0.948900	-0.535970
O14	O	-0.270626	-0.840072	-0.417440
O15	O	-0.204102	-1.035080	-0.539691
O16	O	-0.346512	-1.043419	-0.339869
O17	O	-0.351951	-0.953644	-0.422285
C18	C	-0.237867	-0.816495	-0.373305
C19	C	-0.240237	-0.738568	-0.369977
C20	C	-0.368202	-0.998532	-0.381085
C21	C	-0.426316	-0.998545	-0.381096
C22	C	-0.255243	-0.297922	-0.348926
C23	C	-0.253013	-0.371143	-0.352048
C24	C	-0.219994	-0.405880	-0.398529
C25	C	-0.189199	-0.367393	-0.441886
C26	C	-0.191426	-0.294174	-0.438761
C27	C	-0.211669	-0.626862	-0.410209
C28	C	-0.209445	-0.700086	-0.413333
C29	C	-0.273260	-0.703830	-0.323493
C30	C	-0.275487	-0.630609	-0.320375
C31	C	-0.244689	-0.592129	-0.363730
C32	C	-0.217715	-0.480724	-0.401722
C33	C	-0.246966	-0.517287	-0.360532
C34	C	-0.783831	-1.045508	-0.338290
C35	C	-0.838435	-1.045534	-0.338300
O36	O	-0.864252	-1.085343	-0.301865
N37	N	-0.868594	-0.998769	-0.381174
C38	C	-0.844147	-0.951979	-0.424045
O39	O	-0.874814	-0.912205	-0.460514
C40	C	-0.789544	-0.951956	-0.424038
C41	C	-0.759388	-0.998720	-0.381156
C42	C	-0.753675	-1.092268	-0.295412
C43	C	-0.699075	-1.092240	-0.295401
C44	C	-0.674631	-1.045452	-0.338267
C45	C	-0.704788	-0.998692	-0.381145
C46	C	-0.765098	-0.905170	-0.466913
C47	C	-0.710491	-0.905152	-0.466902
C48	C	-0.680335	-0.951915	-0.424020
C49	C	-0.625744	-0.951876	-0.424000
N50	N	-0.595585	-0.998641	-0.381126
C51	C	-0.620028	-1.045429	-0.338260
C52	C	-0.958816	-0.952032	-0.424059
C53	C	-1.013418	-0.952050	-0.424063
C54	C	-1.007702	-1.045607	-0.338318
C55	C	-0.953099	-1.045584	-0.338311
C56	C	-0.928657	-0.998797	-0.381185
C57	C	-0.505364	-1.045367	-0.338239
C58	C	-0.450760	-1.045333	-0.338229
C59	C	-0.456481	-0.951779	-0.423976
C60	C	-0.511080	-0.951810	-0.423983
C61	C	-0.535521	-0.998610	-0.381112
O62	O	-0.599891	-0.912090	-0.460419
O63	O	-0.589355	-1.085203	-0.301804
C64	C	-0.095982	-0.998783	-0.381176
C65	C	-0.037867	-0.998841	-0.381199
C66	C	-0.238377	-0.990879	-0.563979
C67	C	-0.240942	-0.987568	-0.641901
C68	C	-0.226822	-0.181513	-0.388962
C69	C	-0.224451	-0.259440	-0.392282
C70	C	-0.207356	-1.030879	-0.680448
C71	C	-0.209764	-1.027760	-0.753664
C72	C	-0.245763	-0.981332	-0.788332
C73	C	-0.279351	-0.938016	-0.749780
C74	C	-0.276939	-0.941132	-0.676565
C75	C	-0.254782	-0.969674	-1.009296
C76	C	-0.257192	-0.966563	-1.082516
C77	C	-0.187605	-1.056306	-1.086395
C78	C	-0.185198	-1.059422	-1.013179
C79	C	-0.218785	-1.016103	-0.974633
C80	C	-0.248227	-0.978144	-0.863171
C81	C	-0.216318	-1.019288	-0.899796
C82	C	-0.226322	-1.006428	-0.198979
C83	C	-0.223605	-1.009874	-0.121063
H84	H	-0.282134	-0.269644	-0.311080
Cl85	Cl	-0.176209	-0.524400	-0.460158
H86	H	-0.674524	-1.130320	-0.260485
Cl87	Cl	-0.319163	-0.886679	-0.628106
H88	H	-0.302374	-0.602331	-0.282525
Cl89	Cl	-0.784393	-1.151095	-0.241515
Cl90	Cl	-0.139942	-1.117791	-0.969601
H91	H	-0.938919	-0.913926	-0.458969
Cl92	Cl	-0.288472	-0.473616	-0.302099
Cl93	Cl	-0.425741	-0.892967	-0.477866
H94	H	-0.160260	-1.091573	-1.117787
Cl95	Cl	-0.802996	-0.846386	-0.520834
H96	H	-0.286508	-0.928753	-1.110741
Cl97	Cl	-0.412852	-1.104126	-0.284316
H98	H	-0.282138	-0.934411	-0.977922
Cl99	Cl	-0.152712	-0.245797	-0.493264
H100	H	-0.525257	-1.083477	-0.303331
H101	H	-0.308660	-0.900210	-0.778013
Cl102	Cl	-0.291712	-0.419518	-0.297524
H103	H	-0.298333	-0.735169	-0.288196
Cl104	Cl	-0.162101	-1.089252	-0.636872
H105	H	-0.182553	-0.728367	-0.451182
Cl106	Cl	-0.167561	-1.082242	-0.802121
H107	H	-0.187006	-1.057086	-0.871566
H108	H	-0.928549	-1.083663	-0.303393
H109	H	-1.027614	-1.083706	-0.303416
Cl110	Cl	-0.172957	-0.578495	-0.464719
H111	H	-0.162311	-0.395683	-0.479729
Cl112	Cl	-0.293483	-0.919782	-0.906760
H113	H	-1.037968	-0.913965	-0.458975
H114	H	-0.690593	-0.867053	-0.501817
H115	H	-0.535635	-0.913734	-0.458903
