data_functionalizedCrystal
_audit_creation_method	'MofGen! by Chris Wilmer'
_symmetry_space_group_name_H-M	'P1'
_symmetry_Int_Tables_number	1
_symmetry_cell_setting	triclinic
loop_
_symmetry_equiv_pos_as_xyz
  x,y,z
_cell_length_a	18.215405
_cell_length_b	16.625547
_cell_length_c	18.215399
_cell_angle_alpha	90.023151
_cell_angle_beta	89.967040
_cell_angle_gamma	89.975929
loop_
_atom_site_label
_atom_site_type_symbol
_atom_site_fract_x
_atom_site_fract_y
_atom_site_fract_z
Zn1	Zn	-0.292990	-1.232636	-0.416227
Zn2	Zn	-0.416067	-1.232543	-0.293155
Zn3	Zn	-0.293017	-1.097807	-0.293161
Zn4	Zn	-0.416018	-1.097762	-0.416166
O5	O	-0.354523	-1.165187	-0.354677
O6	O	-0.309326	-1.345456	-0.399924
O7	O	-0.399775	-1.214649	-0.190171
O8	O	-0.190029	-1.115750	-0.309513
O9	O	-0.399750	-1.345387	-0.309504
O10	O	-0.190010	-1.214808	-0.399929
O11	O	-0.309371	-1.115659	-0.190175
O12	O	-0.309324	-0.984969	-0.309455
O13	O	-0.399666	-1.115674	-0.519159
O14	O	-0.399692	-0.984936	-0.399826
O15	O	-0.309279	-1.214765	-0.519203
O16	O	-0.519045	-1.214606	-0.309445
O17	O	-0.519009	-1.115584	-0.399821
C18	C	-0.354506	-0.955696	-0.354635
C19	C	-0.354517	-0.866075	-0.354634
C20	C	-0.545729	-1.165102	-0.354642
C21	C	-0.627528	-1.165139	-0.354651
C22	C	-0.354517	-0.793293	-0.354641
C23	C	-0.354520	-0.701984	-0.354656
C24	C	-0.354526	-0.629208	-0.354672
C25	C	-0.354530	-0.537893	-0.354686
C26	C	-0.815716	-1.216821	-0.307679
C27	C	-0.892575	-1.216857	-0.307697
C28	C	-0.892578	-1.113656	-0.401728
C29	C	-0.815720	-1.113624	-0.401713
C30	C	-0.777292	-1.165206	-0.354685
C31	C	-0.931008	-1.165273	-0.354717
C32	C	-1.014341	-1.165312	-0.354737
C33	C	-0.693953	-1.165169	-0.354666
C34	C	-0.162570	-1.165294	-0.354729
C35	C	-0.080771	-1.165340	-0.354751
C36	C	-0.354464	-1.165225	-0.546630
C37	C	-0.354439	-1.165241	-0.628429
C38	C	-0.354537	-0.375496	-0.354711
C39	C	-0.354536	-0.465117	-0.354703
C40	C	-0.307334	-1.113741	-0.816626
C41	C	-0.307319	-1.113755	-0.893485
C42	C	-0.401457	-1.216838	-0.893470
C43	C	-0.401475	-1.216819	-0.816613
C44	C	-0.354409	-1.165272	-0.778193
C45	C	-0.354376	-1.165305	-0.931909
C46	C	-0.354360	-1.165320	-1.015243
C47	C	-0.354426	-1.165255	-0.694854
C48	C	-0.354528	-1.165195	-0.163471
C49	C	-0.354346	-1.165335	-0.081672
H50	H	-0.784429	-1.258823	-0.269387
H51	H	-0.269010	-1.071768	-0.785347
O52	O	-0.452242	-1.272411	-0.775150
H53	H	-0.484956	-1.308270	-0.814777
H54	H	-0.268986	-1.071792	-0.924774
H55	H	-0.439775	-1.258807	-0.924761
H56	H	-0.923876	-1.071659	-0.440016
O57	O	-0.934022	-1.272523	-0.256994
H58	H	-0.894385	-1.308378	-0.224288
H59	H	-0.784433	-1.071593	-0.439995
