data_functionalizedCrystal
_audit_creation_method	'MofGen! by Chris Wilmer'
_symmetry_space_group_name_H-M	'P1'
_symmetry_Int_Tables_number	1
_symmetry_cell_setting	triclinic
loop_
_symmetry_equiv_pos_as_xyz
  x,y,z
_cell_length_a	12.837932
_cell_length_b	14.519709
_cell_length_c	11.892095
_cell_angle_alpha	93.895429
_cell_angle_beta	85.688545
_cell_angle_gamma	89.254924
loop_
_atom_site_label
_atom_site_type_symbol
_atom_site_fract_x
_atom_site_fract_y
_atom_site_fract_z
O1	O	1.382518	0.234479	-0.094011
O2	O	1.080690	0.222632	-0.094012
O3	O	1.239606	0.095009	-0.094002
O4	O	1.223602	0.362102	-0.094022
O5	O	1.226356	0.105632	0.094005
O6	O	1.067440	0.233255	0.093994
O7	O	1.369268	0.245102	0.093996
Zn8	Zn	1.216250	0.240865	0.123845
Zn9	Zn	1.233708	0.226869	-0.123862
O10	O	1.210352	0.372725	0.093985
C11	C	1.035437	0.223942	-0.000009
C12	C	0.920338	0.212007	-0.000009
C13	C	1.232235	0.065896	0.000002
C14	C	1.230000	-0.036678	0.000003
C15	C	0.770310	0.112255	0.000000
C16	C	0.878457	0.123463	-0.000001
C17	C	0.854064	0.289350	-0.000013
C18	C	0.745917	0.278142	-0.000012
C19	C	0.704044	0.189591	-0.000007
C20	C	0.595895	0.178384	-0.000014
C21	C	0.571504	0.344271	-0.000018
C22	C	0.679651	0.355478	-0.000019
C23	C	1.221773	-0.412287	-0.000027
C24	C	1.224058	-0.307781	-0.000018
C25	C	1.225886	-0.224486	-0.000011
C26	C	1.228171	-0.119973	-0.000005
C27	C	1.414521	0.243792	-0.000010
C28	C	1.529621	0.255726	-0.000017
C29	C	1.217724	0.401837	-0.000021
C30	C	1.219959	0.504411	-0.000029
N31	N	1.204344	0.250417	0.292898
N32	N	1.245623	0.217310	-0.292915
C33	C	1.328476	0.150791	0.529555
C34	C	1.320161	0.157475	0.647896
C35	C	1.179394	0.270464	0.647924
C36	C	1.187709	0.263780	0.529583
C37	C	1.262253	0.203942	0.470402
C38	C	1.270573	0.197263	0.352059
C39	C	1.129802	0.310247	0.352089
C40	C	1.121487	0.316931	0.470431
H41	H	0.736217	0.040153	-0.000007
H42	H	1.118695	0.319176	0.696125
H43	H	0.888175	0.361444	-0.000007
H44	H	1.374084	0.114192	0.696054
N45	N	1.408853	0.086236	0.465719
H46	H	1.404065	0.090061	0.381774
H47	H	1.480976	0.104543	0.486372
H48	H	0.932407	0.060487	0.000005
N49	N	1.041084	0.381463	0.534264
H50	H	1.045862	0.377631	0.618209
H51	H	1.054638	0.446787	0.513575
N52	N	1.058377	0.367587	0.288291
H53	H	1.074956	0.354278	0.204341
H54	H	0.983353	0.351606	0.308990
H55	H	0.561805	0.106282	-0.000014
H56	H	0.713759	0.427574	-0.000019
N57	N	0.500033	0.427691	-0.000036
H58	H	0.425167	0.407157	-0.000039
H59	H	0.508694	0.469811	0.069656
H60	H	1.331273	0.148543	0.303875
