data_functionalizedCrystal
_audit_creation_method	'MofGen! by Chris Wilmer'
_symmetry_space_group_name_H-M	'P1'
_symmetry_Int_Tables_number	1
_symmetry_cell_setting	triclinic
loop_
_symmetry_equiv_pos_as_xyz
  x,y,z
_cell_length_a	13.897449
_cell_length_b	12.645329
_cell_length_c	13.897441
_cell_angle_alpha	90.028679
_cell_angle_beta	90.023394
_cell_angle_gamma	90.018804
loop_
_atom_site_label
_atom_site_type_symbol
_atom_site_fract_x
_atom_site_fract_y
_atom_site_fract_z
Zn1	Zn	1.474701	-0.421982	0.545463
Zn2	Zn	1.808034	-0.088649	0.878796
Zn3	Zn	2.141367	0.244685	1.212129
Zn4	Zn	1.474594	-0.599278	0.384169
Zn5	Zn	1.807927	-0.265944	0.717503
Zn6	Zn	2.141261	0.067389	1.050836
Zn7	Zn	1.313390	-0.422031	0.384173
Zn8	Zn	1.646723	-0.088698	0.717507
Zn9	Zn	1.980057	0.244635	1.050840
Zn10	Zn	1.313371	-0.599207	0.545414
Zn11	Zn	1.646704	-0.265873	0.878748
Zn12	Zn	1.980037	0.067460	1.212081
O13	O	1.394014	-0.510624	0.464805
O14	O	1.727347	-0.177291	0.798138
O15	O	2.060680	0.156042	1.131472
O16	O	1.609668	-0.445510	0.524085
O17	O	1.943002	-0.112177	0.857418
O18	O	2.276335	0.221157	1.190752
O19	O	1.453173	-0.575816	0.249188
O20	O	1.786506	-0.242482	0.582521
O21	O	2.119840	0.090851	0.915855
O22	O	1.334841	-0.273677	0.405591
O23	O	1.668174	0.059656	0.738924
O24	O	2.001507	0.392989	1.072257
O25	O	1.609590	-0.575768	0.405584
O26	O	1.942923	-0.242435	0.738917
O27	O	2.276256	0.090898	1.072250
O28	O	1.453355	-0.273641	0.524089
O29	O	1.786689	0.059692	0.857422
O30	O	2.120022	0.393025	1.190756
O31	O	1.334737	-0.445594	0.249191
O32	O	1.668071	-0.112260	0.582525
O33	O	2.001404	0.221073	0.915858
O34	O	1.178406	-0.445525	0.405544
O35	O	1.511739	-0.112191	0.738877
O36	O	1.845072	0.221142	1.072211
O37	O	1.334808	-0.575647	0.680403
O38	O	1.668142	-0.242314	1.013736
O39	O	2.001475	0.091020	1.347069
O40	O	1.178392	-0.575695	0.524007
O41	O	1.511725	-0.242361	0.857340
O42	O	1.845058	0.090972	1.190674
O43	O	1.453337	-0.445441	0.680438
O44	O	1.786670	-0.112108	1.013771
O45	O	2.120003	0.221226	1.347105
O46	O	1.453155	-0.747615	0.405537
O47	O	1.786488	-0.414282	0.738870
O48	O	2.119821	-0.080949	1.072204
O49	O	1.334705	-0.747563	0.524003
O50	O	1.668038	-0.414230	0.857336
O51	O	2.001371	-0.080897	1.190670
C52	C	1.143399	-0.510608	0.464771
C53	C	1.476733	-0.177275	0.798105
C54	C	1.810066	0.156059	1.131438
C55	C	1.036186	-0.510627	0.464780
C56	C	1.369519	-0.177293	0.798113
C57	C	1.702852	0.156040	1.131446
C58	C	0.949116	-0.510630	0.464796
C59	C	1.282449	-0.177297	0.798129
C60	C	1.615782	0.156037	1.131463
C61	C	0.839883	-0.510638	0.464825
C62	C	1.173217	-0.177304	0.798159
C63	C	1.506550	0.156029	1.131492
C64	C	1.393942	-0.786054	0.464785
C65	C	1.727276	-0.452721	0.798119
C66	C	2.060609	-0.119387	1.131452
C67	C	1.394000	-0.903884	0.464809
C68	C	1.727333	-0.570551	0.798143
C69	C	2.060666	-0.237217	1.131476
C70	C	1.319448	-0.948778	0.539293
C71	C	1.652781	-0.615444	0.872626
C72	C	1.986115	-0.282111	1.205960
C73	C	1.319757	-1.071337	0.539616
C74	C	1.653090	-0.738004	0.872950
C75	C	1.986423	-0.404670	1.206283
C76	C	1.495839	-1.071648	0.492206
C77	C	1.829172	-0.738315	0.825540
C78	C	2.162506	-0.404982	1.158873
C79	C	1.495318	-0.949050	0.492716
C80	C	1.828652	-0.615717	0.826049
C81	C	2.161985	-0.282384	1.159383
C82	C	1.367789	-0.949180	0.362807
C83	C	1.701122	-0.615846	0.696140
C84	C	2.034455	-0.282513	1.029473
C85	C	1.365635	-1.071788	0.363381
C86	C	1.698968	-0.738455	0.696715
C87	C	2.032302	-0.405121	1.030048
C88	C	1.645607	-0.510642	0.464839
C89	C	1.978940	-0.177308	0.798173
C90	C	2.312273	0.156025	1.131506
C91	C	1.752821	-0.510649	0.464854
C92	C	2.086154	-0.177316	0.798187
C93	C	2.419487	0.156018	1.131521
C94	C	1.394082	-0.510531	0.716398
C95	C	1.727416	-0.177197	1.049731
C96	C	2.060749	0.156136	1.383065
C97	C	1.394111	-0.510491	0.823612
C98	C	1.727445	-0.177157	1.156945
C99	C	2.060778	0.156176	1.490279
C100	C	1.394112	-0.234119	0.464846
C101	C	1.727445	0.099214	0.798179
C102	C	2.060779	0.432548	1.131512
C103	C	1.394154	-0.116289	0.464863
C104	C	1.727487	0.217044	0.798196
C105	C	2.060821	0.550378	1.131530
C106	C	1.394001	-0.510641	0.214191
C107	C	1.727335	-0.177308	0.547524
C108	C	2.060668	0.156025	0.880857
C109	C	1.394159	-0.510383	0.106977
C110	C	1.727492	-0.177049	0.440311
C111	C	2.060826	0.156284	0.773644
C112	C	1.394138	-0.510419	1.019907
C113	C	1.727471	-0.177086	1.353241
C114	C	2.060804	0.156248	1.686574
C115	C	1.394120	-0.510462	0.910675
C116	C	1.727453	-0.177129	1.244008
C117	C	2.060787	0.156205	1.577341
H118	H	1.244364	-1.101527	0.522526
H119	H	1.577697	-0.768194	0.855859
H120	H	1.911030	-0.434860	1.189192
N121	N	1.439699	-0.910724	0.289287
N122	N	1.773032	-0.577390	0.622621
N123	N	2.106366	-0.244057	0.955954
H124	H	1.506272	-0.935411	0.307854
H125	H	1.839605	-0.602078	0.641187
H126	H	2.172938	-0.268745	0.974521
H127	H	1.438432	-0.830913	0.286886
H128	H	1.771765	-0.497580	0.620219
H129	H	2.105098	-0.164246	0.953552
H130	H	1.552947	-1.100757	0.439639
H131	H	1.886281	-0.767423	0.772972
H132	H	2.219614	-0.434090	1.106306
H133	H	1.518454	-1.102269	0.565959
H134	H	1.851787	-0.768936	0.899293
H135	H	2.185120	-0.435603	1.232626
N136	N	1.342157	-0.907890	0.638850
N137	N	1.675491	-0.574557	0.972183
N138	N	2.008824	-0.241223	1.305516
H139	H	1.285434	-0.866464	0.664180
H140	H	1.618767	-0.533131	0.997514
H141	H	1.952100	-0.199798	1.330847
H142	H	1.400555	-0.860449	0.635851
H143	H	1.733888	-0.527115	0.969184
H144	H	2.067222	-0.193782	1.302517
N145	N	1.219204	-0.909875	0.516914
N146	N	1.552537	-0.576542	0.850247
N147	N	1.885871	-0.243208	1.183581
H148	H	1.221140	-0.862768	0.458279
H149	H	1.554473	-0.529435	0.791612
H150	H	1.887806	-0.196101	1.124945
H151	H	1.193643	-0.868549	0.573609
H152	H	1.526976	-0.535216	0.906942
H153	H	1.860309	-0.201883	1.240275
H154	H	1.552776	-0.919344	0.440812
H155	H	1.886110	-0.586010	0.774145
H156	H	2.219443	-0.252677	1.107479
H157	H	1.415990	-1.102403	0.304949
H158	H	1.749323	-0.769069	0.638282
H159	H	2.082657	-0.435736	0.971615
N160	N	1.271183	-0.908369	0.329751
N161	N	1.604516	-0.575036	0.663084
N162	N	1.937850	-0.241702	0.996417
H163	H	1.243429	-0.860097	0.380568
H164	H	1.576762	-0.526764	0.713902
H165	H	1.910095	-0.193431	1.047235
H166	H	1.226155	-0.969926	0.318835
H167	H	1.559488	-0.636593	0.652169
H168	H	1.892821	-0.303259	0.985502
H169	H	1.337203	-1.100588	0.615204
H170	H	1.670536	-0.767255	0.948538
H171	H	2.003870	-0.433921	1.281871
H172	H	1.517505	-0.920372	0.567273
H173	H	1.850839	-0.587039	0.900606
H174	H	2.184172	-0.253705	1.233939
N175	N	1.266577	-1.110596	0.335979
N176	N	1.599910	-0.777263	0.669312
N177	N	1.933243	-0.443929	1.002645
H178	H	1.240268	-1.156796	0.389080
H179	H	1.573601	-0.823462	0.722413
H180	H	1.906935	-0.490129	1.055747
H181	H	1.270779	-1.152867	0.274446
H182	H	1.604112	-0.819533	0.607779
H183	H	1.937446	-0.486200	0.941113
