data_functionalizedCrystal
_audit_creation_method	'MofGen! by Chris Wilmer'
_symmetry_space_group_name_H-M	'P1'
_symmetry_Int_Tables_number	1
_symmetry_cell_setting	triclinic
loop_
_symmetry_equiv_pos_as_xyz
  x,y,z
_cell_length_a	13.032831
_cell_length_b	16.959454
_cell_length_c	13.032268
_cell_angle_alpha	82.849649
_cell_angle_beta	89.113023
_cell_angle_gamma	82.825094
loop_
_atom_site_label
_atom_site_type_symbol
_atom_site_fract_x
_atom_site_fract_y
_atom_site_fract_z
Zn1	Zn	1.498450	-0.533808	0.780847
Zn2	Zn	1.520186	-0.651576	0.608869
Zn3	Zn	1.348310	-0.500789	0.587087
Zn4	Zn	1.326434	-0.647302	0.758994
O5	O	1.423345	-0.583369	0.683949
O6	O	1.645253	-0.565038	0.776295
O7	O	1.515638	-0.619543	0.462063
O8	O	1.368285	-0.394566	0.612819
O9	O	1.661222	-0.651561	0.649944
O10	O	1.478592	-0.418826	0.755173
O11	O	1.389361	-0.508760	0.446059
O12	O	1.201488	-0.504616	0.591629
O13	O	1.331000	-0.644277	0.905810
O14	O	1.185416	-0.612259	0.717929
O15	O	1.457380	-0.560894	0.921865
O16	O	1.494425	-0.761611	0.628754
O17	O	1.352077	-0.758471	0.739051
C18	C	1.156135	-0.554392	0.650045
C19	C	1.041819	-0.542016	0.635565
C20	C	0.982940	-0.589828	0.691506
C21	C	0.864788	-0.577038	0.676542
C22	C	1.423261	-0.788724	0.683921
C23	C	1.423315	-0.876589	0.683955
C24	C	1.349320	-1.246472	0.741386
C25	C	1.497643	-1.249702	0.626654
C26	C	1.497608	-1.167152	0.626640
C27	C	1.423427	-1.124257	0.683998
C28	C	1.349281	-1.163913	0.741371
C29	C	1.571746	-1.127488	0.569260
C30	C	1.571713	-1.044932	0.569243
C31	C	1.497536	-1.002037	0.626608
C32	C	1.423388	-1.041698	0.683984
C33	C	1.349208	-0.998804	0.741342
C34	C	1.275063	-1.038465	0.798724
C35	C	1.275104	-1.121018	0.798736
C36	C	1.497495	-0.919484	0.626597
C37	C	1.349169	-0.916245	0.741327
C38	C	1.691598	-0.612460	0.717986
C39	C	1.805911	-0.624856	0.732491
C40	C	1.389325	-0.605792	0.952197
C41	C	1.374828	-0.615348	1.066508
C42	C	1.423454	-0.377216	0.684004
C43	C	1.423501	-0.289366	0.684027
C44	C	1.457291	-0.560982	0.416753
C45	C	1.471987	-0.551225	0.302467
C46	C	1.430895	-0.578351	1.125415
C47	C	1.415913	-0.588227	1.243562
H48	H	1.288765	-0.881326	0.788040
H49	H	1.632086	-1.012646	0.522521
H50	H	0.842968	-0.675257	0.791474
O51	O	1.569742	-1.291239	0.570846
C52	C	1.716898	-1.285747	0.457100
C53	C	1.635285	-1.238602	0.520239
H54	H	1.769925	-1.243213	0.416185
H55	H	1.676625	-1.314796	0.397242
H56	H	1.764609	-1.334154	0.511198
H57	H	1.587549	-1.190158	0.466221
H58	H	1.675622	-1.209609	0.580108
H59	H	1.489984	-0.539364	1.088380
H60	H	1.557858	-0.887195	0.579871
H61	H	1.214661	-1.003530	0.845421
O62	O	1.027254	-0.649865	0.761927
C63	C	1.131047	-0.685315	0.916060
C64	C	1.080941	-0.617246	0.836367
H65	H	1.174447	-0.658967	0.976277
H66	H	1.187388	-0.728035	0.875138
H67	H	1.068328	-0.719337	0.955803
H68	H	1.143588	-0.583163	0.796600
H69	H	1.024577	-0.574581	0.877346
H70	H	1.531079	-0.512233	1.265438
H71	H	1.632133	-1.162417	0.522554
H72	H	1.356810	-0.627208	1.280591
H73	H	1.315729	-0.654327	1.103542
H74	H	0.827729	-0.526630	0.617570
O75	O	0.997451	-0.481953	0.565212
C76	C	0.839232	-0.414401	0.486211
C77	C	0.889340	-0.482461	0.565913
H78	H	0.751814	-0.414779	0.486767
H79	H	0.870724	-0.423513	0.405871
H80	H	0.858065	-0.354482	0.507043
H81	H	0.870527	-0.542410	0.545178
H82	H	0.857845	-0.473279	0.646230
H83	H	1.288956	-1.278768	0.788108
O84	O	1.203126	-1.159661	0.854371
C85	C	1.137483	-1.285416	0.905271
C86	C	1.219044	-1.241748	0.842206
H87	H	1.150339	-1.351794	0.895475
H88	H	1.056840	-1.258786	0.876612
H89	H	1.144934	-1.278000	0.990484
H90	H	1.211689	-1.249148	0.756982
H91	H	1.299655	-1.268387	0.870951
