data_functionalizedCrystal
_audit_creation_method	'MofGen! by Chris Wilmer'
_symmetry_space_group_name_H-M	'P1'
_symmetry_Int_Tables_number	1
_symmetry_cell_setting	triclinic
loop_
_symmetry_equiv_pos_as_xyz
  x,y,z
_cell_length_a	16.974800
_cell_length_b	10.654550
_cell_length_c	16.053802
_cell_angle_alpha	92.591674
_cell_angle_beta	91.074188
_cell_angle_gamma	83.936244
loop_
_atom_site_label
_atom_site_type_symbol
_atom_site_fract_x
_atom_site_fract_y
_atom_site_fract_z
O1	O	1.049952	0.160086	0.001543
O2	O	0.820596	0.179310	-0.013962
O3	O	0.940547	-0.013097	-0.005850
O4	O	0.930001	0.352493	-0.006569
O5	O	0.933944	-0.002550	0.132562
O6	O	0.813993	0.189857	0.124451
O7	O	1.043349	0.170633	0.139955
Zn8	Zn	0.927623	0.181920	0.154179
Zn9	Zn	0.936322	0.168024	-0.028186
O10	O	0.923398	0.363040	0.131843
C11	C	0.787926	0.183659	0.053259
C12	C	0.700418	0.180890	0.047344
C13	C	0.655713	0.185335	0.120015
C14	C	0.573491	0.182714	0.114459
C15	C	0.535976	0.175656	0.036231
C16	C	0.580689	0.171206	-0.036446
C17	C	0.662909	0.173819	-0.030889
C18	C	0.290460	0.167216	0.011522
C19	C	0.208233	0.164607	0.005971
C20	C	0.201041	0.176112	0.156876
C21	C	0.283263	0.178732	0.162426
C22	C	0.327969	0.174276	0.089749
N23	N	0.451933	0.172979	0.030550
N24	N	0.412012	0.176943	0.095431
C25	C	0.936471	-0.054613	0.063303
C26	C	0.934155	-0.194032	0.063143
C27	C	1.004780	-0.274262	0.067920
C28	C	1.002599	-0.405260	0.067767
C29	C	0.859160	-0.375785	0.058063
C30	C	0.861343	-0.244790	0.058210
C31	C	1.077592	-0.223504	0.072853
C32	C	1.148224	-0.303736	0.077631
C33	C	1.146042	-0.434734	0.077478
C34	C	1.073229	-0.485501	0.072546
C35	C	1.076019	0.166283	0.072732
C36	C	1.163527	0.169052	0.078642
N37	N	0.921692	0.191402	0.278638
C38	C	0.927474	0.404556	0.062688
C39	C	0.929791	0.543975	0.062843
N40	N	0.942260	0.158531	-0.152644
C41	C	0.972750	0.109562	0.325785
C42	C	0.968608	0.116208	0.412911
C43	C	0.913412	0.204700	0.452890
C44	C	0.862348	0.286544	0.405737
C45	C	0.866486	0.279891	0.318611
C46	C	0.895334	0.233722	0.713077
C47	C	0.891201	0.240371	0.800209
C48	C	0.997462	0.070032	0.807377
C49	C	1.001598	0.063393	0.720250
C50	C	0.950532	0.145232	0.673105
N51	N	0.909179	0.211497	0.541947
N52	N	0.954761	0.138428	0.584048
H53	H	0.699308	0.170202	-0.090066
H54	H	0.799879	-0.417130	0.054049
O55	O	1.026287	0.023406	0.287004
C56	C	1.072553	-0.196821	0.263501
C57	C	1.011865	-0.099365	0.307438
H58	H	1.060924	-0.296101	0.280020
H59	H	1.066761	-0.187668	0.193117
H60	H	1.134945	-0.178826	0.284888
H61	H	0.949446	-0.117297	0.286120
H62	H	1.017726	-0.108541	0.377815
O63	O	1.218881	-0.254215	0.082449
C64	C	1.285817	-0.065478	0.086933
C65	C	1.205741	-0.121385	0.081493
H66	H	1.275222	0.041921	0.086144
H67	H	1.318002	-0.094002	0.147234
H68	H	1.323516	-0.102983	0.031382
H69	H	1.167980	-0.083909	0.137000
H70	H	1.173618	-0.092870	0.021158
H71	H	1.010184	0.049566	0.451298
H72	H	0.853755	0.300361	0.674698
H73	H	1.203554	-0.500056	0.081360
H74	H	0.537097	0.186312	0.173636
H75	H	0.313802	0.184474	0.226128
H76	H	1.071459	-0.592170	0.072413
H77	H	0.803833	-0.179464	0.054322
H78	H	1.046544	-0.008664	0.687702
O79	O	1.047026	-0.009651	0.853083
C80	C	1.090704	-0.225794	0.882827
C81	C	1.034546	-0.135686	0.830996
H82	H	1.080622	-0.327711	0.865001
H83	H	1.154751	-0.210586	0.869942
H84	H	1.078274	-0.205779	0.951960
H85	H	1.046904	-0.155646	0.761847
H86	H	0.970517	-0.150912	0.843952
H87	H	0.326850	0.163583	-0.047657
H88	H	0.846251	0.312437	0.832755
H89	H	0.817401	0.358592	0.438292
O90	O	0.816855	0.359525	0.272937
C91	C	0.710992	0.529129	0.275014
C92	C	0.767168	0.439042	0.326840
H93	H	0.670794	0.593423	0.318572
H94	H	0.747254	0.588986	0.236552
H95	H	0.673300	0.471598	0.231539
H96	H	0.804872	0.496474	0.370362
H97	H	0.730859	0.379181	0.365247
H98	H	0.177691	0.158863	-0.057735
O99	O	0.692132	0.191967	0.196027
C100	C	0.719436	0.093926	0.327287
C101	C	0.678171	0.086251	0.241223
H102	H	0.708149	0.008480	0.363859
H103	H	0.785894	0.094955	0.318829
H104	H	0.694766	0.184091	0.362913
H105	H	0.702776	-0.003905	0.205551
H106	H	0.611716	0.085293	0.249740
O107	O	0.157729	0.180492	0.227552
C108	C	0.159282	0.192085	0.377816
C109	C	0.208424	0.187169	0.297839
H110	H	0.200250	0.197457	0.434663
H111	H	0.113888	0.278981	0.378594
H112	H	0.127326	0.103355	0.379395
H113	H	0.240430	0.275836	0.296207
H114	H	0.253772	0.100215	0.297093
O115	O	0.544120	0.164406	-0.112371
C116	C	0.420650	0.155213	-0.187812
C117	C	0.461958	0.162940	-0.101772
H118	H	0.354218	0.153999	-0.179272
H119	H	0.431796	0.240716	-0.224400
H120	H	0.445372	0.065104	-0.223466
H121	H	0.437262	0.252996	-0.066049
H122	H	0.450816	0.077374	-0.065247
H123	H	1.079377	-0.116840	0.072981
