data_functionalizedCrystal
_audit_creation_method	'MofGen! by Chris Wilmer'
_symmetry_space_group_name_H-M	'P1'
_symmetry_Int_Tables_number	1
_symmetry_cell_setting	triclinic
loop_
_symmetry_equiv_pos_as_xyz
  x,y,z
_cell_length_a	19.805407
_cell_length_b	12.759400
_cell_length_c	19.805407
_cell_angle_alpha	90.010402
_cell_angle_beta	90.007417
_cell_angle_gamma	90.014685
loop_
_atom_site_label
_atom_site_type_symbol
_atom_site_fract_x
_atom_site_fract_y
_atom_site_fract_z
Zn1	Zn	1.034710	-0.418424	0.382740
Zn2	Zn	1.534710	0.081576	0.882740
Zn3	Zn	1.034672	-0.594078	0.269560
Zn4	Zn	1.534672	-0.094078	0.769560
Zn5	Zn	0.921548	-0.418413	0.269565
Zn6	Zn	1.421548	0.081587	0.769565
Zn7	Zn	0.921511	-0.594061	0.382707
Zn8	Zn	1.421511	-0.094061	0.882707
O9	O	0.978110	-0.506244	0.326143
O10	O	1.478110	-0.006244	0.826143
O11	O	1.129421	-0.441736	0.367738
O12	O	1.629421	0.058264	0.867738
O13	O	1.019665	-0.570778	0.174844
O14	O	1.519665	-0.070778	0.674844
O15	O	0.936591	-0.271394	0.284593
O16	O	1.436591	0.228606	0.784593
O17	O	1.129393	-0.570788	0.284586
O18	O	1.629393	-0.070788	0.784586
O19	O	1.019730	-0.271401	0.367742
O20	O	1.519730	0.228599	0.867742
O21	O	0.936554	-0.441718	0.174847
O22	O	1.436554	0.058282	0.674847
O23	O	0.826827	-0.441702	0.284561
O24	O	1.326827	0.058298	0.784561
O25	O	0.936527	-0.570760	0.477428
O26	O	1.436527	-0.070760	0.977428
O27	O	0.826799	-0.570750	0.367686
O28	O	1.326799	-0.070750	0.867686
O29	O	1.019694	-0.441720	0.477452
O30	O	1.519694	0.058280	0.977452
O31	O	1.019629	-0.741097	0.284554
O32	O	1.519629	-0.241097	0.784554
O33	O	0.936490	-0.741084	0.367682
O34	O	1.436490	-0.241084	0.867682
C35	C	0.802254	-0.506224	0.326121
C36	C	1.302254	-0.006224	0.826121
C37	C	0.727022	-0.506241	0.326128
C38	C	1.227022	-0.006241	0.826128
C39	C	0.691681	-0.573537	0.369341
C40	C	1.191681	-0.073537	0.869341
C41	C	0.620993	-0.573539	0.369351
C42	C	1.120993	-0.073539	0.869351
C43	C	0.585647	-0.506249	0.326143
C44	C	1.085647	-0.006249	0.826143
C45	C	0.620992	-0.438945	0.282928
C46	C	1.120992	0.061055	0.782928
C47	C	0.691679	-0.438939	0.282922
C48	C	1.191679	0.061061	0.782922
C49	C	0.335919	-0.438968	0.282950
C50	C	0.835919	0.061032	0.782950
C51	C	0.265227	-0.438982	0.282958
C52	C	0.765227	0.061018	0.782958
C53	C	0.265233	-0.573568	0.369379
C54	C	0.765233	-0.073568	0.869379
C55	C	0.335920	-0.573562	0.369373
C56	C	0.835920	-0.073562	0.869373
C57	C	0.371259	-0.506255	0.326161
C58	C	0.871259	-0.006255	0.826161
C59	C	0.447908	-0.506252	0.326152
C60	C	0.947908	-0.006252	0.826152
C61	C	0.508999	-0.506256	0.326148
C62	C	1.008999	-0.006256	0.826148
C63	C	0.978070	-0.779211	0.326129
C64	C	1.478070	-0.279211	0.826129
C65	C	0.978115	-0.895988	0.326145
C66	C	1.478115	-0.395988	0.826145
C67	C	1.021453	-0.950821	0.282908
C68	C	1.521453	-0.450821	0.782908
C69	C	1.021495	-1.060545	0.282929
C70	C	1.521495	-0.560545	0.782929
C71	C	0.934854	-1.060593	0.369426
C72	C	1.434854	-0.560593	0.869426
C73	C	0.934816	-0.950871	0.369408
C74	C	1.434816	-0.450871	0.869408
C75	C	1.064752	-0.895939	0.239646
C76	C	1.564752	-0.395939	0.739646
C77	C	1.108093	-0.950772	0.196404
C78	C	1.608093	-0.450772	0.696404
C79	C	1.108134	-1.060496	0.196425
C80	C	1.608134	-0.560496	0.696425
C81	C	1.064835	-1.115387	0.239687
C82	C	1.564835	-0.615387	0.739687
C83	C	1.154653	-0.506265	0.326165
C84	C	1.654653	-0.006265	0.826165
C85	C	1.229885	-0.506274	0.326175
C86	C	1.729885	-0.006274	0.826175
C87	C	0.978111	-0.506239	0.502686
C88	C	1.478111	-0.006239	1.002686
C89	C	0.978111	-0.506237	0.577918
C90	C	1.478111	-0.006237	1.077918
C91	C	0.978169	-0.232211	0.326172
C92	C	1.478169	0.267789	0.826172
C93	C	0.978194	-0.115434	0.326184
C94	C	1.478194	0.384566	0.826184
C95	C	0.934841	-0.439043	0.613263
C96	C	1.434841	0.060957	1.113263
C97	C	0.934839	-0.439050	0.683951
C98	C	1.434839	0.060950	1.183951
C99	C	0.978110	-0.506246	0.719293
C100	C	1.478110	-0.006246	1.219293
C101	C	1.021381	-0.573448	0.683943
C102	C	1.521381	-0.073448	1.183943
C103	C	1.021380	-0.573446	0.613256
C104	C	1.521380	-0.073446	1.113256
C105	C	1.021388	-0.573460	0.969016
C106	C	1.521388	-0.073460	1.469016
C107	C	1.021388	-0.573455	1.039708
C108	C	1.521388	-0.073455	1.539708
C109	C	0.934847	-0.439064	1.039712
C110	C	1.434847	0.060936	1.539712
C111	C	0.934845	-0.439062	0.969025
C112	C	1.434845	0.060938	1.469025
C113	C	0.978114	-0.506267	0.933681
C114	C	1.478114	-0.006267	1.433681
C115	C	0.978115	-0.506260	0.857032
C116	C	1.478115	-0.006260	1.357032
C117	C	0.978113	-0.506249	0.795940
C118	C	1.478113	-0.006249	1.295940
C119	C	0.978107	-0.506270	1.150287
C120	C	1.478107	-0.006270	1.650287
C121	C	0.978114	-0.506265	1.075055
C122	C	1.478114	-0.006265	1.575055
H123	H	0.592222	-0.628339	0.404538
H124	H	1.092222	-0.128339	0.904538
H125	H	0.364695	-0.628360	0.404555
H126	H	0.864695	-0.128360	0.904555
Br127	Br	1.080117	-0.664655	1.087672
Br128	Br	1.580117	-0.164655	1.587672
H129	H	0.236451	-0.628369	0.404567
H130	H	0.736451	-0.128369	0.904567
H131	H	0.899602	-0.384338	0.712726
H132	H	1.399602	0.115662	1.212726
H133	H	0.899601	-1.105293	0.404647
H134	H	1.399601	-0.605293	0.904647
H135	H	0.899612	-0.384340	0.940253
H136	H	1.399612	0.115660	1.440253
Br137	Br	0.217257	-0.347655	0.224314
Br138	Br	0.717257	0.152345	0.724314
H139	H	1.064721	-0.806596	0.239622
H140	H	1.564721	-0.306596	0.739622
Br141	Br	0.876002	-0.876447	0.428091
Br142	Br	1.376002	-0.376447	0.928091
H143	H	1.064877	-1.204731	0.239706
H144	H	1.564877	-0.704731	0.739706
Br145	Br	0.876123	-0.347857	1.087682
Br146	Br	1.376123	0.152143	1.587682
Br147	Br	0.383871	-0.347617	0.224308
Br148	Br	0.883871	0.152383	0.724308
Br149	Br	0.739643	-0.347599	0.224277
Br150	Br	1.239643	0.152401	0.724277
Br151	Br	1.166862	-0.876282	0.137703
Br152	Br	1.666862	-0.376282	0.637703
H153	H	1.056613	-0.628194	0.940248
H154	H	1.556613	-0.128194	1.440248
Br155	Br	0.876118	-0.347835	0.565306
Br156	Br	1.376118	0.152165	1.065306
Br157	Br	1.080101	-0.664654	0.731906
Br158	Br	1.580101	-0.164654	1.231906
H159	H	1.143430	-1.105139	0.161221
H160	H	1.643430	-0.605139	0.661221
H161	H	0.720455	-0.628336	0.404524
H162	H	1.220455	-0.128336	0.904524
Br163	Br	0.573023	-0.347612	0.224294
Br164	Br	1.073023	0.152388	0.724294
Br165	Br	1.080100	-0.664649	0.565286
Br166	Br	1.580100	-0.164649	1.065286
