data_functionalizedCrystal
_audit_creation_method	'MofGen! by Chris Wilmer'
_symmetry_space_group_name_H-M	'P1'
_symmetry_Int_Tables_number	1
_symmetry_cell_setting	triclinic
loop_
_symmetry_equiv_pos_as_xyz
  x,y,z
_cell_length_a	17.052862
_cell_length_b	17.052863
_cell_length_c	14.560432
_cell_angle_alpha	50.257718
_cell_angle_beta	89.999659
_cell_angle_gamma	79.480689
loop_
_atom_site_label
_atom_site_type_symbol
_atom_site_fract_x
_atom_site_fract_y
_atom_site_fract_z
Zr1	Zr	0.821216	1.132140	-0.465575
O2	O	0.728768	1.271054	-0.620435
O3	O	0.833362	0.968435	-0.393844
O4	O	0.856718	1.143104	-0.620431
O5	O	0.705410	1.096382	-0.242707
O6	O	0.976070	1.179954	-0.648021
O7	O	0.705411	1.096385	-0.393848
O8	O	0.934290	0.867502	-0.242700
O9	O	0.747190	1.408834	-0.648028
O10	O	0.947179	1.072452	-0.413150
O11	O	0.858107	1.044949	-0.279764
O12	O	0.885606	1.250600	-0.546540
O13	O	0.796534	1.223097	-0.413155
Zr14	Zr	1.011567	1.190907	-0.268525
Zr15	Zr	1.011570	1.190912	-0.509578
Zr16	Zr	0.821214	1.132136	-0.224521
Zr17	Zr	0.850598	1.351883	-0.509583
Zr18	Zr	0.982185	0.971165	-0.224516
O19	O	0.999422	1.354613	-0.340255
O20	O	0.999425	1.354619	-0.683002
O21	O	0.728764	1.271048	-0.277688
O22	O	1.104016	1.051994	-0.113665
O23	O	1.104019	1.052000	-0.456412
O24	O	0.833359	0.968429	-0.051098
O25	O	1.127374	1.226665	-0.491393
O26	O	0.976066	1.179944	-0.113669
O27	O	0.856713	1.143094	-0.086079
O28	O	1.127373	1.226663	-0.340251
O29	O	0.898496	1.455549	-0.683005
O30	O	0.934288	0.867499	-0.051094
O31	O	1.085594	0.914214	-0.086071
O32	O	1.085595	0.914218	-0.277677
O33	O	0.747188	1.408830	-0.456423
O34	O	0.898494	1.455546	-0.491400
O35	O	0.947177	1.072448	-0.187559
O36	O	1.036250	1.099951	-0.320945
O37	O	0.974677	1.278098	-0.454336
O38	O	0.885604	1.250596	-0.320950
C39	C	0.879640	0.886660	-0.312002
C40	C	0.867166	0.793373	-0.293319
C41	C	0.678289	1.088010	-0.312008
C42	C	0.597479	1.063060	-0.293327
C43	C	0.814810	0.735192	-0.214911
C44	C	0.803082	0.647551	-0.197364
C45	C	0.843715	0.618077	-0.258216
C46	C	0.896077	0.676254	-0.336619
C47	C	0.907801	0.763909	-0.354175
C48	C	0.936706	0.646794	-0.397480
C49	C	0.989068	0.704971	-0.475883
C50	C	1.000790	0.792616	-0.493435
C51	C	0.960157	0.822090	-0.432583
C52	C	0.924983	0.559139	-0.379925
C53	C	1.017974	0.587855	-0.519189
C54	C	1.029701	0.675497	-0.536735
C55	C	0.241124	1.364705	-0.519178
C56	C	0.317048	1.388150	-0.536728
C57	C	0.387159	1.306880	-0.475880
C58	C	0.381340	1.202160	-0.397478
C59	C	0.305409	1.178713	-0.379920
C60	C	0.451444	1.120888	-0.336621
C61	C	0.445624	1.016168	-0.258220
C62	C	0.369700	0.992725	-0.240666
C63	C	0.299589	1.073995	-0.301514
C64	C	0.527375	1.144335	-0.354180
C65	C	0.591659	0.958343	-0.214921
C66	C	0.515736	0.934898	-0.197372
C67	C	1.154495	1.235038	-0.422092
C68	C	1.235304	1.259988	-0.440772
C69	C	0.916395	1.161529	-0.668571
C70	C	0.916396	1.161531	-0.770904
C71	C	0.953144	1.436388	-0.422098
C72	C	0.965618	1.529674	-0.440781
C73	C	1.047901	1.202147	-0.801331
C74	C	1.113650	1.222458	-0.864621
C75	C	1.113647	1.222457	-0.960770
C76	C	1.047889	1.202140	-0.993627
C77	C	0.982140	1.181829	-0.930337
C78	C	0.982149	1.181835	-0.834190
C79	C	0.850639	1.141206	-0.899905
C80	C	0.850638	1.141214	-0.803761
C81	C	0.784881	1.120889	-0.932762
C82	C	0.719127	1.100585	-0.869477
C83	C	0.719133	1.100588	-0.773323
C84	C	0.784888	1.120903	-0.740471
C85	C	0.916389	1.161519	-0.065529
C86	C	0.916388	1.161517	0.036805
C87	C	1.117742	0.960174	-0.367043
C88	C	1.186079	0.891837	-0.367041
C89	C	0.879637	0.886655	-0.010481
C90	C	0.867162	0.793366	0.110536
C91	C	1.117739	0.960168	-0.065522
C92	C	1.186075	0.891830	0.036813
C93	C	0.715044	1.362880	-0.668577
C94	C	0.646709	1.431218	-0.770913
C95	C	0.715041	1.362874	-0.367056
C96	C	0.646705	1.431211	-0.367058
C97	C	0.953147	1.436393	-0.723619
C98	C	0.965621	1.529681	-0.844635
C99	C	1.171676	0.845392	-0.415180
C100	C	1.235880	0.781192	-0.415201
C101	C	1.314485	0.763434	-0.367075
C102	C	1.328886	0.809887	-0.318936
C103	C	1.264684	0.874091	-0.318923
C104	C	0.907798	0.763911	0.215506
C105	C	0.896075	0.676268	0.329221
C106	C	0.843721	0.618078	0.337963
C107	C	0.803081	0.647540	0.232981
C108	C	0.814800	0.735185	0.119269
C109	C	1.264669	0.874096	0.015243
C110	C	1.328886	0.809900	0.111385
C111	C	1.314507	0.763432	0.229097
C112	C	1.235906	0.781172	0.250665
C113	C	1.171691	0.845373	0.154523
C114	C	0.568116	1.448962	-0.749345
C115	C	0.503903	1.513186	-0.845493
C116	C	0.518282	1.559658	-0.963205
C117	C	0.596883	1.541913	-0.984772
C118	C	0.661096	1.477696	-0.888627
C119	C	0.661108	1.477665	-0.318931
C120	C	0.596908	1.541889	-0.318942
C121	C	0.518304	1.559651	-0.367072
C122	C	0.503902	1.513193	-0.415206
C123	C	0.568102	1.448977	-0.415203
C124	C	1.017981	1.587847	-0.853338
C125	C	1.029718	1.675495	-0.967038
C126	C	0.989090	1.704980	-1.072034
C127	C	0.936728	1.646805	-1.063327
C128	C	0.924996	1.559154	-0.949629
H129	H	0.882348	0.511780	-0.316089
F130	F	0.467963	1.331835	-0.494562
F131	F	0.649154	1.078962	-0.705965
F132	F	0.972642	0.915366	-0.451252
H133	H	0.784896	1.120913	-0.662188
H134	H	0.556392	1.411124	-0.653504
F135	F	0.612252	1.591319	-0.267704
F136	F	0.831234	0.524799	-0.239538
F137	F	0.449932	1.628001	-1.065521
H138	H	1.047896	1.202127	-1.071908
F139	F	0.323237	1.499596	-0.620163
F140	F	0.744738	1.458813	-0.911599
F141	F	1.061219	0.556495	-0.583960
F142	F	1.001582	1.798270	-1.193036
H143	H	0.184036	1.430864	-0.568704
H144	H	0.725106	1.463210	-0.279730
F145	F	0.649154	1.078956	-0.904444
H146	H	1.392895	0.795418	-0.279754
H147	H	0.466035	1.611942	-0.367067
H148	H	1.072335	0.722876	-0.600572
H149	H	0.237763	1.054912	-0.287232
F150	F	0.831257	0.524798	0.458996
F151	F	1.088025	0.864281	-0.466410
F152	F	1.088045	0.864233	0.177499
F153	F	1.279991	0.923546	-0.110028
F154	F	1.220536	0.731759	-0.466436
F155	F	0.784880	1.120881	-1.035087
H156	H	0.760453	0.600148	0.240118
H157	H	1.366755	0.711151	-0.367092
F158	F	0.771549	0.766519	0.007557
H159	H	1.043419	0.839992	-0.557285
F160	F	0.612174	1.591378	-1.110059
F161	F	1.412533	0.791029	0.088407
H162	H	1.051067	1.563856	-0.767857
H163	H	1.276421	0.911900	-0.279715
H164	H	0.439908	1.527621	-0.827908
F165	F	0.747357	0.585642	-0.113926
F166	F	1.220615	0.731709	0.375952
F167	F	0.533560	1.255782	-0.437618
H168	H	0.439894	1.527665	-0.454392
H169	H	0.556363	1.411152	-0.454389
H170	H	1.072354	1.722853	-0.974104
H171	H	0.364967	0.907455	-0.176815
F172	F	0.963524	0.825826	0.206230
F173	F	0.771566	0.766572	-0.150166
F174	F	0.939337	0.644928	0.440936
F175	F	0.893488	1.678203	-1.175085
H176	H	1.366802	0.711157	0.307372
F177	F	0.869260	1.497264	-0.940385
F178	F	0.666274	0.871843	-0.150160
F179	F	0.509531	0.823451	-0.113933
H180	H	1.047906	1.202162	-0.723052
H181	H	1.167191	1.238997	-0.837859
H182	H	1.167188	1.238990	-1.012299
