data_functionalizedCrystal
_audit_creation_method	'MofGen! by Chris Wilmer'
_symmetry_space_group_name_H-M	'P1'
_symmetry_Int_Tables_number	1
_symmetry_cell_setting	triclinic
loop_
_symmetry_equiv_pos_as_xyz
  x,y,z
_cell_length_a	9.065215
_cell_length_b	14.853569
_cell_length_c	7.540329
_cell_angle_alpha	89.995237
_cell_angle_beta	89.997574
_cell_angle_gamma	84.325131
loop_
_atom_site_label
_atom_site_type_symbol
_atom_site_fract_x
_atom_site_fract_y
_atom_site_fract_z
O1	O	1.957782	0.132178	-0.147467
O2	O	1.528282	0.143024	-0.147476
O3	O	1.754504	0.006456	-0.147454
O4	O	1.731561	0.268746	-0.147489
O5	O	1.754490	0.006455	0.147511
O6	O	1.528269	0.143022	0.147489
O7	O	1.957769	0.132177	0.147498
Cu8	Cu	1.743017	0.137599	0.174426
Cu9	Cu	1.743033	0.137601	-0.174404
O10	O	1.731547	0.268744	0.147476
C11	C	1.473309	0.141982	0.000006
C12	C	1.309528	0.138867	0.000003
C13	C	1.753457	-0.027141	0.000029
C14	C	1.750340	-0.127247	0.000030
C15	C	1.614498	-0.164628	0.000031
C16	C	1.883255	-0.183931	0.000017
C17	C	1.880332	-0.277986	0.000009
C18	C	1.744489	-0.315367	0.000010
C19	C	1.611570	-0.258693	0.000018
C20	C	2.013248	-0.334668	-0.000017
C21	C	2.010330	-0.428730	-0.000027
C22	C	1.874486	-0.466113	-0.000014
C23	C	1.741561	-0.409432	-0.000003
C24	C	1.605719	-0.446813	-0.000003
C25	C	1.472793	-0.390133	0.000020
C26	C	1.475726	-0.296075	0.000031
C27	C	1.871553	-0.560171	-0.000025
C28	C	1.602791	-0.540877	-0.000016
C29	C	2.012742	0.133219	0.000012
C30	C	2.176523	0.136334	0.000003
C31	C	1.732594	0.302342	-0.000011
C32	C	1.735710	0.402448	-0.000024
N33	N	1.743017	0.137597	0.419775
N34	N	1.743045	0.137596	-0.419753
H35	H	1.492170	-0.571305	0.000001
O36	O	2.153692	-0.489860	-0.000039
H37	H	2.158776	-0.533184	0.120178
O38	O	2.159754	-0.294349	-0.000019
H39	H	2.223619	-0.317008	-0.120261
H40	H	1.362189	-0.420581	0.000009
H41	H	1.993852	-0.153489	0.000052
H42	H	1.979779	-0.606315	-0.000061
H43	H	1.367505	-0.249919	0.000045
H44	H	1.506273	-0.118476	0.000056
