data_functionalizedCrystal
_audit_creation_method	'MofGen! by Chris Wilmer'
_symmetry_space_group_name_H-M	'P1'
_symmetry_Int_Tables_number	1
_symmetry_cell_setting	triclinic
loop_
_symmetry_equiv_pos_as_xyz
  x,y,z
_cell_length_a	19.077105
_cell_length_b	25.639239
_cell_length_c	25.639234
_cell_angle_alpha	89.978894
_cell_angle_beta	87.692243
_cell_angle_gamma	87.734929
loop_
_atom_site_label
_atom_site_type_symbol
_atom_site_fract_x
_atom_site_fract_y
_atom_site_fract_z
Zn1	Zn	1.075839	-0.240367	-0.327688
Zn2	Zn	1.409172	0.092966	0.005645
Zn3	Zn	1.742505	0.426299	0.338979
Zn4	Zn	1.075740	-0.327787	-0.240249
Zn5	Zn	1.409074	0.005546	0.093084
Zn6	Zn	1.742407	0.338880	0.426417
Zn7	Zn	0.958160	-0.236852	-0.236758
Zn8	Zn	1.291494	0.096481	0.096576
Zn9	Zn	1.624827	0.429815	0.429909
Zn10	Zn	0.958082	-0.324253	-0.324146
Zn11	Zn	1.291415	0.009080	0.009188
Zn12	Zn	1.624748	0.342414	0.342521
O13	O	1.016955	-0.282315	-0.282210
O14	O	1.350289	0.051019	0.051123
O15	O	1.683622	0.384352	0.384456
O16	O	1.174315	-0.254914	-0.319033
O17	O	1.507648	0.078419	0.014300
O18	O	1.840982	0.411753	0.347634
O19	O	1.060135	-0.315732	-0.166621
O20	O	1.393468	0.017601	0.166713
O21	O	1.726802	0.350935	0.500046
O22	O	0.973845	-0.164155	-0.248841
O23	O	1.307178	0.169178	0.084492
O24	O	1.640511	0.502511	0.417826
O25	O	1.174243	-0.319141	-0.254792
O26	O	1.507576	0.014193	0.078541
O27	O	1.840909	0.347526	0.411875
O28	O	1.060302	-0.166738	-0.315647
O29	O	1.393636	0.166595	0.017686
O30	O	1.726969	0.499929	0.351020
O31	O	0.973750	-0.248922	-0.164055
O32	O	1.307083	0.084411	0.169278
O33	O	1.640416	0.417744	0.502611
O34	O	0.859661	-0.245496	-0.245406
O35	O	1.192994	0.087838	0.087927
O36	O	1.526327	0.421171	0.421260
O37	O	0.973710	-0.313118	-0.397781
O38	O	1.307044	0.020216	-0.064448
O39	O	1.640377	0.353549	0.268886
O40	O	0.859603	-0.309709	-0.309610
O41	O	1.192936	0.023624	0.023724
O42	O	1.526269	0.356958	0.357057
O43	O	1.060226	-0.251487	-0.400384
O44	O	1.393559	0.081846	-0.067050
O45	O	1.726893	0.415179	0.266283
O46	O	1.060059	-0.400481	-0.251357
O47	O	1.393392	-0.067148	0.081976
O48	O	1.726725	0.266186	0.415309
O49	O	0.973615	-0.397885	-0.312995
O50	O	1.306949	-0.064551	0.020338
O51	O	1.640282	0.268782	0.353671
C52	C	0.834094	-0.276838	-0.276745
C53	C	1.167428	0.056496	0.056588
C54	C	1.500761	0.389829	0.389922
C55	C	0.755866	-0.274507	-0.274419
C56	C	1.089199	0.058826	0.058914
C57	C	1.422532	0.392160	0.392247
C58	C	1.016837	-0.418154	-0.282183
C59	C	1.350170	-0.084821	0.051151
C60	C	1.683504	0.248513	0.384484
C61	C	1.016851	-0.476268	-0.282190
C62	C	1.350184	-0.142935	0.051143
C63	C	1.683517	0.190398	0.384476
C64	C	0.719102	-0.306895	-0.306701
C65	C	1.052435	0.026438	0.026632
C66	C	1.385769	0.359772	0.359965
C67	C	0.645598	-0.304698	-0.304519
C68	C	0.978931	0.028635	0.028815
C69	C	1.312265	0.361968	0.362148
C70	C	0.608859	-0.270116	-0.270051
C71	C	0.942192	0.063217	0.063282
C72	C	1.275526	0.396551	0.396616
C73	C	0.645628	-0.237725	-0.237767
C74	C	0.978961	0.095609	0.095566
C75	C	1.312294	0.428942	0.428899
C76	C	0.719131	-0.239919	-0.239953
C77	C	1.052464	0.093414	0.093380
C78	C	1.385797	0.426748	0.426714
C79	C	0.389030	-0.259960	-0.259938
C80	C	0.722364	0.073373	0.073396
C81	C	1.055697	0.406707	0.406729
C82	C	0.315522	-0.257769	-0.257753
C83	C	0.648856	0.075564	0.075580
C84	C	0.982189	0.408898	0.408913
C85	C	0.315498	-0.324742	-0.324505
C86	C	0.648831	0.008591	0.008828
C87	C	0.982164	0.341924	0.342161
C88	C	0.389002	-0.326936	-0.326686
C89	C	0.722335	0.006397	0.006648
C90	C	1.055669	0.339731	0.339981
C91	C	0.425764	-0.294543	-0.294404
C92	C	0.759098	0.038791	0.038929
C93	C	1.092431	0.372124	0.372262
N94	N	0.533726	-0.267871	-0.267818
N95	N	0.867059	0.065462	0.065516
N96	N	1.200393	0.398796	0.398849
N97	N	0.500896	-0.296785	-0.296640
N98	N	0.834229	0.036548	0.036693
N99	N	1.167563	0.369881	0.370026
C100	C	1.062084	-0.837977	-0.250176
C101	C	1.395417	-0.504644	0.083158
C102	C	1.728750	-0.171311	0.416491
C103	C	1.062111	-0.892582	-0.250183
C104	C	1.395444	-0.559249	0.083150
C105	C	1.728778	-0.225916	0.416483
O106	O	1.100447	-0.921960	-0.222934
O107	O	1.433780	-0.588627	0.110400
O108	O	1.767114	-0.255293	0.443733
N109	N	1.017079	-0.918558	-0.282249
N110	N	1.350412	-0.585224	0.051085
N111	N	1.683746	-0.251891	0.384418
C112	C	0.972022	-0.889925	-0.314312
C113	C	1.305355	-0.556591	0.019022
C114	C	1.638688	-0.223258	0.352355
O115	O	0.933721	-0.917033	-0.341587
O116	O	1.267055	-0.583699	-0.008253
O117	O	1.600388	-0.250366	0.325080
C118	C	0.971998	-0.835321	-0.314306
C119	C	1.305332	-0.501987	0.019027
C120	C	1.638665	-0.168654	0.352360
C121	C	1.017028	-0.809348	-0.282235
C122	C	1.350362	-0.476015	0.051098
C123	C	1.683695	-0.142682	0.384431
C124	C	1.107111	-0.812005	-0.218108
C125	C	1.440444	-0.478671	0.115226
C126	C	1.773777	-0.145338	0.448559
C127	C	1.107082	-0.757403	-0.218099
C128	C	1.440416	-0.424070	0.115234
C129	C	1.773749	-0.090737	0.448567
C130	C	1.062027	-0.728775	-0.250159
C131	C	1.395360	-0.395441	0.083174
C132	C	1.728694	-0.062108	0.416508
C133	C	1.017000	-0.754747	-0.282227
C134	C	1.350333	-0.421414	0.051106
C135	C	1.683667	-0.088080	0.384440
C136	C	0.926945	-0.806689	-0.346372
C137	C	1.260279	-0.473356	-0.013039
C138	C	1.593612	-0.140022	0.320295
C139	C	0.926926	-0.752082	-0.346364
C140	C	1.260260	-0.418748	-0.013031
C141	C	1.593593	-0.085415	0.320303
C142	C	0.971956	-0.726109	-0.314293
C143	C	1.305290	-0.392776	0.019040
C144	C	1.638623	-0.059443	0.352374
C145	C	0.971916	-0.671517	-0.314278
C146	C	1.305250	-0.338183	0.019055
C147	C	1.638583	-0.004850	0.352389
N148	N	1.016949	-0.645542	-0.282213
N149	N	1.350282	-0.312208	0.051120
N150	N	1.683615	0.021125	0.384454
C151	C	1.062004	-0.674171	-0.250153
C152	C	1.395337	-0.340837	0.083180
C153	C	1.728670	-0.007504	0.416513
C154	C	0.972075	-1.004597	-0.314321
C155	C	1.305408	-0.671264	0.019012
C156	C	1.638741	-0.337930	0.352345
C157	C	0.972094	-1.059200	-0.314324
C158	C	1.305427	-0.725867	0.019009
C159	C	1.638760	-0.392533	0.352342
C160	C	1.062184	-1.061854	-0.250197
C161	C	1.395518	-0.728520	0.083137
C162	C	1.728851	-0.395187	0.416470
C163	C	1.062161	-1.007250	-0.250191
C164	C	1.395494	-0.673916	0.083142
C165	C	1.728828	-0.340583	0.416475
C166	C	1.017107	-0.978622	-0.282256
C167	C	1.350440	-0.645289	0.051077
C168	C	1.683773	-0.311955	0.384410
C169	C	1.061940	-0.559504	-0.250138
C170	C	1.395274	-0.226170	0.083195
C171	C	1.728607	0.107163	0.416529
C172	C	1.061906	-0.504897	-0.250131
C173	C	1.395239	-0.171564	0.083203
C174	C	1.728573	0.161769	0.416536
C175	C	0.971818	-0.502248	-0.314260
C176	C	1.305152	-0.168915	0.019073
C177	C	1.638485	0.164419	0.352406
C178	C	0.971850	-0.556850	-0.314266
C179	C	1.305183	-0.223516	0.019068
C180	C	1.638517	0.109817	0.352401
C181	C	1.016917	-0.585476	-0.282203
C182	C	1.350250	-0.252143	0.051130
C183	C	1.683583	0.081190	0.384464
O184	O	0.933602	-0.642105	-0.341516
O185	O	1.266935	-0.308772	-0.008182
O186	O	1.600269	0.024561	0.325151
O187	O	1.100304	-0.647056	-0.222888
O188	O	1.433638	-0.313723	0.110445
O189	O	1.766971	0.019611	0.443778
C190	C	1.200530	-0.287814	-0.287697
C191	C	1.533863	0.045520	0.045636
C192	C	1.867197	0.378853	0.378970
C193	C	1.278759	-0.290157	-0.290035
C194	C	1.612092	0.043176	0.043298
C195	C	1.945425	0.376510	0.376631
C196	C	1.016970	-0.282300	-0.418584
C197	C	1.350304	0.051033	-0.085250
C198	C	1.683637	0.384366	0.248083
C199	C	1.016977	-0.282294	-0.476698
C200	C	1.350310	0.051039	-0.143365
C201	C	1.683643	0.384372	0.189969
C202	C	1.017093	-0.145946	-0.282250
C203	C	1.350427	0.187387	0.051084
C204	C	1.683760	0.520721	0.384417
C205	C	1.017152	-0.087834	-0.282267
C206	C	1.350485	0.245500	0.051067
C207	C	1.683819	0.578833	0.384400
C208	C	0.971975	-0.314321	-0.726532
C209	C	1.305308	0.019012	-0.393199
C210	C	1.638642	0.352346	-0.059865
C211	C	0.971963	-0.314332	-0.671927
C212	C	1.305296	0.019001	-0.338594
C213	C	1.638629	0.352334	-0.005261
O214	O	0.933633	-0.341613	-0.642533
O215	O	1.266967	-0.008279	-0.309199
O216	O	1.600300	0.325054	0.024134
N217	N	1.017003	-0.282253	-0.645973
N218	N	1.350337	0.051080	-0.312639
N219	N	1.683670	0.384414	0.020694
C220	C	1.062055	-0.250156	-0.674626
C221	C	1.395388	0.083177	-0.341292
C222	C	1.728721	0.416511	-0.007959
O223	O	1.100364	-0.222871	-0.647535
O224	O	1.433697	0.110463	-0.314202
O225	O	1.767030	0.443796	0.019132
C226	C	1.062063	-0.250142	-0.729229
C227	C	1.395396	0.083191	-0.395896
C228	C	1.728729	0.416524	-0.062562
C229	C	1.017024	-0.282228	-0.755181
C230	C	1.350357	0.051106	-0.421848
C231	C	1.683691	0.384439	-0.088514
C232	C	0.926939	-0.346403	-0.752484
C233	C	1.260273	-0.013070	-0.419151
C234	C	1.593606	0.320263	-0.085817
C235	C	0.926953	-0.346393	-0.807085
C236	C	1.260286	-0.013059	-0.473752
C237	C	1.593619	0.320274	-0.140418
C238	C	0.972002	-0.314299	-0.835734
C239	C	1.305335	0.019034	-0.502401
C240	C	1.638669	0.352367	-0.169067
C241	C	1.017038	-0.282217	-0.809782
C242	C	1.350371	0.051116	-0.476449
C243	C	1.683704	0.384450	-0.143115
C244	C	1.107110	-0.218043	-0.757881
C245	C	1.440443	0.115290	-0.424548
C246	C	1.773776	0.448623	-0.091214
C247	C	1.107114	-0.218032	-0.812488
C248	C	1.440447	0.115301	-0.479155
C249	C	1.773780	0.448635	-0.145821
C250	C	1.062075	-0.250117	-0.838440
C251	C	1.395408	0.083216	-0.505107
C252	C	1.728742	0.416549	-0.171773
C253	C	1.062100	-0.250113	-0.893032
C254	C	1.395433	0.083220	-0.559699
C255	C	1.728767	0.416554	-0.226365
N256	N	1.017059	-0.282192	-0.918987
N257	N	1.350393	0.051141	-0.585653
N258	N	1.683726	0.384474	-0.252320
C259	C	0.972010	-0.314286	-0.890338
C260	C	1.305343	0.019048	-0.557004
C261	C	1.638677	0.352381	-0.223671
C262	C	1.062033	-0.250187	-0.559954
C263	C	1.395366	0.083146	-0.226621
C264	C	1.728700	0.416480	0.106712
C265	C	1.062029	-0.250203	-0.505352
C266	C	1.395362	0.083130	-0.172018
C267	C	1.728695	0.416464	0.161315
C268	C	0.971936	-0.314379	-0.502657
C269	C	1.305269	0.018955	-0.169324
C270	C	1.638602	0.352288	0.164009
C271	C	0.971944	-0.314365	-0.557261
C272	C	1.305277	0.018968	-0.223927
C273	C	1.638611	0.352302	0.109406
C274	C	1.016992	-0.282266	-0.585909
C275	C	1.350325	0.051067	-0.252576
C276	C	1.683659	0.384400	0.080758
C277	C	0.972042	-0.314261	-1.005004
C278	C	1.305376	0.019073	-0.671670
C279	C	1.638709	0.352406	-0.338337
C280	C	0.972062	-0.314249	-1.059610
C281	C	1.305395	0.019085	-0.726276
C282	C	1.638728	0.352418	-0.392943
C283	C	1.062152	-0.250071	-1.062299
C284	C	1.395485	0.083262	-0.728966
C285	C	1.728818	0.416595	-0.395633
C286	C	1.062135	-0.250085	-1.007698
C287	C	1.395469	0.083248	-0.674365
C288	C	1.728802	0.416582	-0.341032
C289	C	1.017075	-0.282181	-0.979052
C290	C	1.350408	0.051152	-0.645718
C291	C	1.683741	0.384485	-0.312385
O292	O	1.100408	-0.222845	-0.922460
O293	O	1.433741	0.110488	-0.589127
O294	O	1.767075	0.443822	-0.255794
O295	O	0.933701	-0.341561	-0.917435
O296	O	1.267034	-0.008228	-0.584101
O297	O	1.600368	0.325105	-0.250768
C298	C	1.016981	-0.282293	-0.146368
C299	C	1.350314	0.051041	0.186965
C300	C	1.683647	0.384374	0.520298
C301	C	1.017111	-0.282155	-0.088259
C302	C	1.350444	0.051178	0.245075
C303	C	1.683777	0.384511	0.578408
H304	H	0.749010	-0.335057	-0.334767
H305	H	1.082343	-0.001724	-0.001434
H306	H	1.415676	0.331609	0.331900
H307	H	0.749063	-0.213543	-0.213668
H308	H	1.082396	0.119791	0.119665
H309	H	1.415729	0.453124	0.452998
H310	H	1.143804	-0.835309	-0.192001
H311	H	1.477137	-0.501976	0.141332
H312	H	1.810471	-0.168642	0.474666
H313	H	0.935269	-0.340491	-0.578387
H314	H	1.268602	-0.007158	-0.245054
H315	H	1.601935	0.326175	0.088280
O316	O	0.878334	-0.381020	-0.721598
O317	O	1.211667	-0.047687	-0.388265
O318	O	1.545001	0.285647	-0.054932
H319	H	0.909789	-0.408576	-0.697654
H320	H	1.243122	-0.075242	-0.364320
H321	H	1.576456	0.258091	-0.030987
O322	O	1.110486	-0.476887	-0.215544
O323	O	1.443820	-0.143554	0.117790
O324	O	1.777153	0.189779	0.451123
H325	H	1.102899	-0.434107	-0.220920
H326	H	1.436232	-0.100774	0.112414
H327	H	1.769566	0.232559	0.445747
O328	O	0.923325	-0.348987	-0.471759
O329	O	1.256659	-0.015654	-0.138426
O330	O	1.589992	0.317680	0.194907
H331	H	0.954779	-0.376539	-0.447809
H332	H	1.288112	-0.043206	-0.114476
H333	H	1.621445	0.290128	0.218857
O334	O	0.923221	-0.471364	-0.348836
O335	O	1.256555	-0.138031	-0.015502
O336	O	1.589888	0.195302	0.317831
H337	H	0.935255	-0.482176	-0.390239
H338	H	1.268588	-0.148843	-0.056905
H339	H	1.601922	0.184490	0.276428
O340	O	0.605876	-0.339632	-0.339291
O341	O	0.939209	-0.006298	-0.005958
O342	O	1.272542	0.327035	0.327376
H343	H	0.572366	-0.365157	-0.314791
H344	H	0.905699	-0.031823	0.018543
H345	H	1.239033	0.301510	0.351876
O346	O	1.155689	-0.183437	-0.729899
O347	O	1.489023	0.149897	-0.396566
O348	O	1.822356	0.483230	-0.063232
H349	H	1.143652	-0.142041	-0.740028
H350	H	1.476986	0.191292	-0.406694
H351	H	1.810319	0.524626	-0.073361
H352	H	1.098640	-0.582805	-0.224031
H353	H	1.431973	-0.249472	0.109303
H354	H	1.765306	0.083862	0.442636
H355	H	1.098711	-0.224082	-0.484227
H356	H	1.432045	0.109252	-0.150893
H357	H	1.765378	0.442585	0.182440
O358	O	1.110634	-0.215572	-0.590853
O359	O	1.443967	0.117761	-0.257520
O360	O	1.777300	0.451094	0.075813
H361	H	1.141954	-0.193275	-0.563628
H362	H	1.475287	0.140059	-0.230295
H363	H	1.808620	0.473392	0.103039
H364	H	1.143752	-0.736260	-0.191986
H365	H	1.477085	-0.402927	0.141347
H366	H	1.810418	-0.069593	0.474681
O367	O	0.275882	-0.220484	-0.220566
O368	O	0.609215	0.112850	0.112768
O369	O	0.942549	0.446183	0.446101
H370	H	0.242406	-0.192924	-0.243012
H371	H	0.575739	0.140409	0.090321
H372	H	0.909073	0.473743	0.423655
H373	H	0.615709	-0.209565	-0.209705
H374	H	0.949042	0.123769	0.123628
H375	H	1.282376	0.457102	0.456961
O376	O	0.428632	-0.364239	-0.363856
O377	O	0.761965	-0.030906	-0.030523
O378	O	1.095298	0.302427	0.302811
H379	H	0.462159	-0.341881	-0.391492
H380	H	0.795492	-0.008548	-0.058159
H381	H	1.128826	0.324786	0.275174
H382	H	0.285558	-0.351115	-0.350788
H383	H	0.618891	-0.017781	-0.017455
H384	H	0.952224	0.315552	0.315879
O385	O	0.878364	-0.380990	-0.835073
O386	O	1.211697	-0.047657	-0.501740
O387	O	1.545030	0.285677	-0.168406
H388	H	0.847034	-0.403300	-0.805971
H389	H	1.180367	-0.069966	-0.472637
H390	H	1.513700	0.263367	-0.139304
H391	H	0.935380	-0.981290	-0.340431
H392	H	1.268714	-0.647957	-0.007098
H393	H	1.602047	-0.314624	0.326236
O394	O	0.923519	-1.087213	-0.348908
O395	O	1.256852	-0.753879	-0.015575
O396	O	1.590185	-0.420546	0.317759
H397	H	0.935547	-1.077064	-0.390308
H398	H	1.268880	-0.743731	-0.056975
H399	H	1.602214	-0.410398	0.276358
H400	H	0.418954	-0.233587	-0.233648
H401	H	0.752287	0.099746	0.099686
H402	H	1.085620	0.433080	0.433019
O403	O	0.878328	-0.721207	-0.380950
O404	O	1.211662	-0.387874	-0.047617
O405	O	1.544995	-0.054541	0.285716
H406	H	0.885874	-0.678873	-0.375563
H407	H	1.219207	-0.345540	-0.042230
H408	H	1.552541	-0.012207	0.291103
O409	O	1.110735	-0.979237	-0.215607
O410	O	1.444069	-0.645904	0.117726
O411	O	1.777402	-0.312571	0.451060
H412	H	1.142070	-1.008324	-0.193319
H413	H	1.475403	-0.674991	0.140014
H414	H	1.808736	-0.341657	0.473347
H415	H	1.098873	-1.085173	-0.224094
H416	H	1.432207	-0.751840	0.109239
H417	H	1.765540	-0.418507	0.442573
H418	H	0.890274	-0.827826	-0.372485
H419	H	1.223607	-0.494493	-0.039152
H420	H	1.556940	-0.161160	0.294182
H421	H	0.935185	-0.577997	-0.340382
H422	H	1.268518	-0.244664	-0.007049
H423	H	1.601852	0.088669	0.326285
O424	O	0.923444	-0.348878	-0.974109
O425	O	1.256777	-0.015545	-0.640776
O426	O	1.590111	0.317789	-0.307442
H427	H	0.887649	-0.324409	-0.948172
H428	H	1.220982	0.008924	-0.614839
H429	H	1.554315	0.342257	-0.281506
H430	H	0.935385	-0.340379	-1.080737
H431	H	1.268719	-0.007045	-0.747404
H432	H	1.602052	0.326288	-0.414070
H433	H	1.143795	-0.191890	-0.835811
H434	H	1.477129	0.141443	-0.502477
H435	H	1.810462	0.474776	-0.169144
H436	H	1.098814	-0.223962	-0.986567
H437	H	1.432148	0.109371	-0.653234
H438	H	1.765481	0.442704	-0.319901
O439	O	1.110719	-0.215440	-1.093203
O440	O	1.444052	0.117893	-0.759870
O441	O	1.777385	0.451226	-0.426536
H442	H	1.103143	-0.220816	-1.135531
H443	H	1.436477	0.112517	-0.802197
H444	H	1.769810	0.445851	-0.468864
