data_functionalizedCrystal
_audit_creation_method	'MofGen! by Chris Wilmer'
_symmetry_space_group_name_H-M	'P1'
_symmetry_Int_Tables_number	1
_symmetry_cell_setting	triclinic
loop_
_symmetry_equiv_pos_as_xyz
  x,y,z
_cell_length_a	19.121063
_cell_length_b	19.121274
_cell_length_c	19.120915
_cell_angle_alpha	94.963843
_cell_angle_beta	85.261346
_cell_angle_gamma	90.075254
loop_
_atom_site_label
_atom_site_type_symbol
_atom_site_fract_x
_atom_site_fract_y
_atom_site_fract_z
Zn1	Zn	-0.339806	-1.043481	0.367080
Zn2	Zn	-0.089806	-0.793481	0.617080
Zn3	Zn	0.160194	-0.543481	0.867080
Zn4	Zn	0.410194	-0.293481	1.117080
Zn5	Zn	-0.452456	-1.043398	0.254435
Zn6	Zn	-0.202456	-0.793398	0.504435
Zn7	Zn	0.047544	-0.543398	0.754435
Zn8	Zn	0.297544	-0.293398	1.004435
Zn9	Zn	-0.330220	-0.931277	0.254024
Zn10	Zn	-0.080220	-0.681277	0.504024
Zn11	Zn	0.169780	-0.431277	0.754024
Zn12	Zn	0.419780	-0.181277	1.004024
Zn13	Zn	-0.452410	-0.920766	0.377072
Zn14	Zn	-0.202410	-0.670766	0.627072
Zn15	Zn	0.047590	-0.420766	0.877072
Zn16	Zn	0.297590	-0.170766	1.127072
O17	O	-0.393723	-0.984730	0.313152
O18	O	-0.143723	-0.734730	0.563152
O19	O	0.106277	-0.484730	0.813152
O20	O	0.356277	-0.234730	1.063152
O21	O	-0.358781	-1.141750	0.348128
O22	O	-0.108781	-0.891750	0.598128
O23	O	0.141219	-0.641750	0.848128
O24	O	0.391219	-0.391750	1.098128
O25	O	-0.432248	-1.032889	0.155742
O26	O	-0.182248	-0.782889	0.405742
O27	O	0.067752	-0.532889	0.655742
O28	O	0.317752	-0.282889	0.905742
O29	O	-0.233210	-0.950594	0.264667
O30	O	0.016790	-0.700594	0.514667
O31	O	0.266790	-0.450594	0.764667
O32	O	0.516790	-0.200594	1.014667
O33	O	-0.441544	-1.141689	0.265368
O34	O	-0.191544	-0.891689	0.515368
O35	O	0.058456	-0.641689	0.765368
O36	O	0.308456	-0.391689	1.015368
O37	O	-0.240254	-1.033030	0.347729
O38	O	0.009746	-0.783030	0.597729
O39	O	0.259746	-0.533030	0.847729
O40	O	0.509746	-0.283030	1.097729
O41	O	-0.342442	-0.950514	0.155440
O42	O	-0.092442	-0.700514	0.405440
O43	O	0.157558	-0.450514	0.655440
O44	O	0.407558	-0.200514	0.905440
O45	O	-0.342397	-0.831603	0.274356
O46	O	-0.092397	-0.581603	0.524356
O47	O	0.157603	-0.331603	0.774356
O48	O	0.407603	-0.081603	1.024356
O49	O	-0.441465	-0.932680	0.474385
O50	O	-0.191465	-0.682680	0.724385
O51	O	0.058535	-0.432680	0.974385
O52	O	0.308535	-0.182680	1.224385
O53	O	-0.432170	-0.823881	0.364758
O54	O	-0.182170	-0.573881	0.614758
O55	O	0.067830	-0.323881	0.864758
O56	O	0.317830	-0.073881	1.114758
O57	O	-0.358736	-1.022838	0.467044
O58	O	-0.108736	-0.772838	0.717044
O59	O	0.141264	-0.522838	0.967044
O60	O	0.391264	-0.272838	1.217044
O61	O	-0.550731	-1.022697	0.275056
O62	O	-0.300731	-0.772697	0.525056
O63	O	-0.050731	-0.522697	0.775056
O64	O	0.199269	-0.272697	1.025056
O65	O	-0.550697	-0.932600	0.365157
O66	O	-0.300697	-0.682600	0.615157
O67	O	-0.050697	-0.432600	0.865157
O68	O	0.199303	-0.182600	1.115157
C69	C	-0.386239	-0.802259	0.320597
C70	C	-0.136239	-0.552259	0.570597
C71	C	0.113761	-0.302259	0.820597
C72	C	0.363761	-0.052259	1.070597
C73	C	-0.383055	-0.724195	0.323799
C74	C	-0.133055	-0.474195	0.573799
C75	C	0.116945	-0.224195	0.823799
C76	C	0.366945	0.025805	1.073799
C77	C	-0.424573	-0.687492	0.282145
C78	C	-0.174573	-0.437492	0.532145
C79	C	0.075427	-0.187492	0.782145
C80	C	0.325427	0.062508	1.032145
C81	C	-0.421582	-0.614143	0.285163
C82	C	-0.171582	-0.364143	0.535163
C83	C	0.078418	-0.114143	0.785163
C84	C	0.328418	0.135857	1.035163
C85	C	-0.377068	-0.577498	0.329833
C86	C	-0.127068	-0.327498	0.579833
C87	C	0.122932	-0.077498	0.829833
C88	C	0.372932	0.172502	1.079833
C89	C	-0.335548	-0.614206	0.371492
C90	C	-0.085548	-0.364206	0.621492
C91	C	0.164452	-0.114206	0.871492
C92	C	0.414452	0.135794	1.121492
C93	C	-0.338543	-0.687553	0.368477
C94	C	-0.088543	-0.437553	0.618477
C95	C	0.161457	-0.187553	0.868477
C96	C	0.411457	0.062447	1.118477
C97	C	-0.365875	-0.356036	0.341099
C98	C	-0.115875	-0.106036	0.591099
C99	C	0.134125	0.143964	0.841099
C100	C	0.384125	0.393964	1.091099
C101	C	-0.362882	-0.282683	0.344109
C102	C	-0.112882	-0.032683	0.594109
C103	C	0.137118	0.217317	0.844109
C104	C	0.387118	0.467317	1.094109
C105	C	-0.448917	-0.282625	0.257781
C106	C	-0.198917	-0.032625	0.507781
C107	C	0.051083	0.217375	0.757781
C108	C	0.301083	0.467375	1.007781
C109	C	-0.451905	-0.355975	0.254766
C110	C	-0.201905	-0.105975	0.504766
C111	C	0.048095	0.144025	0.754766
C112	C	0.298095	0.394025	1.004766
C113	C	-0.410388	-0.392676	0.296428
C114	C	-0.160388	-0.142676	0.546428
C115	C	0.089612	0.107324	0.796428
C116	C	0.339612	0.357324	1.046428
C117	C	-0.374008	-0.502523	0.332917
C118	C	-0.124008	-0.252523	0.582917
C119	C	0.125992	-0.002523	0.832917
C120	C	0.375992	0.247477	1.082917
C121	C	-0.413452	-0.467649	0.293347
C122	C	-0.163452	-0.217649	0.543347
C123	C	0.086548	0.032351	0.793347
C124	C	0.336548	0.282351	1.043347
C125	C	-0.576198	-0.976517	0.321250
C126	C	-0.326198	-0.726517	0.571250
C127	C	-0.076198	-0.476517	0.821250
C128	C	0.173802	-0.226517	1.071250
C129	C	-0.654266	-0.973067	0.324735
C130	C	-0.404266	-0.723067	0.574735
C131	C	-0.154266	-0.473067	0.824735
C132	C	0.095734	-0.223067	1.074735
C133	C	-0.690939	-1.018388	0.279498
C134	C	-0.440939	-0.768388	0.529498
C135	C	-0.190939	-0.518388	0.779498
C136	C	0.059061	-0.268388	1.029498
C137	C	-0.764292	-1.015147	0.282779
C138	C	-0.514292	-0.765147	0.532779
C139	C	-0.264292	-0.515147	0.782779
C140	C	-0.014292	-0.265147	1.032779
C141	C	-0.800970	-0.966581	0.331296
C142	C	-0.550970	-0.716581	0.581296
C143	C	-0.300970	-0.466581	0.831296
C144	C	-0.050970	-0.216581	1.081296
C145	C	-0.764291	-0.921258	0.376538
C146	C	-0.514291	-0.671258	0.626538
C147	C	-0.264291	-0.421258	0.876538
C148	C	-0.014291	-0.171258	1.126538
C149	C	-0.690940	-0.924503	0.373259
C150	C	-0.440940	-0.674503	0.623259
C151	C	-0.190940	-0.424503	0.873259
C152	C	0.059060	-0.174503	1.123259
C153	C	-1.022444	-0.954438	0.343544
C154	C	-0.772444	-0.704438	0.593544
C155	C	-0.522444	-0.454438	0.843544
C156	C	-0.272444	-0.204438	1.093544
C157	C	-1.095800	-0.951195	0.346818
C158	C	-0.845800	-0.701195	0.596818
C159	C	-0.595800	-0.451195	0.846818
C160	C	-0.345800	-0.201195	1.096818
C161	C	-1.095795	-1.045085	0.253059
C162	C	-0.845795	-0.795085	0.503059
C163	C	-0.595795	-0.545085	0.753059
C164	C	-0.345795	-0.295085	1.003059
C165	C	-1.022442	-1.048323	0.249782
C166	C	-0.772442	-0.798323	0.499782
C167	C	-0.522442	-0.548323	0.749782
C168	C	-0.272442	-0.298323	0.999782
C169	C	-0.985771	-1.003002	0.295027
C170	C	-0.735771	-0.753002	0.545027
C171	C	-0.485771	-0.503002	0.795027
C172	C	-0.235771	-0.253002	1.045027
C173	C	-0.875948	-0.963265	0.334650
C174	C	-0.625948	-0.713265	0.584650
C175	C	-0.375948	-0.463265	0.834650
C176	C	-0.125948	-0.213265	1.084650
C177	C	-0.910794	-1.006322	0.291676
C178	C	-0.660794	-0.756322	0.541676
C179	C	-0.410794	-0.506322	0.791676
C180	C	-0.160794	-0.256322	1.041676
C181	C	-0.210536	-0.992994	0.305038
C182	C	0.039464	-0.742994	0.555038
C183	C	0.289464	-0.492994	0.805038
C184	C	0.539464	-0.242994	1.055038
C185	C	-0.132473	-0.996516	0.301580
C186	C	0.117527	-0.746516	0.551580
C187	C	0.367527	-0.496516	0.801580
C188	C	0.617527	-0.246516	1.051580
C189	C	-0.401165	-0.976596	0.497005
C190	C	-0.151165	-0.726596	0.747005
C191	C	0.098835	-0.476596	0.997005
C192	C	0.348835	-0.226596	1.247005
C193	C	-0.404337	-0.973130	0.575353
C194	C	-0.154337	-0.723130	0.825353
C195	C	0.095663	-0.473130	1.075353
C196	C	0.345663	-0.223130	1.325353
C197	C	-0.401227	-0.167915	0.305669
C198	C	-0.151227	0.082085	0.555669
C199	C	0.098773	0.332085	0.805669
C200	C	0.348773	0.582085	1.055669
C201	C	-0.404400	-0.245980	0.302454
C202	C	-0.154400	0.004020	0.552454
C203	C	0.095600	0.254020	0.802454
C204	C	0.345600	0.504020	1.052454
C205	C	-0.386261	-0.992876	0.130011
C206	C	-0.136261	-0.742876	0.380011
C207	C	0.113739	-0.492876	0.630011
C208	C	0.363739	-0.242876	0.880011
C209	C	-0.382897	-0.996487	0.051650
C210	C	-0.132897	-0.746487	0.301650
C211	C	0.117103	-0.496487	0.551650
C212	C	0.367103	-0.246487	0.801650
C213	C	-0.424473	-0.951175	1.018662
C214	C	-0.174473	-0.701175	1.268662
C215	C	0.075527	-0.451175	1.518662
C216	C	0.325527	-0.201175	1.768662
C217	C	-0.421483	-0.954430	0.945046
C218	C	-0.171483	-0.704430	1.195046
C219	C	0.078517	-0.454430	1.445046
C220	C	0.328517	-0.204430	1.695046
C221	C	-0.376919	-1.003001	0.904419
C222	C	-0.126919	-0.753001	1.154419
C223	C	0.123081	-0.503001	1.404419
C224	C	0.373081	-0.253001	1.654419
C225	C	-0.335338	-1.048315	0.937413
C226	C	-0.085338	-0.798315	1.187413
C227	C	0.164662	-0.548315	1.437413
C228	C	0.414662	-0.298315	1.687413
C229	C	-0.338325	-1.045056	1.011027
C230	C	-0.088325	-0.795056	1.261027
C231	C	0.161675	-0.545056	1.511027
C232	C	0.411675	-0.295056	1.761027
C233	C	-0.365742	-1.015185	0.681960
C234	C	-0.115742	-0.765185	0.931960
C235	C	0.134258	-0.515185	1.181960
C236	C	0.384258	-0.265185	1.431960
C237	C	-0.362760	-1.018442	0.608341
C238	C	-0.112760	-0.768442	0.858341
C239	C	0.137240	-0.518442	1.108341
C240	C	0.387240	-0.268442	1.358341
C241	C	-0.448904	-0.924555	0.615979
C242	C	-0.198904	-0.674555	0.865979
C243	C	0.051096	-0.424555	1.115979
C244	C	0.301096	-0.174555	1.365979
C245	C	-0.451891	-0.921304	0.689595
C246	C	-0.201891	-0.671304	0.939595
C247	C	0.048109	-0.421304	1.189595
C248	C	0.298109	-0.171304	1.439595
C249	C	-0.410307	-0.966615	0.722581
C250	C	-0.160307	-0.716615	0.972581
C251	C	0.089693	-0.466615	1.222581
C252	C	0.339693	-0.216615	1.472581
C253	C	-0.373863	-1.006330	0.829172
C254	C	-0.123863	-0.756330	1.079172
C255	C	0.126137	-0.506330	1.329172
C256	C	0.376137	-0.256330	1.579172
C257	C	-0.413359	-0.963282	0.797827
C258	C	-0.163359	-0.713282	1.047827
C259	C	0.086641	-0.463282	1.297827
C260	C	0.336641	-0.213282	1.547827
H261	H	-0.304734	-0.717436	0.402396
H262	H	-0.054734	-0.467436	0.652396
H263	H	0.195266	-0.217436	0.902396
H264	H	0.445266	0.032564	1.152396
H265	H	-1.125662	-0.911654	0.386337
H266	H	-0.875662	-0.661654	0.636337
H267	H	-0.625662	-0.411654	0.886337
H268	H	-0.375662	-0.161654	1.136337
H269	H	-0.661081	-0.887598	0.410097
H270	H	-0.411081	-0.637598	0.660097
H271	H	-0.161081	-0.387598	0.910097
H272	H	0.088919	-0.137598	1.160097
H273	H	-0.460765	-0.911625	1.051735
H274	H	-0.210765	-0.661625	1.301735
H275	H	0.039235	-0.411625	1.551735
H276	H	0.289235	-0.161625	1.801735
H277	H	-0.794148	-1.052052	0.245942
H278	H	-0.544148	-0.802052	0.495942
H279	H	-0.294148	-0.552052	0.745942
H280	H	-0.044148	-0.302052	0.995942
F281	F	-0.287895	-1.099995	0.894173
F282	F	-0.037895	-0.849995	1.144173
F283	F	0.212105	-0.599995	1.394173
F284	F	0.462105	-0.349995	1.644173
F285	F	-0.465732	-0.906199	0.909941
F286	F	-0.215732	-0.656199	1.159941
F287	F	0.034268	-0.406199	1.409941
F288	F	0.284268	-0.156199	1.659941
H289	H	-0.449699	-0.497488	0.256981
H290	H	-0.199699	-0.247488	0.506981
H291	H	0.050301	0.002512	0.756981
H292	H	0.300301	0.252512	1.006981
F293	F	-0.493101	-0.243560	0.213446
F294	F	-0.243101	0.006440	0.463446
F295	F	0.006899	0.256440	0.713446
F296	F	0.256899	0.506440	0.963446
H297	H	-0.661080	-1.057933	0.239988
H298	H	-0.411080	-0.807933	0.489988
H299	H	-0.161080	-0.557933	0.739988
H300	H	0.088920	-0.307933	0.989988
H301	H	-0.488180	-0.881752	0.722668
H302	H	-0.238180	-0.631752	0.972668
H303	H	0.011820	-0.381752	1.222668
H304	H	0.261820	-0.131752	1.472668
F305	F	-0.315498	-0.243684	0.391651
F306	F	-0.065498	0.006316	0.641651
F307	F	0.184502	0.256316	0.891651
F308	F	0.434502	0.506316	1.141651
H309	H	-0.449639	-0.923732	0.830908
H310	H	-0.199639	-0.673732	1.080908
H311	H	0.050361	-0.423732	1.330908
H312	H	0.300361	-0.173732	1.580908
F313	F	-0.983424	-0.906202	0.391697
F314	F	-0.733424	-0.656202	0.641697
F315	F	-0.483424	-0.406202	0.891697
F316	F	-0.233424	-0.156202	1.141697
H317	H	-0.880929	-1.045867	0.252176
H318	H	-0.630929	-0.795867	0.502176
H319	H	-0.380929	-0.545867	0.752176
H320	H	-0.130929	-0.295867	1.002176
H321	H	-0.488152	-0.385806	0.218391
H322	H	-0.238152	-0.135806	0.468391
H323	H	0.011848	0.114194	0.718391
H324	H	0.261848	0.364194	0.968391
H325	H	-0.332070	-0.385909	0.375024
H326	H	-0.082070	-0.135909	0.625024
H327	H	0.167930	0.114091	0.875024
H328	H	0.417930	0.364091	1.125024
H329	H	-0.992581	-1.087869	0.210276
H330	H	-0.742581	-0.837869	0.460276
H331	H	-0.492581	-0.587869	0.710276
H332	H	-0.242581	-0.337869	0.960276
F333	F	-0.326635	-0.463516	0.380458
F334	F	-0.076635	-0.213516	0.630458
F335	F	0.173365	0.036484	0.880458
F336	F	0.423365	0.286484	1.130458
F337	F	-0.288178	-0.575203	0.419038
F338	F	-0.038178	-0.325203	0.669038
F339	F	0.211822	-0.075203	0.919038
F340	F	0.461822	0.174797	1.169038
F341	F	-1.134829	-1.093318	0.204913
F342	F	-0.884829	-0.843318	0.454913
F343	F	-0.634829	-0.593318	0.704913
F344	F	-0.384829	-0.343318	0.954913
F345	F	-0.803329	-0.869574	0.428177
F346	F	-0.553329	-0.619574	0.678177
F347	F	-0.303329	-0.369574	0.928177
F348	F	-0.053329	-0.119574	1.178177
F349	F	-0.914990	-0.911578	0.386282
F350	F	-0.664990	-0.661578	0.636282
F351	F	-0.414990	-0.411578	0.886282
F352	F	-0.164990	-0.161578	1.136282
H353	H	-0.326467	-1.057995	0.575264
H354	H	-0.076467	-0.807995	0.825264
H355	H	0.173533	-0.557995	1.075264
H356	H	0.423533	-0.307995	1.325264
F357	F	-0.493155	-0.876332	0.580867
F358	F	-0.243155	-0.626332	0.830867
F359	F	0.006845	-0.376332	1.080867
F360	F	0.256845	-0.126332	1.330867
F361	F	-0.321515	-1.063438	0.717058
F362	F	-0.071515	-0.813438	0.967058
F363	F	0.178485	-0.563438	1.217058
F364	F	0.428485	-0.313438	1.467058
F365	F	-0.294066	-1.093278	1.046135
F366	F	-0.044066	-0.843278	1.296135
F367	F	0.205934	-0.593278	1.546135
F368	F	0.455934	-0.343278	1.796135
H369	H	-0.460819	-0.717324	0.245767
H370	H	-0.210819	-0.467324	0.495767
H371	H	0.039181	-0.217324	0.745767
H372	H	0.289181	0.032676	0.995767
F373	F	-0.465759	-0.575085	0.240815
F374	F	-0.215759	-0.325085	0.490815
F375	F	0.034241	-0.075085	0.740815
F376	F	0.284241	0.174915	0.990815
H377	H	-0.337581	-1.045879	0.796086
H378	H	-0.087581	-0.795879	1.046086
H379	H	0.162419	-0.545879	1.296086
H380	H	0.412419	-0.295879	1.546086
