data_functionalizedCrystal
_audit_creation_method	'MofGen! by Chris Wilmer'
_symmetry_space_group_name_H-M	'P1'
_symmetry_Int_Tables_number	1
_symmetry_cell_setting	triclinic
loop_
_symmetry_equiv_pos_as_xyz
  x,y,z
_cell_length_a	18.050590
_cell_length_b	18.050591
_cell_length_c	16.625539
_cell_angle_alpha	89.976914
_cell_angle_beta	90.014297
_cell_angle_gamma	90.007285
loop_
_atom_site_label
_atom_site_type_symbol
_atom_site_fract_x
_atom_site_fract_y
_atom_site_fract_z
Zn1	Zn	0.295751	1.135471	-0.456107
Zn2	Zn	0.795751	1.635471	0.043893
Zn3	Zn	0.419944	1.135445	-0.321303
Zn4	Zn	0.919944	1.635445	0.178697
Zn5	Zn	0.295764	1.011286	-0.321273
Zn6	Zn	0.795764	1.511286	0.178727
Zn7	Zn	0.419895	1.011307	-0.456079
Zn8	Zn	0.919895	1.511307	0.043921
O9	O	0.357839	1.073377	-0.388691
O10	O	0.857839	1.573377	0.111309
O11	O	0.312241	1.239392	-0.438249
O12	O	0.812241	1.739392	0.061751
O13	O	0.403498	1.118956	-0.208467
O14	O	0.903498	1.618956	0.291533
O15	O	0.191838	1.027761	-0.339159
O16	O	0.691838	1.527761	0.160841
O17	O	0.403485	1.239373	-0.339209
O18	O	0.903485	1.739373	0.160791
O19	O	0.191828	1.119000	-0.438221
O20	O	0.691828	1.619000	0.061779
O21	O	0.312263	1.027736	-0.208445
O22	O	0.812263	1.527736	0.291555
O23	O	0.312215	0.907364	-0.339131
O24	O	0.812215	1.407364	0.160869
O25	O	0.403401	1.027797	-0.568915
O26	O	0.903401	1.527797	-0.068915
O27	O	0.403413	0.907379	-0.438172
O28	O	0.903413	1.407379	0.061828
O29	O	0.312192	1.119020	-0.568936
O30	O	0.812192	1.619020	-0.068936
O31	O	0.523862	1.118976	-0.339182
O32	O	1.023862	1.618976	0.160818
O33	O	0.523826	1.027772	-0.438201
O34	O	1.023826	1.527772	0.061799
C35	C	0.357811	0.880425	-0.388646
C36	C	0.857811	1.380425	0.111354
C37	C	0.357817	0.797879	-0.388646
C38	C	0.857817	1.297879	0.111354
C39	C	0.308166	0.598399	-0.334912
C40	C	0.808166	1.098399	0.165088
C41	C	0.375903	0.549016	-0.315086
C42	C	0.875903	1.049016	0.184914
C43	C	0.357839	0.646749	-0.388682
C44	C	0.857839	1.146749	0.111318
C45	C	0.290126	0.549050	-0.408506
C46	C	0.790126	1.049050	0.091494
C47	C	0.357855	0.500764	-0.388716
C48	C	0.857855	1.000764	0.111284
C49	C	0.425612	0.598453	-0.368818
C50	C	0.925612	1.098453	0.131182
C51	C	0.339789	0.598492	-0.462273
C52	C	0.839789	1.098492	0.037727
C53	C	0.407573	0.549131	-0.442475
C54	C	0.907573	1.049131	0.057525
C55	C	0.357829	0.730847	-0.388661
C56	C	0.857829	1.230847	0.111339
C57	C	0.357873	0.416667	-0.388738
C58	C	0.857873	0.916667	0.111262
C59	C	0.164133	1.073381	-0.388690
C60	C	0.664133	1.573381	0.111310
C61	C	0.081587	1.073382	-0.388689
C62	C	0.581587	1.573382	0.111311
C63	C	-0.117858	1.023798	-0.334835
C64	C	0.382142	1.523798	0.165165
C65	C	-0.167263	1.005653	-0.408398
C66	C	0.332737	1.505653	0.091602
C67	C	-0.069543	1.073411	-0.388710
C68	C	0.430457	1.573411	0.111290
C69	C	-0.167220	1.091549	-0.315167
C70	C	0.332780	1.591549	0.184833
C71	C	-0.215528	1.073438	-0.388722
C72	C	0.284472	1.573438	0.111278
C73	C	-0.117861	1.055231	-0.462312
C74	C	0.382139	1.555231	0.037688
C75	C	-0.117814	1.141159	-0.369031
C76	C	0.382186	1.641159	0.130969
C77	C	-0.167196	1.123040	-0.442645
C78	C	0.332804	1.623040	0.057355
C79	C	0.014555	1.073394	-0.388701
C80	C	0.514555	1.573394	0.111299
C81	C	-0.299625	1.073455	-0.388739
C82	C	0.200375	1.573455	0.111261
C83	C	0.550791	1.073394	-0.388709
C84	C	1.050791	1.573394	0.111291
C85	C	0.633336	1.073469	-0.388744
C86	C	1.133336	1.573469	0.111256
C87	C	0.357790	1.073414	-0.599000
C88	C	0.857790	1.573414	-0.099000
C89	C	0.357769	1.073429	-0.688621
C90	C	0.857769	1.573429	-0.188621
C91	C	0.357867	1.267083	-0.388736
C92	C	0.857867	1.767083	0.111264
C93	C	0.357879	1.349629	-0.388755
C94	C	0.857879	1.849629	0.111245
C95	C	0.357752	1.073441	-0.761403
C96	C	0.857752	1.573441	-0.261403
C97	C	0.357725	1.073458	-0.852712
C98	C	0.857725	1.573458	-0.352712
C99	C	0.357698	1.073476	-0.925488
C100	C	0.857698	1.573476	-0.425488
C101	C	0.357672	1.073494	-1.016803
C102	C	0.857672	1.573494	-0.516803
C103	C	0.357834	1.073384	-0.179200
C104	C	0.857834	1.573384	0.320800
C105	C	0.357645	1.073512	-0.089579
C106	C	0.857645	1.573512	0.410421
H107	H	0.449636	0.527635	-0.487962
H108	H	0.949636	1.027635	0.012038
H109	H	-0.096270	1.039835	-0.524529
H110	H	0.403730	1.539835	-0.024529
H111	H	0.391182	0.527284	-0.252866
H112	H	0.891182	1.027284	0.247134
H113	H	-0.188983	0.948371	-0.425054
H114	H	0.311017	1.448371	0.074946
H115	H	-0.188723	1.165008	-0.488263
H116	H	0.311277	1.665008	0.011737
H117	H	0.482901	0.620062	-0.351996
H118	H	0.982901	1.120062	0.148004
H119	H	0.232862	0.527312	-0.425231
H120	H	0.732862	1.027312	0.074769
O121	O	-0.091909	1.209452	-0.348998
O122	O	0.408091	1.709452	0.151002
C123	C	-0.117029	1.228357	-0.271381
C124	C	0.382971	1.728357	0.228619
H125	H	-0.130912	1.175727	-0.236583
H126	H	0.369088	1.675727	0.263417
H127	H	-0.071805	1.260233	-0.238312
H128	H	0.428195	1.760233	0.261688
H129	H	-0.168679	1.264396	-0.276482
H130	H	0.331321	1.764396	0.223518
O131	O	-0.192981	1.109769	-0.240902
O132	O	0.307019	1.609769	0.259098
C133	C	-0.167848	1.057294	-0.184294
C134	C	0.332152	1.557294	0.315706
H135	H	-0.115872	1.028987	-0.208186
H136	H	0.384128	1.528987	0.291814
H137	H	-0.154496	1.086406	-0.125203
H138	H	0.345504	1.586406	0.374797
H139	H	-0.212852	1.014059	-0.173715
H140	H	0.287148	1.514059	0.326285
H141	H	0.324490	0.620241	-0.524474
H142	H	0.824490	1.120241	-0.024474
O143	O	0.258188	0.624177	-0.280500
O144	O	0.758188	1.124177	0.219500
C145	C	0.277499	0.598947	-0.203012
C146	C	0.777499	1.098947	0.296988
H147	H	0.339100	0.585110	-0.201389
H148	H	0.839100	1.085110	0.298611
H149	H	0.265049	0.644087	-0.157024
H150	H	0.765049	1.144087	0.342976
H151	H	0.243964	0.547246	-0.187964
H152	H	0.743964	1.047246	0.312036
O153	O	-0.092040	0.973596	-0.280636
O154	O	0.407960	1.473596	0.219364
C155	C	-0.117254	0.902257	-0.301687
C156	C	0.382746	1.402257	0.198313
H157	H	-0.131120	0.900871	-0.368568
H158	H	0.368880	1.400871	0.131432
H159	H	-0.072093	0.859881	-0.288227
H160	H	0.427907	1.359881	0.211773
H161	H	-0.168935	0.888333	-0.265289
H162	H	0.331065	1.388333	0.234711
