data_functionalizedCrystal
_audit_creation_method	'MofGen! by Chris Wilmer'
_symmetry_space_group_name_H-M	'P1'
_symmetry_Int_Tables_number	1
_symmetry_cell_setting	triclinic
loop_
_symmetry_equiv_pos_as_xyz
  x,y,z
_cell_length_a	19.288865
_cell_length_b	19.288840
_cell_length_c	17.766277
_cell_angle_alpha	90.006284
_cell_angle_beta	89.987037
_cell_angle_gamma	96.868869
loop_
_atom_site_label
_atom_site_type_symbol
_atom_site_fract_x
_atom_site_fract_y
_atom_site_fract_z
O1	O	0.086569	-0.921353	-0.062728
O2	O	0.586569	-0.421353	0.437272
O3	O	0.098275	-0.719090	-0.062704
O4	O	0.598275	-0.219090	0.437296
O5	O	-0.008709	-0.826066	-0.062702
O6	O	0.491291	-0.326066	0.437298
O7	O	0.193553	-0.814377	-0.062730
O8	O	0.693553	-0.314377	0.437270
O9	O	-0.008720	-0.826069	0.062487
O10	O	0.491280	-0.326069	0.562487
O11	O	0.098265	-0.719093	0.062485
O12	O	0.598265	-0.219093	0.562485
O13	O	0.086558	-0.921356	0.062460
O14	O	0.586558	-0.421356	0.562460
Cu15	Cu	0.092410	-0.820225	0.073903
Cu16	Cu	0.592410	-0.320225	0.573903
Cu17	Cu	0.092423	-0.820222	-0.074147
Cu18	Cu	0.592423	-0.320222	0.425853
O19	O	0.193542	-0.814380	0.062458
O20	O	0.693542	-0.314380	0.562458
C21	C	-0.034591	-0.825692	-0.000105
C22	C	0.465409	-0.325692	0.499895
C23	C	-0.111694	-0.824563	-0.000099
C24	C	0.388306	-0.324563	0.499901
C25	C	0.097896	-0.693215	-0.000106
C26	C	0.597896	-0.193215	0.499894
C27	C	0.096774	-0.616110	-0.000096
C28	C	0.596774	-0.116110	0.499904
C29	C	0.086937	-0.947232	-0.000139
C30	C	0.586937	-0.447232	0.499861
C31	C	0.088059	-1.024336	-0.000154
C32	C	0.588059	-0.524336	0.499846
C33	C	-0.156396	-0.887331	-0.000103
C34	C	0.343604	-0.387331	0.499897
C35	C	-0.228843	-0.886270	-0.000114
C36	C	0.271157	-0.386270	0.499886
C37	C	-0.256585	-0.822438	-0.000107
C38	C	0.243415	-0.322438	0.499893
C39	C	-0.211873	-0.759661	-0.000107
C40	C	0.288127	-0.259661	0.499893
C41	C	-0.139428	-0.760723	-0.000103
C42	C	0.360572	-0.260723	0.499897
C43	C	-0.364871	-0.772258	0.043750
C44	C	0.135129	-0.272258	0.543750
C45	C	-0.437316	-0.771198	0.043750
C46	C	0.062684	-0.271198	0.543750
C47	C	-0.480030	-0.819158	-0.000123
C48	C	0.019970	-0.319158	0.499877
C49	C	-0.450293	-0.868189	-0.043988
C50	C	0.049707	-0.368189	0.456012
C51	C	-0.377847	-0.869251	-0.043984
C52	C	0.122153	-0.369251	0.456016
C53	C	-0.335139	-0.821278	-0.000112
C54	C	0.164861	-0.321278	0.499888
C55	C	-0.603288	-0.880781	-0.000141
C56	C	-0.103288	-0.380781	0.499859
C57	C	-0.675736	-0.879717	-0.000158
C58	C	-0.175736	-0.379717	0.499842
C59	C	-0.658764	-0.753106	-0.000143
C60	C	-0.158764	-0.253106	0.499857
C61	C	-0.586318	-0.754171	-0.000134
C62	C	-0.086318	-0.254171	0.499866
C63	C	-0.558584	-0.818010	-0.000130
C64	C	-0.058584	-0.318010	0.499870
C65	C	0.219424	-0.814755	-0.000140
C66	C	0.719424	-0.314755	0.499860
C67	C	0.296527	-0.815884	-0.000152
C68	C	0.796527	-0.315884	0.499848
C69	C	0.096241	-0.579905	-0.068338
C70	C	0.596241	-0.079905	0.431662
C71	C	0.095179	-0.507459	-0.068347
C72	C	0.595179	-0.007459	0.431653
C73	C	0.094636	-0.471221	-0.000110
C74	C	0.594636	0.028779	0.499890
C75	C	0.095173	-0.507434	0.068141
C76	C	0.595173	-0.007434	0.568141
C77	C	0.096243	-0.579879	0.068148
C78	C	0.596243	-0.079879	0.568148
C79	C	0.052254	-0.361895	0.052164
C80	C	0.552254	0.138105	0.552164
C81	C	0.051181	-0.289452	0.052155
C82	C	0.551181	0.210548	0.552155
C83	C	0.091342	-0.247778	-0.000129
C84	C	0.591342	0.252222	0.499871
C85	C	0.132568	-0.278556	-0.052416
C86	C	0.632568	0.221444	0.447584
C87	C	0.133637	-0.351001	-0.052408
C88	C	0.633637	0.148999	0.447592
C89	C	0.093477	-0.392667	-0.000110
C90	C	0.593477	0.107333	0.499890
C91	C	0.089658	-0.133017	-0.068386
C92	C	0.589658	0.366983	0.431614
C93	C	0.088601	-0.060568	-0.068392
C94	C	0.588601	0.439432	0.431608
C95	C	0.088588	-0.060547	0.068098
C96	C	0.588588	0.439453	0.568098
C97	C	0.089653	-0.132993	0.068102
C98	C	0.589653	0.367007	0.568102
C99	C	0.090185	-0.169225	-0.000142
C100	C	0.590185	0.330775	0.499858
N101	N	0.092427	-0.820220	-0.178277
N102	N	0.592427	-0.320220	0.321723
C103	C	0.045146	-0.867673	-0.217663
C104	C	0.545146	-0.367673	0.282337
C105	C	0.045145	-0.867679	-0.296465
C106	C	0.545145	-0.367679	0.203535
C107	C	0.092418	-0.820220	-0.335878
C108	C	0.592418	-0.320220	0.164122
C109	C	0.139707	-0.772763	-0.296482
C110	C	0.639707	-0.272763	0.203518
C111	C	0.139712	-0.772763	-0.217682
C112	C	0.639712	-0.272763	0.282318
C113	C	0.101569	-0.756932	-0.460716
C114	C	0.601569	-0.256932	0.039284
C115	C	0.101559	-0.756931	-0.539515
C116	C	0.601559	-0.256931	-0.039515
C117	C	0.092408	-0.820220	-0.578924
C118	C	0.592408	-0.320220	-0.078924
C119	C	0.083251	-0.883513	-0.539525
C120	C	0.583251	-0.383513	-0.039525
C121	C	0.083255	-0.883513	-0.460725
C122	C	0.583255	-0.383513	0.039275
C123	C	0.092418	-0.820215	-0.421323
C124	C	0.592418	-0.320215	0.078677
C125	C	0.045123	-0.867684	-0.703756
C126	C	0.545123	-0.367684	-0.203756
C127	C	0.045127	-0.867691	-0.782559
C128	C	0.545127	-0.367691	-0.282559
C129	C	0.139686	-0.772769	-0.782575
C130	C	0.639686	-0.272769	-0.282575
C131	C	0.139685	-0.772768	-0.703773
C132	C	0.639685	-0.272768	-0.203773
C133	C	0.092401	-0.820225	-0.664368
C134	C	0.592401	-0.320225	-0.164368
N135	N	0.092401	-0.820232	0.178034
N136	N	0.592401	-0.320232	0.678034
H137	H	-0.133820	-0.939314	-0.000102
H138	H	0.366180	-0.439314	0.499898
H139	H	0.178198	-0.734123	-0.328576
H140	H	0.678198	-0.234123	0.171424
H141	H	0.006623	-0.906328	-0.671672
H142	H	0.506623	-0.406328	-0.171672
H143	H	-0.265246	-0.937386	-0.000121
H144	H	0.234754	-0.437386	0.499879
H145	H	0.178183	-0.734125	-0.671703
H146	H	0.678183	-0.234125	-0.171703
O147	O	0.178107	-0.384200	-0.108789
O148	O	0.678107	0.115800	0.391211
H149	H	0.205861	-0.343055	-0.145145
H150	H	0.705861	0.156945	0.354855
H151	H	0.178214	-0.734121	-0.185613
H152	H	0.678214	-0.234121	0.314387
O153	O	-0.573366	-0.949631	-0.000152
O154	O	-0.073366	-0.449631	0.499848
H155	H	-0.616625	-0.993102	-0.000171
H156	H	-0.116625	-0.493102	0.499829
H157	H	0.090082	-0.162472	0.123672
H158	H	0.590082	0.337528	0.623672
O159	O	0.006713	-0.256262	0.108545
O160	O	0.506713	0.243738	0.608545
H161	H	0.012707	-0.198887	0.099749
H162	H	0.512707	0.301113	0.599749
O163	O	0.088008	-0.021468	0.141697
O164	O	0.588008	0.478532	0.641697
H165	H	0.088561	-0.058818	0.189153
H166	H	0.588561	0.441182	0.689153
H167	H	0.094746	-0.477975	-0.123920
H168	H	0.594746	0.022025	0.376080
O169	O	0.190670	-0.721581	-0.825080
O170	O	0.690670	-0.221581	-0.325080
H171	H	0.244826	-0.730157	-0.809980
H172	H	0.744826	-0.230157	-0.309980
O173	O	-0.005846	-0.918859	-0.175158
O174	O	0.494154	-0.418859	0.324842
H175	H	0.023381	-0.952455	-0.139268
H176	H	0.523381	-0.452455	0.360732
H177	H	0.075802	-0.935048	-0.428649
H178	H	0.575802	-0.435048	0.071351
O179	O	0.008936	-0.406837	0.108565
O180	O	0.508936	0.093163	0.608565
H181	H	0.016611	-0.462381	0.099793
H182	H	0.516611	0.037619	0.599793
O183	O	0.111437	-0.688670	-0.582008
O184	O	0.611437	-0.188670	-0.082008
H185	H	0.117816	-0.644661	-0.541368
H186	H	0.617816	-0.144661	-0.041368
O187	O	0.094924	-0.468312	0.141741
O188	O	0.594924	0.031688	0.641741
H189	H	0.094207	-0.411838	0.130272
H190	H	0.594207	0.088162	0.630272
O191	O	-0.005860	-0.918846	-0.338971
O192	O	0.494140	-0.418846	0.161029
H193	H	0.002930	-0.972943	-0.323869
H194	H	0.502930	-0.472943	0.176131
O195	O	-0.345768	-0.922120	-0.091302
O196	O	0.154232	-0.422120	0.408698
H197	H	-0.387635	-0.955288	-0.121820
H198	H	0.112365	-0.455288	0.378180
H199	H	0.165274	-0.244625	-0.094987
H200	H	0.665274	0.255375	0.405013
H201	H	0.075804	-0.935050	-0.571610
H202	H	0.575804	-0.435050	-0.071610
O203	O	0.096824	-0.618984	-0.141940
O204	O	0.596824	-0.118984	0.358060
H205	H	0.096281	-0.581632	-0.189395
H206	H	0.596281	-0.081632	0.310605
O207	O	0.111444	-0.688667	-0.418210
O208	O	0.611444	-0.188667	0.081790
H209	H	0.162671	-0.659511	-0.433352
H210	H	0.662671	-0.159511	0.066648
O211	O	-0.318806	-0.720531	0.091082
O212	O	0.181194	-0.220531	0.591082
H213	H	-0.281403	-0.688264	0.054103
H214	H	0.218597	-0.188264	0.554103
H215	H	0.006628	-0.906336	-0.814628
H216	H	0.506628	-0.406336	-0.314628
O217	O	0.096827	-0.618935	0.141755
O218	O	0.596827	-0.118935	0.641755
H219	H	0.096274	-0.581568	0.189205
H220	H	0.596274	-0.081568	0.689205
O221	O	-0.688679	-0.684257	-0.000130
O222	O	-0.188679	-0.184257	0.499870
H223	H	-0.670697	-0.654105	-0.051153
H224	H	-0.170697	-0.154105	0.448847
O225	O	-0.496350	-0.919919	-0.091320
O226	O	0.003650	-0.419919	0.408680
H227	H	-0.551721	-0.910939	-0.083965
H228	H	-0.051721	-0.410939	0.416035
H229	H	-0.712132	-0.930833	-0.000165
H230	H	-0.212132	-0.430833	0.499835
H231	H	0.088171	-0.031091	-0.123965
H232	H	0.588171	0.468909	0.376035
O233	O	0.090244	-0.172102	-0.141986
O234	O	0.590244	0.327898	0.358014
H235	H	0.089708	-0.134750	-0.189443
H236	H	0.589708	0.365250	0.310557
O237	O	-0.538101	-0.686467	-0.000110
O238	O	-0.038101	-0.186467	0.499890
H239	H	-0.547925	-0.655900	-0.051127
H240	H	-0.047925	-0.155900	0.448873
O241	O	-0.469390	-0.718320	0.091060
O242	O	0.030610	-0.218320	0.591060
H243	H	-0.427518	-0.685141	0.121558
H244	H	0.072482	-0.185141	0.621558
H245	H	-0.234465	-0.707687	-0.000103
H246	H	0.265535	-0.207687	0.499897
H247	H	-0.103030	-0.709608	-0.000099
H248	H	0.396970	-0.209608	0.499901
