data_functionalizedCrystal
_audit_creation_method	'MofGen! by Chris Wilmer'
_symmetry_space_group_name_H-M	'P1'
_symmetry_Int_Tables_number	1
_symmetry_cell_setting	triclinic
loop_
_symmetry_equiv_pos_as_xyz
  x,y,z
_cell_length_a	27.732064
_cell_length_b	27.732048
_cell_length_c	26.809956
_cell_angle_alpha	89.999364
_cell_angle_beta	89.998878
_cell_angle_gamma	82.646040
loop_
_atom_site_label
_atom_site_type_symbol
_atom_site_fract_x
_atom_site_fract_y
_atom_site_fract_z
O1	O	0.640926	0.057548	-0.041396
O2	O	0.890926	0.307548	0.208604
O3	O	1.140926	0.557548	0.458604
O4	O	1.390926	0.807548	0.708604
O5	O	0.500133	0.066285	-0.041417
O6	O	0.750133	0.316285	0.208583
O7	O	1.000133	0.566285	0.458583
O8	O	1.250133	0.816285	0.708583
O9	O	0.574902	-0.008480	-0.041396
O10	O	0.824902	0.241520	0.208604
O11	O	1.074902	0.491520	0.458604
O12	O	1.324902	0.741520	0.708604
O13	O	0.566157	0.132313	-0.041417
O14	O	0.816157	0.382313	0.208583
O15	O	1.066157	0.632313	0.458583
O16	O	1.316157	0.882313	0.708583
O17	O	0.574888	-0.008468	0.041563
O18	O	0.824888	0.241532	0.291563
O19	O	1.074888	0.491532	0.541563
O20	O	1.324888	0.741532	0.791563
O21	O	0.500119	0.066297	0.041542
O22	O	0.750119	0.316297	0.291542
O23	O	1.000119	0.566297	0.541542
O24	O	1.250119	0.816297	0.791542
O25	O	0.640912	0.057560	0.041563
O26	O	0.890912	0.307560	0.291563
O27	O	1.140912	0.557560	0.541563
O28	O	1.390912	0.807560	0.791563
Zn29	Zn	0.570513	0.061930	0.054724
Zn30	Zn	0.820513	0.311930	0.304724
Zn31	Zn	1.070513	0.561930	0.554724
Zn32	Zn	1.320513	0.811930	0.804724
Zn33	Zn	0.570532	0.061915	-0.054578
Zn34	Zn	0.820532	0.311915	0.195422
Zn35	Zn	1.070532	0.561915	0.445422
Zn36	Zn	1.320532	0.811915	0.695422
O37	O	0.566143	0.132325	0.041543
O38	O	0.816143	0.382325	0.291543
O39	O	1.066143	0.632325	0.541543
O40	O	1.316143	0.882325	0.791543
C41	C	0.482120	0.066106	0.000060
C42	C	0.732120	0.316106	0.250060
C43	C	0.982120	0.566106	0.500060
C44	C	1.232120	0.816106	0.750060
C45	C	0.428465	0.065551	0.000052
C46	C	0.678465	0.315551	0.250052
C47	C	0.928465	0.565551	0.500052
C48	C	1.178465	0.815551	0.750052
C49	C	0.051392	0.017583	0.000087
C50	C	0.301392	0.267583	0.250087
C51	C	0.551392	0.517583	0.500087
C52	C	0.801392	0.767583	0.750087
C53	C	0.253053	0.019630	0.000074
C54	C	0.503053	0.269630	0.250074
C55	C	0.753053	0.519630	0.500074
C56	C	1.003053	0.769630	0.750074
O57	O	0.284305	-0.017591	0.000098
O58	O	0.534305	0.232409	0.250098
O59	O	0.784305	0.482409	0.500098
O60	O	1.034305	0.732409	0.750098
N61	N	0.272180	0.063964	0.000066
N62	N	0.522180	0.313964	0.250066
N63	N	0.772180	0.563964	0.500066
N64	N	1.022180	0.813964	0.750066
C65	C	0.240889	0.107790	0.000064
C66	C	0.490889	0.357790	0.250064
C67	C	0.740889	0.607790	0.500064
C68	C	0.990889	0.857790	0.750064
O69	O	0.261785	0.145546	0.000061
O70	O	0.511785	0.395546	0.250061
O71	O	0.761785	0.645546	0.500061
O72	O	1.011785	0.895546	0.750061
C73	C	0.039230	0.105743	0.000080
C74	C	0.289230	0.355743	0.250080
C75	C	0.539230	0.605743	0.500080
C76	C	0.789230	0.855743	0.750080
C77	C	0.020105	0.061406	0.000084
C78	C	0.270105	0.311406	0.250084
C79	C	0.520105	0.561406	0.500084
C80	C	0.770105	0.811406	0.750084
C81	C	0.032267	-0.026750	0.000092
C82	C	0.282267	0.223250	0.250092
C83	C	0.532267	0.473250	0.500092
C84	C	0.782267	0.723250	0.750092
C85	C	-0.018145	-0.027261	0.000092
C86	C	0.231855	0.222739	0.250092
C87	C	0.481855	0.472739	0.500092
C88	C	0.731855	0.722739	0.750092
C89	C	-0.049432	0.016561	0.000089
C90	C	0.200568	0.266561	0.250089
C91	C	0.450568	0.516561	0.500089
C92	C	0.700568	0.766561	0.750089
C93	C	-0.030307	0.060895	0.000085
C94	C	0.219693	0.310895	0.250085
C95	C	0.469693	0.560895	0.500085
C96	C	0.719693	0.810895	0.750085
C97	C	0.007940	0.149568	0.000082
C98	C	0.257940	0.399568	0.250082
C99	C	0.507940	0.649568	0.500082
C100	C	0.757940	0.899568	0.750082
C101	C	-0.042478	0.149053	0.000087
C102	C	0.207522	0.399053	0.250087
C103	C	0.457522	0.649053	0.500087
C104	C	0.707522	0.899053	0.750087
C105	C	-0.061602	0.104716	0.000091
C106	C	0.188398	0.354716	0.250091
C107	C	0.438398	0.604716	0.500091
C108	C	0.688398	0.854716	0.750091
C109	C	-0.112006	0.104206	0.000082
C110	C	0.137994	0.354206	0.250082
C111	C	0.387994	0.604206	0.500082
C112	C	0.637994	0.854206	0.750082
N113	N	-0.131134	0.059872	0.000090
N114	N	0.118866	0.309872	0.250090
N115	N	0.368866	0.559872	0.500090
N116	N	0.618866	0.809872	0.750090
C117	C	-0.099846	0.016049	0.000094
C118	C	0.150154	0.266049	0.250094
C119	C	0.400154	0.516049	0.500094
C120	C	0.650154	0.766049	0.750094
C121	C	0.346763	0.108861	0.000054
C122	C	0.596763	0.358861	0.250054
C123	C	0.846763	0.608861	0.500054
C124	C	1.096763	0.858861	0.750054
C125	C	0.397178	0.109373	0.000049
C126	C	0.647178	0.359373	0.250049
C127	C	0.897178	0.609373	0.500049
C128	C	1.147178	0.859373	0.750049
C129	C	0.409338	0.021213	0.000060
C130	C	0.659338	0.271213	0.250060
C131	C	0.909338	0.521213	0.500060
C132	C	1.159338	0.771213	0.750060
C133	C	0.358923	0.020701	0.000062
C134	C	0.608923	0.270701	0.250062
C135	C	0.858923	0.520701	0.500062
C136	C	1.108923	0.770701	0.750062
C137	C	0.327636	0.064527	0.000062
C138	C	0.577636	0.314527	0.250062
C139	C	0.827636	0.564527	0.500062
C140	C	1.077636	0.814527	0.750062
C141	C	-0.205716	0.014979	0.000095
C142	C	0.044284	0.264979	0.250095
C143	C	0.294284	0.514979	0.500095
C144	C	0.544284	0.764979	0.750095
C145	C	-0.256133	0.014472	0.000093
C146	C	-0.006133	0.264472	0.250093
C147	C	0.243867	0.514472	0.500093
C148	C	0.493867	0.764472	0.750093
C149	C	-0.268289	0.102632	0.000084
C150	C	-0.018289	0.352632	0.250084
C151	C	0.231711	0.602632	0.500084
C152	C	0.481711	0.852632	0.750084
C153	C	-0.217876	0.103140	0.000083
C154	C	0.032124	0.353140	0.250083
C155	C	0.282124	0.603140	0.500083
C156	C	0.532124	0.853140	0.750083
C157	C	-0.186590	0.059309	0.000090
C158	C	0.063410	0.309309	0.250090
C159	C	0.313410	0.559309	0.500090
C160	C	0.563410	0.809309	0.750090
O161	O	-0.143287	0.141407	0.000063
O162	O	0.106713	0.391407	0.250063
O163	O	0.356713	0.641407	0.500063
O164	O	0.606713	0.891407	0.750063
O165	O	-0.120752	-0.021701	0.000107
O166	O	0.129248	0.228299	0.250107
O167	O	0.379248	0.478299	0.500107
O168	O	0.629248	0.728299	0.750107
C169	C	0.101804	0.018094	0.000087
C170	C	0.351804	0.268094	0.250087
C171	C	0.601804	0.518094	0.500087
C172	C	0.851804	0.768094	0.750087
C173	C	0.120930	0.062428	0.000083
C174	C	0.370930	0.312428	0.250083
C175	C	0.620930	0.562428	0.500083
C176	C	0.870930	0.812428	0.750083
C177	C	0.089642	0.106250	0.000079
C178	C	0.339642	0.356250	0.250079
C179	C	0.589642	0.606250	0.500079
C180	C	0.839642	0.856250	0.750079
C181	C	0.171344	0.062940	0.000078
C182	C	0.421344	0.312940	0.250078
C183	C	0.671344	0.562940	0.500078
C184	C	0.921344	0.812940	0.750078
C185	C	0.202631	0.019117	0.000081
C186	C	0.452631	0.269117	0.250081
C187	C	0.702631	0.519117	0.500081
C188	C	0.952631	0.769117	0.750081
C189	C	0.183504	-0.025217	0.000090
C190	C	0.433504	0.224783	0.250090
C191	C	0.683504	0.474783	0.500090
C192	C	0.933504	0.724783	0.750090
C193	C	0.133092	-0.025728	0.000090
C194	C	0.383092	0.224272	0.250090
C195	C	0.633092	0.474272	0.500090
C196	C	0.883092	0.724272	0.750090
C197	C	0.108770	0.150585	0.000071
C198	C	0.358770	0.400585	0.250071
C199	C	0.608770	0.650585	0.500071
C200	C	0.858770	0.900585	0.750071
C201	C	0.159183	0.151092	0.000069
C202	C	0.409183	0.401092	0.250069
C203	C	0.659183	0.651092	0.500069
C204	C	0.909183	0.901092	0.750069
C205	C	0.190470	0.107270	0.000073
C206	C	0.440470	0.357270	0.250073
C207	C	0.690470	0.607270	0.500073
C208	C	0.940470	0.857270	0.750073
C209	C	0.574712	-0.026481	0.000085
C210	C	0.824712	0.223519	0.250085
C211	C	1.074712	0.473519	0.500085
C212	C	1.324712	0.723519	0.750085
C213	C	0.574159	-0.080136	0.000089
C214	C	0.824159	0.169864	0.250089
C215	C	1.074159	0.419864	0.500089
C216	C	1.324159	0.669864	0.750089
C217	C	0.614862	-0.418948	0.000069
C218	C	0.864862	-0.168948	0.250069
C219	C	1.114862	0.081052	0.500069
C220	C	1.364862	0.331052	0.750069
C221	C	0.612811	-0.620608	0.000062
C222	C	0.862811	-0.370608	0.250062
C223	C	1.112811	-0.120608	0.500062
C224	C	1.362811	0.129392	0.750062
O225	O	0.650032	-0.651862	0.000046
O226	O	0.900032	-0.401862	0.250046
O227	O	1.150032	-0.151862	0.500046
O228	O	1.400032	0.098138	0.750046
N229	N	0.568476	-0.639735	0.000056
N230	N	0.818476	-0.389735	0.250056
N231	N	1.068476	-0.139735	0.500056
N232	N	1.318476	0.110265	0.750056
C233	C	0.524651	-0.608442	0.000048
C234	C	0.774651	-0.358442	0.250048
C235	C	1.024651	-0.108442	0.500048
C236	C	1.274651	0.141558	0.750048
O237	O	0.486895	-0.629338	0.000037
O238	O	0.736895	-0.379338	0.250037
O239	O	0.986895	-0.129338	0.500037
O240	O	1.236895	0.120662	0.750037
C241	C	0.526703	-0.406784	0.000052
C242	C	0.776703	-0.156784	0.250052
C243	C	1.026703	0.093216	0.500052
C244	C	1.276703	0.343216	0.750052
C245	C	0.571040	-0.387660	0.000063
C246	C	0.821040	-0.137660	0.250063
C247	C	1.071040	0.112340	0.500063
C248	C	1.321040	0.362340	0.750063
C249	C	0.659196	-0.399824	0.000080
C250	C	0.909196	-0.149824	0.250080
C251	C	1.159196	0.100176	0.500080
C252	C	1.409196	0.350176	0.750080
C253	C	0.659709	-0.349412	0.000084
C254	C	0.909709	-0.099412	0.250084
C255	C	1.159709	0.150588	0.500084
C256	C	1.409709	0.400588	0.750084
C257	C	0.615887	-0.318124	0.000078
C258	C	0.865887	-0.068124	0.250078
C259	C	1.115887	0.181876	0.500078
C260	C	1.365887	0.431876	0.750078
C261	C	0.571553	-0.337248	0.000067
C262	C	0.821553	-0.087248	0.250067
C263	C	1.071553	0.162752	0.500067
C264	C	1.321553	0.412752	0.750067
C265	C	0.482878	-0.375493	0.000040
C266	C	0.732878	-0.125493	0.250040
C267	C	0.982878	0.124507	0.500040
C268	C	1.232878	0.374507	0.750040
C269	C	0.483395	-0.325075	0.000040
C270	C	0.733395	-0.075075	0.250040
C271	C	0.983395	0.174925	0.500040
C272	C	1.233395	0.424925	0.750040
C273	C	0.527733	-0.305952	0.000051
C274	C	0.777733	-0.055952	0.250051
C275	C	1.027733	0.194048	0.500051
C276	C	1.277733	0.444048	0.750051
C277	C	0.528243	-0.255548	0.000066
C278	C	0.778243	-0.005548	0.250066
C279	C	1.028243	0.244452	0.500066
C280	C	1.278243	0.494452	0.750066
N281	N	0.572578	-0.236422	0.000072
N282	N	0.822578	0.013578	0.250072
N283	N	1.072578	0.263578	0.500072
N284	N	1.322578	0.513578	0.750072
C285	C	0.616400	-0.267710	0.000078
C286	C	0.866400	-0.017710	0.250078
C287	C	1.116400	0.232290	0.500078
C288	C	1.366400	0.482290	0.750078
C289	C	0.523577	-0.714317	0.000047
C290	C	0.773577	-0.464317	0.250047
C291	C	1.023577	-0.214317	0.500047
C292	C	1.273577	0.035683	0.750047
C293	C	0.523064	-0.764731	0.000047
C294	C	0.773064	-0.514731	0.250047
C295	C	1.023064	-0.264731	0.500047
C296	C	1.273064	-0.014731	0.750047
C297	C	0.611225	-0.776893	0.000060
C298	C	0.861225	-0.526893	0.250060
C299	C	1.111225	-0.276893	0.500060
C300	C	1.361225	-0.026893	0.750060
C301	C	0.611737	-0.726478	0.000064
C302	C	0.861737	-0.476478	0.250064
C303	C	1.111737	-0.226478	0.500064
C304	C	1.361737	0.023522	0.750064
C305	C	0.567912	-0.695190	0.000053
C306	C	0.817912	-0.445190	0.250053
C307	C	1.067912	-0.195190	0.500053
C308	C	1.317912	0.054810	0.750053
C309	C	0.617472	-0.161841	0.000088
C310	C	0.867472	0.088159	0.250088
C311	C	1.117472	0.338159	0.500088
C312	C	1.367472	0.588159	0.750088
C313	C	0.617981	-0.111424	0.000095
C314	C	0.867981	0.138576	0.250095
C315	C	1.117981	0.388576	0.500095
C316	C	1.367981	0.638576	0.750095
C317	C	0.529821	-0.099266	0.000079
C318	C	0.779821	0.150734	0.250079
C319	C	1.029821	0.400734	0.500079
C320	C	1.279821	0.650734	0.750079
C321	C	0.529312	-0.149679	0.000075
C322	C	0.779312	0.100321	0.250075
C323	C	1.029312	0.350321	0.500075
C324	C	1.279312	0.600321	0.750075
C325	C	0.573142	-0.180965	0.000078
C326	C	0.823142	0.069035	0.250078
C327	C	1.073142	0.319035	0.500078
C328	C	1.323142	0.569035	0.750078
O329	O	0.491043	-0.224267	0.000076
O330	O	0.741043	0.025733	0.250076
O331	O	0.991043	0.275733	0.500076
O332	O	1.241043	0.525733	0.750076
O333	O	0.654151	-0.246805	0.000078
O334	O	0.904151	0.003195	0.250078
O335	O	1.154151	0.253195	0.500078
O336	O	1.404151	0.503195	0.750078
C337	C	0.614350	-0.469360	0.000065
C338	C	0.864350	-0.219360	0.250065
C339	C	1.114350	0.030640	0.500065
C340	C	1.364350	0.280640	0.750065
C341	C	0.570016	-0.488484	0.000054
C342	C	0.820016	-0.238484	0.250054
C343	C	1.070016	0.011516	0.500054
C344	C	1.320016	0.261516	0.750054
C345	C	0.526194	-0.457196	0.000048
C346	C	0.776194	-0.207196	0.250048
C347	C	1.026194	0.042804	0.500048
C348	C	1.276194	0.292804	0.750048
C349	C	0.569503	-0.538899	0.000054
C350	C	0.819503	-0.288899	0.250054
C351	C	1.069503	-0.038899	0.500054
C352	C	1.319503	0.211101	0.750054
C353	C	0.613325	-0.570187	0.000060
C354	C	0.863325	-0.320187	0.250060
C355	C	1.113325	-0.070187	0.500060
C356	C	1.363325	0.179813	0.750060
C357	C	0.657660	-0.551060	0.000066
C358	C	0.907660	-0.301060	0.250066
C359	C	1.157660	-0.051060	0.500066
C360	C	1.407660	0.198940	0.750066
C361	C	0.658172	-0.500648	0.000071
C362	C	0.908172	-0.250648	0.250071
C363	C	1.158172	-0.000648	0.500071
C364	C	1.408172	0.249352	0.750071
C365	C	0.481859	-0.476323	0.000041
C366	C	0.731859	-0.226323	0.250041
C367	C	0.981859	0.023677	0.500041
C368	C	1.231859	0.273677	0.750041
C369	C	0.481351	-0.526735	0.000037
C370	C	0.731351	-0.276735	0.250037
C371	C	0.981351	-0.026735	0.500037
C372	C	1.231351	0.223265	0.750037
C373	C	0.525172	-0.558023	0.000044
C374	C	0.775172	-0.308023	0.250044
C375	C	1.025172	-0.058023	0.500044
C376	C	1.275172	0.191977	0.750044
C377	C	0.658925	0.057739	0.000085
C378	C	0.908925	0.307739	0.250085
C379	C	1.158925	0.557739	0.500085
C380	C	1.408925	0.807739	0.750085
C381	C	0.712580	0.058295	0.000090
C382	C	0.962580	0.308295	0.250090
C383	C	1.212580	0.558295	0.500090
C384	C	1.462580	0.808295	0.750090
C385	C	0.566333	0.150326	0.000060
C386	C	0.816333	0.400326	0.250060
C387	C	1.066333	0.650326	0.500060
C388	C	1.316333	0.900326	0.750060
C389	C	0.566886	0.203981	0.000053
C390	C	0.816886	0.453981	0.250053
C391	C	1.066886	0.703981	0.500053
C392	C	1.316886	0.953981	0.750053
N393	N	0.570504	0.061940	0.129320
N394	N	0.820504	0.311940	0.379320
N395	N	1.070504	0.561940	0.629320
N396	N	1.320504	0.811940	0.879320
N397	N	0.570545	0.061901	-0.129174
N398	N	0.820545	0.311901	0.120826
N399	N	1.070545	0.561901	0.370826
N400	N	1.320545	0.811901	0.620826
C401	C	0.603635	0.028817	0.473955
C402	C	0.853635	0.278817	0.723955
C403	C	1.103635	0.528817	0.973955
C404	C	1.353635	0.778817	1.223955
C405	C	0.603647	0.028810	0.682833
C406	C	0.853647	0.278810	0.932833
C407	C	1.103647	0.528810	1.182833
C408	C	1.353647	0.778810	1.432833
O409	O	0.631796	0.000651	0.709845
O410	O	0.881796	0.250651	0.959845
O411	O	1.131796	0.500651	1.209845
O412	O	1.381796	0.750651	1.459845
N413	N	0.570534	0.061904	0.708947
N414	N	0.820534	0.311904	0.958947
N415	N	1.070534	0.561904	1.208947
N416	N	1.320534	0.811904	1.458947
C417	C	0.537415	0.095001	0.682839
C418	C	0.787415	0.345001	0.932839
C419	C	1.037415	0.595001	1.182839
C420	C	1.287415	0.845001	1.432839
O421	O	0.509248	0.123147	0.709843
O422	O	0.759248	0.373147	0.959843
O423	O	1.009248	0.623147	1.209843
O424	O	1.259248	0.873147	1.459843
C425	C	0.537402	0.095006	0.473962
C426	C	0.787402	0.345006	0.723962
C427	C	1.037402	0.595006	0.973962
C428	C	1.287402	0.845006	1.223962
C429	C	0.570519	0.061912	0.447851
C430	C	0.820519	0.311912	0.697851
C431	C	1.070519	0.561912	0.947851
C432	C	1.320519	0.811912	1.197851
C433	C	0.636750	-0.004274	0.447844
C434	C	0.886750	0.245726	0.697844
C435	C	1.136750	0.495726	0.947844
C436	C	1.386750	0.745726	1.197844
C437	C	0.636748	-0.004270	0.395628
C438	C	0.886748	0.245730	0.645628
C439	C	1.136748	0.495730	0.895628
C440	C	1.386748	0.745730	1.145628
C441	C	0.603632	0.028825	0.369523
C442	C	0.853632	0.278825	0.619523
C443	C	1.103632	0.528825	0.869523
C444	C	1.353632	0.778825	1.119523
C445	C	0.570518	0.061916	0.395634
C446	C	0.820518	0.311916	0.645634
C447	C	1.070518	0.561916	0.895634
C448	C	1.320518	0.811916	1.145634
C449	C	0.504280	0.128100	0.447855
C450	C	0.754280	0.378100	0.697855
C451	C	1.004280	0.628100	0.947855
C452	C	1.254280	0.878100	1.197855
C453	C	0.504279	0.128097	0.395632
C454	C	0.754279	0.378097	0.645632
C455	C	1.004279	0.628097	0.895632
C456	C	1.254279	0.878097	1.145632
C457	C	0.537397	0.095004	0.369521
C458	C	0.787397	0.345004	0.619521
C459	C	1.037397	0.595004	0.869521
C460	C	1.287397	0.845004	1.119521
C461	C	0.537400	0.095015	0.317313
C462	C	0.787400	0.345015	0.567313
C463	C	1.037400	0.595015	0.817313
C464	C	1.287400	0.845015	1.067313
N465	N	0.570512	0.061921	0.291199
N466	N	0.820512	0.311921	0.541199
N467	N	1.070512	0.561921	0.791199
N468	N	1.320512	0.811921	1.041199
C469	C	0.603628	0.028826	0.317304
C470	C	0.853628	0.278826	0.567304
C471	C	1.103628	0.528826	0.817304
C472	C	1.353628	0.778826	1.067304
C473	C	0.537425	0.094997	0.792502
C474	C	0.787425	0.344997	1.042502
C475	C	1.037425	0.594997	1.292502
C476	C	1.287425	0.844997	1.542502
C477	C	0.537429	0.094996	0.844721
C478	C	0.787429	0.344996	1.094721
C479	C	1.037429	0.594996	1.344721
C480	C	1.287429	0.844996	1.594721
C481	C	0.603660	0.028804	0.844712
C482	C	0.853660	0.278804	1.094712
C483	C	1.103660	0.528804	1.344712
C484	C	1.353660	0.778804	1.594712
C485	C	0.603658	0.028808	0.792492
C486	C	0.853658	0.278808	1.042492
C487	C	1.103658	0.528808	1.292492
C488	C	1.353658	0.778808	1.542492
C489	C	0.570537	0.061902	0.766388
C490	C	0.820537	0.311902	1.016388
C491	C	1.070537	0.561902	1.266388
C492	C	1.320537	0.811902	1.516388
C493	C	0.603623	0.028837	0.207646
C494	C	0.853623	0.278837	0.457646
C495	C	1.103623	0.528837	0.707646
C496	C	1.353623	0.778837	0.957646
C497	C	0.603620	0.028845	0.155425
C498	C	0.853620	0.278845	0.405425
C499	C	1.103620	0.528845	0.655425
C500	C	1.353620	0.778845	0.905425
C501	C	0.537387	0.095035	0.155439
C502	C	0.787387	0.345035	0.405439
C503	C	1.037387	0.595035	0.655439
C504	C	1.287387	0.845035	0.905439
C505	C	0.537392	0.095029	0.207655
C506	C	0.787392	0.345029	0.457655
C507	C	1.037392	0.595029	0.707655
C508	C	1.287392	0.845029	0.957655
C509	C	0.570512	0.061926	0.233757
C510	C	0.820512	0.311926	0.483757
C511	C	1.070512	0.561926	0.733757
C512	C	1.320512	0.811926	0.983757
O513	O	0.509262	0.123156	0.290269
O514	O	0.759262	0.373156	0.540269
O515	O	1.009262	0.623156	0.790269
O516	O	1.259262	0.873156	1.040269
O517	O	0.631784	0.000677	0.290290
O518	O	0.881784	0.250677	0.540290
O519	O	1.131784	0.500677	0.790290
O520	O	1.381784	0.750677	1.040290
C521	C	0.603637	0.028813	0.526172
C522	C	0.853637	0.278813	0.776172
C523	C	1.103637	0.528813	1.026172
C524	C	1.353637	0.778813	1.276172
C525	C	0.570522	0.061904	0.552283
C526	C	0.820522	0.311904	0.802283
C527	C	1.070522	0.561904	1.052283
C528	C	1.320522	0.811904	1.302283
C529	C	0.537406	0.095000	0.526178
C530	C	0.787406	0.345000	0.776178
C531	C	1.037406	0.595000	1.026178
C532	C	1.287406	0.845000	1.276178
C533	C	0.570526	0.061904	0.604502
C534	C	0.820526	0.311904	0.854502
C535	C	1.070526	0.561904	1.104502
C536	C	1.320526	0.811904	1.354502
C537	C	0.603642	0.028809	0.630607
C538	C	0.853642	0.278809	0.880607
C539	C	1.103642	0.528809	1.130607
C540	C	1.353642	0.778809	1.380607
C541	C	0.636754	-0.004286	0.604493
C542	C	0.886754	0.245714	0.854493
C543	C	1.136754	0.495714	1.104493
C544	C	1.386754	0.745714	1.354493
C545	C	0.636753	-0.004282	0.552277
C546	C	0.886753	0.245718	0.802277
C547	C	1.136753	0.495718	1.052277
C548	C	1.386753	0.745718	1.302277
C549	C	0.504294	0.128094	0.552293
C550	C	0.754294	0.378094	0.802293
C551	C	1.004294	0.628094	1.052293
C552	C	1.254294	0.878094	1.302293
C553	C	0.504298	0.128088	0.604509
C554	C	0.754298	0.378088	0.854509
C555	C	1.004298	0.628088	1.104509
C556	C	1.254298	0.878088	1.354509
C557	C	0.537414	0.094993	0.630614
C558	C	0.787414	0.344993	0.880614
C559	C	1.037414	0.594993	1.130614
C560	C	1.287414	0.844993	1.380614
H561	H	-0.180248	-0.020712	0.000100
H562	H	0.069752	0.229288	0.250100
H563	H	0.319752	0.479288	0.500100
H564	H	0.569752	0.729288	0.750100
F565	F	0.469046	0.163320	0.524516
F566	F	0.719046	0.413320	0.774516
F567	F	0.969046	0.663320	1.024516
F568	F	1.219046	0.913320	1.274516
F569	F	0.475874	-0.785078	0.000044
F570	F	0.725874	-0.535078	0.250044
F571	F	0.975874	-0.285078	0.500044
F572	F	1.225874	-0.035078	0.750044
H573	H	0.695813	-0.333847	0.000092
H574	H	0.945813	-0.083847	0.250092
H575	H	1.195813	0.166153	0.500092
H576	H	1.445813	0.416153	0.750092
F577	F	0.671999	-0.039502	0.475620
F578	F	0.921999	0.210498	0.725620
F579	F	1.171999	0.460498	0.975620
F580	F	1.421999	0.710498	1.225620
H581	H	0.510426	0.121982	0.134176
H582	H	0.760426	0.371982	0.384176
H583	H	1.010426	0.621982	0.634176
H584	H	1.260426	0.871982	0.884176
F585	F	0.638905	-0.006418	0.872504
F586	F	0.888905	0.243582	1.122504
F587	F	1.138905	0.493582	1.372504
F588	F	1.388905	0.743582	1.622504
F589	F	0.638873	-0.006395	0.235418
F590	F	0.888873	0.243605	0.485418
F591	F	1.138873	0.493605	0.735418
F592	F	1.388873	0.743605	0.985418
F593	F	0.672001	-0.039505	0.524493
F594	F	0.922001	0.210495	0.774493
F595	F	1.172001	0.460495	1.024493
F596	F	1.422001	0.710495	1.274493
H597	H	-0.067950	0.184742	0.000090
H598	H	0.182050	0.434742	0.250090
H599	H	0.432050	0.684742	0.500090
H600	H	0.682050	0.934742	0.750090
H601	H	0.510466	0.121949	0.865977
H602	H	0.760466	0.371949	1.115977
H603	H	1.010466	0.621949	1.365977
H604	H	1.260466	0.871949	1.615977
F605	F	0.313471	0.155510	0.000051
F606	F	0.563471	0.405510	0.250051
F607	F	0.813471	0.655510	0.500051
F608	F	1.063471	0.905510	0.750051
H609	H	0.654087	-0.095857	0.000105
H610	H	0.904087	0.154143	0.250105
H611	H	1.154087	0.404143	0.500105
H612	H	1.404087	0.654143	0.750105
F613	F	0.638906	-0.006415	0.764707
F614	F	0.888906	0.243585	1.014707
F615	F	1.138906	0.493585	1.264707
F616	F	1.388906	0.743585	1.514707
F617	F	-0.197522	0.150328	0.000073
F618	F	0.052478	0.400328	0.250073
F619	F	0.302478	0.650328	0.500073
F620	F	0.552478	0.900328	0.750073
H621	H	0.653163	-0.187309	0.000089
H622	H	0.903163	0.062691	0.250089
H623	H	1.153163	0.312691	0.500089
H624	H	1.403163	0.562691	0.750089
H625	H	0.663714	-0.031219	0.374371
H626	H	0.913714	0.218781	0.624371
H627	H	1.163714	0.468781	0.874371
H628	H	1.413714	0.718781	1.124371
F629	F	-0.276483	-0.032719	0.000094
F630	F	-0.026483	0.217281	0.250094
F631	F	0.223517	0.467281	0.500094
F632	F	0.473517	0.717281	0.750094
F633	F	-0.038492	-0.074451	0.000092
F634	F	0.211508	0.175549	0.250092
F635	F	0.461508	0.425549	0.500092
F636	F	0.711508	0.675549	0.750092
H637	H	0.646906	-0.802377	0.000065
H638	H	0.896906	-0.552377	0.250065
H639	H	1.146906	-0.302377	0.500065
H640	H	1.396906	-0.052377	0.750065
H641	H	0.057737	-0.062438	0.000096
H642	H	0.307737	0.187562	0.250096
H643	H	0.557737	0.437562	0.500096
H644	H	0.807737	0.687562	0.750096
F645	F	0.338574	-0.026488	0.000067
F646	F	0.588574	0.223512	0.250067
F647	F	0.838574	0.473512	0.500067
F648	F	1.088574	0.723512	0.750067
F649	F	0.672000	-0.039507	0.632285
F650	F	0.922000	0.210493	0.882285
F651	F	1.172000	0.460493	1.132285
F652	F	1.422000	0.710493	1.382285
F653	F	0.216811	-0.071856	0.000091
F654	F	0.466811	0.178144	0.250091
F655	F	0.716811	0.428144	0.500091
F656	F	0.966811	0.678144	0.750091
F657	F	0.028282	0.196759	0.000078
F658	F	0.278282	0.446759	0.250078
F659	F	0.528282	0.696759	0.500078
F660	F	0.778282	0.946759	0.750078
H661	H	0.434821	-0.014469	0.000061
H662	H	0.684821	0.235531	0.250061
H663	H	0.934821	0.485531	0.500061
H664	H	1.184821	0.735531	0.750061
F665	F	0.075478	0.197229	0.000066
F666	F	0.325478	0.447229	0.250066
F667	F	0.575478	0.697229	0.500066
F668	F	0.825478	0.947229	0.750066
F669	F	0.179530	0.198285	0.000062
F670	F	0.429530	0.448285	0.250062
F671	F	0.679530	0.698285	0.500062
F672	F	0.929530	0.948285	0.750062
H673	H	0.412744	0.145477	0.000039
H674	H	0.662744	0.395477	0.250039
H675	H	0.912744	0.645477	0.500039
H676	H	1.162744	0.895477	0.750039
F677	F	0.705842	-0.433117	0.000086
F678	F	0.955842	-0.183117	0.250086
F679	F	1.205842	0.066883	0.500086
F680	F	1.455842	0.316883	0.750086
F681	F	-0.301595	0.149269	0.000078
F682	F	-0.051595	0.399269	0.250078
F683	F	0.198405	0.649269	0.500078
F684	F	0.448405	0.899269	0.750078
H685	H	0.694276	-0.485083	0.000080
H686	H	0.944276	-0.235083	0.250080
H687	H	1.194276	0.014917	0.500080
H688	H	1.444276	0.264917	0.750080
H689	H	0.117526	-0.061832	0.000093
H690	H	0.367526	0.188168	0.250093
H691	H	0.617526	0.438168	0.500093
H692	H	0.867526	0.688168	0.750093
F693	F	0.469050	0.163315	0.632294
F694	F	0.719050	0.413315	0.882294
F695	F	0.969050	0.663315	1.132294
F696	F	1.219050	0.913315	1.382294
H697	H	0.647841	-0.710911	0.000072
H698	H	0.897841	-0.460911	0.250072
H699	H	1.147841	-0.210911	0.500072
H700	H	1.397841	0.039089	0.750072
F701	F	0.476930	-0.681023	0.000036
F702	F	0.726930	-0.431023	0.250036
F703	F	0.976930	-0.181023	0.500036
F704	F	1.226930	0.068977	0.750036
H705	H	0.446774	-0.391054	0.000028
H706	H	0.696774	-0.141054	0.250028
H707	H	0.946774	0.108946	0.500028
H708	H	1.196774	0.358946	0.750028
H709	H	0.510453	0.121948	0.771252
H710	H	0.760453	0.371948	1.021252
H711	H	1.010453	0.621948	1.271252
H712	H	1.260453	0.871948	1.521252
H713	H	0.447706	-0.299603	0.000031
H714	H	0.697706	-0.049603	0.250031
H715	H	0.947706	0.200397	0.500031
H716	H	1.197706	0.450397	0.750031
H717	H	0.477313	0.155047	0.469107
H718	H	0.727313	0.405047	0.719107
H719	H	0.977313	0.655047	0.969107
H720	H	1.227313	0.905047	1.219107
F721	F	0.435215	-0.443029	0.000033
F722	F	0.685215	-0.193029	0.250033
F723	F	0.935215	0.056971	0.500033
F724	F	1.185215	0.306971	0.750033
F725	F	0.704298	-0.584368	0.000076
F726	F	0.954298	-0.334368	0.250076
F727	F	1.204298	-0.084368	0.500076
F728	F	1.454298	0.165632	0.750076
F729	F	0.482123	-0.170032	0.000072
F730	F	0.732123	0.079968	0.250072
F731	F	0.982123	0.329968	0.500072
F732	F	1.232123	0.579968	0.750072
H733	H	0.630590	0.001896	0.134167
H734	H	0.880590	0.251896	0.384167
H735	H	1.130590	0.501896	0.634167
H736	H	1.380590	0.751896	0.884167
F737	F	0.483185	-0.065958	0.000073
F738	F	0.733185	0.184042	0.250073
F739	F	0.983185	0.434042	0.500073
F740	F	1.233185	0.684042	0.750073
H741	H	0.445243	-0.542300	0.000033
H742	H	0.695243	-0.292300	0.250033
H743	H	0.945243	-0.042300	0.500033
H744	H	1.195243	0.207700	0.750033
H745	H	0.477306	0.155047	0.374381
H746	H	0.727306	0.405047	0.624381
H747	H	0.977306	0.655047	0.874381
H748	H	1.227306	0.905047	1.124381
F749	F	0.502149	0.130256	0.235444
F750	F	0.752149	0.380256	0.485444
F751	F	1.002149	0.630256	0.735444
F752	F	1.252149	0.880256	0.985444
