data_functionalizedCrystal
_audit_creation_method	'MofGen! by Chris Wilmer'
_symmetry_space_group_name_H-M	'P1'
_symmetry_Int_Tables_number	1
_symmetry_cell_setting	triclinic
loop_
_symmetry_equiv_pos_as_xyz
  x,y,z
_cell_length_a	19.188930
_cell_length_b	17.666332
_cell_length_c	19.188924
_cell_angle_alpha	90.008552
_cell_angle_beta	83.143372
_cell_angle_gamma	90.023234
loop_
_atom_site_label
_atom_site_type_symbol
_atom_site_fract_x
_atom_site_fract_y
_atom_site_fract_z
O1	O	0.926147	0.063195	0.087169
O2	O	1.259481	0.396528	0.420502
O3	O	1.592814	0.729862	0.753836
O4	O	0.722836	0.063144	0.098903
O5	O	1.056169	0.396477	0.432237
O6	O	1.389503	0.729810	0.765570
O7	O	0.830361	0.063162	-0.008620
O8	O	1.163695	0.396495	0.324714
O9	O	1.497028	0.729829	0.658047
O10	O	0.818622	0.063177	0.194692
O11	O	1.151955	0.396510	0.528026
O12	O	1.485289	0.729843	0.861359
O13	O	0.830343	-0.062735	-0.008625
O14	O	1.163676	0.270598	0.324708
O15	O	1.497009	0.603932	0.658041
O16	O	0.722817	-0.062753	0.098898
O17	O	1.056150	0.270580	0.432231
O18	O	1.389484	0.603914	0.765564
O19	O	0.926129	-0.062702	0.087163
O20	O	1.259462	0.270632	0.420497
O21	O	1.592795	0.603965	0.753830
Cu22	Cu	0.824471	-0.074223	0.093030
Cu23	Cu	1.157804	0.259111	0.426363
Cu24	Cu	1.491138	0.592444	0.759697
Cu25	Cu	0.824493	0.074665	0.093037
Cu26	Cu	1.157827	0.407998	0.426370
Cu27	Cu	1.491160	0.741331	0.759703
O28	O	0.818603	-0.062720	0.194687
O29	O	1.151937	0.270613	0.528020
O30	O	1.485270	0.603947	0.861353
C31	C	0.696815	0.000189	0.098521
C32	C	1.030149	0.333522	0.431854
C33	C	1.363482	0.666855	0.765187
C34	C	0.619311	0.000169	0.097380
C35	C	0.952644	0.333502	0.430713
C36	C	1.285978	0.666835	0.764047
N37	N	0.824461	-0.178942	0.093025
N38	N	1.157794	0.154391	0.426358
N39	N	1.491127	0.487724	0.759692
C40	C	0.574386	0.000185	0.160471
C41	C	0.907719	0.333518	0.493804
C42	C	1.241052	0.666852	0.827138
C43	C	0.501562	0.000193	0.159399
C44	C	0.834895	0.333527	0.492733
C45	C	1.168228	0.666860	0.826066
C46	C	0.473667	0.000200	0.095233
C47	C	0.807000	0.333534	0.428566
C48	C	1.140333	0.666867	0.761900
C49	C	0.518602	0.000180	0.032134
C50	C	0.851935	0.333513	0.365467
C51	C	1.185269	0.666846	0.698800
C52	C	0.591424	0.000164	0.033207
C53	C	0.924758	0.333497	0.366540
C54	C	1.258091	0.666830	0.699874
N55	N	0.365694	0.043075	0.046188
N56	N	0.699027	0.376409	0.379521
N57	N	1.032361	0.709742	0.712854
N58	N	0.296516	0.043092	0.045172
N59	N	0.629849	0.376425	0.378506
N60	N	0.963182	0.709759	0.711839
C61	C	0.254258	0.000246	0.091995
C62	C	0.587592	0.333580	0.425328
C63	C	0.920925	0.666913	0.758661
N64	N	0.283791	-0.042607	0.139882
N65	N	0.617125	0.290726	0.473215
N66	N	0.950458	0.624060	0.806548
N67	N	0.352976	-0.042620	0.140899
N68	N	0.686309	0.290713	0.474233
N69	N	1.019643	0.624046	0.807566
C70	C	0.394704	0.000217	0.094062
C71	C	0.728038	0.333550	0.427395
C72	C	1.061371	0.666884	0.760729
C73	C	0.130368	0.000271	0.153928
C74	C	0.463702	0.333604	0.487262
C75	C	0.797035	0.666937	0.820595
C76	C	0.057543	0.000274	0.152854
C77	C	0.390877	0.333608	0.486187
C78	C	0.724210	0.666941	0.819521
C79	C	0.074585	0.000268	0.025586
C80	C	0.407919	0.333601	0.358920
C81	C	0.741252	0.666935	0.692253
C82	C	0.147409	0.000257	0.026663
C83	C	0.480742	0.333590	0.359996
C84	C	0.814075	0.666924	0.693329
C85	C	0.175295	0.000262	0.090835
C86	C	0.508629	0.333595	0.424169
C87	C	0.841962	0.666928	0.757502
C88	C	0.872088	-0.218544	0.045437
C89	C	1.205422	0.114789	0.378770
C90	C	1.538755	0.448123	0.712104
C91	C	0.872092	-0.297791	0.045433
C92	C	1.205426	0.035542	0.378767
C93	C	1.538759	0.368875	0.712100
C94	C	0.824475	-0.337434	0.093030
C95	C	1.157809	-0.004101	0.426363
C96	C	1.491142	0.329232	0.759697
C97	C	0.776839	-0.297823	0.140622
C98	C	1.110172	0.035510	0.473955
C99	C	1.443506	0.368843	0.807289
C100	C	0.776831	-0.218577	0.140619
C101	C	1.110165	0.114756	0.473953
C102	C	1.443498	0.448090	0.807286
N103	N	0.815398	-0.461850	0.154838
N104	N	1.148731	-0.128517	0.488171
N105	N	1.482064	0.204817	0.821504
N106	N	0.815409	-0.537130	0.154838
N107	N	1.148742	-0.203797	0.488171
N108	N	1.482076	0.129536	0.821505
C109	C	0.824494	-0.576198	0.093040
C110	C	1.157827	-0.242865	0.426373
C111	C	1.491160	0.090468	0.759707
N112	N	0.833581	-0.537142	0.031239
N113	N	1.166914	-0.203809	0.364573
N114	N	1.500248	0.129525	0.697906
N115	N	0.833573	-0.461855	0.031240
N116	N	1.166907	-0.128521	0.364573
N117	N	1.500240	0.204812	0.697906
C118	C	0.824478	-0.423363	0.093038
C119	C	1.157811	-0.090030	0.426371
C120	C	1.491144	0.243303	0.759705
C121	C	0.872128	-0.701729	0.045444
C122	C	1.205462	-0.368396	0.378778
C123	C	1.538795	-0.035063	0.712111
C124	C	0.872128	-0.780978	0.045440
C125	C	1.205461	-0.447645	0.378773
C126	C	1.538794	-0.114312	0.712107
C127	C	0.776878	-0.781009	0.140634
C128	C	1.110211	-0.447675	0.473968
C129	C	1.443544	-0.114342	0.807301
C130	C	0.776875	-0.701761	0.140633
C131	C	1.110208	-0.368428	0.473966
C132	C	1.443542	-0.035094	0.807299
C133	C	0.824504	-0.662126	0.093038
C134	C	1.157837	-0.328793	0.426372
C135	C	1.491171	0.004541	0.759705
C136	C	0.952149	0.000255	0.087546
C137	C	1.285482	0.333588	0.420880
C138	C	1.618816	0.666922	0.754213
C139	C	1.029654	0.000280	0.088687
C140	C	1.362987	0.333613	0.422020
C141	C	1.696320	0.666947	0.755354
C142	C	0.829973	0.000213	-0.034634
C143	C	1.163306	0.333546	0.298700
C144	C	1.496639	0.666879	0.632033
C145	C	0.828834	0.000210	-0.112138
C146	C	1.162167	0.333544	0.221195
C147	C	1.495500	0.666877	0.554528
N148	N	0.824509	0.179384	0.093036
N149	N	1.157843	0.512717	0.426370
N150	N	1.491176	0.846051	0.759703
C151	C	0.828313	0.068837	-0.148534
C152	C	1.161646	0.402170	0.184799
C153	C	1.494979	0.735503	0.518132
C154	C	0.827233	0.068842	-0.221357
C155	C	1.160566	0.402176	0.111976
C156	C	1.493899	0.735509	0.445310
C157	C	0.826688	0.000217	-0.257783
C158	C	1.160021	0.333551	0.075550
C159	C	1.493355	0.666884	0.408884
C160	C	0.827205	-0.068418	-0.221378
C161	C	1.160539	0.264915	0.111956
C162	C	1.493872	0.598249	0.445289
C163	C	0.828278	-0.068421	-0.148556
C164	C	1.161612	0.264912	0.184778
C165	C	1.494945	0.598245	0.518111
N166	N	0.864728	-0.050849	-0.377448
N167	N	1.198062	0.282485	-0.044115
N168	N	1.531395	0.615818	0.289218
N169	N	0.863710	-0.050841	-0.446627
N170	N	1.197044	0.282493	-0.113293
N171	N	1.530377	0.615826	0.220040
C172	C	0.823454	0.000224	-0.477192
C173	C	1.156787	0.333557	-0.143859
C174	C	1.490121	0.666891	0.189475
N175	N	0.784262	0.051292	-0.435967
N176	N	1.117596	0.384625	-0.102634
N177	N	1.450929	0.717958	0.230700
N178	N	0.785283	0.051286	-0.366783
N179	N	1.118617	0.384619	-0.033449
N180	N	1.451950	0.717953	0.299884
C181	C	0.825524	0.000214	-0.336746
C182	C	1.158858	0.333547	-0.003413
C183	C	1.492191	0.666880	0.329920
C184	C	0.821761	0.068861	-0.592550
C185	C	1.155094	0.402194	-0.259217
C186	C	1.488427	0.735528	0.074116
C187	C	0.820676	0.068864	-0.665374
C188	C	1.154010	0.402197	-0.332041
C189	C	1.487343	0.735530	0.001293
C190	C	0.820656	-0.068399	-0.665394
C191	C	1.153990	0.264935	-0.332061
C192	C	1.487323	0.598268	0.001272
C193	C	0.821734	-0.068399	-0.592571
C194	C	1.155067	0.264934	-0.259238
C195	C	1.488400	0.598267	0.074095
C196	C	0.822289	0.000233	-0.556154
C197	C	1.155622	0.333566	-0.222821
C198	C	1.488956	0.666899	0.110512
C199	C	0.818992	0.000231	0.220700
C200	C	1.152325	0.333564	0.554034
C201	C	1.485659	0.666898	0.887367
C202	C	0.820131	0.000238	0.298205
C203	C	1.153464	0.333571	0.631539
C204	C	1.486797	0.666905	0.964872
H205	H	0.464976	0.000205	0.210777
H206	H	0.798310	0.333538	0.544111
H207	H	1.131643	0.666871	0.877444
H208	H	0.822209	0.124745	-0.562898
H209	H	1.155542	0.458078	-0.229564
H210	H	1.488876	0.791412	0.103769
N211	N	0.820135	0.138975	-0.702542
N212	N	1.153468	0.472308	-0.369209
N213	N	1.486802	0.805641	-0.035875
N214	N	0.820629	0.200243	-0.670014
N215	N	1.153962	0.533576	-0.336681
N216	N	1.487296	0.866910	-0.003347
H217	H	0.820246	0.249761	-0.696264
H218	H	1.153579	0.583094	-0.362931
H219	H	1.486913	0.916428	-0.029597
N220	N	0.602867	0.000163	0.226021
N221	N	0.936201	0.333497	0.559354
N222	N	1.269534	0.666830	0.892688
N223	N	0.641566	-0.052919	0.240816
N224	N	0.974899	0.280414	0.574150
N225	N	1.308233	0.613747	0.907483
H226	H	0.661682	-0.052939	0.287112
H227	H	0.995015	0.280395	0.620446
H228	H	1.328348	0.613728	0.953779
N229	N	0.728238	-0.821481	0.189264
N230	N	1.061571	-0.488148	0.522598
N231	N	1.394905	-0.154814	0.855931
N232	N	0.685720	-0.786108	0.231757
N233	N	1.019054	-0.452775	0.565091
N234	N	1.352387	-0.119441	0.898424
H235	H	0.651366	-0.814694	0.266104
H236	H	0.984699	-0.481360	0.599437
H237	H	1.318033	-0.148027	0.932770
H238	H	0.051874	0.000321	-0.026659
H239	H	0.385208	0.333654	0.306674
H240	H	0.718541	0.666987	0.640008
H241	H	0.910910	-0.813223	0.006684
H242	H	1.244243	-0.479889	0.340018
H243	H	1.577576	-0.146556	0.673351
N244	N	0.158861	0.000250	0.219475
N245	N	0.492194	0.333583	0.552808
N246	N	0.825527	0.666916	0.886142
N247	N	0.197567	-0.052828	0.234264
N248	N	0.530900	0.280505	0.567598
N249	N	0.864234	0.613839	0.900931
H250	H	0.217689	-0.052845	0.280557
H251	H	0.551022	0.280488	0.613890
H252	H	0.884356	0.613821	0.947224
H253	H	0.628003	0.000151	-0.018171
H254	H	0.961337	0.333484	0.315162
H255	H	1.294670	0.666817	0.648496
N256	N	0.011640	0.000287	0.217297
N257	N	0.344974	0.333620	0.550631
N258	N	0.678307	0.666954	0.883964
N259	N	-0.053378	0.000291	0.216331
N260	N	0.279956	0.333624	0.549664
N261	N	0.613289	0.666958	0.882998
H262	H	-0.085799	0.000297	0.261845
H263	H	0.247534	0.333630	0.595178
H264	H	0.580867	0.666963	0.928512
H265	H	0.495885	0.000196	-0.020111
H266	H	0.829219	0.333529	0.313222
H267	H	1.162552	0.666862	0.646556
H268	H	0.183988	0.000248	-0.024713
H269	H	0.517322	0.333581	0.308620
H270	H	0.850655	0.666914	0.641953
N271	N	0.820093	-0.138506	-0.702580
N272	N	1.153426	0.194827	-0.369247
N273	N	1.486760	0.528161	-0.035913
N274	N	0.771001	-0.184469	-0.687861
N275	N	1.104334	0.148864	-0.354528
N276	N	1.437668	0.482197	-0.021195
H277	H	0.770600	-0.233986	-0.714125
H278	H	1.103934	0.099347	-0.380792
H279	H	1.437267	0.432681	-0.047458
H280	H	0.828700	-0.124307	-0.118922
H281	H	1.162033	0.209026	0.214411
H282	H	1.495366	0.542360	0.547745
N283	N	0.920802	-0.178071	-0.003124
N284	N	1.254135	0.155262	0.330209
N285	N	1.587468	0.488596	0.663543
N286	N	0.963363	-0.213446	-0.045572
N287	N	1.296696	0.119888	0.287761
N288	N	1.630029	0.453221	0.621095
H289	H	0.997789	-0.184861	-0.079847
H290	H	1.331122	0.148472	0.253486
H291	H	1.664456	0.481806	0.586819
N292	N	0.920747	-0.338243	-0.003186
N293	N	1.254081	-0.004910	0.330148
N294	N	1.587414	0.328423	0.663481
N295	N	0.963265	-0.302846	-0.045678
N296	N	1.296599	0.030488	0.287656
N297	N	1.629932	0.363821	0.620989
H298	H	0.997629	-0.331412	-0.080015
H299	H	1.330962	0.001921	0.253318
H300	H	1.664295	0.335255	0.586651
H301	H	0.738067	-0.330104	0.179375
H302	H	1.071401	0.003229	0.512708
H303	H	1.404734	0.336562	0.846041
N304	N	0.728229	-0.661318	0.189260
N305	N	1.061562	-0.327985	0.522593
N306	N	1.394896	0.005349	0.855926
N307	N	0.728986	-0.670159	0.253794
N308	N	1.062319	-0.336826	0.587127
N309	N	1.395653	-0.003492	0.920460
H310	H	0.694626	-0.641598	0.288139
H311	H	1.027959	-0.308264	0.621472
H312	H	1.361293	0.025069	0.954806
N313	N	0.728172	-0.178133	0.189235
N314	N	1.061506	0.155201	0.522568
N315	N	1.394839	0.488534	0.855901
N316	N	0.685655	-0.213532	0.231725
N317	N	1.018988	0.119801	0.565059
N318	N	1.352322	0.453134	0.898392
H319	H	0.651288	-0.184968	0.266062
H320	H	0.984622	0.148365	0.599395
H321	H	1.317955	0.481699	0.932728
N322	N	0.822260	-0.138501	-0.555390
N323	N	1.155594	0.194833	-0.222056
N324	N	1.488927	0.528166	0.111277
N325	N	0.772927	-0.184463	-0.556942
N326	N	1.106261	0.148871	-0.223608
N327	N	1.439594	0.482204	0.109725
H328	H	0.773296	-0.233976	-0.530682
H329	H	1.106629	0.099358	-0.197348
H330	H	1.439963	0.432691	0.135985
N331	N	0.920695	-0.661249	-0.003261
N332	N	1.254028	-0.327916	0.330072
N333	N	1.587362	0.005417	0.663406
N334	N	0.963156	-0.696622	-0.045811
N335	N	1.296489	-0.363289	0.287522
N336	N	1.629822	-0.029955	0.620855
H337	H	0.997424	-0.668036	-0.080243
H338	H	1.330757	-0.334702	0.253090
H339	H	1.664091	-0.001369	0.586423
H340	H	0.828763	0.124722	-0.118888
H341	H	1.162096	0.458056	0.214446
H342	H	1.495429	0.791389	0.547779
N343	N	0.826710	0.138939	-0.258557
N344	N	1.160043	0.472272	0.074777
N345	N	1.493376	0.805605	0.408110
N346	N	0.825755	0.138929	-0.323576
N347	N	1.159088	0.472262	0.009757
N348	N	1.492422	0.805595	0.343090
H349	H	0.825386	0.188434	-0.349849
H350	H	1.158720	0.521767	-0.016515
H351	H	1.492053	0.855101	0.316818
N352	N	0.826642	-0.138510	-0.258592
N353	N	1.159976	0.194823	0.074741
N354	N	1.493309	0.528157	0.408074
N355	N	0.825685	-0.138498	-0.323612
N356	N	1.159018	0.194835	0.009722
N357	N	1.492351	0.528168	0.343055
H358	H	0.825284	-0.188003	-0.349895
H359	H	1.158617	0.145331	-0.016561
H360	H	1.491950	0.478664	0.316772
