data_functionalizedCrystal
_audit_creation_method	'MofGen! by Chris Wilmer'
_symmetry_space_group_name_H-M	'P1'
_symmetry_Int_Tables_number	1
_symmetry_cell_setting	triclinic
loop_
_symmetry_equiv_pos_as_xyz
  x,y,z
_cell_length_a	10.967926
_cell_length_b	10.967829
_cell_length_c	14.048226
_cell_angle_alpha	77.865708
_cell_angle_beta	102.122801
_cell_angle_gamma	87.248880
loop_
_atom_site_label
_atom_site_type_symbol
_atom_site_fract_x
_atom_site_fract_y
_atom_site_fract_z
O1	O	1.657149	0.175009	0.163981
O2	O	1.990483	0.508342	0.497315
O3	O	2.323816	0.841676	0.830648
O4	O	1.294007	0.191768	0.101659
O5	O	1.627341	0.525101	0.434992
O6	O	1.960674	0.858435	0.768325
O7	O	1.483951	0.001808	0.163984
O8	O	1.817284	0.335142	0.497317
O9	O	2.150617	0.668475	0.830650
O10	O	1.467206	0.364969	0.101656
O11	O	1.800539	0.698302	0.434989
O12	O	2.133872	1.031635	0.768323
O13	O	1.483928	0.001797	0.322303
O14	O	1.817261	0.335130	0.655636
O15	O	2.150594	0.668464	0.988970
O16	O	1.293984	0.191757	0.259978
O17	O	1.627318	0.525090	0.593311
O18	O	1.960651	0.858423	0.926645
O19	O	1.657126	0.174998	0.322301
O20	O	1.990459	0.508331	0.655634
O21	O	2.323793	0.841664	0.988967
Zn22	Zn	1.475551	0.183375	0.316276
Zn23	Zn	1.808885	0.516709	0.649609
Zn24	Zn	2.142218	0.850042	0.982943
Zn25	Zn	1.475582	0.183390	0.107683
Zn26	Zn	1.808915	0.516724	0.441017
Zn27	Zn	2.142249	0.850057	0.774350
O28	O	1.467183	0.364957	0.259976
O29	O	1.800516	0.698290	0.593309
O30	O	2.133849	1.031624	0.926642
C31	C	1.247497	0.190544	0.173390
C32	C	1.580831	0.523877	0.506723
C33	C	1.914164	0.857210	0.840057
C34	C	1.108947	0.186898	0.151259
C35	C	1.442280	0.520231	0.484592
C36	C	1.775614	0.853565	0.817926
C37	C	1.047165	0.185267	0.223406
C38	C	1.380498	0.518600	0.556740
C39	C	1.713831	0.851933	0.890073
C40	C	0.903966	0.181499	0.200534
C41	C	1.237299	0.514832	0.533868
C42	C	1.570632	0.848165	0.867201
C43	C	1.482719	-0.044698	0.250570
C44	C	1.816052	0.288636	0.583903
C45	C	2.149386	0.621969	0.917237
C46	C	1.479069	-0.183255	0.272697
C47	C	1.812402	0.150078	0.606030
C48	C	2.145735	0.483412	0.939364
C49	C	1.477453	-0.245016	0.200547
C50	C	1.810787	0.088317	0.533880
C51	C	2.144120	0.421651	0.867214
C52	C	1.473680	-0.388222	0.223414
C53	C	1.807013	-0.054888	0.556748
C54	C	2.140347	0.278445	0.890081
C55	C	1.703636	0.176222	0.250567
C56	C	2.036969	0.509555	0.583900
C57	C	2.370303	0.842888	0.917234
C58	C	1.842186	0.179867	0.272692
C59	C	2.175520	0.513201	0.606025
C60	C	2.508853	0.846534	0.939359
C61	C	1.468414	0.411463	0.173387
C62	C	1.801748	0.744797	0.506720
C63	C	2.135081	1.078130	0.840054
C64	C	1.472065	0.550020	0.151254
C65	C	1.805398	0.883354	0.484587
C66	C	2.138731	1.216687	0.817920
N67	N	1.475540	0.183364	0.458637
N68	N	1.808873	0.516698	0.791970
N69	N	2.142206	0.850031	1.125303
N70	N	1.475603	0.183392	-0.034674
N71	N	1.808937	0.516725	0.298659
N72	N	2.142270	0.850058	0.631993
C73	C	1.559674	0.099285	0.536051
C74	C	1.893007	0.432619	0.869384
C75	C	2.226340	0.765952	1.202717
C76	C	1.559682	0.099285	0.635710
C77	C	1.893015	0.432618	0.969043
C78	C	2.226349	0.765951	1.302377
C79	C	1.475562	0.183370	0.657953
C80	C	1.808895	0.516703	0.991286
C81	C	2.142228	0.850037	1.324619
C82	C	1.391419	0.267453	0.580529
C83	C	1.724752	0.600786	0.913863
C84	C	2.058085	0.934119	1.247196
C85	C	1.391405	0.267446	0.480872
C86	C	1.724739	0.600780	0.814206
C87	C	2.058072	0.934113	1.147539
C88	C	1.391455	0.267462	0.788248
C89	C	1.724788	0.600795	1.121581
C90	C	2.058122	0.934129	1.454915
C91	C	1.391470	0.267470	0.887912
C92	C	1.724803	0.600804	1.221245
C93	C	2.058136	0.934137	1.554578
C94	C	1.559732	0.099300	0.943086
C95	C	1.893065	0.432634	1.276419
C96	C	2.226398	0.765967	1.609752
C97	C	1.559718	0.099294	0.843429
C98	C	1.893051	0.432627	1.176762
C99	C	2.226385	0.765961	1.510095
C100	C	1.475576	0.183379	0.766012
C101	C	1.808910	0.516712	1.099345
C102	C	2.142243	0.850045	1.432679
H103	H	1.478858	-0.191872	0.121846
H104	H	1.812191	0.141462	0.455179
H105	H	2.145525	0.474795	0.788513
F106	F	1.471828	-0.457672	0.326287
F107	F	1.805161	-0.124339	0.659620
F108	F	2.138495	0.208995	0.992954
H109	H	1.473460	-0.396841	0.072546
H110	H	1.806794	-0.063507	0.405879
H111	H	2.140127	0.269826	0.739212
F112	F	1.649214	0.009794	0.512390
F113	F	1.982547	0.343128	0.845723
F114	F	2.315881	0.676461	1.179057
H115	H	1.477650	-0.236398	0.351395
H116	H	1.810984	0.096936	0.684729
H117	H	2.144317	0.430269	1.018062
H118	H	1.628189	0.030821	0.698742
H119	H	1.961523	0.364154	1.032076
H120	H	2.294856	0.697487	1.365409
H121	H	1.628221	0.030832	0.825321
H122	H	1.961554	0.364165	1.158654
H123	H	2.294888	0.697499	1.491987
H124	H	1.055827	0.185502	0.072559
H125	H	1.389160	0.518835	0.405892
H126	H	1.722494	0.852168	0.739226
F127	F	1.649282	0.009814	1.025481
F128	F	1.982615	0.343147	1.358815
F129	F	2.315948	0.676480	1.692148
F130	F	1.301935	0.356964	0.911575
F131	F	1.635268	0.690298	1.244909
F132	F	1.968601	1.023631	1.578242
H133	H	1.322893	0.335910	0.417840
H134	H	1.656227	0.669244	0.751173
H135	H	1.989560	1.002577	1.084506
H136	H	1.322933	0.335929	0.725216
H137	H	1.656267	0.669262	1.058549
H138	H	1.989600	1.002596	1.391882
H139	H	1.100286	0.186653	0.302108
H140	H	1.433619	0.519986	0.635441
H141	H	1.766953	0.853319	0.968775
F142	F	0.834546	0.179669	0.097661
F143	F	1.167879	0.513003	0.430994
F144	F	1.501212	0.846336	0.764327
H145	H	0.895301	0.181256	0.351399
H146	H	1.228634	0.514589	0.684732
H147	H	1.561967	0.847923	1.018066
F148	F	1.301884	0.356938	0.604202
F149	F	1.635217	0.690271	0.937535
F150	F	1.968551	1.023605	1.270869
