data_functionalizedCrystal
_audit_creation_method	'MofGen! by Chris Wilmer'
_symmetry_space_group_name_H-M	'P1'
_symmetry_Int_Tables_number	1
_symmetry_cell_setting	triclinic
loop_
_symmetry_equiv_pos_as_xyz
  x,y,z
_cell_length_a	10.654550
_cell_length_b	10.654550
_cell_length_c	9.730223
_cell_angle_alpha	89.997176
_cell_angle_beta	89.992991
_cell_angle_gamma	84.484916
loop_
_atom_site_label
_atom_site_type_symbol
_atom_site_fract_x
_atom_site_fract_y
_atom_site_fract_z
O1	O	-1.667840	-0.176396	0.114403
O2	O	-1.302361	-0.193202	0.114381
O3	O	-1.493504	-0.002059	0.114383
O4	O	-1.476697	-0.367538	0.114400
O5	O	-1.493490	-0.002059	-0.114196
O6	O	-1.302348	-0.193202	-0.114199
O7	O	-1.667826	-0.176396	-0.114177
Zn8	Zn	-1.485085	-0.184799	-0.150480
Zn9	Zn	-1.485103	-0.184799	0.150684
O10	O	-1.476684	-0.367538	-0.114180
C11	C	-1.492263	0.044739	0.000094
C12	C	-1.488571	0.184182	0.000096
C13	C	-1.255556	-0.191968	0.000088
C14	C	-1.116113	-0.188276	0.000079
C15	C	-1.714631	-0.177630	0.000119
C16	C	-1.854074	-0.181321	0.000136
C17	C	-1.036628	-0.300817	0.000104
C18	C	-0.905607	-0.297341	0.000128
C19	C	-0.933570	-0.068771	0.000107
C20	C	-1.064588	-0.072249	0.000074
C21	C	-1.088152	-0.416844	0.000110
C22	C	-1.008665	-0.529395	0.000136
C23	C	-0.877645	-0.525918	0.000160
C24	C	-0.826111	-0.409891	0.000157
C25	C	-1.477925	-0.414336	0.000112
C26	C	-1.481617	-0.553779	0.000119
N27	N	-1.485082	-0.184798	-0.356017
C28	C	-1.601112	0.263667	0.000103
C29	C	-1.597636	0.394688	0.000120
C30	C	-1.369066	0.366725	0.000116
C31	C	-1.372544	0.235707	0.000109
C32	C	-1.561913	-0.261680	-0.427929
C33	C	-1.561934	-0.261673	-0.571812
C34	C	-1.408281	-0.107899	-0.571857
C35	C	-1.408268	-0.107900	-0.427977
N36	N	-1.485116	-0.184789	0.356220
H37	H	-1.194834	-0.419688	0.000097
H38	H	-0.891600	0.025693	0.000127
F39	F	-1.245589	0.421573	0.000131
F40	F	-1.643711	-0.343499	-0.648341
F41	F	-1.252755	0.151106	0.000112
F42	F	-1.149187	0.047530	0.000045
F43	F	-1.326487	-0.026069	-0.351438
H44	H	-1.345740	-0.045293	-0.630465
F45	F	-1.643672	-0.343514	-0.351348
H46	H	-1.689279	0.459401	0.000129
H47	H	-1.695588	0.221721	0.000095
F48	F	-0.793052	-0.645702	0.000175
F49	F	-1.063514	-0.652872	0.000126
H50	H	-0.719424	-0.407069	0.000155
