data_functionalizedCrystal
_audit_creation_method	'MofGen! by Chris Wilmer'
_symmetry_space_group_name_H-M	'P1'
_symmetry_Int_Tables_number	1
_symmetry_cell_setting	triclinic
loop_
_symmetry_equiv_pos_as_xyz
  x,y,z
_cell_length_a	16.959454
_cell_length_b	17.077404
_cell_length_c	17.077396
_cell_angle_alpha	89.978543
_cell_angle_beta	90.024735
_cell_angle_gamma	89.980821
loop_
_atom_site_label
_atom_site_type_symbol
_atom_site_fract_x
_atom_site_fract_y
_atom_site_fract_z
Zn1	Zn	-0.314700	-1.200070	0.443904
Zn2	Zn	0.018633	-0.866737	0.777237
Zn3	Zn	0.351966	-0.533403	1.110571
Zn4	Zn	-0.446888	-1.199984	0.312647
Zn5	Zn	-0.113555	-0.866650	0.645980
Zn6	Zn	0.219778	-0.533317	0.979313
Zn7	Zn	-0.314726	-1.068802	0.312648
Zn8	Zn	0.018608	-0.735468	0.645981
Zn9	Zn	0.351941	-0.402135	0.979314
Zn10	Zn	-0.446839	-1.068776	0.443866
Zn11	Zn	-0.113505	-0.735443	0.777199
Zn12	Zn	0.219828	-0.402110	1.110532
O13	O	-0.380788	-1.134408	0.378266
O14	O	-0.047455	-0.801075	0.711599
O15	O	0.285878	-0.467741	1.044933
O16	O	-0.332246	-1.309905	0.426508
O17	O	0.001088	-0.976572	0.759842
O18	O	0.334421	-0.643239	1.093175
O19	O	-0.429388	-1.182556	0.202800
O20	O	-0.096054	-0.849223	0.536133
O21	O	0.237279	-0.515890	0.869466
O22	O	-0.204111	-1.086262	0.330075
O23	O	0.129222	-0.752928	0.663409
O24	O	0.462555	-0.419595	0.996742
O25	O	-0.429363	-1.309842	0.330074
O26	O	-0.096030	-0.976509	0.663407
O27	O	0.237303	-0.643175	0.996741
O28	O	-0.204093	-1.182704	0.426509
O29	O	0.129240	-0.849371	0.759842
O30	O	0.462574	-0.516037	1.093176
O31	O	-0.332288	-1.086178	0.202800
O32	O	0.001045	-0.752845	0.536134
O33	O	0.334378	-0.419511	0.869467
O34	O	-0.332240	-0.958951	0.330038
O35	O	0.001093	-0.625618	0.663372
O36	O	0.334426	-0.292285	0.996705
O37	O	-0.429279	-1.086218	0.553718
O38	O	-0.095946	-0.752885	0.887051
O39	O	0.237388	-0.419551	1.220385
O40	O	-0.429303	-0.958933	0.426444
O41	O	-0.095970	-0.625599	0.759777
O42	O	0.237363	-0.292266	1.093110
O43	O	-0.332198	-1.182679	0.553746
O44	O	0.001136	-0.849346	0.887079
O45	O	0.334469	-0.516012	1.220413
O46	O	-0.557493	-1.182532	0.330037
O47	O	-0.224159	-0.849198	0.663370
O48	O	0.109174	-0.515865	0.996703
O49	O	-0.557456	-1.086134	0.426443
O50	O	-0.224123	-0.752801	0.759776
O51	O	0.109210	-0.419468	1.093110
C52	C	-0.380770	-0.930460	0.378237
C53	C	-0.047437	-0.597127	0.711571
C54	C	0.285897	-0.263793	1.044904
C55	C	-0.380781	-0.843210	0.378244
C56	C	-0.047448	-0.509877	0.711577
C57	C	0.285886	-0.176544	1.044910
C58	C	-0.431397	-0.802231	0.428360
C59	C	-0.098064	-0.468897	0.761694
C60	C	0.235269	-0.135564	1.095027
C61	C	-0.431397	-0.720250	0.428370
C62	C	-0.098064	-0.386917	0.761703
C63	C	0.235269	-0.053584	1.095037
C64	C	-0.380785	-0.679251	0.378259
C65	C	-0.047451	-0.345917	0.711592
C66	C	0.285882	-0.012584	1.044925
C67	C	-0.330163	-0.720236	0.328140
C68	C	0.003170	-0.386903	0.661473
C69	C	0.336504	-0.053569	0.994807
C70	C	-0.330159	-0.802215	0.328135
C71	C	0.003174	-0.468882	0.661468
C72	C	0.336507	-0.135548	0.994802
C73	C	-0.330175	-0.549366	0.328153
C74	C	0.003158	-0.216033	0.661487
C75	C	0.336492	0.117301	0.994820
C76	C	-0.330179	-0.467381	0.328157
C77	C	0.003154	-0.134048	0.661490
C78	C	0.336487	0.199285	0.994824
C79	C	-0.431413	-0.467401	0.428388
C80	C	-0.098080	-0.134068	0.761722
C81	C	0.235254	0.199265	1.095055
C82	C	-0.431410	-0.549380	0.428383
C83	C	-0.098076	-0.216047	0.761716
C84	C	0.235257	0.117286	1.095050
C85	C	-0.380789	-0.590360	0.378263
C86	C	-0.047455	-0.257026	0.711596
C87	C	0.285878	0.076307	1.044930
C88	C	-0.586155	-1.134342	0.378253
C89	C	-0.252821	-0.801009	0.711586
C90	C	0.080512	-0.467675	1.044919
C91	C	-0.674011	-1.134386	0.378273
C92	C	-0.340678	-0.801052	0.711607
C93	C	-0.007344	-0.467719	1.044940
C94	C	-1.045498	-1.084287	0.428459
C95	C	-0.712164	-0.750953	0.761793
C96	C	-0.378831	-0.417620	1.095126
C97	C	-1.045476	-1.184748	0.328153
C98	C	-0.712142	-0.851414	0.661486
C99	C	-0.378809	-0.518081	0.994819
C100	C	-0.962930	-1.184720	0.328145
C101	C	-0.629596	-0.851387	0.661479
C102	C	-0.296263	-0.518054	0.994812
C103	C	-0.921664	-1.134474	0.378295
C104	C	-0.588331	-0.801141	0.711628
C105	C	-0.254997	-0.467808	1.044962
C106	C	-0.962944	-1.084256	0.428452
C107	C	-0.629611	-0.750923	0.761785
C108	C	-0.296277	-0.417589	1.095119
C109	C	-0.921643	-1.234932	0.277984
C110	C	-0.588310	-0.901599	0.611317
C111	C	-0.254977	-0.568266	0.944651
C112	C	-0.839092	-1.234906	0.277974
C113	C	-0.505759	-0.901573	0.611307
C114	C	-0.172426	-0.568240	0.944641
C115	C	-0.797825	-1.184664	0.328128
C116	C	-0.464492	-0.851330	0.661462
C117	C	-0.131159	-0.517997	0.994795
C118	C	-0.839110	-1.134444	0.378288
C119	C	-0.505777	-0.801110	0.711621
C120	C	-0.172444	-0.467777	1.044954
C121	C	-0.797845	-1.084198	0.428437
C122	C	-0.464511	-0.750865	0.761771
C123	C	-0.131178	-0.417531	1.095104
C124	C	-0.839128	-1.033981	0.478601
C125	C	-0.505795	-0.700648	0.811935
C126	C	-0.172462	-0.367315	1.145268
C127	C	-0.921677	-1.034013	0.478606
C128	C	-0.588344	-0.700680	0.811940
C129	C	-0.255010	-0.367347	1.145273
C130	C	-0.715277	-1.184632	0.328124
C131	C	-0.381943	-0.851298	0.661457
C132	C	-0.048610	-0.517965	0.994790
C133	C	-0.715291	-1.084167	0.428430
C134	C	-0.381958	-0.750834	0.761763
C135	C	-0.048625	-0.417501	1.095097
C136	C	-0.174620	-1.134495	0.378297
C137	C	0.158713	-0.801162	0.711630
C138	C	0.492047	-0.467829	1.044963
C139	C	-0.086763	-1.134533	0.378310
C140	C	0.246570	-0.801199	0.711643
C141	C	0.579903	-0.467866	1.044976
C142	C	-0.380730	-1.134455	0.583010
C143	C	-0.047397	-0.801122	0.916344
C144	C	0.285937	-0.467789	1.249677
C145	C	-0.380705	-1.134476	0.670260
C146	C	-0.047372	-0.801142	1.003594
C147	C	0.285961	-0.467809	1.336927
C148	C	-0.380802	-0.339152	0.378287
C149	C	-0.047469	-0.005819	0.711620
C150	C	0.285864	0.327515	1.044953
C151	C	-0.380796	-0.426402	0.378274
C152	C	-0.047462	-0.093069	0.711607
C153	C	0.285871	0.240265	1.044940
C154	C	-0.380789	-1.134406	0.174318
C155	C	-0.047456	-0.801072	0.507652
C156	C	0.285877	-0.467739	0.840985
C157	C	-0.380591	-1.134538	0.087069
C158	C	-0.047258	-0.801204	0.420402
C159	C	0.286075	-0.467871	0.753735
C160	C	-0.330151	-1.184705	0.711266
C161	C	0.003183	-0.851371	1.044600
C162	C	0.336516	-0.518038	1.377933
C163	C	-0.330124	-1.184714	0.793247
C164	C	0.003209	-0.851381	1.126580
C165	C	0.336542	-0.518047	1.459914
C166	C	-0.380657	-1.134498	0.834220
C167	C	-0.047324	-0.801165	1.167553
C168	C	0.286010	-0.467831	1.500886
C169	C	-0.431214	-1.084263	0.793208
C170	C	-0.097881	-0.750930	1.126541
C171	C	0.235453	-0.417597	1.459875
C172	C	-0.431236	-1.084250	0.711229
C173	C	-0.097902	-0.750917	1.044562
C174	C	0.235431	-0.417584	1.377896
C175	C	-0.431166	-1.084295	0.964078
C176	C	-0.097833	-0.750962	1.297411
C177	C	0.235500	-0.417628	1.630745
C178	C	-0.431146	-1.084309	1.046063
C179	C	-0.097813	-0.750975	1.379396
C180	C	0.235521	-0.417642	1.712729
C181	C	-0.330055	-1.184759	1.046096
C182	C	0.003278	-0.851425	1.379429
C183	C	0.336612	-0.518092	1.712763
C184	C	-0.330077	-1.184746	0.964117
C185	C	0.003257	-0.851412	1.297450
C186	C	0.336590	-0.518079	1.630784
C187	C	-0.380635	-1.134512	0.923111
C188	C	-0.047302	-0.801179	1.256444
C189	C	0.286032	-0.467845	1.589777
H190	H	-0.472615	-0.686889	0.469179
H191	H	-0.139281	-0.353555	0.802512
H192	H	0.194052	-0.020222	1.135846
H193	H	-0.289003	-1.225599	0.677912
H194	H	0.044330	-0.892266	1.011245
H195	H	0.377663	-0.558932	1.344579
H196	H	-0.955248	-1.275834	0.237149
H197	H	-0.621915	-0.942501	0.570482
H198	H	-0.288581	-0.609167	0.903816
O199	O	-0.275574	-0.846414	0.274070
O200	O	0.057760	-0.513081	0.607403
O201	O	0.391093	-0.179747	0.940736
H202	H	-0.213555	-0.830698	0.287630
H203	H	0.119778	-0.497365	0.620964
H204	H	0.453112	-0.164031	0.954297
O205	O	-0.670783	-1.029964	0.482512
O206	O	-0.337449	-0.696630	0.815845
O207	O	-0.004116	-0.363297	1.149178
H208	H	-0.713360	-0.995047	0.517384
H209	H	-0.380027	-0.661713	0.850718
H210	H	-0.046693	-0.328380	1.184051
H211	H	-0.288960	-1.225617	0.826630
H212	H	0.044374	-0.892284	1.159964
H213	H	0.377707	-0.558951	1.493297
H214	H	-0.288933	-1.225641	0.930759
H215	H	0.044400	-0.892307	1.264092
H216	H	0.377734	-0.558974	1.597426
O217	O	-0.485994	-0.593607	0.482432
O218	O	-0.152661	-0.260273	0.815766
O219	O	0.180673	0.073060	1.149099
H220	H	-0.521188	-0.551340	0.517291
H221	H	-0.187855	-0.218007	0.850625
H222	H	0.145478	0.115326	1.183958
O223	O	-0.485634	-1.030138	1.090262
O224	O	-0.152301	-0.696805	1.423596
O225	O	0.181032	-0.363471	1.756929
H226	H	-0.547681	-1.043552	1.074523
H227	H	-0.214348	-0.710219	1.407857
H228	H	0.118986	-0.376886	1.741190
O229	O	-0.275520	-1.238933	1.090325
O230	O	0.057813	-0.905600	1.423658
O231	O	0.391146	-0.572267	1.756991
H232	H	-0.289095	-1.300533	1.074610
H233	H	0.044238	-0.967200	1.407943
H234	H	0.377572	-0.633867	1.741277
O235	O	-0.486008	-0.423210	0.482455
O236	O	-0.152675	-0.089876	0.815788
O237	O	0.180659	0.243457	1.149121
H238	H	-0.477502	-0.359317	0.474050
H239	H	-0.144168	-0.025983	0.807383
H240	H	0.189165	0.307350	1.140716
H241	H	-0.472324	-1.043377	0.930693
H242	H	-0.138990	-0.710044	1.264027
H243	H	0.194343	-0.376710	1.597360
O244	O	-0.794622	-0.979782	0.532689
O245	O	-0.461289	-0.646449	0.866023
O246	O	-0.127956	-0.313115	1.199356
H247	H	-0.756967	-1.014877	0.572658
H248	H	-0.423633	-0.681544	0.905991
H249	H	-0.090300	-0.348210	1.239324
O250	O	-1.090023	-1.030119	0.482552
O251	O	-0.756690	-0.696785	0.815885
O252	O	-0.423357	-0.363452	1.149219
H253	H	-1.127592	-1.065238	0.522525
H254	H	-0.794259	-0.731905	0.855858
H255	H	-0.460926	-0.398572	1.189192
H256	H	-0.472615	-0.835607	0.469164
H257	H	-0.139281	-0.502273	0.802497
H258	H	0.194052	-0.168940	1.135831
O259	O	-0.485712	-1.030093	0.837397
O260	O	-0.152379	-0.696760	1.170730
O261	O	0.180955	-0.363427	1.504063
H262	H	-0.525927	-1.065211	0.874743
H263	H	-0.192594	-0.731878	1.208077
H264	H	0.140739	-0.398545	1.541410
O265	O	-0.966201	-0.979839	0.532693
O266	O	-0.632868	-0.646505	0.866027
O267	O	-0.299535	-0.313172	1.199360
H268	H	-1.030535	-0.988292	0.524261
H269	H	-0.697201	-0.654959	0.857594
H270	H	-0.363868	-0.321625	1.190927
H271	H	-1.079079	-1.225651	0.287318
H272	H	-0.745746	-0.892318	0.620652
H273	H	-0.412412	-0.558984	0.953985
H274	H	-0.288957	-0.434002	0.287362
H275	H	0.044377	-0.100668	0.620695
H276	H	0.377710	0.232665	0.954028
O277	O	-0.275586	-0.593570	0.274090
O278	O	0.057747	-0.260237	0.607423
O279	O	0.391081	0.073097	0.940756
H280	H	-0.240400	-0.551290	0.239236
H281	H	0.092933	-0.217956	0.572569
H282	H	0.426267	0.115377	0.905903
H283	H	-0.472394	-1.043341	0.677843
H284	H	-0.139061	-0.710008	1.011176
H285	H	0.194272	-0.376674	1.344509
O286	O	-0.794572	-1.289075	0.223878
O287	O	-0.461239	-0.955742	0.557211
O288	O	-0.127906	-0.622409	0.890545
H289	H	-0.730238	-1.280614	0.232296
H290	H	-0.396904	-0.947281	0.565629
H291	H	-0.063571	-0.613948	0.898962
O292	O	-0.670745	-1.238799	0.274041
O293	O	-0.337411	-0.905466	0.607374
O294	O	-0.004078	-0.572132	0.940707
H295	H	-0.633176	-1.203684	0.234064
H296	H	-0.299842	-0.870350	0.567397
H297	H	0.033491	-0.537017	0.900731
O298	O	-0.275593	-0.676007	0.274078
O299	O	0.057740	-0.342674	0.607411
O300	O	0.391073	-0.009341	0.940745
H301	H	-0.235430	-0.638668	0.309270
H302	H	0.097904	-0.305335	0.642603
H303	H	0.431237	0.027998	0.975936
