data_functionalizedCrystal
_audit_creation_method	'MofGen! by Chris Wilmer'
_symmetry_space_group_name_H-M	'P1'
_symmetry_Int_Tables_number	1
_symmetry_cell_setting	triclinic
loop_
_symmetry_equiv_pos_as_xyz
  x,y,z
_cell_length_a	19.851628
_cell_length_b	17.917603
_cell_length_c	17.917559
_cell_angle_alpha	60.139256
_cell_angle_beta	90.002748
_cell_angle_gamma	63.038273
loop_
_atom_site_label
_atom_site_type_symbol
_atom_site_fract_x
_atom_site_fract_y
_atom_site_fract_z
Zr1	Zr	0.687340	0.806939	-0.129103
O2	O	0.590689	0.951957	-0.249631
O3	O	0.712350	0.654716	-0.087453
O4	O	0.724554	0.796565	-0.242861
O5	O	0.574113	0.820804	0.023017
O6	O	0.835404	0.796579	-0.242868
O7	O	0.578485	0.810107	-0.094224
O8	O	0.813573	0.542836	0.035128
O9	O	0.595943	1.074546	-0.254979
O10	O	0.811323	0.720007	-0.075375
O11	O	0.725334	0.727979	0.012125
O12	O	0.739703	0.894988	-0.170847
O13	O	0.653714	0.902960	-0.083346
Zr14	Zr	0.857159	0.824020	0.057871
Zr15	Zr	0.864133	0.806961	-0.129114
Zr16	Zr	0.680367	0.823998	0.057883
Zr17	Zr	0.695720	1.002455	-0.137632
Zr18	Zr	0.848779	0.628504	0.066400
O19	O	0.832149	0.976244	0.016222
O20	O	0.842065	0.951988	-0.249647
O21	O	0.580773	0.976213	0.016238
O22	O	0.953811	0.679003	0.178399
O23	O	0.963726	0.654747	-0.087470
O24	O	0.702435	0.678972	0.178416
O25	O	0.970387	0.810156	-0.094249
O26	O	0.819946	0.834395	0.171629
O27	O	0.709096	0.834381	0.171637
O28	O	0.966015	0.820852	0.022992
O29	O	0.736469	1.074564	-0.254988
O30	O	0.808030	0.556396	0.183756
O31	O	0.948557	0.556413	0.183747
O32	O	0.954100	0.542854	0.035119
O33	O	0.590400	1.088106	-0.106350
O34	O	0.730926	1.088124	-0.106359
O35	O	0.804797	0.735971	0.099615
O36	O	0.890786	0.727999	0.012115
O37	O	0.819165	0.902981	-0.083357
O38	O	0.733177	0.910953	0.004144
C39	C	0.761768	0.570919	-0.024948
C40	C	0.758210	0.487917	-0.021327
C41	C	0.751711	0.335950	-0.014715
C42	C	0.792787	0.295005	-0.056514
C43	C	0.789170	0.210445	-0.052835
C44	C	0.755326	0.420518	-0.018393
C45	C	0.551110	0.815452	-0.035602
C46	C	0.476057	0.815443	-0.035597
C47	C	0.333742	0.720058	0.016447
C48	C	0.267141	0.773080	0.048851
C49	C	0.338627	0.815469	-0.035609
C50	C	0.271492	0.762444	-0.067984
C51	C	0.205879	0.815487	-0.035620
C52	C	0.273012	0.868496	-0.003156
C53	C	0.277374	0.857842	-0.120037
C54	C	0.210764	0.910934	-0.087656
C55	C	0.415101	0.815456	-0.035601
C56	C	0.129403	0.815508	-0.035628
C57	C	0.993390	0.815507	-0.035630
C58	C	1.068443	0.815517	-0.035635
C59	C	0.780973	0.794142	-0.269506
C60	C	0.783933	0.786900	-0.348886
C61	C	0.782732	1.060041	-0.046284
C62	C	0.786289	1.143042	-0.049905
C63	C	0.755144	0.857277	-0.576985
C64	C	0.789354	0.773687	-0.494244
C65	C	0.786337	0.781041	-0.413360
C66	C	0.758160	0.849925	-0.657878
C67	C	0.763527	0.836818	0.198274
C68	C	0.760567	0.844060	0.277655
C69	C	0.982908	0.570947	-0.024962
C70	C	1.054404	0.487954	-0.021346
C71	C	0.753045	0.592257	0.208942
C72	C	0.746527	0.516498	0.291943
C73	C	0.974186	0.592285	0.208928
C74	C	1.042721	0.516535	0.291924
C75	C	0.570314	1.038675	-0.280160
C76	C	0.501779	1.114425	-0.363156
C77	C	0.561592	1.060013	-0.046270
C78	C	0.490096	1.143005	-0.049885
C79	C	0.791455	1.038702	-0.280174
C80	C	0.797972	1.114462	-0.363175
C81	C	1.046500	0.444807	-0.065325
C82	C	1.113672	0.366836	-0.061946
C83	C	1.188747	0.332009	-0.014581
C84	C	1.196649	0.375164	0.029398
C85	C	1.129478	0.453138	0.026013
C86	C	0.784945	0.485093	0.376598
C87	C	0.778818	0.413920	0.454593
C88	C	0.734277	0.374148	0.447931
C89	C	0.695855	0.405560	0.363267
C90	C	0.701978	0.476737	0.285274
C91	C	1.119798	0.476800	0.285226
C92	C	1.184202	0.405635	0.363201
C93	C	1.171526	0.374200	0.447875
C94	C	1.094440	0.413942	0.454572
C95	C	1.030039	0.485111	0.376597
C96	C	0.424702	1.154169	-0.356458
C97	C	0.360300	1.225359	-0.434435
C98	C	0.372976	1.256797	-0.519109
C99	C	0.450061	1.217050	-0.525805
C100	C	0.514462	1.145868	-0.447829
C101	C	0.498000	1.186160	-0.005915
C102	C	0.430830	1.264150	-0.009316
C103	C	0.355756	1.298980	-0.056683
C104	C	0.347853	1.255822	-0.100659
C105	C	0.415023	1.177838	-0.097263
C106	C	0.842519	1.154212	-0.356484
C107	C	0.848659	1.225386	-0.434465
C108	C	0.810247	1.256815	-0.519135
C109	C	0.765698	1.217058	-0.525824
C110	C	0.759564	1.145879	-0.447844
H111	H	0.386454	0.639389	0.060519
F112	F	0.842303	0.332191	-0.106899
H113	H	0.723286	1.113522	-0.453305
H114	H	0.815248	1.314774	-0.582625
F115	F	0.724815	1.250523	-0.615945
H116	H	0.713831	0.307500	0.023829
H117	H	1.246963	0.373283	0.357733
H118	H	0.985378	0.473162	-0.103905
F119	F	0.260510	0.726266	0.142170
F120	F	0.274725	0.927062	0.032734
F121	F	0.141987	1.016470	-0.145192
F122	F	0.713900	0.958028	-0.590175
F123	F	0.883408	1.120776	-0.266379
F124	F	1.240076	0.298453	0.530857
H125	H	1.107223	0.331709	-0.097760
H126	H	1.257783	0.346796	0.067961
F127	F	0.284045	0.904614	-0.213334
H128	H	0.967280	0.517454	0.382064
H129	H	1.084131	0.388337	0.523524
H130	H	0.460373	1.242657	-0.594756
F131	F	0.596492	1.103570	-0.454972
H132	H	0.414365	1.128576	-0.287519
F133	F	0.832356	0.527406	0.383709
H134	H	0.297539	1.257709	-0.428965
H135	H	0.320529	1.314759	-0.582595
H136	H	0.408576	1.142704	-0.133067
H137	H	0.559123	1.157808	0.032662
H138	H	0.437279	1.299277	0.026499
F139	F	0.819717	0.380501	0.544689
H140	H	0.301068	1.362481	-0.059441
F141	F	0.727768	0.298395	0.530947
F142	F	0.830599	0.672929	-0.481051
H143	H	0.270113	0.717596	-0.095361
H144	H	1.243435	0.268516	-0.011831
F145	F	1.133307	0.510247	0.195116
F146	F	0.267947	1.292900	-0.151065
F147	F	1.137901	0.499046	0.072830
H148	H	0.659590	0.373167	0.357856
H149	H	0.884933	1.257750	-0.429001
F150	F	0.661089	0.510147	0.195181
