data_functionalizedCrystal
_audit_creation_method	'MofGen! by Chris Wilmer'
_symmetry_space_group_name_H-M	'P1'
_symmetry_Int_Tables_number	1
_symmetry_cell_setting	triclinic
loop_
_symmetry_equiv_pos_as_xyz
  x,y,z
_cell_length_a	12.759401
_cell_length_b	13.897447
_cell_length_c	12.759393
_cell_angle_alpha	89.970725
_cell_angle_beta	90.019437
_cell_angle_gamma	89.978792
loop_
_atom_site_label
_atom_site_type_symbol
_atom_site_fract_x
_atom_site_fract_y
_atom_site_fract_z
Zn1	Zn	1.606208	0.383958	0.594024
Zn2	Zn	2.106208	0.883958	1.094024
Zn3	Zn	1.606082	0.545287	0.418352
Zn4	Zn	2.106082	1.045287	0.918352
Zn5	Zn	1.430510	0.384008	0.418361
Zn6	Zn	1.930510	0.884008	0.918361
Zn7	Zn	1.430479	0.545212	0.593990
Zn8	Zn	1.930479	1.045212	1.093990
O9	O	1.518320	0.464616	0.506182
O10	O	2.018320	0.964616	1.006182
O11	O	1.753212	0.405369	0.570731
O12	O	2.253212	0.905369	1.070731
O13	O	1.582753	0.523945	0.271332
O14	O	2.082753	1.023945	0.771332
O15	O	1.453882	0.249019	0.441681
O16	O	1.953882	0.749019	0.941681
O17	O	1.753120	0.523897	0.441665
O18	O	2.253120	1.023897	0.941665
O19	O	1.582967	0.248983	0.570741
O20	O	2.082967	0.748983	1.070741
O21	O	1.453761	0.405454	0.271339
O22	O	1.953761	0.905454	0.771339
O23	O	1.283485	0.405382	0.441648
O24	O	1.783485	0.905382	0.941648
O25	O	1.453829	0.523769	0.741016
O26	O	1.953829	1.023769	1.241016
O27	O	1.283462	0.523818	0.570682
O28	O	1.783462	1.023818	1.070682
O29	O	1.582937	0.405296	0.741041
O30	O	2.082937	0.905296	1.241041
O31	O	1.582723	0.680259	0.441632
O32	O	2.082723	1.180259	0.941632
O33	O	1.453707	0.680204	0.570673
O34	O	1.953707	1.180204	1.070673
C35	C	1.245352	0.464598	0.506163
C36	C	1.745352	0.964598	1.006163
C37	C	1.128576	0.464613	0.506180
C38	C	1.628576	0.964613	1.006180
C39	C	0.964004	0.526392	0.573280
C40	C	1.464004	1.026392	1.073280
C41	C	1.073728	0.526380	0.573263
C42	C	1.573728	1.026380	1.073263
C43	C	1.073693	0.402862	0.439102
C44	C	1.573693	0.902862	0.939102
C45	C	0.963971	0.402880	0.439114
C46	C	1.463971	0.902880	0.939114
C47	C	0.909163	0.588156	0.640376
C48	C	1.409163	1.088156	1.140376
C49	C	0.964038	0.649909	0.707453
C50	C	1.464038	1.149909	1.207453
C51	C	1.073762	0.649897	0.707436
C52	C	1.573762	1.149897	1.207436
C53	C	1.128611	0.588131	0.640342
C54	C	1.628611	1.088131	1.140342
C55	C	1.518226	0.715231	0.506171
C56	C	2.018226	1.215231	1.006171
C57	C	1.518283	0.822445	0.506201
C58	C	2.018283	1.322445	1.006201
C59	C	1.518331	0.909514	0.506230
C60	C	2.018331	1.409514	1.006230
C61	C	1.518401	1.018747	0.506263
C62	C	2.018401	1.518747	1.006263
C63	C	1.792353	0.464635	0.506201
C64	C	2.292353	0.964635	1.006201
C65	C	1.909130	0.464644	0.506209
C66	C	2.409130	0.964644	1.006209
C67	C	1.518393	0.464519	0.780215
C68	C	2.018393	0.964519	1.280215
C69	C	1.518425	0.464477	0.896992
C70	C	2.018425	0.964477	1.396992
C71	C	1.518434	1.213023	0.506229
C72	C	2.018434	1.713023	1.006229
C73	C	1.518463	1.105809	0.506284
C74	C	2.018463	1.605809	1.006284
C75	C	1.518307	0.464644	0.233214
C76	C	2.018307	0.964644	0.733214
C77	C	1.518479	0.464413	0.116438
C78	C	2.018479	0.964413	0.616438
C79	C	1.585660	0.402783	0.951869
C80	C	2.085660	0.902783	1.451869
C81	C	1.585685	0.402748	1.061593
C82	C	2.085685	0.902748	1.561593
C83	C	1.451236	0.526111	1.061554
C84	C	1.951236	1.026111	1.561554
C85	C	1.451207	0.526140	0.951832
C86	C	1.951207	1.026140	1.451832
C87	C	1.652878	0.341120	0.897029
C88	C	2.152878	0.841120	1.397029
C89	C	1.720120	0.279421	0.951906
C90	C	2.220120	0.779421	1.451906
C91	C	1.720145	0.279386	1.061630
C92	C	2.220145	0.779386	1.561630
C93	C	1.652928	0.341050	1.116477
C94	C	2.152928	0.841050	1.616477
H95	H	0.919372	0.700201	0.762073
H96	H	1.419372	1.200201	1.262073
O97	O	1.652863	0.341152	0.778685
O98	O	2.152863	0.841152	1.278685
H99	H	1.674058	0.413918	0.749748
H100	H	2.174058	0.913918	1.249748
O101	O	1.132945	0.716498	0.779783
O102	O	1.632945	1.216498	1.279783
H103	H	1.182972	0.673367	0.833298
H104	H	1.682972	1.173367	1.333298
O105	O	0.904772	0.336276	0.366782
O106	O	1.404772	0.836276	0.866782
H107	H	0.961339	0.293313	0.320137
H108	H	1.461339	0.793313	0.820137
H109	H	1.774839	0.229210	0.907242
H110	H	2.274839	0.729210	1.407242
H111	H	1.774889	0.229141	1.106308
H112	H	2.274889	0.729141	1.606308
O113	O	1.132844	0.336237	0.366748
O114	O	1.632844	0.836237	0.866748
H115	H	1.218360	0.346591	0.378016
H116	H	1.718360	0.846591	0.878016
H117	H	1.217956	0.588132	0.640327
H118	H	1.717956	1.088132	1.140327
O119	O	1.652949	0.341016	1.234824
O120	O	2.152949	0.841016	1.734824
H121	H	1.710998	0.287757	1.263773
H122	H	2.210998	0.787757	1.763773
H123	H	1.396441	0.576363	0.907150
H124	H	1.896441	1.076363	1.407150
O125	O	0.790818	0.588201	0.640355
O126	O	1.290818	1.088201	1.140355
H127	H	0.761900	0.641537	0.698259
H128	H	1.261900	1.141537	1.198259
O129	O	1.378744	0.592621	1.120703
O130	O	1.878744	1.092621	1.620703
H131	H	1.390066	0.582241	1.206219
H132	H	1.890066	1.082241	1.706219
