data_functionalizedCrystal
_audit_creation_method	'MofGen! by Chris Wilmer'
_symmetry_space_group_name_H-M	'P1'
_symmetry_Int_Tables_number	1
_symmetry_cell_setting	triclinic
loop_
_symmetry_equiv_pos_as_xyz
  x,y,z
_cell_length_a	6.817900
_cell_length_b	17.982959
_cell_length_c	14.125465
_cell_angle_alpha	96.113992
_cell_angle_beta	100.398878
_cell_angle_gamma	102.451857
loop_
_atom_site_label
_atom_site_type_symbol
_atom_site_fract_x
_atom_site_fract_y
_atom_site_fract_z
V1	V	-3.986205	-0.104757	-0.300376
V2	V	-3.486205	0.395243	0.199624
O3	O	-3.979787	0.005707	-0.294244
O4	O	-3.479787	0.505707	0.205756
O5	O	-3.932905	-0.208364	-0.298719
O6	O	-3.432905	0.291636	0.201281
O7	O	-3.922440	-0.102850	-0.431198
O8	O	-3.422440	0.397150	0.068802
O9	O	-3.990324	-0.100536	-0.160848
O10	O	-3.490324	0.399464	0.339152
V11	V	-4.472458	-0.091579	-0.283639
V12	V	-3.972458	0.408421	0.216361
O13	O	-4.241473	-0.133664	-0.337090
O14	O	-3.741473	0.366336	0.162910
O15	O	-4.667387	-0.062672	-0.246925
O16	O	-4.167387	0.437328	0.253075
O17	O	-4.302552	0.012027	-0.285295
O18	O	-3.802552	0.512027	0.214705
O19	O	-4.596273	-0.202044	-0.289770
O20	O	-4.096273	0.297956	0.210230
O21	O	-4.585736	-0.095800	-0.423167
O22	O	-4.085736	0.404200	0.076833
O23	O	-4.313017	-0.093486	-0.152816
O24	O	-3.813017	0.406514	0.347184
C25	C	-3.777211	-0.233630	-0.294083
C26	C	-3.277211	0.266370	0.205917
C27	C	-3.814816	-0.318328	-0.293600
C28	C	-3.314816	0.181672	0.206400
C29	C	-4.013835	-0.361989	-0.298187
C30	C	-3.513835	0.138011	0.201813
C31	C	-4.049159	-0.441572	-0.297740
C32	C	-3.549159	0.058428	0.202260
C33	C	-3.885460	-0.477491	-0.292698
C34	C	-3.385460	0.022509	0.207302
C35	C	-3.686426	-0.433824	-0.288113
C36	C	-3.186426	0.066176	0.211887
C37	C	-3.651106	-0.354244	-0.288568
C38	C	-3.151106	0.145756	0.211432
C39	C	-3.828861	-0.754764	-0.286281
C40	C	-3.328861	-0.254764	0.213719
C41	C	-3.864196	-0.834350	-0.285824
C42	C	-3.364196	-0.334350	0.214176
C43	C	-4.226914	-0.842092	-0.295452
C44	C	-3.726914	-0.342092	0.204548
C45	C	-4.191595	-0.762511	-0.295907
C46	C	-3.691595	-0.262511	0.204093
C47	C	-3.992567	-0.718852	-0.291328
C48	C	-3.492567	-0.218852	0.208672
C49	C	-3.954267	-0.632560	-0.291815
C50	C	-3.454267	-0.132560	0.208185
C51	C	-3.923755	-0.563781	-0.292204
C52	C	-3.423755	-0.063781	0.207796
C53	C	-3.763861	-0.099036	-0.463073
C54	C	-3.263861	0.400964	0.036927
C55	C	-3.792977	-0.098163	-0.570023
C56	C	-3.292977	0.401837	-0.070023
C57	C	-3.846346	-0.096561	-0.765840
C58	C	-3.346346	0.403439	-0.265840
C59	C	-4.031686	-0.099774	-0.818174
C60	C	-3.531686	0.400226	-0.318174
C61	C	-4.061383	-0.098883	-0.927133
C62	C	-3.561383	0.401117	-0.427133
C63	C	-3.816641	-0.097452	-0.656871
C64	C	-3.316641	0.402548	-0.156871
C65	C	-4.121588	0.037289	-0.289929
C66	C	-3.621588	0.537289	0.210071
C67	C	-4.063220	0.121986	-0.290418
C68	C	-3.563220	0.621986	0.209582
C69	C	-4.134938	-0.097303	-0.120937
C70	C	-3.634938	0.402697	0.379063
C71	C	-4.085061	-0.098172	-0.013985
C72	C	-3.585061	0.401828	0.486015
H73	H	-4.211217	-0.477118	-0.301476
H74	H	-3.711217	0.022882	0.198524
Br75	Br	-4.236013	-0.313248	-0.305023
Br76	Br	-3.736013	0.186752	0.194977
Br77	Br	-4.413762	-0.713765	-0.302733
Br78	Br	-3.913762	-0.213765	0.197267
Br79	Br	-4.497031	-0.901348	-0.301667
Br80	Br	-3.997031	-0.401348	0.198333
H81	H	-4.168062	-0.103203	-0.781149
H82	H	-3.668062	0.396797	-0.281149
H83	H	-3.709985	-0.093141	-0.802865
H84	H	-3.209985	0.406859	-0.302865
H85	H	-3.730883	-0.863594	-0.281724
H86	H	-3.230883	-0.363594	0.218276
H87	H	-3.489049	-0.318696	-0.284837
H88	H	-2.989049	0.181304	0.215163
Br89	Br	-3.558754	-0.695522	-0.280060
Br90	Br	-3.058754	-0.195522	0.219940
Br91	Br	-3.464261	-0.482572	-0.281280
Br92	Br	-2.964261	0.017428	0.218720
