data_functionalizedCrystal
_audit_creation_method	'MofGen! by Chris Wilmer'
_symmetry_space_group_name_H-M	'P1'
_symmetry_Int_Tables_number	1
_symmetry_cell_setting	triclinic
loop_
_symmetry_equiv_pos_as_xyz
  x,y,z
_cell_length_a	17.699097
_cell_length_b	17.699104
_cell_length_c	16.776229
_cell_angle_alpha	89.992410
_cell_angle_beta	89.989262
_cell_angle_gamma	83.289974
loop_
_atom_site_label
_atom_site_type_symbol
_atom_site_fract_x
_atom_site_fract_y
_atom_site_fract_z
O1	O	1.004079	0.095760	-0.066356
O2	O	1.337413	0.429093	0.266977
O3	O	1.670746	0.762426	0.600311
O4	O	0.783703	0.108202	-0.066343
O5	O	1.117037	0.441535	0.266990
O6	O	1.450370	0.774868	0.600323
O7	O	0.900109	-0.008207	-0.066343
O8	O	1.233443	0.325126	0.266990
O9	O	1.566776	0.658460	0.600324
O10	O	0.887673	0.212169	-0.066356
O11	O	1.221007	0.545502	0.266977
O12	O	1.554340	0.878835	0.600310
O13	O	0.900094	-0.008214	0.066234
O14	O	1.233427	0.325119	0.399567
O15	O	1.566760	0.658452	0.732900
O16	O	0.783688	0.108195	0.066233
O17	O	1.117021	0.441528	0.399567
O18	O	1.450355	0.774861	0.732900
O19	O	1.004064	0.095753	0.066220
O20	O	1.337397	0.429086	0.399554
O21	O	1.670731	0.762419	0.732887
Zn22	Zn	0.893873	0.101972	0.087276
Zn23	Zn	1.227207	0.435306	0.420610
Zn24	Zn	1.560540	0.768639	0.753943
Zn25	Zn	0.893894	0.101982	-0.087399
Zn26	Zn	1.227227	0.435315	0.245934
Zn27	Zn	1.560560	0.768649	0.579268
O28	O	0.887658	0.212161	0.066220
O29	O	1.220991	0.545495	0.399553
O30	O	1.554325	0.878828	0.732887
C31	C	0.755499	0.107751	-0.000053
C32	C	1.088832	0.441084	0.333280
C33	C	1.422165	0.774417	0.666613
C34	C	0.671481	0.106408	-0.000048
C35	C	1.004814	0.439741	0.333285
C36	C	1.338148	0.773075	0.666618
C37	C	0.155771	0.098183	-0.072347
C38	C	0.489104	0.431516	0.260986
C39	C	0.822437	0.764849	0.594319
C40	C	0.234715	0.099439	-0.072344
C41	C	0.568048	0.432772	0.260990
C42	C	0.901381	0.766106	0.594323
C43	C	0.274172	0.100064	-0.000073
C44	C	0.607506	0.433398	0.333260
C45	C	0.940839	0.766731	0.666594
C46	C	0.234683	0.099426	0.072199
C47	C	0.568016	0.432759	0.405532
C48	C	0.901349	0.766092	0.738865
C49	C	0.155741	0.098164	0.072194
C50	C	0.489074	0.431497	0.405527
C51	C	0.822407	0.764831	0.738861
C52	C	0.553047	0.104513	0.072219
C53	C	0.886381	0.437846	0.405553
C54	C	1.219714	0.771180	0.738886
C55	C	0.631994	0.105777	0.072218
C56	C	0.965328	0.439111	0.405552
C57	C	1.298661	0.772444	0.738885
C58	C	0.632021	0.105788	-0.072318
C59	C	0.965355	0.439121	0.261015
C60	C	1.298688	0.772455	0.594349
C61	C	0.553079	0.104526	-0.072323
C62	C	0.886413	0.437860	0.261010
C63	C	1.219746	0.771193	0.594344
C64	C	0.513597	0.103884	-0.000052
C65	C	0.846930	0.437217	0.333281
C66	C	1.180264	0.770550	0.666615
C67	C	0.427997	0.102520	-0.000057
C68	C	0.761330	0.435853	0.333276
C69	C	1.094664	0.769187	0.666610
C70	C	0.359770	0.101433	-0.000067
C71	C	0.693104	0.434767	0.333266
C72	C	1.026437	0.768100	0.666600
C73	C	0.899653	-0.036407	-0.000055
C74	C	1.232987	0.296926	0.333279
C75	C	1.566320	0.630259	0.666612
C76	C	0.898308	-0.120425	-0.000054
C77	C	1.231642	0.212909	0.333279
C78	C	1.564975	0.546242	0.666613
C79	C	0.959052	-0.645293	-0.000080
C80	C	1.292385	-0.311959	0.333253
C81	C	1.625718	0.021374	0.666586
C82	C	0.960311	-0.566349	-0.000073
C83	C	1.293644	-0.233016	0.333260
C84	C	1.626978	0.100318	0.666593
C85	C	0.891976	-0.517735	-0.000067
C86	C	1.225310	-0.184401	0.333266
C87	C	1.558643	0.148932	0.666599
C88	C	0.822378	-0.548068	-0.000061
C89	C	1.155711	-0.214734	0.333273
C90	C	1.489044	0.118599	0.666606
C91	C	0.821119	-0.627010	-0.000062
C92	C	1.154453	-0.293677	0.333271
C93	C	1.487786	0.039656	0.666605
C94	C	0.827451	-0.229702	-0.000054
C95	C	1.160784	0.103632	0.333279
C96	C	1.494117	0.436965	0.666612
C97	C	0.828715	-0.150754	-0.000055
C98	C	1.162048	0.182579	0.333278
C99	C	1.495381	0.515912	0.666611
C100	C	0.966642	-0.169040	-0.000066
C101	C	1.299976	0.164293	0.333268
C102	C	1.633309	0.497626	0.666601
C103	C	0.965384	-0.247983	-0.000067
C104	C	1.298717	0.085351	0.333267
C105	C	1.632051	0.418684	0.666600
C106	C	0.895786	-0.278309	-0.000056
C107	C	1.229120	0.055024	0.333278
C108	C	1.562453	0.388358	0.666611
C109	C	0.894422	-0.363909	-0.000062
C110	C	1.227755	-0.030576	0.333271
C111	C	1.561088	0.302758	0.666605
C112	C	0.893340	-0.432136	-0.000067
C113	C	1.226673	-0.098803	0.333266
C114	C	1.560006	0.234531	0.666600
C115	C	1.032268	0.096204	-0.000071
C116	C	1.365602	0.429537	0.333262
C117	C	1.698935	0.762870	0.666595
C118	C	1.116286	0.097546	-0.000082
C119	C	1.449619	0.430880	0.333252
C120	C	1.782953	0.764213	0.666585
C121	C	0.888114	0.240362	-0.000070
C122	C	1.221447	0.573695	0.333263
C123	C	1.554781	0.907028	0.666597
C124	C	0.889459	0.324379	-0.000076
C125	C	1.222792	0.657712	0.333258
C126	C	1.556125	0.991046	0.666591
N127	N	0.893865	0.101966	0.206487
N128	N	1.227198	0.435299	0.539821
N129	N	1.560532	0.768632	0.873154
N130	N	0.893908	0.101983	-0.206610
N131	N	1.227241	0.435316	0.126723
N132	N	1.560575	0.768649	0.460056
C133	C	0.945425	0.050441	0.248205
C134	C	1.278759	0.383774	0.581538
C135	C	1.612092	0.717108	0.914871
C136	C	0.945430	0.050440	0.331657
C137	C	1.278763	0.383774	0.664990
C138	C	1.612096	0.717107	0.998324
C139	C	0.893877	0.101969	0.373390
C140	C	1.227210	0.435302	0.706724
C141	C	1.560543	0.768635	1.040057
C142	C	0.842311	0.153496	0.331667
C143	C	1.175644	0.486829	0.665001
C144	C	1.508977	0.820162	0.998334
C145	C	0.842304	0.153492	0.248217
C146	C	1.175637	0.486825	0.581550
C147	C	1.508970	0.820159	0.914883
C148	C	0.842338	0.153511	0.668214
C149	C	1.175671	0.486844	1.001548
C150	C	1.509005	0.820177	1.334881
C151	C	0.842351	0.153512	0.751671
C152	C	1.175684	0.486845	1.085004
C153	C	1.509018	0.820178	1.418338
C154	C	0.945464	0.050459	0.751655
C155	C	1.278797	0.383792	1.084988
C156	C	1.612131	0.717125	1.418321
C157	C	0.945457	0.050455	0.668204
C158	C	1.278790	0.383788	1.001537
C159	C	1.612124	0.717122	1.334871
C160	C	0.893889	0.101979	0.626488
C161	C	1.227222	0.435313	0.959822
C162	C	1.560556	0.768646	1.293155
C163	C	0.893884	0.101978	0.536000
C164	C	1.227217	0.435312	0.869333
C165	C	1.560551	0.768645	1.202667
C166	C	0.893884	0.101974	0.463877
C167	C	1.227218	0.435307	0.797210
C168	C	1.560551	0.768640	1.130544
H169	H	0.123649	0.097679	-0.131199
H170	H	0.456982	0.431012	0.202135
H171	H	0.790316	0.764345	0.535468
H172	H	0.987413	0.008485	0.365623
H173	H	1.320747	0.341818	0.698956
H174	H	1.654080	0.675151	1.032289
N175	N	1.041712	-0.136333	-0.000063
N176	N	1.375046	0.197000	0.333271
N177	N	1.708379	0.530333	0.666604
H178	H	1.045317	-0.103977	-0.049204
H179	H	1.378651	0.229357	0.284129
H180	H	1.711984	0.562690	0.617462
H181	H	1.045257	-0.104036	0.049120
H182	H	1.378590	0.229297	0.382454
H183	H	1.711924	0.562631	0.715787
H184	H	0.987451	0.008502	0.785629
H185	H	1.320785	0.341836	1.118962
H186	H	1.654118	0.675169	1.452295
H187	H	0.664119	0.106286	0.131074
H188	H	0.997452	0.439620	0.464407
H189	H	1.330785	0.772953	0.797740
N190	N	0.674602	0.106472	-0.150274
N191	N	1.007936	0.439805	0.183060
N192	N	1.341269	0.773139	0.516393
H193	H	0.701141	0.153893	-0.153497
H194	H	1.034474	0.487226	0.179836
H195	H	1.367808	0.820559	0.513170
H196	H	0.713532	0.060063	-0.153449
H197	H	1.046865	0.393396	0.179884
H198	H	1.380198	0.726730	0.513217
H199	H	0.764450	-0.651702	-0.000052
H200	H	1.097783	-0.318368	0.333282
H201	H	1.431116	0.014965	0.666615
H202	H	0.987439	0.008499	0.634227
H203	H	1.320772	0.341832	0.967561
H204	H	1.654105	0.675165	1.300894
H205	H	0.266860	0.099952	-0.131190
H206	H	0.600193	0.433286	0.202144
H207	H	0.933527	0.766619	0.535477
N208	N	0.786724	0.209092	0.623239
N209	N	1.120057	0.542425	0.956572
N210	N	1.453390	0.875759	1.289905
H211	H	0.815577	0.242570	0.588599
H212	H	1.148910	0.575903	0.921932
H213	H	1.482244	0.909236	1.255266
H214	H	0.753269	0.180160	0.588678
H215	H	1.086603	0.513494	0.922012
H216	H	1.419936	0.846827	1.255345
H217	H	0.520912	0.103979	0.131067
H218	H	0.854245	0.437312	0.464400
H219	H	1.187578	0.770645	0.797733
H220	H	0.520956	0.104021	-0.131173
H221	H	0.854290	0.437354	0.202160
H222	H	1.187623	0.770687	0.535494
N223	N	0.277236	0.100098	0.150150
N224	N	0.610570	0.433431	0.483483
N225	N	0.943903	0.766765	0.816816
H226	H	0.333237	0.100997	0.139188
H227	H	0.666571	0.434331	0.472522
H228	H	0.999904	0.767664	0.805855
H229	H	0.257210	0.146776	0.181703
H230	H	0.590543	0.480110	0.515037
H231	H	0.923876	0.813443	0.848370
N232	N	0.786740	0.209086	0.796686
N233	N	1.120074	0.542420	1.130020
N234	N	1.453407	0.875753	1.463353
H235	H	0.754068	0.241724	0.757598
H236	H	1.087401	0.575057	1.090931
H237	H	1.420735	0.908391	1.424264
H238	H	0.753347	0.180142	0.831326
H239	H	1.086680	0.513476	1.164660
H240	H	1.420013	0.846809	1.497993
N241	N	0.113153	0.097473	0.150139
N242	N	0.446486	0.430806	0.483472
N243	N	0.779819	0.764140	0.816805
H244	H	0.150196	0.097530	0.195920
H245	H	0.483530	0.430864	0.529253
H246	H	0.816863	0.764197	0.862587
H247	H	0.074540	0.144118	0.153528
H248	H	0.407873	0.477451	0.486862
H249	H	0.741206	0.810785	0.820195
H250	H	1.014698	-0.684870	-0.000092
H251	H	1.348032	-0.351537	0.333242
H252	H	1.681365	-0.018203	0.666575
N253	N	0.786701	0.209069	0.376675
N254	N	1.120034	0.542402	0.710008
N255	N	1.453367	0.875735	1.043342
H256	H	0.794529	0.201255	0.435871
H257	H	1.127862	0.534588	0.769205
H258	H	1.461196	0.867921	1.102538
H259	H	0.795342	0.262751	0.362074
H260	H	1.128675	0.596084	0.695408
H261	H	1.462008	0.929418	1.028741
H262	H	1.016980	-0.541660	-0.000076
H263	H	1.350314	-0.208327	0.333257
H264	H	1.683647	0.125007	0.666591
H265	H	1.021029	-0.287561	-0.000076
H266	H	1.354363	0.045772	0.333258
H267	H	1.687696	0.379105	0.666591
N268	N	0.755008	-0.098317	-0.000049
N269	N	1.088341	0.235016	0.333284
N270	N	1.421674	0.568350	0.666618
H271	H	0.710726	-0.129507	-0.000040
H272	H	1.044059	0.203827	0.333293
H273	H	1.377393	0.537160	0.666626
H274	H	0.752527	-0.065170	0.049098
H275	H	1.085860	0.268164	0.382431
H276	H	1.419193	0.601497	0.715765
N277	N	0.752388	-0.262405	-0.000031
N278	N	1.085722	0.070928	0.333302
N279	N	1.419055	0.404261	0.666636
H280	H	0.709292	-0.219628	-0.000026
H281	H	1.042626	0.113706	0.333307
H282	H	1.375959	0.447039	0.666640
H283	H	0.748857	-0.294760	-0.049173
H284	H	1.082190	0.038573	0.284160
H285	H	1.415523	0.371907	0.617493
N286	N	0.748672	-0.495638	-0.000031
N287	N	1.082005	-0.162305	0.333302
N288	N	1.415339	0.171029	0.666636
H289	H	0.760028	-0.441026	-0.000028
H290	H	1.093361	-0.107692	0.333306
H291	H	1.426694	0.225641	0.666639
H292	H	0.718329	-0.505432	-0.049171
H293	H	1.051663	-0.172099	0.284163
H294	H	1.384996	0.161234	0.617496
H295	H	0.987409	0.008484	0.214231
H296	H	1.320742	0.341817	0.547564
H297	H	1.654075	0.675151	0.880897
H298	H	0.800317	0.195448	0.214251
H299	H	1.133650	0.528781	0.547584
H300	H	1.466984	0.862114	0.880918
