data_functionalizedCrystal
_audit_creation_method	'MofGen! by Chris Wilmer'
_symmetry_space_group_name_H-M	'P1'
_symmetry_Int_Tables_number	1
_symmetry_cell_setting	triclinic
loop_
_symmetry_equiv_pos_as_xyz
  x,y,z
_cell_length_a	17.699077
_cell_length_b	10.654551
_cell_length_c	16.176319
_cell_angle_alpha	89.994994
_cell_angle_beta	89.993140
_cell_angle_gamma	83.883002
loop_
_atom_site_label
_atom_site_type_symbol
_atom_site_fract_x
_atom_site_fract_y
_atom_site_fract_z
O1	O	1.005091	0.158773	-0.068732
O2	O	1.505091	0.658773	0.431268
O3	O	0.784844	0.179442	-0.068736
O4	O	1.284844	0.679442	0.431264
O5	O	0.900031	-0.013720	-0.068732
O6	O	1.400031	0.486280	0.431268
O7	O	0.889904	0.351936	-0.068736
O8	O	1.389904	0.851936	0.431264
O9	O	0.900015	-0.013733	0.068761
O10	O	1.400015	0.486267	0.568761
O11	O	0.784828	0.179430	0.068757
O12	O	1.284828	0.679430	0.568757
O13	O	1.005075	0.158761	0.068761
O14	O	1.505075	0.658761	0.568761
Cu15	Cu	0.894950	0.169094	0.081313
Cu16	Cu	1.394950	0.669094	0.581313
Cu17	Cu	0.894969	0.169109	-0.081288
Cu18	Cu	1.394969	0.669109	0.418712
O19	O	0.889888	0.351923	0.068757
O20	O	1.389888	0.851923	0.568757
C21	C	0.756634	0.178697	0.000010
C22	C	1.256634	0.678697	0.500010
C23	C	0.672602	0.176479	0.000009
C24	C	1.172602	0.676479	0.500009
C25	C	0.633119	0.175427	0.074957
C26	C	1.133119	0.675427	0.574957
C27	C	0.554163	0.173323	0.074958
C28	C	1.054163	0.673323	0.574958
C29	C	0.514691	0.172279	0.000010
C30	C	1.014691	0.672279	0.500010
C31	C	0.554179	0.173328	-0.074945
C32	C	1.054179	0.673328	0.425055
C33	C	0.633134	0.175423	-0.074945
C34	C	1.133134	0.675423	0.425055
C35	C	0.235762	0.164877	-0.074946
C36	C	0.735762	0.664877	0.425054
C37	C	0.156801	0.162785	-0.074940
C38	C	0.656801	0.662785	0.425060
C39	C	0.156791	0.162777	0.074956
C40	C	0.656791	0.662777	0.574956
C41	C	0.235746	0.164872	0.074956
C42	C	0.735746	0.664872	0.574956
C43	C	0.275228	0.165913	0.000003
C44	C	0.775228	0.665913	0.500003
C45	C	0.360841	0.168192	0.000003
C46	C	0.860841	0.668192	0.500003
C47	C	0.429078	0.170009	0.000009
C48	C	0.929078	0.670009	0.500009
C49	C	0.899279	-0.060511	0.000013
C50	C	1.399279	0.439489	0.500013
C51	C	0.897054	-0.199915	0.000009
C52	C	1.397054	0.300085	0.500009
C53	C	0.896018	-0.265394	-0.074939
C54	C	1.396018	0.234606	0.425061
C55	C	0.893921	-0.396378	-0.074940
C56	C	1.393921	0.103622	0.425060
C57	C	0.893899	-0.396393	0.074963
C58	C	1.393899	0.103607	0.574963
C59	C	0.895990	-0.265411	0.074962
C60	C	1.395990	0.234589	0.574962
C61	C	0.846811	-0.565616	-0.164986
C62	C	1.346811	-0.065616	0.335014
C63	C	0.845789	-0.631102	-0.239938
C64	C	1.345789	-0.131102	0.260062
C65	C	0.890749	-0.598344	-0.306110
C66	C	1.390749	-0.098344	0.193890
C67	C	0.936749	-0.500106	-0.297333
C68	C	1.436749	-0.000106	0.202667
C69	C	0.937778	-0.434628	-0.222379
C70	C	1.437778	0.065372	0.277621
C71	C	0.892801	-0.467380	-0.156210
C72	C	1.392801	0.032620	0.343790
C73	C	0.943107	-0.096172	0.165003
C74	C	1.443107	0.403828	0.665003
C75	C	0.944141	-0.030693	0.239957
C76	C	1.444141	0.469307	0.739957
C77	C	0.899186	-0.063449	0.306136
C78	C	1.399186	0.436551	0.806136
C79	C	0.853197	-0.161694	0.297367
C80	C	1.353197	0.338306	0.797367
C81	C	0.852162	-0.227173	0.222413
C82	C	1.352162	0.272827	0.722413
C83	C	0.897116	-0.194407	0.156233
C84	C	1.397116	0.305593	0.656233
C85	C	1.033285	0.159506	0.000013
C86	C	1.533285	0.659506	0.500013
C87	C	1.117318	0.161724	0.000009
C88	C	1.617318	0.661724	0.500009
C89	C	0.890640	0.398714	0.000010
C90	C	1.390640	0.898714	0.500010
C91	C	0.892865	0.538119	0.000008
C92	C	1.392865	1.038119	0.500008
N93	N	0.894942	0.169083	0.195678
N94	N	1.394942	0.669083	0.695678
N95	N	0.894983	0.169110	-0.195654
N96	N	1.394983	0.669110	0.304346
C97	C	0.945963	0.083586	0.238944
C98	C	1.445963	0.583586	0.738944
C99	C	0.945967	0.083584	0.325491
C100	C	1.445967	0.583584	0.825491
C101	C	0.894953	0.169088	0.368771
C102	C	1.394953	0.669088	0.868771
C103	C	0.843927	0.254589	0.325499
C104	C	1.343927	0.754589	0.825499
C105	C	0.843920	0.254584	0.238954
C106	C	1.343920	0.754584	0.738954
C107	C	0.843953	0.254613	0.674527
C108	C	1.343953	0.754613	1.174527
C109	C	0.843965	0.254614	0.761079
C110	C	1.343965	0.754614	1.261079
C111	C	0.946000	0.083614	0.761065
C112	C	1.446000	0.583614	1.261065
C113	C	0.945993	0.083608	0.674520
C114	C	1.445993	0.583608	1.174520
C115	C	0.894964	0.169105	0.631255
C116	C	1.394964	0.669105	1.131255
C117	C	0.894960	0.169103	0.537411
C118	C	1.394960	0.669103	1.037411
C119	C	0.894961	0.169096	0.462614
C120	C	1.394961	0.669096	0.962614
H121	H	0.896882	-0.212072	-0.135971
H122	H	1.396882	0.287928	0.364029
Cl123	Cl	1.001966	0.092805	0.250985
Cl124	Cl	1.501966	0.592805	0.750985
H125	H	0.987535	0.013988	0.639284
H126	H	1.487535	0.513988	1.139284
Cl127	Cl	1.010148	-0.023875	0.815459
Cl128	Cl	1.510148	0.476125	1.315459
H129	H	0.979708	-0.069481	0.111114
H130	H	1.479708	0.430519	0.611114
Cl131	Cl	0.892562	-0.478739	0.169184
Cl132	Cl	1.392562	0.021261	0.669184
Cl133	Cl	1.010107	-0.023901	0.379884
Cl134	Cl	1.510107	0.476099	0.879884
H135	H	0.973365	-0.473453	-0.351216
H136	H	1.473365	0.026547	0.148784
H137	H	0.802421	0.324244	0.796316
H138	H	1.302421	0.824244	1.296316
Cl139	Cl	0.504529	0.172023	0.169183
Cl140	Cl	1.004529	0.672023	0.669183
H141	H	0.975232	-0.354646	-0.215232
H142	H	1.475232	0.145354	0.284768
H143	H	0.124665	0.161935	-0.135976
H144	H	0.624665	0.661935	0.364024
H145	H	0.802387	0.324203	0.360742
H146	H	1.302387	0.824203	0.860742
Cl147	Cl	0.779808	0.362096	0.620144
Cl148	Cl	1.279808	0.862096	1.120144
Cl149	Cl	0.889471	-0.680686	-0.400330
Cl150	Cl	1.389471	-0.180686	0.099670
H151	H	0.810191	-0.592286	-0.111112
H152	H	1.310191	-0.092286	0.388888
Cl153	Cl	0.779774	0.362067	0.184563
Cl154	Cl	1.279774	0.862067	0.684563
H155	H	0.267899	0.165721	-0.135978
H156	H	0.767899	0.665721	0.364022
H157	H	0.267880	0.165728	0.135987
H158	H	0.767880	0.665728	0.635987
Cl159	Cl	0.682733	0.176746	0.169184
Cl160	Cl	1.182733	0.676746	0.669184
Cl161	Cl	0.787959	-0.754593	-0.250972
Cl162	Cl	1.287959	-0.254593	0.249028
Cl163	Cl	0.107152	0.161461	0.169186
Cl164	Cl	0.607152	0.661461	0.669186
H165	H	0.522035	0.172469	-0.135969
H166	H	1.022035	0.672469	0.364031
H167	H	0.665280	0.176282	-0.135976
H168	H	1.165280	0.676282	0.364024
H169	H	0.814711	-0.307166	0.215275
H170	H	1.314711	0.192834	0.715275
Cl171	Cl	0.796684	-0.202886	0.380567
Cl172	Cl	1.296684	0.297114	0.880567
Cl173	Cl	0.900497	0.018859	0.400370
Cl174	Cl	1.400497	0.518859	0.900370
Cl175	Cl	1.010102	-0.023905	0.184545
Cl176	Cl	1.510102	0.476095	0.684545
