data_functionalizedCrystal
_audit_creation_method	'MofGen! by Chris Wilmer'
_symmetry_space_group_name_H-M	'P1'
_symmetry_Int_Tables_number	1
_symmetry_cell_setting	triclinic
loop_
_symmetry_equiv_pos_as_xyz
  x,y,z
_cell_length_a	19.288859
_cell_length_b	16.109304
_cell_length_c	17.766277
_cell_angle_alpha	89.996447
_cell_angle_beta	89.989768
_cell_angle_gamma	83.298182
loop_
_atom_site_label
_atom_site_type_symbol
_atom_site_fract_x
_atom_site_fract_y
_atom_site_fract_z
O1	O	0.921604	0.103691	-0.062604
O2	O	0.719376	0.117688	-0.062602
O3	O	0.826045	-0.010360	-0.062604
O4	O	0.814936	0.231740	-0.062603
O5	O	0.826026	-0.010367	0.062585
O6	O	0.719358	0.117681	0.062586
O7	O	0.921585	0.103685	0.062584
Cu8	Cu	0.820470	0.110683	0.074016
Cu9	Cu	0.820492	0.110690	-0.074034
O10	O	0.814917	0.231733	0.062586
C11	C	0.693489	0.117235	-0.000008
C12	C	0.616382	0.115886	-0.000007
C13	C	0.052500	0.181891	-0.000008
C14	C	0.124949	0.183166	-0.000012
C15	C	0.169476	0.108033	-0.000011
C16	C	0.141548	0.031619	-0.000025
C17	C	0.069100	0.030346	-0.000028
C18	C	0.290606	0.051997	0.043851
C19	C	0.363052	0.053273	0.043859
C20	C	0.392931	0.111956	-0.000003
C21	C	0.350353	0.169377	-0.043864
C22	C	0.277905	0.168104	-0.043867
C23	C	0.248035	0.109405	-0.000007
C24	C	0.499409	0.189747	0.000002
C25	C	0.571861	0.191019	-0.000007
C26	C	0.588458	0.039471	-0.000012
C27	C	0.516008	0.038201	-0.000011
C28	C	0.471488	0.113342	-0.000001
C29	C	0.825585	-0.041337	-0.000011
C30	C	0.824235	-0.133627	-0.000016
C31	C	0.821126	-0.345951	-0.068254
C32	C	0.819851	-0.432666	-0.068253
C33	C	0.819834	-0.432670	0.068234
C34	C	0.821104	-0.345955	0.068233
C35	C	0.821753	-0.302598	-0.000013
C36	C	0.819208	-0.476029	-0.000011
C37	C	0.817826	-0.570050	-0.000010
C38	C	0.823135	-0.208571	-0.000015
C39	C	0.947472	0.104138	-0.000012
C40	C	1.024579	0.105487	-0.000018
C41	C	0.815377	0.262710	-0.000008
C42	C	0.816727	0.355000	-0.000008
N43	N	0.820459	0.110677	0.178146
N44	N	0.820508	0.110689	-0.178164
C45	C	0.867707	0.054005	0.217532
C46	C	0.867711	0.054001	0.296334
C47	C	0.820474	0.110683	0.335747
C48	C	0.773217	0.167360	0.296351
C49	C	0.773210	0.167356	0.217551
C50	C	0.811357	0.186437	0.460585
C51	C	0.811369	0.186441	0.539384
C52	C	0.820493	0.110693	0.578793
C53	C	0.829619	0.034938	0.539394
C54	C	0.829612	0.034934	0.460594
C55	C	0.820476	0.110693	0.421193
C56	C	0.867747	0.054012	0.703625
C57	C	0.867747	0.054007	0.782429
C58	C	0.773256	0.167373	0.782444
C59	C	0.773253	0.167371	0.703642
C60	C	0.820503	0.110691	0.664238
H61	H	0.397714	0.006522	0.079577
C62	C	0.819188	-0.480354	-0.143323
N63	N	0.818698	-0.516274	-0.199869
C64	C	0.821833	-0.298260	-0.143326
N65	N	0.822362	-0.262340	-0.199874
C66	C	0.821793	-0.298265	0.143306
N67	N	0.822311	-0.262344	0.199850
C68	C	0.839641	-0.048395	0.417257
N69	N	0.847191	-0.111161	0.384616
H70	H	0.624711	-0.021704	-0.000017
C71	C	0.721253	0.229707	0.339707
N72	N	0.682109	0.276666	0.372362
H73	H	0.147687	0.245385	0.000004
C74	C	0.839654	-0.048392	0.582738
N75	N	0.847213	-0.111154	0.615388
H76	H	0.819307	-0.467983	0.123798
H77	H	0.906179	0.007851	0.185452
H78	H	0.906188	0.007850	0.328408
H79	H	0.906219	0.007858	0.671541
C80	C	0.919714	-0.008354	0.825753
N81	N	0.958854	-0.055329	0.858386
C82	C	0.721294	0.229726	0.825793
N83	N	0.682155	0.276691	0.858448
H84	H	0.734782	0.213522	0.671572
C85	C	0.383215	0.233931	-0.092119
N86	N	0.407969	0.282552	-0.128463
C87	C	0.801323	0.269773	0.582716
N88	N	0.793752	0.332541	0.615351
H89	H	0.803915	0.248124	0.428505
H90	H	0.734734	0.213506	0.185482
H91	H	0.594591	0.253239	-0.000005
H92	H	0.016255	0.243076	-0.000003
H93	H	0.463159	0.250931	0.000009
C94	C	0.485295	-0.045850	-0.000006
N95	N	0.462162	-0.109162	-0.000001
C96	C	0.231073	0.231257	-0.092121
N97	N	0.195799	0.278822	-0.128470
H98	H	0.177806	-0.029554	-0.000026
C99	C	0.038387	-0.053707	-0.000030
N100	N	0.015253	-0.117018	-0.000027
C101	C	0.257747	-0.012565	0.092104
N102	N	0.232999	-0.061192	0.128446
