data_functionalizedCrystal
_audit_creation_method	'MofGen! by Chris Wilmer'
_symmetry_space_group_name_H-M	'P1'
_symmetry_Int_Tables_number	1
_symmetry_cell_setting	triclinic
loop_
_symmetry_equiv_pos_as_xyz
  x,y,z
_cell_length_a	16.109301
_cell_length_b	10.723024
_cell_length_c	14.586319
_cell_angle_alpha	89.997376
_cell_angle_beta	89.999213
_cell_angle_gamma	83.964675
loop_
_atom_site_label
_atom_site_type_symbol
_atom_site_fract_x
_atom_site_fract_y
_atom_site_fract_z
O1	O	1.104075	0.160391	-0.076180
O2	O	0.862130	0.180351	-0.076194
O3	O	0.988683	-0.011279	-0.076183
O4	O	0.977521	0.352021	-0.076191
O5	O	0.988674	-0.011282	0.076297
O6	O	0.862121	0.180348	0.076287
O7	O	1.104066	0.160388	0.076301
Cu8	Cu	0.983093	0.170368	0.090216
Cu9	Cu	0.983103	0.170371	-0.090110
O10	O	0.977513	0.352018	0.076290
C11	C	0.831146	0.179541	0.000044
C12	C	0.738836	0.177117	0.000039
C13	C	0.517200	0.285190	0.000047
C14	C	0.430466	0.282903	0.000053
C15	C	0.449003	0.055540	0.000054
C16	C	0.535735	0.057829	0.000055
C17	C	0.569831	0.172657	0.000047
C18	C	0.396365	0.168081	0.000052
C19	C	0.302324	0.165600	0.000058
C20	C	0.663877	0.175139	0.000042
C21	C	0.987866	-0.057770	0.000056
C22	C	0.985436	-0.196292	0.000053
C23	C	1.056249	-0.272213	0.000055
C24	C	1.053739	-0.415383	0.000052
C25	C	1.135050	0.161198	0.000060
C26	C	1.227359	0.163622	0.000060
C27	C	0.978329	0.398508	0.000049
C28	C	0.980760	0.537031	0.000046
N29	N	0.983091	0.170365	0.217048
N30	N	0.983111	0.170364	-0.216942
C31	C	1.039148	0.085539	0.452059
C32	C	1.039150	0.085536	0.548041
C33	C	0.927048	0.255194	0.548040
C34	C	0.927043	0.255190	0.452061
C35	C	0.983097	0.170364	0.404073
C36	C	0.983105	0.170365	0.596034
C37	C	0.983107	0.170362	0.700101
C38	C	0.983094	0.170365	0.299999
H39	H	0.387617	0.374539	0.000056
H40	H	1.084791	0.016463	0.587109
O41	O	0.908454	-0.385109	-0.000120
C42	C	0.823373	-0.220661	-0.079091
C43	C	0.905280	-0.308797	-0.079027
H44	H	0.820788	-0.158921	-0.142870
H45	H	0.768004	-0.278702	-0.079156
H46	H	0.820716	-0.159048	-0.015247
H47	H	0.908018	-0.370427	-0.142860
H48	H	0.960611	-0.250680	-0.078914
H49	H	0.421231	-0.037950	0.000066
H50	H	0.578589	-0.033815	0.000057
O51	O	1.126041	-0.493250	-0.000109
C52	C	1.211131	-0.657683	-0.079076
C53	C	1.129224	-0.569548	-0.079018
H54	H	1.213724	-0.719410	-0.142858
H55	H	1.266501	-0.599641	-0.079132
H56	H	1.213781	-0.719308	-0.015235
H57	H	1.126493	-0.507905	-0.142849
H58	H	1.073893	-0.627665	-0.078915
O59	O	1.093527	0.003205	0.405301
C60	C	1.143088	-0.072168	0.257442
C61	C	1.081496	0.021201	0.310277
H62	H	1.133370	-0.057669	0.180606
H63	H	1.209809	-0.055958	0.276208
H64	H	1.131642	-0.172072	0.276406
H65	H	1.092865	0.121141	0.291341
H66	H	1.014796	0.004882	0.291506
O67	O	1.130724	-0.223113	0.000102
C68	C	1.201129	-0.035652	0.000053
C69	C	1.116727	-0.091085	0.000022
H70	H	1.189843	0.071100	-0.000031
H71	H	1.238021	-0.068438	0.063884
H72	H	1.238015	-0.068595	-0.063742
H73	H	1.079774	-0.058167	0.063774
H74	H	1.079899	-0.058305	-0.063851
H75	H	0.881411	0.324259	0.587122
O76	O	0.910839	-0.245036	0.000167
C77	C	0.780860	-0.259712	0.079180
C78	C	0.865306	-0.204407	0.079154
H79	H	0.744030	-0.226906	0.143043
H80	H	0.743924	-0.226795	0.015408
H81	H	0.792138	-0.366465	0.079132
H82	H	0.854104	-0.097653	0.079234
H83	H	0.902215	-0.237423	0.142920
O84	O	0.872562	0.337716	0.405583
C85	C	0.761337	0.505942	0.415703
C86	C	0.823004	0.412581	0.468453
H87	H	0.721242	0.566477	0.466511
H88	H	0.797541	0.568377	0.370784
H89	H	0.719536	0.452019	0.370751
H90	H	0.864821	0.466402	0.513455
H91	H	0.786749	0.350147	0.513314
H92	H	0.544958	0.378691	0.000048
