data_functionalizedCrystal
_audit_creation_method	'MofGen! by Chris Wilmer'
_symmetry_space_group_name_H-M	'P1'
_symmetry_Int_Tables_number	1
_symmetry_cell_setting	triclinic
loop_
_symmetry_equiv_pos_as_xyz
  x,y,z
_cell_length_a	17.699083
_cell_length_b	26.809956
_cell_length_c	17.699092
_cell_angle_alpha	89.993981
_cell_angle_beta	83.284691
_cell_angle_gamma	90.002782
loop_
_atom_site_label
_atom_site_type_symbol
_atom_site_fract_x
_atom_site_fract_y
_atom_site_fract_z
O1	O	1.004085	0.041408	0.095700
O2	O	0.783707	0.041424	0.108153
O3	O	0.900119	0.041414	-0.008262
O4	O	0.887673	0.041417	0.212115
O5	O	0.900097	-0.041545	-0.008245
O6	O	0.783685	-0.041535	0.108170
O7	O	1.004063	-0.041551	0.095718
Zn8	Zn	0.893870	-0.054715	0.101947
Zn9	Zn	0.893899	0.054587	0.101924
O10	O	0.887651	-0.041542	0.212133
C11	C	0.755499	-0.000054	0.107715
C12	C	0.671480	-0.000047	0.106377
C13	C	0.622862	-0.000047	0.174710
C14	C	0.543918	-0.000053	0.173448
C15	C	0.513595	-0.000057	0.103851
C16	C	0.562220	-0.000059	0.035513
C17	C	0.641162	-0.000056	0.036776
C18	C	0.243857	-0.000072	0.030418
C19	C	0.164909	-0.000073	0.029160
C20	C	0.146613	-0.000068	0.167089
C21	C	0.225555	-0.000065	0.168352
C22	C	0.274173	-0.000070	0.100014
C23	C	0.359772	-0.000064	0.101384
C24	C	0.427998	-0.000059	0.102481
N25	N	0.893856	-0.129311	0.101962
C26	C	0.945440	-0.473941	0.050388
C27	C	0.945458	-0.682819	0.050376
O28	O	0.989285	-0.709826	0.006530
N29	N	0.893903	-0.708938	0.101907
C30	C	0.842337	-0.682834	0.153441
O31	O	0.798482	-0.709843	0.197265
C32	C	0.842316	-0.473958	0.153448
C33	C	0.893879	-0.447841	0.101919
C34	C	0.996998	-0.447825	-0.001138
C35	C	0.996996	-0.395609	-0.001131
C36	C	0.945435	-0.369509	0.050400
C37	C	0.893877	-0.395625	0.101925
C38	C	0.790747	-0.447855	0.204978
C39	C	0.790745	-0.395633	0.204974
C40	C	0.842308	-0.369516	0.153445
C41	C	0.842314	-0.317309	0.153463
N42	N	0.893869	-0.291190	0.101932
C43	C	0.945429	-0.317290	0.050401
C44	C	0.842353	-0.792498	0.153434
C45	C	0.842359	-0.844717	0.153434
C46	C	0.945479	-0.844698	0.050368
C47	C	0.945476	-0.792478	0.050373
C48	C	0.893907	-0.766379	0.101904
C49	C	0.945421	-0.207632	0.050418
C50	C	0.945416	-0.155411	0.050431
C51	C	0.842294	-0.155435	0.153494
C52	C	0.842301	-0.207651	0.153484
C53	C	0.893868	-0.233748	0.101940
O54	O	0.798504	-0.290269	0.197280
O55	O	0.989266	-0.290272	0.006572
C56	C	0.945442	-0.526158	0.050382
C57	C	0.893884	-0.552274	0.101907
C58	C	0.842323	-0.526174	0.153438
C59	C	0.893890	-0.604493	0.101906
C60	C	0.945450	-0.630593	0.050375
C61	C	0.997005	-0.604474	-0.001156
C62	C	0.997002	-0.552257	-0.001150
C63	C	0.790769	-0.552293	0.204969
C64	C	0.790776	-0.604509	0.204959
C65	C	0.842336	-0.630609	0.153428
C66	C	1.032271	-0.000073	0.096155
C67	C	1.116289	-0.000076	0.097494
C68	C	0.899661	-0.000065	-0.036450
C69	C	0.898319	-0.000062	-0.120468
N70	N	0.893919	0.129183	0.101902
C71	C	0.897703	0.045160	-0.159945
C72	C	0.896438	0.045160	-0.238888
C73	C	0.895795	-0.000061	-0.278353
C74	C	0.896409	-0.045287	-0.238870
C75	C	0.897669	-0.045287	-0.159928
C76	C	0.891329	-0.045287	-0.557235
C77	C	0.890071	-0.045283	-0.636184
C78	C	0.890098	0.045160	-0.636195
C79	C	0.891358	0.045160	-0.557253
C80	C	0.891968	-0.000065	-0.517777
C81	C	0.893338	-0.000065	-0.432178
C82	C	0.894430	-0.000062	-0.363952
C83	C	0.888109	-0.000062	0.240321
C84	C	0.889450	-0.000061	0.324339
H85	H	0.537525	-0.000069	-0.021154
O86	O	0.792285	-0.130097	0.203652
C87	C	0.747647	-0.114144	0.335307
C88	C	0.804341	-0.142862	0.278592
H89	H	0.757364	-0.124462	0.395909
H90	H	0.756505	-0.072331	0.326516
H91	H	0.687056	-0.124406	0.325474
H92	H	0.864955	-0.132642	0.288390
H93	H	0.795417	-0.184668	0.287396
H94	H	0.898160	-0.082111	-0.127786
H95	H	0.895940	0.081984	-0.271027
H96	H	0.891841	-0.082112	-0.525105
O97	O	0.652188	-0.000064	0.242383
C98	C	0.625699	-0.000033	0.379062
C99	C	0.592389	-0.000022	0.302474
H100	H	0.577368	0.000012	0.427665
H101	H	0.662172	-0.034758	0.383161
H102	H	0.662226	0.034679	0.383053
H103	H	0.555828	-0.034711	0.298430
H104	H	0.555959	0.034725	0.298406
O105	O	0.290970	-0.000052	-0.036033
C106	C	0.300780	-0.000089	-0.172978
C107	C	0.247334	-0.000098	-0.097775
H108	H	0.265522	-0.000136	-0.222916
H109	H	0.338186	0.034638	-0.175900
H110	H	0.338207	-0.034799	-0.175786
H111	H	0.209859	0.034589	-0.094917
H112	H	0.209979	-0.034847	-0.094884
O113	O	0.254884	-0.000084	0.236024
C114	C	0.228402	-0.000055	0.372703
C115	C	0.195088	-0.000042	0.296118
H116	H	0.180074	-0.000010	0.421309
H117	H	0.264875	-0.034780	0.376800
H118	H	0.264931	0.034657	0.376694
H119	H	0.158525	-0.034730	0.292075
H120	H	0.158659	0.034706	0.292054
O121	O	0.688285	-0.000032	-0.029673
C122	C	0.698107	-0.000065	-0.166618
C123	C	0.644655	-0.000078	-0.091420
H124	H	0.662854	-0.000113	-0.216560
H125	H	0.735510	0.034663	-0.169535
H126	H	0.735537	-0.034774	-0.169425
H127	H	0.607177	0.034607	-0.088562
H128	H	0.607304	-0.034829	-0.088534
O129	O	0.792189	-0.233080	0.203436
C130	C	0.688767	-0.292018	0.219659
C131	C	0.745495	-0.263263	0.163012
H132	H	0.650989	-0.316419	0.186997
H133	H	0.721329	-0.316506	0.257413
H134	H	0.651949	-0.264384	0.256509
H135	H	0.782327	-0.290861	0.126111
H136	H	0.712886	-0.238768	0.125310
O137	O	0.496616	0.000019	0.239778
C138	C	0.396908	0.043019	0.318415
C139	C	0.450419	0.042993	0.243255
H140	H	0.359555	0.077765	0.321257
H141	H	0.359437	0.008324	0.321301
H142	H	0.432160	0.043003	0.368358
H143	H	0.415227	0.043027	0.193269
H144	H	0.487892	0.077685	0.240435
O145	O	0.135417	0.000008	-0.038431
C146	C	0.056871	0.042964	-0.119897
C147	C	0.090235	0.042939	-0.043338
H148	H	0.020322	0.077665	-0.123883
H149	H	0.105149	0.042992	-0.168555
H150	H	0.020398	0.008230	-0.123910
H151	H	0.126700	0.077668	-0.039251
H152	H	0.041921	0.042885	0.005282
H153	H	0.107018	-0.000067	0.222733
O154	O	0.792335	-0.767173	0.203605
C155	C	0.747717	-0.751251	0.335274
C156	C	0.804413	-0.779949	0.278536
H157	H	0.757452	-0.761578	0.395867
H158	H	0.756555	-0.709435	0.326502
H159	H	0.687127	-0.761521	0.325450
H160	H	0.865025	-0.769721	0.288325
H161	H	0.795508	-0.821758	0.287322
H162	H	0.895881	-0.082107	-0.271009
H163	H	0.898231	0.081984	-0.127819
O164	O	0.995534	-0.130119	0.000298
C165	C	1.097845	-0.135621	-0.101898
C166	C	1.041120	-0.164323	-0.045178
H167	H	1.134726	-0.163262	-0.138670
H168	H	1.065280	-0.111184	-0.139719
H169	H	1.135559	-0.111162	-0.069253
H170	H	1.003391	-0.188809	-0.077761
H171	H	1.073732	-0.188728	-0.007357
O172	O	0.892073	0.089067	-0.518874
C173	C	0.958923	0.141543	-0.438323
C174	C	0.958250	0.091811	-0.481785
H175	H	1.012414	0.143773	-0.408313
H176	H	0.958293	0.173900	-0.480044
H177	H	0.906521	0.143759	-0.394393
H178	H	1.010643	0.089546	-0.525716
H179	H	0.958841	0.059478	-0.440018
O180	O	0.995409	-0.233001	0.000277
C181	C	1.011733	-0.291962	-0.103093
C182	C	0.955037	-0.263253	-0.046369
H183	H	0.979115	-0.316436	-0.140810
H184	H	1.048570	-0.264343	-0.139969
H185	H	1.049496	-0.316389	-0.070450
H186	H	0.917224	-0.238827	-0.078950
H187	H	0.918253	-0.290899	-0.009493
H188	H	1.038985	-0.469071	-0.043104
O189	O	1.047107	-0.370320	-0.051266
C190	C	1.149410	-0.375832	-0.153469
C191	C	1.092688	-0.404528	-0.096738
H192	H	1.186288	-0.403477	-0.190237
H193	H	1.116843	-0.351399	-0.191293
H194	H	1.187128	-0.351370	-0.120832
H195	H	1.054956	-0.429018	-0.129312
H196	H	1.125303	-0.428930	-0.058915
H197	H	0.987462	-0.771217	0.008413
H198	H	0.987462	-0.865957	0.008410
O199	O	0.792172	-0.870061	0.203419
C200	C	0.660490	-0.886018	0.247962
C201	C	0.717250	-0.857297	0.191301
H202	H	0.599904	-0.875702	0.238195
H203	H	0.669278	-0.927831	0.239117
H204	H	0.670277	-0.875759	0.308564
H205	H	0.707497	-0.867515	0.130677
H206	H	0.708448	-0.815491	0.200213
O207	O	0.740584	-0.473139	0.255061
C208	C	0.638325	-0.467624	0.357307
C209	C	0.695086	-0.438929	0.300614
H210	H	0.601536	-0.439978	0.394162
H211	H	0.600524	-0.492056	0.324716
H212	H	0.670935	-0.492087	0.395050
H213	H	0.662537	-0.414439	0.262856
H214	H	0.732886	-0.414529	0.333252
H215	H	0.889598	0.081984	-0.668346
H216	H	0.748750	-0.374385	0.246936
H217	H	0.889546	-0.082110	-0.668314
H218	H	1.038990	-0.530997	-0.043110
H219	H	1.038990	-0.625733	-0.043113
H220	H	0.748789	-0.625770	0.246927
H221	H	0.748781	-0.531047	0.246931
