data_functionalizedCrystal
_audit_creation_method	'MofGen! by Chris Wilmer'
_symmetry_space_group_name_H-M	'P1'
_symmetry_Int_Tables_number	1
_symmetry_cell_setting	triclinic
loop_
_symmetry_equiv_pos_as_xyz
  x,y,z
_cell_length_a	14.971482
_cell_length_b	10.967829
_cell_length_c	14.048226
_cell_angle_alpha	77.865708
_cell_angle_beta	89.994098
_cell_angle_gamma	84.173805
loop_
_atom_site_label
_atom_site_type_symbol
_atom_site_fract_x
_atom_site_fract_y
_atom_site_fract_z
O1	O	1.187825	0.162598	-0.105819
O2	O	1.687825	0.662598	0.394181
O3	O	0.927529	0.182076	-0.109018
O4	O	1.427529	0.682076	0.390982
O5	O	1.063678	-0.009306	-0.077618
O6	O	1.563678	0.490694	0.422382
O7	O	1.051675	0.353980	-0.137219
O8	O	1.551675	0.853980	0.362781
O9	O	1.063661	-0.009317	0.080705
O10	O	1.563661	0.490683	0.580705
O11	O	0.927512	0.182065	0.049305
O12	O	1.427512	0.682065	0.549305
O13	O	1.187808	0.162586	0.052505
O14	O	1.687808	0.662586	0.552505
Zn15	Zn	1.057658	0.172324	0.076042
Zn16	Zn	1.557658	0.672324	0.576042
Zn17	Zn	1.057679	0.172339	-0.132556
Zn18	Zn	1.557679	0.672339	0.367444
O19	O	1.051659	0.353968	0.021104
O20	O	1.551659	0.853968	0.521104
C21	C	0.894191	0.181201	-0.029715
C22	C	1.394191	0.681201	0.470285
C23	C	0.794880	0.178593	-0.029288
C24	C	1.294880	0.678593	0.470712
C25	C	0.748220	0.177358	0.057216
C26	C	1.248220	0.677358	0.557216
C27	C	0.654908	0.174888	0.057623
C28	C	1.154908	0.674888	0.557623
C29	C	0.608257	0.173661	-0.028478
C30	C	1.108257	0.673661	0.471522
C31	C	0.654924	0.174891	-0.114989
C32	C	1.154924	0.674891	0.385011
C33	C	0.748235	0.177353	-0.115393
C34	C	1.248235	0.677353	0.384607
C35	C	0.460435	0.169764	-0.114141
C36	C	0.960435	0.669764	0.385859
C37	C	0.367117	0.167305	-0.113738
C38	C	0.867117	0.667305	0.386262
C39	C	0.367107	0.167299	0.058874
C40	C	0.867107	0.667299	0.558874
C41	C	0.460418	0.169760	0.058470
C42	C	0.960418	0.669760	0.558470
C43	C	0.507079	0.170993	-0.028041
C44	C	1.007079	0.670993	0.471959
C45	C	1.062795	-0.055803	0.009169
C46	C	1.562795	0.444197	0.509169
C47	C	1.060179	-0.194332	0.031890
C48	C	1.560179	0.305668	0.531890
C49	C	1.059021	-0.256081	-0.039997
C50	C	1.559021	0.243919	0.460003
C51	C	1.056316	-0.399259	-0.016515
C52	C	1.556316	0.100741	0.483485
C53	C	1.221146	0.163462	-0.026801
C54	C	1.721146	0.663462	0.473199
C55	C	1.320457	0.166070	-0.027234
C56	C	1.820457	0.666070	0.472766
C57	C	1.052542	0.400466	-0.065685
C58	C	1.552542	0.900466	0.434315
C59	C	1.055158	0.538995	-0.088413
C60	C	1.555158	1.038995	0.411587
N61	N	1.057649	0.172313	0.218404
N62	N	1.557649	0.672313	0.718404
N63	N	1.057695	0.172340	-0.274917
N64	N	1.557695	0.672340	0.225083
C65	C	1.117955	0.087604	0.282121
C66	C	1.617955	0.587604	0.782121
C67	C	1.117961	0.087603	0.381779
C68	C	1.617961	0.587603	0.881779
C69	C	1.057665	0.172319	0.417717
C70	C	1.557665	0.672319	0.917717
C71	C	0.997352	0.257032	0.353993
C72	C	1.497352	0.757032	0.853993
C73	C	0.997343	0.257025	0.254338
C74	C	1.497343	0.757025	0.754338
C75	C	0.997378	0.257041	0.561706
C76	C	1.497378	0.757041	1.061706
C77	C	0.997389	0.257049	0.661367
C78	C	1.497389	0.757049	1.161367
C79	C	1.117997	0.087619	0.689146
C80	C	1.617997	0.587619	1.189146
C81	C	1.117987	0.087612	0.589491
C82	C	1.617987	0.587612	1.089491
C83	C	1.057675	0.172327	0.525774
C84	C	1.557675	0.672327	1.025774
H85	H	0.616935	0.173884	-0.185092
H86	H	1.116935	0.673884	0.314908
N87	N	1.183038	-0.003732	0.450484
N88	N	1.683038	0.496268	0.950484
H89	H	1.172224	-0.092335	0.447688
H90	H	1.672224	0.407665	0.947688
H91	H	1.246560	0.010944	0.430672
H92	H	1.746560	0.510944	0.930672
N93	N	1.060274	-0.185636	-0.144536
N94	N	1.560274	0.314364	0.355464
H95	H	1.116619	-0.141603	-0.155582
H96	H	1.616619	0.358397	0.344418
H97	H	1.059068	-0.246529	-0.189261
H98	H	1.559068	0.253471	0.310739
H99	H	0.329112	0.166295	0.129314
H100	H	0.829112	0.666295	0.629314
N101	N	0.316797	0.165988	-0.206602
N102	N	0.816797	0.665988	0.293398
H103	H	0.360514	0.167135	-0.261467
H104	H	0.860514	0.667135	0.238533
H105	H	0.284857	0.087673	-0.197507
H106	H	0.784857	0.587673	0.302493
N107	N	0.798536	0.178677	0.150082
N108	N	1.298536	0.678677	0.650082
H109	H	0.830469	0.256995	0.141081
H110	H	1.330469	0.756995	0.641081
H111	H	0.754764	0.177468	0.204899
H112	H	1.254764	0.677468	0.704899
N113	N	1.058840	-0.264697	0.136445
N114	N	1.558840	0.235303	0.636445
H115	H	1.057100	-0.357005	0.138400
H116	H	1.557100	0.142995	0.638400
H117	H	1.114620	-0.252047	0.172077
H118	H	1.614620	0.247953	0.672077
N119	N	1.183025	-0.003748	0.550724
N120	N	1.683025	0.496252	1.050724
H121	H	1.221233	-0.057415	0.606208
H122	H	1.721233	0.442585	1.106208
H123	H	1.148441	-0.058994	0.518452
H124	H	1.648441	0.441006	1.018452
H125	H	1.055300	-0.452386	0.062420
H126	H	1.555300	0.047614	0.562420
H127	H	0.616923	0.173862	0.128067
H128	H	1.116923	0.673862	0.628067
H129	H	1.056159	-0.407876	-0.167348
H130	H	1.556159	0.092124	0.332652
H131	H	1.167104	0.018641	0.741031
H132	H	1.667104	0.518641	1.241031
H133	H	0.498398	0.170767	0.128579
H134	H	0.998398	0.670767	0.628579
N135	N	1.182995	-0.003761	0.243361
N136	N	1.682995	0.496239	0.743361
H137	H	1.221198	-0.057425	0.298851
H138	H	1.721198	0.442575	0.798851
H139	H	1.148414	-0.059010	0.211089
H140	H	1.648414	0.440990	0.711089
N141	N	0.932303	0.348399	0.185612
N142	N	1.432303	0.848399	0.685612
H143	H	0.941443	0.335539	0.117029
H144	H	1.441443	0.835539	0.617029
H145	H	0.868766	0.333836	0.205439
H146	H	1.368766	0.833836	0.705439
H147	H	0.498423	0.170768	-0.184588
H148	H	0.998423	0.670768	0.315412
H149	H	0.786225	0.178361	-0.185834
H150	H	1.286225	0.678361	0.314166
N151	N	0.932365	0.348429	0.700132
N152	N	1.432365	0.848429	1.200132
H153	H	0.894154	0.402092	0.644647
H154	H	1.394154	0.902092	1.144647
H155	H	0.892540	0.300571	0.749353
H156	H	1.392540	0.800571	1.249353
N157	N	0.932325	0.348404	0.492980
N158	N	1.432325	0.848404	0.992980
H159	H	0.894130	0.402075	0.530866
H160	H	1.394130	0.902075	1.030866
H161	H	0.966901	0.403646	0.442556
H162	H	1.466901	0.903646	0.942556
N163	N	0.932322	0.348402	0.392759
N164	N	1.432322	0.848402	0.892759
H165	H	0.943161	0.436991	0.360869
H166	H	1.443161	0.936991	0.860869
H167	H	0.868779	0.333775	0.377815
H168	H	1.368779	0.833775	0.877815
