data_functionalizedCrystal
_audit_creation_method	'MofGen! by Chris Wilmer'
_symmetry_space_group_name_H-M	'P1'
_symmetry_Int_Tables_number	1
_symmetry_cell_setting	triclinic
loop_
_symmetry_equiv_pos_as_xyz
  x,y,z
_cell_length_a	15.995300
_cell_length_b	15.944493
_cell_length_c	14.472310
_cell_angle_alpha	90.005307
_cell_angle_beta	89.984180
_cell_angle_gamma	83.473426
loop_
_atom_site_label
_atom_site_type_symbol
_atom_site_fract_x
_atom_site_fract_y
_atom_site_fract_z
O1	O	1.111008	0.108065	-0.076863
O2	O	0.867225	0.121479	-0.076856
O3	O	0.995799	-0.007508	-0.076867
O4	O	0.982434	0.237052	-0.076851
O5	O	0.995763	-0.007499	0.076815
O6	O	0.867189	0.121488	0.076826
O7	O	1.110972	0.108074	0.076819
Cu8	Cu	0.989077	0.114782	0.090855
Cu9	Cu	0.989120	0.114771	-0.090891
O10	O	0.982398	0.237061	0.076831
C11	C	0.836011	0.120937	-0.000014
C12	C	0.743059	0.119296	-0.000012
C13	C	0.572876	0.116267	-0.000019
C14	C	0.525397	0.208109	-0.000011
C15	C	0.428709	0.206433	-0.000362
C16	C	0.405320	0.113286	-0.000025
C17	C	0.446481	0.067715	-0.087615
C18	C	0.543114	0.070039	-0.087686
C19	C	0.543352	0.068690	0.087085
C20	C	0.446407	0.068698	0.088234
C21	C	0.310625	0.111596	-0.000032
C22	C	0.667572	0.117954	-0.000019
C23	C	0.995235	-0.038798	-0.000030
C24	C	0.993597	-0.132046	-0.000042
C25	C	1.069278	-0.367824	-0.000026
C26	C	1.028484	-0.418387	-0.075798
C27	C	0.990562	-0.302766	-0.000030
C28	C	1.028430	-0.418354	0.075721
C29	C	0.987637	-0.467675	-0.000015
C30	C	0.949789	-0.352101	-0.075864
C31	C	0.949747	-0.352065	0.075722
C32	C	0.908895	-0.402595	-0.000068
C33	C	0.992250	-0.207767	-0.000040
C34	C	0.985943	-0.562672	-0.000012
C35	C	1.142185	0.108616	-0.000024
C36	C	1.235138	0.110257	-0.000032
C37	C	0.982962	0.268351	-0.000008
C38	C	0.984600	0.361599	-0.000003
N39	N	0.989053	0.114789	0.218686
C40	C	0.989105	0.114775	0.592777
C41	C	0.920077	0.183561	0.553618
C42	C	0.920239	0.183811	0.446530
C43	C	0.989078	0.114782	0.407186
C44	C	1.076441	0.133909	0.446023
C45	C	1.076051	0.134400	0.553144
C46	C	0.971549	0.026656	0.553302
C47	C	0.969548	0.027243	0.446174
C48	C	0.989069	0.114784	0.302298
C49	C	0.989120	0.114774	0.697666
N50	N	0.989130	0.114768	0.781278
H51	H	0.561443	0.102874	-0.153404
N52	N	0.548557	0.254435	0.078763
N53	N	0.517025	0.329052	0.090546
H54	H	0.533384	0.361772	0.146184
N55	N	1.154330	-0.348219	-0.000107
N56	N	1.180584	-0.306815	0.064975
H57	H	1.240650	-0.292968	0.064916
H58	H	0.575398	0.002599	-0.091433
N59	N	0.428806	-0.018145	-0.091390
N60	N	0.385572	-0.046775	-0.029420
H61	H	0.373088	-0.107414	-0.032083
H62	H	0.419047	0.101977	0.153034
H63	H	0.563832	0.098930	0.153494
N64	N	0.583235	-0.016254	0.088166
N65	N	0.568128	-0.064994	0.152148
H66	H	0.596298	-0.124984	0.152907
N67	N	1.070210	-0.454705	-0.156163
N68	N	1.146102	-0.446787	-0.169670
H69	H	1.175577	-0.472433	-0.226427
H70	H	0.916580	-0.323277	-0.139992
H71	H	0.841038	-0.418045	-0.000107
H72	H	0.916517	-0.323092	0.139787
H73	H	1.061674	-0.447289	0.139775
H74	H	1.129035	0.085140	0.420535
H75	H	0.855300	0.172417	0.420275
H76	H	0.854927	0.172356	0.579406
H77	H	0.931449	0.249202	0.420899
H78	H	0.418106	0.098950	-0.153041
N79	N	0.427163	-0.016490	0.095202
N80	N	0.352293	-0.031440	0.100822
H81	H	0.338701	-0.091607	0.105737
H82	H	1.092285	0.197440	0.419189
N83	N	0.933948	0.265129	0.587386
N84	N	0.994450	0.272821	0.640168
H85	H	1.004250	0.330427	0.664019
N86	N	1.095465	0.215018	0.584473
N87	N	1.109205	0.270530	0.527223
H88	H	1.122916	0.327470	0.549344
H89	H	1.129020	0.086273	0.579046
H90	H	0.400871	0.242079	-0.063512
H91	H	0.909227	0.008261	0.580370
H92	H	0.905283	0.012727	0.420793
N93	N	1.028523	-0.039976	0.412569
N94	N	1.086169	-0.024388	0.359104
H95	H	1.127827	-0.071859	0.335369
N96	N	1.034700	-0.037553	0.585074
N97	N	1.092416	-0.018616	0.636565
H98	H	1.137018	-0.063957	0.659010
H99	H	0.400226	0.242241	0.062412
H100	H	0.545015	0.244464	-0.062724
