data_functionalizedCrystal
_audit_creation_method	'MofGen! by Chris Wilmer'
_symmetry_space_group_name_H-M	'P1'
_symmetry_Int_Tables_number	1
_symmetry_cell_setting	triclinic
loop_
_symmetry_equiv_pos_as_xyz
  x,y,z
_cell_length_a	14.519709
_cell_length_b	14.044220
_cell_length_c	12.996460
_cell_angle_alpha	90.001035
_cell_angle_beta	90.000602
_cell_angle_gamma	88.434511
loop_
_atom_site_label
_atom_site_type_symbol
_atom_site_fract_x
_atom_site_fract_y
_atom_site_fract_z
O1	O	1.233894	0.124265	0.085435
O2	O	1.483894	0.374265	0.335435
O3	O	1.733894	0.624265	0.585435
O4	O	1.983894	0.874265	0.835435
O5	O	0.966597	0.138899	0.085466
O6	O	1.216597	0.388899	0.335466
O7	O	1.466597	0.638899	0.585466
O8	O	1.716597	0.888899	0.835466
O9	O	1.096233	-0.006410	0.085441
O10	O	1.346233	0.243590	0.335441
O11	O	1.596233	0.493590	0.585441
O12	O	1.846233	0.743590	0.835441
O13	O	1.104258	0.269573	0.085460
O14	O	1.354258	0.519573	0.335460
O15	O	1.604258	0.769573	0.585460
O16	O	1.854258	1.019573	0.835460
O17	O	1.096216	-0.006401	-0.085693
O18	O	1.346216	0.243599	0.164307
O19	O	1.596216	0.493599	0.414307
O20	O	1.846216	0.743599	0.664307
O21	O	0.966580	0.138908	-0.085667
O22	O	1.216580	0.388908	0.164333
O23	O	1.466580	0.638908	0.414333
O24	O	1.716580	0.888908	0.664333
O25	O	1.233876	0.124273	-0.085699
O26	O	1.483876	0.374273	0.164301
O27	O	1.733876	0.624273	0.414301
O28	O	1.983876	0.874273	0.664301
Cu29	Cu	1.100226	0.131591	-0.101309
Cu30	Cu	1.350226	0.381591	0.148691
Cu31	Cu	1.600226	0.631591	0.398691
Cu32	Cu	1.850226	0.881591	0.648691
Cu33	Cu	1.100247	0.131581	0.101076
Cu34	Cu	1.350247	0.381581	0.351076
Cu35	Cu	1.600247	0.631581	0.601076
Cu36	Cu	1.850247	0.881581	0.851076
O37	O	1.104240	0.269582	-0.085674
O38	O	1.354240	0.519582	0.164326
O39	O	1.604240	0.769582	0.414326
O40	O	1.854240	1.019582	0.664326
C41	C	0.932174	0.138221	-0.000097
C42	C	1.182174	0.388221	0.249903
C43	C	1.432174	0.638221	0.499903
C44	C	1.682174	0.888221	0.749903
C45	C	0.829628	0.136177	-0.000085
C46	C	1.079628	0.386177	0.249915
C47	C	1.329628	0.636177	0.499915
C48	C	1.579628	0.886177	0.749915
C49	C	1.092712	-0.041726	-0.000126
C50	C	1.342712	0.208274	0.249874
C51	C	1.592712	0.458274	0.499874
C52	C	1.842712	0.708274	0.749874
C53	C	1.082235	-0.146969	-0.000126
C54	C	1.332235	0.103031	0.249874
C55	C	1.582235	0.353031	0.499874
C56	C	1.832235	0.603031	0.749874
C57	C	0.454125	0.128653	-0.000132
C58	C	0.704125	0.378653	0.249868
C59	C	0.954125	0.628653	0.499868
C60	C	1.204125	0.878653	0.749868
C61	C	0.558601	0.130743	-0.000119
C62	C	0.808601	0.380743	0.249881
C63	C	1.058601	0.630743	0.499881
C64	C	1.308601	0.880743	0.749881
C65	C	0.641873	0.132415	-0.000107
C66	C	0.891873	0.382415	0.249893
C67	C	1.141873	0.632415	0.499893
C68	C	1.391873	0.882415	0.749893
C69	C	0.746356	0.134505	-0.000096
C70	C	0.996356	0.384505	0.249904
C71	C	1.246356	0.634505	0.499904
C72	C	1.496356	0.884505	0.749904
C73	C	1.063081	-0.339663	-0.000109
C74	C	1.313081	-0.089663	0.249891
C75	C	1.563081	0.160337	0.499891
C76	C	1.813081	0.410337	0.749891
C77	C	1.137389	-0.397170	-0.000115
C78	C	1.387389	-0.147170	0.249885
C79	C	1.637389	0.102830	0.499885
C80	C	1.887389	0.352830	0.749885
C81	C	1.126731	-0.504392	-0.000105
C82	C	1.376731	-0.254392	0.249895
C83	C	1.626731	-0.004392	0.499895
C84	C	1.876731	0.245608	0.749895
C85	C	1.073737	-0.232432	-0.000118
C86	C	1.323737	0.017568	0.249882
C87	C	1.573737	0.267568	0.499882
C88	C	1.823737	0.517568	0.749882
C89	C	1.268300	0.124951	-0.000134
C90	C	1.518300	0.374951	0.249866
C91	C	1.768300	0.624951	0.499866
C92	C	2.018300	0.874951	0.749866
C93	C	1.370846	0.126995	-0.000139
C94	C	1.620846	0.376995	0.249861
C95	C	1.870846	0.626995	0.499861
C96	C	2.120846	0.876995	0.749861
C97	C	1.107761	0.304898	-0.000104
C98	C	1.357761	0.554898	0.249896
C99	C	1.607761	0.804898	0.499896
C100	C	1.857761	1.054898	0.749896
C101	C	1.118238	0.410141	-0.000098
C102	C	1.368238	0.660141	0.249902
C103	C	1.618238	0.910141	0.499902
C104	C	1.868238	1.160141	0.749902
N105	N	1.100218	0.131597	-0.243656
N106	N	1.350218	0.381597	0.006344
N107	N	1.600218	0.631597	0.256344
N108	N	1.850218	0.881597	0.506344
C109	C	1.100223	0.131600	-0.336762
C110	C	1.350223	0.381600	-0.086762
C111	C	1.600223	0.631600	0.163238
C112	C	1.850223	0.881600	0.413238
C113	C	1.100231	0.131593	-0.453567
C114	C	1.350231	0.381593	-0.203567
C115	C	1.600231	0.631593	0.046433
C116	C	1.850231	0.881593	0.296433
C117	C	1.100241	0.131583	-0.546666
C118	C	1.350241	0.381583	-0.296666
C119	C	1.600241	0.631583	-0.046666
C120	C	1.850241	0.881583	0.203334
C121	C	1.100251	0.131578	-0.663478
C122	C	1.350251	0.381578	-0.413478
C123	C	1.600251	0.631578	-0.163478
C124	C	1.850251	0.881578	0.086522
N125	N	1.100262	0.131567	0.243424
N126	N	1.350262	0.381567	0.493424
N127	N	1.600262	0.631567	0.743424
N128	N	1.850262	0.881567	0.993424
H129	H	1.209010	-0.365878	-0.000054
H130	H	1.459010	-0.115878	0.249946
H131	H	1.709010	0.134122	0.499946
H132	H	1.959010	0.384122	0.749946
C133	C	0.966329	-0.381936	-0.000111
C134	C	1.216329	-0.131936	0.249889
C135	C	1.466329	0.118064	0.499889
C136	C	1.716329	0.368064	0.749889
N137	N	0.893457	-0.413788	-0.000121
N138	N	1.143457	-0.163788	0.249879
N139	N	1.393457	0.086212	0.499879
N140	N	1.643457	0.336212	0.749879
