data_functionalizedCrystal
_audit_creation_method	'MofGen! by Chris Wilmer'
_symmetry_space_group_name_H-M	'P1'
_symmetry_Int_Tables_number	1
_symmetry_cell_setting	triclinic
loop_
_symmetry_equiv_pos_as_xyz
  x,y,z
_cell_length_a	11.792241
_cell_length_b	12.503552
_cell_length_c	14.044190
_cell_angle_alpha	86.163821
_cell_angle_beta	88.692597
_cell_angle_gamma	93.543175
loop_
_atom_site_label
_atom_site_type_symbol
_atom_site_fract_x
_atom_site_fract_y
_atom_site_fract_z
O1	O	1.525110	0.089228	0.124544
O2	O	1.196029	0.089254	0.137939
O3	O	1.355624	0.089220	-0.006768
O4	O	1.365514	0.089262	0.269250
O5	O	1.343607	-0.089420	0.004125
O6	O	1.184012	-0.089386	0.148831
O7	O	1.513093	-0.089412	0.135436
Cu8	Cu	1.347455	-0.105710	0.143128
Cu9	Cu	1.361666	0.105552	0.130247
O10	O	1.353498	-0.089378	0.280142
C11	C	1.147650	-0.000063	0.142543
C12	C	1.021401	-0.000054	0.140024
C13	C	0.790252	-0.000085	0.135394
C14	C	0.918880	-0.000068	0.137967
N15	N	1.337468	-0.254301	0.152188
C16	C	1.386347	-0.526744	0.107850
C17	C	1.322786	-0.473407	0.165514
C18	C	1.330957	-0.351485	0.158097
C19	C	1.378177	-0.648677	0.115265
C20	C	1.561471	-0.000093	0.130831
C21	C	1.687721	-0.000095	0.133350
C22	C	1.345290	-0.000102	-0.036658
C23	C	1.332387	-0.000111	-0.141950
N24	N	1.371662	0.254143	0.121180
C25	C	1.400307	-0.000074	-0.391890
C26	C	1.308820	-0.000074	-0.334731
C27	C	1.321936	-0.000095	-0.227458
C28	C	1.387193	-0.000054	-0.499173
C29	C	1.363832	-0.000053	0.310033
C30	C	1.376735	-0.000038	0.415324
H31	H	1.446896	-0.480847	0.052915
H32	H	1.220645	-0.000061	-0.366360
O33	O	1.505443	0.000043	-0.354059
C34	C	1.643930	0.092574	-0.260332
C35	C	1.524833	0.092568	-0.303117
H36	H	1.659653	0.167384	-0.219152
H37	H	1.649611	0.017852	-0.209938
H38	H	1.710731	0.092520	-0.320297
H39	H	1.457962	0.092659	-0.243216
H40	H	1.519248	0.167283	-0.353535
O41	O	1.250646	-0.528325	0.231037
C42	C	1.176547	-0.701685	0.298203
C43	C	1.258304	-0.639619	0.223973
H44	H	1.182694	-0.791677	0.292503
H45	H	1.200550	-0.679721	0.372937
H46	H	1.085801	-0.679595	0.284076
H47	H	1.349076	-0.661676	0.238010
H48	H	1.234204	-0.661589	0.149263
