data_functionalizedCrystal
_audit_creation_method	'MofGen! by Chris Wilmer'
_symmetry_space_group_name_H-M	'P1'
_symmetry_Int_Tables_number	1
_symmetry_cell_setting	triclinic
loop_
_symmetry_equiv_pos_as_xyz
  x,y,z
_cell_length_a	19.188930
_cell_length_b	19.288864
_cell_length_c	18.366186
_cell_angle_alpha	90.022894
_cell_angle_beta	89.988632
_cell_angle_gamma	96.859488
loop_
_atom_site_label
_atom_site_type_symbol
_atom_site_fract_x
_atom_site_fract_y
_atom_site_fract_z
O1	O	0.087099	-0.921359	-0.060791
O2	O	0.098849	-0.719099	-0.060743
O3	O	-0.008682	-0.826066	-0.060754
O4	O	0.194630	-0.814393	-0.060780
O5	O	-0.008687	-0.826048	0.060345
O6	O	0.098843	-0.719081	0.060357
O7	O	0.087094	-0.921341	0.060308
Zn8	Zn	0.092968	-0.820208	0.079560
Zn9	Zn	0.092975	-0.820232	-0.079994
O10	O	0.194625	-0.814374	0.060320
C11	C	0.098468	-0.693214	-0.000186
C12	C	0.097333	-0.616110	-0.000167
C13	C	-0.034696	-0.825679	-0.000202
C14	C	-0.112200	-0.824544	-0.000196
C15	C	0.087475	-0.947227	-0.000250
C16	C	0.088609	-1.024330	-0.000274
C17	C	-0.157129	-0.887309	-0.000207
C18	C	-0.229953	-0.886243	-0.000219
C19	C	-0.257844	-0.822408	-0.000204
C20	C	-0.212906	-0.759636	-0.000196
C21	C	-0.140084	-0.760704	-0.000192
N22	N	-0.365847	-0.773609	0.041020
N23	N	-0.435026	-0.772598	0.041018
C24	C	-0.477253	-0.819187	-0.000218
N25	N	-0.447689	-0.866835	-0.041442
N26	N	-0.378504	-0.867847	-0.041436
C27	C	-0.336807	-0.821243	-0.000209
C28	C	-0.601146	-0.880800	-0.000243
C29	C	-0.673971	-0.879731	-0.000259
C30	C	-0.656922	-0.753122	-0.000229
C31	C	-0.584099	-0.754193	-0.000220
C32	C	-0.556216	-0.818034	-0.000224
C33	C	0.220638	-0.814762	-0.000234
C34	C	0.298143	-0.815896	-0.000245
N35	N	0.092963	-0.820197	0.188451
C36	C	0.160427	-0.571419	-0.000187
C37	C	0.159361	-0.498972	-0.000195
C38	C	0.095197	-0.471219	-0.000198
C39	C	0.032095	-0.515921	-0.000174
C40	C	0.033163	-0.588366	-0.000159
C41	C	0.044759	-0.362960	-0.042642
C42	C	0.043694	-0.290515	-0.042662
C43	C	0.091900	-0.247773	-0.000241
C44	C	0.141184	-0.277483	0.042190
C45	C	0.142253	-0.349929	0.042205
C46	C	0.094032	-0.392665	-0.000214
C47	C	0.153843	-0.124526	-0.000268
C48	C	0.152774	-0.052078	-0.000272
C49	C	0.025506	-0.069028	-0.000259
C50	C	0.026576	-0.141475	-0.000248
C51	C	0.090747	-0.169219	-0.000256
N52	N	0.092974	-0.820249	-0.188885
C53	C	0.045371	-0.867577	0.226546
C54	C	0.045368	-0.867582	0.302774
C55	C	0.092968	-0.820213	0.340903
C56	C	0.140563	-0.772823	0.302799
C57	C	0.140560	-0.772816	0.226573
C58	C	0.156585	-0.810919	0.461657
C59	C	0.156589	-0.810932	0.537882
C60	C	0.092977	-0.820232	0.576011
C61	C	0.029359	-0.829535	0.537906
C62	C	0.029356	-0.829527	0.461679
C63	C	0.092977	-0.820215	0.423558
C64	C	0.045378	-0.867620	0.696761
C65	C	0.045374	-0.867620	0.772990
C66	C	0.140576	-0.772864	0.773014
C67	C	0.140574	-0.772862	0.696786
C68	C	0.092976	-0.820243	0.658664
H69	H	-0.266541	-0.937355	-0.000231
H70	H	0.212680	-0.594003	-0.000195
C71	C	-0.042828	-0.190638	-0.000238
H72	H	-0.081196	-0.163736	-0.000247
H73	H	-0.045061	-0.219229	0.041997
H74	H	-0.045052	-0.219272	-0.042469
C75	C	0.222179	-0.002913	-0.000294
H76	H	0.212355	0.044207	-0.000293
H77	H	0.248498	-0.011326	-0.042527
H78	H	0.248501	-0.011282	0.041938
C79	C	-0.006978	-0.919742	0.814896
H80	H	-0.035318	-0.947962	0.781271
H81	H	-0.035982	-0.894855	0.844652
H82	H	0.018075	-0.948577	0.844609
H83	H	-0.020148	-0.493320	-0.000187
H84	H	-0.235620	-0.707661	-0.000186
C85	C	0.192924	-0.720721	0.344738
H86	H	0.186115	-0.727516	0.395593
H87	H	0.185460	-0.674388	0.332275
H88	H	0.239505	-0.728123	0.332227
C89	C	-0.090660	-0.691660	-0.000173
H90	H	-0.117698	-0.653488	-0.000162
H91	H	-0.061884	-0.689451	-0.042397
H92	H	-0.061912	-0.689440	0.042068
H93	H	0.005502	-0.397755	-0.077191
C94	C	0.196454	-0.382612	0.088879
H95	H	0.190186	-0.431878	0.082806
H96	H	0.190141	-0.371530	0.138662
H97	H	0.242477	-0.364599	0.073951
H98	H	0.179316	-0.734232	0.195555
C99	C	-0.570470	-0.951020	-0.000255
H100	H	-0.607661	-0.988249	-0.000274
H101	H	-0.542428	-0.954063	0.041977
H102	H	-0.542406	-0.954073	-0.042488
H103	H	-0.710552	-0.930844	-0.000272
C104	C	0.194215	-0.230480	0.088858
H105	H	0.223721	-0.258550	0.114124
H106	H	0.169659	-0.205417	0.122971
H107	H	0.221994	-0.198481	0.058259
H108	H	-0.134431	-0.939293	-0.000213
C109	C	0.226563	-0.800693	0.419723
H110	H	0.264451	-0.795166	0.453332
H111	H	0.228084	-0.760244	0.390005
H112	H	0.230329	-0.840372	0.389968
H113	H	-0.022445	-0.837100	0.430657
H114	H	-0.026738	-0.046433	-0.000306
C115	C	-0.687594	-0.682906	-0.000215
H116	H	-0.737400	-0.691258	-0.000216
H117	H	-0.672147	-0.657078	-0.042438
H118	H	-0.672169	-0.657065	0.042027
H119	H	0.006619	-0.906199	0.665721
C120	C	-0.036242	-0.637532	-0.000143
H121	H	-0.026416	-0.684652	-0.000131
H122	H	-0.062562	-0.629164	-0.042371
H123	H	-0.062562	-0.629120	0.042094
C124	C	-0.534675	-0.685151	-0.000195
H125	H	-0.561714	-0.646980	-0.000182
H126	H	-0.505901	-0.682940	-0.042421
H127	H	-0.505926	-0.682933	0.042044
C128	C	-0.006991	-0.919687	0.184616
H129	H	-0.035340	-0.947902	0.218226
H130	H	0.018047	-0.948519	0.154855
H131	H	-0.035997	-0.894784	0.154905
H132	H	0.210742	-0.462577	-0.000208
C133	C	-0.006983	-0.919703	0.344688
H134	H	-0.035328	-0.947922	0.311066
H135	H	-0.035983	-0.894814	0.374446
H136	H	0.018070	-0.948540	0.374399
C137	C	-0.040618	-0.839761	0.579837
H138	H	-0.031508	-0.838424	0.630691
H139	H	-0.065632	-0.883641	0.567331
H140	H	-0.067881	-0.803514	0.567365
H141	H	0.003566	-0.266331	-0.077215
C142	C	0.224424	-0.155051	-0.000268
H143	H	0.216024	-0.204599	-0.000267
H144	H	0.250392	-0.139676	0.041957
H145	H	0.250395	-0.139718	-0.042508
C146	C	0.192936	-0.720757	0.654876
H147	H	0.186116	-0.727535	0.604018
H148	H	0.239513	-0.728163	0.667356
H149	H	0.185475	-0.674422	0.667391
H150	H	0.179330	-0.734293	0.804059
C151	C	0.226565	-0.800704	0.579791
H152	H	0.264449	-0.795152	0.546167
H153	H	0.230342	-0.840382	0.609503
H154	H	0.228080	-0.760257	0.609550
