data_functionalizedCrystal
_audit_creation_method	'MofGen! by Chris Wilmer'
_symmetry_space_group_name_H-M	'P1'
_symmetry_Int_Tables_number	1
_symmetry_cell_setting	triclinic
loop_
_symmetry_equiv_pos_as_xyz
  x,y,z
_cell_length_a	15.538191
_cell_length_b	16.109301
_cell_length_c	14.586319
_cell_angle_alpha	89.994467
_cell_angle_beta	89.990131
_cell_angle_gamma	65.366787
loop_
_atom_site_label
_atom_site_type_symbol
_atom_site_fract_x
_atom_site_fract_y
_atom_site_fract_z
O1	O	0.121105	1.066618	-0.076175
O2	O	0.136174	0.820012	-0.076189
O3	O	-0.008505	0.991319	-0.076184
O4	O	0.265784	0.895311	-0.076180
O5	O	-0.008529	0.991308	0.076297
O6	O	0.136150	0.820001	0.076292
O7	O	0.121080	1.066607	0.076306
Cu8	Cu	0.128613	0.943303	0.090221
Cu9	Cu	0.128642	0.943316	-0.090105
O10	O	0.265759	0.895300	0.076300
C11	C	0.135552	0.789215	0.000050
C12	C	0.133722	0.697472	0.000044
C13	C	0.215316	0.450596	0.000056
C14	C	0.213589	0.364396	0.000062
C15	C	0.041932	0.436032	0.000056
C16	C	0.043660	0.522229	0.000056
C17	C	0.130355	0.529508	0.000052
C18	C	0.126900	0.357111	0.000057
C19	C	0.125027	0.263649	0.000063
C20	C	0.132228	0.622975	0.000047
C21	C	-0.043615	1.001358	0.000054
C22	C	-0.148198	1.031279	0.000047
C23	C	-0.435898	0.734025	0.000050
C24	C	-0.534172	0.762161	0.000053
C25	C	-0.556664	0.920419	0.000062
C26	C	-0.458389	0.892297	0.000054
C27	C	-0.398013	0.799099	0.000049
C28	C	-0.420505	0.957370	0.000053
C29	C	-0.322239	0.929249	0.000049
C30	C	-0.261857	0.836055	0.000047
C31	C	-0.299747	0.770978	0.000046
C32	C	-0.480882	1.050568	0.000064
C33	C	-0.442998	1.115641	0.000063
C34	C	-0.344730	1.087520	0.000053
C35	C	-0.284349	0.994326	0.000051
C36	C	-0.306840	1.152598	0.000055
C37	C	-0.208574	1.124477	0.000052
C38	C	-0.186083	0.966206	0.000048
C39	C	0.300870	0.885260	0.000060
C40	C	0.405453	0.855340	0.000062
C41	C	0.121703	1.097403	0.000065
C42	C	0.123533	1.189147	0.000065
N43	N	0.128592	0.943300	0.217053
N44	N	0.128655	0.943327	-0.216937
C45	C	0.071477	0.910140	0.548078
C46	C	0.071464	0.910138	0.452097
C47	C	0.185773	0.976492	0.452045
C48	C	0.185780	0.976500	0.548024
C49	C	0.128634	0.943319	0.596039
C50	C	0.128613	0.943308	0.404078
C51	C	0.128600	0.943306	0.300011
C52	C	0.128646	0.943323	0.700112
H53	H	-0.028652	0.430094	0.000065
H54	H	0.024944	0.883123	0.587169
H55	H	0.282773	0.300146	0.000067
Cl56	Cl	-0.382751	1.269756	0.000079
Cl57	Cl	-0.359989	0.616860	0.000034
Cl58	Cl	-0.581794	0.680344	0.000061
Cl59	Cl	-0.000389	0.868419	0.391808
H60	H	-0.177729	1.177466	0.000052
Cl61	Cl	-0.632572	1.037578	0.000075
Cl62	Cl	0.257614	1.018198	0.391678
H63	H	0.232325	1.003523	0.587075
Cl64	Cl	-0.604418	1.085919	0.000075
H65	H	0.285908	0.456517	0.000059
H66	H	-0.136921	0.890314	0.000037
Cl67	Cl	-0.063157	0.621441	0.000059
H68	H	-0.181843	0.813161	0.000050
H69	H	-0.492169	1.191523	0.000071
H70	H	-0.250585	0.695087	0.000035
