data_functionalizedCrystal
_audit_creation_method	'MofGen! by Chris Wilmer'
_symmetry_space_group_name_H-M	'P1'
_symmetry_Int_Tables_number	1
_symmetry_cell_setting	triclinic
loop_
_symmetry_equiv_pos_as_xyz
  x,y,z
_cell_length_a	15.944551
_cell_length_b	19.188930
_cell_length_c	15.021413
_cell_angle_alpha	89.998889
_cell_angle_beta	89.997174
_cell_angle_gamma	83.321760
loop_
_atom_site_label
_atom_site_type_symbol
_atom_site_fract_x
_atom_site_fract_y
_atom_site_fract_z
O1	O	1.114192	0.090039	-0.073949
O2	O	1.614192	0.590039	0.426051
O3	O	0.869601	0.101141	-0.073973
O4	O	1.369601	0.601141	0.426027
O5	O	0.998955	-0.006048	-0.073943
O6	O	1.498955	0.493952	0.426057
O7	O	0.984838	0.197227	-0.073979
O8	O	1.484838	0.697227	0.426021
O9	O	0.998934	-0.006033	0.074121
O10	O	1.498934	0.493967	0.574121
O11	O	0.869580	0.101156	0.074091
O12	O	1.369580	0.601156	0.574091
O13	O	1.114171	0.090054	0.074115
O14	O	1.614171	0.590054	0.574115
Zn15	Zn	0.991873	0.095607	0.097611
Zn16	Zn	1.491873	0.595607	0.597611
Zn17	Zn	0.991900	0.095587	-0.097470
Zn18	Zn	1.491900	0.595587	0.402530
O19	O	0.984817	0.197242	0.074085
O20	O	1.484817	0.697242	0.574085
C21	C	0.838298	0.100687	0.000056
C22	C	1.338298	0.600687	0.500056
C23	C	0.745057	0.099306	0.000048
C24	C	1.245057	0.599306	0.500048
C25	C	0.530462	0.029563	0.000078
C26	C	1.030462	0.529563	0.500078
C27	C	0.469331	0.061941	-0.072931
C28	C	0.969331	0.561941	0.427069
C29	C	0.574341	0.096806	0.000059
C30	C	1.074341	0.596806	0.500059
C31	C	0.469332	0.061972	0.073048
C32	C	0.969332	0.561972	0.573048
C33	C	0.409437	0.094386	0.000074
C34	C	0.909437	0.594386	0.500074
C35	C	0.514438	0.129203	-0.073010
C36	C	1.014438	0.629203	0.426990
C37	C	0.514446	0.129225	0.073035
C38	C	1.014446	0.629225	0.573035
C39	C	0.453332	0.161652	0.000008
C40	C	0.953332	0.661652	0.500008
C41	C	0.669338	0.098198	0.000050
C42	C	1.169338	0.598198	0.500050
C43	C	0.314441	0.093000	0.000076
C44	C	0.814441	0.593000	0.500076
C45	C	0.998487	-0.032052	0.000091
C46	C	1.498487	0.467948	0.500091
C47	C	0.997115	-0.109560	0.000099
C48	C	1.497115	0.390440	0.500099
C49	C	1.073016	-0.154288	0.000111
C50	C	1.573016	0.345712	0.500111
C51	C	1.071726	-0.227115	0.000096
C52	C	1.571726	0.272885	0.500096
C53	C	0.994532	-0.255211	0.000088
C54	C	1.494532	0.244789	0.500088
C55	C	0.918622	-0.210474	0.000072
C56	C	1.418622	0.289526	0.500072
C57	C	0.919913	-0.137648	0.000077
C58	C	1.419913	0.362352	0.500077
N59	N	0.935519	-0.363364	0.050472
N60	N	1.435519	0.136636	0.550472
N61	N	0.934298	-0.432546	0.050468
N62	N	1.434298	0.067454	0.550468
C63	C	0.990637	-0.474630	0.000070
C64	C	1.490637	0.025370	0.500070
N65	N	1.048256	-0.444921	-0.050314
N66	N	1.548256	0.055079	0.449686
N67	N	1.049480	-0.375733	-0.050307
N68	N	1.549480	0.124267	0.449693
C69	C	0.993123	-0.334178	0.000082
C70	C	1.493123	0.165822	0.500082
C71	C	1.065145	-0.598326	0.000064
C72	C	1.565145	-0.098326	0.500064
C73	C	1.063852	-0.671154	0.000044
C74	C	1.563852	-0.171154	0.500044
C75	C	0.910745	-0.654511	0.000029
C76	C	1.410745	-0.154511	0.500029
C77	C	0.912040	-0.581685	0.000040
C78	C	1.412040	-0.081685	0.500040
C79	C	0.989242	-0.553597	0.000062
C80	C	1.489242	-0.053597	0.500062
C81	C	1.145474	0.090507	0.000083
C82	C	1.645474	0.590507	0.500083
C83	C	1.238715	0.091889	0.000086
C84	C	1.738715	0.591889	0.500086
C85	C	0.985285	0.223247	0.000048
C86	C	1.485285	0.723247	0.500048
C87	C	0.986657	0.300755	0.000035
C88	C	1.486657	0.800755	0.500035
N89	N	0.991860	0.095621	0.230749
N90	N	1.491860	0.595621	0.730749
N91	N	0.991919	0.095568	-0.230607
N92	N	1.491919	0.595568	0.269393
C93	C	0.932038	0.145161	0.470418
C94	C	1.432038	0.645161	0.970418
C95	C	1.007887	0.158716	0.529757
C96	C	1.507887	0.658716	1.029757
C97	C	0.991882	0.095603	0.412356
C98	C	1.491882	0.595603	0.912356
C99	C	0.916053	0.082064	0.529759
C100	C	1.416053	0.582064	1.029759
C101	C	0.991896	0.095588	0.587780
C102	C	1.491896	0.595588	1.087780
C103	C	1.067770	0.109189	0.470388
C104	C	1.567770	0.609189	0.970388
C105	C	0.975885	0.032510	0.470384
C106	C	1.475885	0.532510	0.970384
C107	C	1.051789	0.046038	0.529697
C108	C	1.551789	0.546038	1.029697
C109	C	0.991872	0.095614	0.311299
C110	C	1.491872	0.595614	0.811299
C111	C	0.991914	0.095577	0.688835
C112	C	1.491914	0.595577	1.188835
H113	H	1.135880	-0.131424	0.000125
H114	H	1.635880	0.368576	0.500125
H115	H	0.851919	0.070620	0.555840
H116	H	1.351919	0.570620	1.055840
H117	H	0.534328	0.157617	-0.134801
H118	H	1.034328	0.657617	0.365199
C119	C	0.575746	-0.045834	0.000001
C120	C	1.075746	0.454166	0.500001
H121	H	0.609697	-0.053054	0.051898
H122	H	1.109697	0.446946	0.551898
H123	H	0.610462	-0.052727	-0.051373
H124	H	1.110462	0.447273	0.448627
H125	H	0.535009	-0.078238	-0.000556
H126	H	1.035009	0.421762	0.499444
H127	H	0.419965	0.217516	-0.000043
H128	H	0.919965	0.717516	0.499957
C129	C	1.155220	-0.276325	0.000115
C130	C	1.655220	0.223675	0.500115
H131	H	1.201383	-0.249166	0.000134
H132	H	1.701383	0.250834	0.500134
H133	H	1.157911	-0.305081	-0.051517
H134	H	1.657911	0.194919	0.448483
H135	H	1.157881	-0.305078	0.051756
H136	H	1.657881	0.194922	0.551756
C137	C	0.442316	0.023519	-0.156304
C138	C	0.942316	0.523519	0.343696
H139	H	0.404532	0.054639	-0.190683
H140	H	0.904532	0.554639	0.309317
H141	H	0.415003	-0.015721	-0.138757
H142	H	0.915003	0.484279	0.361243
H143	H	0.490757	0.007944	-0.190918
H144	H	0.990757	0.507944	0.309082
H145	H	1.021431	0.212066	0.555837
H146	H	1.521431	0.712066	1.055837
C147	C	0.863745	0.201819	0.435245
C148	C	1.363745	0.701819	0.935245
H149	H	0.875260	0.246615	0.455574
H150	H	1.375260	0.746615	0.955574
H151	H	0.809978	0.192648	0.456443
H152	H	1.309978	0.692648	0.956443
H153	H	0.863882	0.201156	0.372007
H154	H	1.363882	0.701156	0.872007
C155	C	1.154428	0.124739	0.435318
C156	C	1.654428	0.624739	0.935318
H157	H	1.190606	0.131199	0.484137
H158	H	1.690606	0.631199	0.984137
H159	H	1.147543	0.166137	0.400119
H160	H	1.647543	0.666137	0.900119
H161	H	1.178602	0.086463	0.400070
H162	H	1.678602	0.586463	0.900070
H163	H	0.449344	0.033525	0.134770
H164	H	0.949344	0.533525	0.634770
C165	C	0.541498	0.167620	0.156406
C166	C	1.041498	0.667620	0.656406
H167	H	0.526239	0.143666	0.208234
H168	H	1.026239	0.643666	0.708234
H169	H	0.514027	0.214281	0.156923
H170	H	1.014027	0.714281	0.656923
H171	H	0.600927	0.168586	0.155507
H172	H	1.100927	0.668586	0.655507
C173	C	0.833710	-0.241377	0.000066
C174	C	1.333710	0.258623	0.500066
H175	H	0.843811	-0.291155	0.000074
H176	H	1.343811	0.208845	0.500074
H177	H	0.802475	-0.226023	-0.051570
H178	H	1.302475	0.273977	0.448430
H179	H	0.802463	-0.226024	0.051703
H180	H	1.302463	0.273976	0.551703
C181	C	1.120230	-0.010594	0.564641
C182	C	1.620230	0.489406	1.064641
H183	H	1.094563	-0.043609	0.599453
H184	H	1.594563	0.456391	1.099453
H185	H	1.159300	0.010809	0.600248
H186	H	1.659300	0.510809	1.100248
H187	H	1.149042	-0.033927	0.515774
H188	H	1.649042	0.466073	1.015774
C189	C	0.836419	-0.088446	0.000073
C190	C	1.336419	0.411554	0.500073
H191	H	0.790258	-0.115606	0.000070
H192	H	1.290258	0.384394	0.500070
H193	H	0.833747	-0.059684	-0.051555
H194	H	1.333747	0.440316	0.448445
H195	H	0.833735	-0.059698	0.051718
H196	H	1.333735	0.440302	0.551718
C197	C	1.150061	-0.567426	0.000078
C198	C	1.650061	-0.067426	0.500078
H199	H	1.195082	-0.604498	0.000070
H200	H	1.695082	-0.104498	0.500070
H201	H	1.153742	-0.539367	0.051716
H202	H	1.653742	-0.039367	0.551716
H203	H	1.153753	-0.539358	-0.051557
H204	H	1.653753	-0.039358	0.448443
H205	H	1.125662	-0.707571	0.000049
H206	H	1.625662	-0.207571	0.500049
C207	C	0.957562	-0.039535	0.435114
C208	C	1.457562	0.460465	0.935114
H209	H	1.003955	-0.059618	0.400318
H210	H	1.503955	0.440382	0.900318
H211	H	0.908055	-0.033869	0.399427
H212	H	1.408055	0.466131	0.899427
H213	H	0.949379	-0.069572	0.483844
H214	H	1.449379	0.430428	0.983844
C215	C	0.825831	-0.685405	0.000017
C216	C	1.325831	-0.185405	0.500017
H217	H	0.780810	-0.648332	0.000007
H218	H	1.280810	-0.148332	0.500007
H219	H	0.822134	-0.713473	0.051645
H220	H	1.322134	-0.213473	0.551645
H221	H	0.822154	-0.713462	-0.051628
H222	H	1.322154	-0.213462	0.448372
C223	C	0.828548	-0.532482	0.000042
C224	C	1.328548	-0.032482	0.500042
H225	H	0.782388	-0.559643	0.000043
H226	H	1.282388	-0.059643	0.500043
H227	H	0.825874	-0.503722	-0.051587
H228	H	1.325874	-0.003722	0.448413
H229	H	0.825866	-0.503733	0.051686
H230	H	1.325866	-0.003733	0.551686
