data_functionalizedCrystal
_audit_creation_method	'MofGen! by Chris Wilmer'
_symmetry_space_group_name_H-M	'P1'
_symmetry_Int_Tables_number	1
_symmetry_cell_setting	triclinic
loop_
_symmetry_equiv_pos_as_xyz
  x,y,z
_cell_length_a	31.640172
_cell_length_b	21.606444
_cell_length_c	21.606444
_cell_angle_alpha	59.992989
_cell_angle_beta	90.003955
_cell_angle_gamma	60.001198
loop_
_atom_site_label
_atom_site_type_symbol
_atom_site_fract_x
_atom_site_fract_y
_atom_site_fract_z
Zr1	Zr	0.407186	0.677431	-0.081253
O2	O	0.339698	0.806570	-0.180111
O3	O	0.427874	0.548298	-0.050933
O4	O	0.427877	0.677423	-0.180072
O5	O	0.339694	0.677449	0.050878
O6	O	0.497434	0.677410	-0.180058
O7	O	0.339696	0.677445	-0.050972
O8	O	0.497429	0.446430	0.050947
O9	O	0.339699	0.908430	-0.180128
O10	O	0.488607	0.601401	-0.038010
O11	O	0.436697	0.601414	0.037989
O12	O	0.436699	0.753441	-0.114055
O13	O	0.384789	0.753454	-0.038056
Zr14	Zr	0.518119	0.677418	0.081207
Zr15	Zr	0.518121	0.677411	-0.081232
Zr16	Zr	0.407183	0.677438	0.081185
Zr17	Zr	0.407186	0.839886	-0.081280
Zr18	Zr	0.518118	0.514962	0.081234
O19	O	0.497430	0.806550	0.050887
O20	O	0.497434	0.806540	-0.180080
O21	O	0.339695	0.806579	0.050856
O22	O	0.585606	0.548279	0.180064
O23	O	0.585610	0.548269	-0.050902
O24	O	0.427870	0.548308	0.180034
O25	O	0.585610	0.677399	-0.050924
O26	O	0.497428	0.677426	0.180026
O27	O	0.427871	0.677439	0.180012
O28	O	0.585609	0.677404	0.050926
O29	O	0.427877	0.908413	-0.180110
O30	O	0.497427	0.446435	0.180064
O31	O	0.585606	0.446419	0.180081
O32	O	0.585608	0.446414	0.050964
O33	O	0.339697	0.908435	-0.051011
O34	O	0.427875	0.908419	-0.050993
O35	O	0.488605	0.601407	0.114009
O36	O	0.540516	0.601395	0.038010
O37	O	0.488608	0.753435	-0.038035
O38	O	0.436697	0.753448	0.037964
C39	C	0.462651	0.474218	0.000011
C40	C	0.462651	0.405251	0.000022
C41	C	0.424331	0.428991	-0.056111
C42	C	0.424332	0.364201	-0.056127
C43	C	0.462652	0.275673	-0.000005
C44	C	0.500976	0.251934	0.056131
C45	C	0.500977	0.316723	0.056143
C46	C	0.500976	-0.009353	0.056083
C47	C	0.500972	-0.074141	0.056068
C48	C	0.424332	0.038126	-0.056186
C49	C	0.424332	0.102915	-0.056174
C50	C	0.462657	0.079170	-0.000041
C51	C	0.462656	0.149423	-0.000025
C52	C	0.462652	0.205421	-0.000017
C53	C	0.323889	0.677450	-0.000050
C54	C	0.276794	0.677459	-0.000059
C55	C	0.011883	0.598053	0.039687
C56	C	-0.165102	0.598037	0.039702
O57	O	-0.164944	0.530541	0.073488
N58	N	-0.214327	0.677400	0.000006
C59	C	-0.219305	0.756773	-0.039692
O60	O	-0.265235	0.824276	-0.073449
C61	C	-0.042320	0.756787	-0.039702
C62	C	0.006904	0.677419	-0.000010
C63	C	0.061106	0.518691	0.079376
C64	C	0.105349	0.518695	0.079369
C65	C	0.100370	0.598062	0.039672
C66	C	0.051148	0.677423	-0.000018
C67	C	-0.047299	0.836159	-0.079395
C68	C	-0.003048	0.836155	-0.079393
C69	C	0.046177	0.756787	-0.039701
C70	C	0.090412	0.756794	-0.039722
N71	N	0.139637	0.677431	-0.000026
C72	C	0.144616	0.598065	0.039671
C73	C	-0.312222	0.756760	-0.039685
C74	C	-0.356468	0.756756	-0.039684
C75	C	-0.302262	0.598021	0.039711
C76	C	-0.258016	0.598025	0.039705
C77	C	-0.262997	0.677397	0.000011
C78	C	0.237528	0.598081	0.039651
C79	C	0.281773	0.598092	0.039638
C80	C	0.227563	0.756828	-0.039754
C81	C	0.183322	0.756816	-0.039744
C82	C	0.188308	0.677436	-0.000036
O83	O	0.090293	0.824255	-0.073484
O84	O	0.190550	0.530572	0.073436
C85	C	-0.032360	0.598048	0.039694
C86	C	-0.081582	0.677410	0.000005
C87	C	-0.086562	0.756776	-0.039692
C88	C	-0.125828	0.677406	0.000006
C89	C	-0.120849	0.598040	0.039703
C90	C	-0.071624	0.518677	0.079399
C91	C	-0.027381	0.518682	0.079391
C92	C	-0.135787	0.836139	-0.079388
C93	C	-0.180028	0.836128	-0.079378
C94	C	-0.175049	0.756762	-0.039681
C95	C	0.601416	0.677399	0.000004
C96	C	0.648511	0.677390	0.000013
C97	C	0.462655	0.677416	-0.203209
C98	C	0.462656	0.677413	-0.272168
C99	C	0.462653	0.880631	-0.000057
C100	C	0.462653	0.949598	-0.000069
C101	C	0.435554	0.756799	-0.735173
C102	C	0.435553	0.756797	-0.670376
C103	C	0.462649	0.677430	-0.598284
C104	C	0.489744	0.598061	-0.590990
C105	C	0.489742	0.598065	-0.655787
C106	C	0.489752	0.598046	-0.329672
C107	C	0.489754	0.598049	-0.264874
C108	C	0.435564	0.756778	-0.344261
C109	C	0.435562	0.756781	-0.409058
C110	C	0.462654	0.677413	-0.401758
C111	C	0.462654	0.677416	-0.472019
C112	C	0.462652	0.677426	-0.528024
C113	C	0.462649	0.677433	0.203163
C114	C	0.462648	0.677436	0.272122
C115	C	0.601415	0.474192	0.000038
C116	C	0.648510	0.405217	0.000059
C117	C	0.462648	0.474226	0.203197
C118	C	0.462647	0.405263	0.272168
C119	C	0.601412	0.474201	0.203224
C120	C	0.648505	0.405229	0.272204
C121	C	0.323893	0.880648	-0.203270
C122	C	0.276799	0.949620	-0.272250
C123	C	0.323890	0.880657	-0.000084
C124	C	0.276795	0.949632	-0.000105
C125	C	0.462656	0.880622	-0.203243
C126	C	0.462658	0.949586	-0.272214
C127	C	0.643530	0.372829	-0.039620
C128	C	0.687776	0.308028	-0.039615
C129	C	0.737002	0.275613	0.000072
C130	C	0.741980	0.308007	0.039752
C131	C	0.697734	0.372811	0.039743
C132	C	0.489742	0.372874	0.344245
C133	C	0.489739	0.308084	0.409057
C134	C	0.462643	0.275681	0.401790
C135	C	0.435545	0.308076	0.329704
C136	C	0.435545	0.372869	0.264894
C137	C	0.697723	0.372832	0.264927
C138	C	0.741976	0.308034	0.329735
C139	C	0.737012	0.275630	0.401819
C140	C	0.687789	0.308033	0.409095
C141	C	0.643537	0.372834	0.344288
C142	C	0.227582	0.982025	-0.264973
C143	C	0.183328	1.046843	-0.329781
C144	C	0.188293	1.079250	-0.401865
C145	C	0.237515	1.046843	-0.409141
C146	C	0.281768	0.982031	-0.344334
C147	C	0.281774	0.982027	0.039567
C148	C	0.237528	1.046845	0.039545
C149	C	0.188303	1.079263	-0.000145
C150	C	0.183324	1.046865	-0.039822
C151	C	0.227570	0.982053	-0.039804
C152	C	0.489758	0.981969	-0.264922
C153	C	0.489770	1.046759	-0.329721
C154	C	0.462677	1.079169	-0.401812
C155	C	0.435575	1.046780	-0.409102
C156	C	0.435567	0.981986	-0.344304
H157	H	0.393121	0.501072	-0.101804
N158	N	0.792264	0.274873	0.080309
N159	N	0.805467	0.238698	0.150277
H160	H	0.840981	0.215291	0.178926
H161	H	0.145427	0.454066	0.111687
N162	N	0.540114	-0.033595	0.113422
N163	N	0.540114	0.024253	0.113429
H164	H	0.567756	0.007133	0.153927
H165	H	0.462647	0.222922	0.454568
H166	H	0.393127	0.057454	-0.101895
N167	N	0.066210	0.437603	0.119924
N168	N	0.089303	0.384471	0.103103
H169	H	0.092914	0.327197	0.131738
H170	H	0.532178	-0.146229	0.101771
H171	H	0.603463	0.399203	0.350223
N172	N	-0.008129	0.917226	-0.119934
N173	N	0.010517	0.934939	-0.085404
H174	H	0.006929	0.992195	-0.114037
N175	N	0.517428	0.274978	0.482689
N176	N	0.517429	0.217126	0.540555
H177	H	0.536985	0.193743	0.592558
H178	H	0.241596	0.533442	0.071986
H179	H	0.413484	0.281684	0.323798
H180	H	0.511807	0.399249	0.350177
H181	H	0.321842	0.955647	-0.350268
H182	H	0.012697	0.454052	0.111714
N183	N	0.517454	1.079841	-0.322276
N184	N	0.553142	1.072587	-0.349553
H185	H	0.572694	1.095949	-0.344294
N186	N	-0.317318	0.837843	-0.080256
N187	N	-0.298683	0.855556	-0.132511
H188	H	-0.302284	0.912823	-0.161170
N189	N	0.407878	0.837879	-0.808805
N190	N	0.383689	0.908733	-0.815305
H191	H	0.364140	0.965999	-0.867308
H192	H	0.773049	0.222865	0.454583
N193	N	0.540125	0.161506	0.113450
N194	N	0.569629	0.112834	0.095289
H195	H	0.597279	0.048968	0.135772
N196	N	0.702825	0.405896	0.080271
N197	N	0.725914	0.442043	0.063448
H198	H	0.729513	0.465408	0.092072
N199	N	0.517420	0.516982	-0.322221
N200	N	0.493830	0.499279	-0.349521
H201	H	0.513371	0.442023	-0.344260
N202	N	0.682683	0.274927	-0.080129
N203	N	0.701326	0.195372	-0.045574
H204	H	0.697728	0.171993	-0.074185
H205	H	0.223509	0.955678	-0.072107
N206	N	0.133035	1.079984	-0.080345
N207	N	0.102305	1.072756	-0.045793
H208	H	0.066786	1.096145	-0.074407
N209	N	-0.066552	0.437613	0.119938
N210	N	-0.106065	0.437633	0.119929
H211	H	-0.102486	0.380386	0.148559
N212	N	0.332049	0.948941	0.080106
N213	N	0.345246	0.999579	0.063266
H214	H	0.380751	0.976220	0.091895
N215	N	0.407887	0.837856	-0.677815
N216	N	0.407892	0.837846	-0.619958
H217	H	0.388352	0.895098	-0.625212
H218	H	0.413483	0.399232	0.206208
H219	H	0.241551	1.073238	-0.467840
N220	N	0.407872	0.948922	-0.351745
N221	N	0.407858	0.891080	-0.293891
H222	H	0.388296	0.867731	-0.299150
N223	N	0.222482	0.837895	-0.080288
N224	N	0.199402	0.891031	-0.063467
H225	H	0.195814	0.948286	-0.092091
H226	H	0.773025	0.222844	0.000074
H227	H	0.511803	0.533440	-0.532287
H228	H	0.701775	0.399206	0.206238
H229	H	-0.217938	0.533396	0.072033
H230	H	0.511803	0.533439	-0.649842
H231	H	-0.220108	0.900764	-0.111707
H232	H	0.532181	0.297387	0.101853
H233	H	0.223530	0.955642	-0.206284
H234	H	0.413499	0.821410	-0.467756
H235	H	0.511820	0.955590	-0.206228
H236	H	0.321854	0.533458	0.071962
H237	H	0.782051	0.281658	0.323798
N238	N	0.682732	0.274915	0.482735
N239	N	0.722251	0.217051	0.540586
H240	H	0.718681	0.193654	0.592597
N241	N	0.133057	1.079928	-0.322325
N242	N	0.128637	1.050973	-0.257957
H243	H	0.093134	1.074338	-0.252689
N244	N	0.462695	1.145351	-0.467991
N245	N	0.486896	1.174253	-0.461461
H246	H	0.486910	1.220996	-0.508197
N247	N	0.143082	1.145456	-0.468053
N248	N	0.099142	1.174375	-0.461536
H249	H	0.067209	1.221132	-0.508279
N250	N	0.407906	1.079898	-0.482749
N251	N	0.407919	1.137752	-0.540592
H252	H	0.388376	1.161148	-0.592608
N253	N	-0.140887	0.917222	-0.119939
N254	N	-0.184844	0.988070	-0.155373
H255	H	-0.188450	1.045341	-0.184018
H256	H	0.241592	1.073212	0.071857
N257	N	-0.406744	0.837837	-0.080246
N258	N	-0.411175	0.908690	-0.115685
H259	H	-0.446681	0.965957	-0.144332
N260	N	0.143115	1.145471	-0.000155
N261	N	0.147574	1.174381	0.035274
H262	H	0.115662	1.221140	0.035271
H263	H	0.393127	0.174997	-0.101871
N264	N	0.385188	0.388466	-0.113474
N265	N	0.350976	0.467512	-0.163577
H266	H	0.323328	0.484653	-0.204083
H267	H	-0.298215	0.533397	0.072030
H268	H	-0.087373	0.900789	-0.111716
H269	H	0.143240	0.821444	-0.072074
H270	H	0.413502	0.821404	-0.350198
H271	H	0.511819	0.533415	-0.206172
H272	H	0.603452	0.399221	-0.071947
