data_functionalizedCrystal
_audit_creation_method	'MofGen! by Chris Wilmer'
_symmetry_space_group_name_H-M	'P1'
_symmetry_Int_Tables_number	1
_symmetry_cell_setting	triclinic
loop_
_symmetry_equiv_pos_as_xyz
  x,y,z
_cell_length_a	17.699077
_cell_length_b	11.026607
_cell_length_c	16.176319
_cell_angle_alpha	89.997745
_cell_angle_beta	90.006844
_cell_angle_gamma	95.933297
loop_
_atom_site_label
_atom_site_type_symbol
_atom_site_fract_x
_atom_site_fract_y
_atom_site_fract_z
O1	O	1.025152	0.153353	0.068733
O2	O	1.525152	0.653353	0.568733
O3	O	0.807516	0.173318	0.068737
O4	O	1.307516	0.673318	0.568737
O5	O	0.898297	-0.013264	0.068732
O6	O	1.398297	0.486736	0.568732
O7	O	0.934372	0.339935	0.068738
O8	O	1.434372	0.839935	0.568738
O9	O	0.898281	-0.013254	-0.068761
O10	O	1.398281	0.486746	0.431239
O11	O	0.807500	0.173328	-0.068756
O12	O	1.307500	0.673328	0.431244
O13	O	1.025136	0.153363	-0.068760
O14	O	1.525136	0.653363	0.431240
Cu15	Cu	0.916317	0.163347	-0.081312
Cu16	Cu	1.416317	0.663347	0.418688
Cu17	Cu	0.916336	0.163334	0.081289
Cu18	Cu	1.416336	0.663334	0.581289
O19	O	0.934356	0.339945	-0.068756
O20	O	1.434356	0.839945	0.431244
C21	C	0.779213	0.172609	-0.000009
C22	C	1.279213	0.672609	0.499991
C23	C	0.694900	0.170466	-0.000008
C24	C	1.194900	0.670466	0.499992
C25	C	0.655285	0.169462	-0.074956
C26	C	1.155285	0.669462	0.425044
C27	C	0.576064	0.167430	-0.074957
C28	C	1.076064	0.667430	0.425043
C29	C	0.536459	0.166410	-0.000009
C30	C	1.036459	0.666410	0.499991
C31	C	0.576079	0.167411	0.074945
C32	C	1.076079	0.667411	0.574945
C33	C	0.655299	0.169434	0.074946
C34	C	1.155299	0.669434	0.574946
C35	C	0.256594	0.159248	0.074947
C36	C	0.756594	0.659248	0.574947
C37	C	0.177369	0.157227	0.074941
C38	C	0.677369	0.657227	0.574941
C39	C	0.177359	0.157243	-0.074956
C40	C	0.677359	0.657243	0.425044
C41	C	0.256579	0.159267	-0.074956
C42	C	0.756579	0.659267	0.425044
C43	C	0.296192	0.160261	-0.000002
C44	C	0.796192	0.660261	0.499998
C45	C	0.382093	0.162462	-0.000002
C46	C	0.882093	0.662462	0.499998
C47	C	0.450559	0.164217	-0.000008
C48	C	0.950559	0.664217	0.499992
C49	C	0.891634	-0.058450	-0.000013
C50	C	1.391634	0.441550	0.499987
C51	C	0.871794	-0.193105	-0.000010
C52	C	1.371794	0.306895	0.499990
C53	C	0.926574	-0.267074	-0.000010
C54	C	1.426574	0.232926	0.499990
C55	C	0.906070	-0.406247	-0.000006
C56	C	1.406070	0.093753	0.499994
C57	C	1.053439	0.154072	-0.000012
C58	C	1.553439	0.654072	0.499988
C59	C	1.137752	0.156215	-0.000008
C60	C	1.637752	0.656215	0.499992
C61	C	0.941019	0.385131	-0.000008
C62	C	1.441019	0.885131	0.499992
C63	C	0.960858	0.519786	-0.000006
C64	C	1.460858	1.019786	0.499994
N65	N	0.916309	0.163354	-0.195678
N66	N	1.416309	0.663354	0.304322
C67	C	0.956557	0.080728	-0.761062
C68	C	1.456557	0.580728	-0.261062
C69	C	0.956554	0.080737	-0.674515
C70	C	1.456554	0.580737	-0.174515
C71	C	0.916339	0.163329	-0.631253
C72	C	1.416339	0.663329	-0.131253
C73	C	0.876130	0.245926	-0.674542
C74	C	1.376130	0.745926	-0.174542
C75	C	0.876137	0.245923	-0.761088
C76	C	1.376137	0.745923	-0.261088
C77	C	0.876101	0.245943	-0.325514
C78	C	1.376101	0.745943	0.174486
C79	C	0.876096	0.245938	-0.238963
C80	C	1.376096	0.745938	0.261037
C81	C	0.956519	0.080757	-0.238941
C82	C	1.456519	0.580757	0.261059
C83	C	0.956526	0.080754	-0.325487
C84	C	1.456526	0.580754	0.174513
C85	C	0.916320	0.163355	-0.368769
C86	C	1.416320	0.663355	0.131231
C87	C	0.916324	0.163346	-0.462613
C88	C	1.416324	0.663346	0.037387
C89	C	0.916330	0.163333	-0.537410
C90	C	1.416330	0.663333	-0.037410
N91	N	0.916348	0.163317	0.195654
N92	N	1.416348	0.663317	0.695654
H93	H	0.288822	0.160103	-0.135986
H94	H	0.788822	0.660103	0.364014
F95	F	0.533924	0.166288	0.154712
F96	F	1.033924	0.666288	0.654712
F97	F	0.999325	-0.007155	-0.371526
F98	F	1.499325	0.492845	0.128474
H99	H	0.988652	-0.227367	-0.000016
H100	H	1.488652	0.272633	0.499984
F101	F	0.697429	0.170556	-0.154728
F102	F	1.197429	0.670556	0.345272
F103	F	0.833292	0.333849	-0.192921
F104	F	1.333292	0.833849	0.307079
F105	F	0.790651	-0.244997	-0.000001
F106	F	1.290651	0.255003	0.499999
H107	H	0.989260	0.013502	-0.203692
H108	H	1.489260	0.513502	0.296308
F109	F	0.833310	0.333849	-0.371571
F110	F	1.333310	0.833849	0.128429
F111	F	0.999356	-0.007185	-0.807097
F112	F	1.499356	0.492815	-0.307097
F113	F	0.833333	0.333834	-0.628499
F114	F	1.333333	0.833834	-0.128499
H115	H	0.843988	-0.445947	0.000000
H116	H	1.343988	0.054053	0.500000
F117	F	0.533907	0.166378	-0.154728
F118	F	1.033907	0.666378	0.345272
F119	F	0.135193	0.156180	-0.154729
F120	F	0.635193	0.656180	0.345271
H121	H	1.022941	-0.440516	0.000055
H122	H	1.522941	0.059484	0.500055
F123	F	0.833344	0.333829	-0.807152
F124	F	1.333344	0.833829	-0.307152
F125	F	0.135220	0.156140	0.154716
F126	F	0.635220	0.656140	0.654716
F127	F	0.697459	0.170498	0.154716
F128	F	1.197459	0.670498	0.654716
F129	F	0.298743	0.160306	0.154719
F130	F	0.798743	0.660306	0.654719
H131	H	0.989295	0.013488	-0.639274
H132	H	1.489295	0.513488	-0.139274
