data_functionalizedCrystal
_audit_creation_method	'MofGen! by Chris Wilmer'
_symmetry_space_group_name_H-M	'P1'
_symmetry_Int_Tables_number	1
_symmetry_cell_setting	triclinic
loop_
_symmetry_equiv_pos_as_xyz
  x,y,z
_cell_length_a	6.817900
_cell_length_b	12.200722
_cell_length_c	27.923559
_cell_angle_alpha	95.835128
_cell_angle_beta	98.965071
_cell_angle_gamma	107.140920
loop_
_atom_site_label
_atom_site_type_symbol
_atom_site_fract_x
_atom_site_fract_y
_atom_site_fract_z
V1	V	-3.995443	-0.160345	-0.151320
O2	O	-3.964523	0.006026	-0.148387
O3	O	-3.965476	-0.316323	-0.150336
O4	O	-3.925033	-0.158615	-0.217293
O5	O	-4.005245	-0.152773	-0.080967
V6	V	-4.479534	-0.140358	-0.142899
O7	O	-4.255454	-0.204188	-0.169793
O8	O	-4.669720	-0.096515	-0.124427
O9	O	-4.286295	0.015619	-0.143883
O10	O	-4.627851	-0.306729	-0.145833
O11	O	-4.587128	-0.147930	-0.213253
O12	O	-4.326737	-0.142088	-0.076927
C13	C	-3.815673	-0.354324	-0.147962
C14	C	-3.872311	-0.481842	-0.147598
C15	C	-3.918303	-0.585399	-0.147297
C16	C	-3.976021	-0.715318	-0.146922
C17	C	-3.764083	-0.153151	-0.233372
C18	C	-3.787921	-0.152769	-0.287305
C19	C	-3.986163	-0.255661	-0.628724
C20	C	-4.075872	-0.254293	-0.831432
O21	O	-4.130216	-0.343522	-0.863567
N22	N	-4.036921	-0.148995	-0.849814
C23	C	-3.975550	-0.044032	-0.817516
O24	O	-3.944499	0.045561	-0.837803
C25	C	-3.885857	-0.045402	-0.614809
C26	C	-3.924792	-0.150706	-0.596430
C27	C	-4.025097	-0.360957	-0.610344
C28	C	-4.002660	-0.361298	-0.559670
C29	C	-3.941289	-0.256343	-0.527376
C30	C	-3.902355	-0.151047	-0.545755
C31	C	-3.824502	0.059560	-0.582512
C32	C	-3.802087	0.059208	-0.531832
C33	C	-3.841022	-0.046097	-0.513453
C34	C	-3.818547	-0.046432	-0.462787
N35	N	-3.857498	-0.151730	-0.444405
C36	C	-3.918869	-0.256686	-0.476699
C37	C	-4.022640	-0.043320	-0.923941
C38	C	-4.045060	-0.042977	-0.974617
C39	C	-4.145384	-0.253239	-0.988530
C40	C	-4.122949	-0.253580	-0.937852
C41	C	-4.061592	-0.148618	-0.905559
C42	C	-3.871744	-0.257393	-0.370279
C43	C	-3.849292	-0.257724	-0.319600
C44	C	-3.748980	-0.047463	-0.305691
C45	C	-3.771420	-0.047131	-0.356366
C46	C	-3.832812	-0.152105	-0.388659
O47	O	-3.764234	0.042749	-0.430624
O48	O	-3.949955	-0.346267	-0.456404
C49	C	-4.008601	-0.255321	-0.679398
C50	C	-3.969667	-0.150025	-0.697778
C51	C	-3.908296	-0.045070	-0.665484
C52	C	-3.992086	-0.149682	-0.748455
C53	C	-4.053457	-0.254637	-0.780749
C54	C	-4.092409	-0.359936	-0.762367
C55	C	-4.069972	-0.360276	-0.711693
C56	C	-3.869344	0.060229	-0.683866
C57	C	-3.891784	0.060561	-0.734541
C58	C	-3.953155	-0.044395	-0.766835
C59	C	-4.099440	0.053614	-0.146256
C60	C	-4.022039	0.181132	-0.146624
C61	C	-4.151030	-0.147556	-0.060845
C62	C	-4.106431	-0.147932	-0.006911
H63	H	-3.921730	-0.342873	-0.396567
H64	H	-3.880996	-0.343479	-0.304638
N65	N	-4.005291	0.064579	-0.993396
N66	N	-4.025317	0.064885	-1.038642
H67	H	-3.997239	0.140849	-1.051904
N68	N	-4.042475	-0.468856	-0.540893
N69	N	-4.022471	-0.469169	-0.495647
H70	H	-4.050603	-0.545137	-0.482388
N71	N	-4.109729	-0.467831	-0.692913
N72	N	-3.967696	-0.487037	-0.664280
H73	H	-3.995777	-0.563002	-0.651019
H74	H	-4.195351	-0.338698	-1.014833
H75	H	-4.142371	-0.445394	-0.788670
N76	N	-3.806621	0.167457	-0.650889
N77	N	-3.634828	0.242324	-0.649993
H78	H	-3.590515	0.318064	-0.626705
N79	N	-4.162743	-0.361177	-0.919106
N80	N	-4.302154	-0.389365	-0.894300
H81	H	-4.330256	-0.465371	-0.881073
H82	H	-3.860058	0.146319	-0.749499
H83	H	-3.699003	0.037989	-0.279388
N84	N	-4.087804	-0.468187	-0.643321
N85	N	-4.122557	-0.562184	-0.626894
H86	H	-4.166835	-0.637923	-0.650180
N87	N	-3.731675	0.060434	-0.375141
N88	N	-3.873731	0.079636	-0.403768
H89	H	-3.845679	0.155606	-0.417025
N90	N	-3.959969	0.063914	-0.890963
N91	N	-3.925206	0.157914	-0.907389
H92	H	-3.880940	0.233650	-0.884101
N93	N	-3.784780	0.167125	-0.601279
N94	N	-3.926831	0.186324	-0.629908
H95	H	-3.898782	0.262298	-0.643162
N96	N	-3.739418	0.166438	-0.498853
N97	N	-3.704669	0.260442	-0.515274
H98	H	-3.660405	0.336175	-0.491983
