data_functionalizedCrystal
_audit_creation_method	'MofGen! by Chris Wilmer'
_symmetry_space_group_name_H-M	'P1'
_symmetry_Int_Tables_number	1
_symmetry_cell_setting	triclinic
loop_
_symmetry_equiv_pos_as_xyz
  x,y,z
_cell_length_a	15.944493
_cell_length_b	14.519709
_cell_length_c	12.996460
_cell_angle_alpha	89.999966
_cell_angle_beta	89.999729
_cell_angle_gamma	96.422406
loop_
_atom_site_label
_atom_site_type_symbol
_atom_site_fract_x
_atom_site_fract_y
_atom_site_fract_z
O1	O	0.110112	-1.223651	-0.085419
O2	O	0.360112	-0.973651	0.164581
O3	O	0.610112	-0.723651	0.414581
O4	O	0.860112	-0.473651	0.664581
O5	O	0.123079	-0.955148	-0.085449
O6	O	0.373079	-0.705148	0.164551
O7	O	0.623079	-0.455148	0.414551
O8	O	0.873079	-0.205148	0.664551
O9	O	-0.005672	-1.096760	-0.085442
O10	O	0.244328	-0.846760	0.164558
O11	O	0.494328	-0.596760	0.414558
O12	O	0.744328	-0.346760	0.664558
O13	O	0.238863	-1.082040	-0.085426
O14	O	0.488863	-0.832040	0.164574
O15	O	0.738863	-0.582040	0.414574
O16	O	0.988863	-0.332040	0.664574
O17	O	-0.005679	-1.096745	0.085692
O18	O	0.244321	-0.846745	0.335692
O19	O	0.494321	-0.596745	0.585692
O20	O	0.744321	-0.346745	0.835692
O21	O	0.123072	-0.955134	0.085685
O22	O	0.373072	-0.705134	0.335685
O23	O	0.623072	-0.455134	0.585685
O24	O	0.873072	-0.205134	0.835685
O25	O	0.110105	-1.223636	0.085715
O26	O	0.360105	-0.973636	0.335715
O27	O	0.610105	-0.723636	0.585715
O28	O	0.860105	-0.473636	0.835715
Cu29	Cu	0.116588	-1.089384	0.101326
Cu30	Cu	0.366588	-0.839384	0.351326
Cu31	Cu	0.616588	-0.589384	0.601326
Cu32	Cu	0.866588	-0.339384	0.851326
Cu33	Cu	0.116596	-1.089401	-0.101060
Cu34	Cu	0.366596	-0.839401	0.148940
Cu35	Cu	0.616596	-0.589401	0.398940
Cu36	Cu	0.866596	-0.339401	0.648940
O37	O	0.238856	-1.082025	0.085708
O38	O	0.488856	-0.832025	0.335708
O39	O	0.738856	-0.582025	0.585708
O40	O	0.988856	-0.332025	0.835708
C41	C	0.122471	-0.920783	0.000114
C42	C	0.372471	-0.670783	0.250114
C43	C	0.622471	-0.420783	0.500114
C44	C	0.872471	-0.170783	0.750114
C45	C	0.120660	-0.818405	0.000102
C46	C	0.370660	-0.568405	0.250102
C47	C	0.620660	-0.318405	0.500102
C48	C	0.870660	-0.068405	0.750102
C49	C	-0.036971	-1.096151	0.000121
C50	C	0.213029	-0.846151	0.250121
C51	C	0.463029	-0.596151	0.500121
C52	C	0.713029	-0.346151	0.750121
C53	C	-0.130222	-1.094347	0.000107
C54	C	0.119778	-0.844347	0.250107
C55	C	0.369778	-0.594347	0.500107
C56	C	0.619778	-0.344347	0.750107
C57	C	0.110713	-1.258002	0.000150
C58	C	0.360713	-1.008002	0.250150
C59	C	0.610713	-0.758002	0.500150
C60	C	0.860713	-0.508002	0.750150
C61	C	0.112524	-1.360380	0.000155
C62	C	0.362524	-1.110380	0.250155
C63	C	0.612524	-0.860380	0.500155
C64	C	0.862524	-0.610380	0.750155
C65	C	-0.365861	-1.177703	0.000136
C66	C	-0.115861	-0.927703	0.250136
C67	C	0.134139	-0.677703	0.500136
C68	C	0.384139	-0.427703	0.750136
C69	C	-0.416491	-1.132759	-0.084246
C70	C	-0.166491	-0.882759	0.165754
C71	C	0.083509	-0.632759	0.415754
C72	C	0.333509	-0.382759	0.665754
C73	C	-0.300948	-1.091005	0.000120
C74	C	-0.050948	-0.841005	0.250120
C75	C	0.199052	-0.591005	0.500120
C76	C	0.449052	-0.341005	0.750120
C77	C	-0.416474	-1.132725	0.084478
C78	C	-0.166474	-0.882725	0.334478
C79	C	0.083526	-0.632725	0.584478
C80	C	0.333526	-0.382725	0.834478
C81	C	-0.465863	-1.087783	0.000136
C82	C	-0.215863	-0.837783	0.250136
C83	C	0.034137	-0.587783	0.500136
C84	C	0.284137	-0.337783	0.750136
C85	C	-0.350350	-1.046085	-0.084332
C86	C	-0.100350	-0.796085	0.165668
C87	C	0.149650	-0.546085	0.415668
C88	C	0.399650	-0.296085	0.665668
C89	C	-0.350330	-1.046063	0.084468
C90	C	-0.100330	-0.796063	0.334468
C91	C	0.149670	-0.546063	0.584468
C92	C	0.399670	-0.296063	0.834468
C93	C	-0.400926	-1.001056	0.000065
C94	C	-0.150926	-0.751056	0.250065
C95	C	0.099074	-0.501056	0.500065
C96	C	0.349074	-0.251056	0.750065
C97	C	-0.205946	-1.092863	0.000109
C98	C	0.044054	-0.842863	0.250109
C99	C	0.294054	-0.592863	0.500109
C100	C	0.544054	-0.342863	0.750109
C101	C	-0.560862	-1.085918	0.000139
C102	C	-0.310862	-0.835918	0.250139
C103	C	-0.060862	-0.585918	0.500139
C104	C	0.189138	-0.335918	0.750139
C105	C	0.270155	-1.082634	0.000143
C106	C	0.520155	-0.832634	0.250143
C107	C	0.770155	-0.582634	0.500143
C108	C	1.020155	-0.332634	0.750143
C109	C	0.363406	-1.084438	0.000149
C110	C	0.613406	-0.834438	0.250149
C111	C	0.863406	-0.584438	0.500149
C112	C	1.113406	-0.334438	0.750149
N113	N	0.116581	-1.089378	0.243673
N114	N	0.366581	-0.839378	0.493673
N115	N	0.616581	-0.589378	0.743673
N116	N	0.866581	-0.339378	0.993673
C117	C	0.113994	-0.443522	0.000148
C118	C	0.363994	-0.193522	0.250148
C119	C	0.613994	0.056478	0.500148
C120	C	0.863994	0.306478	0.750148
C121	C	0.115845	-0.547826	0.000135
C122	C	0.365845	-0.297826	0.250135
C123	C	0.615845	-0.047826	0.500135
C124	C	0.865845	0.202174	0.750135
C125	C	0.117327	-0.630960	0.000124
C126	C	0.367327	-0.380960	0.250124
C127	C	0.617327	-0.130960	0.500124
C128	C	0.867327	0.119040	0.750124
C129	C	0.119178	-0.735271	0.000113
C130	C	0.369178	-0.485271	0.250113
C131	C	0.619178	-0.235271	0.500113
C132	C	0.869178	0.014729	0.750113
N133	N	0.116596	-1.089414	-0.243407
N134	N	0.366596	-0.839414	0.006593
N135	N	0.616596	-0.589414	0.256593
N136	N	0.866596	-0.339414	0.506593
C137	C	0.116597	-1.089400	0.663487
C138	C	0.366597	-0.839400	0.913487
C139	C	0.616597	-0.589400	1.163487
C140	C	0.866597	-0.339400	1.413487
C141	C	0.116596	-1.089391	0.546682
C142	C	0.366596	-0.839391	0.796682
C143	C	0.616596	-0.589391	1.046682
C144	C	0.866596	-0.339391	1.296682
C145	C	0.116590	-1.089389	0.453584
C146	C	0.366590	-0.839389	0.703584
C147	C	0.616590	-0.589389	0.953584
C148	C	0.866590	-0.339389	1.203584
C149	C	0.116587	-1.089380	0.336771
C150	C	0.366587	-0.839380	0.586771
C151	C	0.616587	-0.589380	0.836771
C152	C	0.866587	-0.339380	1.086771
H153	H	-0.350125	-1.252382	0.000060
H154	H	-0.100125	-1.002382	0.250060
H155	H	0.149875	-0.752382	0.500060
H156	H	0.399875	-0.502382	0.750060
Cl157	Cl	-0.305679	-0.989592	0.194604
Cl158	Cl	-0.055679	-0.739592	0.444604
Cl159	Cl	0.194321	-0.489592	0.694604
Cl160	Cl	0.444321	-0.239592	0.944604
H161	H	-0.321580	-1.009498	-0.155747
H162	H	-0.071580	-0.759498	0.094253
H163	H	0.178420	-0.509498	0.344253
H164	H	0.428420	-0.259498	0.594253
H165	H	-0.445381	-1.169379	-0.155578
H166	H	-0.195381	-0.919379	0.094422
H167	H	0.054619	-0.669379	0.344422
H168	H	0.304619	-0.419379	0.594422
H169	H	-0.445355	-1.169350	0.155812
H170	H	-0.195355	-0.919350	0.405812
H171	H	0.054645	-0.669350	0.655812
H172	H	0.304645	-0.419350	0.905812
Cl173	Cl	-0.424977	-0.885670	-0.000015
Cl174	Cl	-0.174977	-0.635670	0.249985
Cl175	Cl	0.075023	-0.385670	0.499985
Cl176	Cl	0.325023	-0.135670	0.749985
