data_functionalizedCrystal
_audit_creation_method	'MofGen! by Chris Wilmer'
_symmetry_space_group_name_H-M	'P1'
_symmetry_Int_Tables_number	1
_symmetry_cell_setting	triclinic
loop_
_symmetry_equiv_pos_as_xyz
  x,y,z
_cell_length_a	16.120531
_cell_length_b	18.215407
_cell_length_c	18.215399
_cell_angle_alpha	89.985401
_cell_angle_beta	87.133706
_cell_angle_gamma	87.061810
loop_
_atom_site_label
_atom_site_type_symbol
_atom_site_fract_x
_atom_site_fract_y
_atom_site_fract_z
Zn1	Zn	0.331782	1.110184	-0.430835
Zn2	Zn	0.581782	1.360184	-0.180835
Zn3	Zn	0.831782	1.610184	0.069165
Zn4	Zn	1.081782	1.860184	0.319165
Zn5	Zn	0.471204	1.103836	-0.313997
Zn6	Zn	0.721204	1.353836	-0.063997
Zn7	Zn	0.971204	1.603836	0.186003
Zn8	Zn	1.221204	1.853836	0.436003
Zn9	Zn	0.331823	0.987114	-0.307795
Zn10	Zn	0.581823	1.237114	-0.057795
Zn11	Zn	0.831823	1.487114	0.192205
Zn12	Zn	1.081823	1.737114	0.442205
Zn13	Zn	0.471171	0.980827	-0.437032
Zn14	Zn	0.721171	1.230827	-0.187032
Zn15	Zn	0.971171	1.480827	0.062968
Zn16	Zn	1.221171	1.730827	0.312968
O17	O	0.401495	1.045490	-0.372415
O18	O	0.651495	1.295490	-0.122415
O19	O	0.901495	1.545490	0.127585
O20	O	1.151495	1.795490	0.377585
O21	O	0.350273	1.212326	-0.415338
O22	O	0.600273	1.462326	-0.165338
O23	O	0.850273	1.712326	0.084662
O24	O	1.100273	1.962326	0.334662
O25	O	0.452745	1.088327	-0.210192
O26	O	0.702745	1.338327	0.039808
O27	O	0.952745	1.588327	0.289808
O28	O	1.202745	1.838327	0.539808
O29	O	0.215151	1.008728	-0.318928
O30	O	0.465151	1.258728	-0.068928
O31	O	0.715151	1.508728	0.181072
O32	O	0.965151	1.758728	0.431072
O33	O	0.452706	1.207662	-0.329498
O34	O	0.702706	1.457662	-0.079498
O35	O	0.952706	1.707662	0.170502
O36	O	1.202706	1.957662	0.420502
O37	O	0.215120	1.099146	-0.409325
O38	O	0.465120	1.349146	-0.159325
O39	O	0.715120	1.599146	0.090675
O40	O	0.965120	1.849146	0.340675
O41	O	0.350343	1.002572	-0.205635
O42	O	0.600343	1.252572	0.044365
O43	O	0.850343	1.502572	0.294365
O44	O	1.100343	1.752572	0.544365
O45	O	0.350311	0.883296	-0.324937
O46	O	0.600311	1.133296	-0.074937
O47	O	0.850311	1.383296	0.175063
O48	O	1.100311	1.633296	0.425063
O49	O	0.452650	0.998012	-0.539193
O50	O	0.702650	1.248012	-0.289193
O51	O	0.952650	1.498012	-0.039193
O52	O	1.202650	1.748012	0.210807
O53	O	0.452690	0.878677	-0.419886
O54	O	0.702690	1.128677	-0.169886
O55	O	0.952690	1.378677	0.080114
O56	O	1.202690	1.628677	0.330114
O57	O	0.350241	1.093050	-0.534640
O58	O	0.600241	1.343050	-0.284640
O59	O	0.850241	1.593050	-0.034640
O60	O	1.100241	1.843050	0.215360
O61	O	0.587866	1.082230	-0.335507
O62	O	0.837866	1.332230	-0.085507
O63	O	1.087866	1.582230	0.164493
O64	O	1.337866	1.832230	0.414493
O65	O	0.587842	0.991856	-0.425900
O66	O	0.837842	1.241856	-0.175900
O67	O	1.087842	1.491856	0.074100
O68	O	1.337842	1.741856	0.324100
C69	C	0.618104	1.035692	-0.382065
C70	C	0.868104	1.285692	-0.132065
C71	C	1.118104	1.535692	0.117935
C72	C	1.368104	1.785692	0.367935
C73	C	0.710771	1.031568	-0.386218
C74	C	0.960771	1.281568	-0.136218
C75	C	1.210771	1.531568	0.113782
C76	C	1.460771	1.781568	0.363782
C77	C	0.401502	0.854283	-0.372412
C78	C	0.651502	1.104283	-0.122412
C79	C	0.901502	1.354283	0.127588
C80	C	1.151502	1.604283	0.377588
C81	C	0.401525	0.772484	-0.372429
C82	C	0.651525	1.022484	-0.122429
C83	C	0.901525	1.272484	0.127571
C84	C	1.151525	1.522484	0.377571
C85	C	0.401437	1.045538	-0.564365
C86	C	0.651437	1.295538	-0.314365
C87	C	0.901437	1.545538	-0.064365
C88	C	1.151437	1.795538	0.185635
C89	C	0.401413	1.045558	-0.646163
C90	C	0.651413	1.295558	-0.396163
C91	C	0.901413	1.545558	-0.146163
C92	C	1.151413	1.795558	0.103837
C93	C	0.880434	1.024042	-0.393815
C94	C	1.130434	1.274042	-0.143815
C95	C	1.380434	1.524042	0.106185
C96	C	1.630434	1.774042	0.356185
C97	C	0.921715	1.066965	-0.350973
C98	C	1.171715	1.316965	-0.100973
C99	C	1.421715	1.566965	0.149027
C100	C	1.671715	1.816965	0.399027
C101	C	1.016122	1.062778	-0.355200
C102	C	1.266122	1.312778	-0.105200
C103	C	1.516122	1.562778	0.144800
C104	C	1.766122	1.812778	0.394800
C105	C	0.786019	1.028229	-0.389589
C106	C	1.036019	1.278229	-0.139589
C107	C	1.286019	1.528229	0.110411
C108	C	1.536019	1.778229	0.360411
C109	C	1.184039	1.055320	-0.362730
C110	C	1.434039	1.305320	-0.112730
C111	C	1.684039	1.555320	0.137270
C112	C	1.934039	1.805320	0.387270
C113	C	1.091373	1.059442	-0.358568
C114	C	1.341373	1.309442	-0.108568
C115	C	1.591373	1.559442	0.141432
C116	C	1.841373	1.809442	0.391432
C117	C	0.401488	1.237443	-0.372419
C118	C	0.651488	1.487443	-0.122419
C119	C	0.901488	1.737443	0.127581
C120	C	1.151488	1.987443	0.377581
C121	C	0.401485	1.319242	-0.372420
C122	C	0.651485	1.569242	-0.122420
C123	C	0.901485	1.819242	0.127580
C124	C	1.151485	2.069242	0.377580
C125	C	0.348173	1.509865	-0.417117
C126	C	0.598173	1.759865	-0.167117
C127	C	0.848173	2.009865	0.082883
C128	C	1.098173	2.259865	0.332883
C129	C	0.348181	1.586723	-0.417120
C130	C	0.598181	1.836723	-0.167120
C131	C	0.848181	2.086723	0.082880
C132	C	1.098181	2.336723	0.332880
C133	C	0.454844	1.581855	-0.327730
C134	C	0.704844	1.831855	-0.077730
C135	C	0.954844	2.081855	0.172270
C136	C	1.204844	2.331855	0.422270
C137	C	0.454839	1.504998	-0.327731
C138	C	0.704839	1.754998	-0.077731
C139	C	0.954839	2.004998	0.172269
C140	C	1.204839	2.254998	0.422269
C141	C	0.401499	1.469005	-0.372423
C142	C	0.651499	1.719005	-0.122423
C143	C	0.901499	1.969005	0.127577
C144	C	1.151499	2.219005	0.377577
C145	C	0.401511	1.622721	-0.372425
C146	C	0.651511	1.872721	-0.122425
C147	C	0.901511	2.122721	0.127575
C148	C	1.151511	2.372721	0.377575
C149	C	0.401520	1.706054	-0.372429
C150	C	0.651520	1.956054	-0.122429
C151	C	0.901520	2.206054	0.127571
C152	C	1.151520	2.456054	0.377571
C153	C	0.401491	1.385667	-0.372421
C154	C	0.651491	1.635667	-0.122421
C155	C	0.901491	1.885667	0.127579
C156	C	1.151491	2.135667	0.377579
C157	C	0.348039	1.095063	-0.831986
C158	C	0.598039	1.345063	-0.581986
C159	C	0.848039	1.595063	-0.331986
C160	C	1.098039	1.845063	-0.081986
C161	C	0.348014	1.095073	-0.908843
C162	C	0.598014	1.345073	-0.658843
C163	C	0.848014	1.595073	-0.408843
C164	C	1.098014	1.845073	-0.158843
C165	C	0.454658	0.996110	-0.913573
C166	C	0.704658	1.246110	-0.663573
C167	C	0.954658	1.496110	-0.413573
C168	C	1.204658	1.746110	-0.163573
C169	C	0.454678	0.996097	-0.836717
C170	C	0.704678	1.246097	-0.586717
C171	C	0.954678	1.496097	-0.336717
C172	C	1.204678	1.746097	-0.086717
C173	C	0.401369	1.045578	-0.795925
C174	C	0.651369	1.295578	-0.545925
C175	C	0.901369	1.545578	-0.295925
C176	C	1.151369	1.795578	-0.045925
C177	C	0.401325	1.045601	-0.949639
C178	C	0.651325	1.295601	-0.699639
C179	C	0.901325	1.545601	-0.449639
C180	C	1.151325	1.795601	-0.199639
C181	C	0.401299	1.045611	-1.032972
C182	C	0.651299	1.295611	-0.782972
C183	C	0.901299	1.545611	-0.532972
C184	C	1.151299	1.795611	-0.282972
C185	C	0.401394	1.045567	-0.712587
C186	C	0.651394	1.295567	-0.462587
C187	C	0.901394	1.545567	-0.212587
C188	C	1.151394	1.795567	0.037413
C189	C	0.401492	1.045488	-0.181209
C190	C	0.651492	1.295488	0.068791
C191	C	0.901492	1.545488	0.318791
C192	C	1.151492	1.795488	0.568791
C193	C	0.401281	1.045621	-0.099401
C194	C	0.651281	1.295621	0.150599
C195	C	0.901281	1.545621	0.400599
C196	C	1.151281	1.795621	0.650599
H197	H	0.886156	1.106857	-0.311120
H198	H	1.136156	1.356857	-0.061120
H199	H	1.386156	1.606857	0.188880
H200	H	1.636156	1.856857	0.438880
H201	H	0.498062	0.955827	-0.946795
H202	H	0.748062	1.205827	-0.696795
H203	H	0.998062	1.455827	-0.446795
H204	H	1.248062	1.705827	-0.196795
N205	N	0.927526	0.971200	-0.446601
N206	N	1.177526	1.221200	-0.196601
N207	N	1.427526	1.471200	0.053399
N208	N	1.677526	1.721200	0.303399
H209	H	0.989268	0.975663	-0.442171
H210	H	1.239268	1.225663	-0.192171
H211	H	1.489268	1.475663	0.057829
H212	H	1.739268	1.725663	0.307829
H213	H	0.912428	0.919305	-0.434433
H214	H	1.162428	1.169305	-0.184433
H215	H	1.412428	1.419305	0.065567
H216	H	1.662428	1.669305	0.315567
H217	H	0.304740	1.480562	-0.453508
H218	H	0.554740	1.730562	-0.203508
H219	H	0.804740	1.980562	0.046492
H220	H	1.054740	2.230562	0.296492
H221	H	0.304758	1.619988	-0.453515
H222	H	0.554758	1.869988	-0.203515
H223	H	0.804758	2.119988	0.046485
H224	H	1.054758	2.369988	0.296485
H225	H	0.498105	0.955796	-0.807355
H226	H	0.748105	1.205796	-0.557355
H227	H	0.998105	1.455796	-0.307355
H228	H	1.248105	1.705796	-0.057355
N229	N	0.512366	1.620674	-0.279520
N230	N	0.762366	1.870674	-0.029520
N231	N	1.012366	2.120674	0.220480
N232	N	1.262366	2.370674	0.470480
H233	H	0.550995	1.650821	-0.311140
H234	H	0.800995	1.900821	-0.061140
H235	H	1.050995	2.150821	0.188860
H236	H	1.300995	2.400821	0.438860
H237	H	0.478432	1.654048	-0.243917
H238	H	0.728432	1.904048	0.006083
H239	H	0.978432	2.154048	0.256083
H240	H	1.228432	2.404048	0.506083
N241	N	0.512361	1.460921	-0.279526
N242	N	0.762361	1.710921	-0.029526
N243	N	1.012361	1.960921	0.220474
N244	N	1.262361	2.210921	0.470474
H245	H	0.546148	1.495384	-0.251210
H246	H	0.796148	1.745384	-0.001210
H247	H	1.046148	1.995384	0.248790
H248	H	1.296148	2.245384	0.498790
H249	H	0.478431	1.430562	-0.243963
H250	H	0.728431	1.680562	0.006037
H251	H	0.978431	1.930562	0.256037
H252	H	1.228431	2.180562	0.506037
H253	H	0.304629	1.135351	-0.798775
H254	H	0.554629	1.385351	-0.548775
H255	H	0.804629	1.635351	-0.298775
H256	H	1.054629	1.885351	-0.048775
H257	H	0.304586	1.135367	-0.938200
H258	H	0.554586	1.385367	-0.688200
H259	H	0.804586	1.635367	-0.438200
H260	H	1.054586	1.885367	-0.188200
