data_functionalizedCrystal
_audit_creation_method	'MofGen! by Chris Wilmer'
_symmetry_space_group_name_H-M	'P1'
_symmetry_Int_Tables_number	1
_symmetry_cell_setting	triclinic
loop_
_symmetry_equiv_pos_as_xyz
  x,y,z
_cell_length_a	18.215407
_cell_length_b	18.215406
_cell_length_c	18.215399
_cell_angle_alpha	90.015166
_cell_angle_beta	89.983140
_cell_angle_gamma	90.003068
loop_
_atom_site_label
_atom_site_type_symbol
_atom_site_fract_x
_atom_site_fract_y
_atom_site_fract_z
Zn1	Zn	-1.125195	-0.293068	0.416123
Zn2	Zn	-1.125155	-0.416139	0.293084
Zn3	Zn	-1.002128	-0.293083	0.293077
Zn4	Zn	-1.002145	-0.416089	0.416115
O5	O	-1.063656	-0.354594	0.354600
O6	O	-1.228174	-0.309408	0.399808
O7	O	-1.108811	-0.399842	0.190099
O8	O	-1.018462	-0.190096	0.309399
O9	O	-1.228145	-0.399828	0.309412
O10	O	-1.108879	-0.190085	0.399801
O11	O	-1.018424	-0.309433	0.190093
O12	O	-0.899146	-0.309385	0.309392
O13	O	-1.018492	-0.399742	0.519101
O14	O	-0.899159	-0.399757	0.399788
O15	O	-1.108896	-0.309359	0.519106
O16	O	-1.108828	-0.519117	0.309404
O17	O	-1.018454	-0.519080	0.399795
C18	C	-0.872450	-0.354567	0.354589
C19	C	-0.790651	-0.354574	0.354601
C20	C	-1.063659	-0.545801	0.354616
C21	C	-1.063727	-0.627600	0.354647
C22	C	-0.525619	-0.401716	0.401605
C23	C	-0.602478	-0.401712	0.401601
C24	C	-0.602434	-0.307466	0.307608
C25	C	-0.525576	-0.307475	0.307609
C26	C	-0.487171	-0.354599	0.354611
C27	C	-0.640887	-0.354586	0.354607
C28	C	-0.724221	-0.354580	0.354603
C29	C	-0.403832	-0.354605	0.354615
C30	C	-1.063701	-0.354544	0.546553
C31	C	-1.063720	-0.354522	0.628352
C32	C	-0.255609	-0.354616	0.354612
C33	C	-0.337408	-0.354611	0.354617
C34	C	-1.063673	-0.162642	0.354600
C35	C	-1.063681	-0.080843	0.354600
C36	C	-1.016624	0.107347	0.307554
C37	C	-1.016630	0.184206	0.307563
C38	C	-1.110786	0.184206	0.401698
C39	C	-1.110776	0.107348	0.401692
C40	C	-1.063696	0.068921	0.354616
C41	C	-1.063712	0.222637	0.354631
C42	C	-1.063719	0.305971	0.354641
C43	C	-1.063687	-0.014418	0.354607
C44	C	-1.063654	-0.354592	0.163393
C45	C	-1.063777	-0.354406	0.081595
C46	C	-1.110810	-0.307416	0.816550
C47	C	-1.110819	-0.307394	0.893409
C48	C	-1.016681	-0.401515	0.893391
C49	C	-1.016669	-0.401532	0.816534
C50	C	-1.063738	-0.354483	0.778115
C51	C	-1.063759	-0.354445	0.931831
C52	C	-1.063768	-0.354422	1.015165
C53	C	-1.063728	-0.354505	0.694776
H54	H	-0.494352	-0.440088	0.439877
H55	H	-0.978299	0.215490	0.269242
H56	H	-0.633779	-0.440080	0.439867
O57	O	-0.643855	-0.256634	0.256921
H58	H	-0.703759	-0.264536	0.264821
H59	H	-0.978361	-0.439821	0.924682
O60	O	-0.965875	-0.452279	0.775071
H61	H	-0.933147	-0.484991	0.814697
O62	O	-0.484099	-0.256651	0.256923
H63	H	-0.523715	-0.223873	0.224248
O64	O	-1.161570	0.225657	0.452461
H65	H	-1.194297	0.186022	0.485189
O66	O	-0.965840	0.065896	0.256790
H67	H	-0.933104	0.105532	0.224072
H68	H	-1.149107	0.076061	0.440021
H69	H	-1.149134	-0.269104	0.785271
H70	H	-1.149149	-0.269066	0.924699
