data_functionalizedCrystal
_audit_creation_method	'MofGen! by Chris Wilmer'
_symmetry_space_group_name_H-M	'P1'
_symmetry_Int_Tables_number	1
_symmetry_cell_setting	triclinic
loop_
_symmetry_equiv_pos_as_xyz
  x,y,z
_cell_length_a	12.759401
_cell_length_b	12.827892
_cell_length_c	12.759393
_cell_angle_alpha	90.029782
_cell_angle_beta	90.020938
_cell_angle_gamma	90.016917
loop_
_atom_site_label
_atom_site_type_symbol
_atom_site_fract_x
_atom_site_fract_y
_atom_site_fract_z
Zn1	Zn	1.606261	-0.415940	0.594025
Zn2	Zn	1.939595	-0.082607	0.927359
Zn3	Zn	2.272928	0.250727	1.260692
Zn4	Zn	1.606150	-0.590717	0.418348
Zn5	Zn	1.939484	-0.257384	0.751681
Zn6	Zn	2.272817	0.075949	1.085014
Zn7	Zn	1.430560	-0.415996	0.418361
Zn8	Zn	1.763893	-0.082662	0.751694
Zn9	Zn	2.097227	0.250671	1.085027
Zn10	Zn	1.430550	-0.590644	0.593985
Zn11	Zn	1.763883	-0.257311	0.927318
Zn12	Zn	2.097216	0.076022	1.260652
O13	O	1.518380	-0.503324	0.506180
O14	O	1.851714	-0.169991	0.839513
O15	O	2.185047	0.163342	1.172846
O16	O	1.753268	-0.439132	0.570733
O17	O	2.086601	-0.105798	0.904066
O18	O	2.419934	0.227535	1.237400
O19	O	1.582816	-0.567594	0.271328
O20	O	1.916149	-0.234261	0.604662
O21	O	2.249482	0.099073	0.937995
O22	O	1.453918	-0.269752	0.441685
O23	O	1.787251	0.063581	0.775018
O24	O	2.120585	0.396915	1.108352
O25	O	1.753186	-0.567540	0.441663
O26	O	2.086519	-0.234207	0.774997
O27	O	2.419853	0.099127	1.108330
O28	O	1.583005	-0.269711	0.570745
O29	O	1.916338	0.063622	0.904079
O30	O	2.249672	0.396955	1.237412
O31	O	1.453810	-0.439227	0.271338
O32	O	1.787144	-0.105893	0.604671
O33	O	2.120477	0.227440	0.938004
O34	O	1.283538	-0.439156	0.441646
O35	O	1.616871	-0.105822	0.774979
O36	O	1.950204	0.227511	1.108313
O37	O	1.453900	-0.567416	0.741011
O38	O	1.787234	-0.234082	1.074345
O39	O	2.120567	0.099251	1.407678
O40	O	1.283530	-0.567469	0.570676
O41	O	1.616863	-0.234136	0.904010
O42	O	1.950197	0.099197	1.237343
O43	O	1.582995	-0.439061	0.741041
O44	O	1.916328	-0.105728	1.074374
O45	O	2.249662	0.227606	1.407708
O46	O	1.582806	-0.736944	0.441624
O47	O	1.916139	-0.403610	0.774957
O48	O	2.249472	-0.070277	1.108291
O49	O	1.453793	-0.736890	0.570664
O50	O	1.787126	-0.403557	0.903997
O51	O	2.120460	-0.070223	1.237331
C52	C	1.245413	-0.503312	0.506159
C53	C	1.578746	-0.169978	0.839492
C54	C	1.912080	0.163355	1.172825
C55	C	1.128636	-0.503331	0.506175
C56	C	1.461970	-0.169998	0.839508
C57	C	1.795303	0.163335	1.172841
C58	C	1.073798	-0.570246	0.573255
C59	C	1.407131	-0.236912	0.906588
C60	C	1.740465	0.096421	1.239922
C61	C	0.964074	-0.570250	0.573276
C62	C	1.297407	-0.236916	0.906609
C63	C	1.630741	0.096417	1.239943
C64	C	0.964036	-0.436422	0.439127
C65	C	1.297370	-0.103088	0.772460
C66	C	1.630703	0.230245	1.105794
C67	C	1.073758	-0.436413	0.439112
C68	C	1.407092	-0.103080	0.772446
C69	C	1.740425	0.230253	1.105779
C70	C	1.518315	-0.774834	0.506161
C71	C	1.851648	-0.441501	0.839494
C72	C	2.184981	-0.108168	1.172828
C73	C	1.518383	-0.890987	0.506188
C74	C	1.851716	-0.557654	0.839522
C75	C	2.185049	-0.224321	1.172855
C76	C	1.582298	-0.942764	0.442406
C77	C	1.915631	-0.609431	0.775739
C78	C	2.248965	-0.276097	1.109073
C79	C	1.582370	-1.062814	0.442433
C80	C	1.915703	-0.729481	0.775766
C81	C	2.249037	-0.396148	1.109099
C82	C	1.792414	-0.503338	0.506201
C83	C	2.125747	-0.170005	0.839534
C84	C	2.459080	0.163329	1.172868
C85	C	1.909190	-0.503344	0.506210
C86	C	2.242524	-0.170010	0.839544
C87	C	2.575857	0.163323	1.172877
C88	C	1.518459	-0.503224	0.780213
C89	C	1.851792	-0.169891	1.113546
C90	C	2.185126	0.163443	1.446880
C91	C	1.518492	-0.503181	0.896990
C92	C	1.851826	-0.169848	1.230323
C93	C	2.185159	0.163485	1.563656
C94	C	1.518475	-0.230754	0.506221
C95	C	1.851808	0.102579	0.839555
C96	C	2.185142	0.435913	1.172888
C97	C	1.518515	-0.114601	0.506239
C98	C	1.851849	0.218732	0.839572
C99	C	2.185182	0.552066	1.172906
C100	C	1.518363	-0.503349	0.233212
C101	C	1.851696	-0.170015	0.566546
C102	C	2.185029	0.163318	0.899879
C103	C	1.518533	-0.503097	0.116436
C104	C	1.851866	-0.169764	0.449769
C105	C	2.185199	0.163569	0.783103
C106	C	1.585717	-0.436336	0.951869
C107	C	1.919050	-0.103003	1.285202
C108	C	2.252384	0.230330	1.618536
C109	C	1.585735	-0.436291	1.061593
C110	C	1.919068	-0.102958	1.394926
C111	C	2.252401	0.230375	1.728260
C112	C	1.451301	-0.569945	1.061549
C113	C	1.784634	-0.236612	1.394883
C114	C	2.117967	0.096722	1.728216
C115	C	1.451278	-0.569984	0.951827
C116	C	1.784612	-0.236651	1.285160
C117	C	2.117945	0.096683	1.618494
H118	H	1.118409	-0.381917	0.384487
H119	H	1.451742	-0.048583	0.717820
H120	H	1.785076	0.284750	1.051154
H121	H	1.636970	-0.898218	0.387783
H122	H	1.970304	-0.564884	0.721117
H123	H	2.303637	-0.231551	1.054450
H124	H	1.396580	-0.624336	1.106211
H125	H	1.729913	-0.291002	1.439545
H126	H	2.063246	0.042331	1.772878
Cl127	Cl	0.895039	-0.352303	0.354822
Cl128	Cl	1.228373	-0.018970	0.688155
Cl129	Cl	1.561706	0.314363	1.021489
H130	H	1.118476	-0.624732	0.627864
H131	H	1.451810	-0.291399	0.961198
H132	H	1.785143	0.041934	1.294531
H133	H	1.637087	-1.107341	0.387824
H134	H	1.970421	-0.774008	0.721157
H135	H	2.303754	-0.440674	1.054490
Cl136	Cl	1.670210	-0.352352	0.882934
Cl137	Cl	2.003544	-0.019018	1.216268
Cl138	Cl	2.336877	0.314315	1.549601
H139	H	1.640474	-0.381858	1.106271
H140	H	1.973807	-0.048524	1.439604
H141	H	2.307141	0.284809	1.772937
H142	H	1.396529	-0.624416	0.907143
H143	H	1.729862	-0.291083	1.240477
H144	H	2.063195	0.042250	1.573810
H145	H	1.463788	-1.070082	0.560844
H146	H	1.797121	-0.736749	0.894178
H147	H	2.130454	-0.403415	1.227511
H148	H	0.919429	-0.624737	0.627901
H149	H	1.252763	-0.291404	0.961234
H150	H	1.586096	0.041930	1.294568
Cl151	Cl	1.433982	-0.959758	0.590537
Cl152	Cl	1.767315	-0.626425	0.923870
Cl153	Cl	2.100649	-0.293092	1.257203
