data_functionalizedCrystal
_audit_creation_method	'MofGen! by Chris Wilmer'
_symmetry_space_group_name_H-M	'P1'
_symmetry_Int_Tables_number	1
_symmetry_cell_setting	triclinic
loop_
_symmetry_equiv_pos_as_xyz
  x,y,z
_cell_length_a	16.959455
_cell_length_b	11.169416
_cell_length_c	11.169409
_cell_angle_alpha	90.030874
_cell_angle_beta	89.977953
_cell_angle_gamma	89.992713
loop_
_atom_site_label
_atom_site_type_symbol
_atom_site_fract_x
_atom_site_fract_y
_atom_site_fract_z
Zn1	Zn	1.208498	0.477808	-0.678626
Zn2	Zn	1.208425	0.678548	-0.477948
Zn3	Zn	1.076308	0.477867	-0.477953
Zn4	Zn	1.076313	0.678437	-0.678585
O5	O	1.142386	0.578165	-0.578278
O6	O	1.319099	0.504458	-0.652021
O7	O	1.190867	0.651999	-0.309999
O8	O	1.093872	0.309909	-0.504591
O9	O	1.319045	0.651941	-0.504584
O10	O	1.190991	0.309866	-0.652025
O11	O	1.093801	0.504559	-0.310002
O12	O	0.965698	0.504451	-0.504552
O13	O	1.093880	0.651751	-0.846540
O14	O	0.965702	0.651809	-0.651956
O15	O	1.190996	0.504350	-0.846570
O16	O	1.190871	0.846483	-0.504544
O17	O	1.093810	0.846401	-0.651951
C18	C	1.142355	0.889990	-0.578269
C19	C	1.142413	1.023390	-0.578305
C20	C	0.937020	0.578125	-0.578250
C21	C	0.849163	0.578137	-0.578267
C22	C	1.142447	0.578032	-0.891321
C23	C	1.142472	0.577975	-1.024721
C24	C	0.477661	0.501373	-0.501685
C25	C	0.477714	0.655056	-0.654940
C26	C	0.560260	0.655039	-0.654932
C27	C	0.601510	0.578189	-0.578299
C28	C	0.560215	0.501356	-0.501673
C29	C	0.601561	0.731878	-0.731548
C30	C	0.684112	0.731865	-0.731543
C31	C	0.725364	0.655008	-0.654915
C32	C	0.684064	0.578172	-0.578287
C33	C	0.725314	0.501322	-0.501653
C34	C	0.684015	0.424478	-0.425030
C35	C	0.601467	0.424499	-0.425045
C36	C	0.807913	0.654987	-0.654901
C37	C	0.807868	0.501305	-0.501641
C38	C	1.348554	0.578206	-0.578306
C39	C	1.436411	0.578223	-0.578318
C40	C	1.142439	0.265123	-0.578313
C41	C	1.142461	0.131723	-0.578329
C42	C	1.142371	0.578211	-0.266453
C43	C	1.142498	0.577930	-0.133054
H44	H	0.841448	0.438716	-0.439243
C45	C	0.556037	0.339998	-0.340753
H46	H	0.500967	0.351029	-0.351725
H47	H	0.569563	0.259370	-0.358437
H48	H	0.569544	0.357487	-0.260082
C49	C	0.729392	0.339943	-0.340739
H50	H	0.692978	0.294183	-0.295103
H51	H	0.761613	0.287706	-0.386738
H52	H	0.761574	0.385798	-0.288359
C53	C	0.432238	0.416855	-0.417403
H54	H	0.377166	0.427871	-0.428377
H55	H	0.445775	0.336234	-0.435096
H56	H	0.445740	0.434338	-0.336729
H57	H	0.444123	0.717630	-0.717324
C58	C	0.556186	0.816404	-0.815837
H59	H	0.501109	0.805397	-0.804879
H60	H	0.569704	0.897023	-0.798137
H61	H	0.569742	0.798922	-0.896507
H62	H	0.717731	0.794435	-0.793935
C63	C	0.853342	0.739503	-0.739170
H64	H	0.908413	0.728492	-0.728185
H65	H	0.839837	0.722043	-0.819842
H66	H	0.839810	0.820129	-0.721457
