data_functionalizedCrystal
_audit_creation_method	'MofGen! by Chris Wilmer'
_symmetry_space_group_name_H-M	'P1'
_symmetry_Int_Tables_number	1
_symmetry_cell_setting	triclinic
loop_
_symmetry_equiv_pos_as_xyz
  x,y,z
_cell_length_a	13.185407
_cell_length_b	11.792254
_cell_length_c	11.804673
_cell_angle_alpha	103.223107
_cell_angle_beta	106.076021
_cell_angle_gamma	68.086041
loop_
_atom_site_label
_atom_site_type_symbol
_atom_site_fract_x
_atom_site_fract_y
_atom_site_fract_z
O1	O	1.464927	-0.280710	0.098986
O2	O	1.148116	-0.165873	0.098997
O3	O	1.314201	-0.390858	0.098982
O4	O	1.298842	-0.055725	0.099000
O5	O	1.274736	-0.419730	-0.099066
O6	O	1.108652	-0.194745	-0.099051
O7	O	1.425463	-0.309582	-0.099062
Cu8	Cu	1.263454	-0.254800	-0.117140
Cu9	Cu	1.310125	-0.220655	0.117075
O10	O	1.259378	-0.084597	-0.099048
C11	C	1.087825	-0.168667	-0.000026
C12	C	0.966972	-0.133991	-0.000022
C13	C	0.675742	-0.464926	-0.000044
C14	C	0.789288	-0.497511	-0.000056
C15	C	0.833715	-0.406634	-0.000047
C16	C	0.764584	-0.283166	-0.000027
C17	C	0.651024	-0.250580	-0.000025
C18	C	0.808997	-0.192287	-0.000028
C19	C	0.739866	-0.068820	-0.000009
C20	C	0.626319	-0.036239	-0.000006
C21	C	0.581892	-0.127116	-0.000014
C22	C	0.922557	-0.224874	-0.000030
C23	C	0.897839	-0.010528	-0.000011
C24	C	0.784293	0.022057	0.000000
C25	C	1.293501	-0.447283	-0.000041
C26	C	1.290605	-0.572392	-0.000040
C27	C	1.288252	-0.673994	-0.000036
C28	C	1.285312	-0.801462	-0.000025
C29	C	1.485755	-0.306788	-0.000037
C30	C	1.606609	-0.341462	-0.000033
C31	C	1.280078	-0.028172	-0.000022
C32	C	1.282976	0.096938	-0.000015
N33	N	1.230636	-0.278818	-0.281874
C34	C	1.151794	-0.336500	-0.344204
C35	C	1.126947	-0.354668	-0.468861
C36	C	1.180946	-0.315165	-0.531200
C37	C	1.259796	-0.257490	-0.468870
C38	C	1.284639	-0.239312	-0.344201
C39	C	1.313792	-0.217977	-0.531196
C40	C	1.392641	-0.160302	-0.468866
C41	C	1.417480	-0.142127	-0.344209
C42	C	1.363481	-0.181630	-0.281871
C43	C	1.288949	-0.236155	-0.655865
C44	C	1.421794	-0.138967	-0.655861
C45	C	1.446640	-0.120799	-0.531205
N46	N	1.342952	-0.196649	0.281809
H47	H	0.926170	-0.433172	-0.000056
H48	H	1.383712	-0.166847	-0.180365
H49	H	0.727991	0.122585	0.000015
H50	H	1.510841	-0.073838	-0.480438
F51	F	0.862852	-0.628909	-0.000081
F52	F	0.461045	-0.092440	0.000013
H53	H	0.639551	-0.538909	-0.000085
H54	H	1.224748	-0.283113	-0.706602
F55	F	0.996118	-0.356273	-0.000050
F56	F	1.479266	-0.096918	-0.722200
F57	F	1.501369	-0.080704	-0.277876
F58	F	1.154501	-0.334504	-0.663871
F59	F	0.552744	0.095164	0.000002
F60	F	0.945114	0.086196	-0.000010
H61	H	1.062748	-0.401626	-0.519601
H62	H	1.107830	-0.368649	-0.293437
