data_functionalizedCrystal
_audit_creation_method	'MofGen! by Chris Wilmer'
_symmetry_space_group_name_H-M	'P1'
_symmetry_Int_Tables_number	1
_symmetry_cell_setting	triclinic
loop_
_symmetry_equiv_pos_as_xyz
  x,y,z
_cell_length_a	16.120530
_cell_length_b	16.120484
_cell_length_c	21.395355
_cell_angle_alpha	87.119279
_cell_angle_beta	92.920957
_cell_angle_gamma	90.167327
loop_
_atom_site_label
_atom_site_type_symbol
_atom_site_fract_x
_atom_site_fract_y
_atom_site_fract_z
Zn1	Zn	1.254514	-0.395720	0.417083
Zn2	Zn	1.587847	-0.062386	0.750416
Zn3	Zn	1.921180	0.270947	1.083750
Zn4	Zn	1.247347	-0.534752	0.317329
Zn5	Zn	1.580681	-0.201419	0.650662
Zn6	Zn	1.914014	0.131914	0.983996
Zn7	Zn	1.115443	-0.388657	0.306758
Zn8	Zn	1.448776	-0.055323	0.640091
Zn9	Zn	1.782109	0.278010	0.973424
Zn10	Zn	1.108366	-0.527673	0.416510
Zn11	Zn	1.441699	-0.194339	0.749843
Zn12	Zn	1.775033	0.138994	1.083176
O13	O	1.181417	-0.461700	0.364420
O14	O	1.514751	-0.128367	0.697753
O15	O	1.848084	0.204966	1.031087
O16	O	1.369929	-0.420081	0.408515
O17	O	1.703262	-0.086748	0.741848
O18	O	2.036596	0.246585	1.075181
O19	O	1.229812	-0.515380	0.228248
O20	O	1.563146	-0.182046	0.561581
O21	O	1.896479	0.151287	0.894914
O22	O	1.139852	-0.273229	0.317208
O23	O	1.473185	0.060104	0.650542
O24	O	1.806518	0.393437	0.983875
O25	O	1.364664	-0.522228	0.335226
O26	O	1.697997	-0.188895	0.668559
O27	O	2.031331	0.144439	1.001892
O28	O	1.242027	-0.278418	0.398264
O29	O	1.575360	0.054915	0.731597
O30	O	1.908693	0.388248	1.064931
O31	O	1.132903	-0.408044	0.220481
O32	O	1.466236	-0.074711	0.553814
O33	O	1.799569	0.258623	0.887148
O34	O	0.998138	-0.401179	0.316652
O35	O	1.331471	-0.067845	0.649986
O36	O	1.664805	0.265488	0.983319
O37	O	1.127790	-0.510162	0.504265
O38	O	1.461124	-0.176828	0.837598
O39	O	1.794457	0.156505	1.170932
O40	O	0.992939	-0.503313	0.397287
O41	O	1.326272	-0.169980	0.730620
O42	O	1.659605	0.163354	1.063953
O43	O	1.235164	-0.413216	0.504686
O44	O	1.568498	-0.079883	0.838019
O45	O	1.901831	0.253450	1.171353
O46	O	1.222950	-0.650177	0.334670
O47	O	1.556284	-0.316844	0.668003
O48	O	1.889617	0.016489	1.001336
O49	O	1.120841	-0.644976	0.407537
O50	O	1.454175	-0.311643	0.740871
O51	O	1.787508	0.021691	1.074204
C52	C	0.965366	-0.450712	0.355761
C53	C	1.298699	-0.117379	0.689094
C54	C	1.632033	0.215955	1.022427
C55	C	0.872937	-0.446031	0.352072
C56	C	1.206270	-0.112698	0.685405
C57	C	1.539604	0.220636	1.018738
C58	C	0.703709	-0.437466	0.345342
C59	C	1.037043	-0.104132	0.678675
C60	C	1.370376	0.229201	1.012008
C61	C	0.659963	-0.485996	0.383546
C62	C	0.993296	-0.152663	0.716879
C63	C	1.326630	0.180670	1.050213
C64	C	0.565799	-0.481230	0.379801
C65	C	0.899132	-0.147897	0.713135
C66	C	1.232465	0.185436	1.046468
C67	C	0.797882	-0.442230	0.349085
C68	C	1.131215	-0.108897	0.682419
C69	C	1.464549	0.224436	1.015752
C70	C	1.170373	-0.677750	0.372203
C71	C	1.503706	-0.344417	0.705536
C72	C	1.837039	-0.011083	1.038870
C73	C	1.165724	-0.770181	0.375557
C74	C	1.499057	-0.436847	0.708890
C75	C	1.832391	-0.103514	1.042223
C76	C	1.157241	-0.939413	0.381693
C77	C	1.490574	-0.606080	0.715026
C78	C	1.823908	-0.272747	1.048360
C79	C	1.205743	-0.983154	0.347163
C80	C	1.539076	-0.649821	0.680496
C81	C	1.872409	-0.316488	1.013830
C82	C	1.201023	-1.077321	0.350577
C83	C	1.534356	-0.743988	0.683911
C84	C	1.867690	-0.410655	1.017244
C85	C	1.161960	-0.845238	0.378280
C86	C	1.495293	-0.511904	0.711613
C87	C	1.828627	-0.178571	1.044946
C88	C	1.398313	-0.472732	0.373113
C89	C	1.731646	-0.139399	0.706447
C90	C	2.064979	0.193934	1.039780
C91	C	1.490740	-0.477433	0.376818
C92	C	1.824074	-0.144100	0.710151
C93	C	2.157407	0.189233	1.043485
C94	C	1.181487	-0.461687	0.527845
C95	C	1.514821	-0.128354	0.861179
C96	C	1.848154	0.204980	1.194512
C97	C	1.181517	-0.461681	0.597488
C98	C	1.514850	-0.128348	0.930821
C99	C	1.848184	0.204985	1.264154
C100	C	1.192528	-0.244808	0.356621
C101	C	1.525861	0.088525	0.689954
C102	C	1.859195	0.421858	1.023288
C103	C	1.197262	-0.152382	0.353297
C104	C	1.530596	0.180951	0.686631
C105	C	1.863929	0.514285	1.019964
C106	C	1.181399	-0.461656	0.201630
C107	C	1.514732	-0.128323	0.534963
C108	C	1.848065	0.205011	0.868297
C109	C	1.181542	-0.461436	0.131986
C110	C	1.514875	-0.128102	0.465319
C111	C	1.848209	0.205231	0.798653
C112	C	1.237425	-0.411200	0.630421
C113	C	1.570758	-0.077866	0.963754
C114	C	1.904091	0.255467	1.297087
C115	C	1.237425	-0.411164	0.695855
C116	C	1.570759	-0.077830	1.029188
C117	C	1.904092	0.255503	1.362522
C118	C	1.181526	-0.461625	0.728354
C119	C	1.514860	-0.128292	1.061687
C120	C	1.848193	0.205042	1.395021
C121	C	1.125608	-0.512110	0.695413
C122	C	1.458942	-0.178777	1.028746
C123	C	1.792275	0.154557	1.362079
C124	C	1.125604	-0.512138	0.629979
C125	C	1.458937	-0.178805	0.963313
C126	C	1.792270	0.154529	1.296646
C127	C	1.171133	-0.536165	0.834464
C128	C	1.504466	-0.202832	1.167797
C129	C	1.837799	0.130502	1.501130
C130	C	1.171143	-0.536139	0.899896
C131	C	1.504477	-0.202805	1.233229
C132	C	1.837810	0.130528	1.566563
C133	C	1.181536	-0.461537	0.930172
C134	C	1.514869	-0.128204	1.263505
C135	C	1.848203	0.205129	1.596839
C136	C	1.191936	-0.386961	0.895008
C137	C	1.525269	-0.053628	1.228342
C138	C	1.858603	0.279706	1.561675
C139	C	1.191931	-0.386989	0.829575
C140	C	1.525265	-0.053656	1.162908
C141	C	1.858598	0.279677	1.496242
C142	C	1.181525	-0.461600	0.799306
C143	C	1.514858	-0.128266	1.132639
C144	C	1.848192	0.205067	1.465972
C145	C	1.237447	-0.411012	1.034056
C146	C	1.570781	-0.077679	1.367390
C147	C	1.904114	0.255654	1.700723
C148	C	1.237442	-0.410975	1.099491
C149	C	1.570776	-0.077642	1.432825
C150	C	1.904109	0.255692	1.766158
C151	C	1.125629	-0.511929	1.099048
C152	C	1.458963	-0.178595	1.432382
C153	C	1.792296	0.154738	1.765715
C154	C	1.125630	-0.511959	1.033614
C155	C	1.458964	-0.178625	1.366948
C156	C	1.792297	0.154708	1.700281
C157	C	1.181544	-0.461502	1.001122
C158	C	1.514877	-0.128168	1.334456
C159	C	1.848211	0.205165	1.667789
H160	H	0.670444	-0.392342	0.309824
H161	H	1.003778	-0.059009	0.643157
H162	H	1.337111	0.274325	0.976490
Cl163	Cl	1.087661	-0.990782	0.431288
Cl164	Cl	1.420994	-0.657449	0.764622
Cl165	Cl	1.754328	-0.324115	1.097955
H166	H	0.693230	-0.531123	0.419067
H167	H	1.026563	-0.197790	0.752401
H168	H	1.359897	0.135544	1.085734
H169	H	1.250810	-0.949881	0.315037
H170	H	1.584144	-0.616547	0.648370
H171	H	1.917477	-0.283214	0.981703
H172	H	1.282953	-0.370113	0.603970
H173	H	1.616286	-0.036779	0.937303
H174	H	1.949620	0.296554	1.270637
H175	H	1.282950	-0.370051	0.722674
H176	H	1.616284	-0.036717	1.056008
H177	H	1.949617	0.296616	1.389341
H178	H	1.200397	-0.326267	0.800947
H179	H	1.533730	0.007067	1.134281
H180	H	1.867064	0.340400	1.467614
H181	H	1.200400	-0.326214	0.919657
H182	H	1.533734	0.007120	1.252991
H183	H	1.867067	0.340453	1.586324
Cl184	Cl	1.307733	-0.347578	0.993206
Cl185	Cl	1.641066	-0.014245	1.326540
Cl186	Cl	1.974399	0.319089	1.659873
H187	H	1.282968	-0.369862	1.126304
H188	H	1.616301	-0.036528	1.459638
H189	H	1.949635	0.296805	1.792971
Cl190	Cl	1.055348	-0.575359	1.139898
Cl191	Cl	1.388682	-0.242025	1.473231
Cl192	Cl	1.722015	0.091308	1.806564
H193	H	1.080109	-0.553072	1.006800
H194	H	1.413442	-0.219738	1.340133
H195	H	1.746776	0.113595	1.673467
Cl196	Cl	1.158077	-0.629891	0.944095
Cl197	Cl	1.491410	-0.296558	1.277429
Cl198	Cl	1.824744	0.036776	1.610762
Cl199	Cl	1.158091	-0.629963	0.796410
Cl200	Cl	1.491425	-0.296629	1.129744
Cl201	Cl	1.824758	0.036704	1.463077
Cl202	Cl	1.055332	-0.575544	0.736268
Cl203	Cl	1.388666	-0.242210	1.069601
Cl204	Cl	1.721999	0.091123	1.402934
Cl205	Cl	1.055314	-0.575607	0.588575
Cl206	Cl	1.388648	-0.242274	0.921909
Cl207	Cl	1.721981	0.091060	1.255242
