data_functionalizedCrystal
_audit_creation_method	'MofGen! by Chris Wilmer'
_symmetry_space_group_name_H-M	'P1'
_symmetry_Int_Tables_number	1
_symmetry_cell_setting	triclinic
loop_
_symmetry_equiv_pos_as_xyz
  x,y,z
_cell_length_a	17.699099
_cell_length_b	16.109301
_cell_length_c	15.186229
_cell_angle_alpha	90.005167
_cell_angle_beta	89.997239
_cell_angle_gamma	96.624584
loop_
_atom_site_label
_atom_site_type_symbol
_atom_site_fract_x
_atom_site_fract_y
_atom_site_fract_z
O1	O	1.004217	-0.105198	-0.073219
O2	O	1.337551	0.228135	0.260114
O3	O	1.670884	0.561469	0.593448
O4	O	0.783860	-0.118863	-0.073224
O5	O	1.117193	0.214470	0.260110
O6	O	1.450527	0.547803	0.593443
O7	O	0.900092	0.009010	-0.073212
O8	O	1.233426	0.342344	0.260121
O9	O	1.566759	0.675677	0.593454
O10	O	0.887985	-0.233072	-0.073230
O11	O	1.221319	0.100262	0.260103
O12	O	1.554652	0.433595	0.593436
O13	O	0.900084	0.009012	0.073245
O14	O	1.233418	0.342346	0.406578
O15	O	1.566751	0.675679	0.739912
O16	O	0.783852	-0.118861	0.073233
O17	O	1.117186	0.214472	0.406567
O18	O	1.450519	0.547805	0.739900
O19	O	1.004210	-0.105196	0.073238
O20	O	1.337543	0.228137	0.406572
O21	O	1.670876	0.561471	0.739905
Zn22	Zn	0.894030	-0.112029	0.096489
Zn23	Zn	1.227363	0.221305	0.429822
Zn24	Zn	1.560696	0.554638	0.763156
Zn25	Zn	0.894040	-0.112031	-0.096475
Zn26	Zn	1.227373	0.221302	0.236859
Zn27	Zn	1.560707	0.554636	0.570192
O28	O	0.887978	-0.233070	0.073227
O29	O	1.221311	0.100264	0.406560
O30	O	1.554644	0.433597	0.739893
C31	C	0.755659	-0.118371	0.000004
C32	C	1.088992	0.214963	0.333338
C33	C	1.422325	0.548296	0.666671
C34	C	0.671639	-0.116895	0.000003
C35	C	1.004973	0.216438	0.333336
C36	C	1.338306	0.549772	0.666669
C37	C	1.032411	-0.105689	0.000008
C38	C	1.365744	0.227644	0.333342
C39	C	1.699078	0.560978	0.666675
C40	C	1.116431	-0.107164	0.000004
C41	C	1.449764	0.226169	0.333337
C42	C	1.783097	0.559502	0.666671
C43	C	1.155903	-0.107860	-0.079831
C44	C	1.489236	0.225474	0.253503
C45	C	1.822569	0.558807	0.586836
C46	C	1.234849	-0.109239	-0.079832
C47	C	1.568182	0.224094	0.253501
C48	C	1.901516	0.557428	0.586835
C49	C	1.274321	-0.109929	0.000003
C50	C	1.607654	0.223404	0.333336
C51	C	1.940987	0.556737	0.666669
C52	C	1.234843	-0.109232	0.079844
C53	C	1.568177	0.224102	0.413177
C54	C	1.901510	0.557435	0.746511
C55	C	1.155899	-0.107846	0.079844
C56	C	1.489233	0.225487	0.413177
C57	C	1.822566	0.558821	0.746511
C58	C	1.553216	-0.114818	0.079845
C59	C	1.886549	0.218516	0.413178
C60	C	2.219882	0.551849	0.746512
C61	C	1.632165	-0.116206	0.079839
C62	C	1.965498	0.217128	0.413172
C63	C	2.298831	0.550461	0.746505
C64	C	1.632165	-0.116211	-0.079831
C65	C	1.965499	0.217123	0.253502
C66	C	2.298832	0.550456	0.586836
C67	C	1.553221	-0.114825	-0.079831
C68	C	1.886555	0.218508	0.253502
C69	C	2.219888	0.551841	0.586836
C70	C	1.513751	-0.114123	0.000010
C71	C	1.847085	0.219210	0.333343
C72	C	2.180418	0.552544	0.666676
C73	C	1.428149	-0.112626	0.000010
C74	C	1.761482	0.220708	0.333343
C75	C	2.094816	0.554041	0.666677
C76	C	1.359921	-0.111433	0.000004
C77	C	1.693254	0.221901	0.333337
C78	C	2.026587	0.555234	0.666670
C79	C	0.899598	0.039985	0.000017
C80	C	1.232931	0.373319	0.333350
C81	C	1.566265	0.706652	0.666683
C82	C	0.898128	0.132278	0.000018
C83	C	1.231461	0.465612	0.333351
C84	C	1.564794	0.798945	0.666685
C85	C	0.888472	-0.264045	-0.000004
C86	C	1.221805	0.069289	0.333329
C87	C	1.555139	0.402622	0.666662
C88	C	0.889942	-0.356338	-0.000011
C89	C	1.223276	-0.023004	0.333322
C90	C	1.556609	0.310329	0.666655
N91	N	0.894028	-0.112026	0.228182
N92	N	1.227362	0.221307	0.561515
N93	N	1.560695	0.554640	0.894848
C94	C	0.963679	0.354660	0.000006
C95	C	1.297012	0.687993	0.333339
C96	C	1.630345	1.021326	0.666672
C97	C	0.962291	0.441378	-0.000002
C98	C	1.295625	0.774711	0.333332
C99	C	1.628958	1.108044	0.666665
C100	C	0.824386	0.421274	-0.000001
C101	C	1.157719	0.754608	0.333332
C102	C	1.491053	1.087941	0.666665
C103	C	0.825774	0.334558	-0.000000
C104	C	1.159107	0.667891	0.333333
C105	C	1.492441	1.001224	0.666666
C106	C	0.895423	0.301253	0.000008
C107	C	1.228756	0.634586	0.333341
C108	C	1.562089	0.967920	0.666674
C109	C	0.892647	0.474688	-0.000001
C110	C	1.225980	0.808021	0.333333
C111	C	1.559314	1.141354	0.666666
C112	C	0.891142	0.568711	-0.000009
C113	C	1.224476	0.902044	0.333325
C114	C	1.557809	1.235378	0.666658
C115	C	0.896928	0.207224	0.000014
C116	C	1.230261	0.540557	0.333347
C117	C	1.563595	0.873890	0.666680
N118	N	0.894047	-0.112026	-0.228167
N119	N	1.227381	0.221307	0.105166
N120	N	1.560714	0.554640	0.438499
C121	C	0.945513	-0.055423	0.453910
C122	C	1.278847	0.277910	0.787243
C123	C	1.612180	0.611244	1.120576
C124	C	0.945516	-0.055421	0.546099
C125	C	1.278849	0.277912	0.879433
C126	C	1.612182	0.611246	1.212766
C127	C	0.842557	-0.168633	0.546098
C128	C	1.175890	0.164701	0.879432
C129	C	1.509224	0.498034	1.212765
C130	C	0.842551	-0.168630	0.453910
C131	C	1.175885	0.164703	0.787244
C132	C	1.509218	0.498037	1.120577
C133	C	0.894034	-0.112026	0.407818
C134	C	1.227367	0.221307	0.741152
C135	C	1.560701	0.554641	1.074485
C136	C	0.894042	-0.112027	0.592196
C137	C	1.227375	0.221307	0.925529
C138	C	1.560708	0.554640	1.258863
C139	C	0.894044	-0.112025	0.692152
C140	C	1.227377	0.221308	1.025486
C141	C	1.560711	0.554642	1.358819
C142	C	0.894031	-0.112026	0.307856
C143	C	1.227364	0.221307	0.641189
C144	C	1.560698	0.554640	0.974523
H145	H	1.123770	-0.107303	-0.144842
H146	H	1.457103	0.226030	0.188492
H147	H	1.790437	0.559363	0.521825
H148	H	1.017872	0.484858	-0.000005
H149	H	1.351206	0.818192	0.333328
H150	H	1.684539	1.151525	0.666661
Br151	Br	1.288417	-0.110175	-0.188184
Br152	Br	1.621750	0.223158	0.145149
Br153	Br	1.955083	0.556492	0.478483
H154	H	0.800627	-0.214723	0.416380
H155	H	1.133960	0.118610	0.749714
H156	H	1.467294	0.451943	1.083047
H157	H	0.987433	-0.009331	0.416384
H158	H	1.320766	0.324002	0.749717
H159	H	1.654099	0.657335	1.083051
Br160	Br	0.772692	-0.245451	0.608654
Br161	Br	1.106025	0.087882	0.941988
Br162	Br	1.439358	0.421216	1.275321
Br163	Br	1.288412	-0.110164	0.188193
Br164	Br	1.621745	0.223169	0.521526
Br165	Br	1.955078	0.556503	0.854859
Br166	Br	0.733134	0.262071	-0.000010
Br167	Br	1.066467	0.595404	0.333324
Br168	Br	1.399801	0.928738	0.666657
H169	H	0.767680	0.448402	-0.000006
H170	H	1.101014	0.781735	0.333327
H171	H	1.434347	1.115069	0.666661
Br172	Br	1.058201	0.309462	0.000017
Br173	Br	1.391534	0.642796	0.333350
Br174	Br	1.724868	0.976129	0.666684
Br175	Br	1.102330	-0.106891	0.188196
Br176	Br	1.435663	0.226442	0.521529
Br177	Br	1.768997	0.559776	0.854862
H178	H	0.987434	-0.009329	0.583625
H179	H	1.320767	0.324005	0.916958
H180	H	1.654101	0.657338	1.250291
H181	H	1.521087	-0.114267	-0.144841
H182	H	1.854420	0.219066	0.188493
H183	H	2.187753	0.552399	0.521826
H184	H	1.664312	-0.116779	-0.144841
H185	H	1.997645	0.216554	0.188492
H186	H	2.330978	0.549888	0.521826
H187	H	1.521090	-0.114234	0.144856
H188	H	1.854423	0.219100	0.478189
H189	H	2.187757	0.552433	0.811523
Br190	Br	1.685734	-0.117144	0.188193
Br191	Br	2.019067	0.216189	0.521527
Br192	Br	2.352400	0.549523	0.854860
