data_functionalizedCrystal
_audit_creation_method	'MofGen! by Chris Wilmer'
_symmetry_space_group_name_H-M	'P1'
_symmetry_Int_Tables_number	1
_symmetry_cell_setting	triclinic
loop_
_symmetry_equiv_pos_as_xyz
  x,y,z
_cell_length_a	13.897448
_cell_length_b	13.897449
_cell_length_c	13.897441
_cell_angle_alpha	89.976068
_cell_angle_beta	90.029627
_cell_angle_gamma	89.982380
loop_
_atom_site_label
_atom_site_type_symbol
_atom_site_fract_x
_atom_site_fract_y
_atom_site_fract_z
Zn1	Zn	-0.383995	-1.474682	0.545519
Zn2	Zn	-0.133995	-1.224682	0.795519
Zn3	Zn	0.116005	-0.974682	1.045519
Zn4	Zn	0.366005	-0.724682	1.295519
Zn5	Zn	-0.545314	-1.474582	0.384220
Zn6	Zn	-0.295314	-1.224582	0.634220
Zn7	Zn	-0.045314	-0.974582	0.884220
Zn8	Zn	0.204686	-0.724582	1.134220
Zn9	Zn	-0.384035	-1.313377	0.384222
Zn10	Zn	-0.134035	-1.063377	0.634222
Zn11	Zn	0.115965	-0.813377	0.884222
Zn12	Zn	0.365965	-0.563377	1.134222
Zn13	Zn	-0.545250	-1.313353	0.545457
Zn14	Zn	-0.295250	-1.063353	0.795457
Zn15	Zn	-0.045250	-0.813353	1.045457
Zn16	Zn	0.204750	-0.563353	1.295457
O17	O	-0.464648	-1.393999	0.464854
O18	O	-0.214648	-1.143999	0.714854
O19	O	0.035352	-0.893999	0.964854
O20	O	0.285352	-0.643999	1.214854
O21	O	-0.405405	-1.609651	0.524147
O22	O	-0.155405	-1.359651	0.774147
O23	O	0.094595	-1.109651	1.024147
O24	O	0.344595	-0.859651	1.274147
O25	O	-0.523964	-1.453166	0.249238
O26	O	-0.273964	-1.203166	0.499238
O27	O	-0.023964	-0.953166	0.749238
O28	O	0.226036	-0.703166	0.999238
O29	O	-0.249048	-1.334827	0.405645
O30	O	0.000952	-1.084827	0.655645
O31	O	0.250952	-0.834827	0.905645
O32	O	0.500952	-0.584827	1.155645
O33	O	-0.523925	-1.609577	0.405641
O34	O	-0.273925	-1.359577	0.655641
O35	O	-0.023925	-1.109577	0.905641
O36	O	0.226075	-0.859577	1.155641
O37	O	-0.249019	-1.453337	0.524149
O38	O	0.000981	-1.203337	0.774149
O39	O	0.250981	-0.953337	1.024149
O40	O	0.500981	-0.703337	1.274149
O41	O	-0.405472	-1.334730	0.249240
O42	O	-0.155472	-1.084730	0.499240
O43	O	0.094528	-0.834730	0.749240
O44	O	0.344528	-0.584730	0.999240
O45	O	-0.405410	-1.178393	0.405585
O46	O	-0.155410	-0.928393	0.655585
O47	O	0.094590	-0.678393	0.905585
O48	O	0.344590	-0.428393	1.155585
O49	O	-0.523815	-1.334786	0.680447
O50	O	-0.273815	-1.084786	0.930447
O51	O	-0.023815	-0.834786	1.180447
O52	O	0.226185	-0.584786	1.430447
O53	O	-0.523854	-1.178375	0.524045
O54	O	-0.273854	-0.928375	0.774045
O55	O	-0.023854	-0.678375	1.024045
O56	O	0.226146	-0.428375	1.274045
O57	O	-0.405342	-1.453313	0.680492
O58	O	-0.155342	-1.203313	0.930492
O59	O	0.094658	-0.953313	1.180492
O60	O	0.344658	-0.703313	1.430492
O61	O	-0.680287	-1.453143	0.405582
O62	O	-0.430287	-1.203143	0.655582
O63	O	-0.180287	-0.953143	0.905582
O64	O	0.069713	-0.703143	1.155582
O65	O	-0.680240	-1.334689	0.524043
O66	O	-0.430240	-1.084689	0.774043
O67	O	-0.180240	-0.834689	1.024043
O68	O	0.069760	-0.584689	1.274043
C69	C	-0.464630	-1.143384	0.464809
C70	C	-0.214630	-0.893384	0.714809
C71	C	0.035370	-0.643384	0.964809
C72	C	0.285370	-0.393384	1.214809
C73	C	-0.464645	-1.036171	0.464813
C74	C	-0.214645	-0.786171	0.714813
C75	C	0.035355	-0.536171	0.964813
C76	C	0.285355	-0.286171	1.214813
C77	C	-0.464647	-0.949101	0.464825
C78	C	-0.214647	-0.699101	0.714825
C79	C	0.035353	-0.449101	0.964825
C80	C	0.285353	-0.199101	1.214825
C81	C	-0.464652	-0.839868	0.464849
C82	C	-0.214652	-0.589868	0.714849
C83	C	0.035348	-0.339868	0.964849
C84	C	0.285348	-0.089868	1.214849
C85	C	-0.715263	-1.393928	0.464827
C86	C	-0.465263	-1.143928	0.714827
C87	C	-0.215263	-0.893928	0.964827
C88	C	0.034737	-0.643928	1.214827
C89	C	-0.822477	-1.393987	0.464847
C90	C	-0.572477	-1.143987	0.714847
C91	C	-0.322477	-0.893987	0.964847
C92	C	-0.072477	-0.643987	1.214847
C93	C	-1.018772	-1.394088	0.464907
C94	C	-0.768772	-1.144088	0.714907
C95	C	-0.518772	-0.894088	0.964907
C96	C	-0.268772	-0.644088	1.214907
C97	C	-0.909539	-1.394029	0.464877
C98	C	-0.659539	-1.144029	0.714877
C99	C	-0.409539	-0.894029	0.964877
C100	C	-0.159539	-0.644029	1.214877
C101	C	-0.213055	-1.394096	0.464904
C102	C	0.036945	-1.144096	0.714904
C103	C	0.286945	-0.894096	0.964904
C104	C	0.536945	-0.644096	1.214904
C105	C	-0.105841	-1.394137	0.464925
C106	C	0.144159	-1.144137	0.714925
C107	C	0.394159	-0.894137	0.964925
C108	C	0.644159	-0.644137	1.214925
C109	C	-0.464567	-1.394058	0.716448
C110	C	-0.214567	-1.144058	0.966448
C111	C	0.035433	-0.894058	1.216448
C112	C	0.285433	-0.644058	1.466448
C113	C	-0.464533	-1.394083	0.823662
C114	C	-0.214533	-1.144083	1.073662
C115	C	0.035467	-0.894083	1.323662
C116	C	0.285467	-0.644083	1.573662
C117	C	-0.464664	-0.645592	0.464889
C118	C	-0.214664	-0.395592	0.714889
C119	C	0.035336	-0.145592	0.964889
C120	C	0.285336	0.104408	1.214889
C121	C	-0.464661	-0.752806	0.464873
C122	C	-0.214661	-0.502806	0.714873
C123	C	0.035339	-0.252806	0.964873
C124	C	0.285339	-0.002806	1.214873
C125	C	-0.464659	-1.393996	0.214240
C126	C	-0.214659	-1.143996	0.464240
C127	C	0.035341	-0.893996	0.714240
C128	C	0.285341	-0.643996	0.964240
C129	C	-0.464422	-1.394157	0.107027
C130	C	-0.214422	-1.144157	0.357027
C131	C	0.035578	-0.894157	0.607027
C132	C	0.285578	-0.644157	0.857027
C133	C	-0.464506	-1.394103	0.910731
C134	C	-0.214506	-1.144103	1.160731
C135	C	0.035494	-0.894103	1.410731
C136	C	0.285494	-0.644103	1.660731
C137	C	-0.464462	-1.394130	1.019964
C138	C	-0.214462	-1.144130	1.269964
C139	C	0.035538	-0.894130	1.519964
C140	C	0.285538	-0.644130	1.769964
