data_functionalizedCrystal
_audit_creation_method	'MofGen! by Chris Wilmer'
_symmetry_space_group_name_H-M	'P1'
_symmetry_Int_Tables_number	1
_symmetry_cell_setting	triclinic
loop_
_symmetry_equiv_pos_as_xyz
  x,y,z
_cell_length_a	12.759401
_cell_length_b	18.101395
_cell_length_c	12.759393
_cell_angle_alpha	90.033445
_cell_angle_beta	90.018496
_cell_angle_gamma	90.031265
loop_
_atom_site_label
_atom_site_type_symbol
_atom_site_fract_x
_atom_site_fract_y
_atom_site_fract_z
Zn1	Zn	1.606136	-0.294783	0.593968
Zn2	Zn	1.605980	-0.418644	0.418282
Zn3	Zn	1.430438	-0.294822	0.418307
Zn4	Zn	1.430376	-0.418587	0.593923
O5	O	1.518232	-0.356709	0.506120
O6	O	1.753136	-0.311221	0.570671
O7	O	1.582654	-0.402259	0.271264
O8	O	1.453835	-0.191183	0.441638
O9	O	1.753021	-0.402221	0.441595
O10	O	1.582920	-0.191155	0.570695
O11	O	1.453684	-0.311287	0.271283
O12	O	1.283408	-0.311232	0.441595
O13	O	1.453730	-0.402124	0.740950
O14	O	1.283363	-0.402162	0.570619
O15	O	1.582860	-0.311166	0.740983
O16	O	1.582594	-0.522270	0.441552
O17	O	1.453579	-0.522228	0.570595
C18	C	1.245265	-0.356695	0.506106
C19	C	1.128488	-0.356707	0.506125
C20	C	1.073630	-0.404131	0.573197
C21	C	0.963906	-0.404140	0.573208
C22	C	0.963908	-0.309301	0.439066
C23	C	1.073630	-0.309288	0.439061
C24	C	1.128488	-0.451550	0.640260
C25	C	1.073630	-0.498977	0.707337
C26	C	0.963906	-0.498987	0.707348
C27	C	0.909040	-0.451568	0.640283
C28	C	1.518092	-0.549120	0.506089
C29	C	1.518128	-0.631434	0.506111
C30	C	1.518358	-0.930525	0.506168
C31	C	1.437374	-0.899204	0.587559
C32	C	1.436989	-0.813586	0.587305
C33	C	1.518244	-0.782142	0.506140
C34	C	1.488263	-0.813302	0.395415
C35	C	1.487741	-0.898947	0.395903
C36	C	1.629501	-0.898866	0.534526
C37	C	1.628847	-0.813215	0.536954
C38	C	1.518181	-0.698283	0.506118
C39	C	1.518418	-1.014384	0.506182
C40	C	1.792265	-0.356723	0.506135
C41	C	1.909042	-0.356729	0.506141
C42	C	1.518306	-0.356634	0.780153
C43	C	1.518337	-0.356602	0.896930
C44	C	1.518402	-0.163547	0.506174
C45	C	1.518474	-0.081233	0.506197
C46	C	1.518219	-0.356730	0.233153
C47	C	1.518392	-0.356553	0.116376
C48	C	1.585584	-0.309236	0.951811
C49	C	1.585609	-0.309209	1.061535
C50	C	1.451137	-0.403922	1.061488
C51	C	1.451108	-0.403944	0.951766
C52	C	1.652814	-0.261894	0.896975
C53	C	1.720068	-0.214524	0.951856
C54	C	1.720092	-0.214497	1.061580
C55	C	1.652864	-0.261840	1.116423
H56	H	1.118297	-0.270667	0.384453
C57	C	0.904532	-0.257746	0.366209
C58	C	0.976060	-0.216198	0.307485
C59	C	0.921403	-0.168692	0.240365
H60	H	0.861694	-0.285961	0.320272
H61	H	0.861783	-0.225477	0.406458
H62	H	1.018791	-0.248462	0.267240
H63	H	1.018900	-0.187967	0.353395
H64	H	0.878654	-0.136423	0.280613
H65	H	0.878568	-0.196913	0.194434
H66	H	0.969927	-0.140491	0.200520
C67	C	1.133004	-0.550483	0.780266
C68	C	1.061472	-0.592000	0.839030
C69	C	1.116126	-0.639447	0.906237
H70	H	1.175775	-0.582779	0.740110
H71	H	1.175819	-0.522204	0.826167
H72	H	1.018675	-0.620277	0.793136
H73	H	1.018699	-0.559723	0.879208
H74	H	1.158941	-0.611168	0.952137
H75	H	1.158895	-0.671739	0.866072
H76	H	1.067601	-0.667618	0.946123
C77	C	1.659143	-0.786197	0.645639
C78	C	1.757843	-0.814298	0.672221
C79	C	1.785762	-0.789446	0.772351
H80	H	1.661556	-0.733748	0.646046
H81	H	1.608721	-0.802739	0.695130
H82	H	1.808252	-0.797751	0.622743
H83	H	1.755456	-0.866744	0.671837
H84	H	1.735340	-0.805988	0.821842
H85	H	1.788170	-0.736997	0.772748
H86	H	1.852727	-0.808514	0.790403
C87	C	0.789910	-0.451686	0.640450
C88	C	0.753606	-0.503366	0.713545
C89	C	0.643872	-0.503493	0.713731
H90	H	0.765031	-0.403950	0.658787
H91	H	0.764977	-0.464468	0.572650
H92	H	0.778528	-0.490580	0.781330
H93	H	0.778456	-0.551110	0.695225
H94	H	0.618939	-0.516275	0.645932
H95	H	0.619004	-0.455754	0.732067
H96	H	0.619226	-0.538561	0.763318
C97	C	1.461944	-0.785630	0.696864
C98	C	1.477517	-0.845853	0.763884
C99	C	1.500483	-0.820133	0.864827
H100	H	1.523708	-0.756345	0.694859
H101	H	1.405178	-0.756623	0.721888
H102	H	1.534277	-0.874848	0.738867
H103	H	1.415764	-0.875144	0.765921
H104	H	1.443717	-0.791126	0.889851
H105	H	1.562246	-0.790849	0.862811
H106	H	1.511043	-0.860990	0.910315
H107	H	1.656833	-0.920408	0.613890
H108	H	1.455945	-0.919745	0.669927
H109	H	1.396402	-0.442466	1.106150
H110	H	0.919243	-0.537599	0.761972
H111	H	1.355493	-0.920792	0.569012
C112	C	1.378252	-0.455505	0.892216
C113	C	1.401107	-0.528772	0.918854
C114	C	1.334029	-0.576292	0.864001
H115	H	1.307630	-0.444770	0.910135
H116	H	1.387886	-0.448782	0.819009
H117	H	1.391464	-0.535491	0.992045
H118	H	1.471717	-0.539530	0.900932
H119	H	1.343663	-0.569570	0.790794
H120	H	1.263410	-0.565551	0.881924
H121	H	1.349533	-0.626009	0.882060
C122	C	1.379330	-0.925535	0.363908
C123	C	1.314918	-0.864485	0.344314
C124	C	1.215036	-0.888945	0.314855
H125	H	1.384562	-0.954773	0.302289
H126	H	1.350026	-0.954293	0.418850
H127	H	1.344214	-0.835739	0.289377
H128	H	1.309654	-0.835241	0.405919
H129	H	1.185732	-0.917703	0.369796
H130	H	1.220279	-0.918183	0.253238
H131	H	1.171317	-0.847527	0.301566
H132	H	1.217831	-0.451549	0.640256
C133	C	1.327090	-0.786494	0.562177
C134	C	1.260776	-0.847240	0.547168
C135	C	1.159530	-0.822313	0.523998
H136	H	1.301715	-0.757359	0.618663
H137	H	1.328768	-0.757520	0.500138
H138	H	1.259094	-0.876202	0.609200
H139	H	1.286118	-0.876381	0.490679
H140	H	1.161209	-0.793339	0.461958
H141	H	1.134166	-0.793178	0.580487
H142	H	1.114526	-0.863525	0.513801
C143	C	1.562973	-0.926439	0.312188
C144	C	1.608698	-0.865932	0.261397
C145	C	1.677988	-0.891225	0.184260
H146	H	1.616190	-0.955529	0.343877
H147	H	1.525730	-0.955542	0.262612
H148	H	1.645940	-0.836841	0.310964
H149	H	1.555507	-0.836836	0.229686
H150	H	1.640745	-0.920328	0.134684
H151	H	1.731198	-0.920315	0.215958
H152	H	1.709014	-0.850175	0.149782
C153	C	1.713407	-0.784621	0.463531
C154	C	1.668000	-0.738180	0.388486
C155	C	1.745859	-0.711834	0.320815
H156	H	1.764105	-0.757769	0.502593
H157	H	1.746315	-0.825111	0.429453
H158	H	1.635108	-0.697697	0.422561
H159	H	1.617310	-0.765016	0.349399
H160	H	1.778767	-0.752323	0.286737
H161	H	1.796552	-0.684985	0.359886
H162	H	1.715060	-0.680326	0.269883
H163	H	1.545393	-0.792936	0.333119
C164	C	1.709956	-0.926020	0.455588
C165	C	1.713422	-1.003316	0.457572
C166	C	1.787526	-1.028361	0.384879
H167	H	1.690856	-0.909850	0.387399
H168	H	1.776983	-0.906755	0.473135
H169	H	1.646410	-1.022574	0.440019
H170	H	1.732534	-1.019505	0.525744
H171	H	1.854553	-1.009096	0.402426
H172	H	1.768420	-1.012186	0.316695
H173	H	1.789895	-1.080808	0.386222
C174	C	1.652904	-0.261786	0.777847
C175	C	1.726153	-0.210176	0.741567
C176	C	1.726255	-0.210052	0.631833
H177	H	1.671054	-0.309540	0.752880
H178	H	1.585130	-0.248940	0.752985
H179	H	1.793912	-0.223026	0.766417
H180	H	1.708019	-0.162415	0.766505
H181	H	1.658481	-0.197206	0.606972
H182	H	1.744403	-0.257809	0.606876
H183	H	1.775946	-0.175031	0.607203
H184	H	1.407879	-0.791919	0.370962
C185	C	1.793043	-0.162945	1.121029
C186	C	1.770247	-0.089679	1.094339
C187	C	1.837442	-0.042170	1.149067
H188	H	1.783502	-0.169605	1.194246
H189	H	1.863636	-0.173751	1.103024
H190	H	1.699671	-0.078877	1.112351
H191	H	1.779794	-0.082995	1.021131
H192	H	1.908035	-0.052976	1.131062
H193	H	1.827896	-0.048836	1.222282
H194	H	1.821991	0.007546	1.130959
C195	C	1.793220	-0.163165	0.892449
C196	C	1.897161	-0.179277	0.919162
C197	C	1.964577	-0.131972	0.864470
H198	H	1.783718	-0.169918	0.819227
H199	H	1.777955	-0.113389	0.910470
H200	H	1.912421	-0.229041	0.901135
H201	H	1.906696	-0.172520	0.992375
H202	H	1.949312	-0.082196	0.882490
H203	H	1.955065	-0.138729	0.791250
H204	H	2.035107	-0.142893	0.882594
C205	C	1.653084	-0.261731	1.235554
C206	C	1.726383	-0.210127	1.271882
C207	C	1.726631	-0.210017	1.381616
H208	H	1.585367	-0.248890	1.260511
H209	H	1.671270	-0.309505	1.260392
H210	H	1.708192	-0.162363	1.247055
H211	H	1.794111	-0.222956	1.246954
H212	H	1.744816	-0.257791	1.406454
H213	H	1.658910	-0.197177	1.406563
H214	H	1.776370	-0.175009	1.406279
