data_functionalizedCrystal
_audit_creation_method	'MofGen! by Chris Wilmer'
_symmetry_space_group_name_H-M	'P1'
_symmetry_Int_Tables_number	1
_symmetry_cell_setting	triclinic
loop_
_symmetry_equiv_pos_as_xyz
  x,y,z
_cell_length_a	14.044220
_cell_length_b	10.489741
_cell_length_c	13.101039
_cell_angle_alpha	93.396862
_cell_angle_beta	86.340132
_cell_angle_gamma	88.864026
loop_
_atom_site_label
_atom_site_type_symbol
_atom_site_fract_x
_atom_site_fract_y
_atom_site_fract_z
O1	O	1.264971	0.301301	-0.085104
O2	O	0.988928	0.290194	-0.085130
O3	O	1.133230	0.110787	-0.085110
O4	O	1.120668	0.480707	-0.085124
O5	O	1.122877	0.123682	0.085318
O6	O	0.978574	0.303089	0.085298
O7	O	1.254618	0.314196	0.085324
Zn8	Zn	1.114952	0.310690	0.112370
Zn9	Zn	1.128593	0.293700	-0.112176
O10	O	1.110315	0.493603	0.085305
C11	C	0.948404	0.291780	0.000081
C12	C	0.843079	0.277280	0.000071
C13	C	0.650236	0.250773	0.000092
C14	C	0.593304	0.353611	0.000093
C15	C	0.486000	0.338862	0.000105
C16	C	0.757551	0.265520	0.000080
C17	C	1.127105	0.069607	0.000103
C18	C	1.124266	-0.072311	0.000101
C19	C	1.032451	-0.149765	0.000085
C20	C	1.070719	-0.231130	0.084119
C21	C	1.080948	-0.243816	-0.083910
C22	C	1.162568	-0.151801	0.084204
C23	C	1.172789	-0.164485	-0.083900
C24	C	1.211123	-0.245814	0.000155
C25	C	1.295142	0.312609	0.000111
C26	C	1.400466	0.327109	0.000114
C27	C	1.116441	0.534783	0.000089
C28	C	1.119280	0.676700	0.000084
N29	N	1.105649	0.322285	0.265618
N30	N	1.137903	0.282095	-0.265424
C31	C	1.092993	0.338073	0.474659
C32	C	1.150557	0.266311	0.525542
C33	C	1.143515	0.275096	0.641860
C34	C	1.100034	0.329290	0.358331
H35	H	0.625153	0.452730	0.000084
H36	H	0.618389	0.151662	0.000101
C37	C	0.877338	-0.126358	0.088289
C38	C	0.930540	-0.093052	0.000185
H39	H	0.814427	-0.091336	0.088355
H40	H	0.874797	-0.216728	0.088889
H41	H	0.906704	-0.093575	0.147375
H42	H	0.901178	-0.125844	-0.058901
H43	H	0.933077	-0.002663	-0.000424
C44	C	1.011144	-0.404551	0.179445
C45	C	1.012453	-0.271071	0.180015
H46	H	0.975174	-0.429203	0.238648
H47	H	0.982759	-0.437419	0.119777
H48	H	1.074616	-0.437552	0.179541
H49	H	0.948982	-0.238070	0.179912
H50	H	1.040835	-0.238189	0.239699
H51	H	1.197063	-0.111651	0.155329
C52	C	1.355598	-0.255368	0.088285
C53	C	1.313114	-0.302202	0.000225
H54	H	1.418559	-0.290189	0.088332
H55	H	1.357915	-0.164898	0.088843
H56	H	1.319138	-0.279276	0.147401
H57	H	1.349571	-0.278286	-0.058892
H58	H	1.310803	-0.392692	-0.000343
H59	H	1.215921	-0.134879	-0.154942
C60	C	1.316161	0.207149	0.491999
C61	C	1.224139	0.174448	0.466304
H62	H	1.361556	0.150429	0.455391
H63	H	1.328212	0.292190	0.474510
H64	H	1.321126	0.200984	0.563521
H65	H	1.219172	0.180622	0.394782
H66	H	1.212084	0.089386	0.483786
H67	H	1.046404	-0.284097	-0.154961
C68	C	0.967458	0.494576	0.464169
C69	C	1.019327	0.429915	0.533770
H70	H	0.921978	0.551269	0.500673
H71	H	1.009812	0.541813	0.422322
H72	H	0.935394	0.434494	0.422320
H73	H	1.051396	0.489997	0.575614
H74	H	0.976966	0.382676	0.575635
