data_functionalizedCrystal
_audit_creation_method	'MofGen! by Chris Wilmer'
_symmetry_space_group_name_H-M	'P1'
_symmetry_Int_Tables_number	1
_symmetry_cell_setting	triclinic
loop_
_symmetry_equiv_pos_as_xyz
  x,y,z
_cell_length_a	13.033293
_cell_length_b	13.897447
_cell_length_c	13.032268
_cell_angle_alpha	97.151637
_cell_angle_beta	90.920818
_cell_angle_gamma	82.808639
loop_
_atom_site_label
_atom_site_type_symbol
_atom_site_fract_x
_atom_site_fract_y
_atom_site_fract_z
Zn1	Zn	1.498440	0.300102	0.781500
Zn2	Zn	1.520172	0.438722	0.609536
Zn3	Zn	1.348300	0.295009	0.587676
Zn4	Zn	1.326420	0.478933	0.759578
O5	O	1.423333	0.378192	0.684573
O6	O	1.645242	0.303794	0.777012
O7	O	1.515625	0.400698	0.462726
O8	O	1.368279	0.160699	0.613413
O9	O	1.661209	0.405637	0.650670
O10	O	1.478585	0.164441	0.755815
O11	O	1.389352	0.295112	0.446666
O12	O	1.201478	0.334103	0.592156
O13	O	1.330986	0.474171	0.906396
O14	O	1.185402	0.469232	0.718452
O15	O	1.457369	0.342785	0.922502
O16	O	1.494408	0.579042	0.629413
O17	O	1.352059	0.608585	0.739649
C18	C	1.156123	0.405479	0.650554
C19	C	1.041807	0.417179	0.636025
C20	C	0.982928	0.372109	0.692155
C21	C	0.864776	0.384201	0.677140
C22	C	1.423243	0.628814	0.684550
C23	C	1.423294	0.736026	0.684587
C24	C	1.423338	0.823095	0.684621
C25	C	1.423402	0.932324	0.684662
C26	C	1.691586	0.350798	0.718725
C27	C	1.805899	0.339125	0.733279
C28	C	1.389313	0.413532	0.952806
C29	C	1.374815	0.428592	1.067112
C30	C	1.423439	1.126593	0.684633
C31	C	1.423460	1.019384	0.684690
C32	C	1.457280	0.342913	0.417390
C33	C	1.471977	0.327561	0.303110
C34	C	1.430883	0.370299	1.126042
C35	C	1.415901	0.385862	1.244182
H36	H	1.019992	0.324568	0.751323
H37	H	1.531069	0.266123	1.266105
H38	H	0.827717	0.431740	0.617962
H39	H	0.842958	0.291578	0.792449
F40	F	0.993368	0.479311	0.558676
H41	H	1.489973	0.308867	1.089030
F42	F	1.297568	0.508882	1.115481
F43	F	1.338650	0.466157	1.292547
