data_functionalizedCrystal
_audit_creation_method	'MofGen! by Chris Wilmer'
_symmetry_space_group_name_H-M	'P1'
_symmetry_Int_Tables_number	1
_symmetry_cell_setting	triclinic
loop_
_symmetry_equiv_pos_as_xyz
  x,y,z
_cell_length_a	27.731993
_cell_length_b	27.731996
_cell_length_c	9.198806
_cell_angle_alpha	89.990861
_cell_angle_beta	89.992392
_cell_angle_gamma	97.379109
loop_
_atom_site_label
_atom_site_type_symbol
_atom_site_fract_x
_atom_site_fract_y
_atom_site_fract_z
O1	O	0.640933	-0.057392	0.120520
O2	O	0.500135	-0.066165	0.120611
O3	O	0.574920	0.008621	0.120531
O4	O	0.566148	-0.132178	0.120600
O5	O	0.574914	0.008621	-0.121254
O6	O	0.500129	-0.066165	-0.121174
O7	O	0.640928	-0.057392	-0.121265
Cu8	Cu	0.570528	-0.061778	-0.143296
Cu9	Cu	0.570535	-0.061778	0.142642
O10	O	0.566142	-0.132178	-0.121185
C11	C	0.482124	-0.065985	-0.000270
C12	C	0.428468	-0.065443	-0.000237
C13	C	0.045312	-0.061512	0.131488
C14	C	0.246969	-0.063579	0.131528
O15	O	0.273045	-0.063827	0.243620
N16	N	0.272186	-0.063838	-0.000265
C17	C	0.246986	-0.063576	-0.132079
O18	O	0.273062	-0.063839	-0.244177
C19	C	0.045330	-0.061506	-0.132118
C20	C	0.020115	-0.061252	-0.000315
C21	C	0.020097	-0.061258	0.263280
C22	C	-0.030315	-0.060744	0.263268
C23	C	-0.055511	-0.060484	0.131465
C24	C	-0.030296	-0.060738	-0.000327
C25	C	0.020132	-0.061241	-0.263930
C26	C	-0.030285	-0.060722	-0.263928
C27	C	-0.055500	-0.060468	-0.132125
C28	C	-0.105904	-0.059964	-0.132141
N29	N	-0.131121	-0.059705	-0.000347
C30	C	-0.105925	-0.059965	0.131456
C31	C	0.352858	-0.064664	-0.132049
C32	C	0.403272	-0.065183	-0.132040
C33	C	0.403251	-0.065185	0.131568
C34	C	0.352836	-0.064670	0.131557
C35	C	0.327641	-0.064406	-0.000255
C36	C	-0.211793	-0.058886	0.131422
C37	C	-0.262209	-0.058374	0.131399
C38	C	-0.262184	-0.058370	-0.132208
C39	C	-0.211772	-0.058884	-0.132186
C40	C	-0.186578	-0.059141	-0.000359
O41	O	-0.132011	-0.059710	-0.244174
O42	O	-0.132009	-0.059692	0.243537
C43	C	0.095723	-0.062026	0.131499
C44	C	0.120938	-0.062280	-0.000292
C45	C	0.095742	-0.062020	-0.132096
C46	C	0.171352	-0.062799	-0.000283
C47	C	0.196549	-0.063059	0.131520
C48	C	0.171332	-0.062800	0.263314
C49	C	0.120920	-0.062286	0.263303
C50	C	0.120959	-0.062279	-0.263890
C51	C	0.171371	-0.062794	-0.263867
C52	C	0.196567	-0.063054	-0.132064
C53	C	0.574737	0.026628	-0.000366
C54	C	0.574194	0.080284	-0.000381
C55	C	0.658938	-0.057572	-0.000381
C56	C	0.712594	-0.058114	-0.000405
C57	C	0.566325	-0.150185	-0.000285
C58	C	0.566868	-0.203841	-0.000261
C59	C	0.570783	0.413000	0.131490
C60	C	0.568721	0.614658	0.131517
O61	O	0.568437	0.640728	0.243606
N62	N	0.568462	0.639875	-0.000279
C63	C	0.568715	0.614674	-0.132091
O64	O	0.568442	0.640749	-0.244190
C65	C	0.570773	0.413017	-0.132116
C66	C	0.571037	0.387803	-0.000312
C67	C	0.571046	0.387786	0.263283
C68	C	0.571564	0.337375	0.263275
C69	C	0.571818	0.312178	0.131474
C70	C	0.571555	0.337392	-0.000320
C71	C	0.571022	0.387816	-0.263926
C72	C	0.571535	0.337399	-0.263921
C73	C	0.571800	0.312185	-0.132117
C74	C	0.572327	0.261784	-0.132130
N75	N	0.572586	0.236567	-0.000334
C76	C	0.572332	0.261764	0.131468
C77	C	0.567636	0.720547	-0.132068
C78	C	0.567122	0.770962	-0.132062
C79	C	0.567128	0.770942	0.131546
C80	C	0.567645	0.720527	0.131538
C81	C	0.567895	0.695330	-0.000272
C82	C	0.573420	0.155897	0.131441
C83	C	0.573940	0.105482	0.131421
C84	C	0.573932	0.105506	-0.132186
C85	C	0.573414	0.155917	-0.132167
C86	C	0.573157	0.181111	-0.000342
O87	O	0.572606	0.235681	-0.244160
O88	O	0.572594	0.235678	0.243551
C89	C	0.570265	0.463411	0.131498
C90	C	0.570001	0.488625	-0.000296
C91	C	0.570255	0.463428	-0.132097
C92	C	0.569488	0.539039	-0.000290
C93	C	0.569233	0.564236	0.131512
C94	C	0.569492	0.539019	0.263307
C95	C	0.570010	0.488608	0.263299
C96	C	0.569996	0.488645	-0.263893
C97	C	0.569479	0.539056	-0.263874
C98	C	0.569225	0.564253	-0.132073
N99	N	0.570526	-0.061778	-0.344410
C100	C	0.601929	-0.030241	-0.416641
C101	C	0.601936	-0.030239	-0.584053
N102	N	0.570540	-0.061775	0.343756
H103	H	0.423796	-0.065397	-0.239367
O104	O	0.637551	0.005524	-0.666331
H105	H	0.675222	-0.000256	-0.637207
O106	O	0.571836	0.310180	0.405435
H107	H	0.571565	0.336177	0.497073
H108	H	0.570204	0.468135	-0.371224
O109	O	0.325639	-0.064393	0.273709
H110	H	0.307235	-0.031197	0.279988
O111	O	0.325704	-0.064431	-0.274271
H112	H	0.298189	-0.097171	-0.280506
O113	O	0.570760	0.414958	0.405452
H114	H	0.571027	0.388947	0.497080
H115	H	0.567859	0.700001	0.238865
H116	H	0.543645	-0.088775	-0.406510
H117	H	0.628807	-0.003241	-0.354544
O118	O	0.047320	-0.061528	-0.406089
H119	H	0.021321	-0.061260	-0.497726
H120	H	0.543655	-0.088778	-0.594138
H121	H	-0.282737	-0.058169	0.238733
H122	H	-0.191286	-0.059096	0.238768
H123	H	0.566915	0.791487	-0.239390
H124	H	0.571732	0.316885	-0.371260
H125	H	0.569288	0.559544	0.370625
H126	H	-0.050797	-0.060511	-0.371268
O127	O	0.573131	0.183117	-0.274321
H128	H	0.573393	0.157124	-0.365971
H129	H	-0.282708	-0.058160	-0.239519
O130	O	0.430435	-0.065463	0.273727
H131	H	0.404436	-0.065197	0.365383
O132	O	0.198564	-0.063079	-0.406035
H133	H	0.172568	-0.062811	-0.497679
O134	O	0.570286	0.461417	0.405465
H135	H	0.603144	0.475659	0.468654
O136	O	-0.184571	-0.059159	-0.274338
H137	H	-0.210564	-0.058890	-0.365990
H138	H	0.567842	0.700037	-0.239410
H139	H	0.569268	0.559582	-0.371213
H140	H	-0.050840	-0.060535	0.370596
H141	H	0.100449	-0.062065	-0.371222
H142	H	0.574141	0.084981	-0.239495
H143	H	0.040607	-0.061468	0.370616
H144	H	0.100394	-0.062080	0.370630
H145	H	0.574156	0.084955	0.238757
O146	O	0.198513	-0.063073	0.405479
H147	H	0.237805	-0.063467	0.383327
O148	O	0.573138	0.183067	0.273618
H149	H	0.573410	0.157058	0.365249
H150	H	0.566921	0.791466	0.238864
O151	O	0.570735	0.415004	-0.406087
H152	H	0.537868	0.400765	-0.469242
