data_functionalizedCrystal
_audit_creation_method	'MofGen! by Chris Wilmer'
_symmetry_space_group_name_H-M	'P1'
_symmetry_Int_Tables_number	1
_symmetry_cell_setting	triclinic
loop_
_symmetry_equiv_pos_as_xyz
  x,y,z
_cell_length_a	12.759401
_cell_length_b	19.805405
_cell_length_c	12.759393
_cell_angle_alpha	89.966133
_cell_angle_beta	89.980324
_cell_angle_gamma	90.027152
loop_
_atom_site_label
_atom_site_type_symbol
_atom_site_fract_x
_atom_site_fract_y
_atom_site_fract_z
Zn1	Zn	1.606179	-0.269423	-0.593960
Zn2	Zn	2.106179	0.230577	-0.093960
Zn3	Zn	1.606033	-0.382625	-0.418270
Zn4	Zn	2.106033	0.117375	0.081730
Zn5	Zn	1.430477	-0.269457	-0.418299
Zn6	Zn	1.930477	0.230543	0.081701
Zn7	Zn	1.430432	-0.382576	-0.593911
Zn8	Zn	1.930432	0.117424	-0.093911
O9	O	1.518280	-0.326020	-0.506110
O10	O	2.018280	0.173980	-0.006110
O11	O	1.753180	-0.284446	-0.570663
O12	O	2.253180	0.215554	-0.070663
O13	O	1.582703	-0.367648	-0.271253
O14	O	2.082703	0.132352	0.228747
O15	O	1.453864	-0.174735	-0.441634
O16	O	1.953864	0.325265	0.058366
O17	O	1.753073	-0.367615	-0.441584
O18	O	2.253073	0.132385	0.058416
O19	O	1.582951	-0.174711	-0.570691
O20	O	2.082951	0.325289	-0.070691
O21	O	1.453723	-0.284504	-0.271274
O22	O	1.953723	0.215496	0.228726
O23	O	1.283450	-0.284456	-0.441586
O24	O	1.783450	0.215544	0.058414
O25	O	1.453788	-0.367531	-0.740939
O26	O	1.953788	0.132469	-0.240939
O27	O	1.283417	-0.367564	-0.570607
O28	O	1.783417	0.132436	-0.070607
O29	O	1.582908	-0.284398	-0.740975
O30	O	2.082908	0.215602	-0.240975
O31	O	1.582659	-0.477335	-0.441536
O32	O	2.082659	0.022665	0.058464
O33	O	1.453646	-0.477299	-0.570579
O34	O	1.953646	0.022701	-0.070579
C35	C	1.245313	-0.326009	-0.506095
C36	C	1.745313	0.173991	-0.006095
C37	C	1.128536	-0.326020	-0.506114
C38	C	1.628536	0.173980	-0.006114
C39	C	1.073731	-0.282792	-0.573429
C40	C	1.573731	0.217208	-0.073429
C41	C	0.964007	-0.282799	-0.573436
C42	C	1.464007	0.217201	-0.073436
C43	C	0.963903	-0.369268	-0.438810
C44	C	1.463903	0.130732	0.061190
C45	C	1.073625	-0.369257	-0.438798
C46	C	1.573625	0.130743	0.061202
C47	C	1.518161	-0.501876	-0.506072
C48	C	2.018161	-0.001876	-0.006072
C49	C	1.518205	-0.577108	-0.506091
C50	C	2.018205	-0.077108	-0.006091
C51	C	1.585381	-0.612381	-0.573344
C52	C	2.085381	-0.112381	-0.073344
C53	C	1.585419	-0.683070	-0.573363
C54	C	2.085419	-0.183070	-0.073363
C55	C	1.518286	-0.718484	-0.506124
C56	C	2.018286	-0.218484	-0.006124
C57	C	1.451103	-0.683206	-0.438868
C58	C	1.951103	-0.183206	0.061132
C59	C	1.451060	-0.612519	-0.438855
C60	C	1.951060	-0.112519	0.061145
C61	C	1.451271	-0.968279	-0.438922
C62	C	1.951271	-0.468279	0.061078
C63	C	1.451321	-1.038971	-0.438938
C64	C	1.951321	-0.538971	0.061062
C65	C	1.585630	-1.038830	-0.573431
C66	C	2.085630	-0.538830	-0.073431
C67	C	1.585588	-0.968143	-0.573417
C68	C	2.085588	-0.468143	-0.073417
C69	C	1.518401	-0.932871	-0.506166
C70	C	2.018401	-0.432871	-0.006166
C71	C	1.518360	-0.856223	-0.506147
C72	C	2.018360	-0.356223	-0.006147
C73	C	1.518332	-0.795131	-0.506137
C74	C	2.018332	-0.295131	-0.006137
C75	C	1.792313	-0.326032	-0.506126
C76	C	2.292313	0.173968	-0.006126
C77	C	1.909090	-0.326038	-0.506132
C78	C	2.409090	0.173962	-0.006132
C79	C	1.518359	-0.325955	-0.780143
C80	C	2.018359	0.174045	-0.280143
C81	C	1.518392	-0.325928	-0.896920
C82	C	2.018392	0.174072	-0.396920
C83	C	1.518429	-0.149477	-0.506171
C84	C	2.018429	0.350523	-0.006171
C85	C	1.518492	-0.074245	-0.506197
C86	C	2.018492	0.425755	-0.006197
C87	C	1.585630	-0.282633	-0.951803
C88	C	2.085630	0.217367	-0.451803
C89	C	1.585648	-0.282604	-1.061527
C90	C	2.085648	0.217396	-0.561527
C91	C	1.451187	-0.369169	-1.061476
C92	C	1.951187	0.130831	-0.561476
C93	C	1.451165	-0.369195	-0.951754
C94	C	1.951165	0.130805	-0.451754
C95	C	1.518262	-0.326036	-0.233143
C96	C	2.018262	0.173964	0.266857
C97	C	1.518432	-0.325873	-0.116367
C98	C	2.018432	0.174127	0.383633
H99	H	1.118249	-0.404459	-0.383977
H100	H	1.618249	0.095541	0.116023
F101	F	1.379864	-1.076660	-0.367370
F102	F	1.879864	-0.576660	0.132630
H103	H	1.640129	-0.711786	-0.628119
H104	H	2.140129	-0.211786	-0.128119
F105	F	1.379644	-0.720898	-0.367316
F106	F	1.879644	-0.220898	0.132684
F107	F	1.657134	-1.076374	-0.645010
F108	F	2.157134	-0.576374	-0.145010
F109	F	1.379592	-0.415274	-0.893341
F110	F	1.879592	0.084726	-0.393341
F111	F	0.905683	-0.236788	-0.645080
F112	F	1.405683	0.263212	-0.145080
F113	F	1.657219	-0.236529	-1.119932
F114	F	2.157219	0.263471	-0.619932
H115	H	1.118436	-0.247583	-0.628238
H116	H	1.618436	0.252417	-0.128238
F117	F	0.905454	-0.415282	-0.367174
F118	F	1.405454	0.084718	0.132826
F119	F	1.379647	-0.415217	-1.119844
F120	F	1.879647	0.084783	-0.619844
F121	F	1.657177	-0.236583	-0.893448
F122	F	2.157177	0.263417	-0.393448
H123	H	1.640258	-0.939311	-0.628166
H124	H	2.140258	-0.439311	-0.128166
H125	H	1.396568	-0.939566	-0.384161
H126	H	1.896568	-0.439566	0.115839
H127	H	1.640054	-0.583552	-0.628093
H128	H	2.140054	-0.083552	-0.128093
H129	H	1.396357	-0.583800	-0.384092
H130	H	1.896357	-0.083800	0.115908
