data_functionalizedCrystal
_audit_creation_method	'MofGen! by Chris Wilmer'
_symmetry_space_group_name_H-M	'P1'
_symmetry_Int_Tables_number	1
_symmetry_cell_setting	triclinic
loop_
_symmetry_equiv_pos_as_xyz
  x,y,z
_cell_length_a	11.169417
_cell_length_b	16.120531
_cell_length_c	11.169409
_cell_angle_alpha	92.857236
_cell_angle_beta	90.019513
_cell_angle_gamma	87.066627
loop_
_atom_site_label
_atom_site_type_symbol
_atom_site_fract_x
_atom_site_fract_y
_atom_site_fract_z
Zn1	Zn	1.810560	0.331810	0.702666
Zn2	Zn	2.310560	0.831810	1.202666
Zn3	Zn	1.800194	0.471253	0.512124
Zn4	Zn	2.300194	0.971253	1.012124
Zn5	Zn	1.609842	0.331862	0.502005
Zn6	Zn	2.109842	0.831862	1.002005
Zn7	Zn	1.599603	0.471186	0.712766
Zn8	Zn	2.099603	0.971186	1.212766
O9	O	1.705050	0.401528	0.607390
O10	O	2.205050	0.901528	1.107390
O11	O	1.977134	0.350314	0.677398
O12	O	2.477134	0.850314	1.177398
O13	O	1.774891	0.452812	0.342836
O14	O	2.274891	0.952812	0.842836
O15	O	1.645091	0.215190	0.520161
O16	O	2.145091	0.715190	1.020161
O17	O	1.969518	0.452762	0.537408
O18	O	2.469518	0.952762	1.037408
O19	O	1.792557	0.215152	0.667586
O20	O	2.292557	0.715152	1.167586
O21	O	1.635040	0.350402	0.335401
O22	O	2.135040	0.850402	0.835401
O23	O	1.440535	0.350337	0.529955
O24	O	1.940535	0.850337	1.029955
O25	O	1.627640	0.452648	0.879372
O26	O	2.127640	0.952648	1.379372
O27	O	1.433012	0.452698	0.684799
O28	O	1.933012	0.952698	1.184799
O29	O	1.782629	0.350249	0.871952
O30	O	2.282629	0.850249	1.371952
O31	O	1.764962	0.587909	0.547202
O32	O	2.264962	1.087909	1.047202
O33	O	1.617589	0.587860	0.694612
O34	O	2.117589	1.087860	1.194612
C35	C	1.393226	0.401517	0.607376
C36	C	1.893226	0.901517	1.107376
C37	C	1.259825	0.401532	0.607399
C38	C	1.759825	0.901532	1.107399
C39	C	1.689072	0.618135	0.623127
C40	C	2.189072	1.118135	1.123127
C41	C	1.682347	0.710800	0.629900
C42	C	2.182347	1.210800	1.129900
C43	C	1.670075	0.880461	0.642289
C44	C	2.170075	1.380461	1.142289
C45	C	1.740070	0.921755	0.572423
C46	C	2.240070	1.421755	1.072423
C47	C	1.733242	1.016160	0.579317
C48	C	2.233242	1.516160	1.079317
C49	C	1.676902	0.786047	0.635397
C50	C	2.176902	1.286047	1.135397
C51	C	2.018091	0.401540	0.607406
C52	C	2.518091	0.901540	1.107406
C53	C	2.151491	0.401545	0.607412
C54	C	2.651491	0.901545	1.107412
C55	C	1.705149	0.401435	0.920426
C56	C	2.205149	0.901435	1.420426
C57	C	1.705191	0.401396	1.053823
C58	C	2.205191	0.901396	1.553823
C59	C	1.721080	1.184075	0.591596
C60	C	2.221080	1.684075	1.091596
C61	C	1.727802	1.091410	0.584809
C62	C	2.227802	1.591410	1.084809
C63	C	1.705025	0.401560	0.295568
C64	C	2.205025	0.901560	0.795568
C65	C	1.705232	0.401364	0.162154
C66	C	2.205232	0.901364	0.662154
H67	H	1.805122	0.886207	0.507432
H68	H	2.305122	1.386207	1.007432
H69	H	1.605026	0.916006	0.707274
H70	H	2.105026	1.416006	1.207274
