data_functionalizedCrystal
_audit_creation_method	'MofGen! by Chris Wilmer'
_symmetry_space_group_name_H-M	'P1'
_symmetry_Int_Tables_number	1
_symmetry_cell_setting	triclinic
loop_
_symmetry_equiv_pos_as_xyz
  x,y,z
_cell_length_a	15.944493
_cell_length_b	15.944493
_cell_length_c	18.366186
_cell_angle_alpha	89.999635
_cell_angle_beta	89.991519
_cell_angle_gamma	83.475044
loop_
_atom_site_label
_atom_site_type_symbol
_atom_site_fract_x
_atom_site_fract_y
_atom_site_fract_z
O1	O	1.114537	0.108104	-0.060530
O2	O	1.614537	0.608104	0.439470
O3	O	0.869978	0.121512	-0.060533
O4	O	1.369978	0.621512	0.439467
O5	O	0.998962	-0.007472	-0.060538
O6	O	1.498962	0.492528	0.439462
O7	O	0.985554	0.237088	-0.060526
O8	O	1.485554	0.737088	0.439474
O9	O	0.998940	-0.007478	0.060562
O10	O	1.498940	0.492522	0.560562
O11	O	0.869956	0.121505	0.060567
O12	O	1.369956	0.621505	0.560567
O13	O	1.114515	0.108098	0.060569
O14	O	1.614515	0.608098	0.560569
Zn15	Zn	0.992232	0.114801	0.079795
Zn16	Zn	1.492232	0.614801	0.579795
Zn17	Zn	0.992261	0.114809	-0.079759
Zn18	Zn	1.492261	0.614809	0.420241
O19	O	0.985532	0.237081	0.060574
O20	O	1.485532	0.737081	0.560574
C21	C	0.838673	0.120961	0.000016
C22	C	1.338673	0.620961	0.500016
C23	C	0.745424	0.119318	0.000015
C24	C	1.245424	0.619318	0.500015
C25	C	0.998403	-0.038769	0.000009
C26	C	1.498403	0.461231	0.500009
C27	C	0.996760	-0.132018	-0.000000
C28	C	1.496760	0.367982	0.500000
C29	C	1.072682	-0.367793	0.000014
C30	C	1.572682	0.132207	0.500014
C31	C	1.031751	-0.418350	-0.059694
C32	C	1.531751	0.081650	0.440306
C33	C	0.993716	-0.302738	0.000009
C34	C	1.493716	0.197262	0.500009
C35	C	1.031711	-0.418332	0.059700
C36	C	1.531711	0.081668	0.559700
C37	C	0.990781	-0.467647	0.000020
C38	C	1.490781	0.032353	0.500020
C39	C	0.952806	-0.352066	-0.059749
C40	C	1.452806	0.147934	0.440251
C41	C	0.952777	-0.352045	0.059699
C42	C	1.452777	0.147955	0.559699
C43	C	0.911788	-0.402569	-0.000024
C44	C	1.411788	0.097431	0.499976
C45	C	0.995408	-0.207739	0.000001
C46	C	1.495408	0.292261	0.500001
C47	C	0.989082	-0.562644	0.000023
C48	C	1.489082	-0.062644	0.500023
C49	C	0.509649	0.195240	0.000018
C50	C	1.009649	0.695240	0.500018
C51	C	0.459088	0.154295	0.059728
C52	C	0.959088	0.654295	0.559728
C53	C	0.574704	0.116273	0.000016
C54	C	1.074704	0.616273	0.500016
C55	C	0.459114	0.154283	-0.059667
C56	C	0.959114	0.654283	0.440333
C57	C	0.409795	0.113339	0.000014
C58	C	0.909795	0.613339	0.500014
C59	C	0.525372	0.075350	0.059775
C60	C	1.025372	0.575350	0.559775
C61	C	0.525401	0.075349	-0.059673
C62	C	1.025401	0.575349	0.440327
C63	C	0.474873	0.034346	0.000051
C64	C	0.974873	0.534346	0.500051
C65	C	0.669704	0.117966	0.000018
C66	C	1.169704	0.617966	0.500018
C67	C	0.314798	0.111640	0.000018
C68	C	0.814798	0.611640	0.500018
C69	C	1.145821	0.108649	0.000018
C70	C	1.645821	0.608649	0.500018
C71	C	1.239069	0.110292	0.000015
C72	C	1.739069	0.610292	0.500015
C73	C	0.986091	0.268379	0.000026
C74	C	1.486091	0.768379	0.500026
C75	C	0.987734	0.361627	0.000030
C76	C	1.487734	0.861627	0.500030
N77	N	0.992219	0.114794	0.188686
N78	N	1.492219	0.614794	0.688686
N79	N	0.992282	0.114809	-0.188650
N80	N	1.492282	0.614809	0.311350
C81	C	1.049351	0.057709	0.226784
C82	C	1.549351	0.557709	0.726784
C83	C	1.049357	0.057705	0.303012
C84	C	1.549357	0.557705	0.803012
C85	C	0.992237	0.114801	0.341139
C86	C	1.492237	0.614801	0.841139
C87	C	0.935094	0.171891	0.303031
C88	C	1.435094	0.671891	0.803031
C89	C	0.935085	0.171888	0.226805
C90	C	1.435085	0.671888	0.726805
C91	C	0.981221	0.191304	0.461903
C92	C	1.481221	0.691304	0.961903
C93	C	0.981236	0.191309	0.538128
C94	C	1.481236	0.691309	1.038128
C95	C	0.992261	0.114812	0.576246
C96	C	1.492261	0.614812	1.076246
C97	C	1.003290	0.038307	0.538131
C98	C	1.503290	0.538307	1.038131
C99	C	1.003280	0.038304	0.461904
C100	C	1.503280	0.538304	0.961904
C101	C	0.992241	0.114811	0.423794
C102	C	1.492241	0.614811	0.923794
C103	C	1.049403	0.057717	0.697000
C104	C	1.549403	0.557717	1.197000
C105	C	1.049402	0.057713	0.773229
C106	C	1.549402	0.557713	1.273229
C107	C	0.935144	0.171906	0.773246
C108	C	1.435144	0.671906	1.273246
C109	C	0.935140	0.171904	0.697019
C110	C	1.435140	0.671904	1.197019
C111	C	0.992274	0.114810	0.658900
C112	C	1.492274	0.614810	1.158900
H113	H	1.140702	-0.352179	-0.000045
H114	H	1.640702	0.147821	0.499955
Cl115	Cl	0.414440	0.205797	-0.137593
Cl116	Cl	0.914440	0.705797	0.362407
H117	H	0.888633	0.218392	0.804289
H118	H	1.388633	0.718392	1.304289
Cl119	Cl	0.901337	-0.307302	0.137639
Cl120	Cl	1.401337	0.192698	0.637639
Cl121	Cl	1.083207	-0.463012	0.137632
Cl122	Cl	1.583207	0.036988	0.637632
Cl123	Cl	0.570133	0.023913	-0.137618
Cl124	Cl	1.070133	0.523913	0.362382
H125	H	0.888621	0.218392	0.665997
H126	H	1.388621	0.718392	1.165997
Cl127	Cl	1.083251	-0.463050	-0.137629
Cl128	Cl	1.583251	0.036950	0.362371
H129	H	0.430134	0.187641	0.110210
H130	H	0.930134	0.687641	0.610210
H131	H	0.919485	-0.323237	-0.110282
H132	H	1.419485	0.176763	0.389718
H133	H	0.843715	-0.418021	-0.000057
H134	H	1.343715	0.081979	0.499943
Cl135	Cl	1.121171	-0.014069	0.178864
Cl136	Cl	1.621171	0.485931	0.678864
Cl137	Cl	0.533759	0.300255	0.000110
Cl138	Cl	1.033759	0.800255	0.500110
Cl139	Cl	0.569870	0.023890	0.137792
Cl140	Cl	1.069870	0.523890	0.637792
H141	H	1.095882	0.011217	0.334038
H142	H	1.595882	0.511217	0.834038
Cl143	Cl	1.017134	-0.057869	0.413990
Cl144	Cl	1.517134	0.442131	0.913990
Cl145	Cl	0.451007	-0.070750	0.000099
Cl146	Cl	0.951007	0.429250	0.500099
H147	H	1.012267	-0.023984	0.569165
H148	H	1.512267	0.476016	1.069165
Cl149	Cl	1.121223	-0.014061	0.649077
Cl150	Cl	1.621223	0.485939	1.149077
H151	H	1.095924	0.011222	0.804249
H152	H	1.595924	0.511222	1.304249
Cl153	Cl	0.967378	0.287485	0.586037
Cl154	Cl	1.467378	0.787485	1.086037
Cl155	Cl	0.967437	0.287484	0.413990
Cl156	Cl	1.467437	0.787484	0.913990
Cl157	Cl	0.863283	0.243667	0.350960
Cl158	Cl	1.363283	0.743667	0.850960
H159	H	0.888560	0.218375	0.195785
H160	H	1.388560	0.718375	0.695785
