data_functionalizedCrystal
_audit_creation_method	'MofGen! by Chris Wilmer'
_symmetry_space_group_name_H-M	'P1'
_symmetry_Int_Tables_number	1
_symmetry_cell_setting	triclinic
loop_
_symmetry_equiv_pos_as_xyz
  x,y,z
_cell_length_a	10.654549
_cell_length_b	17.038272
_cell_length_c	9.130313
_cell_angle_alpha	89.995195
_cell_angle_beta	89.997498
_cell_angle_gamma	87.798167
loop_
_atom_site_label
_atom_site_type_symbol
_atom_site_fract_x
_atom_site_fract_y
_atom_site_fract_z
O1	O	1.678042	0.109877	-0.121767
O2	O	1.313536	0.120345	-0.121778
O3	O	1.493623	0.001284	-0.121761
O4	O	1.497955	0.228938	-0.121784
O5	O	1.493609	0.001280	0.121838
O6	O	1.313522	0.120342	0.121821
O7	O	1.678029	0.109873	0.121832
Cu8	Cu	1.495774	0.115107	0.144069
Cu9	Cu	1.495790	0.115111	-0.144015
O10	O	1.497942	0.228935	0.121815
C11	C	1.266660	0.119575	0.000020
C12	C	1.127003	0.117275	0.000017
C13	C	1.489675	-0.027868	0.000038
C14	C	1.477918	-0.114727	0.000037
C15	C	0.922796	0.185211	0.000016
C16	C	1.054018	0.187377	0.000007
C17	C	1.068760	0.045002	0.000021
C18	C	0.937540	0.042837	0.000019
C19	C	1.585862	-0.164238	0.000042
C20	C	1.574808	-0.245851	0.000028
C21	C	1.455808	-0.277950	0.000019
C22	C	1.347856	-0.228432	0.000010
C23	C	1.358911	-0.146822	0.000014
C24	C	1.416750	-0.523926	-0.000002
C25	C	1.405702	-0.605543	-0.000001
C26	C	1.632656	-0.622956	0.000014
C27	C	1.643701	-0.541343	0.000026
C28	C	1.535749	-0.491832	0.000009
C29	C	1.444505	-0.361371	0.000010
C30	C	1.547052	-0.408413	0.000009
C31	C	1.724905	0.110643	0.000030
C32	C	1.864562	0.112943	0.000024
C33	C	1.501889	0.258087	0.000012
C34	C	1.513647	0.344946	0.000004
N35	N	1.495772	0.115104	0.346692
N36	N	1.495802	0.115109	-0.346638
C37	C	1.575546	0.062406	0.423351
C38	C	1.575558	0.062406	0.576688
C39	C	1.416019	0.167809	0.576692
C40	C	1.416002	0.167805	0.423358
H41	H	0.863381	0.242296	0.000019
C42	C	1.663313	0.004439	0.661015
C43	C	1.751075	-0.053515	0.576681
C44	C	1.838832	-0.111485	0.661008
C45	C	1.838829	-0.111500	0.829669
C46	C	1.751065	-0.053544	0.914013
C47	C	1.663307	0.004426	0.829686
H48	H	1.751080	-0.053506	0.451819
H49	H	1.903802	-0.154388	0.598570
H50	H	1.903793	-0.154413	0.892094
H51	H	1.751059	-0.053553	1.038875
H52	H	1.598337	0.047329	0.892123
C53	C	1.328285	0.225785	0.661027
C54	C	1.328375	0.225842	0.829688
C55	C	1.240641	0.283821	0.914017
C56	C	1.152817	0.341743	0.829685
C57	C	1.152723	0.341688	0.661014
C58	C	1.240457	0.283709	0.576685
H59	H	1.393390	0.182962	0.892124
H60	H	1.240710	0.283861	1.038879
H61	H	1.087871	0.384663	0.892110
H62	H	1.087708	0.384568	0.598577
H63	H	1.240388	0.283669	0.451823
H64	H	1.101426	0.246224	-0.000001
H65	H	1.128195	-0.012076	0.000020
H66	H	0.890125	-0.016016	0.000021
H67	H	1.682765	-0.138110	0.000058
H68	H	1.720544	-0.663276	0.000024
C69	C	1.693552	-0.300310	0.000038
C70	C	1.788671	-0.296280	0.126544
C71	C	1.907423	-0.350738	0.126551
C72	C	1.931057	-0.409226	0.000050
C73	C	1.835936	-0.413259	-0.126466
C74	C	1.717183	-0.358801	-0.126473
H75	H	1.771178	-0.252981	0.220196
H76	H	1.977838	-0.347752	0.220207
H77	H	2.018965	-0.449539	0.000055
H78	H	1.853428	-0.456558	-0.220118
H79	H	1.646768	-0.361787	-0.220129
H80	H	1.740603	-0.515214	0.000033
H81	H	1.308794	-0.631675	0.000016
C82	C	1.298000	-0.469475	0.000007
C83	C	1.202861	-0.473513	-0.126478
C84	C	1.084103	-0.419059	-0.126462
C85	C	1.060485	-0.360569	0.000039
C86	C	1.155627	-0.356529	0.126533
C87	C	1.274385	-0.410983	0.126517
H88	H	1.220342	-0.516813	-0.220130
H89	H	1.013673	-0.422050	-0.220102
H90	H	0.972573	-0.320259	0.000050
H91	H	1.138146	-0.313229	0.220184
H92	H	1.344815	-0.407992	0.220156
H93	H	1.351035	0.210718	0.360938
H94	H	1.250963	-0.254574	-0.000006
H95	H	1.643941	-0.382274	-0.000017
H96	H	1.271011	-0.106510	0.000010
H97	H	1.347615	-0.387515	0.000006
H98	H	1.640497	0.019492	0.360932
