data_functionalizedCrystal
_audit_creation_method	'MofGen! by Chris Wilmer'
_symmetry_space_group_name_H-M	'P1'
_symmetry_Int_Tables_number	1
_symmetry_cell_setting	triclinic
loop_
_symmetry_equiv_pos_as_xyz
  x,y,z
_cell_length_a	12.811457
_cell_length_b	14.044220
_cell_length_c	11.892095
_cell_angle_alpha	94.243827
_cell_angle_beta	91.498327
_cell_angle_gamma	88.595730
loop_
_atom_site_label
_atom_site_type_symbol
_atom_site_fract_x
_atom_site_fract_y
_atom_site_fract_z
O1	O	1.401369	0.130897	0.049656
O2	O	1.099114	0.142797	0.018668
O3	O	1.245704	-0.001185	0.033708
O4	O	1.254779	0.274879	0.034616
O5	O	1.233480	0.010802	0.220461
O6	O	1.086890	0.154783	0.205421
O7	O	1.389144	0.142883	0.236410
Zn8	Zn	1.236077	0.150736	0.250566
Zn9	Zn	1.252182	0.134944	0.004511
O10	O	1.242555	0.286865	0.221369
C11	C	1.054087	0.147756	0.108055
C12	C	0.938129	0.144663	0.096167
C13	C	0.706904	0.151903	0.277449
C14	C	0.597952	0.148997	0.266284
C15	C	0.611270	0.135939	0.062675
C16	C	0.720222	0.138845	0.073839
C17	C	0.768035	0.146828	0.181229
C18	C	0.876990	0.149741	0.192393
C19	C	0.890306	0.136676	-0.011216
C20	C	0.781354	0.133770	-0.022380
C21	C	1.235620	-0.030548	0.126678
C22	C	1.223773	-0.135899	0.125465
C23	C	1.202114	-0.328789	0.123228
C24	C	1.286141	-0.385537	0.131839
C25	C	1.274090	-0.492868	0.130595
C26	C	1.214164	-0.221448	0.124472
C27	C	1.434172	0.137924	0.147020
C28	C	1.550130	0.141016	0.158901
C29	C	1.252639	0.316228	0.128397
C30	C	1.264487	0.421578	0.129603
N31	N	1.225092	0.161514	0.418493
N32	N	1.263174	0.124159	-0.163415
C33	C	1.339602	0.049111	0.666890
C34	C	1.331932	0.056651	0.784445
C35	C	1.202079	0.184129	0.771160
C36	C	1.209748	0.176589	0.653605
C37	C	1.278513	0.109079	0.601475
C38	C	1.286188	0.101544	0.483918
C39	C	1.156329	0.229017	0.470635
C40	C	1.148659	0.236557	0.588190
H41	H	0.742409	0.127266	-0.109814
C42	C	1.092711	-0.372042	0.112009
H43	H	1.041571	-0.322325	0.106763
H44	H	1.080270	-0.406071	0.176292
H45	H	1.088795	-0.414412	0.046033
C46	C	0.558663	0.127153	-0.055441
H47	H	0.485020	0.126152	-0.048304
H48	H	0.582070	0.069737	-0.095153
H49	H	0.576432	0.180165	-0.095731
C50	C	0.957552	0.131102	-0.117061
H51	H	1.029289	0.133974	-0.095035
H52	H	0.939611	0.183156	-0.161003
H53	H	0.945254	0.072727	-0.160435
H54	H	1.367134	-0.353516	0.140067
C55	C	1.072992	0.310787	0.645531
H56	H	1.037695	0.345410	0.589730
H57	H	1.111159	0.353648	0.695619
H58	H	1.023414	0.279085	0.686603
C59	C	1.089142	0.294995	0.398677
H60	H	1.103556	0.280838	0.321198
H61	H	1.105108	0.359674	0.419713
H62	H	1.017309	0.285164	0.410714
C63	C	1.126375	0.258325	0.828505
H64	H	1.091063	0.292942	0.772708
H65	H	1.164509	0.301198	0.878611
H66	H	1.076813	0.226587	0.869557
H67	H	1.342183	0.046576	0.441475
C68	C	1.415242	-0.025142	0.609543
H69	H	1.450524	-0.059780	0.665340
H70	H	1.464819	0.006528	0.568446
H71	H	1.377037	-0.067999	0.559476
C72	C	1.399128	-0.009310	0.856404
H73	H	1.384708	0.004842	0.933882
H74	H	1.470953	0.000521	0.844356
H75	H	1.383161	-0.073997	0.835378
C76	C	0.929589	0.158521	0.310513
H77	H	1.003232	0.159534	0.303385
H78	H	0.911811	0.105516	0.350800
H79	H	0.906181	0.215944	0.350222
C80	C	0.759503	0.160665	0.395569
H81	H	0.707490	0.163262	0.451277
H82	H	0.798926	0.217274	0.403881
H83	H	0.804532	0.106843	0.404429
H84	H	0.548182	0.153134	0.344636
