data_functionalizedCrystal
_audit_creation_method	'MofGen! by Chris Wilmer'
_symmetry_space_group_name_H-M	'P1'
_symmetry_Int_Tables_number	1
_symmetry_cell_setting	triclinic
loop_
_symmetry_equiv_pos_as_xyz
  x,y,z
_cell_length_a	21.395362
_cell_length_b	16.625546
_cell_length_c	21.395355
_cell_angle_alpha	89.981524
_cell_angle_beta	89.956060
_cell_angle_gamma	90.038346
loop_
_atom_site_label
_atom_site_type_symbol
_atom_site_fract_x
_atom_site_fract_y
_atom_site_fract_z
Zn1	Zn	0.957895	-0.320753	-0.354586
Zn2	Zn	1.207895	-0.070753	-0.104586
Zn3	Zn	1.457895	0.179247	0.145414
Zn4	Zn	1.707895	0.429247	0.395414
Zn5	Zn	0.957813	-0.455568	-0.249808
Zn6	Zn	1.207813	-0.205568	0.000192
Zn7	Zn	1.457813	0.044432	0.250192
Zn8	Zn	1.707813	0.294432	0.500192
Zn9	Zn	0.853110	-0.320791	-0.249787
Zn10	Zn	1.103110	-0.070791	0.000213
Zn11	Zn	1.353110	0.179209	0.250213
Zn12	Zn	1.603110	0.429209	0.500213
Zn13	Zn	0.853095	-0.455585	-0.354513
Zn14	Zn	1.103095	-0.205585	-0.104513
Zn15	Zn	1.353095	0.044415	0.145487
Zn16	Zn	1.603095	0.294415	0.395487
O17	O	0.905478	-0.388174	-0.302174
O18	O	1.155478	-0.138174	-0.052174
O19	O	1.405478	0.111826	0.197826
O20	O	1.655478	0.361826	0.447826
O21	O	1.045562	-0.338614	-0.340726
O22	O	1.295562	-0.088614	-0.090726
O23	O	1.545562	0.161386	0.159274
O24	O	1.795562	0.411386	0.409274
O25	O	0.943896	-0.437699	-0.162128
O26	O	1.193896	-0.187699	0.087872
O27	O	1.443896	0.062301	0.337872
O28	O	1.693896	0.312301	0.587872
O29	O	0.867051	-0.207953	-0.263710
O30	O	1.117051	0.042047	-0.013710
O31	O	1.367051	0.292047	0.236290
O32	O	1.617051	0.542047	0.486290
O33	O	1.045502	-0.437662	-0.263747
O34	O	1.295502	-0.187662	-0.013747
O35	O	1.545502	0.062338	0.236253
O36	O	1.795502	0.312338	0.486253
O37	O	0.944036	-0.207926	-0.340706
O38	O	1.194036	0.042074	-0.090706
O39	O	1.444036	0.292074	0.159294
O40	O	1.694036	0.542074	0.409294
O41	O	0.866971	-0.338678	-0.162112
O42	O	1.116971	-0.088678	0.087888
O43	O	1.366971	0.161322	0.337888
O44	O	1.616971	0.411322	0.587888
O45	O	0.765430	-0.338694	-0.263640
O46	O	1.015430	-0.088694	-0.013640
O47	O	1.265430	0.161306	0.236360
O48	O	1.515430	0.411306	0.486360
O49	O	0.867024	-0.437690	-0.442201
O50	O	1.117024	-0.187690	-0.192201
O51	O	1.367024	0.062310	0.057799
O52	O	1.617024	0.312310	0.307799
O53	O	0.765419	-0.437727	-0.340582
O54	O	1.015419	-0.187727	-0.090582
O55	O	1.265419	0.062273	0.159418
O56	O	1.515419	0.312273	0.409418
O57	O	0.944021	-0.338630	-0.442254
O58	O	1.194021	-0.088630	-0.192254
O59	O	1.444021	0.161370	0.057746
O60	O	1.694021	0.411370	0.307746
O61	O	0.943881	-0.568403	-0.263676
O62	O	1.193881	-0.318403	-0.013676
O63	O	1.443881	-0.068403	0.236324
O64	O	1.693881	0.181597	0.486324
O65	O	0.866945	-0.568415	-0.340602
O66	O	1.116945	-0.318415	-0.090602
O67	O	1.366945	-0.068415	0.159398
O68	O	1.616945	0.181585	0.409398
C69	C	0.742691	-0.388217	-0.302101
C70	C	0.992691	-0.138217	-0.052101
C71	C	1.242691	0.111783	0.197899
C72	C	1.492691	0.361783	0.447899
C73	C	0.673049	-0.388255	-0.302085
C74	C	0.923049	-0.138255	-0.052085
C75	C	1.173049	0.111745	0.197915
C76	C	1.423049	0.361745	0.447915
C77	C	0.905419	-0.597665	-0.302147
C78	C	1.155419	-0.347665	-0.052147
C79	C	1.405419	-0.097665	0.197853
C80	C	1.655419	0.152335	0.447853
C81	C	0.905451	-0.687286	-0.302157
C82	C	1.155451	-0.437286	-0.052157
C83	C	1.405451	-0.187286	0.197843
C84	C	1.655451	0.062714	0.447843
C85	C	0.640347	-0.439889	-0.342088
C86	C	0.890347	-0.189889	-0.092088
C87	C	1.140347	0.060111	0.157912
C88	C	1.390347	0.310111	0.407912
C89	C	0.574911	-0.439870	-0.342116
C90	C	0.824911	-0.189870	-0.092116
C91	C	1.074911	0.060130	0.157884
C92	C	1.324911	0.310130	0.407884
C93	C	0.542181	-0.388224	-0.302129
C94	C	0.792181	-0.138224	-0.052129
C95	C	1.042181	0.111776	0.197871
C96	C	1.292181	0.361776	0.447871
C97	C	0.574892	-0.336579	-0.262123
C98	C	0.824892	-0.086579	-0.012123
C99	C	1.074892	0.163421	0.237877
C100	C	1.324892	0.413421	0.487877
C101	C	0.640326	-0.336594	-0.262101
C102	C	0.890326	-0.086594	-0.012101
C103	C	1.140326	0.163406	0.237899
C104	C	1.390326	0.413406	0.487899
C105	C	0.438456	-0.381728	-0.245724
C106	C	0.688456	-0.131728	0.004276
C107	C	0.938456	0.118272	0.254276
C108	C	1.188456	0.368272	0.504276
C109	C	0.373023	-0.381718	-0.245745
C110	C	0.623023	-0.131718	0.004255
C111	C	0.873023	0.118282	0.254255
C112	C	1.123023	0.368282	0.504255
C113	C	0.340360	-0.388171	-0.302198
C114	C	0.590360	-0.138171	-0.052198
C115	C	0.840360	0.111829	0.197802
C116	C	1.090360	0.361829	0.447802
C117	C	0.373139	-0.394651	-0.358632
C118	C	0.623139	-0.144651	-0.108632
C119	C	0.873139	0.105349	0.141368
C120	C	1.123139	0.355349	0.391368
C121	C	0.438573	-0.394666	-0.358610
C122	C	0.688573	-0.144666	-0.108610
C123	C	0.938573	0.105334	0.141390
C124	C	1.188573	0.355334	0.391390
C125	C	0.471229	-0.388201	-0.302149
C126	C	0.721229	-0.138201	-0.052149
C127	C	0.971229	0.111799	0.197851
C128	C	1.221229	0.361799	0.447851
C129	C	0.236705	-0.439787	-0.342236
C130	C	0.486705	-0.189787	-0.092236
C131	C	0.736705	0.060213	0.157764
C132	C	0.986705	0.310213	0.407764
C133	C	0.171268	-0.439762	-0.342265
C134	C	0.421268	-0.189762	-0.092265
C135	C	0.671268	0.060238	0.157735
C136	C	0.921268	0.310238	0.407735
C137	C	0.171250	-0.336475	-0.262266
C138	C	0.421250	-0.086475	-0.012266
C139	C	0.671250	0.163525	0.237734
C140	C	0.921250	0.413525	0.487734
C141	C	0.236686	-0.336496	-0.262242
C142	C	0.486686	-0.086496	-0.012242
C143	C	0.736686	0.163504	0.237758
C144	C	0.986686	0.413504	0.487758
C145	C	0.269409	-0.388157	-0.302227
C146	C	0.519409	-0.138157	-0.052227
C147	C	0.769409	0.111843	0.197773
C148	C	1.019409	0.361843	0.447773
C149	C	0.905560	-1.015462	-0.302222
C150	C	1.155560	-0.765462	-0.052222
C151	C	1.405560	-0.515462	0.197778
C152	C	1.655560	-0.265462	0.447778
C153	C	0.905528	-0.924153	-0.302206
C154	C	1.155528	-0.674153	-0.052206
C155	C	1.405528	-0.424153	0.197794
C156	C	1.655528	-0.174153	0.447794
C157	C	0.905505	-0.851377	-0.302189
C158	C	1.155505	-0.601377	-0.052189
C159	C	1.405505	-0.351377	0.197811
C160	C	1.655505	-0.101377	0.447811
C161	C	0.905474	-0.760063	-0.302174
C162	C	1.155474	-0.510063	-0.052174
C163	C	1.405474	-0.260063	0.197826
C164	C	1.655474	-0.010063	0.447826
C165	C	1.068902	-0.388132	-0.302247
C166	C	1.318902	-0.138132	-0.052247
C167	C	1.568902	0.111868	0.197753
C168	C	1.818902	0.361868	0.447753
C169	C	1.138543	-0.388114	-0.302278
C170	C	1.388543	-0.138114	-0.052278
C171	C	1.638543	0.111886	0.197722
C172	C	1.888543	0.361886	0.447722
C173	C	0.905530	-0.388158	-0.465597
C174	C	1.155530	-0.138158	-0.215597
C175	C	1.405530	0.111842	0.034403
C176	C	1.655530	0.361842	0.284403
C177	C	0.905552	-0.388151	-0.535238
C178	C	1.155552	-0.138151	-0.285238
C179	C	1.405552	0.111849	-0.035238
C180	C	1.655552	0.361849	0.214762
C181	C	0.905555	-0.177865	-0.302214
C182	C	1.155555	0.072135	-0.052214
C183	C	1.405555	0.322135	0.197786
C184	C	1.655555	0.572135	0.447786
C185	C	0.905588	-0.088244	-0.302231
C186	C	1.155588	0.161756	-0.052231
C187	C	1.405588	0.411756	0.197769
C188	C	1.655588	0.661756	0.447769
C189	C	0.945643	-0.336568	-0.567980
C190	C	1.195643	-0.086568	-0.317980
C191	C	1.445643	0.163432	-0.067980
C192	C	1.695643	0.413432	0.182020
C193	C	0.945642	-0.336534	-0.633416
C194	C	1.195642	-0.086534	-0.383416
C195	C	1.445642	0.163466	-0.133416
C196	C	1.695642	0.413466	0.116584
C197	C	0.905557	-0.388096	-0.666107
C198	C	1.155557	-0.138096	-0.416107
C199	C	1.405557	0.111904	-0.166107
C200	C	1.655557	0.361904	0.083893
C201	C	0.865459	-0.439683	-0.633357
C202	C	1.115459	-0.189683	-0.383357
C203	C	1.365459	0.060317	-0.133357
C204	C	1.615459	0.310317	0.116643
C205	C	0.865457	-0.439710	-0.567923
C206	C	1.115457	-0.189710	-0.317923
C207	C	1.365457	0.060290	-0.067923
C208	C	1.615457	0.310290	0.182077
C209	C	0.900589	-0.460699	-0.769771
C210	C	1.150589	-0.210699	-0.519771
C211	C	1.400589	0.039301	-0.269771
C212	C	1.650589	0.289301	-0.019771
C213	C	0.900596	-0.460672	-0.835204
C214	C	1.150596	-0.210672	-0.585204
C215	C	1.400596	0.039328	-0.335204
C216	C	1.650596	0.289328	-0.085204
C217	C	0.905561	-0.388011	-0.867927
C218	C	1.155561	-0.138011	-0.617927
C219	C	1.405561	0.111989	-0.367927
C220	C	1.655561	0.361989	-0.117927
C221	C	0.910532	-0.315373	-0.835210
C222	C	1.160532	-0.065373	-0.585210
C223	C	1.410532	0.184627	-0.335210
C224	C	1.660532	0.434627	-0.085210
C225	C	0.910530	-0.315401	-0.769776
C226	C	1.160530	-0.065401	-0.519776
C227	C	1.410530	0.184599	-0.269776
C228	C	1.660530	0.434599	-0.019776
C229	C	0.905555	-0.388072	-0.737059
C230	C	1.155555	-0.138072	-0.487059
C231	C	1.405555	0.111928	-0.237059
C232	C	1.655555	0.361928	0.012941
C233	C	0.945653	-0.336386	-0.971622
C234	C	1.195653	-0.086386	-0.721622
C235	C	1.445653	0.163614	-0.471622
C236	C	1.695653	0.413614	-0.221622
C237	C	0.945648	-0.336350	-1.037059
C238	C	1.195648	-0.086350	-0.787059
C239	C	1.445648	0.163650	-0.537059
C240	C	1.695648	0.413650	-0.287059
C241	C	0.865468	-0.439506	-1.036999
C242	C	1.115468	-0.189506	-0.786999
C243	C	1.365468	0.060494	-0.536999
C244	C	1.615468	0.310494	-0.286999
C245	C	0.865470	-0.439535	-0.971563
C246	C	1.115470	-0.189535	-0.721563
C247	C	1.365470	0.060465	-0.471563
C248	C	1.615470	0.310465	-0.221563
C249	C	0.905566	-0.387976	-0.938879
C250	C	1.155566	-0.137976	-0.688879
C251	C	1.405566	0.112024	-0.438879
C252	C	1.655566	0.362024	-0.188879
C253	C	0.905463	-0.388132	-0.139386
C254	C	1.155463	-0.138132	0.110614
C255	C	1.405463	0.111868	0.360614
C256	C	1.655463	0.361868	0.610614
C257	C	0.905562	-0.387912	-0.069745
C258	C	1.155562	-0.137912	0.180255
C259	C	1.405562	0.112088	0.430255
C260	C	1.655562	0.362088	0.680255
H261	H	0.666986	-0.481954	-0.374647
H262	H	0.916986	-0.231954	-0.124647
H263	H	1.166986	0.018046	0.125353
H264	H	1.416986	0.268046	0.375353
Cl265	Cl	0.894353	-0.551987	-0.876327
Cl266	Cl	1.144353	-0.301987	-0.626327
Cl267	Cl	1.394353	-0.051987	-0.376327
Cl268	Cl	1.644353	0.198013	-0.126327
Cl269	Cl	0.894366	-0.552056	-0.728639
Cl270	Cl	1.144366	-0.302056	-0.478639
Cl271	Cl	1.394366	-0.052056	-0.228639
Cl272	Cl	1.644366	0.197944	0.021361
H273	H	0.914576	-0.256257	-0.743141
H274	H	1.164576	-0.006257	-0.493141
H275	H	1.414576	0.243743	-0.243141
H276	H	1.664576	0.493743	0.006859
Cl277	Cl	0.815064	-0.504501	-0.674453
Cl278	Cl	1.065064	-0.254501	-0.424453
Cl279	Cl	1.315064	-0.004501	-0.174453
Cl280	Cl	1.565064	0.245499	0.075547
Cl281	Cl	0.996054	-0.271566	-0.930530
Cl282	Cl	1.246054	-0.021566	-0.680530
Cl283	Cl	1.496054	0.228434	-0.430530
Cl284	Cl	1.746054	0.478434	-0.180530
H285	H	0.978293	-0.294340	-1.063716
H286	H	1.228293	-0.044340	-0.813716
H287	H	1.478293	0.205660	-0.563716
H288	H	1.728293	0.455660	-0.313716
H289	H	0.144643	-0.481807	-0.374844
H290	H	0.394643	-0.231807	-0.124844
H291	H	0.644643	0.018193	0.125156
H292	H	0.894643	0.268193	0.375156
Cl293	Cl	0.815053	-0.504563	-0.526759
Cl294	Cl	1.065053	-0.254563	-0.276759
Cl295	Cl	1.315053	-0.004563	-0.026759
Cl296	Cl	1.565053	0.245437	0.223241
H297	H	0.465259	-0.399940	-0.404560
H298	H	0.715259	-0.149940	-0.154560
H299	H	0.965259	0.100060	0.095440
H300	H	1.215259	0.350060	0.345440
Cl301	Cl	0.533790	-0.504787	-0.392410
Cl302	Cl	0.783790	-0.254787	-0.142410
Cl303	Cl	1.033790	-0.004787	0.107590
Cl304	Cl	1.283790	0.245213	0.357590
Cl305	Cl	0.277800	-0.271583	-0.211947
Cl306	Cl	0.527800	-0.021583	0.038053
Cl307	Cl	0.777800	0.228417	0.288053
Cl308	Cl	1.027800	0.478417	0.538053
H309	H	0.465044	-0.376470	-0.199750
H310	H	0.715044	-0.126470	0.050250
H311	H	0.965044	0.123530	0.300250
H312	H	1.215044	0.373530	0.550250
Cl313	Cl	0.815070	-0.504390	-0.930400
Cl314	Cl	1.065070	-0.254390	-0.680400
Cl315	Cl	1.315070	-0.004390	-0.430400
Cl316	Cl	1.565070	0.245610	-0.180400
H317	H	0.548239	-0.294527	-0.229567
H318	H	0.798239	-0.044527	0.020433
H319	H	1.048239	0.205473	0.270433
H320	H	1.298239	0.455473	0.520433
Cl321	Cl	0.130110	-0.271543	-0.212000
Cl322	Cl	0.380110	-0.021543	0.038000
Cl323	Cl	0.630110	0.228457	0.288000
Cl324	Cl	0.880110	0.478457	0.538000
H325	H	0.832824	-0.481481	-1.063615
H326	H	1.082824	-0.231481	-0.813615
H327	H	1.332824	0.018519	-0.563615
H328	H	1.582824	0.268519	-0.313615
H329	H	0.263350	-0.481848	-0.374796
H330	H	0.513350	-0.231848	-0.124796
H331	H	0.763350	0.018152	0.125204
H332	H	1.013350	0.268152	0.375204
Cl333	Cl	0.332086	-0.402758	-0.429607
Cl334	Cl	0.582086	-0.152758	-0.179607
Cl335	Cl	0.832086	0.097242	0.070393
Cl336	Cl	1.082086	0.347242	0.320393
H337	H	0.914576	-0.256205	-0.861853
H338	H	1.164576	-0.006205	-0.611853
H339	H	1.414576	0.243795	-0.361853
H340	H	1.664576	0.493795	-0.111853
H341	H	0.346339	-0.376447	-0.199794
H342	H	0.596339	-0.126447	0.050206
H343	H	0.846339	0.123553	0.300206
H344	H	1.096339	0.373553	0.550206
H345	H	0.666952	-0.294545	-0.229525
H346	H	0.916952	-0.044545	0.020475
H347	H	1.166952	0.205455	0.270475
H348	H	1.416952	0.455455	0.520475
Cl349	Cl	0.996045	-0.271747	-0.526895
Cl350	Cl	1.246045	-0.021747	-0.276895
Cl351	Cl	1.496045	0.228253	-0.026895
Cl352	Cl	1.746045	0.478253	0.223105
H353	H	0.978287	-0.294524	-0.660079
H354	H	1.228287	-0.044524	-0.410079
H355	H	1.478287	0.205476	-0.160079
H356	H	1.728287	0.455476	0.089921
