data_functionalizedCrystal
_audit_creation_method	'MofGen! by Chris Wilmer'
_symmetry_space_group_name_H-M	'P1'
_symmetry_Int_Tables_number	1
_symmetry_cell_setting	triclinic
loop_
_symmetry_equiv_pos_as_xyz
  x,y,z
_cell_length_a	14.971487
_cell_length_b	14.421503
_cell_length_c	15.944493
_cell_angle_alpha	90.010165
_cell_angle_beta	83.544723
_cell_angle_gamma	89.998531
loop_
_atom_site_label
_atom_site_type_symbol
_atom_site_fract_x
_atom_site_fract_y
_atom_site_fract_z
O1	O	-1.186807	0.076966	-0.109456
O2	O	-0.926390	0.076996	-0.122564
O3	O	-1.063737	0.076988	0.006262
O4	O	-1.049460	0.076974	-0.238281
O5	O	-1.063714	-0.077235	0.006243
O6	O	-0.926367	-0.077227	-0.122583
O7	O	-1.186785	-0.077257	-0.109475
Cu8	Cu	-1.056574	-0.091324	-0.116031
Cu9	Cu	-1.056601	0.091063	-0.116008
O10	O	-1.049438	-0.077249	-0.238300
C11	C	-0.893055	-0.000112	-0.121987
C12	C	-0.793760	-0.000100	-0.120230
C13	C	-0.736436	-0.000104	-0.195911
C14	C	-0.643139	-0.000116	-0.194256
C15	C	-0.607167	-0.000117	-0.116917
C16	C	-0.664499	-0.000115	-0.041230
C17	C	-0.757794	-0.000110	-0.042887
C18	C	-0.470041	-0.000123	-0.037782
C19	C	-0.376739	-0.000127	-0.036125
C20	C	-0.355386	-0.000129	-0.189151
C21	C	-0.448681	-0.000124	-0.190808
C22	C	-0.506006	-0.000121	-0.115120
N23	N	-1.056562	-0.219605	-0.116046
C24	C	-0.993041	-0.469255	-0.175588
C25	C	-1.073861	-0.531069	-0.191973
C26	C	-1.056583	-0.408767	-0.116026
C27	C	-0.975784	-0.531047	-0.099661
C28	C	-1.056597	-0.591488	-0.116009
C29	C	-1.137444	-0.469219	-0.132449
C30	C	-1.039314	-0.469193	-0.040103
C31	C	-1.120192	-0.530978	-0.056456
C32	C	-1.056574	-0.303506	-0.116038
C33	C	-1.056616	-0.696747	-0.115996
C34	C	-0.220120	-0.000142	-0.110051
C35	C	-0.319415	-0.000131	-0.111806
C36	C	-1.063142	-0.000120	0.037547
C37	C	-1.061393	-0.000108	0.130798
N38	N	-1.056620	0.219344	-0.115986
C39	C	-1.050033	-0.000139	-0.269586
C40	C	-1.051782	-0.000145	-0.362836
C41	C	-1.142238	-0.000134	0.366481
C42	C	-1.098653	0.075910	0.417100
C43	C	-1.058151	-0.000119	0.301522
C44	C	-1.098611	-0.076142	0.417057
C45	C	-1.055027	-0.000133	0.466434
C46	C	-1.014588	0.075989	0.350913
C47	C	-1.014559	-0.076132	0.350867
C48	C	-0.970911	-0.000068	0.401453
C49	C	-1.059954	-0.000109	0.206520
C50	C	-1.053217	-0.000136	0.561433
H51	H	-0.308707	-0.000136	-0.250778
H52	H	-0.765717	-0.000103	-0.258889
O53	O	-1.091454	-0.563551	-0.268495
C54	C	-1.170588	-0.617320	-0.258547
H55	H	-1.213360	-0.596191	-0.197867
H56	H	-1.210187	-0.605414	-0.314622
H57	H	-1.152206	-0.693833	-0.255108
H58	H	-0.347454	-0.000128	0.026851
H59	H	-0.596469	-0.000118	-0.255883
O60	O	-0.483513	0.000006	-0.265988
C61	C	-0.454232	0.079890	-0.312104
H62	H	-0.389531	0.106513	-0.289138
H63	H	-0.441267	0.061928	-0.382045
H64	H	-0.508219	0.135825	-0.302422
H65	H	-1.134173	0.140193	0.446019
H66	H	-0.898424	-0.000019	0.416988
H67	H	-0.979068	-0.140417	0.321932
O68	O	-0.972340	0.152751	0.316458
C69	C	-0.974545	0.151842	0.228290
H70	H	-1.032824	0.106763	0.212244
H71	H	-0.983945	0.225568	0.205036
H72	H	-0.908653	0.122463	0.196297
O73	O	-1.141104	-0.152744	0.451574
C74	C	-1.213793	-0.125456	0.510349
H75	H	-1.235702	-0.052320	0.494832
H76	H	-1.272325	-0.175399	0.507101
H77	H	-1.192131	-0.126582	0.576639
O78	O	-0.525599	-0.000074	0.035818
C79	C	-0.473847	-0.000093	0.104435
H80	H	-0.404209	0.029095	0.083188
H81	H	-0.508269	0.044694	0.157470
H82	H	-0.467214	-0.074079	0.128134
H83	H	-0.939360	-0.442154	-0.225998
O84	O	-0.629663	0.000009	0.033949
C85	C	-0.658941	0.079898	0.080090
H86	H	-0.723644	0.106526	0.057136
H87	H	-0.671901	0.061939	0.150026
H88	H	-0.604954	0.135828	0.070421
O89	O	-0.813573	0.000022	0.030574
C90	C	-0.868163	0.079909	0.034215
H91	H	-0.872866	0.106537	-0.032460
H92	H	-0.938289	0.061947	0.065428
H93	H	-0.837480	0.135839	0.072620
H94	H	-1.205796	-0.442174	-0.146360
H95	H	-1.173993	-0.557909	-0.006076
H96	H	-1.024669	-0.441993	0.024074
O97	O	-0.894222	-0.563289	-0.083100
C98	C	-0.836749	-0.487818	-0.072306
H99	H	-0.878710	-0.423631	-0.053418
H100	H	-0.792449	-0.504930	-0.020735
H101	H	-0.792614	-0.473865	-0.134036
O102	O	-1.228647	0.000126	0.347755
C103	C	-1.272673	0.080447	0.381651
H104	H	-1.220735	0.136191	0.391047
H105	H	-1.320572	0.107001	0.336334
H106	H	-1.312312	0.063097	0.444978
