data_functionalizedCrystal
_audit_creation_method	'MofGen! by Chris Wilmer'
_symmetry_space_group_name_H-M	'P1'
_symmetry_Int_Tables_number	1
_symmetry_cell_setting	triclinic
loop_
_symmetry_equiv_pos_as_xyz
  x,y,z
_cell_length_a	25.639243
_cell_length_b	21.395362
_cell_length_c	21.395356
_cell_angle_alpha	90.027652
_cell_angle_beta	90.018941
_cell_angle_gamma	90.032515
loop_
_atom_site_label
_atom_site_type_symbol
_atom_site_fract_x
_atom_site_fract_y
_atom_site_fract_z
Zn1	Zn	0.799273	-0.249422	0.354295
Zn2	Zn	0.799205	-0.354194	0.249514
Zn3	Zn	0.711845	-0.249440	0.249527
Zn4	Zn	0.711808	-0.354170	0.354250
O5	O	0.755533	-0.301807	0.301897
O6	O	0.872429	-0.263323	0.340409
O7	O	0.787604	-0.340316	0.161838
O8	O	0.723486	-0.161759	0.263450
O9	O	0.872379	-0.340299	0.263427
O10	O	0.787719	-0.161746	0.340422
O11	O	0.723420	-0.263353	0.161848
O12	O	0.638674	-0.263330	0.263405
O13	O	0.723423	-0.340258	0.441934
O14	O	0.638647	-0.340275	0.340344
O15	O	0.787683	-0.263299	0.441967
O16	O	0.787568	-0.441869	0.263383
O17	O	0.723358	-0.441851	0.340332
C18	C	0.755466	-0.464594	0.301864
C19	C	0.755485	-0.534235	0.301872
C20	C	0.619690	-0.301802	0.301872
C21	C	0.561576	-0.301816	0.301876
C22	C	0.788912	-0.566885	0.341980
C23	C	0.788930	-0.632320	0.341995
C24	C	0.755527	-0.665104	0.301891
C25	C	0.722094	-0.632447	0.261780
C26	C	0.722073	-0.567012	0.261770
C27	C	0.751464	-0.768811	0.245452
C28	C	0.751489	-0.834244	0.245461
C29	C	0.755589	-0.866924	0.301921
C30	C	0.759676	-0.834164	0.358375
C31	C	0.759655	-0.768730	0.358365
C32	C	0.755546	-0.736056	0.301897
C33	C	0.789038	-0.970526	0.342050
C34	C	0.789053	-1.035963	0.342066
C35	C	0.722219	-1.036088	0.261845
C36	C	0.722201	-0.970653	0.261834
C37	C	0.755614	-0.937876	0.301936
C38	C	0.201233	-0.261788	0.342048
C39	C	0.146629	-0.261788	0.342052
O40	O	0.118409	-0.227743	0.376177
N41	N	0.119294	-0.301805	0.301914
C42	C	0.146565	-0.341821	0.261765
O43	O	0.118301	-0.375858	0.227624
C44	C	0.201169	-0.341817	0.261758
C45	C	0.228501	-0.301802	0.301903
C46	C	0.228566	-0.221775	0.382190
C47	C	0.283166	-0.221777	0.382186
C48	C	0.310434	-0.261791	0.342042
C49	C	0.283102	-0.301804	0.301900
C50	C	0.228439	-0.381830	0.221606
C51	C	0.283046	-0.381823	0.221603
C52	C	0.310379	-0.341807	0.261748
C53	C	0.364970	-0.341819	0.261752
N54	N	0.392306	-0.301802	0.301890
C55	C	0.365038	-0.261788	0.342035
C56	C	0.031895	-0.341823	0.261781
C57	C	-0.022708	-0.341830	0.261790
C58	C	-0.022640	-0.261796	0.342077
C59	C	0.031963	-0.261793	0.342070
C60	C	0.059230	-0.301806	0.301919
C61	C	0.479703	-0.261795	0.342026
C62	C	0.534308	-0.261801	0.342021
C63	C	0.534236	-0.341833	0.261732
C64	C	0.479635	-0.341829	0.261739
C65	C	0.452370	-0.301804	0.301888
O66	O	0.393224	-0.375845	0.227643
O67	O	0.393309	-0.227751	0.376164
C68	C	0.891906	-0.301811	0.301922
C69	C	0.950020	-0.301813	0.301933
C70	C	0.755557	-0.301774	0.465320
C71	C	0.755567	-0.301760	0.534961
C72	C	0.755614	-0.138383	0.301943
C73	C	0.755649	-0.068742	0.301962
C74	C	0.755539	-0.301794	0.139109
C75	C	0.755630	-0.301632	0.069468
C76	C	0.789046	-0.341703	1.036753
C77	C	0.789036	-0.341723	0.971318
C78	C	0.755617	-0.301660	0.938600
C79	C	0.722194	-0.261586	0.971323
C80	C	0.722201	-0.261572	1.036757
C81	C	0.751506	-0.245233	0.834946
C82	C	0.751503	-0.245247	0.769513
C83	C	0.755593	-0.301705	0.736779
C84	C	0.759697	-0.358151	0.769485
C85	C	0.759704	-0.358137	0.834920
C86	C	0.755605	-0.301672	0.867647
C87	C	0.789001	-0.341801	0.633111
C88	C	0.788988	-0.341822	0.567675
C89	C	0.722148	-0.261680	0.567681
C90	C	0.722158	-0.261664	0.633116
C91	C	0.755587	-0.301724	0.665828
H92	H	0.816117	-0.540200	0.374634
H93	H	0.748165	-0.860913	0.199493
O94	O	0.821445	-0.380642	1.068602
C95	C	0.791669	-0.421115	1.106426
H96	H	0.752053	-0.399024	1.116221
H97	H	0.785909	-0.467557	1.081201
C98	C	0.869095	-0.459561	1.156559
C99	C	0.820440	-0.432426	1.168593
H100	H	0.886842	-0.466541	1.194905
H101	H	0.889156	-0.432295	1.131074
H102	H	0.864288	-0.498260	1.135536
H103	H	0.825247	-0.393725	1.189608
H104	H	0.800380	-0.459686	1.194083
O105	O	-0.049191	-0.223009	0.381103
C106	C	-0.080770	-0.258737	0.421516
H107	H	-0.088975	-0.306191	0.399334
H108	H	-0.059717	-0.265679	0.467936
C109	C	-0.122543	-0.166000	0.460166
C110	C	-0.132624	-0.224282	0.432919
H111	H	-0.154528	-0.144746	0.467202
H112	H	-0.101267	-0.141928	0.432941
H113	H	-0.104998	-0.171793	0.498846
H114	H	-0.150163	-0.218487	0.394236
H115	H	-0.153905	-0.248352	0.460138
O116	O	0.689683	-0.222733	1.068566
C117	C	0.655912	-0.258399	1.106410
H118	H	0.652661	-0.307751	1.086679
H119	H	0.672082	-0.260542	1.156005
C120	C	0.605565	-0.167179	1.131644
C121	C	0.601568	-0.227793	1.107406
H122	H	0.572043	-0.148299	1.132261
H123	H	0.628318	-0.143149	1.106149
H124	H	0.619042	-0.168974	1.172971
H125	H	0.588097	-0.225996	1.066078
H126	H	0.578811	-0.251821	1.132894
H127	H	0.816146	-0.658908	0.374663
O128	O	0.821547	-0.380671	0.939626
C129	C	0.851041	-0.416039	0.982529
H130	H	0.852869	-0.390367	1.029181
H131	H	0.831874	-0.463624	0.989471
C132	C	0.904433	-0.456602	0.899700
C133	C	0.906683	-0.425069	0.956998
H134	H	0.938755	-0.462175	0.883951
H135	H	0.884561	-0.432776	0.870795
H136	H	0.888458	-0.496253	0.905493
H137	H	0.922651	-0.385416	0.951203
H138	H	0.926558	-0.448889	0.985902
H139	H	0.816219	-0.374421	0.659746
H140	H	0.816196	-0.374458	0.541039
H141	H	0.206195	-0.414414	0.188915
H142	H	0.694936	-0.229062	0.541043
O143	O	0.309632	-0.182840	0.421197
C144	C	0.273847	-0.147536	0.456634
H145	H	0.234917	-0.145345	0.430975
H146	H	0.268046	-0.170539	0.504181
C147	C	0.342994	-0.083550	0.497293
C148	C	0.295181	-0.080854	0.465775
H149	H	0.356155	-0.042417	0.502934
H150	H	0.367104	-0.107336	0.473420
H151	H	0.338154	-0.102722	0.536912
H152	H	0.300024	-0.061689	0.426155
H153	H	0.271073	-0.057063	0.489642
H154	H	0.816273	-1.062545	0.374730
H155	H	0.762981	-0.742057	0.404331
H156	H	0.748123	-0.742208	0.199472
H157	H	0.206370	-0.189188	0.414880
H158	H	0.763016	-0.860770	0.404351
O159	O	0.689718	-0.939030	0.222808
C160	C	0.660230	-0.981995	0.187424
H161	H	0.681660	-1.028616	0.185288
H162	H	0.620510	-0.988983	0.210321
C163	C	0.626402	-0.899247	0.123350
C164	C	0.652726	-0.956507	0.120722
H165	H	0.621771	-0.883525	0.082207
H166	H	0.646268	-0.870301	0.147190
H167	H	0.593305	-0.905079	0.142434
H168	H	0.685825	-0.950674	0.101646
H169	H	0.632866	-0.985452	0.096877
O170	O	0.689621	-0.664358	0.222909
C171	C	0.655837	-0.702214	0.258548
H172	H	0.674257	-0.711966	0.306053
H173	H	0.617079	-0.677037	0.265386
C174	C	0.623786	-0.752424	0.165727
C175	C	0.646411	-0.764406	0.224071
H176	H	0.617969	-0.790786	0.144459
H177	H	0.646545	-0.726918	0.141716
H178	H	0.591490	-0.731442	0.171433
H179	H	0.678709	-0.785381	0.218364
H180	H	0.623658	-0.789917	0.248080
H181	H	0.556447	-0.374413	0.229048
H182	H	0.054092	-0.374413	0.229086
O183	O	0.763579	-0.412996	0.737674
C184	C	0.719068	-0.421080	0.699801
H185	H	0.685461	-0.392322	0.719515
H186	H	0.728080	-0.404872	0.650213
C187	C	0.744948	-0.525976	0.674574
C188	C	0.703670	-0.490658	0.698790
H189	H	0.735451	-0.568895	0.673948
H190	H	0.774938	-0.520529	0.700088
H191	H	0.752454	-0.512462	0.633253
H192	H	0.696169	-0.504167	0.740113
H193	H	0.673679	-0.496109	0.673284
H194	H	0.305244	-0.414406	0.188905
O195	O	0.689686	-0.222674	0.664802
C196	C	0.660176	-0.187328	0.621896
H197	H	0.681587	-0.185169	0.575258
H198	H	0.620455	-0.210274	0.614922
C199	C	0.626378	-0.123290	0.704731
C200	C	0.652677	-0.120634	0.647451
H201	H	0.621750	-0.082151	0.720495
H202	H	0.646257	-0.147105	0.733639
H203	H	0.593280	-0.142414	0.698912
H204	H	0.685777	-0.101518	0.653272
H205	H	0.632803	-0.096815	0.618545
O206	O	0.453162	-0.380724	0.222690
C207	C	0.488942	-0.416057	0.187272
H208	H	0.527877	-0.390392	0.185149
H209	H	0.494731	-0.463672	0.210131
C210	C	0.419788	-0.456521	0.123179
C211	C	0.467608	-0.424997	0.120567
H212	H	0.406628	-0.462038	0.082033
H213	H	0.395682	-0.432719	0.147042
H214	H	0.424619	-0.496197	0.142231
H215	H	0.462775	-0.385318	0.101523
H216	H	0.491713	-0.448792	0.096700
H217	H	0.816243	-0.943838	0.374704
H218	H	0.694852	-0.540429	0.229109
O219	O	0.763667	-0.413023	0.866594
C220	C	0.767290	-0.462860	0.823677
H221	H	0.749725	-0.448039	0.777031
H222	H	0.810009	-0.475874	0.816729
C223	C	0.758841	-0.537941	0.906488
C224	C	0.737264	-0.519740	0.849197
H225	H	0.740322	-0.573029	0.922230
H226	H	0.756402	-0.504366	0.935402
H227	H	0.794440	-0.548782	0.900689
H228	H	0.701668	-0.508892	0.854997
H229	H	0.739696	-0.553316	0.820284
O230	O	0.747491	-0.190364	0.737842
C231	C	0.743887	-0.140529	0.780763
H232	H	0.728731	-0.158786	0.827397
H233	H	0.784088	-0.118818	0.787741
C234	C	0.724737	-0.068335	0.697951
C235	C	0.706117	-0.090757	0.755226
H236	H	0.701441	-0.037631	0.682198
H237	H	0.727167	-0.101909	0.669033
H238	H	0.758237	-0.050247	0.703773
H239	H	0.672621	-0.108852	0.749401
H240	H	0.703681	-0.057185	0.784142
H241	H	0.748209	-0.199252	0.861593
O242	O	0.689705	-0.222756	0.939474
C243	C	0.655909	-0.258438	0.901616
H244	H	0.674327	-0.305922	0.891806
H245	H	0.617161	-0.265319	0.926821
C246	C	0.623831	-0.165659	0.851516
C247	C	0.646455	-0.223977	0.839463
H248	H	0.617997	-0.144401	0.813178
H249	H	0.646599	-0.141619	0.877023
H250	H	0.591544	-0.171401	0.872521
H251	H	0.678744	-0.218234	0.818465
H252	H	0.623693	-0.248015	0.813951
H253	H	0.695018	-1.062780	0.229196
H254	H	0.556560	-0.229216	0.374714
O255	O	0.453303	-0.222899	0.381088
C256	C	0.489145	-0.187578	0.416503
H257	H	0.528055	-0.213249	0.418612
H258	H	0.494969	-0.139960	0.393649
C259	C	0.420081	-0.147112	0.480618
C260	C	0.467869	-0.178645	0.483214
H261	H	0.406956	-0.141599	0.521768
H262	H	0.395932	-0.170906	0.456758
H263	H	0.424940	-0.107434	0.461571
H264	H	0.463008	-0.218325	0.502254
H265	H	0.492016	-0.154856	0.507079
H266	H	0.054214	-0.229207	0.374759
H267	H	-0.044957	-0.374422	0.229107
