data_functionalizedCrystal
_audit_creation_method	'MofGen! by Chris Wilmer'
_symmetry_space_group_name_H-M	'P1'
_symmetry_Int_Tables_number	1
_symmetry_cell_setting	triclinic
loop_
_symmetry_equiv_pos_as_xyz
  x,y,z
_cell_length_a	17.077404
_cell_length_b	12.759400
_cell_length_c	17.077396
_cell_angle_alpha	90.022949
_cell_angle_beta	90.019777
_cell_angle_gamma	90.009670
loop_
_atom_site_label
_atom_site_type_symbol
_atom_site_fract_x
_atom_site_fract_y
_atom_site_fract_z
Zn1	Zn	1.200102	-0.418396	0.443879
Zn2	Zn	1.200028	-0.594096	0.312625
Zn3	Zn	1.068833	-0.418418	0.312626
Zn4	Zn	1.068821	-0.594019	0.443848
O5	O	1.134446	-0.506232	0.378245
O6	O	1.309939	-0.441726	0.426480
O7	O	1.182600	-0.570834	0.202778
O8	O	1.086282	-0.271394	0.330050
O9	O	1.309885	-0.570812	0.330049
O10	O	1.182724	-0.271378	0.426481
O11	O	1.086211	-0.441763	0.202779
O12	O	0.958985	-0.441688	0.330020
O13	O	1.086261	-0.570681	0.553699
O14	O	0.958976	-0.570702	0.426429
O15	O	1.182712	-0.441651	0.553722
O16	O	1.182588	-0.741107	0.330019
O17	O	1.086190	-0.741050	0.426428
C18	C	0.930498	-0.506190	0.378222
C19	C	0.843248	-0.506197	0.378231
C20	C	0.467450	-0.573560	0.428388
C21	C	0.549430	-0.573546	0.428376
C22	C	0.590400	-0.506260	0.378257
C23	C	0.549384	-0.438991	0.328141
C24	C	0.467405	-0.439010	0.328150
C25	C	0.720254	-0.438952	0.328128
C26	C	0.802239	-0.438931	0.328120
C27	C	0.802279	-0.573488	0.428355
C28	C	0.720300	-0.573508	0.428363
C29	C	0.679291	-0.506237	0.378248
C30	C	1.134401	-0.779199	0.378238
C31	C	1.134453	-0.895976	0.378261
C32	C	1.084249	-0.950847	0.428421
C33	C	1.084290	-1.060571	0.428429
C34	C	1.184748	-1.060544	0.328113
C35	C	1.184702	-0.950822	0.328102
C36	C	1.034000	-0.896001	0.478580
C37	C	0.983791	-0.950872	0.528745
C38	C	0.983833	-1.060596	0.528752
C39	C	1.034083	-1.115449	0.478595
C40	C	1.339190	-0.506275	0.378268
C41	C	1.426440	-0.506293	0.378278
C42	C	1.134494	-0.506155	0.582989
C43	C	1.134514	-0.506122	0.670239
C44	C	1.134513	-0.232199	0.378269
C45	C	1.134541	-0.115422	0.378279
C46	C	1.134444	-0.506233	0.174297
C47	C	1.134576	-0.505970	0.087047
C48	C	1.184738	-0.438930	0.711242
C49	C	1.184747	-0.438895	0.793222
C50	C	1.134536	-0.506058	0.834198
C51	C	1.084307	-0.573252	0.793189
C52	C	1.084294	-0.573281	0.711210
C53	C	1.084338	-0.573189	0.964060
C54	C	1.084352	-0.573162	1.046044
C55	C	1.184792	-0.438803	1.046071
C56	C	1.184779	-0.438832	0.964092
C57	C	1.134550	-0.506028	0.923089
H58	H	0.582748	-0.384210	0.287330
H59	H	1.043388	-0.627985	0.677827
H60	H	1.033962	-0.806658	0.478581
H61	H	1.225661	-1.105214	0.287278
H62	H	1.034111	-1.204794	0.478603
C63	C	1.029066	-0.647121	0.838266
N64	N	0.987457	-0.702761	0.872217
H65	H	0.434099	-0.628346	0.469205
C66	C	1.239937	-0.890461	0.272929
N67	N	1.281541	-0.844996	0.231372
C68	C	0.594537	-0.647548	0.483499
N69	N	0.628511	-0.703292	0.525018
C70	C	0.847392	-0.647490	0.483479
N71	N	0.881374	-0.703224	0.525000
H72	H	1.225628	-0.384242	0.677885
H73	H	1.225646	-0.384184	0.826603
C74	C	0.422295	-0.365010	0.273026
N75	N	0.388319	-0.309271	0.231504
H76	H	1.225670	-0.384149	0.930732
C77	C	1.240043	-0.364886	1.091176
N78	N	1.281660	-0.309217	1.125153
H79	H	1.043464	-0.627849	1.079405
H80	H	0.942875	-0.906205	0.569577
H81	H	1.043424	-0.627891	0.930677
H82	H	0.686866	-0.384171	0.287321
H83	H	0.942946	-1.105269	0.569595
H84	H	0.686945	-0.628293	0.469178
C85	C	0.847303	-0.364922	0.272980
N86	N	0.881246	-0.309179	0.231446
