data_functionalizedCrystal
_audit_creation_method	'MofGen! by Chris Wilmer'
_symmetry_space_group_name_H-M	'P1'
_symmetry_Int_Tables_number	1
_symmetry_cell_setting	triclinic
loop_
_symmetry_equiv_pos_as_xyz
  x,y,z
_cell_length_a	12.759401
_cell_length_b	16.120444
_cell_length_c	12.759393
_cell_angle_alpha	87.135249
_cell_angle_beta	90.020938
_cell_angle_gamma	92.928028
loop_
_atom_site_label
_atom_site_type_symbol
_atom_site_fract_x
_atom_site_fract_y
_atom_site_fract_z
Zn1	Zn	1.584977	-0.331834	0.615188
Zn2	Zn	2.084977	0.168166	1.115188
Zn3	Zn	1.575922	-0.471270	0.448403
Zn4	Zn	2.075922	0.028730	0.948403
Zn5	Zn	1.409273	-0.331878	0.439526
Zn6	Zn	1.909273	0.168122	0.939526
Zn7	Zn	1.400325	-0.471211	0.624037
Zn8	Zn	1.900325	0.028789	1.124037
O9	O	1.492624	-0.401548	0.531788
O10	O	1.992624	0.098452	1.031788
O11	O	1.730796	-0.350336	0.593076
O12	O	2.230796	0.149664	1.093076
O13	O	1.553771	-0.452822	0.300207
O14	O	2.053771	0.047178	0.800207
O15	O	1.440114	-0.215206	0.455410
O16	O	1.940114	0.284794	0.955410
O17	O	1.724144	-0.452779	0.470539
O18	O	2.224144	0.047221	0.970539
O19	O	1.569203	-0.215173	0.584468
O20	O	2.069203	0.284827	1.084468
O21	O	1.431334	-0.350411	0.293685
O22	O	1.931334	0.149589	0.793685
O23	O	1.261065	-0.350355	0.463990
O24	O	1.761065	0.149645	0.963990
O25	O	1.424865	-0.452680	0.769881
O26	O	1.924865	0.047320	1.269881
O27	O	1.254492	-0.452723	0.599549
O28	O	1.754492	0.047277	1.099549
O29	O	1.560527	-0.350279	0.763380
O30	O	2.060527	0.149721	1.263380
O31	O	1.545095	-0.587928	0.479119
O32	O	2.045095	-0.087928	0.979119
O33	O	1.416085	-0.587885	0.608156
O34	O	1.916085	-0.087885	1.108156
C35	C	1.219658	-0.401538	0.531767
C36	C	1.719658	0.098462	1.031767
C37	C	1.102880	-0.401554	0.531784
C38	C	1.602880	0.098446	1.031784
C39	C	1.044617	-0.454938	0.602269
C40	C	1.544617	0.045062	1.102269
C41	C	0.934893	-0.454941	0.602290
C42	C	1.434893	0.045059	1.102290
C43	C	0.941704	-0.348174	0.461332
C44	C	1.441704	0.151826	0.961332
C45	C	1.051426	-0.348167	0.461317
C46	C	1.551426	0.151833	0.961317
C47	C	1.478665	-0.618157	0.545584
C48	C	1.978665	-0.118157	1.045584
C49	C	1.472789	-0.710823	0.551521
C50	C	1.972789	-0.210823	1.051521
C51	C	1.523362	-0.921766	0.501216
C52	C	2.023362	-0.421766	1.001216
C53	C	1.462081	-0.880479	0.562372
C54	C	1.962081	-0.380479	1.062372
C55	C	1.468041	-0.786073	0.556333
C56	C	1.968041	-0.286073	1.056333
C57	C	1.517404	-1.016180	0.507254
C58	C	2.017404	-0.516180	1.007254
C59	C	1.766657	-0.401559	0.531811
C60	C	2.266657	0.098441	1.031811
C61	C	1.883433	-0.401564	0.531820
C62	C	2.383433	0.098436	1.031820
C63	C	1.492708	-0.401468	0.805817
C64	C	1.992708	0.098532	1.305817
C65	C	1.492744	-0.401434	0.922591
C66	C	1.992744	0.098566	1.422591
C67	C	1.506667	-0.184094	0.517962
C68	C	2.006667	0.315906	1.017962
C69	C	1.512651	-0.091428	0.512070
C70	C	2.012651	0.408572	1.012070
C71	C	1.492605	-0.401568	0.258822
C72	C	1.992605	0.098432	0.758822
C73	C	1.492788	-0.401367	0.142033
C74	C	1.992788	0.098633	0.642033
C75	C	1.563389	-0.348106	0.974069
C76	C	2.063389	0.151894	1.474069
C77	C	1.563409	-0.348070	1.083791
C78	C	2.063409	0.151930	1.583791
C79	C	1.422135	-0.454698	1.090548
C80	C	1.922135	0.045302	1.590548
C81	C	1.422111	-0.454729	0.980828
C82	C	1.922111	0.045271	1.480828
H83	H	1.086508	-0.498406	0.659650
H84	H	1.586508	0.001594	1.159650
F85	F	0.872891	-0.511758	0.677312
F86	F	1.372891	-0.011758	1.177312
H87	H	1.620900	-0.304707	0.926656
H88	H	2.120900	0.195293	1.426656
H89	H	0.899797	-0.304709	0.403958
H90	H	1.399797	0.195291	0.903958
F91	F	1.638606	-0.291316	1.138573
F92	F	2.138606	0.208684	1.638573
H93	H	1.098866	-0.304690	0.403919
H94	H	1.598866	0.195310	0.903919
F95	F	1.346971	-0.511417	1.152536
F96	F	1.846971	-0.011417	1.652536
F97	F	1.597782	-0.875297	0.426856
F98	F	2.097782	-0.375297	0.926856
F99	F	1.387652	-0.926948	0.636733
F100	F	1.887652	-0.426948	1.136733
F101	F	1.346912	-0.511487	0.926037
F102	F	1.846912	-0.011487	1.426037
