data_functionalizedCrystal
_audit_creation_method	'MofGen! by Chris Wilmer'
_symmetry_space_group_name_H-M	'P1'
_symmetry_Int_Tables_number	1
_symmetry_cell_setting	triclinic
loop_
_symmetry_equiv_pos_as_xyz
  x,y,z
_cell_length_a	15.711784
_cell_length_b	15.625429
_cell_length_c	14.750779
_cell_angle_alpha	120.092833
_cell_angle_beta	106.501624
_cell_angle_gamma	78.971058
loop_
_atom_site_label
_atom_site_type_symbol
_atom_site_fract_x
_atom_site_fract_y
_atom_site_fract_z
O1	O	1.084669	-0.539499	-0.267634
O2	O	1.584669	-0.039499	0.232366
O3	O	0.838887	-0.466571	-0.242244
O4	O	1.338887	0.033429	0.257756
O5	O	0.979704	-0.366024	-0.207248
O6	O	1.479704	0.133976	0.292752
O7	O	0.943852	-0.640046	-0.302629
O8	O	1.443852	-0.140046	0.197371
O9	O	1.019511	-0.337606	-0.037707
O10	O	1.519511	0.162394	0.462293
O11	O	0.878694	-0.438152	-0.072703
O12	O	1.378694	0.061848	0.427297
O13	O	1.124476	-0.511081	-0.098092
O14	O	1.624476	-0.011081	0.401908
Zn15	Zn	1.007905	-0.470104	-0.058479
Zn16	Zn	1.507905	0.029896	0.441521
Zn17	Zn	0.955458	-0.507547	-0.281857
Zn18	Zn	1.455458	-0.007547	0.218143
O19	O	0.983659	-0.611627	-0.133088
O20	O	1.483659	-0.111627	0.366912
C21	C	0.827547	-0.440448	-0.153326
C22	C	1.327547	0.059552	0.346674
C23	C	0.734452	-0.404938	-0.140964
C24	C	1.234452	0.095062	0.359036
C25	C	0.620283	-0.271258	-0.094432
C26	C	1.120283	0.228742	0.405568
C27	C	0.707758	-0.304634	-0.106051
C28	C	1.207758	0.195366	0.393949
C29	C	0.673673	-0.471907	-0.164279
C30	C	1.173673	0.028093	0.335721
C31	C	0.586192	-0.438545	-0.152670
C32	C	1.086192	0.061455	0.347330
C33	C	0.559505	-0.338220	-0.117745
C34	C	1.059505	0.161780	0.382255
C35	C	0.525415	-0.505507	-0.175983
C36	C	1.025415	-0.005507	0.324017
C37	C	0.437943	-0.472147	-0.164370
C38	C	0.937943	0.027853	0.335630
C39	C	0.411249	-0.371825	-0.129443
C40	C	0.911249	0.128175	0.370557
C41	C	0.472033	-0.304860	-0.106132
C42	C	0.972033	0.195140	0.393868
C43	C	0.552106	-0.605831	-0.210900
C44	C	1.052106	-0.105831	0.289100
C45	C	0.491328	-0.672793	-0.234213
C46	C	0.991328	-0.172793	0.265787
C47	C	0.403853	-0.639434	-0.222607
C48	C	0.903853	-0.139434	0.277393
C49	C	0.377159	-0.539113	-0.187681
C50	C	0.877159	-0.039113	0.312319
C51	C	0.343068	-0.706400	-0.245918
C52	C	0.843068	-0.206400	0.254082
C53	C	0.255597	-0.673040	-0.234305
C54	C	0.755597	-0.173040	0.265695
C55	C	0.289687	-0.505752	-0.176068
C56	C	0.789687	-0.005752	0.323932
C57	C	1.001932	-0.315934	-0.109990
C58	C	1.501932	0.184066	0.390010
C59	C	1.008845	-0.209017	-0.072781
C60	C	1.508845	0.290983	0.427219
C61	C	1.135816	-0.537204	-0.187012
C62	C	1.635816	-0.037204	0.312988
C63	C	1.228909	-0.572714	-0.199381
C64	C	1.728909	-0.072714	0.300619
N65	N	1.043706	-0.444552	0.093970
N66	N	1.543706	0.055448	0.593970
C67	C	0.961431	-0.661718	-0.230348
C68	C	1.461431	-0.161718	0.269652
C69	C	0.954516	-0.768636	-0.267564
C70	C	1.454516	-0.268636	0.232436
C71	C	0.923075	0.065182	-0.412448
C72	C	1.423075	0.565182	0.087552
C73	C	0.929575	0.165654	-0.377452
C74	C	1.429575	0.665654	0.122548
C75	C	0.972970	0.196620	-0.192630
C76	C	1.472970	0.696620	0.307370
C77	C	0.966478	0.096148	-0.227611
C78	C	1.466478	0.596148	0.272389
C79	C	0.941529	0.030437	-0.337521
C80	C	1.441529	0.530437	0.162479
C81	C	0.984932	0.061403	-0.152683
C82	C	1.484932	0.561403	0.347317
C83	C	0.978435	-0.039059	-0.187662
C84	C	1.478435	0.460941	0.312338
C85	C	0.953485	-0.104775	-0.297567
C86	C	1.453485	0.395225	0.202433
C87	C	0.935033	-0.070025	-0.372499
C88	C	1.435033	0.429975	0.127501
C89	C	1.009875	0.127117	-0.042773
C90	C	1.509875	0.627117	0.457227
C91	C	1.028329	0.092372	0.032154
C92	C	1.528329	0.592372	0.532154
C93	C	1.021838	-0.008093	-0.002824
C94	C	1.521838	0.491907	0.497176
C95	C	0.996888	-0.073809	-0.112730
C96	C	1.496888	0.426191	0.387270
C97	C	1.040291	-0.042843	0.072108
C98	C	1.540291	0.457157	0.572108
C99	C	1.033794	-0.143305	0.037130
C100	C	1.533794	0.356695	0.537130
C101	C	0.990392	-0.174271	-0.147708
C102	C	1.490392	0.325729	0.352292
N103	N	0.919665	-0.533094	-0.434305
N104	N	1.419665	-0.033094	0.065695
C105	C	0.819683	-0.604415	0.390147
C106	C	1.319683	-0.104415	0.890147
C107	C	0.844776	-0.586518	0.496876
C108	C	1.344776	-0.086518	0.996876
C109	C	0.969489	-0.497541	0.527807
C110	C	1.469489	0.002459	1.027807
C111	C	0.944405	-0.515426	0.421081
C112	C	1.444405	-0.015426	0.921081
C113	C	0.869502	-0.568865	0.352259
C114	C	1.369502	-0.068865	0.852259
C115	C	0.994223	-0.479876	0.383192
C116	C	1.494223	0.020124	0.883192
C117	C	0.969144	-0.497764	0.276474
C118	C	1.469144	0.002236	0.776474
C119	C	0.894245	-0.551203	0.207644
C120	C	1.394245	-0.051203	0.707644
C121	C	0.844422	-0.586753	0.245540
C122	C	1.344422	-0.086753	0.745540
C123	C	1.069130	-0.426444	0.452014
C124	C	1.569130	0.073556	0.952014
C125	C	1.118948	-0.390893	0.414126
C126	C	1.618948	0.109107	0.914126
C127	C	1.093865	-0.408775	0.307407
C128	C	1.593865	0.091225	0.807407
C129	C	1.018967	-0.462214	0.238578
C130	C	1.518967	0.037786	0.738578
C131	C	1.143688	-0.373225	0.269511
C132	C	1.643688	0.126775	0.769511
C133	C	1.118608	-0.391114	0.162793
C134	C	1.618608	0.108886	0.662793
C135	C	0.993887	-0.480102	0.131859
C136	C	1.493887	0.019898	0.631859
H137	H	0.623333	-0.632989	-0.220350
H138	H	1.123333	-0.132989	0.279650
Cl139	Cl	1.059685	0.174990	0.170323
Cl140	Cl	1.559685	0.674990	0.670323
H141	H	0.513070	-0.754478	-0.262645
H142	H	1.013070	-0.254478	0.237355
H143	H	0.932888	-0.523608	0.075823
H144	H	1.432888	-0.023608	0.575823
H145	H	0.873829	-0.565771	0.120746
H146	H	1.373829	-0.065771	0.620746
H147	H	0.340025	-0.344663	-0.119979
H148	H	0.840025	0.155337	0.380021
H149	H	1.060596	0.010675	0.161598
H150	H	1.560596	0.510675	0.661598
H151	H	0.364814	-0.788084	-0.274344
H152	H	0.864814	-0.288084	0.225656
Cl153	Cl	1.100659	-0.403963	0.586174
Cl154	Cl	1.600659	0.096037	1.086174
Cl155	Cl	0.903680	-0.152644	-0.510676
Cl156	Cl	1.403680	0.347356	-0.010676
H157	H	0.267955	-0.424059	-0.147639
H158	H	0.767955	0.075941	0.352361
Cl159	Cl	0.784164	-0.220442	-0.076739
Cl160	Cl	1.284164	0.279558	0.423261
Cl161	Cl	0.782136	-0.631222	0.544496
Cl162	Cl	1.282136	-0.131222	1.044496
Cl163	Cl	1.063652	-0.430366	0.614332
Cl164	Cl	1.563652	0.069634	1.114332
Cl165	Cl	1.056999	-0.186990	0.131324
Cl166	Cl	1.556999	0.313010	0.631324
H167	H	1.179937	-0.347386	0.470172
H168	H	1.679937	0.152614	0.970172
H169	H	0.695416	-0.553592	-0.192711
H170	H	1.195416	-0.053592	0.307289
H171	H	0.993281	0.250136	-0.103140
H172	H	1.493281	0.750136	0.396860
H173	H	0.970083	-0.227780	-0.237208
H174	H	1.470083	0.272220	0.262792
Cl175	Cl	1.237856	-0.306061	0.356036
Cl176	Cl	1.737856	0.193939	0.856036
H177	H	0.206110	-0.727566	-0.253285
H178	H	0.706110	-0.227566	0.246715
Cl179	Cl	0.586727	-0.145131	-0.050524
Cl180	Cl	1.086727	0.354869	0.449476
Cl181	Cl	0.891723	-0.017437	-0.550625
Cl182	Cl	1.391723	0.482563	-0.050625
Cl183	Cl	0.906368	0.209330	-0.471659
Cl184	Cl	1.406368	0.709330	0.028341
Cl185	Cl	0.945321	-0.231074	-0.341543
Cl186	Cl	1.445321	0.268926	0.158457
H187	H	0.450301	-0.223167	-0.077704
H188	H	0.950301	0.276833	0.422296
Cl189	Cl	1.018039	0.253415	0.001199
Cl190	Cl	1.518039	0.753415	0.501199
H191	H	0.783423	-0.630259	0.189504
H192	H	1.283423	-0.130259	0.689504
H193	H	1.159177	-0.362166	0.131944
H194	H	1.659177	0.137834	0.631944
Cl195	Cl	0.725509	-0.671584	0.303628
Cl196	Cl	1.225509	-0.171584	0.803628
