data_functionalizedCrystal
_audit_creation_method	'MofGen! by Chris Wilmer'
_symmetry_space_group_name_H-M	'P1'
_symmetry_Int_Tables_number	1
_symmetry_cell_setting	triclinic
loop_
_symmetry_equiv_pos_as_xyz
  x,y,z
_cell_length_a	19.288835
_cell_length_b	10.654550
_cell_length_c	9.730223
_cell_angle_alpha	89.995747
_cell_angle_beta	89.988236
_cell_angle_gamma	83.804445
loop_
_atom_site_label
_atom_site_type_symbol
_atom_site_fract_x
_atom_site_fract_y
_atom_site_fract_z
O1	O	-0.922385	-0.156474	0.114559
O2	O	-0.720260	-0.177646	0.114503
O3	O	-0.825970	0.015779	0.114524
O4	O	-0.816675	-0.349900	0.114538
O5	O	-0.825963	0.015784	-0.114056
O6	O	-0.720253	-0.177641	-0.114077
O7	O	-0.922378	-0.156469	-0.114021
Zn8	Zn	-0.821315	-0.167054	-0.150341
Zn9	Zn	-0.821324	-0.167061	0.150823
O10	O	-0.816668	-0.349895	-0.114041
C11	C	-0.694375	-0.176969	0.000206
C12	C	-0.617257	-0.174943	0.000184
N13	N	-0.821313	-0.167049	-0.355877
C14	C	-0.581051	-0.173972	0.124785
C15	C	-0.508592	-0.172055	0.124798
C16	C	-0.472343	-0.171082	0.000204
C17	C	-0.508557	-0.172060	-0.124413
C18	C	-0.581015	-0.173990	-0.124423
C19	C	-0.362510	-0.094467	-0.095240
C20	C	-0.290055	-0.092529	-0.095225
C21	C	-0.248859	-0.165134	0.000230
C22	C	-0.280130	-0.239661	0.095693
C23	C	-0.352587	-0.241592	0.095683
C24	C	-0.393775	-0.168990	0.000201
C25	C	-0.134084	-0.162086	0.124854
C26	C	-0.061623	-0.160176	0.124863
C27	C	-0.061590	-0.160168	-0.124353
C28	C	-0.134050	-0.162091	-0.124357
C29	C	-0.170293	-0.163044	0.000250
C30	C	-0.825284	0.062565	0.000234
C31	C	-0.823242	0.201964	0.000236
C32	C	0.051738	-0.157155	0.000269
C33	C	-0.025379	-0.159205	0.000267
C34	C	-0.817354	-0.396681	0.000251
C35	C	-0.819396	-0.536080	0.000258
C36	C	-0.885482	0.282794	0.000254
C37	C	-0.883560	0.413774	0.000270
C38	C	-0.757151	0.383080	0.000245
C39	C	-0.759075	0.252103	0.000238
C40	C	-0.868138	-0.081436	-0.427794
C41	C	-0.868145	-0.081436	-0.571677
C42	C	-0.774501	-0.252674	-0.571714
C43	C	-0.774491	-0.252667	-0.427833
N44	N	-0.821330	-0.167057	0.356360
H45	H	-0.610556	-0.174748	0.226250
O46	O	-0.687946	0.437168	0.000236
H47	H	-0.644990	0.358953	0.000236
H48	H	-0.937732	0.241976	0.000255
O49	O	-0.173172	-0.163119	0.259254
H50	H	-0.211962	-0.078411	0.265213
O51	O	-0.724008	-0.345031	-0.649321
H52	H	-0.731887	-0.330666	-0.761453
O53	O	-0.691941	0.164906	0.000204
H54	H	-0.646999	0.221773	0.000181
H55	H	-0.906273	-0.011721	-0.630227
O56	O	-0.918628	0.010917	-0.350177
H57	H	-0.951184	0.070459	-0.424364
H58	H	-0.264601	-0.031838	-0.172950
O59	O	-0.723988	-0.345014	-0.350250
H60	H	-0.691439	-0.404565	-0.424455
O61	O	-0.235714	-0.318026	0.198628
H62	H	-0.251670	-0.288142	0.304295
H63	H	-0.032077	-0.159384	-0.225800
O64	O	-0.173107	-0.163156	-0.258749
H65	H	-0.135730	-0.162161	-0.345388
O66	O	-0.022569	-0.159084	0.259259
H67	H	-0.059949	-0.160043	0.345898
H68	H	-0.378044	-0.302277	0.173409
H69	H	-0.396046	-0.035339	-0.172978
O70	O	-0.469528	-0.170983	0.259193
H71	H	-0.506904	-0.171956	0.345836
H72	H	-0.479038	-0.171271	-0.225859
H73	H	-0.610493	-0.174782	-0.225891
O74	O	-0.950689	0.500959	0.000272
H75	H	-0.995629	0.444085	0.000256
