data_functionalizedCrystal
_audit_creation_method	'MofGen! by Chris Wilmer'
_symmetry_space_group_name_H-M	'P1'
_symmetry_Int_Tables_number	1
_symmetry_cell_setting	triclinic
loop_
_symmetry_equiv_pos_as_xyz
  x,y,z
_cell_length_a	8.497374
_cell_length_b	19.805405
_cell_length_c	19.805407
_cell_angle_alpha	90.026410
_cell_angle_beta	89.995496
_cell_angle_gamma	89.985911
loop_
_atom_site_label
_atom_site_type_symbol
_atom_site_fract_x
_atom_site_fract_y
_atom_site_fract_z
Zn1	Zn	0.892011	0.269581	-1.034635
Zn2	Zn	0.628188	0.382739	-1.034580
Zn3	Zn	0.628226	0.269569	-0.921479
Zn4	Zn	0.891907	0.382733	-0.921413
O5	O	0.760083	0.326155	-0.978027
O6	O	0.857043	0.284598	-1.129344
O7	O	0.407431	0.367724	-1.019581
O8	O	0.663277	0.174854	-0.936541
O9	O	0.663213	0.367735	-1.129303
O10	O	0.857079	0.174862	-1.019676
O11	O	0.407458	0.284579	-0.936487
O12	O	0.663176	0.284573	-0.826754
O13	O	1.112683	0.367725	-0.936428
O14	O	0.856901	0.367714	-0.826705
O15	O	1.112760	0.284593	-1.019611
O16	O	0.663111	0.477455	-1.019517
O17	O	0.856864	0.477450	-0.936374
C18	C	0.760007	0.502011	-0.977951
C19	C	0.760027	0.577243	-0.977980
C20	C	0.760032	0.326142	-0.802171
C21	C	0.760048	0.326153	-0.726939
C22	C	0.760135	0.326169	-1.154569
C23	C	0.760157	0.326175	-1.229801
C24	C	1.171563	0.326156	-0.978022
C25	C	1.350207	0.326164	-0.978023
C26	C	0.760194	0.149613	-0.978122
C27	C	0.760241	0.074381	-0.978162
C28	C	0.659245	0.612567	-1.021314
C29	C	0.659280	0.683256	-1.021343
C30	C	0.760090	0.718619	-0.978034
C31	C	0.860882	0.683290	-0.934697
C32	C	0.860854	0.612603	-0.934672
C33	C	0.860999	0.968363	-0.934797
C34	C	0.861016	1.039055	-0.934824
C35	C	0.659425	1.039016	-1.021468
C36	C	0.659397	0.968329	-1.021443
C37	C	0.760195	0.933006	-0.978109
C38	C	0.760158	0.856358	-0.978080
C39	C	0.760120	0.795266	-0.978059
C40	C	0.860757	0.369510	-0.691587
C41	C	0.860779	0.369511	-0.620899
C42	C	0.760083	0.326158	-0.585563
C43	C	0.659369	0.282797	-0.620920
C44	C	0.659356	0.282793	-0.691607
C45	C	0.659421	0.282812	-0.335847
C46	C	0.659439	0.282821	-0.265155
C47	C	0.860844	0.369530	-0.265138
C48	C	0.860831	0.369526	-0.335825
C49	C	0.760124	0.326162	-0.371176
C50	C	0.760103	0.326161	-0.447824
C51	C	0.760095	0.326163	-0.508916
H52	H	0.577148	0.583779	-1.056579
H53	H	0.577303	0.939538	-1.056707
H54	H	0.577387	0.247496	-0.592144
H55	H	0.943119	1.067846	-0.899556
O56	O	0.958637	0.411586	-0.230693
C57	C	0.937042	0.402307	-0.160725
H58	H	0.885606	0.350037	-0.151086
H59	H	1.055198	0.406983	-0.133870
H60	H	0.852863	0.442398	-0.140642
O61	O	0.561733	0.240718	-0.370285
C62	C	0.583276	0.250017	-0.440253
H63	H	0.704929	0.272262	-0.449911
H64	H	0.572772	0.199308	-0.467134
H65	H	0.489548	0.285999	-0.460291
O66	O	0.958675	0.933979	-0.892667
C67	C	0.868740	0.893154	-0.848961
H68	H	0.749236	0.882567	-0.872876
H69	H	0.932958	0.843443	-0.839849
H70	H	0.851302	0.920440	-0.798818
O71	O	0.561227	0.717465	-1.063458
C72	C	0.472264	0.671094	-1.101687
H73	H	0.466725	0.620731	-1.073945
H74	H	0.347991	0.691534	-1.108957
H75	H	0.530136	0.663522	-1.153070
O76	O	0.958808	0.578392	-0.892515
C77	C	1.047824	0.624760	-0.854307
H78	H	0.983216	0.675160	-0.851998
H79	H	1.064546	0.604374	-0.800967
H80	H	1.167687	0.632240	-0.879058
H81	H	0.577356	0.247484	-0.720390
H82	H	0.577357	1.067784	-1.056755
H83	H	0.942970	0.712088	-0.899437
H84	H	0.942751	0.404815	-0.720352
H85	H	0.942785	0.404817	-0.592118
O86	O	0.958797	0.411660	-0.370045
C87	C	1.047668	0.449940	-0.323683
H88	H	1.053256	0.422225	-0.273306
H89	H	1.171929	0.457241	-0.344113
H90	H	0.989684	0.501308	-0.316143
O91	O	0.561574	0.240638	-0.230933
C92	C	0.472658	0.202374	-0.277291
H93	H	0.537272	0.200069	-0.327686
H94	H	0.456075	0.149036	-0.256883
H95	H	0.352731	0.227072	-0.284791
