data_functionalizedCrystal
_audit_creation_method	'MofGen! by Chris Wilmer'
_symmetry_space_group_name_H-M	'P1'
_symmetry_Int_Tables_number	1
_symmetry_cell_setting	triclinic
loop_
_symmetry_equiv_pos_as_xyz
  x,y,z
_cell_length_a	10.540510
_cell_length_b	17.019294
_cell_length_c	9.616153
_cell_angle_alpha	86.118767
_cell_angle_beta	89.992871
_cell_angle_gamma	83.952460
loop_
_atom_site_label
_atom_site_type_symbol
_atom_site_fract_x
_atom_site_fract_y
_atom_site_fract_z
O1	O	1.684094	0.111052	-0.128951
O2	O	1.314504	0.121550	-0.130208
O3	O	1.509608	0.001526	-0.115828
O4	O	1.488989	0.231076	-0.143331
O5	O	1.509582	0.001528	0.115463
O6	O	1.314477	0.121553	0.101083
O7	O	1.684067	0.111054	0.102341
Zn8	Zn	1.499268	0.116304	0.138434
Zn9	Zn	1.499303	0.116301	-0.166302
O10	O	1.488962	0.231078	0.087960
C11	C	1.267199	0.120769	-0.014469
C12	C	1.126288	0.118428	-0.014189
C13	C	0.907466	0.201809	-0.024710
C14	C	1.054020	0.204306	-0.024480
C15	C	1.082234	0.074469	0.123153
C16	C	0.935504	0.072581	0.123482
C17	C	0.935757	0.070789	-0.139325
C18	C	1.082032	0.074863	-0.141551
C19	C	1.508813	-0.027866	0.003336
C20	C	1.506467	-0.115450	0.013820
C21	C	1.505382	-0.156593	-0.107330
C22	C	1.503169	-0.238886	-0.097474
C23	C	1.502051	-0.280035	0.033533
C24	C	1.503132	-0.238885	0.154692
C25	C	1.505335	-0.156593	0.144835
C26	C	1.495388	-0.528504	0.069602
C27	C	1.493189	-0.610802	0.079450
C28	C	1.493224	-0.610798	-0.172718
C29	C	1.495435	-0.528504	-0.182563
C30	C	1.496509	-0.487361	-0.061404
C31	C	1.499793	-0.364152	0.043610
C32	C	1.498758	-0.403245	-0.071483
C33	C	1.731371	0.111835	-0.013402
C34	C	1.872283	0.114176	-0.013691
C35	C	1.489758	0.260471	-0.031207
C36	C	1.492104	0.348054	-0.041700
N37	N	1.499253	0.116306	0.346408
N38	N	1.499328	0.116293	-0.374276
C39	C	1.394573	0.180295	0.559112
C40	C	1.394797	0.180535	0.397915
C41	C	1.631671	0.135021	0.402616
C42	C	1.631099	0.135474	0.563779
C43	C	1.472840	0.033390	0.576254
C44	C	1.469784	0.033928	0.414963
H45	H	0.913561	0.008350	0.137177
H46	H	1.378394	0.015575	0.619125
H47	H	0.914660	0.006313	-0.132493
C48	C	1.501892	-0.284151	0.298802
N49	N	1.500961	-0.318245	0.407349
C50	C	1.091620	0.251038	0.098055
N51	N	1.119938	0.286236	0.190358
C52	C	1.496576	-0.483258	0.202882
N53	N	1.497471	-0.449176	0.303276
C54	C	1.566190	-0.033505	0.368635
N55	N	1.638821	-0.084293	0.333753
C56	C	1.663977	0.215813	0.338390
N57	N	1.688300	0.276670	0.290022
C58	C	1.506532	-0.111336	0.278110
N59	N	1.507430	-0.077249	0.378498
H60	H	1.506300	-0.123096	-0.214010
H61	H	1.295828	0.169208	0.599251
H62	H	1.372377	0.019742	0.378462
C63	C	1.496666	-0.483247	-0.326681
N64	N	1.497597	-0.449159	-0.435233
H65	H	1.492347	-0.644305	-0.271359
H66	H	1.492271	-0.644303	0.186137
H67	H	0.864975	0.235265	-0.123438
H68	H	1.499660	-0.369738	-0.178148
H69	H	1.498886	-0.397665	0.150277
H70	H	1.296364	0.169275	0.359750
H71	H	1.411238	0.241453	0.592283
C72	C	1.417624	0.263627	0.335835
N73	N	1.434825	0.326214	0.289077
H74	H	1.711470	0.089677	0.369696
C75	C	1.502093	-0.284149	-0.230749
N76	N	1.501323	-0.318244	-0.331138
C77	C	0.847947	0.246749	0.097145
N78	N	0.803116	0.280596	0.188930
C79	C	1.662637	0.217189	0.604772
N80	N	1.686382	0.278741	0.635640
H81	H	1.711476	0.090736	0.608128
C82	C	1.576037	-0.030967	0.635468
N83	N	1.653767	-0.079435	0.680076
C84	C	0.880486	0.113184	0.251980
N85	N	0.839052	0.143773	0.348762
H86	H	1.082813	0.238696	-0.123280
C87	C	1.147696	-0.010929	0.140059
N88	N	1.197020	-0.075247	0.152800
H89	H	0.892776	0.097870	-0.242677
C90	C	1.123209	0.115720	0.251000
N91	N	1.154065	0.146796	0.347291
C92	C	1.149696	-0.009844	-0.142170
N93	N	1.200657	-0.073649	-0.142623
C94	C	1.120011	0.118066	-0.278730
N95	N	1.148630	0.150607	-0.382052
