data_functionalizedCrystal
_audit_creation_method	'MofGen! by Chris Wilmer'
_symmetry_space_group_name_H-M	'P1'
_symmetry_Int_Tables_number	1
_symmetry_cell_setting	triclinic
loop_
_symmetry_equiv_pos_as_xyz
  x,y,z
_cell_length_a	12.837943
_cell_length_b	22.610064
_cell_length_c	23.532409
_cell_angle_alpha	89.992888
_cell_angle_beta	88.839250
_cell_angle_gamma	90.007937
loop_
_atom_site_label
_atom_site_type_symbol
_atom_site_fract_x
_atom_site_fract_y
_atom_site_fract_z
O1	O	1.373940	0.049166	0.147960
O2	O	1.873940	0.549166	0.647960
O3	O	1.072209	0.049170	0.140651
O4	O	1.572209	0.549170	0.640651
O5	O	1.232172	0.049169	0.061896
O6	O	1.732172	0.549169	0.561896
O7	O	1.213977	0.049167	0.226715
O8	O	1.713977	0.549167	0.726715
O9	O	1.232144	-0.049201	0.061907
O10	O	1.732144	0.450799	0.561907
O11	O	1.072181	-0.049199	0.140662
O12	O	1.572181	0.450801	0.640662
O13	O	1.373911	-0.049203	0.147972
O14	O	1.873911	0.450797	0.647972
Zn15	Zn	1.223042	-0.064820	0.144319
Zn16	Zn	1.723042	0.435180	0.644319
Zn17	Zn	1.223079	0.064786	0.144304
Zn18	Zn	1.723079	0.564786	0.644304
O19	O	1.213949	-0.049202	0.226726
O20	O	1.713949	0.450798	0.726726
C21	C	1.033600	-0.000014	0.138187
C22	C	1.533600	0.499986	0.638187
C23	C	0.918598	-0.000013	0.130823
C24	C	1.418598	0.499987	0.630823
N25	N	1.223024	-0.153272	0.144329
N26	N	1.723024	0.346728	0.644329
C27	C	0.676730	-0.000022	0.219356
C28	C	1.176730	0.499978	0.719356
C29	C	0.568675	-0.000021	0.212439
C30	C	1.068675	0.499979	0.712439
C31	C	0.594432	-0.000014	0.110073
C32	C	1.094432	0.499986	0.610073
C33	C	0.702487	-0.000015	0.116990
C34	C	1.202487	0.499985	0.616990
C35	C	0.743631	-0.000018	0.171633
C36	C	1.243631	0.499982	0.671633
C37	C	0.851688	-0.000015	0.178550
C38	C	1.351688	0.499985	0.678550
C39	C	0.877443	-0.000012	0.076184
C40	C	1.377443	0.499988	0.576184
C41	C	0.769389	-0.000011	0.069267
C42	C	1.269389	0.499989	0.569267
C43	C	1.293913	-0.561914	0.109437
C44	C	1.793913	-0.061914	0.609437
C45	C	1.293919	-0.623834	0.109433
C46	C	1.793919	-0.123834	0.609433
O47	O	1.354147	-0.655853	0.079773
O48	O	1.854147	-0.155853	0.579773
N49	N	1.223078	-0.654809	0.144292
N50	N	1.723078	-0.154809	0.644292
C51	C	1.152220	-0.623861	0.179152
C52	C	1.652220	-0.123861	0.679152
O53	O	1.091965	-0.655894	0.208802
O54	O	1.591965	-0.155894	0.708802
C55	C	1.152211	-0.561943	0.179153
C56	C	1.652211	-0.061943	0.679153
C57	C	1.223063	-0.530970	0.144296
C58	C	1.723063	-0.030970	0.644296
C59	C	1.364759	-0.530942	0.074583
C60	C	1.864759	-0.030942	0.574583
C61	C	1.364755	-0.469026	0.074588
C62	C	1.864755	0.030974	0.574588
C63	C	1.293905	-0.438083	0.109447
C64	C	1.793905	0.061917	0.609447
C65	C	1.223059	-0.469055	0.144301
C66	C	1.723059	0.030945	0.644301
C67	C	1.081349	-0.530996	0.214010
C68	C	1.581349	-0.030996	0.714010
C69	C	1.081345	-0.469073	0.214007
C70	C	1.581345	0.030927	0.714007
C71	C	1.152198	-0.438101	0.179150
C72	C	1.652198	0.061899	0.679150
C73	C	1.152205	-0.376196	0.179165
C74	C	1.652205	0.123804	0.679165
N75	N	1.223045	-0.345220	0.144306
N76	N	1.723045	0.154780	0.644306
C77	C	1.293895	-0.376164	0.109447
C78	C	1.793895	0.123836	0.609447
C79	C	1.152244	-0.753895	0.179148
C80	C	1.652244	-0.253895	0.679148
C81	C	1.152258	-0.815813	0.179151
C82	C	1.652258	-0.315813	0.679151
C83	C	1.293955	-0.815781	0.109431
C84	C	1.793955	-0.315781	0.609431
C85	C	1.293946	-0.753862	0.109432
C86	C	1.793946	-0.253862	0.609432
C87	C	1.223085	-0.722920	0.144290
C88	C	1.723085	-0.222920	0.644290
C89	C	1.293882	-0.246137	0.109460
C90	C	1.793882	0.253863	0.609460
C91	C	1.293874	-0.184215	0.109470
C92	C	1.793874	0.315785	0.609470
C93	C	1.152173	-0.184253	0.179187
C94	C	1.652173	0.315747	0.679187
C95	C	1.152184	-0.246168	0.179180
C96	C	1.652184	0.253832	0.679180
C97	C	1.223042	-0.277109	0.144312
C98	C	1.723042	0.222891	0.644312
O99	O	1.092004	-0.344137	0.208808
O100	O	1.592004	0.155863	0.708808
O101	O	1.354132	-0.344124	0.079798
O102	O	1.854132	0.155876	0.579798
C103	C	1.412521	-0.000018	0.150435
C104	C	1.912521	0.499982	0.650435
C105	C	1.527522	-0.000016	0.157800
C106	C	2.027522	0.499984	0.657800
C107	C	1.231694	-0.000015	0.040659
C108	C	1.731694	0.499985	0.540659
C109	C	1.230300	-0.000010	-0.022638
C110	C	1.730300	0.499990	0.477362
N111	N	1.223105	0.153239	0.144290
N112	N	1.723105	0.653239	0.644290
C113	C	1.224387	0.053613	-0.296229
C114	C	1.724387	0.553613	0.203771
C115	C	1.225681	0.053614	-0.236755
C116	C	1.725681	0.553614	0.263245
O117	O	1.226400	0.099214	-0.205995
O118	O	1.726400	0.599214	0.294005
N119	N	1.226307	-0.000008	-0.207010
N120	N	1.726307	0.499992	0.292990
C121	C	1.225648	-0.053634	-0.236742
C122	C	1.725648	0.446366	0.263258
O123	O	1.226300	-0.099244	-0.205981
O124	O	1.726300	0.400756	0.294019
C125	C	1.224361	-0.053633	-0.296216
C126	C	1.724361	0.446367	0.203784
C127	C	1.223725	-0.000008	-0.325958
C128	C	1.723725	0.499992	0.174042
C129	C	1.223752	0.107235	-0.325971
C130	C	1.723752	0.607235	0.174029
C131	C	1.222456	0.107234	-0.385441
C132	C	1.722456	0.607234	0.114559
C133	C	1.221794	0.053613	-0.415170
C134	C	1.721794	0.553613	0.084830
C135	C	1.222429	-0.000008	-0.385428
C136	C	1.722429	0.499992	0.114572
C137	C	1.223710	-0.107258	-0.325948
C138	C	1.723710	0.392742	0.174052
C139	C	1.222423	-0.107253	-0.385425
C140	C	1.722423	0.392747	0.114575
C141	C	1.221787	-0.053628	-0.415167
C142	C	1.721787	0.446372	0.084833
C143	C	1.220470	-0.053630	-0.474627
C144	C	1.720470	0.446370	0.025373
N145	N	1.219845	-0.000008	-0.504372
N146	N	1.719845	0.499992	-0.004372
C147	C	1.220507	0.053613	-0.474643
C148	C	1.720507	0.553613	0.025357
C149	C	1.228353	-0.053631	-0.111844
C150	C	1.728353	0.446369	0.388156
C151	C	1.229633	-0.053632	-0.052372
C152	C	1.729633	0.446368	0.447628
C153	C	1.229668	0.053616	-0.052388
C154	C	1.729668	0.553616	0.447612
C155	C	1.228381	0.053616	-0.111861
C156	C	1.728381	0.553616	0.388139
C157	C	1.227728	-0.000009	-0.141589
C158	C	1.727728	0.499991	0.358411
C159	C	1.217783	0.053609	-0.599535
C160	C	1.717783	0.553609	-0.099535
C161	C	1.216482	0.053603	-0.659011
C162	C	1.716482	0.553603	-0.159011
C163	C	1.216453	-0.053644	-0.658990
C164	C	1.716453	0.446356	-0.158990
C165	C	1.217748	-0.053639	-0.599519
C166	C	1.717748	0.446361	-0.099519
C167	C	1.218417	-0.000008	-0.569794
C168	C	1.718417	0.499992	-0.069794
O169	O	1.219755	-0.099208	-0.505425
O170	O	1.719755	0.400792	-0.005425
O171	O	1.219868	0.099215	-0.505413
O172	O	1.719868	0.599215	-0.005413
C173	C	1.214426	-0.000018	0.247964
C174	C	1.714426	0.499982	0.747964
C175	C	1.215820	-0.000018	0.311260
C176	C	1.715820	0.499982	0.811260
H177	H	0.885186	-0.000018	0.223043
H178	H	1.385186	0.499982	0.723043
H179	H	1.023639	-0.443882	0.242392
H180	H	1.523639	0.056118	0.742392
C181	C	0.932656	-0.050571	-0.008942
C182	C	1.432656	0.449429	0.491058
C183	C	0.950985	-0.000007	0.023721
C184	C	1.450985	0.499993	0.523721
H185	H	0.978054	-0.050564	-0.041330
H186	H	1.478054	0.449436	0.458670
H187	H	0.945073	-0.084870	0.013223
H188	H	1.445073	0.415130	0.513223
H189	H	0.862410	-0.050566	-0.020877
H190	H	1.362410	0.449434	0.479123
H191	H	1.021228	-0.000015	0.035660
H192	H	1.521228	0.499985	0.535660
H193	H	0.938575	0.034300	0.001553
H194	H	1.438575	0.534300	0.501553
C195	C	1.426642	-0.549968	-0.020632
C196	C	1.926642	-0.049968	0.479368
C197	C	1.442652	-0.564947	0.036264
C198	C	1.942652	-0.064947	0.536264
H199	H	1.474743	-0.570956	-0.044287
H200	H	1.974743	-0.070956	0.455713
H201	H	1.357581	-0.560134	-0.030590
H202	H	1.857581	-0.060134	0.469410
H203	H	1.436761	-0.508656	-0.025608
H204	H	1.936761	-0.008656	0.474392
H205	H	1.432525	-0.606259	0.041240
H206	H	1.932525	-0.106259	0.541240
H207	H	1.511729	-0.554785	0.046224
H208	H	2.011729	-0.054785	0.546224
C209	C	1.127035	0.145021	-0.675766
C210	C	1.627035	0.645021	-0.175766
C211	C	1.215782	0.112552	-0.691703
C212	C	1.715782	0.612552	-0.191703
H213	H	1.126608	0.181413	-0.695945
H214	H	1.626608	0.681413	-0.195945
H215	H	1.066405	0.122989	-0.684453
H216	H	1.566405	0.622989	-0.184453
H217	H	1.127916	0.152689	-0.636090
H218	H	1.627916	0.652689	-0.136090
H219	H	1.214898	0.104881	-0.731378
H220	H	1.714898	0.604881	-0.231378
H221	H	1.276428	0.134589	-0.683019
H222	H	1.776428	0.634589	-0.183019
C223	C	1.308244	-0.115875	-0.534195
C224	C	1.808244	0.384125	-0.034195
C225	C	1.218429	-0.112588	-0.566829
C226	C	1.718429	0.387412	-0.066829
H227	H	1.308663	-0.152268	-0.514017
H228	H	1.808663	0.347732	-0.014017
H229	H	1.368149	-0.113648	-0.558457
H230	H	1.868149	0.386352	-0.058457
H231	H	1.308820	-0.083943	-0.507973
H232	H	1.808820	0.416057	-0.007973
H233	H	1.217856	-0.144517	-0.593054
H234	H	1.717856	0.355483	-0.093054
H235	H	1.158507	-0.114821	-0.542565
H236	H	1.658507	0.385179	-0.042565
H237	H	0.735873	-0.000015	0.024778
H238	H	1.235873	0.499985	0.524778
C239	C	1.433946	-0.239869	0.040547
C240	C	1.933946	0.260131	0.540547
C241	C	1.371771	-0.280140	0.071134
C242	C	1.871771	0.219860	0.571134
H243	H	1.482036	-0.260862	0.016891
H244	H	1.982036	0.239138	0.516891
H245	H	1.391029	-0.215720	0.017724
H246	H	1.891029	0.284280	0.517724
H247	H	1.470955	-0.215719	0.066285
H248	H	1.970955	0.284281	0.566285
H249	H	1.334756	-0.304287	0.045396
H250	H	1.834756	0.195713	0.545396
H251	H	1.414694	-0.304299	0.093959
H252	H	1.914694	0.195701	0.593959
H253	H	1.351639	-0.728648	0.081048
H254	H	1.851639	-0.228648	0.581048
C255	C	0.640421	-0.000023	0.319847
C256	C	1.140421	0.499977	0.819847
C257	C	0.721963	-0.000023	0.279418
C258	C	1.221963	0.499977	0.779418
H259	H	0.668348	-0.000027	0.356926
H260	H	1.168348	0.499973	0.856926
H261	H	0.598824	0.034279	0.315017
H262	H	1.098824	0.534279	0.815017
H263	H	0.598800	-0.034329	0.315021
H264	H	1.098800	0.465671	0.815021
H265	H	0.763580	0.034285	0.284241
H266	H	1.263580	0.534285	0.784241
H267	H	0.763578	-0.034328	0.284250
H268	H	1.263578	0.465672	0.784250
H269	H	1.351574	-0.159000	0.081086
H270	H	1.851574	0.341000	0.581086
C271	C	0.432230	0.050546	0.264041
C272	C	0.932230	0.550546	0.764041
C273	C	0.495132	-0.000022	0.264897
C274	C	0.995132	0.499978	0.764897
H275	H	0.386824	0.050542	0.296426
H276	H	0.886824	0.550542	0.796426
H277	H	0.474929	0.084842	0.264612
H278	H	0.974929	0.584842	0.764612
H279	H	0.392263	0.050542	0.230507
H280	H	0.892263	0.550542	0.730507
H281	H	0.535105	-0.000015	0.298429
H282	H	1.035105	0.499985	0.798429
H283	H	0.452428	-0.034327	0.264331
H284	H	0.952428	0.465673	0.764331
H285	H	1.224238	-0.150926	-0.301742
H286	H	1.724238	0.349074	0.198258
C287	C	1.130157	0.115834	-0.531120
C288	C	1.630157	0.615834	-0.031120
C289	C	1.218492	0.112562	-0.566870
C290	C	1.718492	0.612562	-0.066870
H291	H	1.130589	0.152228	-0.510953
H292	H	1.630589	0.652228	-0.010953
H293	H	1.069247	0.113592	-0.553266
H294	H	1.569247	0.613592	-0.053266
H295	H	1.130739	0.083904	-0.504887
H296	H	1.630739	0.583904	-0.004887
H297	H	1.217906	0.144490	-0.593105
H298	H	1.717906	0.644490	-0.093105
H299	H	1.279418	0.114810	-0.544722
H300	H	1.779418	0.614810	-0.044722
C301	C	1.216555	-0.159655	-0.653014
C302	C	1.716555	0.340345	-0.153014
C303	C	1.215726	-0.112583	-0.691674
C304	C	1.715726	0.387417	-0.191674
H305	H	1.216106	-0.196041	-0.673195
H306	H	1.716106	0.303959	-0.173195
H307	H	1.277478	-0.157426	-0.630876
H308	H	1.777478	0.342574	-0.130876
H309	H	1.156631	-0.157426	-0.628758
H310	H	1.656631	0.342574	-0.128758
H311	H	1.275655	-0.114810	-0.715927
H312	H	1.775655	0.385190	-0.215927
H313	H	1.154797	-0.114814	-0.713822
H314	H	1.654797	0.385186	-0.213822
H315	H	1.221892	-0.150922	-0.409627
H316	H	1.721892	0.349078	0.090373
C317	C	1.012110	-0.239977	0.248088
C318	C	1.512110	0.260023	0.748088
C319	C	1.074299	-0.280216	0.217492
C320	C	1.574299	0.219784	0.717492
H321	H	0.964017	-0.260995	0.271733
H322	H	1.464017	0.239005	0.771733
H323	H	1.055019	-0.215835	0.270924
H324	H	1.555019	0.284165	0.770924
H325	H	0.975107	-0.215817	0.222356
H326	H	1.475107	0.284183	0.722356
H327	H	1.111309	-0.304373	0.243225
H328	H	1.611309	0.195627	0.743225
H329	H	1.031386	-0.304369	0.194654
H330	H	1.531386	0.195631	0.694654
C331	C	0.440221	-0.000019	0.054024
C332	C	0.940221	0.499981	0.554024
C333	C	0.549193	-0.000016	0.050013
C334	C	1.049193	0.499984	0.550013
H335	H	0.412295	-0.000018	0.016944
H336	H	0.912295	0.499982	0.516944
H337	H	0.417229	-0.034321	0.073922
H338	H	0.917229	0.465679	0.573922
H339	H	0.417238	0.034286	0.073917
H340	H	0.917238	0.534286	0.573917
H341	H	0.572176	-0.034323	0.030123
H342	H	1.072176	0.465677	0.530123
H343	H	0.572194	0.034290	0.030105
H344	H	1.072194	0.534290	0.530105
C345	C	1.387640	-0.399603	-0.001827
C346	C	1.887640	0.100397	0.498173
C347	C	1.442471	-0.435085	0.036089
C348	C	1.942471	0.064915	0.536089
H349	H	1.435574	-0.378679	-0.025647
H350	H	1.935574	0.121321	0.474353
H351	H	1.344556	-0.423829	-0.024483
H352	H	1.844556	0.076171	0.475517
H353	H	1.345615	-0.372228	0.018937
H354	H	1.845615	0.127772	0.518937
H355	H	1.484490	-0.462463	0.015324
H356	H	1.984490	0.037537	0.515324
H357	H	1.485573	-0.410856	0.058747
H358	H	1.985573	0.089144	0.558747
C359	C	1.317232	-0.885399	0.033189
C360	C	1.817232	-0.385399	0.533189
C361	C	1.371830	-0.849801	0.071107
C362	C	1.871830	-0.349801	0.571107
H363	H	1.365308	-0.906399	0.009529
H364	H	1.865308	-0.406399	0.509529
H365	H	1.275050	-0.912701	0.053952
H366	H	1.775050	-0.412701	0.553952
H367	H	1.274324	-0.861237	0.010365
H368	H	1.774324	-0.361237	0.510365
H369	H	1.414733	-0.873963	0.093934
H370	H	1.914733	-0.373963	0.593934
H371	H	1.414030	-0.822495	0.050342
H372	H	1.914030	-0.322495	0.550342
H373	H	1.094574	-0.841026	0.207541
H374	H	1.594574	-0.341026	0.707541
H375	H	1.094544	-0.728705	0.207538
H376	H	1.594544	-0.228705	0.707538
C377	C	0.941274	-0.524781	0.282911
C378	C	1.441274	-0.024781	0.782911
C379	C	1.003460	-0.565029	0.252323
C380	C	1.503460	-0.065029	0.752323
H381	H	0.893181	-0.545792	0.306562
H382	H	1.393181	-0.045792	0.806562
H383	H	0.984185	-0.500633	0.305740
H384	H	1.484185	-0.000633	0.805740
H385	H	0.904269	-0.500628	0.257173
H386	H	1.404269	-0.000628	0.757173
H387	H	1.040471	-0.589179	0.278061
H388	H	1.540471	-0.089179	0.778061
H389	H	0.960544	-0.589188	0.229493
H390	H	1.460544	-0.089188	0.729493
H391	H	1.227861	0.097283	-0.136073
H392	H	1.727861	0.597283	0.363927
H393	H	1.094491	-0.159049	0.207571
H394	H	1.594491	0.340951	0.707571
H395	H	1.224294	0.150902	-0.301772
H396	H	1.724294	0.650902	0.198228
C397	C	1.222678	0.213240	-0.379466
C398	C	1.722678	0.713240	0.120534
C399	C	1.221803	0.166182	-0.418129
C400	C	1.721803	0.666182	0.081871
H401	H	1.222294	0.249633	-0.399645
H402	H	1.722294	0.749633	0.100355
H403	H	1.162750	0.211021	-0.355221
H404	H	1.662750	0.711021	0.144779
H405	H	1.283597	0.210985	-0.357318
H406	H	1.783597	0.710985	0.142682
H407	H	1.160880	0.168434	-0.440274
H408	H	1.660880	0.668434	0.059726
H409	H	1.281737	0.168402	-0.442384
H410	H	1.781737	0.668402	0.057616
H411	H	1.230203	0.097277	-0.028172
H412	H	1.730203	0.597277	0.471828
H413	H	1.230131	-0.097299	-0.028160
H414	H	1.730131	0.402701	0.471840
H415	H	1.227812	-0.097302	-0.136045
H416	H	1.727812	0.402698	0.363955
