data_functionalizedCrystal
_audit_creation_method	'MofGen! by Chris Wilmer'
_symmetry_space_group_name_H-M	'P1'
_symmetry_Int_Tables_number	1
_symmetry_cell_setting	triclinic
loop_
_symmetry_equiv_pos_as_xyz
  x,y,z
_cell_length_a	13.897449
_cell_length_b	12.594516
_cell_length_c	13.897441
_cell_angle_alpha	89.974595
_cell_angle_beta	89.981404
_cell_angle_gamma	90.017332
loop_
_atom_site_label
_atom_site_type_symbol
_atom_site_fract_x
_atom_site_fract_y
_atom_site_fract_z
Zn1	Zn	1.474693	-0.423682	-0.545409
Zn2	Zn	1.474598	-0.601690	-0.384123
Zn3	Zn	1.313388	-0.423730	-0.384128
Zn4	Zn	1.313369	-0.601623	-0.545375
O5	O	1.394012	-0.512681	-0.464759
O6	O	1.609662	-0.447303	-0.524027
O7	O	1.453181	-0.578131	-0.249142
O8	O	1.334834	-0.274778	-0.405539
O9	O	1.609592	-0.578085	-0.405530
O10	O	1.453344	-0.274743	-0.524032
O11	O	1.334742	-0.447384	-0.249145
O12	O	1.178404	-0.447320	-0.405506
O13	O	1.334800	-0.577971	-0.680362
O14	O	1.178390	-0.578017	-0.523973
O15	O	1.453325	-0.447238	-0.680387
O16	O	1.453162	-0.750627	-0.405497
O17	O	1.334708	-0.750578	-0.523968
C18	C	1.143398	-0.512667	-0.464737
C19	C	1.036184	-0.512686	-0.464750
C20	C	0.839889	-0.512690	-0.464776
C21	C	0.949121	-0.512685	-0.464759
C22	C	1.393949	-0.789222	-0.464749
C23	C	1.394010	-0.907528	-0.464778
C24	C	1.329576	-0.976793	-0.529169
C25	C	1.306076	-1.047657	-0.441152
C26	C	1.417598	-1.047462	-0.552810
C27	C	1.370463	-0.976834	-0.376714
C28	C	1.482026	-0.976632	-0.488431
C29	C	1.458559	-1.047465	-0.400353
C30	C	1.645605	-0.512696	-0.464781
C31	C	1.752819	-0.512703	-0.464791
C32	C	1.394071	-0.512592	-0.716352
C33	C	1.394096	-0.512554	-0.823566
C34	C	1.394102	-0.235060	-0.464789
C35	C	1.394140	-0.116755	-0.464802
C36	C	1.394116	-0.512524	-0.910636
C37	C	1.394144	-0.512476	-1.019868
C38	C	1.394009	-0.512693	-0.214145
C39	C	1.394170	-0.512432	-0.106931
H40	H	1.231703	-1.078878	-0.421166
H41	H	1.556382	-0.945415	-0.508459
C42	C	1.444201	-1.088622	-0.652115
C43	C	1.459829	-1.002677	-0.714123
C44	C	1.484341	-1.040548	-0.805608
H45	H	1.393269	-1.131200	-0.676369
H46	H	1.501177	-1.130022	-0.647858
H47	H	1.402860	-0.961295	-0.718383
H48	H	1.510765	-0.960091	-0.689900
H49	H	1.541317	-1.081948	-0.801351
H50	H	1.433405	-1.083126	-0.829853
H51	H	1.494956	-0.982242	-0.847689
H52	H	1.350479	-0.945938	-0.302256
H53	H	1.513104	-1.078301	-0.345847
C54	C	1.256644	-0.935462	-0.601545
C55	C	1.164689	-0.971435	-0.576337
C56	C	1.097478	-0.933370	-0.642974
H57	H	1.272612	-0.960659	-0.663951
H58	H	1.257450	-0.860033	-0.601428
H59	H	1.163886	-1.046849	-0.576464
H60	H	1.148691	-0.946241	-0.513942
H61	H	1.098283	-0.857941	-0.642856
H62	H	1.113454	-0.958570	-0.705375
H63	H	1.035078	-0.957764	-0.625874
