data_functionalizedCrystal
_audit_creation_method	'MofGen! by Chris Wilmer'
_symmetry_space_group_name_H-M	'P1'
_symmetry_Int_Tables_number	1
_symmetry_cell_setting	triclinic
loop_
_symmetry_equiv_pos_as_xyz
  x,y,z
_cell_length_a	18.215407
_cell_length_b	16.120531
_cell_length_c	18.215399
_cell_angle_alpha	92.866294
_cell_angle_beta	90.019833
_cell_angle_gamma	87.067235
loop_
_atom_site_label
_atom_site_type_symbol
_atom_site_fract_x
_atom_site_fract_y
_atom_site_fract_z
Zn1	Zn	1.110178	0.331906	0.430942
Zn2	Zn	1.103830	0.471328	0.314104
Zn3	Zn	0.987109	0.331934	0.307891
Zn4	Zn	0.980822	0.471282	0.437126
O5	O	1.045485	0.401612	0.372516
O6	O	1.212320	0.350409	0.415455
O7	O	1.088321	0.452868	0.210296
O8	O	1.008722	0.215264	0.319025
O9	O	1.207656	0.452841	0.329614
O10	O	1.099141	0.215244	0.409431
O11	O	1.002567	0.350456	0.205732
O12	O	0.883291	0.350411	0.325022
O13	O	0.998007	0.452762	0.539289
O14	O	0.878672	0.452789	0.419971
O15	O	1.093044	0.350364	0.534745
O16	O	1.082225	0.587988	0.335611
O17	O	0.991851	0.587954	0.425996
C18	C	0.854279	0.401598	0.372494
C19	C	0.772480	0.401612	0.372503
C20	C	0.581896	0.455004	0.421888
C21	C	0.505037	0.455007	0.421897
C22	C	0.509825	0.348236	0.323160
C23	C	0.586683	0.348229	0.323155
C24	C	0.622716	0.401619	0.372518
C25	C	0.468999	0.401627	0.372532
C26	C	0.385666	0.401630	0.372542
C27	C	0.706055	0.401615	0.372509
C28	C	1.035687	0.618221	0.382165
C29	C	1.031563	0.710887	0.386317
C30	C	1.024037	0.880549	0.393914
C31	C	1.066960	0.921836	0.351076
C32	C	1.062773	1.016241	0.355303
C33	C	1.028223	0.786135	0.389688
C34	C	1.237437	0.401627	0.372538
C35	C	1.319236	0.401634	0.372547
C36	C	1.045532	0.401555	0.564466
C37	C	1.045552	0.401531	0.646264
C38	C	1.055315	1.184158	0.362831
C39	C	1.059437	1.091492	0.358670
C40	C	1.045483	0.401610	0.181309
C41	C	1.045616	0.401399	0.099501
C42	C	1.095057	0.348162	0.832091
C43	C	1.095067	0.348138	0.908949
C44	C	0.996105	0.454770	0.913669
C45	C	0.996092	0.454790	0.836813
C46	C	1.045573	0.401487	0.796026
C47	C	1.045595	0.401443	0.949740
C48	C	1.045606	0.401417	1.033072
C49	C	1.045562	0.401511	0.712688
H50	H	0.611232	0.498475	0.462084
C51	C	0.470748	0.290138	0.269648
C52	C	0.493164	0.207671	0.282128
C53	C	0.457178	0.154129	0.232850
H54	H	0.482751	0.302158	0.220693
H55	H	0.419123	0.297730	0.276722
H56	H	0.544777	0.200083	0.275048
H57	H	0.481160	0.195625	0.331073
H58	H	0.405553	0.161721	0.239924
H59	H	0.469184	0.166156	0.183898
H60	H	0.472377	0.098169	0.241315
H61	H	0.619919	0.304751	0.282952
H62	H	0.955822	0.498169	0.946887
H63	H	0.955791	0.498213	0.807447
C64	C	0.970822	0.927799	0.447116
C65	C	0.932051	0.871157	0.485823
C66	C	0.883030	0.914664	0.534844
H67	H	0.937233	0.961828	0.420505
H68	H	0.997465	0.961697	0.480735
H69	H	0.905410	0.837273	0.452209
H70	H	0.965621	0.837126	0.512449
H71	H	0.909672	0.948562	0.568463
H72	H	0.849445	0.948691	0.508227
H73	H	0.856723	0.876239	0.561117
H74	H	1.106852	0.886281	0.311226
C75	C	1.148804	0.290194	0.787936
C76	C	1.192128	0.243473	0.835974
C77	C	1.241640	0.190054	0.795327
H78	H	1.179491	0.321999	0.759370
H79	H	1.122309	0.253831	0.756348
H80	H	1.218621	0.279832	0.867548
H81	H	1.161461	0.211652	0.864540
H82	H	1.215145	0.153691	0.763739
H83	H	1.272322	0.221865	0.766763
H84	H	1.271036	0.158342	0.827914
C85	C	1.148677	0.290135	0.948137
C86	C	1.109433	0.236668	0.989857
C87	C	1.158793	0.183212	1.025957
H88	H	1.179322	0.321918	0.979601
H89	H	1.178128	0.258346	0.912855
H90	H	1.079995	0.268453	1.025135
H91	H	1.078790	0.204866	0.958410
H92	H	1.188245	0.151423	0.990675
H93	H	1.189437	0.215002	1.057418
H94	H	1.132174	0.146923	1.054263
H95	H	0.471805	0.498478	0.462100
