data_functionalizedCrystal
_audit_creation_method	'MofGen! by Chris Wilmer'
_symmetry_space_group_name_H-M	'P1'
_symmetry_Int_Tables_number	1
_symmetry_cell_setting	triclinic
loop_
_symmetry_equiv_pos_as_xyz
  x,y,z
_cell_length_a	10.723022
_cell_length_b	9.798715
_cell_length_c	8.559649
_cell_angle_alpha	89.998340
_cell_angle_beta	102.877055
_cell_angle_gamma	90.003403
loop_
_atom_site_label
_atom_site_type_symbol
_atom_site_fract_x
_atom_site_fract_y
_atom_site_fract_z
O1	O	1.634238	0.113475	-0.223858
O2	O	2.134238	0.613475	0.276142
O3	O	1.268888	0.113479	-0.245289
O4	O	1.768888	0.613479	0.254711
O5	O	1.483751	0.113475	-0.002324
O6	O	1.983751	0.613475	0.497676
O7	O	1.419375	0.113479	-0.466823
O8	O	1.919375	0.613479	0.033177
O9	O	1.483737	-0.113507	-0.002322
O10	O	1.983737	0.386493	0.497678
O11	O	1.268874	-0.113503	-0.245287
O12	O	1.768874	0.386497	0.254713
O13	O	1.634224	-0.113507	-0.223856
O14	O	2.134224	0.386493	0.276144
Zn15	Zn	1.451547	-0.149543	-0.234571
Zn16	Zn	1.951547	0.350457	0.265429
Zn17	Zn	1.451565	0.149515	-0.234574
Zn18	Zn	1.951565	0.649515	0.265426
O19	O	1.419361	-0.113503	-0.466821
O20	O	1.919361	0.386497	0.033179
C21	C	1.222541	-0.000011	-0.243729
C22	C	1.722541	0.499989	0.256271
C23	C	1.084465	-0.000010	-0.239064
C24	C	1.584465	0.499990	0.260936
C25	C	0.852843	-0.000006	-0.370190
C26	C	1.352843	0.499994	0.129810
C27	C	0.995552	-0.000008	-0.375015
C28	C	1.495552	0.499992	0.124985
N29	N	1.451543	-0.353643	-0.234569
N30	N	1.951543	0.146357	0.265431
C31	C	1.514819	-0.421421	-0.327124
C32	C	2.014819	0.078579	0.172876
C33	C	1.514839	-0.578584	-0.327122
C34	C	2.014839	-0.078584	0.172878
C35	C	1.680571	-0.000014	-0.225416
C36	C	2.180571	0.499986	0.274584
C37	C	1.818647	-0.000006	-0.230081
C38	C	2.318647	0.499994	0.269919
C39	C	1.488622	-0.000013	0.057153
C40	C	1.988622	0.499987	0.557153
C41	C	1.503144	-0.000006	0.234374
C42	C	2.003144	0.499994	0.734374
N43	N	1.451580	0.353615	-0.234564
N44	N	1.951580	0.853615	0.265436
C45	C	1.414490	-0.000012	-0.526298
C46	C	1.914490	0.499988	-0.026298
C47	C	1.399968	-0.000010	-0.703519
C48	C	1.899968	0.499990	-0.203519
H49	H	1.054961	0.000026	-0.119098
H50	H	1.554961	0.500026	0.380902
H51	H	1.397389	-0.411968	-0.155324
H52	H	1.897389	0.088032	0.344676
F53	F	1.269986	-0.000012	0.188771
F54	F	1.769986	0.499988	0.688771
H55	H	0.895021	0.000001	-0.113699
H56	H	1.395021	0.500001	0.386301
H57	H	1.602593	-0.000018	0.316791
H58	H	2.102593	0.499982	0.816791
H59	H	1.568983	-0.363096	-0.406358
H60	H	2.068983	0.136904	0.093642
F61	F	1.034122	-0.000017	-0.531818
F62	F	1.534122	0.499983	-0.031818
F63	F	1.585643	-0.654764	-0.430706
F64	F	2.085643	-0.154764	0.069294
H65	H	0.776469	0.000004	-0.486571
H66	H	1.276469	0.500004	0.013429
F67	F	1.380759	-0.570213	-0.130992
F68	F	1.880759	-0.070213	0.369008
