data_functionalizedCrystal
_audit_creation_method	'MofGen! by Chris Wilmer'
_symmetry_space_group_name_H-M	'P1'
_symmetry_Int_Tables_number	1
_symmetry_cell_setting	triclinic
loop_
_symmetry_equiv_pos_as_xyz
  x,y,z
_cell_length_a	10.654559
_cell_length_b	15.995363
_cell_length_c	14.472310
_cell_angle_alpha	89.990121
_cell_angle_beta	89.999468
_cell_angle_gamma	96.006974
loop_
_atom_site_label
_atom_site_type_symbol
_atom_site_fract_x
_atom_site_fract_y
_atom_site_fract_z
O1	O	0.161937	-1.111934	0.076770
O2	O	0.181910	-0.868277	0.076787
O3	O	-0.010887	-0.995703	0.076775
O4	O	0.354735	-0.984507	0.076781
O5	O	-0.010876	-0.995670	-0.076907
O6	O	0.181921	-0.868244	-0.076895
O7	O	0.161948	-1.111901	-0.076912
Cu8	Cu	0.171936	-0.990069	-0.090936
Cu9	Cu	0.171923	-0.990108	0.090811
O10	O	0.354746	-0.984474	-0.076901
C11	C	0.181087	-0.837061	-0.000052
C12	C	0.178604	-0.744096	-0.000046
C13	C	0.169684	-0.406299	-0.000069
C14	C	0.032374	-0.452932	-0.000413
C15	C	0.034859	-0.549636	-0.000060
C16	C	0.174108	-0.573884	-0.000058
C17	C	0.241827	-0.533211	0.087699
C18	C	0.238371	-0.436556	0.087765
C19	C	0.241221	-0.436196	-0.087000
C20	C	0.241195	-0.533140	-0.088153
C21	C	0.176616	-0.668596	-0.000049
C22	C	0.167180	-0.311587	-0.000072
C23	C	-0.057669	-0.994863	-0.000064
C24	C	-0.197080	-0.992399	-0.000060
C25	C	-0.247614	-0.915056	-0.000051
C26	C	-0.378606	-0.912745	-0.000052
C27	C	-0.408519	-1.065128	-0.000069
C28	C	-0.277529	-1.067438	-0.000074
C29	C	-0.539654	-0.818042	-0.053880
C30	C	-0.590192	-0.740694	-0.053855
C31	C	-0.534473	-0.674188	0.000003
C32	C	-0.428217	-0.685026	0.053857
C33	C	-0.377686	-0.762375	0.053840
C34	C	-0.433403	-0.828878	-0.000039
C35	C	-0.116478	-1.162136	0.053761
C36	C	-0.065945	-1.239485	0.053751
C37	C	-0.121663	-1.305998	-0.000101
C38	C	-0.227924	-1.295169	-0.053942
C39	C	-0.278458	-1.217819	-0.053931
C40	C	-0.222730	-1.151306	-0.000081
C41	C	0.401528	-0.985314	-0.000059
C42	C	0.540938	-0.987779	-0.000057
C43	C	0.162755	-0.143118	-0.000073
C44	C	0.165189	-0.236087	-0.000081
N45	N	0.171945	-0.990048	-0.218767
C46	C	0.171918	-0.990107	-0.592858
C47	C	0.274734	-0.921691	-0.553686
C48	C	0.275109	-0.921852	-0.446598
C49	C	0.171931	-0.990077	-0.407267
C50	C	0.200556	-1.077608	-0.446110
C51	C	0.201287	-1.077224	-0.553231
C52	C	0.040171	-0.971770	-0.553388
C53	C	0.041050	-0.969772	-0.446261
C54	C	0.171936	-0.990066	-0.302379
C55	C	0.171915	-0.990124	-0.697746
N56	N	0.171904	-0.990136	0.218642
H57	H	0.191761	-0.560154	-0.153075
H58	H	-0.364984	-1.209005	-0.097775
Br59	Br	-0.040840	-1.071861	0.126841
H60	H	-0.474037	-1.126222	-0.000079
Br61	Br	0.156043	-0.405579	0.197102
Br62	Br	0.409957	-0.384245	-0.087989
Br63	Br	-0.734388	-0.725985	-0.126944
H64	H	-0.182115	-0.853954	-0.000043
Br65	Br	0.163423	-0.580065	0.196558
H66	H	-0.022510	-0.434077	-0.063348
H67	H	-0.575630	-0.611210	0.000022
Br68	Br	0.361428	-1.103963	-0.594864
H69	H	-0.018372	-0.577741	-0.062968
H70	H	-0.018741	-0.577195	0.062957
H71	H	0.012647	-0.909287	-0.580452
Br72	Br	-0.615261	-0.908294	-0.126999
Br73	Br	0.410452	-0.559726	-0.096987
H74	H	-0.382866	-0.630870	0.097719
Br75	Br	-0.087355	-1.054912	-0.595605
Br76	Br	-0.303560	-1.385441	-0.127021
Br77	Br	-0.053093	-1.410979	-0.000102
H78	H	0.344130	-0.547933	0.090963
Br79	Br	-0.058711	-0.419762	0.103891
Br80	Br	0.246769	-0.813434	-0.402824
Br81	Br	-0.233494	-0.777089	0.126921
H82	H	0.257959	-0.856443	-0.579470
H83	H	0.020582	-1.248299	0.097594
H84	H	0.019326	-0.905379	-0.420874
H85	H	0.339181	-0.404896	0.091748
Br86	Br	0.436776	-0.941084	-0.598514
Br87	Br	0.438077	-0.941462	-0.403863
H88	H	0.196333	-0.415384	-0.153518
H89	H	0.129354	-1.129766	-0.579141
Br90	Br	0.079061	-1.164547	-0.403653
H91	H	0.295543	-1.094014	-0.419272
Br92	Br	-0.092455	-1.047342	-0.401657
