data_functionalizedCrystal
_audit_creation_method	'MofGen! by Chris Wilmer'
_symmetry_space_group_name_H-M	'P1'
_symmetry_Int_Tables_number	1
_symmetry_cell_setting	triclinic
loop_
_symmetry_equiv_pos_as_xyz
  x,y,z
_cell_length_a	10.686220
_cell_length_b	25.639239
_cell_length_c	10.686551
_cell_angle_alpha	85.590528
_cell_angle_beta	90.308082
_cell_angle_gamma	94.420676
loop_
_atom_site_label
_atom_site_type_symbol
_atom_site_fract_x
_atom_site_fract_y
_atom_site_fract_z
Zn1	Zn	1.972159	-0.127472	-0.562366
Zn2	Zn	1.955834	-0.222109	-0.352592
Zn3	Zn	1.746264	-0.140848	-0.368681
Zn4	Zn	1.762265	-0.221050	-0.578370
O5	O	1.859130	-0.177870	-0.465502
O6	O	2.145540	-0.134872	-0.521108
O7	O	1.914505	-0.217371	-0.179180
O8	O	1.776365	-0.065903	-0.394409
O9	O	2.133546	-0.204401	-0.366988
O10	O	1.942329	-0.056076	-0.536709
O11	O	1.760535	-0.157668	-0.191000
O12	O	1.572839	-0.156641	-0.409928
O13	O	1.803636	-0.202595	-0.751793
O14	O	1.584595	-0.215565	-0.563985
O15	O	1.957844	-0.133844	-0.740035
O16	O	1.930021	-0.295139	-0.382506
O17	O	1.787807	-0.294361	-0.548384
C18	C	1.533200	-0.187440	-0.490440
C19	C	1.393768	-0.191545	-0.501138
C20	C	1.858915	-0.313720	-0.465461
C21	C	1.858941	-0.371833	-0.465476
C22	C	1.933401	-0.732571	-0.379250
C23	C	1.933451	-0.787174	-0.379263
O24	O	1.996536	-0.815738	-0.305904
N25	N	1.859357	-0.814099	-0.465568
C26	C	1.785218	-0.786419	-0.551874
O27	O	1.722201	-0.814336	-0.625286
C28	C	1.785176	-0.731818	-0.551866
C29	C	1.859265	-0.704895	-0.465547
C30	C	2.007485	-0.705649	-0.292939
C31	C	2.007433	-0.651050	-0.292925
C32	C	1.933297	-0.623374	-0.379222
C33	C	1.859213	-0.650297	-0.465533
C34	C	1.711045	-0.704138	-0.638177
C35	C	1.711010	-0.649533	-0.638162
C36	C	1.785099	-0.622611	-0.551843
C37	C	1.785025	-0.568023	-0.551816
N38	N	1.859119	-0.541097	-0.465510
C39	C	1.933255	-0.568773	-0.379213
C40	C	1.785314	-0.901087	-0.551887
C41	C	1.785349	-0.955688	-0.551890
C42	C	1.933583	-0.956438	-0.379280
C43	C	1.933541	-0.901836	-0.379272
C44	C	1.859408	-0.874161	-0.465581
C45	C	1.933139	-0.454112	-0.379189
C46	C	1.933077	-0.399509	-0.379179
C47	C	1.784847	-0.398763	-0.551793
C48	C	1.784904	-0.453362	-0.551799
C49	C	1.859060	-0.481035	-0.465493
O50	O	1.721976	-0.539424	-0.625140
O51	O	1.996274	-0.540849	-0.305825
C52	C	2.186333	-0.168263	-0.440468
C53	C	2.325768	-0.164169	-0.429800
C54	C	1.884346	-0.166610	-0.792704
C55	C	1.895092	-0.161811	-0.932138
C56	C	1.859383	-0.041486	-0.465568
C57	C	1.859490	0.016632	-0.465597
C58	C	1.834084	-0.189046	-0.139567
C59	C	1.823582	-0.193690	-0.000116
H60	H	1.374220	-0.137590	-0.360538
H61	H	1.964545	-0.130848	-0.980617
O62	O	2.079554	-0.732601	-0.209291
C63	C	2.145463	-0.817036	-0.132870
C64	C	2.063759	-0.786584	-0.227657
H65	H	2.132701	-0.860687	-0.147668
H66	H	2.248291	-0.802529	-0.147345
H67	H	2.115815	-0.810433	-0.033352
H68	H	2.093296	-0.793172	-0.327213
H69	H	1.960949	-0.801095	-0.213072
O70	O	1.740714	-0.230677	-0.942494
C71	C	1.582434	-0.301211	-0.968186
C72	C	1.676246	-0.259352	-1.033610
H73	H	1.530268	-0.324399	-1.041825
H74	H	1.635258	-0.328981	-0.902463
H75	H	1.512260	-0.281213	-0.911824
H76	H	1.746443	-0.279306	-1.090039
H77	H	1.623338	-0.231586	-1.099260
H78	H	1.345309	-0.218129	-0.570396
O79	O	2.004938	-0.373278	-0.295376
C80	C	2.070621	-0.289496	-0.218892
C81	C	1.989160	-0.319135	-0.313842
H82	H	2.057914	-0.245715	-0.233806
H83	H	2.040883	-0.304348	-0.119377
H84	H	2.173455	-0.296483	-0.233258
H85	H	1.886306	-0.312161	-0.299591
H86	H	2.019004	-0.304278	-0.413323
H87	H	1.993527	-0.476637	-0.308913
H88	H	2.067766	-0.629133	-0.222640
H89	H	1.993871	-0.879919	-0.308984
H90	H	1.724935	-0.878556	-0.622167
H91	H	1.993954	-0.978981	-0.309016
O92	O	1.639227	-0.730247	-0.722206
C93	C	1.594591	-0.741352	-0.940235
C94	C	1.676036	-0.711756	-0.845199
H95	H	1.624304	-0.726406	-1.039696
H96	H	1.607354	-0.785136	-0.925552
H97	H	1.491747	-0.734400	-0.925804
H98	H	1.778910	-0.718665	-0.859573
H99	H	1.663166	-0.667982	-0.859906
H100	H	1.650643	-0.627002	-0.708450
H101	H	1.725005	-0.977604	-0.622169
H102	H	1.724579	-0.475283	-0.622091
O103	O	1.712952	-0.371790	-0.635571
C104	C	1.647158	-0.287337	-0.711994
C105	C	1.728650	-0.317820	-0.617059
H106	H	1.659801	-0.243698	-0.697043
H107	H	1.676923	-0.293878	-0.811514
H108	H	1.544338	-0.301879	-0.697649
H109	H	1.831491	-0.303297	-0.631288
H110	H	1.698779	-0.311278	-0.517573
