data_functionalizedCrystal
_audit_creation_method	'MofGen! by Chris Wilmer'
_symmetry_space_group_name_H-M	'P1'
_symmetry_Int_Tables_number	1
_symmetry_cell_setting	triclinic
loop_
_symmetry_equiv_pos_as_xyz
  x,y,z
_cell_length_a	6.817900
_cell_length_b	11.102188
_cell_length_c	14.125465
_cell_angle_alpha	94.635462
_cell_angle_beta	100.398878
_cell_angle_gamma	108.603875
loop_
_atom_site_label
_atom_site_type_symbol
_atom_site_fract_x
_atom_site_fract_y
_atom_site_fract_z
V1	V	-4.017258	-0.174747	-0.299976
O2	O	-3.978095	0.009521	-0.294266
O3	O	-3.994670	-0.347575	-0.297925
O4	O	-3.952928	-0.171566	-0.430807
O5	O	-4.020126	-0.167706	-0.160465
V6	V	-4.499605	-0.152765	-0.283290
O7	O	-4.281095	-0.222967	-0.336580
O8	O	-4.685966	-0.104545	-0.246686
O9	O	-4.298986	0.020063	-0.285341
O10	O	-4.656165	-0.337033	-0.289000
O11	O	-4.614134	-0.159806	-0.422802
O12	O	-4.340729	-0.155946	-0.152460
C13	C	-3.846466	-0.389722	-0.293193
C14	C	-3.909178	-0.531007	-0.292387
C15	C	-3.906158	-0.579555	-0.203903
C16	C	-3.965106	-0.712309	-0.203150
C17	C	-4.030084	-0.747957	-0.379374
C18	C	-3.971151	-0.615206	-0.380126
C19	C	-4.123918	-0.876464	-0.099352
C20	C	-4.120863	-0.925014	-0.010862
C21	C	-3.955734	-0.862046	0.069772
C22	C	-3.793609	-0.750527	0.061920
C23	C	-3.796650	-0.701984	-0.026570
C24	C	-3.961824	-0.764951	-0.107202
C25	C	-3.812320	-0.451047	-0.483917
C26	C	-3.815345	-0.402500	-0.572409
C27	C	-3.980464	-0.465467	-0.653051
C28	C	-4.142563	-0.576991	-0.645208
C29	C	-4.139538	-0.625537	-0.556717
C30	C	-3.974418	-0.562561	-0.476075
C31	C	-3.793218	-0.165204	-0.462695
C32	C	-3.822076	-0.163747	-0.569649
C33	C	-3.874969	-0.161074	-0.765472
C34	C	-4.061262	-0.166435	-0.817794
C35	C	-4.090695	-0.164948	-0.926756
C36	C	-3.845529	-0.162561	-0.656500
C37	C	-4.110534	0.062203	-0.290071
C38	C	-4.027059	0.203487	-0.290882
C39	C	-4.163782	-0.162312	-0.120566
C40	C	-4.114162	-0.163763	-0.013611
H41	H	-3.659140	-0.699274	0.127581
C42	C	-4.299190	-1.047671	-0.002220
H43	H	-4.273706	-1.067573	0.062026
H44	H	-4.431492	-1.034111	-0.016132
H45	H	-4.302346	-1.117014	-0.047215
H46	H	-3.982900	-0.425935	-0.725107
H47	H	-3.855699	-0.511003	-0.132461
C48	C	-3.637037	-0.279830	-0.581043
H49	H	-3.662476	-0.259946	-0.645296
H50	H	-3.633902	-0.210492	-0.536058
H51	H	-3.504723	-0.293388	-0.567116
C52	C	-4.246873	-0.174164	-0.767765
H53	H	-4.202445	-0.174181	-0.700033
H54	H	-4.290634	-0.102125	-0.777397
H55	H	-4.362042	-0.250982	-0.794992
H56	H	-3.677857	-0.399765	-0.418254
C57	C	-3.689391	-0.153383	-0.815505
H58	H	-3.733845	-0.153395	-0.883240
H59	H	-3.574185	-0.076588	-0.788292
H60	H	-3.645687	-0.225448	-0.805872
C61	C	-4.098227	-0.840577	-0.475877
H62	H	-4.132872	-0.926593	-0.462757
H63	H	-4.218670	-0.830275	-0.515277
H64	H	-3.985143	-0.822014	-0.509128
H65	H	-3.664646	-0.611191	-0.032964
C66	C	-3.952405	-0.915430	0.167114
H67	H	-4.072616	-0.990852	0.160245
H68	H	-3.826719	-0.935642	0.185056
H69	H	-3.955885	-0.852727	0.216096
C70	C	-4.317845	-0.748208	-0.548083
H71	H	-4.292383	-0.768105	-0.483834
H72	H	-4.450156	-0.734660	-0.562010
H73	H	-4.320966	-0.817548	-0.593070
H74	H	-4.258406	-0.927734	-0.165002
H75	H	-4.277010	-0.628266	-0.710875
