data_functionalizedCrystal
_audit_creation_method	'MofGen! by Chris Wilmer'
_symmetry_space_group_name_H-M	'P1'
_symmetry_Int_Tables_number	1
_symmetry_cell_setting	triclinic
loop_
_symmetry_equiv_pos_as_xyz
  x,y,z
_cell_length_a	16.625547
_cell_length_b	25.639239
_cell_length_c	16.625539
_cell_angle_alpha	90.031810
_cell_angle_beta	90.024822
_cell_angle_gamma	90.039221
loop_
_atom_site_label
_atom_site_type_symbol
_atom_site_fract_x
_atom_site_fract_y
_atom_site_fract_z
Zn1	Zn	1.232586	-0.208151	0.455981
Zn2	Zn	1.732586	0.291849	0.955981
Zn3	Zn	1.232450	-0.295589	0.321140
Zn4	Zn	1.732450	0.204411	0.821140
Zn5	Zn	1.097748	-0.208169	0.321152
Zn6	Zn	1.597748	0.291831	0.821152
Zn7	Zn	1.097679	-0.295557	0.455920
Zn8	Zn	1.597679	0.204443	0.955920
O9	O	1.165116	-0.251866	0.388548
O10	O	1.665116	0.248134	0.888548
O11	O	1.345401	-0.219755	0.438115
O12	O	1.845401	0.280245	0.938115
O13	O	1.214553	-0.284013	0.208309
O14	O	1.714553	0.215987	0.708309
O15	O	1.115721	-0.135001	0.339068
O16	O	1.615721	0.364999	0.839068
O17	O	1.345300	-0.283995	0.339048
O18	O	1.845300	0.216005	0.839048
O19	O	1.214786	-0.134988	0.438126
O20	O	1.714786	0.365012	0.938126
O21	O	1.115588	-0.219786	0.208318
O22	O	1.615588	0.280214	0.708318
O23	O	0.984907	-0.219755	0.339008
O24	O	1.484907	0.280245	0.839008
O25	O	1.115603	-0.283941	0.568761
O26	O	1.615603	0.216059	1.068761
O27	O	0.984856	-0.283959	0.438022
O28	O	1.484856	0.216041	0.938022
O29	O	1.214719	-0.219724	0.568806
O30	O	1.714719	0.280276	1.068806
O31	O	1.214486	-0.368750	0.338989
O32	O	1.714486	0.131250	0.838989
O33	O	1.115471	-0.368726	0.438011
O34	O	1.615471	0.131274	0.938011
C35	C	0.955625	-0.251856	0.388510
C36	C	1.455625	0.248144	0.888510
C37	C	0.866004	-0.251864	0.388513
C38	C	1.366004	0.248136	0.888513
C39	C	1.164978	-0.387709	0.388509
C40	C	1.664978	0.112291	0.888509
C41	C	1.164993	-0.445823	0.388520
C42	C	1.664993	0.054177	0.888520
C43	C	0.793221	-0.251865	0.388523
C44	C	1.293221	0.248135	0.888523
C45	C	0.701913	-0.251868	0.388543
C46	C	1.201913	0.248132	0.888543
C47	C	0.629137	-0.251873	0.388564
C48	C	1.129137	0.248127	0.888564
C49	C	0.537822	-0.251877	0.388583
C50	C	1.037822	0.248123	0.888583
C51	C	1.113549	-0.697017	0.440093
C52	C	1.613549	-0.197017	0.940093
C53	C	1.113519	-0.642412	0.440083
C54	C	1.613519	-0.142412	0.940083
O55	O	1.069647	-0.614176	0.483906
O56	O	1.569647	-0.114176	0.983906
N57	N	1.165094	-0.615097	0.388562
N58	N	1.665094	-0.115097	0.888562
C59	C	1.216709	-0.642388	0.337052
C60	C	1.716709	-0.142388	0.837052
O61	O	1.260576	-0.614140	0.293229
O62	O	1.760576	-0.114140	0.793229
C63	C	1.216742	-0.696992	0.337066
C64	C	1.716742	-0.196992	0.837066
C65	C	1.165157	-0.724304	0.388585
C66	C	1.665157	-0.224304	0.888585
C67	C	1.061969	-0.724329	0.491608
C68	C	1.561969	-0.224329	0.991608
C69	C	1.061998	-0.778930	0.491616
C70	C	1.561998	-0.278930	0.991616
C71	C	1.113607	-0.806218	0.440109
C72	C	1.613607	-0.306218	0.940109
C73	C	1.165186	-0.778905	0.388593
C74	C	1.665186	-0.278905	0.888593
C75	C	1.268360	-0.724282	0.285561
C76	C	1.768360	-0.224282	0.785561
C77	C	1.268390	-0.778889	0.285580
C78	C	1.768390	-0.278889	0.785580
C79	C	1.216805	-0.806202	0.337099
C80	C	1.716805	-0.306202	0.837099
C81	C	1.216824	-0.860793	0.337094
C82	C	1.716824	-0.360793	0.837094
N83	N	1.165249	-0.888109	0.388615
N84	N	1.665249	-0.388109	0.888615
C85	C	1.113640	-0.860821	0.440123
C86	C	1.613640	-0.360821	0.940123
C87	C	1.216636	-0.527718	0.337027
C88	C	1.716636	-0.027718	0.837027
C89	C	1.216599	-0.473115	0.337009
C90	C	1.716599	0.026885	0.837009
C91	C	1.113410	-0.473143	0.440041
C92	C	1.613410	0.026857	0.940041
C93	C	1.113443	-0.527746	0.440055
C94	C	1.613443	-0.027746	0.940055
C95	C	1.165060	-0.555033	0.388549
C96	C	1.665060	-0.055033	0.888549
C97	C	1.113704	-0.975486	0.440136
C98	C	1.613704	-0.475486	0.940136
C99	C	1.113736	-1.030091	0.440137
C100	C	1.613736	-0.530091	0.940137
C101	C	1.216927	-1.030059	0.337107
C102	C	1.716927	-0.530059	0.837107
C103	C	1.216894	-0.975458	0.337103
C104	C	1.716894	-0.475458	0.837103
C105	C	1.165279	-0.948173	0.388624
C106	C	1.665279	-0.448173	0.888624
O107	O	1.260676	-0.889064	0.293296
O108	O	1.760676	-0.389064	0.793296
O109	O	1.069788	-0.889076	0.483946
O110	O	1.569788	-0.389076	0.983946
C111	C	1.375425	-0.251877	0.388587
C112	C	1.875425	0.248123	0.888587
C113	C	1.465046	-0.251881	0.388603
C114	C	1.965046	0.248119	0.888603
C115	C	1.165168	-0.251827	0.598857
C116	C	1.665168	0.248173	1.098857
C117	C	1.165191	-0.251811	0.688478
C118	C	1.665191	0.248189	1.188478
C119	C	1.165276	-0.115493	0.388605
C120	C	1.665276	0.384507	0.888605
C121	C	1.165344	-0.057379	0.388629
C122	C	1.665344	0.442621	0.888629
C123	C	1.165110	-0.251867	0.179057
C124	C	1.665110	0.248133	0.679057
C125	C	1.165244	-0.251737	0.089437
C126	C	1.665244	0.248263	0.589437
C127	C	1.165228	-0.251752	1.016654
C128	C	1.665228	0.248248	1.516654
C129	C	1.165215	-0.251770	0.925346
C130	C	1.665215	0.248230	1.425346
C131	C	1.165210	-0.251782	0.852569
C132	C	1.665210	0.248218	1.352569
C133	C	1.165196	-0.251799	0.761255
C134	C	1.665196	0.248201	1.261255
H135	H	1.071727	-1.052327	0.482092
H136	H	1.571727	-0.552327	0.982092
H137	H	1.258890	-0.953220	0.295143
H138	H	1.758890	-0.453220	0.795143
H139	H	1.310365	-0.702052	0.243610
H140	H	1.810365	-0.202052	0.743610
H141	H	1.019991	-0.801163	0.533567
H142	H	1.519991	-0.301163	1.033567
H143	H	1.310426	-0.801103	0.243639
H144	H	1.810426	-0.301103	0.743639
C145	C	1.273699	-1.060082	0.280460
C146	C	1.773699	-0.560082	0.780460
H147	H	1.266332	-1.096513	0.287856
H148	H	1.766332	-0.596513	0.787856
H149	H	1.261937	-1.051171	0.226267
H150	H	1.761937	-0.551171	0.726267
H151	H	1.327864	-1.051092	0.292327
H152	H	1.827864	-0.551092	0.792327
H153	H	1.019943	-0.702117	0.533556
H154	H	1.519943	-0.202117	1.033556
H155	H	1.071676	-0.953277	0.482089
H156	H	1.571676	-0.453277	0.982089
C157	C	1.056648	-0.443120	0.496707
C158	C	1.556648	0.056880	0.996707
H159	H	1.064027	-0.406689	0.489323
H160	H	1.564027	0.093311	0.989323
H161	H	1.002481	-0.452106	0.484864
H162	H	1.502481	0.047894	0.984864
H163	H	1.068434	-0.452035	0.550898
H164	H	1.568434	0.047965	1.050898
H165	H	1.258595	-0.450881	0.295048
H166	H	1.758595	0.049119	0.795048
C167	C	1.056708	-0.557786	0.496733
C168	C	1.556708	-0.057786	0.996733
H169	H	1.025973	-0.533709	0.527408
H170	H	1.525973	-0.033709	1.027408
H171	H	1.021605	-0.579128	0.465867
H172	H	1.521605	-0.079128	0.965867
H173	H	1.087551	-0.579045	0.531907
H174	H	1.587551	-0.079045	1.031907
H175	H	1.258667	-0.549931	0.295078
H176	H	1.758667	-0.049931	0.795078
