data_functionalizedCrystal
_audit_creation_method	'MofGen! by Chris Wilmer'
_symmetry_space_group_name_H-M	'P1'
_symmetry_Int_Tables_number	1
_symmetry_cell_setting	triclinic
loop_
_symmetry_equiv_pos_as_xyz
  x,y,z
_cell_length_a	27.440280
_cell_length_b	19.902436
_cell_length_c	27.440280
_cell_angle_alpha	59.994315
_cell_angle_beta	90.008670
_cell_angle_gamma	60.000974
loop_
_atom_site_label
_atom_site_type_symbol
_atom_site_fract_x
_atom_site_fract_y
_atom_site_fract_z
Zr1	Zr	0.469504	0.735418	-0.063949
O2	O	0.391677	0.875622	-0.141787
O3	O	0.493361	0.595231	-0.040081
O4	O	0.493349	0.735425	-0.141765
O5	O	0.391699	0.735416	0.040098
O6	O	0.573552	0.735412	-0.141755
O7	O	0.391688	0.735428	-0.040104
O8	O	0.573573	0.484630	0.040139
O9	O	0.391678	0.986198	-0.141795
O10	O	0.563392	0.652876	-0.029902
O11	O	0.503545	0.652878	0.029944
O12	O	0.503532	0.817938	-0.089775
O13	O	0.443685	0.817940	-0.029929
Zr14	Zr	0.597435	0.735380	0.063980
Zr15	Zr	0.597418	0.735398	-0.063933
Zr16	Zr	0.469521	0.735401	0.063964
Zr17	Zr	0.469507	0.911775	-0.063962
Zr18	Zr	0.597433	0.559023	0.063992
O19	O	0.573579	0.875567	0.040111
O20	O	0.573554	0.875592	-0.141765
O21	O	0.391701	0.875597	0.040089
O22	O	0.675263	0.595176	0.141818
O23	O	0.675238	0.595202	-0.040058
O24	O	0.493385	0.595206	0.141795
O25	O	0.675240	0.735382	-0.040068
O26	O	0.573590	0.735373	0.141795
O27	O	0.493387	0.735386	0.141785
O28	O	0.675251	0.735371	0.040134
O29	O	0.493353	0.986182	-0.141782
O30	O	0.573586	0.484616	0.141813
O31	O	0.675261	0.484600	0.141825
O32	O	0.675247	0.484614	0.040152
O33	O	0.391692	0.986184	-0.040121
O34	O	0.493367	0.986168	-0.040109
O35	O	0.563408	0.652860	0.089806
O36	O	0.623254	0.652858	0.029959
O37	O	0.563394	0.817920	-0.029914
O38	O	0.503548	0.817922	0.029933
C39	C	0.533466	0.514804	0.000031
C40	C	0.533465	0.439936	0.000036
C41	C	0.533471	0.167926	0.000008
C42	C	0.495902	0.196165	0.037943
C43	C	0.495698	0.274284	0.037787
C44	C	0.533468	0.302873	0.000022
C45	C	0.505923	0.338450	-0.065025
C46	C	0.505640	0.260612	-0.064825
C47	C	0.598605	0.133396	0.026598
C48	C	0.598510	0.210448	0.027922
C49	C	0.533467	0.379141	0.000027
C50	C	0.533470	0.091662	-0.000001
C51	C	0.373469	0.735425	-0.000005
C52	C	0.319166	0.735434	-0.000012
C53	C	0.013714	0.649223	0.031285
C54	C	-0.037304	0.649218	0.031290
O55	O	-0.037118	0.575941	0.057888
N56	N	-0.094067	0.735377	0.000036
C57	C	-0.099811	0.821548	-0.031220
O58	O	-0.152777	0.894833	-0.057803
C59	C	-0.048793	0.821552	-0.031221
C60	C	0.007969	0.735387	0.000030
C61	C	0.070474	0.563064	0.062534
C62	C	0.121489	0.563070	0.062527
C63	C	0.115744	0.649234	0.031272
C64	C	0.058984	0.735392	0.000023
C65	C	-0.054538	0.907722	-0.062473
C66	C	-0.003514	0.907718	-0.062472
C67	C	0.053249	0.821553	-0.031221
C68	C	0.104254	0.821562	-0.031238
N69	N	0.161017	0.735402	0.000016
C70	C	0.166762	0.649238	0.031271
C71	C	-0.206950	0.821532	-0.031213
C72	C	-0.257967	0.821529	-0.031216
C73	C	-0.195457	0.649198	0.031295
C74	C	-0.144439	0.649203	0.031293
C75	C	-0.150187	0.735373	0.000040
C76	C	0.273894	0.649257	0.031255
C77	C	0.324911	0.649270	0.031243
C78	C	0.262396	0.821600	-0.031265
C79	C	0.211384	0.821587	-0.031256
C80	C	0.217137	0.735408	0.000008
O81	O	0.104114	0.894801	-0.057820
O82	O	0.219730	0.575966	0.057855
C83	C	0.693471	0.735373	0.000035
C84	C	0.747774	0.735364	0.000042
C85	C	0.533448	0.735421	-0.159985
C86	C	0.533441	0.735429	-0.214287
C87	C	0.533473	0.955994	-0.000000
C88	C	0.533474	1.030863	-0.000006
C89	C	0.577670	0.735371	-0.550979
C90	C	0.577676	0.735364	-0.601997
O91	O	0.615266	0.735322	-0.628367
N92	N	0.533491	0.735372	-0.627520
C93	C	0.489301	0.735379	-0.602019
O94	O	0.451719	0.735385	-0.628413
C95	C	0.489299	0.735379	-0.551000
C96	C	0.533483	0.735380	-0.525483
C97	C	0.621851	0.735370	-0.525461
C98	C	0.621845	0.735379	-0.474448
C99	C	0.577658	0.735388	-0.448952
C100	C	0.533477	0.735388	-0.474469
C101	C	0.445112	0.735378	-0.525498
C102	C	0.445114	0.735377	-0.474475
C103	C	0.489298	0.735378	-0.448957
C104	C	0.489284	0.735406	-0.397959
N105	N	0.533469	0.735397	-0.372436
C106	C	0.577656	0.735388	-0.397932
C107	C	0.489310	0.735377	-0.709163
C108	C	0.489309	0.735383	-0.760184
C109	C	0.577685	0.735367	-0.760157
C110	C	0.577682	0.735367	-0.709138
C111	C	0.533495	0.735368	-0.683640
C112	C	0.577639	0.735407	-0.290800
C113	C	0.577628	0.735420	-0.239783
C114	C	0.489255	0.735432	-0.239813
C115	C	0.489264	0.735424	-0.290827
C116	C	0.533462	0.735409	-0.316318
O117	O	0.451714	0.735444	-0.371555
O118	O	0.615236	0.735370	-0.371527
C119	C	0.533491	0.735377	0.160015
C120	C	0.533499	0.735369	0.214317
C121	C	0.693467	0.514778	0.000051
C122	C	0.747769	0.439901	0.000063
C123	C	0.533488	0.514781	0.160030
C124	C	0.533494	0.439906	0.214338
C125	C	0.693489	0.514756	0.160051
C126	C	0.747798	0.439871	0.214365
C127	C	0.373450	0.956043	-0.160020
C128	C	0.319141	1.030927	-0.214335
C129	C	0.373472	0.956020	-0.000020
C130	C	0.319170	1.030897	-0.000032
C131	C	0.533451	0.956017	-0.160000
C132	C	0.533445	1.030892	-0.214308
C133	C	0.742022	0.404747	-0.031184
C134	C	0.793040	0.334402	-0.031185
C135	C	0.849804	0.299208	0.000065
C136	C	0.855549	0.334368	0.031313
C137	C	0.804532	0.404717	0.031310
C138	C	0.564745	0.404734	0.271094
C139	C	0.564748	0.334390	0.322127
C140	C	0.533504	0.299215	0.316402
C141	C	0.502250	0.334394	0.259641
C142	C	0.502243	0.404741	0.208609
C143	C	0.804547	0.404704	0.208633
C144	C	0.855581	0.334352	0.259662
C145	C	0.849865	0.299164	0.316423
C146	C	0.793110	0.334338	0.322155
C147	C	0.742078	0.404693	0.271126
C148	C	0.262393	1.066103	-0.208602
C149	C	0.211358	1.136477	-0.259632
C150	C	0.217074	1.171669	-0.316393
C151	C	0.273829	1.136490	-0.322124
C152	C	0.324862	1.066122	-0.271096
C153	C	0.324917	1.066058	0.031209
C154	C	0.273900	1.136422	0.031196
C155	C	0.217136	1.171620	-0.000056
C156	C	0.211390	1.136456	-0.031302
C157	C	0.262407	1.066098	-0.031291
C158	C	0.564695	1.066045	-0.208564
C159	C	0.564701	1.136390	-0.259587
C160	C	0.533453	1.171584	-0.316353
C161	C	0.502202	1.136424	-0.322096
C162	C	0.502200	1.066076	-0.271073
H163	H	0.457711	0.290165	-0.086111
H164	H	0.788350	0.305783	-0.056630
O165	O	0.598445	0.442664	0.277281
H166	H	0.632983	0.429149	0.255546
H167	H	0.409132	0.735375	-0.453715
H168	H	0.531237	0.244664	-0.094625
H169	H	0.371068	1.037483	-0.275770
H170	H	0.453323	0.735385	-0.688408
O171	O	0.520245	0.110703	0.101549
H172	H	0.534066	0.123591	0.132238
H173	H	0.695807	0.433402	-0.056639
H174	H	0.891340	0.241924	0.000064
O175	O	0.625303	0.735409	-0.318294
H176	H	0.669856	0.670992	-0.285122
O177	O	-0.189263	0.556260	0.065007
H178	H	-0.164474	0.514933	0.113031
O179	O	0.540415	0.366148	-0.104096
H180	H	0.577644	0.354826	-0.077504
O181	O	0.441604	0.735438	-0.318358
H182	H	0.462857	0.671011	-0.318229
O183	O	0.150165	1.174422	-0.065008
H184	H	0.115661	1.229246	-0.059758
H185	H	0.476797	0.433368	0.162398
H186	H	0.590201	0.305756	0.368340
O187	O	0.533525	0.223324	0.371446
H188	H	0.560514	0.204771	0.411872
O189	O	0.638713	0.231116	-0.004874
H190	H	0.640662	0.283673	-0.002296
O191	O	0.916796	0.296410	0.253487
H192	H	0.921990	0.264345	0.228727
H193	H	0.371132	1.037406	0.056662
H194	H	0.458452	0.405465	-0.086457
O195	O	0.916774	0.296397	0.065024
H196	H	0.951279	0.241565	0.059779
H197	H	0.626728	0.114539	-0.000901
H198	H	0.809212	0.433344	0.162419
H199	H	0.476812	0.305743	0.254988
H200	H	0.175600	1.228910	-0.000060
O201	O	0.904910	0.223269	0.371460
H202	H	0.945329	0.204724	0.357932
O203	O	0.669511	0.735358	-0.446923
H204	H	0.667343	0.799770	-0.480083
O205	O	0.625342	0.735354	-0.681611
H206	H	0.656068	0.735341	-0.707914
H207	H	0.590141	1.037401	-0.162347
O208	O	-0.319188	0.914463	-0.064927
H209	H	-0.314604	0.974374	-0.086657
H210	H	0.788465	0.305677	0.368377
H211	H	0.695872	0.433317	0.275802
H212	H	0.809220	0.433330	0.056758
O213	O	0.629080	0.043280	0.089086
H214	H	0.598139	0.022095	0.101888
O215	O	0.256220	1.028158	-0.147384
H216	H	0.208182	1.064459	-0.151981
H217	H	0.165151	1.165107	-0.254953
O218	O	0.162030	1.247576	-0.371430
H219	H	0.121610	1.266116	-0.357902
H220	H	0.278476	1.165152	-0.368345
O221	O	0.441609	0.735406	-0.212297
H222	H	0.449041	0.735389	-0.172527
H223	H	0.278590	1.165041	0.056641
H224	H	0.257719	1.037472	-0.056730
O225	O	0.598406	1.174308	-0.253388
H226	H	0.620124	1.138024	-0.205342
H227	H	0.533459	1.228866	-0.357894
H228	H	0.476761	1.165090	-0.368321
O229	O	-0.083217	0.556270	0.065000
H230	H	-0.078016	0.514950	0.113025
O231	O	0.625351	0.735344	-0.787656
H232	H	0.617930	0.735332	-0.827415
H233	H	-0.211638	0.891707	-0.056667
O234	O	0.468485	1.028175	-0.277271
H235	H	0.446753	1.064480	-0.325317
O236	O	0.432638	0.230554	0.013736
H237	H	0.432975	0.173058	0.015990
H238	H	0.447654	0.338753	0.019351
H239	H	0.514175	0.247628	0.085685
O240	O	0.076677	0.470123	0.096239
H241	H	0.124721	0.410223	0.117960
H242	H	0.619088	0.181694	0.075843
O243	O	0.669507	0.735380	-0.552964
H244	H	0.700219	0.735392	-0.526645
O245	O	0.386135	0.556332	0.064949
H246	H	0.391341	0.515011	0.112976
O247	O	0.280104	0.556307	0.064966
H248	H	0.304900	0.514976	0.112989
O249	O	0.182709	0.470135	0.096237
H250	H	0.178123	0.410227	0.117973
O251	O	-0.115753	1.000658	-0.096179
H252	H	-0.120932	1.041957	-0.078119
O253	O	-0.009713	1.000661	-0.096186
H254	H	-0.057755	1.060568	-0.117918
H255	H	0.257728	0.891752	-0.056714
O256	O	0.150156	0.914515	-0.064966
H257	H	0.144970	0.955826	-0.046914
O258	O	0.625289	0.735411	-0.212256
H259	H	0.656019	0.735391	-0.238555
H260	H	0.409134	0.735377	-0.546266
O261	O	0.441637	0.735429	-0.787721
H262	H	0.410910	0.735443	-0.761419
