data_functionalizedCrystal
_audit_creation_method	'MofGen! by Chris Wilmer'
_symmetry_space_group_name_H-M	'P1'
_symmetry_Int_Tables_number	1
_symmetry_cell_setting	triclinic
loop_
_symmetry_equiv_pos_as_xyz
  x,y,z
_cell_length_a	23.532407
_cell_length_b	23.532407
_cell_length_c	22.610064
_cell_angle_alpha	90.000603
_cell_angle_beta	90.005499
_cell_angle_gamma	82.848712
loop_
_atom_site_label
_atom_site_type_symbol
_atom_site_fract_x
_atom_site_fract_y
_atom_site_fract_z
O1	O	0.755263	0.069127	0.049153
O2	O	0.589400	0.079131	0.049163
O3	O	0.677333	-0.008803	0.049147
O4	O	0.667330	0.157061	0.049169
O5	O	0.677318	-0.008790	-0.049222
O6	O	0.589385	0.079143	-0.049206
O7	O	0.755248	0.069140	-0.049216
Zn8	Zn	0.672314	0.074144	-0.064829
Zn9	Zn	0.672334	0.074127	0.064777
O10	O	0.667315	0.157074	-0.049200
C11	C	0.568176	0.078882	-0.000020
C12	C	0.504959	0.078116	-0.000017
C13	C	0.677071	-0.030012	-0.000039
C14	C	0.676305	-0.093229	-0.000043
C15	C	0.238792	0.022921	-0.000040
C16	C	0.298192	0.023632	-0.000040
O17	O	0.334937	-0.020153	-0.000066
N18	N	0.320818	0.075909	-0.000029
C19	C	0.284041	0.127477	-0.000024
O20	O	0.308740	0.172007	-0.000015
C21	C	0.224642	0.126765	-0.000029
C22	C	0.202019	0.074485	-0.000034
C23	C	0.216168	-0.029354	-0.000046
C24	C	0.156772	-0.030066	-0.000045
C25	C	0.119999	0.021499	-0.000038
C26	C	0.142623	0.073774	-0.000033
C27	C	0.187865	0.178333	-0.000028
C28	C	0.128463	0.177616	-0.000033
C29	C	0.105840	0.125336	-0.000038
C30	C	0.046454	0.124627	-0.000025
N31	N	0.023828	0.072351	-0.000036
C32	C	0.060600	0.020787	-0.000043
C33	C	0.408783	0.128968	-0.000016
C34	C	0.468181	0.129681	-0.000007
C35	C	0.482328	0.025836	-0.000024
C36	C	0.422929	0.025124	-0.000028
C37	C	0.386157	0.076692	-0.000027
C38	C	-0.064136	0.019297	-0.000041
C39	C	-0.123538	0.018590	-0.000037
C40	C	-0.137680	0.122435	-0.000024
C41	C	-0.078284	0.123142	-0.000024
C42	C	-0.041512	0.071568	-0.000034
O43	O	0.009675	0.168390	-0.000001
O44	O	0.035892	-0.023737	-0.000060
C45	C	0.723538	-0.492332	-0.000014
C46	C	0.722827	-0.551733	-0.000009
O47	O	0.766613	-0.588477	0.000010
N48	N	0.670551	-0.574359	-0.000007
C49	C	0.618982	-0.537581	-0.000002
O50	O	0.574452	-0.562281	0.000001
C51	C	0.619695	-0.478182	-0.000003
C52	C	0.671974	-0.455559	-0.000011
C53	C	0.775814	-0.469709	-0.000022
C54	C	0.776525	-0.410313	-0.000028
C55	C	0.724961	-0.373540	-0.000025
C56	C	0.672685	-0.396163	-0.000017
C57	C	0.568127	-0.441406	0.000006
C58	C	0.568843	-0.382003	0.000006
C59	C	0.621123	-0.359381	-0.000003
C60	C	0.621832	-0.299994	-0.000020
N61	N	0.674109	-0.277368	-0.000023
C62	C	0.725673	-0.314141	-0.000025
C63	C	0.617491	-0.662324	-0.000001
C64	C	0.616778	-0.721722	-0.000005
C65	C	0.720623	-0.735869	-0.000011
C66	C	0.721335	-0.676470	-0.000011
C67	C	0.669767	-0.639698	-0.000003
C68	C	0.727163	-0.189404	-0.000038
C69	C	0.727869	-0.130002	-0.000046
C70	C	0.624025	-0.115860	-0.000037
C71	C	0.623318	-0.175257	-0.000032
C72	C	0.674891	-0.212028	-0.000030
O73	O	0.578069	-0.263215	-0.000037
O74	O	0.770196	-0.289433	-0.000021
C75	C	0.776472	0.069389	-0.000031
C76	C	0.839689	0.070155	-0.000031
C77	C	0.667577	0.178283	-0.000012
C78	C	0.668343	0.241500	-0.000004
N79	N	0.672304	0.074155	-0.153282
C80	C	0.711273	0.035196	-0.561930
C81	C	0.711276	0.035192	-0.623850
O82	O	0.744384	0.002076	-0.655875
N83	N	0.672334	0.074115	-0.654819
C84	C	0.633383	0.113041	-0.623864
O85	O	0.600259	0.146148	-0.655891
C86	C	0.633377	0.113042	-0.561945
C87	C	0.672326	0.074120	-0.530980
C88	C	0.750217	-0.003723	-0.530965
C89	C	0.750215	-0.003718	-0.469049
C90	C	0.711268	0.035206	-0.438099
C91	C	0.672323	0.074125	-0.469064
C92	C	0.594424	0.151965	-0.530992
C93	C	0.594422	0.151963	-0.469069
C94	C	0.633370	0.113041	-0.438104
C95	C	0.633374	0.113055	-0.376199
N96	N	0.672316	0.074131	-0.345230
C97	C	0.711263	0.035207	-0.376180
C98	C	0.633396	0.113036	-0.753898
C99	C	0.633403	0.113038	-0.815816
C100	C	0.711296	0.035188	-0.815797
C101	C	0.711291	0.035189	-0.753878
C102	C	0.672338	0.074112	-0.722929
C103	C	0.711255	0.035221	-0.246153
C104	C	0.711251	0.035231	-0.184232
C105	C	0.633357	0.113079	-0.184256
C106	C	0.633363	0.113071	-0.246171
C107	C	0.672314	0.074137	-0.277118
O108	O	0.600281	0.146152	-0.344134
O109	O	0.744376	0.002101	-0.344146
N110	N	0.672349	0.074111	0.153229
H111	H	-0.034204	-0.022699	-0.000049
N112	N	-0.147938	-0.037799	-0.000041
H113	H	-0.115626	-0.070355	-0.000048
H114	H	-0.172279	-0.040352	-0.036508
N115	N	0.753298	-0.006791	-0.720482
H116	H	0.777971	-0.031446	-0.749490
H117	H	0.731640	-0.031861	-0.694797
H118	H	0.525555	-0.459814	0.000017
N119	N	0.566933	-0.199662	-0.000031
H120	H	0.534375	-0.167350	-0.000032
H121	H	0.564382	-0.223992	0.036441
N122	N	0.132376	-0.086453	-0.000056
H123	H	0.164692	-0.119006	-0.000063
H124	H	0.108039	-0.089005	-0.036526
H125	H	0.742972	0.003517	-0.271343
H126	H	-0.059864	0.165712	-0.000019
N127	N	0.784259	-0.105602	-0.000059
H128	H	0.816815	-0.137915	-0.000058
H129	H	0.786824	-0.081262	0.036405
H130	H	0.574207	-0.740135	-0.000008
N131	N	0.552407	0.193949	-0.435694
H132	H	0.574020	0.219061	-0.410002
H133	H	0.527324	0.172275	-0.410041
H134	H	0.526850	-0.352065	0.000013
H135	H	0.486595	0.172252	0.000005
H136	H	0.575496	-0.632386	0.000000
N137	N	0.753305	-0.006797	-0.849185
H138	H	0.747393	-0.000889	-0.893108
H139	H	0.746956	-0.047166	-0.838364
N140	N	0.369123	0.184591	-0.000033
H141	H	0.392474	0.217812	-0.000033
H142	H	0.344160	0.186572	0.036424
N143	N	0.792221	-0.045701	-0.435655
H144	H	0.816890	-0.070357	-0.464665
H145	H	0.770562	-0.070769	-0.409969
H146	H	0.601694	0.144738	-0.841023
N147	N	0.568412	-0.076191	-0.000026
H148	H	0.535183	-0.099532	-0.000019
H149	H	0.566438	-0.051236	-0.036492
N150	N	0.552406	0.193939	-0.564378
H151	H	0.574011	0.219055	-0.590068
H152	H	0.527745	0.218549	-0.535326
H153	H	0.781933	-0.035422	-0.556159
N154	N	-0.177348	0.178048	-0.000014
H155	H	-0.218408	0.169660	-0.000017
H156	H	-0.170060	0.200849	-0.036479
N157	N	0.753263	-0.006749	-0.150833
H158	H	0.777933	-0.031408	-0.179839
H159	H	0.731605	-0.031816	-0.125144
H160	H	0.601648	0.144772	-0.159046
N161	N	0.212256	0.234720	-0.000016
H162	H	0.179939	0.267273	-0.000014
H163	H	0.236590	0.237288	-0.036481
N164	N	0.591384	0.155030	-0.720525
H165	H	0.612998	0.180139	-0.694832
H166	H	0.566296	0.133359	-0.694874
N167	N	0.255826	-0.084975	-0.000057
H168	H	0.232471	-0.118194	-0.000063
H169	H	0.280780	-0.086951	0.036411
N170	N	0.398531	-0.031262	-0.000035
H171	H	0.430845	-0.063817	-0.000037
H172	H	0.374195	-0.033818	-0.036504
H173	H	0.769159	-0.219337	-0.000034
H174	H	0.817806	-0.499644	-0.000022
N175	N	0.521997	-0.029782	-0.000032
H176	H	0.563057	-0.021394	-0.000030
H177	H	0.514703	-0.052574	-0.036503
H178	H	0.819097	-0.391900	-0.000032
H179	H	0.601653	0.144770	-0.271384
H180	H	0.098525	0.219610	-0.000034
H181	H	0.762610	-0.765821	-0.000010
N182	N	0.777722	-0.652072	-0.000021
H183	H	0.810276	-0.684385	-0.000024
H184	H	0.780289	-0.627737	0.036446
