data_functionalizedCrystal
_audit_creation_method	'MofGen! by Chris Wilmer'
_symmetry_space_group_name_H-M	'P1'
_symmetry_Int_Tables_number	1
_symmetry_cell_setting	triclinic
loop_
_symmetry_equiv_pos_as_xyz
  x,y,z
_cell_length_a	15.995343
_cell_length_b	9.016244
_cell_length_c	10.540539
_cell_angle_alpha	90.005301
_cell_angle_beta	95.992662
_cell_angle_gamma	89.993040
loop_
_atom_site_label
_atom_site_type_symbol
_atom_site_fract_x
_atom_site_fract_y
_atom_site_fract_z
O1	O	0.117995	-0.123288	-1.684266
O2	O	0.129112	-0.123308	-1.314700
O3	O	0.001726	-0.123270	-1.509591
O4	O	0.245381	-0.123326	-1.489376
O5	O	0.001729	0.123411	-1.509562
O6	O	0.129115	0.123373	-1.314672
O7	O	0.117997	0.123393	-1.684238
Cu8	Cu	0.123557	0.145907	-1.499452
Cu9	Cu	0.123553	-0.145822	-1.499486
O10	O	0.245384	0.123355	-1.489347
C11	C	0.128280	0.000031	-1.267394
C12	C	0.125786	0.000024	-1.126481
C13	C	-0.029473	0.000075	-1.508742
C14	C	-0.122438	0.000086	-1.506242
N15	N	0.123558	0.351093	-1.499438
C16	C	-0.292652	0.000052	-1.501704
C17	C	-0.316839	0.000041	-1.361023
C18	C	-0.413532	-0.000535	-1.358376
C19	C	-0.460238	0.000020	-1.497234
C20	C	-0.430718	-0.140559	-1.567987
C21	C	-0.333916	-0.140661	-1.569656
C22	C	-0.334004	0.139871	-1.571683
C23	C	-0.430530	0.141702	-1.566489
C24	C	-0.554952	-0.000003	-1.494715
C25	C	-0.197939	0.000065	-1.504227
C26	C	0.276582	0.000007	-1.490195
C27	C	0.369548	-0.000014	-1.492696
N28	N	0.123545	-0.351008	-1.499510
C29	C	0.191473	0.586105	-1.394870
C30	C	0.191728	0.414214	-1.395096
C31	C	0.143434	0.413433	-1.631887
C32	C	0.143915	0.585378	-1.631314
C33	C	0.035546	0.585655	-1.472877
C34	C	0.036116	0.413701	-1.469824
C35	C	0.118830	0.000051	-1.731544
C36	C	0.121324	0.000048	-1.872457
C37	C	0.030202	0.000622	-0.944372
C38	C	0.032731	0.000050	-1.090955
C39	C	0.170566	-0.140847	-1.064207
C40	C	0.167390	-0.140949	-0.917706
C41	C	0.169286	0.139572	-0.917159
C42	C	0.170143	0.141419	-1.064129
H43	H	-0.432886	0.100209	-1.302980
H44	H	0.234314	-0.147358	-0.868815
H45	H	0.257015	0.373054	-1.412095
C46	C	0.010009	0.644296	-1.345215
N47	N	-0.009216	0.688463	-1.249053
H48	H	-0.306004	0.246464	-1.527285
C49	C	0.078422	0.358192	-1.739587
N50	N	0.029454	0.316580	-1.820706
C51	C	0.279176	0.644436	-1.417525
N52	N	0.345233	0.688372	-1.434593
C53	C	0.262885	-0.147960	-1.093138
N54	N	0.332420	-0.153315	-1.114933
H55	H	0.021051	0.372958	-1.372394
H56	H	-0.432295	-0.101912	-1.303280
H57	H	0.206910	0.370342	-1.655910
H58	H	-0.289161	0.100840	-1.306482
H59	H	-0.461953	-0.145389	-1.670183
C60	C	-0.035454	0.355695	-1.566110
N61	N	-0.089358	0.312018	-1.638651
C62	C	0.122666	-0.283180	-0.880227
N63	N	0.088975	-0.390308	-0.852005
H64	H	0.137430	0.245635	-1.105531
H65	H	-0.006559	0.101650	-0.916281
C66	C	-0.015205	-0.136594	-1.148032
N67	N	-0.051312	-0.239522	-1.191022
H68	H	-0.451094	-0.245586	-1.519464
H69	H	-0.449402	0.245705	-1.514966
C70	C	-0.278119	-0.135965	-1.288573
N71	N	-0.248958	-0.238411	-1.234009
H72	H	-0.318725	-0.146647	-1.672822
C73	C	0.230653	0.639522	-1.662995
N74	N	0.295989	0.680296	-1.686848
C75	C	0.128535	-0.282465	-1.122327
N76	N	0.096871	-0.389128	-1.166100
C77	C	-0.032759	0.640606	-1.575960
N78	N	-0.084200	0.682004	-1.653603
C79	C	-0.019262	-0.135062	-0.904243
N80	N	-0.056516	-0.237259	-0.874012
H81	H	-0.002504	0.101034	-1.134043
C82	C	-0.298112	-0.283170	-1.504257
N83	N	-0.271148	-0.390508	-1.454993
H84	H	0.139173	0.246351	-0.886016
C85	C	0.261793	0.152907	-1.095613
N86	N	0.330825	0.161556	-1.119335
H87	H	-0.462873	0.150619	-1.667813
H88	H	0.236499	0.140508	-0.869006
C89	C	-0.314232	0.141720	-1.711571
N90	N	-0.299334	0.143101	-1.816930
H91	H	0.179769	0.372068	-1.296644
C92	C	0.079695	0.641578	-1.739692
N93	N	0.031337	0.683902	-1.821335
H94	H	0.179698	0.627497	-1.296107
