data_functionalizedCrystal
_audit_creation_method	'MofGen! by Chris Wilmer'
_symmetry_space_group_name_H-M	'P1'
_symmetry_Int_Tables_number	1
_symmetry_cell_setting	triclinic
loop_
_symmetry_equiv_pos_as_xyz
  x,y,z
_cell_length_a	23.532361
_cell_length_b	10.654550
_cell_length_c	9.130313
_cell_angle_alpha	90.004369
_cell_angle_beta	89.999242
_cell_angle_gamma	83.657299
loop_
_atom_site_label
_atom_site_type_symbol
_atom_site_fract_x
_atom_site_fract_y
_atom_site_fract_z
O1	O	-0.756267	-0.152160	-0.121652
O2	O	-0.590544	-0.174277	-0.121687
O3	O	-0.677216	0.019643	-0.121660
O4	O	-0.669596	-0.346080	-0.121680
O5	O	-0.677210	0.019648	0.121939
O6	O	-0.590538	-0.174272	0.121912
O7	O	-0.756261	-0.152154	0.121947
Cu8	Cu	-0.673399	-0.163212	0.144172
Cu9	Cu	-0.673406	-0.163219	-0.143912
O10	O	-0.669590	-0.346074	0.121919
C11	C	-0.569321	-0.173721	0.000108
C12	C	-0.506092	-0.172055	0.000094
C13	C	-0.777484	-0.152711	0.000148
C14	C	-0.840714	-0.154376	0.000152
C15	C	-0.676654	0.066426	0.000139
C16	C	-0.674979	0.205815	0.000136
C17	C	-0.232804	-0.164774	-0.132682
C18	C	-0.292214	-0.166351	-0.132686
O19	O	-0.322948	-0.167125	-0.245612
N20	N	-0.321922	-0.167144	0.000100
C21	C	-0.292217	-0.166348	0.132899
O22	O	-0.322941	-0.167167	0.245844
C23	C	-0.232808	-0.164763	0.132901
C24	C	-0.203103	-0.163982	0.000106
C25	C	-0.203099	-0.163992	-0.265466
C26	C	-0.143693	-0.162419	-0.265462
C27	C	-0.113992	-0.161627	-0.132674
C28	C	-0.143697	-0.162408	0.000111
C29	C	-0.203105	-0.163958	0.265698
C30	C	-0.143693	-0.162371	0.265689
C31	C	-0.113987	-0.161591	0.132894
C32	C	-0.054590	-0.160042	0.132903
N33	N	-0.024882	-0.159249	0.000117
C34	C	-0.054583	-0.160041	-0.132671
C35	C	-0.416979	-0.169675	0.132884
C36	C	-0.476385	-0.171270	0.132884
C37	C	-0.476379	-0.171270	-0.132702
C38	C	-0.416970	-0.169684	-0.132699
C39	C	-0.387271	-0.168882	0.000098
C40	C	0.070174	-0.156737	-0.132653
C41	C	0.129585	-0.155168	-0.132636
C42	C	0.129573	-0.155161	0.132948
C43	C	0.070167	-0.156737	0.132933
C44	C	0.040469	-0.157520	0.000121
O45	O	-0.023819	-0.159262	0.245772
O46	O	-0.023853	-0.159206	-0.245597
C47	C	-0.670152	-0.392857	0.000117
C48	C	-0.671826	-0.532247	0.000110
N49	N	-0.673398	-0.163207	0.346794
C50	C	-0.726010	0.286937	0.000146
C51	C	-0.724434	0.417907	0.000128
C52	C	-0.620791	0.386622	0.000096
C53	C	-0.622368	0.255654	0.000103
N54	N	-0.673412	-0.163214	-0.346535
C55	C	-0.711790	-0.077375	0.423458
C56	C	-0.711795	-0.077375	0.576795
C57	C	-0.635016	-0.249051	0.576790
C58	C	-0.635008	-0.249044	0.423456
H59	H	0.046000	-0.157377	-0.240801
O60	O	-0.777080	0.238371	-0.000033
C61	C	-0.839027	0.108713	-0.126263
C62	C	-0.781165	0.163600	-0.126218
H63	H	-0.842353	0.048270	-0.228288
H64	H	-0.842365	0.048107	-0.024383
H65	H	-0.875219	0.189214	-0.126192
H66	H	-0.744939	0.083178	-0.126341
H67	H	-0.777877	0.224239	-0.228089
O68	O	0.041393	-0.157442	0.262057
C69	C	0.047667	-0.157333	0.525481
C70	C	0.080318	-0.156522	0.379352
H71	H	0.079125	-0.156617	0.620352
H72	H	0.015005	-0.070147	0.532221
H73	H	0.024698	-0.245935	0.532042
H74	H	0.103320	-0.067979	0.372693
H75	H	0.112947	-0.243767	0.372674
O76	O	-0.773991	0.496758	-0.000119
C77	C	-0.832353	0.662809	-0.126275
C78	C	-0.776212	0.573564	-0.126190
H79	H	-0.834162	0.724947	-0.228177
H80	H	-0.870245	0.604746	-0.126347
H81	H	-0.834196	0.724864	-0.024290
H82	H	-0.774314	0.511490	-0.228157
H83	H	-0.738347	0.631702	-0.126042
O84	O	-0.597650	-0.332307	0.651201
C85	C	-0.498923	-0.407075	0.698078
C86	C	-0.541177	-0.312696	0.613745
H87	H	-0.453256	-0.391269	0.667803
H88	H	-0.505475	-0.392338	0.820856
H89	H	-0.506763	-0.507560	0.667929
H90	H	-0.533362	-0.212173	0.643771
H91	H	-0.534615	-0.327543	0.490988
H92	H	-0.577957	0.427217	0.000072
H93	H	-0.119512	-0.161777	-0.373597
O94	O	-0.572740	0.177022	0.000159
C95	C	-0.469774	0.159801	0.000034
C96	C	-0.525930	0.248994	0.000013
H97	H	-0.431914	0.217954	-0.000115
H98	H	-0.467879	0.097733	0.102004
H99	H	-0.467960	0.097671	-0.101887
H100	H	-0.527782	0.311203	0.101865
H101	H	-0.527803	0.310975	-0.102024
H102	H	-0.500572	-0.171914	-0.240825
O103	O	-0.749098	0.006132	0.349214
C104	C	-0.825272	0.176368	0.365410
C105	C	-0.783043	0.081878	0.449667
H106	H	-0.852737	0.237615	0.446590
H107	H	-0.800466	0.238909	0.293682
H108	H	-0.853905	0.122459	0.293566
H109	H	-0.754401	0.135684	0.521591
H110	H	-0.807885	0.019338	0.521303
O111	O	-0.597770	-0.332602	0.349043
C112	C	-0.565231	-0.551338	0.302159
C113	C	-0.607443	-0.456857	0.386495
H114	H	-0.573028	-0.651819	0.332431
H115	H	-0.571818	-0.536696	0.179382
H116	H	-0.519563	-0.535434	0.332307
H117	H	-0.653127	-0.472704	0.356470
H118	H	-0.600806	-0.471523	0.509252
H119	H	-0.743056	-0.007481	0.639211
H120	H	0.153769	-0.154536	-0.240779
H121	H	0.153766	-0.154522	0.241061
O122	O	-0.232022	-0.164535	0.394607
C123	C	-0.305084	-0.057432	0.548804
C124	C	-0.272391	-0.056645	0.402738
H125	H	-0.337721	0.029801	0.555440
H126	H	-0.328073	-0.146000	0.555498
H127	H	-0.273626	-0.056644	0.643667
H128	H	-0.303810	-0.057388	0.307791
H129	H	-0.249393	0.031915	0.396172
O130	O	-0.231997	-0.164938	-0.394375
C131	C	-0.292993	-0.275597	-0.548586
C132	C	-0.260310	-0.274656	-0.402518
H133	H	-0.315882	-0.364308	-0.555230
H134	H	-0.325713	-0.188512	-0.555271
H135	H	-0.261540	-0.274704	-0.643448
H136	H	-0.291720	-0.275592	-0.307573
H137	H	-0.227581	-0.361733	-0.395961
O138	O	-0.114831	-0.161371	0.394656
C139	C	-0.053762	-0.050815	0.548770
C140	C	-0.086430	-0.051772	0.402682
H141	H	-0.030781	0.037773	0.555293
H142	H	-0.085181	-0.051563	0.643727
H143	H	-0.021103	-0.138011	0.555395
H144	H	-0.119088	0.035409	0.395914
H145	H	-0.054976	-0.051089	0.307794
H146	H	-0.500565	-0.171926	0.241019
O147	O	-0.388208	-0.168868	-0.261826
C148	C	-0.394483	-0.169126	-0.525248
C149	C	-0.427124	-0.170024	-0.379112
H150	H	-0.425931	-0.170087	-0.620112
H151	H	-0.371558	-0.080469	-0.531994
H152	H	-0.361784	-0.256255	-0.531816
H153	H	-0.459850	-0.082955	-0.372446
H154	H	-0.450010	-0.258737	-0.372427
H155	H	-0.392800	-0.169038	0.241031
