data_functionalizedCrystal
_audit_creation_method	'MofGen! by Chris Wilmer'
_symmetry_space_group_name_H-M	'P1'
_symmetry_Int_Tables_number	1
_symmetry_cell_setting	triclinic
loop_
_symmetry_equiv_pos_as_xyz
  x,y,z
_cell_length_a	23.532407
_cell_length_b	27.732048
_cell_length_c	22.010155
_cell_angle_alpha	89.999275
_cell_angle_beta	89.996931
_cell_angle_gamma	82.745667
loop_
_atom_site_label
_atom_site_type_symbol
_atom_site_fract_x
_atom_site_fract_y
_atom_site_fract_z
O1	O	0.755138	0.058672	-0.050456
O2	O	1.255138	0.558672	0.449544
O3	O	0.589257	0.067162	-0.050475
O4	O	1.089257	0.567162	0.449525
O5	O	0.677350	-0.007472	-0.050453
O6	O	1.177350	0.492528	0.449547
O7	O	0.667046	0.133306	-0.050477
O8	O	1.167046	0.633306	0.449523
O9	O	0.677334	-0.007461	0.050597
O10	O	1.177334	0.492539	0.550597
O11	O	0.589241	0.067173	0.050576
O12	O	1.089241	0.567173	0.550576
O13	O	0.755122	0.058683	0.050595
O14	O	1.255122	0.558683	0.550595
Cu15	Cu	0.672180	0.062929	0.059812
Cu16	Cu	1.172180	0.562929	0.559812
Cu17	Cu	0.672199	0.062916	-0.059692
Cu18	Cu	1.172199	0.562916	0.440308
O19	O	0.667030	0.133317	0.050573
O20	O	1.167030	0.633317	0.550573
C21	C	0.568033	0.066952	0.000048
C22	C	1.068033	0.566952	0.500048
C23	C	0.504818	0.066302	0.000042
C24	C	1.004818	0.566302	0.500042
C25	C	0.105629	0.106391	0.000062
C26	C	0.605629	0.606391	0.500062
C27	C	0.046230	0.105787	0.000066
C28	C	0.546230	0.605787	0.500066
O29	O	0.009406	0.142951	0.000082
O30	O	0.509406	0.642951	0.500082
N31	N	0.023699	0.061418	0.000073
N32	N	0.523699	0.561418	0.500073
C33	C	0.060570	0.017649	0.000082
C34	C	0.560570	0.517649	0.500082
O35	O	0.035951	-0.020147	0.000088
O36	O	0.535951	0.479853	0.500088
C37	C	0.119967	0.018253	0.000082
C38	C	0.619967	0.518253	0.500082
C39	C	0.142495	0.062626	0.000070
C40	C	0.642495	0.562626	0.500070
C41	C	0.128158	0.150760	0.000050
C42	C	0.628158	0.650760	0.500050
C43	C	0.187552	0.151364	0.000045
C44	C	0.687552	0.651364	0.500045
C45	C	0.224419	0.107599	0.000052
C46	C	0.724419	0.607599	0.500052
C47	C	0.201890	0.063229	0.000065
C48	C	0.701890	0.563229	0.500065
C49	C	0.156837	-0.025515	0.000096
C50	C	0.656837	0.474485	0.500096
C51	C	0.216239	-0.024907	0.000097
C52	C	0.716239	0.475093	0.500097
C53	C	0.238766	0.019466	0.000084
C54	C	0.738766	0.519466	0.500084
C55	C	0.298151	0.020068	0.000067
C56	C	0.798151	0.520068	0.500067
N57	N	0.320683	0.064437	0.000060
N58	N	0.820683	0.564437	0.500060
C59	C	0.283817	0.108203	0.000053
C60	C	0.783817	0.608203	0.500053
C61	C	-0.064170	0.016383	0.000082
C62	C	0.435830	0.516383	0.500082
C63	C	-0.123567	0.015778	0.000077
C64	C	0.376433	0.515778	0.500077
C65	C	-0.137902	0.103917	0.000062
C66	C	0.362098	0.603917	0.500062
C67	C	-0.078505	0.104521	0.000063
C68	C	0.421495	0.604521	0.500063
C69	C	-0.041639	0.060753	0.000075
C70	C	0.458361	0.560753	0.500075
C71	C	0.408551	0.109467	0.000042
C72	C	0.908551	0.609467	0.500042
C73	C	0.467951	0.110067	0.000035
C74	C	0.967951	0.610067	0.500035
C75	C	0.482282	0.021928	0.000052
C76	C	0.982282	0.521928	0.500052
C77	C	0.422886	0.021328	0.000057
C78	C	0.922886	0.521328	0.500057
C79	C	0.386021	0.065102	0.000053
C80	C	0.886021	0.565102	0.500053
O81	O	0.335010	-0.017077	0.000054
O82	O	0.835010	0.482923	0.500054
O83	O	0.308444	0.145992	0.000054
O84	O	0.808444	0.645992	0.500054
C85	C	0.677125	-0.025473	0.000074
C86	C	1.177125	0.474527	0.500074
C87	C	0.676474	-0.079129	0.000079
C88	C	1.176474	0.420871	0.500079
C89	C	0.724431	-0.417871	0.000053
C90	C	1.224431	0.082129	0.500053
C91	C	0.722014	-0.619534	0.000044
C92	C	1.222014	-0.119534	0.500044
O93	O	0.765867	-0.650722	0.000023
O94	O	1.265867	-0.150722	0.500023
N95	N	0.669779	-0.638738	0.000039
N96	N	1.169779	-0.138738	0.500039
C97	C	0.618144	-0.607523	0.000032
C98	C	1.118144	-0.107523	0.500032
O99	O	0.573659	-0.628484	0.000021
O100	O	1.073659	-0.128484	0.500021
C101	C	0.620561	-0.405860	0.000036
C102	C	1.120561	0.094140	0.500036
C103	C	0.672800	-0.386659	0.000048
C104	C	1.172800	0.113341	0.500048
C105	C	0.776665	-0.398669	0.000064
C106	C	1.276665	0.101331	0.500064
C107	C	0.777269	-0.348256	0.000069
C108	C	1.277269	0.151744	0.500069
C109	C	0.725638	-0.317045	0.000064
C110	C	1.225638	0.182955	0.500064
C111	C	0.673403	-0.336247	0.000053
C112	C	1.173403	0.163753	0.500053
C113	C	0.568927	-0.374646	0.000025
C114	C	1.068927	0.125354	0.500025
C115	C	0.569536	-0.324228	0.000024
C116	C	1.069536	0.175772	0.500024
C117	C	0.621775	-0.305027	0.000036
C118	C	1.121775	0.194973	0.500036
C119	C	0.622376	-0.254622	0.000053
C120	C	1.122376	0.245378	0.500053
N121	N	0.674611	-0.235418	0.000059
N122	N	1.174611	0.264582	0.500059
C123	C	0.726242	-0.266630	0.000064
C124	C	1.226242	0.233370	0.500064
C125	C	0.616879	-0.713399	0.000031
C126	C	1.116879	-0.213399	0.500031
C127	C	0.616274	-0.763814	0.000031
C128	C	1.116274	-0.263814	0.500031
C129	C	0.720145	-0.775822	0.000042
C130	C	1.220145	-0.275822	0.500042
C131	C	0.720749	-0.725406	0.000046
C132	C	1.220749	-0.225406	0.500046
C133	C	0.669114	-0.694195	0.000036
C134	C	1.169114	-0.194195	0.500036
C135	C	0.727506	-0.160758	0.000076
C136	C	1.227506	0.339242	0.500076
C137	C	0.728105	-0.110341	0.000084
C138	C	1.228105	0.389659	0.500084
C139	C	0.624235	-0.098337	0.000069
C140	C	1.124235	0.401663	0.500069
C141	C	0.623635	-0.148751	0.000065
C142	C	1.123635	0.351249	0.500065
C143	C	0.675276	-0.179961	0.000066
C144	C	1.175276	0.320039	0.500066
O145	O	0.578547	-0.223406	0.000068
O146	O	1.078547	0.276594	0.500068
O147	O	0.770721	-0.245659	0.000061
O148	O	1.270721	0.254341	0.500061
C149	C	0.723827	-0.468283	0.000047
C150	C	1.223827	0.031717	0.500047
C151	C	0.671593	-0.487485	0.000037
C152	C	1.171593	0.012515	0.500037
C153	C	0.619962	-0.456274	0.000031
C154	C	1.119962	0.043726	0.500031
C155	C	0.670988	-0.537900	0.000037
C156	C	1.170988	-0.037900	0.500037
C157	C	0.722619	-0.569112	0.000042
C158	C	1.222619	-0.069112	0.500042
C159	C	0.774855	-0.549908	0.000047
C160	C	1.274855	-0.049908	0.500047
C161	C	0.775458	-0.499495	0.000053
C162	C	1.275458	0.000505	0.500053
C163	C	0.567727	-0.475478	0.000026
C164	C	1.067727	0.024522	0.500026
C165	C	0.567127	-0.525891	0.000021
C166	C	1.067127	-0.025891	0.500021
C167	C	0.618758	-0.557103	0.000026
C168	C	1.118758	-0.057103	0.500026
C169	C	0.776346	0.058894	0.000070
C170	C	1.276346	0.558894	0.500070
C171	C	0.839562	0.059544	0.000073
C172	C	1.339562	0.559544	0.500073
C173	C	0.667254	0.151319	0.000045
C174	C	1.167254	0.651319	0.500045
C175	C	0.667905	0.204975	0.000036
C176	C	1.167905	0.704975	0.500036
N177	N	0.672171	0.062938	0.143864
N178	N	1.172171	0.562938	0.643864
N179	N	0.672213	0.062903	-0.143744
N180	N	1.172213	0.562903	0.356256
C181	C	0.711209	0.029873	0.563653
C182	C	1.211209	0.529873	1.063653
C183	C	0.711211	0.029869	0.627261
C184	C	1.211211	0.529869	1.127261
O185	O	0.744380	0.001762	0.660160
O186	O	1.244380	0.501762	1.160160
N187	N	0.672199	0.062906	0.659071
N188	N	1.172199	0.562906	1.159071
C189	C	0.633177	0.095945	0.627271
C190	C	1.133177	0.595945	1.127271
O191	O	0.599994	0.124044	0.660169
O192	O	1.099994	0.624044	1.160169
C193	C	0.633172	0.095945	0.563665
C194	C	1.133172	0.595945	1.063665
C195	C	0.672191	0.062910	0.531857
C196	C	1.172191	0.562910	1.031857
C197	C	0.750224	-0.003160	0.531846
C198	C	1.250224	0.496840	1.031846
C199	C	0.750222	-0.003156	0.468243
C200	C	1.250222	0.496844	0.968243
C201	C	0.711205	0.029881	0.436447
C202	C	1.211205	0.529881	0.936447
C203	C	0.672189	0.062914	0.468254
C204	C	1.172189	0.562914	0.968254
C205	C	0.594148	0.128981	0.531866
C206	C	1.094148	0.628981	1.031866
C207	C	0.594147	0.128979	0.468255
C208	C	1.094147	0.628979	0.968255
C209	C	0.633166	0.095943	0.436447
C210	C	1.133166	0.595943	0.936447
C211	C	0.633170	0.095955	0.372855
C212	C	1.133170	0.595955	0.872855
N213	N	0.672182	0.062919	0.341045
N214	N	1.172182	0.562919	0.841045
C215	C	0.711200	0.029881	0.372840
C216	C	1.211200	0.529881	0.872840
C217	C	0.633190	0.095940	0.760849
C218	C	1.133190	0.595940	1.260849
C219	C	0.633197	0.095942	0.824454
C220	C	1.133197	0.595942	1.324454
C221	C	0.711231	0.029866	0.824440
C222	C	1.211231	0.529866	1.324440
C223	C	0.711226	0.029867	0.760833
C224	C	1.211226	0.529867	1.260833
C225	C	0.672202	0.062904	0.729038
C226	C	1.172202	0.562904	1.229038
C227	C	0.711193	0.029893	0.239269
C228	C	1.211193	0.529893	0.739269
C229	C	0.711189	0.029901	0.175660
C230	C	1.211189	0.529901	0.675660
C231	C	0.633153	0.095975	0.175680
C232	C	1.133153	0.595975	0.675680
C233	C	0.633159	0.095969	0.239284
C234	C	1.133159	0.595969	0.739284
C235	C	0.672181	0.062924	0.271076
C236	C	1.172181	0.562924	0.771076
O237	O	0.600017	0.124047	0.339915
O238	O	1.100017	0.624047	0.839915
O239	O	0.744372	0.001783	0.339935
O240	O	1.244372	0.501783	0.839935
H241	H	-0.034156	-0.019261	0.000086
H242	H	0.465844	0.480739	0.500086
H243	H	0.817996	-0.483866	0.000062
H244	H	1.317996	0.016134	0.500062
H245	H	0.098146	0.186402	0.000047
H246	H	0.598146	0.686402	0.500047
C247	C	0.754142	-0.006475	0.725851
C248	C	1.254142	0.493525	1.225851
H249	H	0.777376	-0.026151	0.753903
H250	H	1.277376	0.473849	1.253903
H251	H	0.777694	0.010808	0.701032
H252	H	1.277694	0.510808	1.201032
H253	H	0.733829	-0.026513	0.701045
H254	H	1.233829	0.473487	1.201045
C255	C	0.590283	0.132284	0.859438
C256	C	1.090283	0.632284	1.359438
H257	H	0.595871	0.127557	0.901875
H258	H	1.095871	0.627557	1.401875
H259	H	0.552321	0.127200	0.849015
H260	H	1.052321	0.627200	1.349015
H261	H	0.596187	0.164520	0.849013
H262	H	1.096187	0.664520	1.349013
C263	C	0.754144	-0.006479	0.859423
C264	C	1.254144	0.493521	1.359423
H265	H	0.748551	-0.001749	0.901859
H266	H	1.248551	0.498251	1.401859
H267	H	0.792108	-0.001398	0.849000
H268	H	1.292108	0.498602	1.349000
H269	H	0.748237	-0.038714	0.849000
H270	H	1.248237	0.461286	1.349000
C271	C	-0.178463	0.152059	0.000060
C272	C	0.321537	0.652059	0.500060
H273	H	-0.217063	0.145340	0.000068
H274	H	0.282937	0.645340	0.500068
H275	H	-0.171677	0.170264	-0.035181
H276	H	0.328323	0.670264	0.464819
H277	H	-0.171677	0.170267	0.035301
H278	H	0.328323	0.670267	0.535301
H279	H	0.524585	-0.541520	0.000017
H280	H	1.024585	-0.041520	0.500017
C281	C	0.522839	-0.026211	0.000057
C282	C	1.022839	0.473789	0.500057
H283	H	0.500919	-0.052726	0.000059
H284	H	1.000919	0.447274	0.500059
H285	H	0.546309	-0.027801	0.035294
H286	H	1.046309	0.472199	0.535294
H287	H	0.546307	-0.027809	-0.035188
H288	H	1.046307	0.472191	0.464812
C289	C	0.590233	0.132310	0.140697
C290	C	1.090233	0.632310	0.640697
H291	H	0.595819	0.127573	0.098261
H292	H	1.095819	0.627573	0.598261
H293	H	0.596124	0.164547	0.151116
H294	H	1.096124	0.664547	0.651116
H295	H	0.552272	0.127214	0.151125
H296	H	1.052272	0.627214	0.651125
C297	C	0.558814	-0.784932	0.000025
C298	C	1.058814	-0.284932	0.500025
H299	H	0.565843	-0.819428	0.000030
H300	H	1.065843	-0.319428	0.500030
H301	H	0.537581	-0.774200	-0.035216
H302	H	1.037581	-0.274200	0.464784
H303	H	0.537570	-0.774201	0.035265
H304	H	1.037570	-0.274201	0.535265
C305	C	0.793137	-0.039501	0.433263
C306	C	1.293137	0.460499	0.933263
H307	H	0.816367	-0.059178	0.461316
H308	H	1.316367	0.440822	0.961316
H309	H	0.816692	-0.022220	0.408445
H310	H	1.316692	0.477780	0.908445
H311	H	0.772823	-0.059537	0.408456
H312	H	1.272823	0.440463	0.908456
C313	C	0.833464	-0.432994	0.000075
C314	C	1.333464	0.067006	0.500075
H315	H	0.864655	-0.414331	0.000086
H316	H	1.364655	0.085669	0.500086
H317	H	0.835404	-0.452915	-0.035161
H318	H	1.335404	0.047085	0.464839
H319	H	0.835382	-0.452907	0.035320
H320	H	1.335382	0.047093	0.535320
H321	H	0.769556	-0.186164	0.000075
H322	H	1.269556	0.313836	0.500075
H323	H	-0.141903	-0.020355	0.000078
H324	H	0.358097	0.479645	0.500078
H325	H	0.762185	-0.801243	0.000047
H326	H	1.262185	-0.301243	0.500047
C327	C	0.551232	0.165325	0.566840
C328	C	1.051232	0.665325	1.066840
H329	H	0.527995	0.184995	0.538785
H330	H	1.027995	0.684995	1.038785
H331	H	0.571540	0.185361	0.591648
H332	H	1.071540	0.685361	1.091648
H333	H	0.527674	0.148040	0.591656
H334	H	1.027674	0.648040	1.091656
H335	H	0.601414	0.122847	0.734965
H336	H	1.101414	0.622847	1.234965
C337	C	0.212328	0.200173	0.000036
C338	C	0.712328	0.700173	0.500036
H339	H	0.252984	0.194271	0.000031
H340	H	0.752984	0.694271	0.500031
H341	H	0.199643	0.218184	0.035271
H342	H	0.699643	0.718184	0.535271
H343	H	0.199646	0.218175	-0.035211
H344	H	0.699646	0.718175	0.464789
H345	H	0.138506	-0.061648	0.000107
H346	H	0.638506	0.438352	0.500107
C347	C	0.256788	-0.073054	0.000103
C348	C	0.756788	0.426946	0.500103
H349	H	0.234860	-0.099564	0.000105
H350	H	0.734860	0.400436	0.500105
H351	H	0.280259	-0.074649	0.035339
H352	H	0.780259	0.425351	0.535339
H353	H	0.280254	-0.074654	-0.035143
H354	H	0.780254	0.425346	0.464857
C355	C	0.551223	0.165322	0.433284
C356	C	1.051223	0.665322	0.933284
H357	H	0.527991	0.184997	0.461341
H358	H	1.027991	0.684997	0.961341
H359	H	0.527669	0.148039	0.408471
H360	H	1.027669	0.648039	0.908471
H361	H	0.571532	0.185362	0.408473
H362	H	1.071532	0.685362	0.908473
C363	C	0.590218	0.132288	0.274273
C364	C	1.090218	0.632288	0.774273
H365	H	0.566972	0.151957	0.246224
H366	H	1.066972	0.651957	0.746224
H367	H	0.610498	0.152329	0.299104
H368	H	1.110498	0.652329	0.799104
H369	H	0.566674	0.114974	0.299067
H370	H	1.066674	0.614974	0.799067
C371	C	0.398104	-0.027480	0.000064
C372	C	0.898104	0.472520	0.500064
H373	H	0.428570	-0.053458	0.000069
H374	H	0.928570	0.446542	0.500069
H375	H	0.375228	-0.029553	-0.035170
H376	H	0.875228	0.470447	0.464830
H377	H	0.375235	-0.029544	0.035312
H378	H	0.875235	0.470456	0.535312
H379	H	0.378542	0.145112	0.000041
H380	H	0.878542	0.645112	0.500041
C381	C	0.492729	0.158879	0.000024
C382	C	0.992729	0.658879	0.500024
H383	H	0.462262	0.184856	0.000027
H384	H	0.962262	0.684856	0.500027
H385	H	0.515602	0.160945	-0.035216
H386	H	1.015602	0.660945	0.464784
H387	H	0.515600	0.160950	0.035266
H388	H	1.015600	0.660950	0.535266
C389	C	0.785570	-0.089222	0.000093
C390	C	1.285570	0.410778	0.500093
H391	H	0.816231	-0.115034	0.000089
H392	H	1.316231	0.384966	0.500089
H393	H	0.787962	-0.069806	0.035333
H394	H	1.287962	0.430194	0.535333
H395	H	0.787970	-0.069804	-0.035148
H396	H	1.287970	0.430196	0.464852
H397	H	0.574829	-0.687991	0.000022
H398	H	1.074829	-0.187991	0.500022
C399	C	0.512736	-0.289899	0.000015
C400	C	1.012736	0.210101	0.500015
H401	H	0.481542	-0.308558	0.000013
H402	H	0.981542	0.191442	0.500013
H403	H	0.510818	-0.269980	-0.035221
H404	H	1.010818	0.230020	0.464779
H405	H	0.510805	-0.269985	0.035260
H406	H	1.010805	0.230015	0.535260
H407	H	0.781997	-0.030065	0.557728
H408	H	1.281997	0.469935	1.057728
C409	C	0.778210	-0.704289	0.000053
C410	C	1.278210	-0.204289	0.500053
H411	H	0.808870	-0.730102	0.000053
H412	H	1.308870	-0.230102	0.500053
H413	H	0.780603	-0.684870	0.035290
H414	H	1.280603	-0.184870	0.535290
H415	H	0.780613	-0.684874	-0.035191
H416	H	1.280613	-0.184874	0.464809
H417	H	0.819807	-0.332628	0.000076
H418	H	1.319807	0.167372	0.500076
C419	C	0.511464	-0.395756	0.000007
C420	C	1.011464	0.104244	0.500007
H421	H	0.480806	-0.369941	-0.000004
H422	H	0.980806	0.130059	0.499996
H423	H	0.509052	-0.415175	0.035242
H424	H	1.009052	0.084825	0.535242
H425	H	0.509075	-0.415170	-0.035240
H426	H	1.009075	0.084830	0.464760
H427	H	0.581099	-0.164385	0.000072
H428	H	1.081099	0.335615	0.500072
C429	C	0.831647	-0.584246	0.000048
C430	C	1.331647	-0.084246	0.500048
H431	H	0.823800	-0.617020	0.000039
H432	H	1.323800	-0.117020	0.500039
H433	H	0.853086	-0.578458	0.035288
H434	H	1.353086	-0.078458	0.535288
H435	H	0.853087	-0.578451	-0.035194
H436	H	1.353087	-0.078451	0.464806
C437	C	-0.053729	0.153331	0.000054
C438	C	0.446271	0.653331	0.500054
H439	H	-0.084197	0.179307	0.000053
H440	H	0.415803	0.679307	0.500053
H441	H	-0.030852	0.155397	-0.035183
H442	H	0.469148	0.655397	0.464817
H443	H	-0.030862	0.155404	0.035299
H444	H	0.469138	0.655404	0.535299
H445	H	0.582198	-0.072916	0.000067
H446	H	1.082198	0.427084	0.500067
C447	C	0.754117	-0.006432	0.140673
C448	C	1.254117	0.493568	0.640673
H449	H	0.748536	-0.001695	0.098236
H450	H	1.248536	0.498305	0.598236
H451	H	0.748228	-0.038670	0.151091
H452	H	1.248228	0.461330	0.651091
H453	H	0.792076	-0.001335	0.151101
H454	H	1.292076	0.498665	0.651101
C455	C	0.754118	-0.006454	0.274232
C456	C	1.254118	0.493546	0.774232
H457	H	0.777354	-0.026121	0.246172
H458	H	1.277354	0.473879	0.746172
H459	H	0.733817	-0.026493	0.299047
H460	H	1.233817	0.473507	0.799047
H461	H	0.777675	0.010834	0.299042
H462	H	1.277675	0.510834	0.799042
H463	H	0.525681	-0.450070	0.000020
H464	H	1.025681	0.049930	0.500020
