data_functionalizedCrystal
_audit_creation_method	'MofGen! by Chris Wilmer'
_symmetry_space_group_name_H-M	'P1'
_symmetry_Int_Tables_number	1
_symmetry_cell_setting	triclinic
loop_
_symmetry_equiv_pos_as_xyz
  x,y,z
_cell_length_a	25.639242
_cell_length_b	29.839131
_cell_length_c	25.639234
_cell_angle_alpha	89.970402
_cell_angle_beta	89.980236
_cell_angle_gamma	90.030754
loop_
_atom_site_label
_atom_site_type_symbol
_atom_site_fract_x
_atom_site_fract_y
_atom_site_fract_z
Zn1	Zn	0.799225	-0.178951	-0.295711
Zn2	Zn	1.299225	0.321049	0.204289
Zn3	Zn	0.799158	-0.254069	-0.208263
Zn4	Zn	1.299158	0.245931	0.291737
Zn5	Zn	0.711805	-0.178948	-0.208275
Zn6	Zn	1.211805	0.321052	0.291725
Zn7	Zn	0.711752	-0.254049	-0.295653
Zn8	Zn	1.211752	0.245951	0.204347
O9	O	0.755485	-0.216504	-0.251976
O10	O	1.255485	0.283496	0.248024
O11	O	0.872381	-0.188925	-0.284130
O12	O	1.372381	0.311075	0.215870
O13	O	0.787564	-0.244111	-0.135099
O14	O	1.287564	0.255889	0.364901
O15	O	0.723452	-0.116081	-0.219904
O16	O	1.223452	0.383919	0.280096
O17	O	0.872332	-0.244114	-0.219882
O18	O	1.372332	0.255886	0.280118
O19	O	0.787679	-0.116084	-0.284143
O20	O	1.287679	0.383916	0.215857
O21	O	0.723387	-0.188919	-0.135109
O22	O	1.223387	0.311081	0.364891
O23	O	0.638633	-0.188900	-0.219847
O24	O	1.138633	0.311100	0.280153
O25	O	0.723361	-0.244080	-0.368826
O26	O	1.223361	0.255920	0.131174
O27	O	0.638594	-0.244077	-0.284043
O28	O	1.138594	0.255923	0.215957
O29	O	0.787628	-0.188906	-0.368869
O30	O	1.287628	0.311094	0.131131
O31	O	0.787512	-0.316933	-0.219825
O32	O	1.287512	0.183067	0.280175
O33	O	0.723296	-0.316919	-0.284030
O34	O	1.223296	0.183081	0.215970
C35	C	0.619642	-0.216486	-0.251940
C36	C	1.119642	0.283514	0.248060
C37	C	0.561528	-0.216490	-0.251937
C38	C	1.061528	0.283510	0.248063
C39	C	0.201154	-0.245283	-0.285371
C40	C	0.701154	0.254717	0.214629
C41	C	0.146550	-0.245285	-0.285379
C42	C	0.646550	0.254715	0.214621
O43	O	0.118303	-0.269744	-0.313775
O44	O	0.618303	0.230256	0.186225
N45	N	0.119246	-0.216516	-0.252010
N46	N	0.619246	0.283484	0.247990
C47	C	0.146549	-0.187740	-0.218634
C48	C	0.646549	0.312260	0.281366
O49	O	0.118312	-0.163270	-0.190252
O50	O	0.618312	0.336730	0.309748
C51	C	0.201153	-0.187735	-0.218629
C52	C	0.701153	0.312265	0.281371
C53	C	0.228454	-0.216509	-0.251996
C54	C	0.728454	0.283491	0.248004
C55	C	0.228455	-0.274054	-0.318736
C56	C	0.728455	0.225946	0.181264
C57	C	0.283055	-0.274052	-0.318727
C58	C	0.783055	0.225948	0.181273
C59	C	0.310355	-0.245278	-0.285352
C60	C	0.810355	0.254722	0.214648
C61	C	0.283054	-0.216507	-0.251987
C62	C	0.783054	0.283493	0.248013
C63	C	0.228455	-0.158957	-0.185256
C64	C	0.728455	0.341043	0.314744
C65	C	0.283062	-0.158954	-0.185254
C66	C	0.783062	0.341046	0.314746
C67	C	0.310363	-0.187728	-0.218621
C68	C	0.810363	0.312272	0.281379
C69	C	0.364954	-0.187731	-0.218604
C70	C	0.864954	0.312269	0.281396
N71	N	0.392258	-0.216500	-0.251973
N72	N	0.892258	0.283500	0.248027
C73	C	0.364958	-0.245273	-0.285347
C74	C	0.864958	0.254727	0.214653
C75	C	0.031879	-0.187751	-0.218648
C76	C	0.531879	0.312249	0.281352
C77	C	-0.022724	-0.187758	-0.218650
C78	C	0.477276	0.312242	0.281350
C79	C	-0.022720	-0.245303	-0.285396
C80	C	0.477280	0.254697	0.214604
C81	C	0.031884	-0.245298	-0.285391
C82	C	0.531884	0.254702	0.214609
C83	C	0.059182	-0.216520	-0.252017
C84	C	0.559182	0.283480	0.247983
C85	C	0.479623	-0.245267	-0.285325
C86	C	0.979623	0.254733	0.214675
C87	C	0.534229	-0.245263	-0.285312
C88	C	1.034229	0.254737	0.214688
C89	C	0.534220	-0.187717	-0.218568
C90	C	1.034220	0.312283	0.281432
C91	C	0.479619	-0.187722	-0.218580
C92	C	0.979619	0.312278	0.281420
C93	C	0.452322	-0.216498	-0.251962
C94	C	0.952322	0.283502	0.248038
O95	O	0.393236	-0.163283	-0.190224
O96	O	0.893236	0.336717	0.309776
O97	O	0.393203	-0.269735	-0.313729
O98	O	0.893203	0.230265	0.186271
C99	C	0.755405	-0.333227	-0.251931
C100	C	1.255405	0.166773	0.248069
C101	C	0.755419	-0.383161	-0.251930
C102	C	1.255419	0.116839	0.248070
C103	C	0.788921	-0.692771	-0.285472
C104	C	1.288921	-0.192771	0.214528
C105	C	0.788977	-0.880444	-0.285504
C106	C	1.288977	-0.380444	0.214496
O107	O	0.817384	-0.904680	-0.313990
O108	O	1.317384	-0.404680	0.186010
N109	N	0.755574	-0.903946	-0.252034
N110	N	1.255574	-0.403946	0.247966
C111	C	0.722151	-0.880527	-0.218556
C112	C	1.222151	-0.380527	0.281444
O113	O	0.693737	-0.904824	-0.190092
O114	O	1.193737	-0.404824	0.309908
C115	C	0.722092	-0.692855	-0.218527
C116	C	1.222092	-0.192855	0.281473
C117	C	0.755502	-0.669355	-0.251996
C118	C	1.255502	-0.169355	0.248004
C119	C	0.822327	-0.669271	-0.318939
C120	C	1.322327	-0.169271	0.181061
C121	C	0.822315	-0.622356	-0.318928
C122	C	1.322315	-0.122356	0.181072
C123	C	0.788896	-0.598940	-0.285452
C124	C	1.288896	-0.098940	0.214548
C125	C	0.755489	-0.622440	-0.251986
C126	C	1.255489	-0.122440	0.248014
C127	C	0.688667	-0.669437	-0.185052
C128	C	1.188667	-0.169437	0.314948
C129	C	0.688654	-0.622516	-0.185049
C130	C	1.188654	-0.122516	0.314951
C131	C	0.722064	-0.599016	-0.218518
C132	C	1.222064	-0.099016	0.281482
C133	C	0.722058	-0.552109	-0.218499
C134	C	1.222058	-0.052109	0.281501
N135	N	0.755461	-0.528607	-0.251969
N136	N	1.255461	-0.028607	0.248031
C137	C	0.788880	-0.552022	-0.285446
C138	C	1.288880	-0.052022	0.214554
C139	C	0.722185	-0.979058	-0.218572
C140	C	1.222185	-0.479058	0.281428
C141	C	0.722200	-1.025976	-0.218578
C142	C	1.222200	-0.525976	0.281422
C143	C	0.789026	-1.025889	-0.285527
C144	C	1.289026	-0.525889	0.214473
C145	C	0.789013	-0.978970	-0.285518
C146	C	1.289013	-0.478970	0.214482
C147	C	0.755589	-0.955556	-0.252042
C148	C	1.255589	-0.455556	0.247958
C149	C	0.788852	-0.453496	-0.285421
C150	C	1.288852	0.046504	0.214579
C151	C	0.788838	-0.406577	-0.285407
C152	C	1.288838	0.093423	0.214593
C153	C	0.722010	-0.406667	-0.218460
C154	C	1.222010	0.093333	0.281540
C155	C	0.722026	-0.453583	-0.218472
C156	C	1.222026	0.046417	0.281528
C157	C	0.755449	-0.476996	-0.251957
C158	C	1.255449	0.023004	0.248043
O159	O	0.693662	-0.527844	-0.190032
O160	O	1.193662	-0.027844	0.309968
O161	O	0.817282	-0.527718	-0.313913
O162	O	1.317282	-0.027718	0.186087
C163	C	0.788933	-0.739686	-0.285483
C164	C	1.288933	-0.239686	0.214517
C165	C	0.755527	-0.763186	-0.252016
C166	C	1.255527	-0.263186	0.247984
C167	C	0.722108	-0.739771	-0.218540
C168	C	1.222108	-0.239771	0.281460
C169	C	0.755542	-0.810104	-0.252023
C170	C	1.255542	-0.310104	0.247977
C171	C	0.788961	-0.833520	-0.285499
C172	C	1.288961	-0.333520	0.214501
C173	C	0.822365	-0.810017	-0.318969
C174	C	1.322365	-0.310017	0.181031
C175	C	0.822352	-0.763102	-0.318959
C176	C	1.322352	-0.263102	0.181041
C177	C	0.688704	-0.763273	-0.185070
C178	C	1.188704	-0.263273	0.314930
C179	C	0.688720	-0.810188	-0.185082
C180	C	1.188720	-0.310188	0.314918
C181	C	0.722139	-0.833604	-0.218559
C182	C	1.222139	-0.333604	0.281441
C183	C	0.891858	-0.216522	-0.252011
C184	C	1.391858	0.283478	0.247989
C185	C	0.949972	-0.216530	-0.252027
C186	C	1.449972	0.283470	0.247973
C187	C	0.755496	-0.216491	-0.388349
C188	C	1.255496	0.283509	0.111651
C189	C	0.755501	-0.216486	-0.446463
C190	C	1.255501	0.283514	0.053537
C191	C	0.755579	-0.099326	-0.252031
C192	C	1.255579	0.400674	0.247969
C193	C	0.755619	-0.049391	-0.252055
C194	C	1.255619	0.450609	0.247945
C195	C	0.722072	-0.245159	-0.697628
C196	C	1.222072	0.254841	-0.197628
C197	C	0.722063	-0.245169	-0.643024
C198	C	1.222063	0.254831	-0.143024
O199	O	0.693591	-0.269592	-0.614763
O200	O	1.193591	0.230408	-0.114763
N201	N	0.755521	-0.216450	-0.615737
N202	N	1.255521	0.283550	-0.115737
C203	C	0.788986	-0.187715	-0.643057
C204	C	1.288986	0.312285	-0.143057
O205	O	0.817443	-0.163288	-0.614833
O206	O	1.317443	0.336712	-0.114833
C207	C	0.788992	-0.187703	-0.697660
C208	C	1.288992	0.312297	-0.197660
C209	C	0.755536	-0.216428	-0.724944
C210	C	1.255536	0.283572	-0.224944
C211	C	0.688619	-0.273880	-0.724912
C212	C	1.188619	0.226120	-0.224912
C213	C	0.688629	-0.273870	-0.779513
C214	C	1.188629	0.226130	-0.279513
C215	C	0.722092	-0.245139	-0.806829
C216	C	1.222092	0.254861	-0.306829
C217	C	0.755546	-0.216418	-0.779545
C218	C	1.255546	0.283582	-0.279545
C219	C	0.822454	-0.158967	-0.724979
C220	C	1.322454	0.341033	-0.224979
C221	C	0.822457	-0.158957	-0.779586
C222	C	1.322457	0.341043	-0.279586
C223	C	0.789001	-0.187682	-0.806870
C224	C	1.289001	0.312318	-0.306870
C225	C	0.789020	-0.187677	-0.861462
C226	C	1.289020	0.312323	-0.361462
N227	N	0.755562	-0.216396	-0.888749
N228	N	1.255562	0.283604	-0.388749
C229	C	0.722098	-0.245127	-0.861433
C230	C	1.222098	0.254873	-0.361433
C231	C	0.788970	-0.187742	-0.528386
C232	C	1.288970	0.312258	-0.028386
C233	C	0.788967	-0.187756	-0.473784
C234	C	1.288967	0.312244	0.026216
C235	C	0.722043	-0.245209	-0.473754
C236	C	1.222043	0.254791	0.026246
C237	C	0.722049	-0.245197	-0.528358
C238	C	1.222049	0.254803	-0.028358
C239	C	0.755512	-0.216461	-0.555673
C240	C	1.255512	0.283539	-0.055673
C241	C	0.722122	-0.245105	-0.976098
C242	C	1.222122	0.254895	-0.476098
C243	C	0.722137	-0.245094	-1.030703
C244	C	1.222137	0.254906	-0.530703
C245	C	0.789058	-0.187640	-1.030728
C246	C	1.289058	0.312360	-0.530728
C247	C	0.789046	-0.187652	-0.976127
C248	C	1.289046	0.312348	-0.476127
C249	C	0.755574	-0.216386	-0.948813
C250	C	1.255574	0.283614	-0.448813
O251	O	0.817476	-0.163265	-0.889757
O252	O	1.317476	0.336735	-0.389757
O253	O	0.693641	-0.269546	-0.889663
O254	O	1.193641	0.230454	-0.389663
C255	C	0.755504	-0.216484	-0.116133
C256	C	1.255504	0.283516	0.383867
C257	C	0.755601	-0.216363	-0.058019
C258	C	1.255601	0.283637	0.441981
H259	H	0.305286	-0.135516	-0.158079
H260	H	0.805286	0.364484	0.341921
O261	O	0.058314	-0.159785	-0.186171
O262	O	0.558314	0.340215	0.313829
C263	C	0.022501	-0.134390	-0.156732
C264	C	0.522501	0.365610	0.343268
H265	H	-0.016431	-0.152795	-0.154891
H266	H	0.483569	0.347205	0.345109
H267	H	0.016720	-0.100293	-0.175954
H268	H	0.516720	0.399707	0.324046
C269	C	0.091599	-0.105242	-0.103356
C270	C	0.591599	0.394758	0.396644
C271	C	0.043783	-0.127849	-0.101091
C272	C	0.543783	0.372151	0.398909
H273	H	0.104727	-0.101205	-0.069034
H274	H	0.604727	0.398795	0.430966
H275	H	0.115727	-0.122350	-0.123190
H276	H	0.615727	0.377650	0.376810
H277	H	0.086774	-0.076830	-0.119376
H278	H	0.586774	0.423170	0.380624
H279	H	0.048609	-0.156262	-0.085076
H280	H	0.548609	0.343738	0.414924
H281	H	0.019656	-0.110746	-0.081252
H282	H	0.519656	0.389254	0.418748
H283	H	-0.044957	-0.268731	-0.312573
H284	H	0.455043	0.231269	0.187427
H285	H	0.816238	-1.044962	-0.312785
H286	H	1.316238	-0.544962	0.187215
H287	H	0.054108	-0.268728	-0.312562
H288	H	0.554108	0.231272	0.187438
H289	H	0.694893	-0.268487	-1.052915
H290	H	1.194893	0.231513	-0.552915
H291	H	0.694806	-0.268587	-0.550569
H292	H	1.194806	0.231413	-0.050569
O293	O	0.453177	-0.159732	-0.186147
O294	O	0.953177	0.340268	0.313853
C295	C	0.488985	-0.134346	-0.156676
C296	C	0.988985	0.365654	0.343324
H297	H	0.527920	-0.132818	-0.178088
H298	H	1.027920	0.367182	0.321912
H299	H	0.494759	-0.150749	-0.116929
H300	H	0.994759	0.349251	0.383071
C301	C	0.419880	-0.088399	-0.122956
C302	C	0.919880	0.411601	0.377044
C303	C	0.467701	-0.086519	-0.149256
C304	C	0.967701	0.413481	0.350744
H305	H	0.406751	-0.058897	-0.118377
H306	H	0.906751	0.441103	0.381623
H307	H	0.395756	-0.105502	-0.142809
H308	H	0.895756	0.394498	0.357191
H309	H	0.424699	-0.102069	-0.089836
H310	H	0.924699	0.397931	0.410164
H311	H	0.462880	-0.072854	-0.182378
H312	H	0.962880	0.427146	0.317622
H313	H	0.491824	-0.069412	-0.129408
H314	H	0.991824	0.430588	0.370592
O315	O	0.689565	-0.383847	-0.185992
O316	O	1.189565	0.116153	0.314008
C317	C	0.696729	-0.337398	-0.193157
C318	C	1.196729	0.162602	0.306843
H319	H	0.713826	-0.330961	-0.233523
H320	H	1.213826	0.169039	0.266477
H321	H	0.724588	-0.324082	-0.162171
H322	H	1.224588	0.175918	0.337829
C323	C	0.622827	-0.321251	-0.138736
C324	C	1.122827	0.178749	0.361264
C325	C	0.643822	-0.313344	-0.188316
C326	C	1.143822	0.186656	0.311684
H327	H	0.590192	-0.306413	-0.135747
H328	H	1.090192	0.193587	0.364253
H329	H	0.618001	-0.352545	-0.133907
H330	H	1.118001	0.147455	0.366093
H331	H	0.646048	-0.310154	-0.112920
H332	H	1.146048	0.189846	0.387080
H333	H	0.620604	-0.324447	-0.214131
H334	H	1.120604	0.175553	0.285869
H335	H	0.648643	-0.282052	-0.193149
H336	H	1.148643	0.217948	0.306851
O337	O	0.656314	-0.740481	-0.152522
O338	O	1.156314	-0.240481	0.347478
C339	C	0.686099	-0.713352	-0.118768
C340	C	1.186099	-0.213352	0.381232
H341	H	0.725705	-0.706282	-0.137252
H342	H	1.225705	-0.206282	0.362748
H343	H	0.691882	-0.731457	-0.080035
H344	H	1.191882	-0.231457	0.419965
C345	C	0.608681	-0.677496	-0.086551
C346	C	1.108681	-0.177496	0.413449
C347	C	0.657323	-0.668809	-0.109255
C348	C	1.157323	-0.168809	0.390745
H349	H	0.590929	-0.650021	-0.080680
H350	H	1.090929	-0.150021	0.419320
H351	H	0.588613	-0.695774	-0.109289
H352	H	1.088613	-0.195774	0.390711
H353	H	0.613506	-0.692585	-0.054276
H354	H	1.113506	-0.192585	0.445724
H355	H	0.652497	-0.653726	-0.141532
H356	H	1.152497	-0.153726	0.358468
H357	H	0.677389	-0.650528	-0.086521
H358	H	1.177389	-0.150528	0.413479
O359	O	0.560805	-0.273152	-0.317755
O360	O	1.060805	0.226848	0.182245
C361	C	0.592411	-0.247614	-0.351587
C362	C	1.092411	0.252386	0.148413
H363	H	0.600604	-0.213546	-0.333222
H364	H	1.100604	0.286454	0.166778
H365	H	0.571387	-0.242725	-0.390346
H366	H	1.071387	0.257275	0.109654
C367	C	0.634203	-0.314187	-0.383550
C368	C	1.134203	0.185813	0.116450
C369	C	0.644271	-0.272345	-0.360992
C370	C	1.144271	0.227655	0.139008
H371	H	0.666192	-0.329442	-0.389354
H372	H	1.166192	0.170558	0.110646
H373	H	0.612909	-0.331392	-0.360758
H374	H	1.112909	0.168608	0.139242
H375	H	0.616682	-0.310106	-0.415847
H376	H	1.116682	0.189894	0.084153
H377	H	0.661785	-0.276426	-0.328693
H378	H	1.161785	0.223574	0.171307
H379	H	0.665569	-0.255141	-0.383779
H380	H	1.165569	0.244859	0.116221
H381	H	-0.044947	-0.164332	-0.191474
H382	H	0.455053	0.335668	0.308526
O383	O	0.202025	-0.130960	-0.152828
O384	O	0.702025	0.369040	0.347172
C385	C	0.237840	-0.105573	-0.123369
C386	C	0.737840	0.394427	0.376631
H387	H	0.276772	-0.104050	-0.144787
H388	H	0.776772	0.395950	0.355213
H389	H	0.243620	-0.121970	-0.083619
H390	H	0.743620	0.378030	0.416381
C391	C	0.168746	-0.059616	-0.089645
C392	C	0.668746	0.440384	0.410355
C393	C	0.216562	-0.057743	-0.115954
C394	C	0.716562	0.442257	0.384046
H395	H	0.155620	-0.030113	-0.085068
H396	H	0.655620	0.469887	0.414932
H397	H	0.144616	-0.076721	-0.109490
H398	H	0.644616	0.423279	0.390510
H399	H	0.173569	-0.073282	-0.056523
H400	H	0.673569	0.426718	0.443477
H401	H	0.211737	-0.044082	-0.149077
H402	H	0.711737	0.455918	0.350923
H403	H	0.240691	-0.040635	-0.096113
H404	H	0.740691	0.459365	0.403887
H405	H	0.556457	-0.164291	-0.191394
H406	H	1.056457	0.335709	0.308606
O407	O	0.656130	-0.599751	-0.152604
O408	O	1.156130	-0.099751	0.347396
C409	C	0.622341	-0.572608	-0.182329
C410	C	1.122341	-0.072608	0.317671
H411	H	0.619088	-0.586724	-0.223508
H412	H	1.119088	-0.086724	0.276492
H413	H	0.638494	-0.537038	-0.184138
H414	H	1.138494	-0.037038	0.315862
C415	C	0.572000	-0.554604	-0.106153
C416	C	1.072000	-0.054604	0.393847
C417	C	0.568001	-0.571943	-0.156729
C418	C	1.068001	-0.071943	0.343271
H419	H	0.538482	-0.554191	-0.090361
H420	H	1.038482	-0.054191	0.409639
H421	H	0.594766	-0.572889	-0.086126
H422	H	1.094766	-0.072889	0.413874
H423	H	0.585464	-0.524963	-0.107668
H424	H	1.085464	-0.024963	0.392332
H425	H	0.554545	-0.601585	-0.155213
H426	H	1.054545	-0.101585	0.344787
H427	H	0.545232	-0.553663	-0.176756
H428	H	1.045232	-0.053663	0.323244
H429	H	0.816046	-0.387445	-0.312661
H430	H	1.316046	0.112555	0.187339
H431	H	0.816216	-0.164371	-0.451573
H432	H	1.316216	0.335629	0.048427
H433	H	0.816305	-0.164249	-1.052978
H434	H	1.316305	0.335751	-0.552978
H435	H	0.849557	-0.743972	-0.346212
H436	H	1.349557	-0.243972	0.153788
H437	H	0.849705	-0.135555	-0.801824
H438	H	1.349705	0.364445	-0.301824
O439	O	0.689701	-1.048731	-0.186046
O440	O	1.189701	-0.548731	0.313954
C441	C	0.660213	-1.017997	-0.156492
C442	C	1.160213	-0.517997	0.343508
H443	H	0.658380	-0.984543	-0.177903
H444	H	1.158380	-0.484543	0.322097
H445	H	0.679386	-1.013015	-0.116803
H446	H	1.179386	-0.513015	0.383197
C447	C	0.606826	-1.077435	-0.122600
C448	C	1.106826	-0.577435	0.377400
C449	C	0.604572	-1.036347	-0.148900
C450	C	1.104572	-0.536347	0.351100
H451	H	0.572505	-1.088754	-0.117915
H452	H	1.072505	-0.588754	0.382085
H453	H	0.626694	-1.098141	-0.142510
H454	H	1.126694	-0.598141	0.357490
H455	H	0.622807	-1.073277	-0.089529
H456	H	1.122807	-0.573277	0.410471
H457	H	0.588598	-1.040506	-0.181973
H458	H	1.088598	-0.540506	0.318027
H459	H	0.584700	-1.015641	-0.128996
H460	H	1.084700	-0.515641	0.371004
H461	H	0.816064	-0.472554	-0.312692
H462	H	1.316064	0.027446	0.187308
O463	O	0.854783	-0.599601	-0.351492
O464	O	1.354783	-0.099601	0.148508
C465	C	0.884287	-0.630337	-0.381028
C466	C	1.384287	-0.130337	0.118972
H467	H	0.862876	-0.663793	-0.382815
H468	H	1.362876	-0.163793	0.117185
H469	H	0.924011	-0.635312	-0.361926
H470	H	1.424011	-0.135312	0.138074
C471	C	0.918075	-0.570905	-0.434488
C472	C	1.418075	-0.070905	0.065512
C473	C	0.891775	-0.611995	-0.436687
C474	C	1.391775	-0.111995	0.063313
H475	H	0.922696	-0.559591	-0.468820
H476	H	1.422696	-0.059591	0.031180
H477	H	0.898199	-0.550197	-0.414588
H478	H	1.398199	-0.050197	0.085412
H479	H	0.951176	-0.575056	-0.418567
H480	H	1.451176	-0.075056	0.081433
H481	H	0.858672	-0.607842	-0.452601
H482	H	1.358672	-0.107842	0.047399
H483	H	0.911645	-0.632702	-0.456591
H484	H	1.411645	-0.132702	0.043409
O485	O	0.821458	-0.159768	-0.554860
O486	O	1.321458	0.340232	-0.054860
C487	C	0.810059	-0.114994	-0.541534
C488	C	1.310059	0.385006	-0.041534
H489	H	0.789950	-0.114072	-0.501887
H490	H	1.289950	0.385928	-0.001887
H491	H	0.783200	-0.099848	-0.572266
H492	H	1.283200	0.400152	-0.072266
C493	C	0.885751	-0.088925	-0.587714
C494	C	1.385751	0.411075	-0.087714
C495	C	0.861057	-0.087791	-0.539017
C496	C	1.361057	0.412209	-0.039017
H497	H	0.917208	-0.072144	-0.586164
H498	H	1.417208	0.427856	-0.086164
H499	H	0.893430	-0.119089	-0.596694
H500	H	1.393430	0.380911	-0.096694
H501	H	0.863363	-0.076304	-0.613319
H502	H	1.363363	0.423696	-0.113319
H503	H	0.883442	-0.100417	-0.513415
H504	H	1.383442	0.399583	-0.013415
H505	H	0.853383	-0.057628	-0.530033
H506	H	1.353383	0.442372	-0.030033
H507	H	0.457405	-0.268698	-0.312510
H508	H	0.957405	0.231302	0.187490
O509	O	0.854820	-0.692062	-0.351387
O510	O	1.354820	-0.192062	0.148613
C511	C	0.888632	-0.719183	-0.321660
C512	C	1.388632	-0.219183	0.178340
H513	H	0.870222	-0.726253	-0.282021
H514	H	1.370222	-0.226253	0.217979
H515	H	0.927372	-0.701071	-0.315948
H516	H	1.427372	-0.201071	0.184052
C517	C	0.920718	-0.755039	-0.399134
C518	C	1.420718	-0.255039	0.100866
C519	C	0.898104	-0.763726	-0.350450
C520	C	1.398104	-0.263726	0.149550
H521	H	0.926563	-0.782514	-0.416894
H522	H	1.426563	-0.282514	0.083106
H523	H	0.897940	-0.736766	-0.419162
H524	H	1.397940	-0.236766	0.080838
H525	H	0.952999	-0.739945	-0.394367
H526	H	1.452999	-0.239945	0.105633
H527	H	0.865821	-0.778815	-0.355218
H528	H	1.365821	-0.278815	0.144782
H529	H	0.920877	-0.782003	-0.330423
H530	H	1.420877	-0.282003	0.169577
H531	H	0.305279	-0.297481	-0.345899
H532	H	0.805279	0.202519	0.154101
O533	O	0.201883	-0.302030	-0.351084
O534	O	0.701883	0.197970	0.148916
C535	C	0.170283	-0.331022	-0.321254
C536	C	0.670283	0.168978	0.178746
H537	H	0.162085	-0.315127	-0.281671
H538	H	0.662085	0.184873	0.218329
H539	H	0.191314	-0.364302	-0.315426
H540	H	0.691314	0.135698	0.184574
C541	C	0.128498	-0.358730	-0.398630
C542	C	0.628498	0.141270	0.101370
C543	C	0.118426	-0.339206	-0.350015
C544	C	0.618426	0.160794	0.149985
H545	H	0.096511	-0.363780	-0.416371
H546	H	0.596511	0.136220	0.083629
H547	H	0.149789	-0.339199	-0.418728
H548	H	0.649789	0.160801	0.081272
H549	H	0.146026	-0.386461	-0.393766
H550	H	0.646026	0.113539	0.106234
H551	H	0.100905	-0.311473	-0.354880
H552	H	0.600905	0.188527	0.145120
H553	H	0.097131	-0.358733	-0.329919
H554	H	0.597131	0.141267	0.170081
O555	O	0.656179	-0.692304	-0.152618
O556	O	1.156179	-0.192304	0.347382
C557	C	0.622386	-0.719436	-0.182359
C558	C	1.122386	-0.219436	0.317641
H559	H	0.640808	-0.726438	-0.221997
H560	H	1.140808	-0.226438	0.278003
H561	H	0.583639	-0.701367	-0.188073
H562	H	1.083639	-0.201367	0.311927
C563	C	0.590304	-0.755419	-0.104902
C564	C	1.090304	-0.255419	0.395098
C565	C	0.612932	-0.764023	-0.153584
C566	C	1.112932	-0.264023	0.346416
H567	H	0.584470	-0.782922	-0.087152
H568	H	1.084470	-0.282922	0.412848
H569	H	0.613070	-0.737139	-0.084864
H570	H	1.113070	-0.237139	0.415136
H571	H	0.558017	-0.740361	-0.109670
H572	H	1.058017	-0.240361	0.390330
H573	H	0.645222	-0.779076	-0.148816
H574	H	1.145222	-0.279076	0.351184
H575	H	0.590172	-0.782307	-0.173621
H576	H	1.090172	-0.282307	0.326379
H577	H	0.816218	-0.959840	-0.312771
H578	H	1.316218	-0.459840	0.187229
O579	O	0.854752	-0.832790	-0.351545
O580	O	1.354752	-0.332790	0.148455
C581	C	0.824959	-0.859936	-0.385272
C582	C	1.324959	-0.359936	0.114728
H583	H	0.783776	-0.845817	-0.388453
H584	H	1.283776	-0.345817	0.111547
H585	H	0.823174	-0.895503	-0.369105
H586	H	1.323174	-0.395503	0.130895
C587	C	0.901039	-0.877961	-0.435748
C588	C	1.401039	-0.377961	0.064252
C589	C	0.850459	-0.860616	-0.439658
C590	C	1.350459	-0.360616	0.060342
H591	H	0.916769	-0.878382	-0.469295
H592	H	1.416769	-0.378382	0.030705
H593	H	0.921111	-0.859673	-0.413025
H594	H	1.421111	-0.359673	0.086975
H595	H	0.899544	-0.907598	-0.422274
H596	H	1.399544	-0.407598	0.077726
H597	H	0.851955	-0.830978	-0.453126
H598	H	1.351955	-0.330978	0.046874
H599	H	0.830387	-0.878900	-0.462385
H600	H	1.330387	-0.378900	0.037615
O601	O	0.656183	-0.301815	-0.698325
O602	O	1.156183	0.198185	-0.198325
C603	C	0.685923	-0.330853	-0.666751
C604	C	1.185923	0.169147	-0.166751
H605	H	0.725555	-0.315014	-0.658577
H606	H	1.225555	0.184986	-0.158577
H607	H	0.691650	-0.364138	-0.687794
H608	H	1.191650	0.135862	-0.187794
C609	C	0.608462	-0.358461	-0.624920
C610	C	1.108462	0.141539	-0.124920
C611	C	0.657137	-0.339005	-0.614876
C612	C	1.157137	0.160995	-0.114876
H613	H	0.590705	-0.363491	-0.592922
H614	H	1.090705	0.136509	-0.092922
H615	H	0.588425	-0.338899	-0.646193
H616	H	1.088425	0.161101	-0.146193
H617	H	0.613241	-0.386196	-0.642457
H618	H	1.113241	0.113804	-0.142457
H619	H	0.652357	-0.311268	-0.597346
H620	H	1.152357	0.188732	-0.097346
H621	H	0.677173	-0.358562	-0.593599
H622	H	1.177173	0.141438	-0.093599
H623	H	0.694794	-0.268603	-0.451504
H624	H	1.194794	0.231397	0.048496
H625	H	0.694966	-0.959997	-0.191311
H626	H	1.194966	-0.459997	0.308689
O627	O	0.656187	-0.832992	-0.152623
O628	O	1.156187	-0.332992	0.347377
C629	C	0.604070	-0.821539	-0.163990
C630	C	1.104070	-0.321539	0.336010
H631	H	0.601404	-0.808620	-0.205755
H632	H	1.101404	-0.308620	0.294245
H633	H	0.590419	-0.794327	-0.135942
H634	H	1.090419	-0.294327	0.364058
C635	C	0.572457	-0.879106	-0.106582
C636	C	1.072457	-0.379106	0.393418
C637	C	0.569182	-0.863242	-0.157880
C638	C	1.069182	-0.363242	0.342120
H639	H	0.550935	-0.904829	-0.102811
H640	H	1.050935	-0.404829	0.397189
H641	H	0.607569	-0.886821	-0.098922
H642	H	1.107569	-0.386821	0.401078
H643	H	0.561081	-0.856426	-0.083215
H644	H	1.061081	-0.356426	0.416785
H645	H	0.580563	-0.885920	-0.181246
H646	H	1.080563	-0.385920	0.318754
H647	H	0.534071	-0.855532	-0.165544
H648	H	1.034071	-0.355532	0.334456
O649	O	0.821564	-0.159711	-0.949701
O650	O	1.321564	0.340289	-0.449701
C651	C	0.851114	-0.134361	-0.985523
C652	C	1.351114	0.365639	-0.485523
H653	H	0.829708	-0.132799	-1.024444
H654	H	1.329708	0.367201	-0.524444
H655	H	0.890811	-0.150817	-0.991327
H656	H	1.390811	0.349183	-0.491327
C657	C	0.884973	-0.088468	-0.916432
C658	C	1.384973	0.411532	-0.416432
C659	C	0.858681	-0.086547	-0.964235
C660	C	1.358681	0.413453	-0.464235
H661	H	0.889644	-0.058975	-0.903300
H662	H	1.389644	0.441025	-0.403300
H663	H	0.865067	-0.105548	-0.892297
H664	H	1.365067	0.394452	-0.392297
H665	H	0.918052	-0.102183	-0.921275
H666	H	1.418052	0.397817	-0.421275
H667	H	0.825601	-0.072837	-0.959389
H668	H	1.325601	0.427163	-0.459389
H669	H	0.878582	-0.069463	-0.988368
H670	H	1.378582	0.430537	-0.488368
O671	O	0.689598	-0.273065	-0.949651
O672	O	1.189598	0.226935	-0.449651
C673	C	0.660071	-0.298405	-0.985451
C674	C	1.160071	0.201595	-0.485451
H675	H	0.681493	-0.299944	-1.024377
H676	H	1.181493	0.200056	-0.524377
H677	H	0.620372	-0.281955	-0.991254
H678	H	1.120372	0.218045	-0.491254
C679	C	0.626195	-0.344337	-0.916325
C680	C	1.126195	0.155663	-0.416325
C681	C	0.652509	-0.346231	-0.964133
C682	C	1.152509	0.153769	-0.464133
H683	H	0.621528	-0.373837	-0.903175
H684	H	1.121528	0.126163	-0.403175
H685	H	0.646086	-0.327264	-0.892205
H686	H	1.146086	0.172736	-0.392205
H687	H	0.593115	-0.330626	-0.921167
H688	H	1.093115	0.169374	-0.421167
H689	H	0.685590	-0.359936	-0.959289
H690	H	1.185590	0.140064	-0.459289
H691	H	0.632623	-0.363307	-0.988252
H692	H	1.132623	0.136693	-0.488252
O693	O	0.656075	-0.301784	-0.805932
O694	O	1.156075	0.198216	-0.305932
C695	C	0.626549	-0.327148	-0.770104
C696	C	1.126549	0.172852	-0.270104
H697	H	0.624757	-0.308751	-0.731188
H698	H	1.124757	0.191249	-0.231188
H699	H	0.645664	-0.361273	-0.764289
H700	H	1.145664	0.138727	-0.264289
C701	C	0.573098	-0.356203	-0.839188
C702	C	1.073098	0.143797	-0.339188
C703	C	0.570893	-0.333606	-0.791392
C704	C	1.070893	0.166394	-0.291392
H705	H	0.538767	-0.360188	-0.852320
H706	H	1.038767	0.139812	-0.352320
H707	H	0.592991	-0.339116	-0.863327
H708	H	1.092991	0.160884	-0.363327
H709	H	0.589029	-0.384638	-0.834336
H710	H	1.089029	0.115362	-0.334336
H711	H	0.554968	-0.305169	-0.796246
H712	H	1.054968	0.194831	-0.296246
H713	H	0.550996	-0.350688	-0.767255
H714	H	1.050996	0.149312	-0.267255
H715	H	0.694825	-0.472717	-0.191215
H716	H	1.194825	0.027283	0.308785
H717	H	0.849698	-0.135577	-0.702774
H718	H	1.349698	0.364423	-0.202774
