data_functionalizedCrystal
_audit_creation_method	'MofGen! by Chris Wilmer'
_symmetry_space_group_name_H-M	'P1'
_symmetry_Int_Tables_number	1
_symmetry_cell_setting	triclinic
loop_
_symmetry_equiv_pos_as_xyz
  x,y,z
_cell_length_a	15.995355
_cell_length_b	26.210047
_cell_length_c	15.995292
_cell_angle_alpha	89.992307
_cell_angle_beta	96.518589
_cell_angle_gamma	89.995137
loop_
_atom_site_label
_atom_site_type_symbol
_atom_site_fract_x
_atom_site_fract_y
_atom_site_fract_z
O1	O	-1.110968	0.042376	0.107935
O2	O	-0.867190	0.042387	0.121259
O3	O	-0.995768	0.042382	-0.007293
O4	O	-0.982390	0.042381	0.236488
O5	O	-0.995743	-0.042476	-0.007273
O6	O	-0.867165	-0.042471	0.121279
O7	O	-1.110943	-0.042482	0.107955
Cu8	Cu	-0.989052	-0.050225	0.114619
Cu9	Cu	-0.989081	0.050130	0.114596
O10	O	-0.982365	-0.042477	0.236508
C11	C	-0.835983	-0.000040	0.120718
C12	C	-0.743033	-0.000036	0.119065
C13	C	-0.572848	-0.000043	0.116063
C14	C	-0.549522	-0.000042	0.023263
C15	C	-0.452845	-0.000238	0.021513
C16	C	-0.405290	-0.000049	0.113107
C17	C	-0.434358	-0.048411	0.159781
C18	C	-0.531149	-0.048449	0.160886
C19	C	-0.531088	0.048054	0.162222
C20	C	-0.434594	0.048687	0.158792
C21	C	-0.310593	-0.000055	0.111442
C22	C	-0.667545	-0.000041	0.117732
N23	N	-0.989037	-0.120809	0.114635
C24	C	-1.046010	-0.473325	0.057685
C25	C	-1.046028	-0.686984	0.057674
O26	O	-1.094436	-0.714607	0.009256
N27	N	-0.989085	-0.713703	0.114577
C28	C	-0.932131	-0.687004	0.171484
O29	O	-0.883692	-0.714632	0.219878
C30	C	-0.932109	-0.473346	0.171491
C31	C	-0.989061	-0.446630	0.114589
C32	C	-1.102956	-0.446609	0.000788
C33	C	-1.102954	-0.393197	0.000794
C34	C	-1.046005	-0.366502	0.057698
C35	C	-0.989059	-0.393218	0.114596
C36	C	-0.875151	-0.446648	0.228393
C37	C	-0.875149	-0.393230	0.228388
C38	C	-0.932101	-0.366514	0.171487
C39	C	-0.932108	-0.313112	0.171507
N40	N	-0.989050	-0.286393	0.114603
C41	C	-1.045999	-0.313088	0.057699
C42	C	-0.932147	-0.799177	0.171477
C43	C	-0.932153	-0.852591	0.171477
C44	C	-1.046050	-0.852567	0.057665
C45	C	-1.046047	-0.799152	0.057670
C46	C	-0.989090	-0.772458	0.114574
C47	C	-1.045991	-0.200920	0.057717
C48	C	-1.045986	-0.147504	0.057731
C49	C	-0.932087	-0.147532	0.171540
C50	C	-0.932094	-0.200944	0.171529
C51	C	-0.989049	-0.227636	0.114611
O52	O	-0.883719	-0.285455	0.219892
O53	O	-1.094418	-0.285450	0.009300
C54	C	-1.046012	-0.526736	0.057679
C55	C	-0.989065	-0.553453	0.114576
C56	C	-0.932116	-0.526757	0.171480
C57	C	-0.989071	-0.606867	0.114576
C58	C	-1.046020	-0.633562	0.057672
C59	C	-1.102963	-0.606843	0.000768
C60	C	-1.102960	-0.553432	0.000775
C61	C	-0.875174	-0.553476	0.228384
C62	C	-0.875181	-0.606888	0.228373
C63	C	-0.932130	-0.633583	0.171469
C64	C	-0.142151	-0.000054	0.108486
C65	C	-0.235105	-0.000056	0.110106
C66	C	-0.995211	-0.000046	-0.038479
C67	C	-0.993579	-0.000042	-0.131432
N68	N	-0.989102	0.120714	0.114573
C69	C	-0.987577	-0.000046	-0.469171
C70	C	-1.080382	-0.000240	-0.445857
C71	C	-1.082145	-0.000047	-0.349181
C72	C	-0.990555	-0.000044	-0.301615
C73	C	-0.944172	0.048414	-0.330728
C74	C	-0.943055	0.048453	-0.427518
C75	C	-0.941131	-0.048046	-0.427353
C76	C	-0.944570	-0.048685	-0.330860
C77	C	-0.992233	-0.000041	-0.206918
C78	C	-0.985897	-0.000045	-0.563866
C79	C	-0.982922	-0.000048	0.267694
C80	C	-0.984554	-0.000049	0.360647
H81	H	-0.578504	-0.034671	-0.012112
H82	H	-1.118707	0.034747	-0.330784
H83	H	-0.885764	-0.777446	0.217817
H84	H	-1.149327	-0.371448	-0.045542
H85	H	-0.416054	0.084466	0.124802
F86	F	-0.857187	-0.052508	-0.287769
F87	F	-1.106606	-0.119073	-0.002832
F88	F	-1.106662	-0.770724	-0.002892
H89	H	-0.401624	0.051757	0.225624
H90	H	-0.828775	-0.468393	0.274727
F91	F	-0.549355	0.048653	0.251513
H92	H	-0.414262	-0.084538	0.127773
H93	H	-1.092368	-0.222647	0.011368
H94	H	-0.402497	-0.050074	0.227193
H95	H	-0.434406	-0.035108	-0.014835
H96	H	-1.149331	-0.468339	-0.045554
F97	F	-0.428006	0.045066	-0.026240
H98	H	-1.115964	0.034314	-0.474882
F99	F	-0.586152	0.045281	-0.023765
F100	F	-0.986299	0.095549	-0.304522
F101	F	-1.106659	-0.880988	-0.002896
H102	H	-0.885787	-0.874340	0.217820
H103	H	-0.872820	-0.048371	-0.441344
F104	F	-0.814523	-0.364824	0.288953
H105	H	-0.975198	0.084675	-0.454343
H106	H	-0.557931	-0.084737	0.128959
F107	F	-0.550182	-0.051147	0.249835
H108	H	-0.970346	-0.084777	-0.455432
H109	H	-0.559374	0.084723	0.132936
F110	F	-0.854119	0.051333	-0.446542
H111	H	-1.149336	-0.531683	-0.045560
F112	F	-0.871488	-0.229376	0.232100
F113	F	-0.871482	-0.119113	0.232100
F114	F	-1.163575	-0.635263	-0.059791
F115	F	-0.856079	0.050775	-0.289074
F116	F	-0.814565	-0.635316	0.288944
H117	H	-0.828798	-0.531745	0.274721
F118	F	-1.129611	-0.045457	-0.324298
H119	H	-1.116142	-0.034992	-0.473845
H120	H	-0.978344	-0.084534	-0.312286
