data_functionalizedCrystal
_audit_creation_method	'MofGen! by Chris Wilmer'
_symmetry_space_group_name_H-M	'P1'
_symmetry_Int_Tables_number	1
_symmetry_cell_setting	triclinic
loop_
_symmetry_equiv_pos_as_xyz
  x,y,z
_cell_length_a	16.120530
_cell_length_b	21.395363
_cell_length_c	21.395355
_cell_angle_alpha	90.003952
_cell_angle_beta	92.920957
_cell_angle_gamma	87.098336
loop_
_atom_site_label
_atom_site_type_symbol
_atom_site_fract_x
_atom_site_fract_y
_atom_site_fract_z
Zn1	Zn	1.274740	-0.298164	0.402855
Zn2	Zn	1.274679	-0.402922	0.298101
Zn3	Zn	1.135308	-0.292842	0.292783
Zn4	Zn	1.135336	-0.397587	0.397537
O5	O	1.205016	-0.347879	0.347819
O6	O	1.391400	-0.316520	0.393410
O7	O	1.256154	-0.388325	0.209717
O8	O	1.153817	-0.205871	0.307384
O9	O	1.391356	-0.393485	0.316448
O10	O	1.256257	-0.209781	0.388253
O11	O	1.153758	-0.307450	0.205809
O12	O	1.018643	-0.302277	0.302228
O13	O	1.153865	-0.384393	0.485922
O14	O	1.018664	-0.379233	0.379190
O15	O	1.256285	-0.311347	0.489828
O16	O	1.256182	-0.489891	0.311292
O17	O	1.153807	-0.485972	0.384347
C18	C	1.205014	-0.510666	0.347834
C19	C	1.205089	-0.580310	0.347864
C20	C	0.988402	-0.339599	0.339555
C21	C	0.895734	-0.336072	0.336034
C22	C	1.205085	-0.347869	0.511245
C23	C	1.205114	-0.347864	0.580887
C24	C	0.726069	-0.329619	0.329612
C25	C	0.684803	-0.366185	0.366072
C26	C	0.590395	-0.362594	0.362498
C27	C	0.820485	-0.333209	0.333185
C28	C	1.422475	-0.356191	0.356116
C29	C	1.515143	-0.359733	0.359651
C30	C	1.205040	-0.184456	0.347819
C31	C	1.205051	-0.114816	0.347818
C32	C	1.151726	-0.080066	0.305715
C33	C	1.151725	-0.014631	0.305723
C34	C	1.205064	0.016052	0.347827
C35	C	1.258393	-0.018705	0.389938
C36	C	1.258387	-0.084139	0.389934
C37	C	1.280191	0.116850	0.355645
C38	C	1.280199	0.182283	0.355645
C39	C	1.205083	0.217872	0.347844
C40	C	1.129958	0.188021	0.340030
C41	C	1.129952	0.122587	0.340026
C42	C	1.205077	0.087004	0.347837
C43	C	1.151753	0.323574	0.305747
C44	C	1.151750	0.389011	0.305759
C45	C	1.258426	0.384935	0.389971
C46	C	1.258421	0.319500	0.389962
C47	C	1.205085	0.288823	0.347847
C48	C	1.204995	-0.347845	0.185031
C49	C	1.205127	-0.347679	0.115395
C50	C	1.258442	-0.309828	0.615636
C51	C	1.258441	-0.309801	0.681071
C52	C	1.205121	-0.347822	0.711756
C53	C	1.151783	-0.385861	0.676999
C54	C	1.151780	-0.385882	0.611565
C55	C	1.198537	-0.403986	0.815185
C56	C	1.198546	-0.403966	0.880619
C57	C	1.205126	-0.347756	0.913577
C58	C	1.211714	-0.291565	0.881095
C59	C	1.211711	-0.291586	0.815660
C60	C	1.205118	-0.347803	0.782708
C61	C	1.258455	-0.309687	1.019278
C62	C	1.258448	-0.309659	1.084714
C63	C	1.151795	-0.385725	1.080641
C64	C	1.151797	-0.385747	1.015206
C65	C	1.205132	-0.347729	0.984529
H66	H	0.720377	-0.400187	0.399970
F67	F	0.679575	-0.285178	0.285308
F68	F	1.050009	0.225893	0.331722
H69	H	1.108367	-0.416816	0.701987
F70	F	1.218718	-0.231785	0.781093
F71	F	1.094986	0.290924	0.260927
H72	H	1.108294	-0.105039	0.271423
H73	H	1.301810	-0.112432	0.424221
H74	H	1.301864	-0.278823	0.709369
F75	F	1.094970	0.022359	0.260907
F76	F	1.315202	-0.269363	0.582990
F77	F	1.315219	-0.269180	1.121697
H78	H	1.108372	-0.416676	1.105624
H79	H	1.108322	0.417305	0.271475
F80	F	1.050000	0.090820	0.331713
F81	F	1.315192	0.417586	0.434784
H82	H	1.301849	0.291206	0.424244
F83	F	1.315156	0.013951	0.434751
F84	F	1.360153	0.214046	0.363960
F85	F	1.360144	0.078979	0.363949
H86	H	1.217073	-0.245793	0.907928
H87	H	1.301878	-0.278727	0.994299
F88	F	1.095041	-0.426234	0.978223
H89	H	1.193187	-0.449721	0.907061
F90	F	1.191553	-0.463819	0.780115
F91	F	1.095019	-0.426368	0.574582
