data_functionalizedCrystal
_audit_creation_method	'MofGen! by Chris Wilmer'
_symmetry_space_group_name_H-M	'P1'
_symmetry_Int_Tables_number	1
_symmetry_cell_setting	triclinic
loop_
_symmetry_equiv_pos_as_xyz
  x,y,z
_cell_length_a	14.971486
_cell_length_b	17.699083
_cell_length_c	14.048226
_cell_angle_alpha	89.992674
_cell_angle_beta	89.998499
_cell_angle_gamma	83.448572
loop_
_atom_site_label
_atom_site_type_symbol
_atom_site_fract_x
_atom_site_fract_y
_atom_site_fract_z
O1	O	1.186608	0.098633	-0.079053
O2	O	0.926167	0.110445	-0.079079
O3	O	1.063746	-0.005632	-0.079057
O4	O	1.049030	0.214710	-0.079075
O5	O	1.063729	-0.005639	0.079264
O6	O	0.926151	0.110438	0.079242
O7	O	1.186591	0.098626	0.079268
Zn8	Zn	1.056368	0.104531	0.104392
Zn9	Zn	1.056390	0.104540	-0.104203
O10	O	1.049013	0.214703	0.079246
C11	C	0.892836	0.109913	0.000078
C12	C	0.793544	0.108330	0.000068
C13	C	0.736085	0.176522	0.000064
C14	C	0.642790	0.175030	0.000078
C15	C	0.606958	0.105346	0.000090
C16	C	0.664425	0.037148	0.000097
C17	C	0.757717	0.038641	0.000090
C18	C	0.469973	0.034042	0.000111
C19	C	0.376674	0.032549	0.000117
C20	C	0.355046	0.170431	0.000099
C21	C	0.448339	0.171924	0.000092
C22	C	0.505799	0.103726	0.000097
C23	C	1.063210	-0.033834	0.000104
C24	C	1.061628	-0.117856	0.000104
C25	C	1.142384	-0.166278	0.000113
C26	C	1.140892	-0.245225	0.000105
C27	C	1.058644	-0.275748	0.000094
C28	C	0.977882	-0.227320	0.000081
C29	C	0.979375	-0.148374	0.000083
C30	C	0.971860	-0.545698	0.000073
C31	C	0.970374	-0.624649	0.000074
C32	C	1.133378	-0.642548	0.000095
C33	C	1.134871	-0.563603	0.000096
C34	C	1.054109	-0.515181	0.000079
C35	C	1.055728	-0.429578	0.000087
C36	C	1.057024	-0.361350	0.000093
C37	C	1.219923	0.099158	0.000109
C38	C	1.319214	0.100741	0.000112
C39	C	1.049549	0.242905	0.000083
C40	C	1.051131	0.326927	0.000077
N41	N	1.056360	0.104524	0.246753
N42	N	1.056406	0.104541	-0.246564
C43	C	1.117299	0.053147	0.296581
C44	C	1.117305	0.053146	0.396238
C45	C	1.056376	0.104528	0.446066
C46	C	0.995431	0.155908	0.396231
C47	C	0.995421	0.155904	0.296576
C48	C	0.995456	0.155913	0.603946
C49	C	0.995467	0.155918	0.703608
C50	C	1.117340	0.053156	0.703608
C51	C	1.117331	0.053152	0.603953
C52	C	1.056386	0.104533	0.554125
H53	H	0.765252	0.233267	0.000054
C54	C	0.695180	-0.098991	0.000115
C55	C	0.625041	-0.039452	0.000110
H56	H	0.670866	-0.146281	0.000126
H57	H	0.731115	-0.095539	-0.055093
H58	H	0.731119	-0.095539	0.055328
H59	H	0.589106	-0.042902	-0.055107
H60	H	0.589091	-0.042906	0.055323
H61	H	0.945816	0.197741	0.436807
H62	H	1.201846	-0.538756	0.000110
H63	H	1.166918	0.011309	0.256017
C64	C	0.881650	-0.305714	-0.081315
C65	C	0.887474	-0.260872	0.000069
H66	H	0.825837	-0.326429	-0.081315
H67	H	0.885621	-0.275283	-0.136515
H68	H	0.929538	-0.345848	-0.081299
H69	H	0.839589	-0.220734	0.000049
H70	H	0.883494	-0.291305	0.055283
C71	C	1.294661	-0.652311	0.000121
C72	C	1.222156	-0.695775	0.000103
H73	H	1.349465	-0.685170	0.000134
H74	H	1.291859	-0.621142	-0.055084
H75	H	1.291835	-0.621151	0.055337
H76	H	1.224978	-0.726931	-0.055116
H77	H	1.224959	-0.726957	0.055314
H78	H	1.166925	0.011310	0.436808
H79	H	0.596010	0.230559	0.000074
C80	C	0.875186	-0.039663	-0.081296
C81	C	0.820884	-0.036316	0.000091
H82	H	0.914186	-0.085938	-0.081287
H83	H	0.838341	-0.037383	-0.136494
H84	H	0.909871	0.002057	-0.081293
H85	H	0.786195	-0.078033	0.000085
H86	H	0.857734	-0.038603	0.055304
H87	H	1.209360	-0.141433	0.000128
H88	H	0.945797	0.197740	0.256007
C89	C	1.237822	-0.048414	0.693594
C90	C	1.184336	-0.003322	0.758374
H91	H	1.279187	-0.083273	0.727409
H92	H	1.200654	-0.075698	0.654739
H93	H	1.269909	-0.016851	0.654709
H94	H	1.152243	-0.034885	0.797254
H95	H	1.221509	0.023963	0.797245
H96	H	0.913615	-0.108949	0.000075
C97	C	0.874969	0.257470	0.693604
C98	C	0.928476	0.212383	0.758382
H99	H	0.833605	0.292322	0.727421
H100	H	0.912122	0.284761	0.654730
H101	H	0.842879	0.225903	0.654739
H102	H	0.960571	0.243949	0.797242
H103	H	0.891319	0.185090	0.797272
C104	C	0.540685	0.253587	-0.081342
C105	C	0.487719	0.248526	0.000058
H106	H	0.564988	0.300882	-0.081367
H107	H	0.588257	0.213196	-0.081329
H108	H	0.504724	0.250129	-0.136537
H109	H	0.523682	0.251978	0.055254
H110	H	0.440140	0.288929	0.000053
C111	C	1.233800	-0.344370	-0.081282
C112	C	1.229665	-0.298447	0.000112
H113	H	1.288612	-0.377222	-0.081281
H114	H	1.184614	-0.373848	-0.081284
H115	H	1.230996	-0.313182	-0.136481
H116	H	1.232463	-0.329634	0.055312
H117	H	1.278865	-0.268966	0.000123
C118	C	0.975804	0.258884	0.491849
C119	C	0.928468	0.212392	0.549168
H120	H	0.934451	0.293748	0.458028
H121	H	1.012968	0.286162	0.530715
H122	H	1.012087	0.228272	0.447919
H123	H	0.892191	0.243003	0.593104
H124	H	0.891289	0.185112	0.510299
H125	H	0.347502	-0.024194	0.000127
C126	C	1.136676	-0.049991	0.492181
C127	C	1.184192	-0.003511	0.549309
H128	H	1.177921	-0.085025	0.458482
H129	H	1.099397	-0.077076	0.531162
H130	H	1.100497	-0.019393	0.448143
H131	H	1.220366	-0.034109	0.593351
H132	H	1.221487	0.023576	0.510325
C133	C	0.809387	-0.599030	0.000027
C134	C	0.879960	-0.658202	0.000049
H135	H	0.753574	-0.619746	0.000006
H136	H	0.813342	-0.568616	0.055235
H137	H	0.813377	-0.568605	-0.055186
H138	H	0.875973	-0.688623	0.055266
H139	H	0.876003	-0.688628	-0.055164
C140	C	0.901759	-0.416738	0.000049
C141	C	0.883089	-0.492479	0.000055
H142	H	0.846951	-0.383882	0.000031
H143	H	0.935475	-0.407482	0.055260
H144	H	0.935501	-0.407483	-0.055160
H145	H	0.849353	-0.501736	0.055268
H146	H	0.849359	-0.501739	-0.055162
H147	H	0.308257	0.225960	0.000099
H148	H	0.516756	-0.021492	0.000117
