data_functionalizedCrystal
_audit_creation_method	'MofGen! by Chris Wilmer'
_symmetry_space_group_name_H-M	'P1'
_symmetry_Int_Tables_number	1
_symmetry_cell_setting	triclinic
loop_
_symmetry_equiv_pos_as_xyz
  x,y,z
_cell_length_a	19.288859
_cell_length_b	16.974813
_cell_length_c	18.366186
_cell_angle_alpha	86.339196
_cell_angle_beta	89.990083
_cell_angle_gamma	83.264704
loop_
_atom_site_label
_atom_site_type_symbol
_atom_site_fract_x
_atom_site_fract_y
_atom_site_fract_z
O1	O	0.921533	0.098615	-0.066374
O2	O	0.719296	0.111926	-0.067156
O3	O	0.826051	-0.009853	-0.059978
O4	O	0.814777	0.220394	-0.073552
O5	O	0.826033	-0.009859	0.061122
O6	O	0.719277	0.111920	0.053944
O7	O	0.921515	0.098609	0.054726
Zn8	Zn	0.820393	0.105264	0.073562
Zn9	Zn	0.820417	0.105271	-0.085992
O10	O	0.814759	0.220388	0.047548
C11	C	0.693409	0.111496	-0.006581
C12	C	0.616303	0.110212	-0.006504
C13	C	0.052375	0.172986	-0.010206
C14	C	0.124824	0.174199	-0.010282
C15	C	0.169402	0.102744	-0.006068
C16	C	0.141526	0.030071	-0.001797
C17	C	0.069079	0.028861	-0.001729
C18	C	0.290570	0.049451	0.039503
C19	C	0.363016	0.050665	0.039440
C20	C	0.392855	0.106475	-0.006280
C21	C	0.350237	0.161085	-0.051928
C22	C	0.277790	0.159874	-0.051860
C23	C	0.247960	0.104049	-0.006141
C24	C	0.499279	0.180458	-0.010638
C25	C	0.571730	0.181668	-0.010717
C26	C	0.588431	0.037538	-0.002225
C27	C	0.515982	0.036331	-0.002153
C28	C	0.471410	0.107793	-0.006356
C29	C	0.825613	-0.039313	0.002307
C30	C	0.824326	-0.127086	0.007477
C31	C	0.823733	-0.168313	-0.056105
C32	C	0.822520	-0.250784	-0.051245
C33	C	0.821904	-0.292026	0.017197
C34	C	0.822495	-0.250792	0.080784
C35	C	0.823704	-0.168322	0.075924
C36	C	0.818284	-0.538675	0.038813
C37	C	0.817077	-0.621151	0.043669
C38	C	0.817100	-0.621137	-0.088361
C39	C	0.818313	-0.538666	-0.093216
C40	C	0.818900	-0.497439	-0.029629
N41	N	0.820666	-0.376325	0.022167
N42	N	0.820134	-0.413141	-0.034599
C43	C	0.947401	0.099039	-0.005851
C44	C	1.024507	0.100323	-0.005932
C45	C	0.815197	0.249848	-0.014739
C46	C	0.816484	0.337621	-0.019913
N47	N	0.820382	0.105258	0.182454
N48	N	0.820434	0.105271	-0.194883
C49	C	0.867669	0.051360	0.223731
C50	C	0.867673	0.051357	0.299959
C51	C	0.820397	0.105264	0.334906
C52	C	0.773101	0.159166	0.293619
C53	C	0.773094	0.159163	0.217393
C54	C	0.811229	0.177310	0.451419
C55	C	0.811241	0.177314	0.527644
C56	C	0.820417	0.105274	0.570013
C57	C	0.829595	0.033227	0.536148
C58	C	0.829587	0.033224	0.459922
C59	C	0.820400	0.105274	0.417560
C60	C	0.867711	0.051368	0.693946
C61	C	0.867711	0.051364	0.770175
C62	C	0.773142	0.159180	0.763833
C63	C	0.773140	0.159178	0.687606
C64	C	0.820428	0.105273	0.652666
H65	H	0.016089	0.231176	-0.013632
C66	C	0.821813	-0.296161	0.156072
N67	N	0.821301	-0.330332	0.212781
C68	C	0.824358	-0.122972	0.145869
N69	N	0.824849	-0.088816	0.198555
C70	C	0.230914	0.219936	-0.102079
N71	N	0.195608	0.265172	-0.139908
H72	H	0.397710	0.006202	0.076612
H73	H	0.824238	-0.134741	-0.111839
C74	C	0.155486	0.254137	-0.014979
N75	N	0.178578	0.314347	-0.018515
H76	H	0.906181	0.007465	0.333573
H77	H	0.816572	-0.654728	0.099406
C78	C	0.383054	0.222479	-0.102226
N79	N	0.407775	0.268719	-0.140109
H80	H	0.462987	0.238647	-0.014061
H81	H	0.906172	0.007466	0.195286
H82	H	0.594417	0.240841	-0.014204
H83	H	0.837059	-0.025439	0.432353
C84	C	0.839687	-0.046023	0.582749
N85	N	0.847289	-0.105712	0.617852
H86	H	0.046390	-0.030312	0.001752
H87	H	0.816621	-0.654713	-0.140130
C88	C	0.801139	0.256566	0.564887
N89	N	0.793525	0.316261	0.592938
C90	C	0.721095	0.218461	0.332063
N91	N	0.681919	0.263121	0.361018
C92	C	0.821931	-0.296141	-0.121191
N93	N	0.821510	-0.330307	-0.173877
H94	H	0.818776	-0.505120	0.090590
H95	H	0.624726	-0.020641	0.001200
H96	H	0.906214	0.007473	0.665497
C97	C	0.485326	-0.043606	0.002565
N98	N	0.462237	-0.103817	0.006120
H99	H	0.266283	0.004000	0.076736
C100	C	0.190564	-0.048529	0.002843
N101	N	0.227499	-0.107733	0.006337
C102	C	0.919722	-0.007944	0.815581
N103	N	0.958894	-0.052620	0.849782
H104	H	0.734637	0.203069	0.653995
H105	H	0.803745	0.235977	0.416928
C106	C	0.818990	-0.493306	-0.168508
N107	N	0.819503	-0.459141	-0.225220
H108	H	0.734647	0.203069	0.792287
C109	C	0.721102	0.218491	0.171984
N110	N	0.681953	0.263191	0.137780
