data_functionalizedCrystal
_audit_creation_method	'MofGen! by Chris Wilmer'
_symmetry_space_group_name_H-M	'P1'
_symmetry_Int_Tables_number	1
_symmetry_cell_setting	triclinic
loop_
_symmetry_equiv_pos_as_xyz
  x,y,z
_cell_length_a	17.077404
_cell_length_b	18.101395
_cell_length_c	17.077395
_cell_angle_alpha	90.026207
_cell_angle_beta	90.015641
_cell_angle_gamma	90.031329
loop_
_atom_site_label
_atom_site_type_symbol
_atom_site_fract_x
_atom_site_fract_y
_atom_site_fract_z
Zn1	Zn	1.199980	-0.294834	0.443848
Zn2	Zn	1.699980	0.205166	0.943848
Zn3	Zn	1.199877	-0.418680	0.312585
Zn4	Zn	1.699877	0.081320	0.812585
Zn5	Zn	1.068721	-0.294858	0.312596
Zn6	Zn	1.568721	0.205142	0.812596
Zn7	Zn	1.068661	-0.418639	0.443808
Zn8	Zn	1.568661	0.081361	0.943808
O9	O	1.134310	-0.356753	0.378209
O10	O	1.634310	0.143247	0.878209
O11	O	1.309813	-0.311270	0.426448
O12	O	1.809813	0.188730	0.926448
O13	O	1.182461	-0.402282	0.202739
O14	O	1.682461	0.097718	0.702739
O15	O	1.086200	-0.191222	0.330029
O16	O	1.586200	0.308778	0.830029
O17	O	1.309738	-0.402259	0.330009
O18	O	1.809738	0.097741	0.830009
O19	O	1.182636	-0.191205	0.426459
O20	O	1.682636	0.308795	0.926459
O21	O	1.086101	-0.311310	0.202748
O22	O	1.586101	0.188690	0.702748
O23	O	0.958866	-0.311270	0.329990
O24	O	1.458866	0.188730	0.829990
O25	O	1.086099	-0.402189	0.553660
O26	O	1.586099	0.097811	1.053660
O27	O	0.958822	-0.402212	0.426391
O28	O	1.458822	0.097788	0.926391
O29	O	1.182578	-0.311230	0.553690
O30	O	1.682578	0.188770	1.053690
O31	O	1.182403	-0.522308	0.329970
O32	O	1.682403	-0.022308	0.829970
O33	O	1.085999	-0.522277	0.426379
O34	O	1.585999	-0.022277	0.926379
C35	C	0.930362	-0.356739	0.378188
C36	C	1.430362	0.143261	0.878188
C37	C	0.843112	-0.356752	0.378197
C38	C	1.343112	0.143248	0.878197
C39	C	0.802119	-0.404176	0.428312
C40	C	1.302119	0.095824	0.928312
C41	C	0.720139	-0.404178	0.428325
C42	C	1.220139	0.095822	0.928325
C43	C	0.679153	-0.356758	0.378218
C44	C	1.179153	0.143242	0.878218
C45	C	0.720151	-0.309328	0.328100
C46	C	1.220151	0.190672	0.828100
C47	C	0.802130	-0.309323	0.328092
C48	C	1.302130	0.190677	0.828092
C49	C	0.549281	-0.309343	0.328119
C50	C	1.049281	0.190657	0.828119
C51	C	0.467296	-0.309348	0.328126
C52	C	0.967296	0.190652	0.828126
C53	C	0.467290	-0.404197	0.428352
C54	C	0.967290	0.095803	0.928352
C55	C	0.549269	-0.404193	0.428344
C56	C	1.049269	0.095807	0.928344
C57	C	0.590262	-0.356763	0.378225
C58	C	1.090262	0.143237	0.878225
C59	C	1.134205	-0.549163	0.378186
C60	C	1.634205	-0.049163	0.878186
C61	C	1.134231	-0.631478	0.378203
C62	C	1.634231	-0.131478	0.878203
C63	C	1.134404	-0.930568	0.378245
C64	C	1.634404	-0.430568	0.878245
C65	C	1.073890	-0.899255	0.439054
C66	C	1.573890	-0.399255	0.939054
C67	C	1.073602	-0.813637	0.438863
C68	C	1.573602	-0.313637	0.938863
C69	C	1.134318	-0.782186	0.378225
C70	C	1.634318	-0.282186	0.878225
C71	C	1.111927	-0.813336	0.295495
C72	C	1.611927	-0.313336	0.795495
C73	C	1.111537	-0.898981	0.295859
C74	C	1.611537	-0.398981	0.795859
C75	C	1.217442	-0.898912	0.399437
C76	C	1.717442	-0.398912	0.899437
C77	C	1.216953	-0.813261	0.401252
C78	C	1.716953	-0.313261	0.901252
C79	C	1.134271	-0.698326	0.378208
C80	C	1.634271	-0.198326	0.878208
C81	C	1.134449	-1.014428	0.378256
C82	C	1.634449	-0.514428	0.878256
C83	C	1.339054	-0.356767	0.378231
C84	C	1.839054	0.143233	0.878231
C85	C	1.426304	-0.356773	0.378241
C86	C	1.926304	0.143227	0.878241
C87	C	1.134343	-0.356703	0.582954
C88	C	1.634343	0.143297	1.082954
C89	C	1.134358	-0.356681	0.670203
C90	C	1.634358	0.143319	1.170203
C91	C	1.134436	-0.163591	0.378250
C92	C	1.634436	0.336409	0.878250
C93	C	1.134490	-0.081277	0.378267
C94	C	1.634490	0.418723	0.878267
C95	C	1.134321	-0.356750	0.174261
C96	C	1.634321	0.143250	0.674261
C97	C	1.134459	-0.356562	0.087012
C98	C	1.634459	0.143438	0.587012
C99	C	1.184682	-0.309218	1.046035
C100	C	1.684682	0.190782	1.546035
C101	C	1.184666	-0.309244	0.964054
C102	C	1.684666	0.190756	1.464054
C103	C	1.134422	-0.356611	0.923053
C104	C	1.634422	0.143389	1.423053
C105	C	1.084197	-0.403960	0.964036
C106	C	1.584197	0.096040	1.464036
C107	C	1.084218	-0.403938	1.046015
C108	C	1.584218	0.096062	1.546015
C109	C	1.084157	-0.404003	0.793166
C110	C	1.584157	0.095997	1.293166
C111	C	1.084135	-0.404025	0.711181
C112	C	1.584135	0.095975	1.211181
C113	C	1.184604	-0.309310	0.711205
C114	C	1.684604	0.190690	1.211205
C115	C	1.184625	-0.309287	0.793184
C116	C	1.684625	0.190713	1.293184
C117	C	1.134399	-0.356636	0.834161
C118	C	1.634399	0.143364	1.334161
H119	H	0.835485	-0.442794	0.469113
H120	H	1.335485	0.057206	0.969113
Br121	Br	0.664509	-0.468541	0.496344
Br122	Br	1.164509	0.031459	0.996344
Br123	Br	0.411671	-0.244997	0.260116
Br124	Br	0.911671	0.255003	0.760116
Br125	Br	0.604913	-0.244972	0.260101
Br126	Br	1.104913	0.255028	0.760101
H127	H	0.582638	-0.442810	0.469141
H128	H	1.082638	0.057190	0.969141
H129	H	1.225591	-0.270642	1.079412
H130	H	1.725591	0.229358	1.579412
H131	H	1.264424	-0.791848	0.360190
H132	H	1.764424	-0.291848	0.860190
H133	H	1.050836	-0.919024	0.277907
H134	H	1.550836	-0.419024	0.777907
Br135	Br	1.252792	-0.245073	0.655594
Br136	Br	1.752792	0.254927	1.155594
H137	H	1.225564	-0.270694	0.930694
H138	H	1.725564	0.229306	1.430694
Br139	Br	1.016060	-0.468196	1.101628
Br140	Br	1.516060	0.031804	1.601628
H141	H	0.433910	-0.442814	0.469163
H142	H	0.933910	0.057186	0.969163
Br143	Br	1.016012	-0.468248	0.908392
Br144	Br	1.516012	0.031752	1.408392
H145	H	0.686773	-0.270715	0.287305
H146	H	1.186773	0.229285	0.787305
H147	H	1.154616	-0.792965	0.248952
H148	H	1.654616	-0.292965	0.748952
H149	H	1.262527	-0.919161	0.355148
H150	H	1.762527	-0.419161	0.855148
H151	H	1.153701	-0.919697	0.249007
H152	H	1.653701	-0.419697	0.749007
Br153	Br	1.245101	-0.779326	0.502731
Br154	Br	1.745101	-0.279326	1.002731
H155	H	0.835505	-0.270701	0.287287
H156	H	1.335505	0.229299	0.787287
H157	H	1.087611	-0.792574	0.500206
H158	H	1.587611	-0.292574	1.000206
Br159	Br	1.252826	-0.245015	0.848829
Br160	Br	1.752826	0.254985	1.348829
Br161	Br	1.097000	-0.933505	0.541632
Br162	Br	1.597000	-0.433505	1.041632
Br163	Br	0.971928	-0.935253	0.415973
Br164	Br	1.471928	-0.435253	0.915973
Br165	Br	1.011826	-0.777699	0.265034
Br166	Br	1.511826	-0.277699	0.765034
H167	H	1.012052	-0.793214	0.424826
H168	H	1.512052	-0.293214	0.924826
Br169	Br	1.251470	-0.934828	0.498272
Br170	Br	1.751470	-0.434828	0.998272
Br171	Br	1.015950	-0.468312	0.655536
Br172	Br	1.515950	0.031688	1.155536
Br173	Br	1.015993	-0.468263	0.848777
Br174	Br	1.515993	0.031737	1.348777
