data_functionalizedCrystal
_audit_creation_method	'MofGen! by Chris Wilmer'
_symmetry_space_group_name_H-M	'P1'
_symmetry_Int_Tables_number	1
_symmetry_cell_setting	triclinic
loop_
_symmetry_equiv_pos_as_xyz
  x,y,z
_cell_length_a	14.519709
_cell_length_b	13.596369
_cell_length_c	14.519731
_cell_angle_alpha	90.011346
_cell_angle_beta	83.684500
_cell_angle_gamma	89.999709
loop_
_atom_site_label
_atom_site_type_symbol
_atom_site_fract_x
_atom_site_fract_y
_atom_site_fract_z
O1	O	-1.223878	-0.081675	-0.120892
O2	O	-0.955402	-0.081707	-0.135128
O3	O	-1.096748	-0.081670	0.006227
O4	O	-1.082532	-0.081712	-0.262247
O5	O	-1.096734	0.081912	0.006235
O6	O	-0.955388	0.081876	-0.135120
O7	O	-1.223864	0.081908	-0.120884
Zn8	Zn	-1.089623	0.107864	-0.128001
Zn9	Zn	-1.089642	-0.107663	-0.128011
O10	O	-1.082518	0.081871	-0.262239
C11	C	-0.921035	0.000081	-0.134461
C12	C	-0.818654	0.000070	-0.132473
C13	C	-1.096075	0.000124	0.040591
C14	C	-1.094079	0.000133	0.142971
N15	N	-1.089617	0.254956	-0.127994
C16	C	-1.258230	0.000118	-0.121551
C17	C	-1.360612	0.000122	-0.123539
C18	C	-0.443757	0.000116	-0.125153
C19	C	-0.548065	0.000102	-0.127186
C20	C	-0.631202	0.000092	-0.128813
C21	C	-0.735517	0.000080	-0.130846
N22	N	-1.089655	-0.254755	-0.128011
C23	C	-1.089641	0.656247	-0.128012
C24	C	-1.089632	0.544595	-0.128010
C25	C	-1.089630	0.455605	-0.128004
C26	C	-1.089619	0.343946	-0.128000
C27	C	-1.092457	0.000137	0.226115
C28	C	-1.090430	0.000138	0.330424
C29	C	-1.088822	0.000138	0.413563
C30	C	-1.086795	0.000141	0.517878
C31	C	-1.083191	0.000095	0.703397
C32	C	-1.085187	0.000141	0.601017
