data_functionalizedCrystal
_audit_creation_method	'MofGen! by Chris Wilmer'
_symmetry_space_group_name_H-M	'P1'
_symmetry_Int_Tables_number	1
_symmetry_cell_setting	triclinic
loop_
_symmetry_equiv_pos_as_xyz
  x,y,z
_cell_length_a	14.519731
_cell_length_b	13.596369
_cell_length_c	11.026607
_cell_angle_alpha	89.997861
_cell_angle_beta	96.137435
_cell_angle_gamma	90.006024
loop_
_atom_site_label
_atom_site_type_symbol
_atom_site_fract_x
_atom_site_fract_y
_atom_site_fract_z
O1	O	1.250096	0.081791	0.159249
O2	O	1.750096	0.581791	0.659249
O3	O	0.984705	0.081792	0.177962
O4	O	1.484705	0.581792	0.677962
O5	O	1.095405	0.081788	-0.008097
O6	O	1.595405	0.581788	0.491903
O7	O	1.139396	0.081795	0.345309
O8	O	1.639396	0.581795	0.845309
O9	O	1.095389	-0.081795	-0.008087
O10	O	1.595389	0.418205	0.491913
O11	O	0.984689	-0.081791	0.177973
O12	O	1.484689	0.418209	0.677973
O13	O	1.250080	-0.081792	0.159260
O14	O	1.750080	0.418208	0.659260
Zn15	Zn	1.117382	-0.107764	0.168618
Zn16	Zn	1.617382	0.392236	0.668618
Zn17	Zn	1.117403	0.107764	0.168604
Zn18	Zn	1.617403	0.607764	0.668604
O19	O	1.139380	-0.081788	0.345319
O20	O	1.639380	0.418212	0.845319
C21	C	0.950193	0.000001	0.177091
C22	C	1.450193	0.500001	0.677091
C23	C	0.847380	0.000001	0.174463
C24	C	1.347380	0.500001	0.674463
C25	C	0.763884	0.000005	0.172328
C26	C	1.263884	0.500005	0.672328
C27	C	0.659136	0.000005	0.169661
C28	C	1.159136	0.500005	0.669661
C29	C	0.575648	0.000005	0.167543
C30	C	1.075648	0.500005	0.667543
C31	C	0.470893	0.000007	0.164876
C32	C	0.970893	0.500007	0.664876
N33	N	1.117375	-0.254856	0.168626
N34	N	1.617375	0.245144	0.668626
C35	C	1.117380	-0.343854	0.168629
C36	C	1.617380	0.156146	0.668629
C37	C	1.117387	-0.455505	0.168621
C38	C	1.617387	0.044495	0.668621
C39	C	1.117397	-0.544495	0.168607
C40	C	1.617397	-0.044495	0.668607
C41	C	1.117406	-0.656154	0.168600
C42	C	1.617406	-0.156154	0.668600
C43	C	1.284592	0.000001	0.160131
C44	C	1.784592	0.500001	0.660131
C45	C	1.387405	0.000007	0.162759
C46	C	1.887405	0.500007	0.662759
C47	C	1.087282	-0.000002	-0.053321
C48	C	1.587282	0.499998	0.446679
C49	C	1.063089	0.000001	-0.188090
C50	C	1.563089	0.500001	0.311910
N51	N	1.117416	0.254856	0.168586
N52	N	1.617416	0.754856	0.668586
C53	C	1.129889	0.000002	-0.261744
C54	C	1.629889	0.500002	0.238256
C55	C	1.104886	0.000006	-0.401035
C56	C	1.604886	0.500006	0.098965
C57	C	1.147503	0.000004	0.390543
C58	C	1.647503	0.500004	0.890543
C59	C	1.171696	0.000007	0.525312
C60	C	1.671696	0.500007	1.025312
H61	H	1.205589	-0.000004	-0.221681
H62	H	1.705589	0.499996	0.278319
H63	H	0.987389	0.000008	-0.228154
H64	H	1.487389	0.500008	0.271846
C65	C	1.002612	0.000005	-0.455147
C66	C	1.502612	0.500005	0.044853
N67	N	0.925580	0.000002	-0.495906
N68	N	1.425580	0.500002	0.004094
C69	C	1.273971	0.000006	-0.420579
C70	C	1.773971	0.500006	0.079421
N71	N	1.351004	0.000003	-0.379823
N72	N	1.851004	0.500003	0.120177
