data_functionalizedCrystal
_audit_creation_method	'MofGen! by Chris Wilmer'
_symmetry_space_group_name_H-M	'P1'
_symmetry_Int_Tables_number	1
_symmetry_cell_setting	triclinic
loop_
_symmetry_equiv_pos_as_xyz
  x,y,z
_cell_length_a	19.077269
_cell_length_b	12.594516
_cell_length_c	19.076919
_cell_angle_alpha	87.724265
_cell_angle_beta	85.330942
_cell_angle_gamma	87.714783
loop_
_atom_site_label
_atom_site_type_symbol
_atom_site_fract_x
_atom_site_fract_y
_atom_site_fract_z
Zn1	Zn	1.061729	-0.509834	0.355289
Zn2	Zn	1.066408	-0.680951	0.237415
Zn3	Zn	0.948584	-0.496119	0.242156
Zn4	Zn	0.943839	-0.680897	0.359998
O5	O	1.005140	-0.591950	0.298714
O6	O	1.160997	-0.538296	0.335698
O7	O	1.054723	-0.650715	0.139396
O8	O	0.963620	-0.348995	0.257177
O9	O	1.164435	-0.664014	0.249096
O10	O	1.046747	-0.359072	0.340296
O11	O	0.968158	-0.514920	0.142879
O12	O	0.849307	-0.514868	0.261743
O13	O	0.955533	-0.663923	0.458021
O14	O	0.845822	-0.650624	0.348320
O15	O	1.042146	-0.538244	0.454562
O16	O	1.050122	-0.829887	0.253662
O17	O	0.960071	-0.829848	0.343723
C18	C	0.821986	-0.581253	0.306058
C19	C	0.743632	-0.576703	0.309216
C20	C	0.708610	-0.639905	0.265543
C21	C	0.634987	-0.635631	0.268520
C22	C	0.596387	-0.568147	0.315166
C23	C	0.631414	-0.504942	0.358843
C24	C	0.705035	-0.509223	0.355869
C25	C	0.376011	-0.548343	0.328905
C26	C	0.302384	-0.544065	0.331874
C27	C	0.305963	-0.674756	0.241552
C28	C	0.379586	-0.679026	0.238579
C29	C	0.414606	-0.615825	0.282259
N30	N	0.521133	-0.563774	0.318208
N31	N	0.489859	-0.620204	0.279220
C32	C	1.005108	-0.868489	0.298703
C33	C	1.005158	-0.986798	0.298720
C34	C	1.054189	-1.056040	0.249784
C35	C	1.068827	-1.131502	0.313434
C36	C	0.990606	-1.122143	0.235106
C37	C	1.019827	-1.060705	0.362403
C38	C	0.941578	-1.051336	0.284033
C39	C	0.956190	-1.126767	0.347729
C40	C	1.189009	-0.602691	0.291343
C41	C	1.267363	-0.607268	0.288202
C42	C	0.997789	-0.602607	0.482585
C43	C	0.994656	-0.607149	0.560939
C44	C	1.005191	-0.314334	0.298740
C45	C	1.005213	-0.196031	0.298751
C46	C	1.012503	-0.581260	0.115558
C47	C	1.015773	-0.576427	0.037198
C48	C	1.038277	-0.543851	0.595950
C49	C	1.035325	-0.548114	0.669573
C50	C	0.988755	-0.615680	0.708183
C51	C	0.945129	-0.678981	0.673167
C52	C	0.948078	-0.674712	0.599546
C53	C	0.975096	-0.635459	0.928561
C54	C	0.972152	-0.639725	1.002187
C55	C	1.062347	-0.508856	0.998588
C56	C	1.065294	-0.504598	0.924965
C57	C	1.021666	-0.567894	0.889956
N58	N	0.985738	-0.620041	0.783438
N59	N	1.024680	-0.563527	0.814703
H60	H	0.404515	-0.496882	0.364473
H61	H	0.939581	-0.687015	0.900064
H62	H	0.914748	-1.157628	0.389172
C63	C	0.973942	-1.158806	0.162416
H64	H	1.008805	-1.134582	0.127695
H65	H	0.973655	-1.234245	0.163067
H66	H	0.929091	-1.130186	0.151637
C67	C	0.868933	-1.003937	0.267206
H68	H	0.849349	-0.963568	0.305532
H69	H	0.873957	-0.959201	0.225968
H70	H	0.838670	-1.059810	0.259745
C71	C	0.751067	-0.714135	0.214233
H72	H	0.799930	-0.707627	0.218711
H73	H	0.738590	-0.785565	0.224956
H74	H	0.740881	-0.694992	0.167372
H75	H	0.411009	-0.733977	0.200594
H76	H	1.095658	-1.024990	0.208436
H77	H	0.907209	-0.733991	0.704609
H78	H	1.076201	-0.488834	0.564519
C79	C	1.141490	-1.178872	0.330241
H80	H	1.176258	-1.154658	0.295417
H81	H	1.152184	-1.156912	0.375105
H82	H	1.140859	-1.254275	0.330552
H83	H	0.606476	-0.687097	0.232957
H84	H	0.277442	-0.726212	0.205991
C85	C	0.920921	-0.714049	1.044657
H86	H	0.895356	-0.751128	1.013263
H87	H	0.946728	-0.763666	1.072291
H88	H	0.889065	-0.673194	1.074611
H89	H	1.070847	-0.496572	0.698076
H90	H	1.103218	-0.449581	0.893534
H91	H	1.032102	-1.033692	0.416262
H92	H	0.912551	-0.726245	0.571041
H93	H	0.270958	-0.489103	0.369857
H94	H	0.599980	-0.450001	0.396826
H95	H	0.733549	-0.457756	0.391432
C96	C	1.110327	-0.439228	1.037100
H97	H	1.101899	-0.451439	1.086476
H98	H	1.158172	-0.456869	1.023138
H99	H	1.100500	-0.366410	1.025454
