data_functionalizedCrystal
_audit_creation_method	'MofGen! by Chris Wilmer'
_symmetry_space_group_name_H-M	'P1'
_symmetry_Int_Tables_number	1
_symmetry_cell_setting	triclinic
loop_
_symmetry_equiv_pos_as_xyz
  x,y,z
_cell_length_a	14.853566
_cell_length_b	17.038272
_cell_length_c	16.098546
_cell_angle_alpha	92.931930
_cell_angle_beta	87.273508
_cell_angle_gamma	87.372985
loop_
_atom_site_label
_atom_site_type_symbol
_atom_site_fract_x
_atom_site_fract_y
_atom_site_fract_z
O1	O	1.207797	0.098582	-0.069201
O2	O	1.707797	0.598582	0.430799
O3	O	0.946253	0.110743	-0.069215
O4	O	1.446253	0.610743	0.430785
O5	O	1.075470	-0.009155	-0.069202
O6	O	1.575470	0.490845	0.430798
O7	O	1.078580	0.218480	-0.069215
O8	O	1.578580	0.718480	0.430785
O9	O	1.067953	-0.002153	0.069310
O10	O	1.567953	0.497847	0.569310
O11	O	0.938736	0.117745	0.069297
O12	O	1.438736	0.617745	0.569297
O13	O	1.200280	0.105583	0.069310
O14	O	1.700280	0.605583	0.569310
Zn15	Zn	1.068314	0.112776	0.091295
Zn16	Zn	1.568314	0.612776	0.591295
Zn17	Zn	1.078219	0.103551	-0.091200
Zn18	Zn	1.578219	0.603551	0.408800
O19	O	1.071063	0.225481	0.069297
O20	O	1.571063	0.725481	0.569297
C21	C	0.908865	0.113693	0.000039
C22	C	1.408865	0.613693	0.500039
C23	C	0.808657	0.112042	0.000034
C24	C	1.308657	0.612042	0.500034
C25	C	0.389043	0.101244	-0.075454
C26	C	0.889043	0.601244	0.424546
C27	C	0.380869	0.108877	0.075557
C28	C	0.880869	0.608877	0.575557
C29	C	0.475020	0.110428	0.075554
C30	C	0.975020	0.610428	0.575554
C31	C	0.526187	0.107387	0.000046
C32	C	1.026187	0.607387	0.500046
C33	C	0.483203	0.102796	-0.075459
C34	C	0.983203	0.602796	0.424541
C35	C	0.518011	0.115026	0.151058
C36	C	1.018011	0.615026	0.651058
C37	C	0.612167	0.116578	0.151059
C38	C	1.112167	0.616578	0.651059
C39	C	0.663336	0.113531	0.075550
C40	C	1.163336	0.613531	0.575550
C41	C	0.620347	0.108939	0.000041
C42	C	1.120347	0.608939	0.500041
C43	C	0.671513	0.105899	-0.075467
C44	C	1.171513	0.605899	0.424533
C45	C	0.628526	0.101301	-0.150976
C46	C	1.128526	0.601301	0.349024
C47	C	0.534372	0.099750	-0.150968
C48	C	1.034372	0.599750	0.349032
C49	C	0.757490	0.115083	0.075542
C50	C	1.257490	0.615083	0.575542
C51	C	0.765673	0.107451	-0.075472
C52	C	1.265673	0.607451	0.424528
C53	C	1.068884	-0.034786	0.000054
C54	C	1.568884	0.465214	0.500054
C55	C	1.060448	-0.121590	0.000053
C56	C	1.560448	0.378410	0.500053
C57	C	1.137901	-0.171602	0.000058
C58	C	1.637901	0.328398	0.500058
C59	C	1.129970	-0.253164	0.000050
C60	C	1.629970	0.246836	0.500050
C61	C	1.044584	-0.284711	0.000042
C62	C	1.544584	0.215289	0.500042
C63	C	0.967125	-0.234692	0.000035
C64	C	1.467125	0.265308	0.500035
C65	C	0.975058	-0.153132	0.000037
C66	C	1.475058	0.346868	0.500037
C67	C	1.016559	-0.530506	0.000030
C68	C	1.516559	-0.030506	0.500030
C69	C	1.008632	-0.612072	0.000030
C70	C	1.508632	-0.112072	0.500030
C71	C	1.171478	-0.630538	0.000043
C72	C	1.671478	-0.130538	0.500043
C73	C	1.179403	-0.548976	0.000050
C74	C	1.679403	-0.048976	0.500050
C75	C	1.101944	-0.498964	0.000038
C76	C	1.601944	0.001036	0.500038
C77	C	1.036474	-0.368079	0.000037
C78	C	1.536474	0.131921	0.500037
C79	C	1.110055	-0.415598	0.000038
C80	C	1.610055	0.084402	0.500038
C81	C	1.237669	0.102634	0.000054
C82	C	1.737669	0.602634	0.500054
C83	C	1.337877	0.104284	0.000054
C84	C	1.837877	0.604284	0.500054
C85	C	1.077649	0.251112	0.000039
C86	C	1.577649	0.751112	0.500039
C87	C	1.086085	0.337916	0.000035
C88	C	1.586085	0.837916	0.500035
N89	N	1.061561	0.119071	0.215844
N90	N	1.561561	0.619071	0.715844
N91	N	1.084978	0.097249	-0.215748
N92	N	1.584978	0.597249	0.284252
C93	C	1.030118	0.148127	0.740660
C94	C	1.530118	0.648127	1.240660
C95	C	1.034863	0.143738	0.653471
C96	C	1.534863	0.643738	1.153471
C97	C	1.094473	0.088475	0.609876
C98	C	1.594473	0.588475	1.109876
C99	C	1.149335	0.037592	0.653474
C100	C	1.649335	0.537592	1.153474
C101	C	1.144585	0.041978	0.740661
C102	C	1.644585	0.541978	1.240661
C103	C	1.111674	0.072574	0.346629
C104	C	1.611674	0.572574	0.846629
C105	C	1.116422	0.068194	0.259436
C106	C	1.616422	0.568194	0.759436
C107	C	1.001948	0.174339	0.259438
C108	C	1.501948	0.674339	0.759438
C109	C	0.997207	0.178723	0.346627
C110	C	1.497207	0.678723	0.846627
C111	C	1.052066	0.127838	0.390217
C112	C	1.552066	0.627838	0.890217
C113	C	1.099326	0.083989	0.520756
C114	C	1.599326	0.583989	1.020756
C115	C	1.047207	0.132320	0.479336
C116	C	1.547207	0.632320	0.979336
H117	H	0.647159	0.120320	0.212543
H118	H	1.147159	0.620320	0.712543
H119	H	1.179576	-0.389910	0.000026
H120	H	1.679576	0.110090	0.500026
H121	H	1.248932	-0.523297	0.000056
H122	H	1.748932	-0.023297	0.500056
C123	C	0.821950	0.104103	-0.158538
C124	C	1.321950	0.604103	0.341462
N125	N	0.864337	0.101581	-0.221105
N126	N	1.364337	0.601581	0.278895
H127	H	1.234540	-0.671266	0.000051
H128	H	1.734540	-0.171266	0.500051
H129	H	0.981582	0.193131	0.776149
H130	H	1.481582	0.693131	1.276149
H131	H	0.792486	0.118834	0.137020
H132	H	1.292486	0.618834	0.637020
H133	H	1.193040	-0.293881	0.000056
H134	H	1.693040	0.206119	0.500056
H135	H	0.990191	0.185165	0.617979
H136	H	1.490191	0.685165	1.117979
C137	C	0.931352	-0.475504	0.000012
C138	C	1.431352	0.024496	0.500012
N139	N	0.867169	-0.434073	-0.000004
N140	N	1.367169	0.065927	0.499996
H141	H	0.939097	-0.637753	0.000037
H142	H	1.439097	-0.137753	0.500037
H143	H	0.339203	0.111359	0.137032
H144	H	0.839203	0.611359	0.637032
C145	C	0.873199	-0.269396	0.000034
C146	C	1.373199	0.230604	0.500034
N147	N	0.802452	-0.295534	0.000039
N148	N	1.302452	0.204466	0.500039
C149	C	0.941600	0.230303	0.211482
C150	C	1.441600	0.730303	0.711482
N151	N	0.896140	0.272454	0.175361
N152	N	1.396140	0.772454	0.675361
H153	H	0.476343	0.117507	0.212533
H154	H	0.976343	0.617507	0.712533
C155	C	0.931626	0.239512	0.394575
C156	C	1.431626	0.739512	0.894575
N157	N	0.882229	0.285299	0.430689
N158	N	1.382229	0.785299	0.930689
C159	C	0.889853	-0.098118	0.000034
C160	C	1.389853	0.401882	0.500034
N161	N	0.825674	-0.056682	0.000029
N162	N	1.325674	0.443318	0.500029
H163	H	0.670198	0.098831	-0.212455
H164	H	1.170198	0.598831	0.287545
H165	H	0.966953	-0.393774	0.000032
H166	H	1.466953	0.106226	0.500032
C167	C	1.181997	0.007395	0.211483
C168	C	1.681997	0.507395	0.711483
N169	N	1.231386	-0.038396	0.175365
N170	N	1.731386	0.461604	0.675365
H171	H	1.156344	0.031143	0.382113
H172	H	1.656344	0.531143	0.882113
H173	H	1.197868	-0.007408	0.617975
H174	H	1.697868	0.492592	1.117975
C175	C	1.204936	-0.013990	0.788612
C176	C	1.704936	0.486010	1.288612
N177	N	1.250393	-0.056149	0.824727
N178	N	1.750393	0.443851	1.324727
H179	H	0.499363	0.096006	-0.212444
H180	H	0.999363	0.596006	0.287556
H181	H	1.147864	0.038994	0.485254
H182	H	1.647864	0.538994	0.985254
C183	C	0.341757	0.096186	-0.158510
C184	C	0.841757	0.596186	0.341490
N185	N	0.306140	0.092377	-0.221069
N186	N	0.806140	0.592377	0.278931
C187	C	1.231833	-0.136909	0.000066
C188	C	1.731833	0.363091	0.500066
N189	N	1.302585	-0.110781	0.000069
N190	N	1.802585	0.389219	0.500069
H191	H	0.998669	0.177313	0.514834
H192	H	1.498669	0.677313	1.014834
