data_functionalizedCrystal
_audit_creation_method	'MofGen! by Chris Wilmer'
_symmetry_space_group_name_H-M	'P1'
_symmetry_Int_Tables_number	1
_symmetry_cell_setting	triclinic
loop_
_symmetry_equiv_pos_as_xyz
  x,y,z
_cell_length_a	14.519731
_cell_length_b	13.596369
_cell_length_c	10.654550
_cell_angle_alpha	89.995191
_cell_angle_beta	95.913122
_cell_angle_gamma	90.005416
loop_
_atom_site_label
_atom_site_type_symbol
_atom_site_fract_x
_atom_site_fract_y
_atom_site_fract_z
O1	O	1.224711	0.081791	-0.164753
O2	O	1.558044	0.415124	0.168581
O3	O	1.891377	0.748458	0.501914
O4	O	0.956337	0.081792	-0.184111
O5	O	1.289670	0.415126	0.149222
O6	O	1.623003	0.748459	0.482555
O7	O	1.096694	0.081788	0.008366
O8	O	1.430027	0.415121	0.341699
O9	O	1.763361	0.748455	0.675033
O10	O	1.084353	0.081795	-0.357230
O11	O	1.417686	0.415129	-0.023897
O12	O	1.751020	0.748462	0.309437
O13	O	1.096680	-0.081795	0.008376
O14	O	1.430013	0.251538	0.341710
O15	O	1.763347	0.584872	0.675043
O16	O	0.956323	-0.081791	-0.184101
O17	O	1.289656	0.251543	0.149232
O18	O	1.622989	0.584876	0.482566
O19	O	1.224696	-0.081792	-0.164742
O20	O	1.558030	0.251541	0.168591
O21	O	1.891363	0.584875	0.501924
Zn22	Zn	1.090507	-0.107764	-0.174420
Zn23	Zn	1.423841	0.225570	0.158913
Zn24	Zn	1.757174	0.558903	0.492247
Zn25	Zn	1.090526	0.107764	-0.174434
Zn26	Zn	1.423859	0.441097	0.158900
Zn27	Zn	1.757193	0.774431	0.492233
O28	O	1.084339	-0.081788	-0.357220
O29	O	1.417672	0.251546	-0.023886
O30	O	1.751006	0.584879	0.309447
C31	C	0.921965	0.000001	-0.183199
C32	C	1.255299	0.333334	0.150134
C33	C	1.588632	0.666668	0.483468
C34	C	0.819571	0.000001	-0.180481
C35	C	1.152904	0.333335	0.152852
C36	C	1.486238	0.666668	0.486186
C37	C	0.736415	0.000005	-0.178272
C38	C	1.069749	0.333339	0.155061
C39	C	1.403082	0.666672	0.488394
C40	C	0.632092	0.000006	-0.175513
C41	C	0.965426	0.333339	0.157821
C42	C	1.298759	0.666672	0.491154
C43	C	0.548942	0.000005	-0.173322
C44	C	0.882275	0.333339	0.160011
C45	C	1.215609	0.666672	0.493344
C46	C	0.444612	0.000008	-0.170563
C47	C	0.777946	0.333341	0.162770
C48	C	1.111279	0.666674	0.496104
N49	N	1.090501	-0.254855	-0.174410
N50	N	1.423835	0.078478	0.158923
N51	N	1.757168	0.411811	0.492257
C52	C	1.090525	-0.656146	-0.174435
C53	C	1.423858	-0.322813	0.158898
C54	C	1.757191	0.010520	0.492232
C55	C	1.090515	-0.544495	-0.174432
C56	C	1.423849	-0.211162	0.158901
C57	C	1.757182	0.122172	0.492234
C58	C	1.090513	-0.455505	-0.174423
C59	C	1.423847	-0.122171	0.158910
C60	C	1.757180	0.211162	0.492243
C61	C	1.090503	-0.343846	-0.174419
C62	C	1.423837	-0.010513	0.158914
C63	C	1.757170	0.322821	0.492248
C64	C	1.259068	0.000002	-0.165655
C65	C	1.592401	0.333335	0.167679
C66	C	1.925734	0.666668	0.501012
C67	C	1.361462	0.000007	-0.168373
C68	C	1.694795	0.333341	0.164961
C69	C	2.028129	0.666674	0.498294
C70	C	1.095781	-0.000002	0.055160
C71	C	1.429114	0.333331	0.388494
C72	C	1.762448	0.666664	0.721827
C73	C	1.093070	0.000001	0.194578
C74	C	1.426403	0.333334	0.527911
C75	C	1.759737	0.666668	0.861245
N76	N	1.090539	0.254856	-0.174434
N77	N	1.423872	0.588189	0.158900
N78	N	1.757206	0.921522	0.492233
C79	C	1.085252	0.000005	-0.404014
C80	C	1.418586	0.333338	-0.070681
C81	C	1.751919	0.666671	0.262653
C82	C	1.087963	0.000008	-0.543432
C83	C	1.421297	0.333341	-0.210098
C84	C	1.754630	0.666674	0.123235
C85	C	1.175710	-0.000002	0.274850
C86	C	1.509043	0.333331	0.608183
C87	C	1.842377	0.666664	0.941516
C88	C	1.173157	0.000005	0.405846
C89	C	1.506490	0.333338	0.739179
C90	C	1.839824	0.666671	1.072513
C91	C	1.005317	0.000014	0.376286
C92	C	1.338650	0.333347	0.709620
C93	C	1.671983	0.666681	1.042953
C94	C	1.007871	0.000014	0.245292
C95	C	1.341204	0.333348	0.578626
C96	C	1.674537	0.666681	0.911959
C97	C	1.272611	-0.000012	0.291917
C98	C	1.605945	0.333321	0.625250
C99	C	1.939278	0.666655	0.958583
C100	C	1.270059	-0.000005	0.422913
C101	C	1.603392	0.333328	0.756247
C102	C	1.936725	0.666662	1.089580
H103	H	0.940577	0.000031	0.179939
H104	H	1.273910	0.333364	0.513272
H105	H	1.607243	0.666697	0.846605
H106	H	1.303462	-0.070644	0.256588
H107	H	1.636796	0.262689	0.589921
H108	H	1.970129	0.596023	0.923255
O109	O	1.308857	0.093543	0.483761
O110	O	1.642190	0.426877	0.817094
O111	O	1.975523	0.760210	1.150427
H112	H	1.382082	0.102284	0.464439
H113	H	1.715415	0.435617	0.797773
H114	H	2.048748	0.768950	1.131106
O115	O	0.913425	0.000013	0.430984
O116	O	1.246758	0.333346	0.764317
O117	O	1.580092	0.666680	1.097650
H118	H	0.925531	0.000005	0.535558
H119	H	1.258864	0.333338	0.868892
H120	H	1.592197	0.666672	1.202225
O121	O	1.322810	0.090665	0.253479
O122	O	1.656143	0.423998	0.586812
O123	O	1.989477	0.757332	0.920145
H124	H	1.345353	0.135065	0.338546
H125	H	1.678687	0.468398	0.671880
H126	H	2.012020	0.801731	1.005213
O127	O	1.318398	-0.090687	0.478711
O128	O	1.651731	0.242646	0.812045
O129	O	1.985064	0.575980	1.145378
H130	H	1.344079	-0.135093	0.402140
H131	H	1.677412	0.198240	0.735473
H132	H	2.010746	0.531573	1.068806
