data_functionalizedCrystal
_audit_creation_method	'MofGen! by Chris Wilmer'
_symmetry_space_group_name_H-M	'P1'
_symmetry_Int_Tables_number	1
_symmetry_cell_setting	triclinic
loop_
_symmetry_equiv_pos_as_xyz
  x,y,z
_cell_length_a	10.654550
_cell_length_b	11.026607
_cell_length_c	9.730223
_cell_angle_alpha	89.999947
_cell_angle_beta	89.996251
_cell_angle_gamma	96.535460
loop_
_atom_site_label
_atom_site_type_symbol
_atom_site_fract_x
_atom_site_fract_y
_atom_site_fract_z
O1	O	1.704901	0.170762	-0.114401
O2	O	1.342954	0.187032	-0.114379
O3	O	1.493930	0.001991	-0.114383
O4	O	1.553926	0.355802	-0.114397
O5	O	1.493929	0.001996	0.114196
O6	O	1.342953	0.187036	0.114201
O7	O	1.704900	0.170767	0.114179
Zn8	Zn	1.523926	0.178902	0.150482
Zn9	Zn	1.523928	0.178896	-0.150682
O10	O	1.553924	0.355807	0.114183
C11	C	1.295897	0.185839	-0.000086
C12	C	1.155677	0.182265	-0.000078
C13	C	1.099841	0.291214	-0.000102
C14	C	0.968090	0.287849	-0.000126
C15	C	0.948022	0.066576	-0.000107
C16	C	1.079771	0.069943	-0.000073
C17	C	1.111426	0.418964	-0.000119
C18	C	0.979675	0.415599	-0.000143
C19	C	1.482861	-0.043310	-0.000094
C20	C	1.449867	-0.178302	-0.000097
C21	C	1.540970	-0.251341	-0.000105
C22	C	1.506871	-0.390862	-0.000108
C23	C	1.751958	0.171959	-0.000117
C24	C	1.892177	0.175533	-0.000135
C25	C	1.564993	0.401109	-0.000109
C26	C	1.597988	0.536100	-0.000115
N27	N	1.523934	0.178906	0.356018
N28	N	1.523928	0.178883	-0.356219
C29	C	1.590814	0.096998	0.427942
C30	C	1.590808	0.096983	0.571825
C31	C	1.457040	0.260795	0.571847
C32	C	1.457040	0.260803	0.427967
C33	C	1.668049	0.002426	0.427931
C34	C	1.668043	0.002411	0.571814
H35	H	0.942384	0.454208	0.098540
O36	O	1.618045	-0.109008	0.381408
C37	C	1.493122	-0.134602	0.429863
H38	H	1.453602	-0.045459	0.455434
H39	H	1.432292	-0.185484	0.347166
H40	H	1.492453	-0.193557	0.526168
O41	O	1.133949	-0.035924	-0.000279
C42	C	1.095655	-0.104083	-0.118639
H43	H	1.065335	-0.040286	-0.201407
H44	H	1.177755	-0.152063	-0.158341
H45	H	1.012913	-0.175013	-0.091881
O46	O	1.392252	0.340419	0.357952
C47	C	1.476592	0.416069	0.274755
H48	H	1.564114	0.368538	0.253183
H49	H	1.428414	0.434841	0.173587
H50	H	1.505444	0.506000	0.330218
H51	H	1.769076	0.023243	0.610858
O52	O	1.664187	-0.202873	0.000067
C53	C	1.724407	-0.241990	0.118461
H54	H	1.670347	-0.330289	0.157937
H55	H	1.825244	-0.258580	0.091824
H56	H	1.726327	-0.168737	0.201357
H57	H	1.701236	-0.423147	-0.000225
O58	O	1.784528	0.037934	0.374857
C59	C	1.826515	0.157253	0.419738
H60	H	1.775224	0.177206	0.518593
H61	H	1.932572	0.165470	0.439720
H62	H	1.805704	0.225568	0.337195
H63	H	1.618360	-0.085899	0.616435
H64	H	1.403623	-0.431617	-0.000111
O65	O	1.164554	0.467293	-0.117918
C66	C	1.231163	0.380174	-0.183430
H67	H	1.191775	0.284703	-0.148454
H68	H	1.220049	0.387775	-0.299535
H69	H	1.335523	0.397596	-0.155278
H70	H	1.402575	0.327472	0.630443
O71	O	0.942502	0.473185	-0.114228
C72	C	0.997811	0.595590	-0.113992
H73	H	1.086506	0.604249	-0.047557
H74	H	1.023944	0.625075	-0.223580
H75	H	0.927708	0.656424	-0.070651
O76	O	1.326743	-0.227059	-0.000277
C77	C	1.302237	-0.299607	-0.118681
H78	H	1.394323	-0.330230	-0.158156
H79	H	1.233413	-0.383149	-0.092058
H80	H	1.259156	-0.244107	-0.201572
H81	H	0.886203	-0.024874	-0.000124
H82	H	1.151603	0.468929	0.095545
