data_functionalizedCrystal
_audit_creation_method	'MofGen! by Chris Wilmer'
_symmetry_space_group_name_H-M	'P1'
_symmetry_Int_Tables_number	1
_symmetry_cell_setting	triclinic
loop_
_symmetry_equiv_pos_as_xyz
  x,y,z
_cell_length_a	10.723023
_cell_length_b	19.188924
_cell_length_c	9.198806
_cell_angle_alpha	89.994752
_cell_angle_beta	89.996513
_cell_angle_gamma	83.804756
loop_
_atom_site_label
_atom_site_type_symbol
_atom_site_fract_x
_atom_site_fract_y
_atom_site_fract_z
O1	O	1.655151	0.097920	-0.120885
O2	O	2.155151	0.597920	0.379115
O3	O	1.291804	0.107293	-0.120892
O4	O	1.791804	0.607293	0.379108
O5	O	1.483968	0.001019	-0.120871
O6	O	1.983968	0.501019	0.379129
O7	O	1.462988	0.204194	-0.120906
O8	O	1.962988	0.704194	0.379094
O9	O	1.483952	0.001018	0.120914
O10	O	1.983952	0.501018	0.620914
O11	O	1.291789	0.107293	0.120893
O12	O	1.791789	0.607293	0.620893
O13	O	1.655136	0.097919	0.120900
O14	O	2.155136	0.597919	0.620900
Cu15	Cu	1.473461	0.102606	0.142974
Cu16	Cu	1.973461	0.602606	0.642974
Cu17	Cu	1.473479	0.102607	-0.142965
Cu18	Cu	1.973479	0.602607	0.357035
O19	O	1.462973	0.204194	0.120879
O20	O	1.962973	0.704194	0.620879
C21	C	1.245311	0.106611	-0.000000
C22	C	1.745311	0.606611	0.500000
C23	C	1.106799	0.104571	-0.000002
C24	C	1.606799	0.604571	0.499998
C25	C	1.045038	0.103661	0.125249
C26	C	1.545038	0.603661	0.625249
C27	C	0.901879	0.101552	0.125250
C28	C	1.401879	0.601552	0.625250
C29	C	1.483282	-0.024997	0.000023
C30	C	1.983282	0.475003	0.500023
C31	C	1.481247	-0.102515	0.000027
C32	C	1.981247	0.397485	0.500027
C33	C	1.480305	-0.138920	-0.131771
C34	C	1.980305	0.361080	0.368229
C35	C	1.478375	-0.211755	-0.131782
C36	C	1.978375	0.288245	0.368218
C37	C	1.477412	-0.248184	0.000012
C38	C	1.977412	0.251816	0.500012
C39	C	1.478347	-0.211770	0.131827
C40	C	1.978347	0.288230	0.631827
C41	C	1.480264	-0.138936	0.131834
C42	C	1.980264	0.361064	0.631834
N43	N	1.545403	-0.367406	0.098104
N44	N	2.045403	0.132594	0.598104
N45	N	1.543584	-0.436596	0.098088
N46	N	2.043584	0.063404	0.598088
C47	C	1.471632	-0.467631	-0.000002
C48	C	1.971632	0.032369	0.499998
N49	N	1.401584	-0.426863	-0.098098
N50	N	1.901584	0.073137	0.401902
N51	N	1.403408	-0.357667	-0.098087
N52	N	1.903408	0.142333	0.401913
C53	C	1.475332	-0.327161	0.000019
C54	C	1.975332	0.172839	0.500019
C55	C	1.468596	-0.583012	-0.131821
C56	C	1.968596	-0.083012	0.368179
C57	C	1.466659	-0.655848	-0.131826
C58	C	1.966659	-0.155848	0.368174
C59	C	1.466643	-0.655863	0.131786
C60	C	1.966643	-0.155863	0.631786
C61	C	1.468568	-0.583027	0.131788
C62	C	1.968568	-0.083027	0.631788
C63	C	1.469550	-0.546607	-0.000020
C64	C	1.969550	-0.046607	0.499980
C65	C	1.701629	0.098602	0.000005
C66	C	2.201629	0.598602	0.500005
C67	C	1.840141	0.100642	-0.000003
C68	C	2.340141	0.600642	0.499997
C69	C	1.463658	0.230210	-0.000018
C70	C	1.963658	0.730210	0.499982
C71	C	1.465693	0.307728	-0.000031
C72	C	1.965693	0.807728	0.499969
N73	N	1.473458	0.102606	0.344087
N74	N	1.973458	0.602606	0.844087
N75	N	1.473492	0.102602	-0.344079
N76	N	1.973492	0.602602	0.155921
C77	C	1.554146	0.057787	0.416293
C78	C	2.054146	0.557787	0.916293
C79	C	1.554165	0.057785	0.583705
C80	C	2.054165	0.557785	1.083705
H81	H	1.053690	0.103786	-0.107233
H82	H	1.553690	0.603786	0.392767
H83	H	1.469389	-0.553356	-0.239146
H84	H	1.969389	-0.053356	0.260854
H85	H	1.477559	-0.241435	0.239134
H86	H	1.977559	0.258565	0.739134
C87	C	0.911868	0.101701	-0.144879
C88	C	1.411868	0.601701	0.355121
H89	H	0.854562	0.100862	-0.223460
H90	H	1.354562	0.600862	0.276540
H91	H	0.972386	0.061808	-0.150279
H92	H	1.472386	0.561808	0.349721
H93	H	0.952897	0.143099	-0.150286
H94	H	1.452897	0.643099	0.349714
C95	C	1.481312	-0.098889	0.276817
C96	C	1.981312	0.401111	0.776817
H97	H	1.480468	-0.131014	0.355311
H98	H	1.980468	0.368986	0.855311
H99	H	1.409317	-0.065496	0.282298
H100	H	1.909317	0.434504	0.782298
H101	H	1.554821	-0.075459	0.282297
H102	H	2.054821	0.424541	0.782297
H103	H	0.848765	0.100773	0.232482
H104	H	1.348765	0.600773	0.732482
H105	H	1.404387	0.140972	0.406208
H106	H	1.904387	0.640972	0.906208
H107	H	1.481102	-0.109270	-0.239099
H108	H	1.981102	0.390730	0.260901
H109	H	1.477601	-0.241401	-0.239110
H110	H	1.977601	0.258599	0.260890
H111	H	1.465886	-0.685487	-0.239156
H112	H	1.965886	-0.185487	0.260844
H113	H	1.465849	-0.685522	0.239095
H114	H	1.965849	-0.185522	0.739095
H115	H	1.469345	-0.553387	0.239112
H116	H	1.969345	-0.053387	0.739112
C117	C	1.647487	0.005945	0.667579
C118	C	2.147487	0.505945	1.167579
H119	H	1.635251	0.012741	0.769095
H120	H	2.135251	0.512741	1.269095
H121	H	1.730801	0.013806	0.642687
H122	H	2.230801	0.513806	1.142687
H123	H	1.633964	-0.040699	0.642717
H124	H	2.133964	0.459301	1.142717
H125	H	1.623208	0.019415	0.354175
H126	H	2.123208	0.519415	0.854175
C127	C	1.116771	0.104719	0.270115
C128	C	1.616771	0.604719	0.770115
H129	H	1.203579	0.106003	0.251109
H130	H	1.703579	0.606003	0.751109
H131	H	1.105237	0.063764	0.324314
H132	H	1.605237	0.563764	0.824314
H133	H	1.085759	0.145055	0.324288
H134	H	1.585759	0.645055	0.824288
C135	C	1.380164	0.154444	0.572063
C136	C	1.880164	0.654444	1.072063
H137	H	1.329560	0.182564	0.639088
H138	H	1.829560	0.682564	1.139088
H139	H	1.328265	0.129127	0.512696
H140	H	1.828265	0.629127	1.012696
H141	H	1.425098	0.183635	0.512678
H142	H	1.925098	0.683635	1.012678
