data_functionalizedCrystal
_audit_creation_method	'MofGen! by Chris Wilmer'
_symmetry_space_group_name_H-M	'P1'
_symmetry_Int_Tables_number	1
_symmetry_cell_setting	triclinic
loop_
_symmetry_equiv_pos_as_xyz
  x,y,z
_cell_length_a	16.974901
_cell_length_b	23.532409
_cell_length_c	16.053802
_cell_angle_alpha	92.552399
_cell_angle_beta	96.225225
_cell_angle_gamma	96.872916
loop_
_atom_site_label
_atom_site_type_symbol
_atom_site_fract_x
_atom_site_fract_y
_atom_site_fract_z
O1	O	-1.055358	0.067777	-0.140656
O2	O	-0.824329	0.077550	-0.125063
O3	O	-0.946809	-0.010261	-0.133331
O4	O	-0.932877	0.155588	-0.132388
O5	O	-0.940067	-0.005448	0.005983
O6	O	-0.817587	0.082363	0.014251
O7	O	-1.048616	0.072591	-0.001342
Zn8	Zn	-0.932031	0.078241	0.028573
Zn9	Zn	-0.940914	0.071899	-0.154979
O10	O	-0.926136	0.160402	0.006926
C11	C	-0.791406	0.079672	-0.053412
C12	C	-0.703352	0.078818	-0.047469
C13	C	-0.943083	-0.029071	-0.063652
C14	C	-0.942016	-0.092289	-0.063586
C15	C	-0.665651	0.075795	-0.120611
C16	C	-0.582913	0.075002	-0.115015
C17	C	-0.537877	0.077229	-0.036276
C18	C	-0.575583	0.080254	0.036871
C19	C	-0.658320	0.081051	0.031274
C20	C	-0.290038	0.075131	-0.011394
C21	C	-0.207296	0.074333	-0.005802
C22	C	-0.214631	0.069082	-0.157689
C23	C	-0.297369	0.069875	-0.163279
C24	C	-0.335068	0.072904	-0.090132
N25	N	-0.453305	0.076417	-0.030554
N26	N	-0.419637	0.073720	-0.095855
C27	C	-0.941152	-0.368163	-0.139223
C28	C	-0.942143	-0.308761	-0.139290
O29	O	-0.945808	-0.280268	-0.203909
N30	N	-0.938959	-0.276435	-0.063382
C31	C	-0.934791	-0.303513	0.012597
O32	O	-0.932174	-0.270563	0.077157
C33	C	-0.933806	-0.362914	0.012663
C34	C	-0.936982	-0.395237	-0.063249
C35	C	-0.944329	-0.400485	-0.215130
C36	C	-0.943336	-0.459882	-0.215062
C37	C	-0.939166	-0.486957	-0.139088
C38	C	-0.935989	-0.454634	-0.063182
C39	C	-0.929644	-0.389992	0.088642
C40	C	-0.928659	-0.449397	0.088701
C41	C	-0.931835	-0.481720	0.012788
C42	C	-0.930827	-0.541105	0.012860
N43	N	-0.934011	-0.573431	-0.063049
C44	C	-0.938181	-0.546357	-0.139023
C45	C	-0.936862	-0.178768	0.012453
C46	C	-0.937842	-0.119368	0.012389
C47	C	-0.945195	-0.124620	-0.139499
C48	C	-0.944210	-0.184021	-0.139434
C49	C	-0.940047	-0.211095	-0.063455
C50	C	-0.936095	-0.671095	-0.138875
C51	C	-0.935099	-0.730496	-0.138801
C52	C	-0.927750	-0.725239	0.013087
C53	C	-0.928742	-0.665842	0.013013
C54	C	-0.932918	-0.638772	-0.062975
O55	O	-0.927166	-0.569638	0.077445
O56	O	-0.940807	-0.579316	-0.203572
C57	C	-0.081539	0.070465	-0.072995
C58	C	-0.169595	0.071309	-0.078944
C59	C	-0.929862	0.179211	-0.062755
C60	C	-0.930929	0.242429	-0.062827
N61	N	-0.925975	0.082569	0.153843
N62	N	-0.946976	0.067567	-0.280248
C63	C	-0.978110	0.045219	0.194017
C64	C	-0.973881	0.048251	0.281710
C65	C	-0.917521	0.088638	0.329225
C66	C	-0.865381	0.125990	0.289045
C67	C	-0.869606	0.122954	0.201354
C68	C	-0.899062	0.101883	0.591881
C69	C	-0.894842	0.104917	0.679577
C70	C	-1.003341	0.027178	0.672236
C71	C	-1.007565	0.024148	0.584544
C72	C	-0.955422	0.061498	0.544371
N73	N	-0.913198	0.091740	0.418861
N74	N	-0.959742	0.058392	0.454738
H75	H	-0.702314	0.073980	-0.184729
H76	H	-0.819487	0.158872	0.327737
Br77	Br	-0.949990	-0.363754	-0.318252
H78	H	-0.937683	-0.756811	-0.200620
Br79	Br	-0.709485	0.085159	0.130543
H80	H	-0.827152	0.153368	0.168645
Br81	Br	-0.941762	-0.634366	-0.242002
Br82	Br	-0.922082	-0.761994	0.116190
Br83	Br	-0.925320	-0.346139	0.191674
H84	H	-0.552221	0.072540	-0.174575
Br85	Br	-0.950834	-0.087864	-0.242607
Br86	Br	-0.341189	0.079242	0.087878
Br87	Br	-1.044632	-0.002441	0.336236
H88	H	-0.334033	0.068058	-0.227397
H89	H	-0.183928	0.066618	-0.217242
Br90	Br	-1.054608	-0.009590	0.129540
H91	H	-0.926124	-0.639521	0.074830
Br92	Br	-0.933508	-0.075506	0.115419
H93	H	-1.053458	-0.008738	0.545858
Br94	Br	-0.146179	0.077340	0.101064
H95	H	-1.045792	-0.003232	0.704953
Br96	Br	-0.818349	0.159735	0.744057
Br97	Br	-0.931204	-0.215504	0.115578
H98	H	-0.538908	0.082071	0.100982
Br99	Br	-0.828301	0.152572	0.537365
Br100	Br	-0.947655	-0.503741	-0.318093
Br101	Br	-0.948521	-0.227882	-0.242461
Br102	Br	-0.923014	-0.486137	0.191821
