data_functionalizedCrystal
_audit_creation_method	'MofGen! by Chris Wilmer'
_symmetry_space_group_name_H-M	'P1'
_symmetry_Int_Tables_number	1
_symmetry_cell_setting	triclinic
loop_
_symmetry_equiv_pos_as_xyz
  x,y,z
_cell_length_a	10.654537
_cell_length_b	11.804365
_cell_length_c	13.262415
_cell_angle_alpha	93.598016
_cell_angle_beta	95.541545
_cell_angle_gamma	78.036808
loop_
_atom_site_label
_atom_site_type_symbol
_atom_site_fract_x
_atom_site_fract_y
_atom_site_fract_z
O1	O	-1.702111	0.137302	0.118262
O2	O	-1.337647	0.141567	0.131410
O3	O	-1.517262	0.093146	-0.018070
O4	O	-1.522495	0.185723	0.267742
O5	O	-1.469973	-0.092175	0.021242
O6	O	-1.290357	-0.043754	0.170723
O7	O	-1.654821	-0.048020	0.157574
Cu8	Cu	-1.468271	-0.062808	0.167738
Cu9	Cu	-1.524197	0.156356	0.121247
O10	O	-1.475206	0.000402	0.307055
C11	C	-1.267130	0.048595	0.150102
C12	C	-1.127464	0.047664	0.147218
C13	C	-1.113280	0.105574	0.325957
C14	C	-1.040575	0.134093	0.413967
C15	C	-0.909347	0.133214	0.411251
C16	C	-0.850822	0.103809	0.320516
C17	C	-0.923526	0.075290	0.232506
C18	C	-1.054757	0.076176	0.235231
C19	C	-0.937708	0.017372	0.053770
C20	C	-1.068938	0.018259	0.056482
C21	C	-0.879182	-0.012033	-0.036965
C22	C	-0.951889	-0.040545	-0.124979
C23	C	-1.083125	-0.039663	-0.122259
C24	C	-1.141643	-0.010260	-0.031527
N25	N	-1.428946	-0.216956	0.200437
C26	C	-1.657965	-0.652595	0.009998
C27	C	-1.687713	-0.535947	-0.014743
C28	C	-1.623023	-0.456194	0.039050
C29	C	-1.528581	-0.493099	0.117588
C30	C	-1.498838	-0.609756	0.142337
C31	C	-1.463896	-0.413356	0.171389
C32	C	-1.369454	-0.450261	0.249927
C33	C	-1.339714	-0.566907	0.274671
C34	C	-1.404404	-0.646660	0.220879
C35	C	-1.493640	-0.296699	0.146640
C36	C	-1.334512	-0.253860	0.278979
C37	C	-1.304764	-0.370507	0.303720
C38	C	-0.725338	0.044954	0.138885
C39	C	-0.865003	0.045891	0.141780
C40	C	-1.489562	-0.011367	-0.035011
C41	C	-1.477463	-0.046681	-0.144060
N42	N	-1.563531	0.310502	0.088540
C43	C	-1.546475	0.257854	-0.537157
C44	C	-1.557854	0.291040	-0.434702
C45	C	-1.537757	0.206612	-0.362037
C46	C	-1.506280	0.088994	-0.391836
C47	C	-1.494909	0.055805	-0.494302
C48	C	-1.486191	0.004563	-0.319182
C49	C	-1.454714	-0.113055	-0.348981
C50	C	-1.443344	-0.146238	-0.451437
C51	C	-1.463442	-0.061811	-0.524102
C52	C	-1.497561	0.037752	-0.216716
C53	C	-1.445995	-0.164297	-0.173861
C54	C	-1.434616	-0.197482	-0.276315
C55	C	-1.502907	0.104917	0.323995
C56	C	-1.515008	0.140238	0.433043
H57	H	-0.904227	-0.064483	-0.198848
H58	H	-1.142313	-0.062891	-0.193927
H59	H	-1.454177	-0.088825	-0.607531
H60	H	-1.380180	-0.741646	0.241019
F61	F	-1.409859	-0.271419	-0.483150
F62	F	-1.567882	0.347693	-0.614497
F63	F	-0.711152	0.102857	0.317633
F64	F	-1.204254	-0.409798	0.387305
H65	H	-1.220138	0.106318	0.328173
F66	F	-1.594148	-0.257435	0.063057
H67	H	-1.408987	-0.293249	-0.300593
F68	F	-1.654684	-0.332048	0.012716
H69	H	-1.547023	0.233639	-0.278615
F70	F	-1.788221	-0.496673	-0.098324
H71	H	-1.710634	-0.717534	-0.033788
H72	H	-1.262825	-0.596951	0.338629
H73	H	-1.088241	0.158031	0.487842
H74	H	-1.281838	-0.188924	0.322784
F75	F	-1.531060	0.162926	-0.185013
F76	F	-0.831965	0.163557	0.504922
F77	F	-1.424611	-0.254158	-0.096530
F78	F	-0.739516	-0.012975	-0.039852
F79	F	-1.281309	-0.009312	-0.028627
F80	F	-1.591355	0.416212	-0.402995
