data_functionalizedCrystal
_audit_creation_method	'MofGen! by Chris Wilmer'
_symmetry_space_group_name_H-M	'P1'
_symmetry_Int_Tables_number	1
_symmetry_cell_setting	triclinic
loop_
_symmetry_equiv_pos_as_xyz
  x,y,z
_cell_length_a	19.077269
_cell_length_b	29.839131
_cell_length_c	19.076919
_cell_angle_alpha	87.732541
_cell_angle_beta	85.330942
_cell_angle_gamma	87.744649
loop_
_atom_site_label
_atom_site_type_symbol
_atom_site_fract_x
_atom_site_fract_y
_atom_site_fract_z
Zn1	Zn	1.061556	-0.215186	0.355254
Zn2	Zn	1.066178	-0.287409	0.237368
Zn3	Zn	0.948416	-0.209397	0.242122
Zn4	Zn	0.943608	-0.287387	0.359951
O5	O	1.004939	-0.249845	0.298674
O6	O	1.160814	-0.227199	0.335661
O7	O	1.054502	-0.274647	0.139351
O8	O	0.963502	-0.147300	0.257153
O9	O	1.164210	-0.280261	0.249051
O10	O	1.046625	-0.151553	0.340271
O11	O	0.967983	-0.217332	0.142844
O12	O	0.849133	-0.217310	0.261708
O13	O	0.955308	-0.280222	0.457975
O14	O	0.845601	-0.274609	0.348276
O15	O	1.041964	-0.227177	0.454525
O16	O	1.049841	-0.350271	0.253605
O17	O	0.959790	-0.350254	0.343666
C18	C	0.821789	-0.245329	0.306018
C19	C	0.743436	-0.243409	0.309176
C20	C	0.708393	-0.270085	0.265500
C21	C	0.634772	-0.268281	0.268477
C22	C	0.596195	-0.239798	0.315127
C23	C	0.631243	-0.213121	0.358809
C24	C	0.704863	-0.214928	0.355835
C25	C	0.375825	-0.231439	0.328868
C26	C	0.302200	-0.229634	0.331837
C27	C	0.305734	-0.284794	0.241506
C28	C	0.379356	-0.286596	0.238533
C29	C	0.414397	-0.259921	0.282217
N30	N	0.520942	-0.237952	0.318170
N31	N	0.489648	-0.261770	0.279177
C32	C	1.004814	-0.366563	0.298644
C33	C	1.004823	-0.416498	0.298652
C34	C	1.051908	-0.726145	0.251842
C35	C	1.051994	-0.913820	0.251866
O36	O	1.091928	-0.938085	0.212043
N37	N	1.005083	-0.937292	0.298721
C38	C	0.958151	-0.913841	0.345577
O39	O	0.918257	-0.938111	0.385436
C40	C	0.958069	-0.726166	0.345556
C41	C	1.004978	-0.702697	0.298693
C42	C	1.098814	-0.702676	0.204983
C43	C	1.098789	-0.655759	0.204974
C44	C	1.051859	-0.632312	0.251826
C45	C	1.004954	-0.655781	0.298685
C46	C	0.911141	-0.702717	0.392415
C47	C	0.911126	-0.655795	0.392407
C48	C	0.958034	-0.632326	0.345544
C49	C	0.957999	-0.585417	0.345528
N50	N	1.004909	-0.561946	0.298672
C51	C	1.051840	-0.585394	0.251821
C52	C	0.958196	-1.012373	0.345584
C53	C	0.958216	-1.059291	0.345589
C54	C	1.052060	-1.059268	0.251878
C55	C	1.052037	-1.012348	0.251870
C56	C	1.005107	-0.988902	0.298729
C57	C	1.051784	-0.486866	0.251807
C58	C	1.051753	-0.439945	0.251801
C59	C	0.957912	-0.439973	0.345514
C60	C	0.957940	-0.486890	0.345518
C61	C	1.004882	-0.510335	0.298662
O62	O	0.918092	-0.561124	0.385335
O63	O	1.091738	-0.561116	0.211979
C64	C	1.051933	-0.773061	0.251850
C65	C	1.005027	-0.796530	0.298709
C66	C	0.958097	-0.773082	0.345560
C67	C	1.005047	-0.843448	0.298714
C68	C	1.051977	-0.866896	0.251862
C69	C	1.098888	-0.843425	0.205007
C70	C	1.098863	-0.796508	0.204999
C71	C	0.911186	-0.796554	0.392416
C72	C	0.911214	-0.843470	0.392420
C73	C	0.958144	-0.866917	0.345568
C74	C	1.188805	-0.254378	0.291302
C75	C	1.267157	-0.256310	0.288160
C76	C	0.997584	-0.254343	0.482543
C77	C	0.994450	-0.256259	0.560898
C78	C	1.005084	-0.132671	0.298719
C79	C	1.005146	-0.082739	0.298738
C80	C	1.012306	-0.245333	0.115518
C81	C	1.015577	-0.243293	0.037159
C82	C	1.038092	-0.229543	0.595913
C83	C	1.035139	-0.231342	0.669536
C84	C	0.988546	-0.259860	0.708141
C85	C	0.944899	-0.286578	0.673121
C86	C	0.947850	-0.284776	0.599500
C87	C	0.974881	-0.268208	0.928517
C88	C	0.971935	-0.270009	1.002143
C89	C	1.062174	-0.214773	0.998553
C90	C	1.065123	-0.212976	0.924931
C91	C	1.021474	-0.239691	0.889917
N92	N	0.985528	-0.261701	0.783395
N93	N	1.024489	-0.237848	0.814664
H94	H	0.606243	-0.290003	0.232910
H95	H	0.599827	-0.189932	0.396796
N96	N	1.102676	-1.084565	0.201346
H97	H	1.134174	-1.105509	0.228722
H98	H	1.132350	-1.062554	0.171670
H99	H	1.097710	-0.193022	1.027070
H100	H	0.933992	-0.293233	1.033574
H101	H	1.103066	-0.189755	0.893503
H102	H	0.939349	-0.289969	0.900017
H103	H	0.906960	-0.309796	0.704559
N104	N	0.907303	-0.414674	0.396045
H105	H	0.916202	-0.424319	0.445985
H106	H	0.857406	-0.421371	0.387023
H107	H	0.270792	-0.206436	0.369823
N108	N	1.088354	-0.198788	0.554281
H109	H	1.122223	-0.217106	0.522427
H110	H	1.115502	-0.182145	0.587687
H111	H	0.872939	-0.721817	0.430574
N112	N	0.900771	-0.313590	0.561737
H113	H	0.911163	-0.346272	0.574096
H114	H	0.909726	-0.308084	0.509252
N115	N	0.749999	-0.300802	0.215178
H116	H	0.716625	-0.317428	0.187962
H117	H	0.779389	-0.323071	0.242578
N118	N	0.413625	-0.202660	0.375958
H119	H	0.442862	-0.222491	0.407344
H120	H	0.377980	-0.184340	0.405914
N121	N	0.420963	-0.317314	0.188212
H122	H	0.387591	-0.333939	0.160993
H123	H	0.450354	-0.339583	0.215610
H124	H	0.277196	-0.306513	0.205942
N125	N	0.742663	-0.186158	0.402946
H126	H	0.707054	-0.167840	0.432950
H127	H	0.774367	-0.165389	0.373079
H128	H	1.089952	-0.420838	0.213637
H129	H	1.090010	-0.505950	0.213654
H130	H	1.136989	-0.636654	0.166816
N131	N	1.149437	-0.727961	0.154447
H132	H	1.179143	-0.705967	0.124766
H133	H	1.122083	-0.745947	0.122949
N134	N	0.860503	-0.630504	0.442941
H135	H	0.887804	-0.612514	0.474482
H136	H	0.830802	-0.652520	0.472578
H137	H	0.873009	-0.862574	0.430581
N138	N	1.102633	-0.987037	0.201328
H139	H	1.132363	-1.009015	0.171651
H140	H	1.134078	-0.969050	0.228740
H141	H	0.920012	-1.078395	0.383743
H142	H	0.919745	-0.505999	0.383680
H143	H	0.919979	-0.993286	0.383743
H144	H	1.137061	-0.777403	0.166838
N145	N	1.149500	-0.868718	0.154468
H146	H	1.142391	-0.902001	0.161588
H147	H	1.199394	-0.861993	0.163458
H148	H	1.070679	-0.209588	0.698042
H149	H	0.872971	-0.777466	0.430569
