data_functionalizedCrystal
_audit_creation_method	'MofGen! by Chris Wilmer'
_symmetry_space_group_name_H-M	'P1'
_symmetry_Int_Tables_number	1
_symmetry_cell_setting	triclinic
loop_
_symmetry_equiv_pos_as_xyz
  x,y,z
_cell_length_a	10.654534
_cell_length_b	10.654550
_cell_length_c	9.730223
_cell_angle_alpha	89.995747
_cell_angle_beta	90.004077
_cell_angle_gamma	95.518333
loop_
_atom_site_label
_atom_site_type_symbol
_atom_site_fract_x
_atom_site_fract_y
_atom_site_fract_z
O1	O	-1.667851	0.176303	-0.114315
O2	O	-1.302370	0.193130	-0.114313
O3	O	-1.493513	0.001977	-0.114305
O4	O	-1.476707	0.367456	-0.114323
O5	O	-1.493501	0.001972	0.114274
O6	O	-1.302357	0.193125	0.114267
O7	O	-1.667838	0.176298	0.114264
Zn8	Zn	-1.485096	0.184711	0.150558
Zn9	Zn	-1.485112	0.184718	-0.150606
O10	O	-1.476695	0.367451	0.114257
C11	C	-1.255565	0.191896	-0.000022
C12	C	-1.116121	0.188212	-0.000021
C13	C	-1.492273	-0.044824	-0.000016
C14	C	-1.488581	-0.184267	-0.000018
C15	C	-1.050609	0.186475	0.124581
C16	C	-0.919589	0.182993	0.124584
C17	C	-0.919603	0.182990	-0.124627
C18	C	-1.050622	0.186464	-0.124628
C19	C	-1.601123	-0.263759	-0.000020
C20	C	-1.597647	-0.394779	-0.000036
C21	C	-1.369076	-0.366803	-0.000045
C22	C	-1.372554	-0.235785	-0.000038
C23	C	-0.714642	0.177542	-0.000023
C24	C	-0.854082	0.181257	-0.000016
C25	C	-1.477935	0.414252	-0.000035
C26	C	-1.481627	0.553695	-0.000042
N27	N	-1.485094	0.184705	0.356094
N28	N	-1.485124	0.184713	-0.356142
C29	C	-1.569761	0.100099	0.428023
C30	C	-1.569774	0.100099	0.571906
C31	C	-1.400447	0.269324	0.571918
C32	C	-1.400430	0.269316	0.428038
H33	H	-0.866255	0.181579	0.226047
O34	O	-1.651970	0.017743	0.641626
C35	C	-1.630462	-0.106777	0.606511
H36	H	-1.582043	-0.107073	0.502055
H37	H	-1.724330	-0.167750	0.601574
H38	H	-1.567625	-0.146197	0.687506
H39	H	-1.103935	0.187899	0.226044
H40	H	-1.331518	0.338214	0.630510
O41	O	-0.855887	0.181526	-0.245626
C42	C	-0.766797	0.288083	-0.253068
H43	H	-0.796997	0.365017	-0.182364
H44	H	-0.760854	0.324493	-0.363274
H45	H	-0.670502	0.260906	-0.219585
H46	H	-1.689291	-0.459497	-0.000041
H47	H	-1.638698	0.031201	0.369450
O48	O	-1.256451	-0.417001	-0.000234
C49	C	-1.247595	-0.491916	-0.118636
H50	H	-1.346302	-0.523684	-0.158104
H51	H	-1.196782	-0.578132	-0.092012
H52	H	-1.192542	-0.434515	-0.201532
H53	H	-1.695600	-0.221817	-0.000007
O54	O	-1.114067	0.188204	-0.245797
C55	C	-1.028167	0.185895	-0.355778
H56	H	-0.929912	0.223113	-0.319258
H57	H	-1.058586	0.247763	-0.442929
H58	H	-1.026543	0.084946	-0.394082
O59	O	-1.263105	-0.158737	0.000026
C60	C	-1.159951	-0.232300	-0.000016
H61	H	-1.190965	-0.329800	0.043259
H62	H	-1.081022	-0.184662	0.066343
H63	H	-1.124452	-0.241923	-0.109680
H64	H	-1.331477	0.338214	0.369470
