data_functionalizedCrystal
_audit_creation_method	'MofGen! by Chris Wilmer'
_symmetry_space_group_name_H-M	'P1'
_symmetry_Int_Tables_number	1
_symmetry_cell_setting	triclinic
loop_
_symmetry_equiv_pos_as_xyz
  x,y,z
_cell_length_a	16.959455
_cell_length_b	19.121063
_cell_length_c	16.959447
_cell_angle_alpha	92.406624
_cell_angle_beta	89.985678
_cell_angle_gamma	92.465894
loop_
_atom_site_label
_atom_site_type_symbol
_atom_site_fract_x
_atom_site_fract_y
_atom_site_fract_z
Zn1	Zn	1.194915	-0.279656	-0.460312
Zn2	Zn	1.694915	0.220344	0.039688
Zn3	Zn	1.189180	-0.397117	-0.333763
Zn4	Zn	1.689180	0.102883	0.166237
Zn5	Zn	1.062742	-0.279678	-0.328150
Zn6	Zn	1.562742	0.220322	0.171850
Zn7	Zn	1.057053	-0.397064	-0.465899
Zn8	Zn	1.557053	0.102936	0.034101
O9	O	1.125973	-0.338379	-0.397031
O10	O	1.625973	0.161621	0.102969
O11	O	1.304764	-0.295250	-0.443535
O12	O	1.804764	0.204750	0.056465
O13	O	1.172389	-0.381570	-0.222409
O14	O	1.672389	0.118430	0.277591
O15	O	1.085056	-0.181391	-0.340995
O16	O	1.585056	0.318609	0.159005
O17	O	1.300551	-0.381548	-0.350560
O18	O	1.800551	0.118452	0.149440
O19	O	1.182163	-0.181375	-0.438093
O20	O	1.682163	0.318625	0.061907
O21	O	1.079495	-0.295288	-0.218285
O22	O	1.579495	0.204712	0.281715
O23	O	0.951377	-0.295237	-0.346412
O24	O	1.451377	0.204763	0.153588
O25	O	1.075360	-0.381459	-0.575767
O26	O	1.575360	0.118541	-0.075767
O27	O	0.947198	-0.381480	-0.447615
O28	O	1.447198	0.118520	0.052385
O29	O	1.176646	-0.295199	-0.571662
O30	O	1.676646	0.204801	-0.071662
O31	O	1.166873	-0.495394	-0.355978
O32	O	1.666873	0.004606	0.144022
O33	O	1.069800	-0.495356	-0.453058
O34	O	1.569800	0.004644	0.046942
C35	C	0.920608	-0.338356	-0.397012
C36	C	1.420608	0.161644	0.102988
C37	C	0.832751	-0.338363	-0.397023
C38	C	1.332751	0.161637	0.102977
C39	C	1.117118	-0.520859	-0.405750
C40	C	1.617118	-0.020859	0.094250
C41	C	1.113402	-0.598924	-0.409507
C42	C	1.613402	-0.098924	0.090493
C43	C	0.463428	-0.293435	-0.344438
C44	C	0.963428	0.206565	0.155562
C45	C	0.459118	-0.383380	-0.449672
C46	C	0.959118	0.116620	0.050328
C47	C	0.541664	-0.383370	-0.449666
C48	C	1.041664	0.116630	0.050334
C49	C	0.585096	-0.338393	-0.397045
C50	C	1.085096	0.161607	0.102955
C51	C	0.545982	-0.293425	-0.344430
C52	C	1.045982	0.206575	0.155570
C53	C	0.580784	-0.428342	-0.502276
C54	C	1.080784	0.071658	-0.002276
C55	C	0.663336	-0.428334	-0.502272
C56	C	1.163336	0.071666	-0.002272
C57	C	0.706770	-0.383353	-0.449654
C58	C	1.206770	0.116647	0.050346
C59	C	0.667650	-0.338383	-0.397037
C60	C	1.167650	0.161617	0.102963
C61	C	0.711082	-0.293405	-0.344416
C62	C	1.211082	0.206595	0.155584
C63	C	0.671965	-0.248431	-0.291802
C64	C	1.171965	0.251569	0.208198
C65	C	0.589416	-0.248444	-0.291812
C66	C	1.089416	0.251556	0.208188
C67	C	0.789319	-0.383340	-0.449644
C68	C	1.289319	0.116660	0.050356
C69	C	0.793636	-0.293395	-0.344407
C70	C	1.293636	0.206605	0.155593
C71	C	1.162236	-0.635597	-0.360769
C72	C	1.662236	-0.135597	0.139231
C73	C	1.158746	-0.708948	-0.364307
C74	C	1.658746	-0.208948	0.135693
C75	C	1.106417	-0.745625	-0.416579
C76	C	1.606417	-0.245625	0.083421
C77	C	1.057581	-0.708948	-0.465322
C78	C	1.557581	-0.208948	0.034678
C79	C	1.061076	-0.635598	-0.461787
C80	C	1.561076	-0.135598	0.038213
C81	C	1.093339	-0.967094	-0.429780
C82	C	1.593339	-0.467094	0.070220
C83	C	1.089847	-1.040449	-0.433309
C84	C	1.589847	-0.540449	0.066691
C85	C	1.191013	-1.040443	-0.332295
C86	C	1.691013	-0.540443	0.167705
C87	C	1.194500	-0.967092	-0.328762
C88	C	1.694500	-0.467092	0.171238
C89	C	1.145667	-0.930421	-0.377508
C90	C	1.645667	-0.430421	0.122492
C91	C	1.102847	-0.820602	-0.420195
C92	C	1.602847	-0.320602	0.079805
C93	C	1.149242	-0.855446	-0.373896
C94	C	1.649242	-0.355446	0.126104
C95	C	1.332140	-0.338403	-0.397051
C96	C	1.832140	0.161597	0.102949
C97	C	1.419996	-0.338413	-0.397059
C98	C	1.919996	0.161587	0.102941
C99	C	1.126008	-0.338321	-0.603196
C100	C	1.626008	0.161679	-0.103196
C101	C	1.126024	-0.338296	-0.691052
C102	C	1.626024	0.161704	-0.191052
C103	C	1.134884	-0.155186	-0.388295
C104	C	1.634884	0.344814	0.111705
C105	C	1.138681	-0.077121	-0.384572
C106	C	1.638681	0.422879	0.115428
C107	C	1.073386	-0.383133	-1.064664
C108	C	1.573386	0.116867	-0.564664
C109	C	1.178857	-0.293311	-1.060384
C110	C	1.678857	0.206689	-0.560384
C111	C	1.178835	-0.293326	-0.977839
C112	C	1.678835	0.206674	-0.477839
C113	C	1.126089	-0.338246	-0.938703
C114	C	1.626089	0.161754	-0.438703
C115	C	1.073365	-0.383151	-0.982111
C116	C	1.573365	0.116849	-0.482111
C117	C	1.231564	-0.248426	-0.934425
C118	C	1.731564	0.251574	-0.434425
C119	C	1.231545	-0.248440	-0.851875
C120	C	1.731545	0.251560	-0.351875
C121	C	1.178794	-0.293357	-0.812736
C122	C	1.678794	0.206643	-0.312736
C123	C	1.126067	-0.338263	-0.856150
C124	C	1.626067	0.161737	-0.356150
C125	C	1.073321	-0.383183	-0.817013
C126	C	1.573321	0.116817	-0.317013
C127	C	1.020590	-0.428087	-0.860425
C128	C	1.520590	0.071913	-0.360425
C129	C	1.020614	-0.428068	-0.942973
C130	C	1.520614	0.071932	-0.442973
C131	C	1.178770	-0.293376	-0.730189
C132	C	1.678770	0.206624	-0.230189
C133	C	1.073299	-0.383201	-0.734460
C134	C	1.573299	0.116799	-0.234460
C135	C	1.125985	-0.338386	-0.191665
C136	C	1.625985	0.161614	0.308335
C137	C	1.126133	-0.338213	-0.103800
C138	C	1.626133	0.161787	0.396200
H139	H	0.707338	-0.211814	-0.248954
H140	H	1.207338	0.288186	0.251046
C141	C	1.278320	-0.208556	-0.723437
C142	C	1.778320	0.291444	-0.223437
C143	C	1.289485	-0.199065	-0.804158
C144	C	1.789485	0.300935	-0.304158
H145	H	1.314088	-0.178071	-0.693980
H146	H	1.814088	0.321929	-0.193980
H147	H	1.225708	-0.198287	-0.709437
H148	H	1.725708	0.301713	-0.209437
H149	H	1.287608	-0.255747	-0.712151
H150	H	1.787608	0.244253	-0.212151
H151	H	1.280192	-0.151876	-0.815446
H152	H	1.780192	0.348124	-0.315446
H153	H	1.342110	-0.209330	-0.818164
H154	H	1.842110	0.290670	-0.318164
C155	C	1.314371	-0.259111	-1.084168
C156	C	1.814371	0.240889	-0.584168
C157	C	1.236836	-0.243938	-1.103400
C158	C	1.736836	0.256062	-0.603400
H159	H	1.350165	-0.228630	-1.110730
H160	H	1.850165	0.271370	-0.610730
H161	H	1.321896	-0.252690	-1.028799
H162	H	1.821896	0.247310	-0.528799
H163	H	1.323639	-0.306301	-1.099945
H164	H	1.823639	0.193699	-0.599945
H165	H	1.227567	-0.196749	-1.087618
H166	H	1.727567	0.303251	-0.587618
H167	H	1.229307	-0.250352	-1.158781
H168	H	1.729307	0.249648	-0.658781
C169	C	0.464789	-0.208518	-0.245107
C170	C	0.964789	0.291482	0.254893
C171	C	0.546416	-0.199009	-0.233986
C172	C	1.046416	0.300991	0.266014
H173	H	0.438243	-0.178000	-0.209406
H174	H	0.938243	0.322000	0.290594
H175	H	0.451781	-0.198305	-0.297744
H176	H	0.951781	0.301695	0.202256
H177	H	0.448984	-0.255698	-0.235699
H178	H	0.948984	0.244302	0.264301
H179	H	0.562223	-0.151830	-0.243400
H180	H	1.062223	0.348170	0.256600
H181	H	0.559430	-0.209217	-0.181337
H182	H	1.059430	0.290783	0.318663
H183	H	0.431575	-0.256817	-0.301603
H184	H	0.931575	0.243183	0.198397
H185	H	1.030340	-0.419775	-0.702601
H186	H	1.530340	0.080225	-0.202601
H187	H	0.828993	-0.256764	-0.301561
H188	H	1.328993	0.243236	0.198439
H189	H	1.204845	-0.605739	-0.318201
H190	H	1.704845	-0.105739	0.181799
H191	H	1.021311	-0.605740	-0.501476
H192	H	1.521311	-0.105740	-0.001476
C193	C	0.990942	-0.884672	-0.436690
C194	C	1.490942	-0.384672	0.063310
C195	C	1.039659	-0.926785	-0.483351
C196	C	1.539659	-0.426785	0.016649
H197	H	0.957804	-0.859781	-0.469765
H198	H	1.457804	-0.359781	0.030235
H199	H	0.959367	-0.913330	-0.403612
H200	H	1.459367	-0.413330	0.096388
H201	H	1.022619	-0.852336	-0.405059
H202	H	1.522619	-0.352336	0.094941
H203	H	1.007981	-0.959125	-0.514979
H204	H	1.507981	-0.459125	-0.014979
H205	H	1.071237	-0.898124	-0.516443
H206	H	1.571237	-0.398124	-0.016443
C207	C	1.029098	-0.502053	-1.095733
C208	C	1.529098	-0.002053	-0.595733
C209	C	1.015426	-0.432491	-1.112376
C210	C	1.515426	0.067509	-0.612376
H211	H	0.993311	-0.532523	-1.125186
H212	H	1.493311	-0.032523	-0.625186
H213	H	1.081702	-0.512330	-1.109759
H214	H	1.581702	-0.012330	-0.609759
H215	H	1.021539	-0.508482	-1.040967
H216	H	1.521539	-0.008482	-0.540967
H217	H	1.022990	-0.426060	-1.167141
H218	H	1.522990	0.073940	-0.667141
H219	H	0.962809	-0.422210	-1.098355
H220	H	1.462809	0.077790	-0.598355
H221	H	1.237110	-0.937231	-0.286199
H222	H	1.737110	-0.437231	0.213801
H223	H	0.423750	-0.420003	-0.492509
H224	H	0.923750	0.079997	0.007491
H225	H	1.014977	-0.738816	-0.507886
H226	H	1.514977	-0.238816	-0.007886
C227	C	1.291361	-1.033069	-0.232094
C228	C	1.791361	-0.533069	0.267906
C229	C	1.244694	-1.080753	-0.278721
C230	C	1.744694	-0.580753	0.221279
H231	H	1.324500	-1.057956	-0.199017
H232	H	1.824500	-0.557956	0.300983
H233	H	1.322936	-1.004419	-0.265181
H234	H	1.822936	-0.504419	0.234819
H235	H	1.258294	-1.004503	-0.200454
H236	H	1.758294	-0.504503	0.299546
H237	H	1.277761	-1.109316	-0.310366
H238	H	1.777761	-0.609316	0.189634
H239	H	1.213117	-1.109416	-0.245630
H240	H	1.713117	-0.609416	0.254370
C241	C	0.452328	-0.468284	-0.549013
C242	C	0.952328	0.031716	-0.049013
C243	C	0.533044	-0.477779	-0.560113
C244	C	1.033044	0.022221	-0.060113
H245	H	0.422855	-0.498803	-0.584726
H246	H	0.922855	0.001197	-0.084726
H247	H	0.438291	-0.478506	-0.496381
H248	H	0.938291	0.021494	0.003619
H249	H	0.441098	-0.421105	-0.558418
H250	H	0.941098	0.078895	-0.058418
H251	H	0.544276	-0.524956	-0.550703
H252	H	1.044276	-0.024956	-0.050703
H253	H	0.547086	-0.467562	-0.612757
H254	H	1.047086	0.032438	-0.112757
H255	H	1.191851	-0.825581	-0.331339
H256	H	1.691851	-0.325581	0.168661
C257	C	0.973736	-0.467992	-0.735779
C258	C	1.473736	0.032008	-0.235779
C259	C	0.962611	-0.477462	-0.817400
C260	C	1.462611	0.022538	-0.317400
H261	H	0.937939	-0.498471	-0.709216
H262	H	1.437939	0.001529	-0.209216
H263	H	1.026335	-0.478284	-0.722752
H264	H	1.526335	0.021716	-0.222752
H265	H	0.964462	-0.420801	-0.720013
H266	H	1.464462	0.079199	-0.220013
H267	H	0.971890	-0.524653	-0.833167
H268	H	1.471890	-0.024653	-0.333167
H269	H	0.909999	-0.467176	-0.830432
H270	H	1.409999	0.032824	-0.330432
H271	H	0.695178	-0.464954	-0.545114
H272	H	1.195178	0.035046	-0.045114
H273	H	1.060239	-0.850473	-0.462753
H274	H	1.560239	-0.350473	0.037247
H275	H	1.047244	-1.070309	-0.475889
H276	H	1.547244	-0.570309	0.024111
C277	C	0.976332	-0.546988	-0.974048
C278	C	1.476332	-0.046988	-0.474048
C279	C	0.962661	-0.477427	-0.990692
C280	C	1.462661	0.022573	-0.490692
H281	H	0.940552	-0.577459	-1.003508
H282	H	1.440552	-0.077459	-0.503508
H283	H	1.028939	-0.557263	-0.988065
H284	H	1.528939	-0.057263	-0.488065
H285	H	0.968763	-0.553419	-0.919284
H286	H	1.468763	-0.053419	-0.419284
H287	H	0.970235	-0.470994	-1.045456
H288	H	1.470235	0.029006	-0.545456
H289	H	0.910041	-0.467148	-0.976681
H290	H	1.410041	0.032852	-0.476681
H291	H	0.821164	-0.419959	-0.492479
H292	H	1.321164	0.080041	0.007521
H293	H	1.221705	-0.256818	-0.694846
H294	H	1.721705	0.243182	-0.194846
H295	H	1.198512	-0.738803	-0.324619
H296	H	1.698512	-0.238803	0.175381
C297	C	1.275866	-0.129500	-0.954184
C298	C	1.775866	0.370500	-0.454184
C299	C	1.289540	-0.199055	-0.977446
C300	C	1.789540	0.300945	-0.477446
H301	H	1.311663	-0.099021	-0.980744
H302	H	1.811663	0.400979	-0.480744
H303	H	1.223267	-0.119216	-0.967221
H304	H	1.723267	0.380784	-0.467221
H305	H	1.283408	-0.123091	-0.898808
H306	H	1.783408	0.376909	-0.398808
H307	H	1.281993	-0.205466	-1.032821
H308	H	1.781993	0.294534	-0.532821
H309	H	1.342152	-0.209343	-0.964415
H310	H	1.842152	0.290657	-0.464415
