data_functionalizedCrystal
_audit_creation_method	'MofGen! by Chris Wilmer'
_symmetry_space_group_name_H-M	'P1'
_symmetry_Int_Tables_number	1
_symmetry_cell_setting	triclinic
loop_
_symmetry_equiv_pos_as_xyz
  x,y,z
_cell_length_a	14.971486
_cell_length_b	17.038272
_cell_length_c	14.048226
_cell_angle_alpha	89.993466
_cell_angle_beta	89.998499
_cell_angle_gamma	87.362843
loop_
_atom_site_label
_atom_site_type_symbol
_atom_site_fract_x
_atom_site_fract_y
_atom_site_fract_z
O1	O	1.194576	0.101897	-0.079052
O2	O	0.935090	0.114100	-0.079077
O3	O	1.063291	-0.005819	-0.079057
O4	O	1.066375	0.221816	-0.079072
O5	O	1.063274	-0.005826	0.079264
O6	O	0.935073	0.114093	0.079244
O7	O	1.194559	0.101890	0.079270
Zn8	Zn	1.064813	0.107990	0.104394
Zn9	Zn	1.064836	0.108000	-0.104201
O10	O	1.066358	0.221809	0.079249
C11	C	0.901716	0.113551	0.000080
C12	C	0.802296	0.111915	0.000070
C13	C	0.750345	0.182364	0.000067
C14	C	0.656930	0.180823	0.000081
C15	C	0.615468	0.108832	0.000092
C16	C	0.667426	0.038378	0.000098
C17	C	0.760839	0.039920	0.000091
C18	C	0.472723	0.035169	0.000111
C19	C	0.379303	0.033626	0.000117
C20	C	0.368815	0.176072	0.000102
C21	C	0.462228	0.177614	0.000095
C22	C	0.514179	0.107159	0.000099
C23	C	1.060477	-0.034954	0.000103
C24	C	1.052107	-0.121756	0.000102
C25	C	1.128951	-0.171781	0.000111
C26	C	1.121081	-0.253341	0.000101
C27	C	1.036367	-0.284874	0.000089
C28	C	0.959518	-0.234843	0.000078
C29	C	0.967388	-0.153285	0.000081
C30	C	1.008563	-0.530664	0.000073
C31	C	1.000698	-0.612229	0.000073
C32	C	1.162262	-0.630721	0.000095
C33	C	1.170125	-0.549161	0.000103
C34	C	1.093276	-0.499137	0.000087
C35	C	1.028321	-0.368241	0.000082
C36	C	1.101323	-0.415771	0.000087
C37	C	1.227933	0.102440	0.000110
C38	C	1.327353	0.104075	0.000114
C39	C	1.069172	0.250944	0.000087
C40	C	1.077542	0.337746	0.000082
N41	N	1.064804	0.107984	0.246754
N42	N	1.064851	0.108000	-0.246562
C43	C	1.121592	0.054906	0.296581
C44	C	1.121599	0.054905	0.396239
C45	C	1.064820	0.107987	0.446068
C46	C	1.008026	0.161067	0.396234
C47	C	1.008016	0.161064	0.296578
C48	C	1.008052	0.161073	0.603948
C49	C	1.008063	0.161078	0.703611
C50	C	1.121635	0.054915	0.703609
C51	C	1.121625	0.054911	0.603953
C52	C	1.064831	0.107993	0.554126
H53	H	0.515019	-0.022203	0.000116
C54	C	1.221008	-0.137700	0.000072
C55	C	1.286619	-0.198971	0.000049
C56	C	1.371434	-0.167608	-0.000005
H57	H	1.227562	-0.106286	0.055267
H58	H	1.227487	-0.106286	-0.055161
H59	H	1.280143	-0.230371	0.055275
H60	H	1.280095	-0.230390	-0.055143
H61	H	1.377913	-0.136195	-0.055237
H62	H	1.377979	-0.136194	0.055191
H63	H	1.415961	-0.209175	-0.000030
C64	C	0.622362	-0.039762	-0.000087
C65	C	0.569058	-0.044813	-0.081549
C66	C	0.527543	-0.116789	-0.081761
H67	H	0.586073	-0.043404	0.055060
H68	H	0.666656	-0.081522	-0.000136
H69	H	0.524769	-0.003064	-0.081491
H70	H	0.605326	-0.041185	-0.136709
H71	H	0.571837	-0.158550	-0.081810
H72	H	0.491258	-0.120425	-0.026611
H73	H	0.491378	-0.120229	-0.137036
C74	C	0.312570	0.252652	0.000057
C75	C	0.368875	0.316028	0.000015
C76	C	0.317091	0.386582	-0.000044
H77	H	0.275905	0.255123	0.055256
H78	H	0.275922	0.255055	-0.055171
H79	H	0.405507	0.313626	0.055237
H80	H	0.405540	0.313582	-0.055181
H81	H	0.280443	0.388985	-0.055271
H82	H	0.280428	0.389045	0.055157
H83	H	0.355286	0.429590	-0.000081
C84	C	1.204485	-0.307688	-0.000087
C85	C	1.204715	-0.355023	-0.081558
C86	C	1.281543	-0.405088	-0.081773
H87	H	1.204850	-0.339972	0.055054
H88	H	1.256085	-0.277251	-0.000127
H89	H	1.153128	-0.385457	-0.081509
H90	H	1.204363	-0.322760	-0.136712
H91	H	1.333143	-0.374651	-0.081814
H92	H	1.281901	-0.437366	-0.026628
H93	H	1.281713	-0.437205	-0.137054
H94	H	1.167839	0.011685	0.436808
H95	H	0.803137	-0.017447	0.000093
C96	C	1.183308	-0.002621	0.242411
C97	C	1.241246	0.039077	0.185170
C98	C	1.298098	-0.013902	0.135255
H99	H	1.148713	-0.035218	0.203486
H100	H	1.217182	-0.034242	0.286312
H101	H	1.207376	0.070684	0.141274
H102	H	1.275861	0.071670	0.224071
H103	H	1.331971	-0.045523	0.179157
H104	H	1.263495	-0.046496	0.096336
H105	H	1.337421	0.014382	0.096419
H106	H	1.239108	-0.523493	0.000113
H107	H	0.961772	0.204284	0.256010
C108	C	1.183447	-0.002627	0.757655
C109	C	1.272308	0.010203	0.733420
C110	C	1.329276	-0.042775	0.783204
H111	H	1.169890	-0.054863	0.741377
H112	H	1.175379	0.004980	0.824152
H113	H	1.280371	0.002590	0.666939
H114	H	1.285893	0.062429	0.749701
H115	H	1.321209	-0.035168	0.849700
H116	H	1.315711	-0.095008	0.766921
H117	H	1.389575	-0.034072	0.766774
C118	C	0.925156	-0.476325	-0.000134
C119	C	0.924944	-0.428971	-0.081601
C120	C	0.848114	-0.378909	-0.081830
H121	H	0.924775	-0.444054	0.055010
H122	H	0.873558	-0.506764	-0.000189
H123	H	0.976529	-0.398534	-0.081536
H124	H	0.925311	-0.461220	-0.136758
H125	H	0.796515	-0.409348	-0.081886
H126	H	0.847740	-0.346643	-0.026683
H127	H	0.847956	-0.346778	-0.137108
C128	C	1.182999	-0.002946	0.549860
C129	C	1.131536	-0.050850	0.492802
C130	C	1.187985	-0.104237	0.443006
H131	H	1.216729	-0.034625	0.593802
H132	H	1.222463	0.025017	0.510826
H133	H	1.092087	-0.078810	0.531832
H134	H	1.097807	-0.019193	0.448841
H135	H	1.227450	-0.076274	0.403973
H136	H	1.221713	-0.135910	0.486956
H137	H	1.153077	-0.136740	0.404281
H138	H	1.224829	-0.671459	0.000106
H139	H	0.904813	-0.112555	0.000073
C140	C	0.908637	-0.646315	0.000000
C141	C	0.843019	-0.585051	-0.000043
C142	C	0.758208	-0.616422	-0.000124
H143	H	0.902070	-0.677740	0.055193
H144	H	0.902180	-0.677720	-0.055234
H145	H	0.849473	-0.553659	0.055186
H146	H	0.849557	-0.553621	-0.055232
H147	H	0.751751	-0.647827	-0.055358
H148	H	0.751650	-0.647847	0.055070
H149	H	0.713676	-0.574859	-0.000162
H150	H	0.961827	0.204302	0.744176
C151	C	0.946360	0.218794	0.550020
C152	C	0.896658	0.265299	0.614985
C153	C	0.839833	0.318489	0.565341
H154	H	0.906902	0.190706	0.511150
H155	H	0.980994	0.251431	0.511155
H156	H	0.862027	0.232667	0.653833
H157	H	0.936092	0.293405	0.653857
H158	H	0.874467	0.351125	0.526476
H159	H	0.800381	0.290394	0.526473
H160	H	0.806109	0.350053	0.609412
H161	H	0.784097	0.240987	0.000058
C162	C	0.507287	0.255755	-0.000131
C163	C	0.560579	0.260802	-0.081608
C164	C	0.602087	0.332781	-0.081860
H165	H	0.543584	0.259404	0.055006
H166	H	0.462990	0.297513	-0.000187
H167	H	0.604870	0.219056	-0.081543
H168	H	0.524303	0.257168	-0.136759
H169	H	0.557790	0.374539	-0.081916
H170	H	0.638380	0.336424	-0.026719
H171	H	0.638244	0.336219	-0.137145
H172	H	0.614636	0.238189	0.000078
H173	H	1.170296	-0.390093	0.000076
H174	H	0.959346	-0.393925	0.000075
H175	H	0.345548	-0.024995	0.000127
H176	H	0.890541	-0.260524	0.000062
H177	H	0.961791	0.204285	0.436810
