data_functionalizedCrystal
_audit_creation_method	'MofGen! by Chris Wilmer'
_symmetry_space_group_name_H-M	'P1'
_symmetry_Int_Tables_number	1
_symmetry_cell_setting	triclinic
loop_
_symmetry_equiv_pos_as_xyz
  x,y,z
_cell_length_a	14.395555
_cell_length_b	17.052862
_cell_length_c	17.052862
_cell_angle_alpha	61.493325
_cell_angle_beta	90.001611
_cell_angle_gamma	70.264223
loop_
_atom_site_label
_atom_site_type_symbol
_atom_site_fract_x
_atom_site_fract_y
_atom_site_fract_z
Zr1	Zr	1.076622	0.816657	-0.200418
O2	O	0.974034	0.944554	-0.328549
O3	O	1.085483	0.665935	-0.146226
O4	O	1.135261	0.783737	-0.307037
O5	O	0.910684	0.860680	-0.057852
O6	O	1.288134	0.783733	-0.307030
O7	O	0.924256	0.826752	-0.167739
O8	O	1.199090	0.573007	-0.019369
O9	O	0.999727	1.071405	-0.345513
O10	O	1.230639	0.736380	-0.141126
O11	O	1.106423	0.761703	-0.059123
O12	O	1.165030	0.900399	-0.248457
O13	O	1.040814	0.925721	-0.166454
Zr14	Zr	1.298789	0.870761	-0.025150
Zr15	Zr	1.320435	0.816651	-0.200407
Zr16	Zr	1.054975	0.870767	-0.025160
Zr17	Zr	1.117599	1.018970	-0.227472
Zr18	Zr	1.257811	0.668448	0.001905
O19	O	1.289927	1.021483	-0.079341
O20	O	1.320705	0.944545	-0.328534
O21	O	0.943255	1.021492	-0.079356
O22	O	1.401376	0.742864	0.102982
O23	O	1.432155	0.665926	-0.146211
O24	O	1.054705	0.742873	0.102967
O25	O	1.464727	0.826738	-0.167715
O26	O	1.240149	0.903681	0.081470
O27	O	1.087277	0.903685	0.081463
O28	O	1.451154	0.860666	-0.057828
O29	O	1.193526	1.071400	-0.345504
O30	O	1.181884	0.616018	0.119937
O31	O	1.375683	0.616013	0.119945
O32	O	1.392889	0.573002	-0.019361
O33	O	0.982521	1.114416	-0.206206
O34	O	1.176320	1.114411	-0.206198
O35	O	1.210381	0.787019	0.022890
O36	O	1.334596	0.761697	-0.059113
O37	O	1.268988	0.925716	-0.166444
O38	O	1.144772	0.951038	-0.084442
C39	C	1.136448	0.590646	-0.078943
C40	C	1.119052	0.504759	-0.067458
C41	C	0.882732	0.843717	-0.112797
C42	C	0.779226	0.843720	-0.112801
C43	C	1.329372	0.209789	-0.206314
C44	C	1.345715	0.290488	-0.217111
C45	C	1.289051	0.344059	-0.179698
C46	C	1.216041	0.316925	-0.131487
C47	C	1.199691	0.236223	-0.120695
C48	C	1.159370	0.370493	-0.094080
C49	C	1.086360	0.343359	-0.045869
C50	C	1.070013	0.262665	-0.035079
C51	C	1.126677	0.209093	-0.072491
C52	C	1.175720	0.451195	-0.104872
C53	C	1.046039	0.477629	-0.019253
C54	C	1.029696	0.396930	-0.008457
C55	C	0.682864	0.933152	-0.171316
C56	C	0.645577	0.871540	-0.196816
C57	C	0.632090	0.905325	-0.087306
C58	C	0.743309	0.782093	-0.138346
C59	C	0.729815	0.815907	-0.028796
C60	C	0.692585	0.754225	-0.054267
C61	C	1.492679	0.843701	-0.112770
C62	C	1.596184	0.843699	-0.112766
C63	C	1.214782	0.776026	-0.332004
C64	C	1.223971	0.753055	-0.406405
C65	C	1.238962	1.096772	-0.146624
C66	C	1.256358	1.182659	-0.158109
C67	C	1.112871	1.030776	-0.840239
C68	C	1.104231	1.052361	-0.770337
C69	C	1.134166	0.977537	-0.679351
C70	C	1.172741	0.881122	-0.658273
C71	C	1.181375	0.859535	-0.728182
C72	C	1.202669	0.806296	-0.567294
C73	C	1.241245	0.709881	-0.546216
C74	C	1.249877	0.688298	-0.616119
C75	C	1.219943	0.763122	-0.707104
C76	C	1.194036	0.827883	-0.497385
C77	C	1.262539	0.656642	-0.385328
C78	C	1.271179	0.635057	-0.455230
C79	C	1.160629	0.911392	0.106437
C80	C	1.151439	0.934363	0.180838
C81	C	1.441422	0.590638	-0.078930
C82	C	1.527531	0.504748	-0.067440
C83	C	1.109372	0.658329	0.140277
C84	C	1.082786	0.595413	0.226164
C85	C	1.414345	0.658322	0.140291
C86	C	1.491265	0.595403	0.226182
C87	C	0.961065	1.029096	-0.365858
C88	C	0.884145	1.092015	-0.451749
C89	C	0.933989	1.096780	-0.146637
C90	C	0.847879	1.182670	-0.158127
C91	C	1.266039	1.029089	-0.365844
C92	C	1.292624	1.092005	-0.451731
C93	C	1.513705	0.451196	-0.104862
C94	C	1.594608	0.370500	-0.094084
C95	C	1.689336	0.343353	-0.045879
C96	C	1.703161	0.396913	-0.008457
C97	C	1.622260	0.477612	-0.019241
C98	C	1.124565	0.579085	0.309314
C99	C	1.099582	0.519981	0.390019
C100	C	1.032826	0.477203	0.387572
C101	C	0.991042	0.493537	0.304413
C102	C	1.016019	0.552644	0.223709
C103	C	1.592237	0.552637	0.223712
C104	C	1.664523	0.493528	0.304408
C105	C	1.635835	0.477179	0.387572
C106	C	1.534853	0.519952	0.390039
C107	C	1.462570	0.579066	0.309344
C108	C	0.783176	1.134790	-0.449281
C109	C	0.710894	1.193925	-0.529980
C110	C	0.739583	1.210278	-0.613145
C111	C	0.840564	1.167500	-0.615610
C112	C	0.912844	1.108372	-0.534913
C113	C	0.861708	1.236228	-0.120714
C114	C	0.780812	1.316941	-0.131514
C115	C	0.686085	1.344090	-0.179722
C116	C	0.672258	1.290527	-0.217140
C117	C	0.753156	1.209819	-0.206345
C118	C	1.359384	1.134766	-0.449254
C119	C	1.384383	1.193874	-0.529946
C120	C	1.342616	1.210225	-0.613113
C121	C	1.275853	1.167456	-0.615587
C122	C	1.250860	1.108344	-0.534896
H123	H	1.235165	0.473280	-0.144126
H124	H	0.766450	0.792436	0.042212
H125	H	1.583332	0.326899	-0.124559
Cl126	Cl	0.678108	1.049877	-0.247798
Cl127	Cl	1.791030	0.241897	-0.032328
H128	H	0.608949	0.895044	-0.267843
H129	H	1.438744	1.228693	-0.527914
Cl130	Cl	1.123308	1.004675	-0.591475
Cl131	Cl	1.039776	1.054595	-0.538031
Cl132	Cl	0.817278	0.701709	-0.171768
H133	H	0.595122	1.312644	-0.256391
H134	H	1.362975	1.258360	-0.678811
H135	H	0.695876	0.678533	-0.004770
H136	H	1.302362	0.409766	-0.188492
H137	H	1.405158	0.312578	-0.256364
Cl138	Cl	0.798214	1.384258	-0.084463
Cl139	Cl	0.557909	0.985772	-0.054037
H140	H	1.241851	1.180778	-0.683313
Cl141	Cl	0.747083	1.114246	-0.344741
H142	H	0.938831	1.214133	-0.081453
Cl143	Cl	1.628329	0.573183	0.119172
H144	H	1.375496	0.166172	-0.236776
H145	H	1.162625	0.906385	-0.514557
Cl146	Cl	1.055704	1.173562	-0.796838
Cl147	Cl	0.735751	1.142492	-0.253378
Cl148	Cl	1.106135	0.107636	-0.058912
Cl149	Cl	1.298354	0.567091	-0.589618
H150	H	1.088497	1.091687	-0.914320
Cl151	Cl	0.648703	1.284612	-0.714586
Cl152	Cl	1.411907	1.114224	-0.344711
Cl153	Cl	1.230803	0.735990	-0.794988
Cl154	Cl	1.498804	0.499388	0.494597
Cl155	Cl	1.319668	0.513855	-0.428744
Cl156	Cl	1.300168	0.562572	-0.270949
Cl157	Cl	0.583955	1.247688	-0.526858
Cl158	Cl	1.166919	1.054602	-0.538026
H159	H	0.620221	1.409809	-0.188505
Cl160	Cl	0.876614	1.188063	-0.720168
H161	H	1.436583	0.473294	-0.144125
H162	H	1.380354	0.613879	0.311367
H163	H	0.970250	0.374827	0.030796
H164	H	1.780299	0.374798	0.030791
H165	H	1.010556	0.240582	0.004170
H166	H	0.936686	0.458698	0.302434
Cl167	Cl	0.974795	0.544974	0.027777
H168	H	1.178922	0.613911	0.311323
Cl169	Cl	1.639657	0.544921	0.027818
Cl170	Cl	1.791462	0.439762	0.301287
H171	H	1.133616	0.506691	0.457722
Cl172	Cl	1.001437	0.402896	0.489038
H173	H	1.694703	0.429042	0.453273
Cl174	Cl	0.963493	0.573157	0.119182
