data_functionalizedCrystal
_audit_creation_method	'MofGen! by Chris Wilmer'
_symmetry_space_group_name_H-M	'P1'
_symmetry_Int_Tables_number	1
_symmetry_cell_setting	triclinic
loop_
_symmetry_equiv_pos_as_xyz
  x,y,z
_cell_length_a	9.065218
_cell_length_b	10.723024
_cell_length_c	8.140239
_cell_angle_alpha	90.001994
_cell_angle_beta	90.001551
_cell_angle_gamma	84.741877
loop_
_atom_site_label
_atom_site_type_symbol
_atom_site_fract_x
_atom_site_fract_y
_atom_site_fract_z
O1	O	1.959356	0.182984	0.136613
O2	O	1.529986	0.197993	0.136615
O3	O	1.754575	0.008952	0.136608
O4	O	1.734767	0.372024	0.136620
O5	O	1.754568	0.008951	-0.136619
O6	O	1.529979	0.197991	-0.136612
O7	O	1.959349	0.182982	-0.136614
Zn8	Zn	1.744663	0.190487	-0.179994
Zn9	Zn	1.744672	0.190488	0.179995
O10	O	1.734760	0.372023	-0.136607
C11	C	1.475004	0.196550	0.000002
C12	C	1.311186	0.192237	0.000003
C13	C	1.753130	-0.037554	-0.000004
C14	C	1.748817	-0.176126	0.000002
C15	C	1.874486	-0.250598	0.000004
C16	C	1.870031	-0.393819	0.000010
C17	C	2.014331	0.184425	0.000003
C18	C	2.178150	0.188738	0.000013
C19	C	1.736205	0.418529	0.000008
C20	C	1.740518	0.557101	0.000013
N21	N	1.744667	0.190485	-0.425676
N22	N	1.744680	0.190481	0.425677
H23	H	1.985373	-0.208325	-0.000007
O24	O	1.998522	-0.469976	-0.000058
C25	C	2.119807	-0.396524	-0.000017
H26	H	2.083476	-0.299771	-0.051748
H27	H	2.161540	-0.386823	0.131065
C28	C	2.289616	-0.578922	-0.043624
C29	C	2.244997	-0.460091	-0.107174
H30	H	2.366843	-0.618135	-0.109717
H31	H	2.207906	-0.628410	-0.043646
H32	H	2.324384	-0.570822	0.065610
H33	H	2.210213	-0.468194	-0.216398
H34	H	2.326705	-0.410606	-0.107173
O35	O	1.612119	-0.366622	-0.000277
C36	C	1.529379	-0.390250	-0.141757
H37	H	1.606761	-0.433940	-0.240665
H38	H	1.443201	-0.457396	-0.109757
C39	C	1.355838	-0.212678	-0.084443
C40	C	1.450882	-0.266329	-0.205928
H41	H	1.307411	-0.136239	-0.124024
H42	H	1.411578	-0.196761	0.010879
H43	H	1.284036	-0.268645	-0.057787
H44	H	1.522693	-0.210369	-0.232567
H45	H	1.395152	-0.282233	-0.301256
O46	O	1.616613	-0.226690	0.000226
C47	C	1.606339	-0.301190	0.141760
H48	H	1.722339	-0.332163	0.188938
H49	H	1.541567	-0.244478	0.240845
C50	C	1.383443	-0.379294	0.040840
C51	C	1.525917	-0.417346	0.098777
H52	H	1.333830	-0.450942	0.014331
H53	H	1.390361	-0.329099	-0.054511
H54	H	1.329485	-0.332033	0.123421
H55	H	1.579879	-0.464592	0.016190
H56	H	1.519007	-0.467551	0.194114
