data_functionalizedCrystal
_audit_creation_method	'MofGen! by Chris Wilmer'
_symmetry_space_group_name_H-M	'P1'
_symmetry_Int_Tables_number	1
_symmetry_cell_setting	triclinic
loop_
_symmetry_equiv_pos_as_xyz
  x,y,z
_cell_length_a	12.759401
_cell_length_b	19.805405
_cell_length_c	19.805383
_cell_angle_alpha	89.896967
_cell_angle_beta	89.936694
_cell_angle_gamma	90.027935
loop_
_atom_site_label
_atom_site_type_symbol
_atom_site_fract_x
_atom_site_fract_y
_atom_site_fract_z
Zn1	Zn	1.606620	-0.268959	-0.382663
Zn2	Zn	2.106620	0.231041	0.117337
Zn3	Zn	1.606346	-0.382293	-0.269471
Zn4	Zn	2.106346	0.117707	0.230529
Zn5	Zn	1.430789	-0.269126	-0.269493
Zn6	Zn	1.930789	0.230874	0.230507
Zn7	Zn	1.430875	-0.382114	-0.382623
Zn8	Zn	1.930875	0.117886	0.117377
O9	O	1.518658	-0.325623	-0.326063
O10	O	2.018658	0.174377	0.173937
O11	O	1.753605	-0.283997	-0.367655
O12	O	2.253605	0.216003	0.132345
O13	O	1.582907	-0.367426	-0.174757
O14	O	2.082907	0.132574	0.325243
O15	O	1.454193	-0.174387	-0.284531
O16	O	1.954193	0.325613	0.215469
O17	O	1.753403	-0.367264	-0.284494
O18	O	2.253403	0.132736	0.215506
O19	O	1.583375	-0.174264	-0.367676
O20	O	2.083375	0.325736	0.132324
O21	O	1.453926	-0.284283	-0.174773
O22	O	1.953926	0.215717	0.325227
O23	O	1.283780	-0.284110	-0.284492
O24	O	1.783780	0.215890	0.215508
O25	O	1.454339	-0.366959	-0.477346
O26	O	1.954339	0.133041	0.022654
O27	O	1.283843	-0.367121	-0.367609
O28	O	1.783843	0.132879	0.132391
O29	O	1.583458	-0.283824	-0.477375
O30	O	2.083458	0.216176	0.022625
O31	O	1.582990	-0.476986	-0.284455
O32	O	2.082990	0.023014	0.215545
O33	O	1.454073	-0.476855	-0.367588
O34	O	1.954073	0.023145	0.132412
C35	C	1.245690	-0.325615	-0.326049
C36	C	1.745690	0.174385	0.173951
C37	C	1.128914	-0.325627	-0.326059
C38	C	1.628914	0.174373	0.173941
C39	C	1.074112	-0.368918	-0.369270
C40	C	1.574112	0.131082	0.130730
C41	C	0.964388	-0.368920	-0.369284
C42	C	1.464388	0.131080	0.130716
C43	C	0.964277	-0.282341	-0.282870
C44	C	1.464277	0.217659	0.217130
C45	C	1.073999	-0.282335	-0.282860
C46	C	1.573999	0.217665	0.217140
C47	C	1.518539	-0.501479	-0.326030
C48	C	2.018539	-0.001479	0.173970
C49	C	1.518585	-0.576711	-0.326038
C50	C	2.018585	-0.076711	0.173962
C51	C	1.585777	-0.612101	-0.282797
C52	C	2.085777	-0.112101	0.217203
C53	C	1.585822	-0.682789	-0.282812
C54	C	2.085822	-0.182789	0.217188
C55	C	1.518668	-0.718087	-0.326065
C56	C	2.018668	-0.218087	0.173935
C57	C	1.451473	-0.682692	-0.369312
C58	C	1.951473	-0.182692	0.130688
C59	C	1.451434	-0.612005	-0.369300
C60	C	1.951434	-0.112005	0.130700
C61	C	1.451628	-0.967765	-0.369362
C62	C	1.951628	-0.467765	0.130638
C63	C	1.451669	-1.038457	-0.369369
C64	C	1.951669	-0.538457	0.130631
C65	C	1.586016	-1.038550	-0.282874
C66	C	2.086016	-0.538550	0.217126
C67	C	1.585977	-0.967863	-0.282862
C68	C	2.085977	-0.467863	0.217138
C69	C	1.518786	-0.932474	-0.326110
C70	C	2.018786	-0.432474	0.173890
C71	C	1.518740	-0.855825	-0.326095
C72	C	2.018740	-0.355825	0.173905
C73	C	1.518708	-0.794734	-0.326078
C74	C	2.018708	-0.294734	0.173922
C75	C	1.792691	-0.325632	-0.326076
C76	C	2.292691	0.174368	0.173924
C77	C	1.909467	-0.325636	-0.326082
C78	C	2.409467	0.174364	0.173918
C79	C	1.518939	-0.325353	-0.502606
C80	C	2.018939	0.174647	-0.002606
C81	C	1.519059	-0.325238	-0.577838
C82	C	2.019059	0.174762	-0.077838
C83	C	1.518805	-0.149080	-0.326110
C84	C	2.018805	0.350920	0.173890
C85	C	1.518868	-0.073848	-0.326131
C86	C	2.018868	0.426152	0.173869
C87	C	1.518438	-0.325843	-0.150206
C88	C	2.018438	0.174157	0.349794
C89	C	1.518521	-0.325767	-0.074974
C90	C	2.018521	0.174233	0.425026
C91	C	1.451826	-0.369328	-0.039431
C92	C	1.951826	0.130672	0.460569
C93	C	1.451898	-0.369251	0.031257
C94	C	1.951898	0.130749	0.531257
C95	C	1.518671	-0.325616	0.066401
C96	C	2.018671	0.174384	0.566401
C97	C	1.585370	-0.282051	0.030853
C98	C	2.085370	0.217949	0.530853
C99	C	1.585291	-0.282125	-0.039834
C100	C	2.085291	0.217875	0.460166
C101	C	1.585685	-0.281750	0.315925
C102	C	2.085685	0.218250	0.815925
C103	C	1.585760	-0.281681	0.386617
C104	C	2.085760	0.218319	0.886617
C105	C	1.452292	-0.368876	0.387017
C106	C	1.952292	0.131124	0.887017
C107	C	1.452214	-0.368950	0.316330
C108	C	1.952214	0.131050	0.816330
C109	C	1.518907	-0.325382	0.280788
C110	C	2.018907	0.174618	0.780788
C111	C	1.518827	-0.325466	0.204140
C112	C	2.018827	0.174534	0.704140
C113	C	1.518758	-0.325536	0.143048
C114	C	2.018758	0.174464	0.643048
H115	H	1.118820	-0.404167	-0.404447
H116	H	1.618820	0.095833	0.095553
H117	H	0.919773	-0.404171	-0.404471
H118	H	1.419773	0.095829	0.095529
H119	H	1.397456	-0.404863	-0.068040
H120	H	1.897456	0.095137	0.431960
Br121	Br	1.360440	-0.919746	-0.428057
Br122	Br	1.860440	-0.419746	0.071943
Br123	Br	0.889743	-0.223590	-0.224245
Br124	Br	1.389743	0.276410	0.275755
Br125	Br	1.148380	-0.223573	-0.224219
Br126	Br	1.648380	0.276427	0.275781
Br127	Br	1.677116	-0.919963	-0.224157
Br128	Br	2.177116	-0.419963	0.275843
Br129	Br	1.675792	-0.222994	-0.088073
Br130	Br	2.175792	0.277006	0.411927
H131	H	1.640457	-0.583367	-0.247571
H132	H	2.140457	-0.083367	0.252429
Br133	Br	1.676389	-0.222459	0.434312
Br134	Br	2.176389	0.277541	0.934312
H135	H	1.640536	-0.711601	-0.247599
H136	H	2.140536	-0.211601	0.252401
Br137	Br	1.360247	-0.563974	-0.427992
Br138	Br	1.860247	-0.063974	0.072008
H139	H	1.397600	-0.404729	0.060194
H140	H	1.897600	0.095271	0.560194
Br141	Br	1.361598	-0.428176	0.268638
Br142	Br	1.861598	0.071824	0.768638
Br143	Br	1.677209	-1.086581	-0.224180
Br144	Br	2.177209	-0.586581	0.275820
H145	H	1.397983	-0.404348	0.415964
H146	H	1.897983	0.095652	0.915964
Br147	Br	1.676258	-0.222661	0.267699
Br148	Br	2.176258	0.277339	0.767699
H149	H	1.639733	-0.246520	0.059472
H150	H	2.139733	0.253480	0.559472
H151	H	1.396985	-1.067194	-0.404597
H152	H	1.896985	-0.567194	0.095403
H153	H	1.396799	-0.711436	-0.404533
H154	H	1.896799	-0.211436	0.095467
