data_functionalizedCrystal
_audit_creation_method	'MofGen! by Chris Wilmer'
_symmetry_space_group_name_H-M	'P1'
_symmetry_Int_Tables_number	1
_symmetry_cell_setting	triclinic
loop_
_symmetry_equiv_pos_as_xyz
  x,y,z
_cell_length_a	14.971487
_cell_length_b	14.971486
_cell_length_c	14.048226
_cell_angle_alpha	89.993360
_cell_angle_beta	89.999714
_cell_angle_gamma	83.614266
loop_
_atom_site_label
_atom_site_type_symbol
_atom_site_fract_x
_atom_site_fract_y
_atom_site_fract_z
O1	O	-1.186947	-0.116567	0.079025
O2	O	-0.926547	-0.130526	0.079057
O3	O	-1.063726	0.006654	0.079033
O4	O	-1.049767	-0.253747	0.079048
O5	O	-1.063709	0.006662	-0.079288
O6	O	-0.926530	-0.130518	-0.079265
O7	O	-1.186930	-0.116559	-0.079297
Zn8	Zn	-1.056727	-0.123537	-0.104418
Zn9	Zn	-1.056749	-0.123548	0.104178
O10	O	-1.049751	-0.253738	-0.079273
C11	C	-0.893214	-0.129897	-0.000100
C12	C	-0.793917	-0.128026	-0.000088
N13	N	-1.056719	-0.123529	-0.246778
C14	C	-0.736691	-0.208615	-0.000083
C15	C	-0.643392	-0.206852	-0.000096
C16	C	-0.607320	-0.124499	-0.000106
C17	C	-0.664552	-0.043903	-0.000113
C18	C	-0.757850	-0.045668	-0.000108
C19	C	-0.470090	-0.040232	-0.000122
C20	C	-0.376786	-0.038467	-0.000126
C21	C	-0.355632	-0.201416	-0.000110
C22	C	-0.448929	-0.203181	-0.000105
C23	C	-0.506156	-0.122585	-0.000110
C24	C	-1.063094	0.039982	-0.000127
C25	C	-1.061223	0.139279	-0.000126
C26	C	-0.220263	-0.117187	-0.000132
C27	C	-0.319560	-0.119056	-0.000121
C28	C	-1.050383	-0.287067	-0.000111
C29	C	-1.052254	-0.386364	-0.000105
C30	C	-1.141812	0.196504	-0.000137
C31	C	-1.140049	0.289804	-0.000127
C32	C	-1.057696	0.325876	-0.000113
C33	C	-0.977100	0.268644	-0.000100
C34	C	-0.978864	0.175346	-0.000103
C35	C	-0.973429	0.463107	-0.000096
C36	C	-0.971665	0.556411	-0.000095
C37	C	-1.134614	0.577564	-0.000120
C38	C	-1.136378	0.484266	-0.000123
C39	C	-1.055782	0.427040	-0.000111
C40	C	-1.117481	-0.062812	-0.296607
C41	C	-1.117487	-0.062811	-0.396264
C42	C	-1.056735	-0.123533	-0.446092
C43	C	-0.995966	-0.184254	-0.396256
C44	C	-0.995957	-0.184250	-0.296600
C45	C	-0.995992	-0.184261	-0.603970
C46	C	-0.996002	-0.184266	-0.703633
C47	C	-1.117523	-0.062822	-0.703634
C48	C	-1.117513	-0.062818	-0.603979
C49	C	-1.056745	-0.123540	-0.554150
N50	N	-1.056765	-0.123549	0.246538
H51	H	-0.596802	-0.272476	-0.000091
O52	O	-0.483823	-0.283255	-0.000135
C53	C	-0.413311	-0.354013	-0.000109
H54	H	-0.349905	-0.328875	-0.030088
H55	H	-0.400134	-0.378880	0.075847
C56	C	-0.517613	-0.462544	-0.025368
C57	C	-0.439738	-0.431672	-0.062196
H58	H	-0.533915	-0.510450	-0.063662
H59	H	-0.565119	-0.414874	-0.025382
H60	H	-0.506622	-0.483260	0.037928
H61	H	-0.450734	-0.410946	-0.125487
H62	H	-0.392234	-0.479340	-0.062194
H63	H	-0.347419	0.028592	-0.000135
O64	O	-0.936968	-0.243147	-0.248046
C65	C	-0.950000	-0.230137	-0.149404
H66	H	-0.983356	-0.159078	-0.135803
H67	H	-0.994906	-0.280839	-0.121107
C68	C	-0.817545	-0.330700	-0.114953
C69	C	-0.858507	-0.243422	-0.098248
H70	H	-0.761109	-0.338898	-0.083396
H71	H	-0.808767	-0.339469	-0.181410
H72	H	-0.854976	-0.372942	-0.091373
H73	H	-0.821081	-0.201182	-0.121839
H74	H	-0.867277	-0.234647	-0.031793
H75	H	-0.946496	-0.233692	-0.436831
H76	H	-0.907799	0.416515	-0.000084
H77	H	-1.166957	-0.013368	-0.256044
H78	H	-0.766053	-0.275677	-0.000075
O79	O	-0.525553	0.038141	-0.000080
C80	C	-0.473711	0.111208	-0.000108
H81	H	-0.404100	0.088577	0.029858
H82	H	-0.467050	0.136457	-0.076063
C83	C	-0.605610	0.215280	0.025183
C84	C	-0.520115	0.187486	0.061995
H85	H	-0.634235	0.262334	0.063487
H86	H	-0.640538	0.166054	0.025198
H87	H	-0.600047	0.236315	-0.038112
H88	H	-0.525679	0.166441	0.125284
H89	H	-0.485189	0.236710	0.061992
H90	H	-0.309033	-0.267040	-0.000110
O91	O	-0.897158	0.303789	0.000041
C92	C	-0.891262	0.357098	0.082049
H93	H	-0.961739	0.380256	0.109377
H94	H	-0.851742	0.315916	0.139471
C95	C	-0.756445	0.411232	0.023583
C96	C	-0.843006	0.439682	0.057142
H97	H	-0.726676	0.462173	0.008222
H98	H	-0.760415	0.375315	-0.031666
H99	H	-0.723523	0.376914	0.071440
H100	H	-0.875931	0.473991	0.009281
H101	H	-0.839041	0.475608	0.112383
H102	H	-0.635175	0.023150	-0.000135
H103	H	-0.804443	0.019956	-0.000111
O104	O	-1.218416	0.345264	-0.000186
C105	C	-1.291481	0.293420	-0.000183
H106	H	-1.268845	0.223816	-0.030154
H107	H	-1.316735	0.286740	0.075765
C108	C	-1.395555	0.425321	-0.025477
C109	C	-1.367756	0.339835	-0.062296
H110	H	-1.442608	0.453953	-0.063787
H111	H	-1.346331	0.460251	-0.025475
H112	H	-1.416595	0.419743	0.037812
H113	H	-1.346707	0.345415	-0.125579
H114	H	-1.416979	0.304907	-0.062309
O115	O	-1.176608	-0.003806	-0.444520
C116	C	-1.230221	0.049796	-0.379171
H117	H	-1.231248	0.013125	-0.308125
H118	H	-1.201127	0.116301	-0.368593
C119	C	-1.325434	0.113086	-0.505311
C120	C	-1.326702	0.068043	-0.418053
H121	H	-1.384948	0.124346	-0.529296
H122	H	-1.289313	0.076976	-0.549339
H123	H	-1.301186	0.168502	-0.496484
H124	H	-1.350940	0.012623	-0.426884
H125	H	-1.362830	0.104144	-0.374028
H126	H	-1.166987	-0.013377	-0.563409
O127	O	-1.176429	-0.003743	-0.752072
C128	C	-1.128486	0.051511	-0.809748
H129	H	-1.057945	0.053143	-0.779726
H130	H	-1.123835	0.023528	-0.885273
C131	C	-1.264328	0.145461	-0.848154
C132	C	-1.177690	0.147471	-0.811276
H133	H	-1.294680	0.204652	-0.849101
H134	H	-1.296629	0.108233	-0.809300
H135	H	-1.260439	0.122137	-0.911088
H136	H	-1.181580	0.170783	-0.748339
H137	H	-1.145391	0.184704	-0.850120
O138	O	-0.936890	-0.243272	-0.751890
C139	C	-0.883257	-0.296871	-0.686543
H140	H	-0.882213	-0.260199	-0.615507
H141	H	-0.912343	-0.363378	-0.675937
C142	C	-0.788073	-0.360155	-0.812695
C143	C	-0.786785	-0.315111	-0.725449
H144	H	-0.728566	-0.371411	-0.836695
H145	H	-0.824208	-0.324047	-0.856721
H146	H	-0.812316	-0.415573	-0.803844
H147	H	-0.762554	-0.259690	-0.734303
H148	H	-0.750644	-0.351211	-0.681425
H149	H	-1.203437	0.454900	-0.000141
O150	O	-0.937086	-0.243283	-0.555460
C151	C	-0.985040	-0.298555	-0.497817
H152	H	-1.054990	-0.263043	-0.482888
H153	H	-0.991188	-0.364675	-0.536211
C154	C	-0.848711	-0.361202	-0.421492
C155	C	-0.934623	-0.317582	-0.403149
H156	H	-0.817611	-0.372942	-0.363097
H157	H	-0.816403	-0.323967	-0.460329
H158	H	-0.853847	-0.416297	-0.453488
H159	H	-0.929486	-0.262484	-0.371164
H160	H	-0.966929	-0.354809	-0.364304
H161	H	-0.904606	0.585777	-0.000099
H162	H	-1.208873	0.167142	-0.000154
H163	H	-1.200238	0.624162	-0.000127
H164	H	-0.913240	0.128754	-0.000094
