data_functionalizedCrystal
_audit_creation_method	'MofGen! by Chris Wilmer'
_symmetry_space_group_name_H-M	'P1'
_symmetry_Int_Tables_number	1
_symmetry_cell_setting	triclinic
loop_
_symmetry_equiv_pos_as_xyz
  x,y,z
_cell_length_a	17.917603
_cell_length_b	21.606444
_cell_length_c	21.606444
_cell_angle_alpha	59.998382
_cell_angle_beta	90.001446
_cell_angle_gamma	57.005171
loop_
_atom_site_label
_atom_site_type_symbol
_atom_site_fract_x
_atom_site_fract_y
_atom_site_fract_z
Zr1	Zr	0.754768	0.620579	-0.052816
O2	O	0.629613	0.759163	-0.156380
O3	O	0.793154	0.488543	-0.021055
O4	O	0.793126	0.617679	-0.150190
O5	O	0.629641	0.630031	0.074605
O6	O	0.922085	0.607944	-0.145322
O7	O	0.629641	0.630026	-0.027245
O8	O	0.922136	0.376943	0.085678
O9	O	0.629590	0.861032	-0.156395
O10	O	0.905743	0.533161	-0.003891
O11	O	0.809502	0.540430	0.068485
O12	O	0.809468	0.692471	-0.083556
O13	O	0.713227	0.699740	-0.011180
Zr14	Zr	0.960443	0.605060	0.117387
Zr15	Zr	0.960443	0.605053	-0.045051
Zr16	Zr	0.754767	0.620586	0.109623
Zr17	Zr	0.754731	0.783049	-0.052839
Zr18	Zr	0.960479	0.442590	0.117410
O19	O	0.922056	0.737096	0.085627
O20	O	0.922056	0.737086	-0.145340
O21	O	0.629612	0.759172	0.074586
O22	O	1.085598	0.466476	0.220952
O23	O	1.085598	0.466466	-0.010015
O24	O	0.793154	0.488553	0.209912
O25	O	1.085569	0.595608	-0.010033
O26	O	0.922085	0.607959	0.214762
O27	O	0.793125	0.617695	0.209893
O28	O	1.085569	0.595612	0.091817
O29	O	0.793074	0.848691	-0.150223
O30	O	0.922136	0.376948	0.214795
O31	O	1.085621	0.364607	0.220967
O32	O	1.085621	0.364601	0.091850
O33	O	0.629590	0.861038	-0.027278
O34	O	0.793074	0.848696	-0.021106
O35	O	0.905742	0.533168	0.148127
O36	O	1.001983	0.525899	0.075751
O37	O	0.905709	0.685209	-0.003913
O38	O	0.809468	0.692478	0.068463
C39	C	0.600337	0.632241	0.022573
C40	C	0.513022	0.638832	0.019277
C41	C	0.857605	0.612828	0.235472
C42	C	0.857605	0.612831	0.304431
C43	C	0.857560	0.816044	0.032257
C44	C	0.857544	0.885017	0.032247
C45	C	0.353175	0.650872	0.013257
C46	C	0.362028	0.574771	0.051312
C47	C	0.273084	0.581470	0.047963
C48	C	0.442126	0.644175	0.016606
C49	C	1.114874	0.593398	0.041998
C50	C	1.202188	0.586807	0.045294
C51	C	0.857651	0.409594	0.032315
C52	C	0.857666	0.340621	0.032324
C53	C	0.807313	0.921206	0.070031
C54	C	0.807334	0.985985	0.070045
C55	C	0.857581	1.014580	0.032271
C56	C	0.907818	0.978385	-0.005513
C57	C	0.907802	0.913601	-0.005523
C58	C	0.907883	1.239647	-0.005475
C59	C	0.907892	1.304437	-0.005464
C60	C	0.807414	1.312030	0.070093
C61	C	0.807399	1.247247	0.070084
C62	C	0.857640	1.211054	0.032303
C63	C	0.857618	1.140811	0.032289
C64	C	0.857597	1.084826	0.032280
C65	C	0.857606	0.612811	-0.170900
C66	C	0.857606	0.612808	-0.239859
C67	C	0.807352	0.695988	0.295247
C68	C	0.807348	0.695986	0.360044
C69	C	0.857602	0.612825	0.434025
C70	C	0.907857	0.529662	0.443208
C71	C	0.907855	0.529665	0.378411
C72	C	0.907864	0.529646	0.704526
C73	C	0.907865	0.529649	0.769325
C74	C	0.807357	0.695967	0.686159
C75	C	0.807355	0.695971	0.621362
C76	C	0.857605	0.612808	0.630550
C77	C	0.857608	0.612811	0.560290
C78	C	0.857606	0.612821	0.504285
C79	C	1.114919	0.390173	0.042027
C80	C	1.202249	0.314609	0.045333
C81	C	0.857650	0.409603	0.235501
C82	C	0.857666	0.340633	0.304470
C83	C	1.114919	0.390182	0.245213
C84	C	1.202248	0.314620	0.317478
C85	C	0.600292	0.835457	-0.180641
C86	C	0.512962	0.911018	-0.252907
C87	C	0.600291	0.835466	0.022545
C88	C	0.512961	0.911030	0.019238
C89	C	0.857560	0.816036	-0.170929
C90	C	0.857545	0.885005	-0.239898
C91	C	1.193023	0.282914	0.005306
C92	C	1.275071	0.211923	0.008397
C93	C	1.366344	0.172624	0.051520
C94	C	1.375568	0.204325	0.091548
C95	C	1.293521	0.275319	0.088452
C96	C	0.907909	0.304454	0.378438
C97	C	0.907920	0.239658	0.443248
C98	C	0.857692	0.211039	0.434088
C99	C	0.807442	0.247226	0.360112
C100	C	0.807426	0.312024	0.295304
C101	C	1.293505	0.275341	0.313636
C102	C	1.375569	0.204352	0.381531
C103	C	1.366373	0.172639	0.453268
C104	C	1.275107	0.211925	0.457109
C105	C	1.193046	0.282917	0.389214
C106	C	0.421705	0.950305	-0.249064
C107	C	0.339642	1.021315	-0.316959
C108	C	0.348837	1.053031	-0.388696
C109	C	0.440103	1.013741	-0.392537
C110	C	0.522164	0.942737	-0.324643
C111	C	0.522187	0.942732	0.059259
C112	C	0.440139	1.013741	0.056150
C113	C	0.348866	1.053042	0.013025
C114	C	0.339643	1.021337	-0.027000
C115	C	0.421690	0.950334	-0.023895
C116	C	0.907783	0.913603	-0.230714
C117	C	0.907787	0.978398	-0.295511
C118	C	0.857547	1.014598	-0.369492
C119	C	0.807308	0.985994	-0.378674
C120	C	0.807310	0.921196	-0.313878
H121	H	0.436406	0.504587	0.086408
F122	F	0.753873	0.784478	0.676384
H123	H	1.301046	0.301116	0.121052
H124	H	0.766515	0.341474	0.235078
F125	F	0.753947	1.350551	0.110307
H126	H	0.948770	0.461951	0.503449
F127	F	0.753833	0.784496	0.350262
F128	F	0.961338	0.441158	0.388189
F129	F	1.453720	0.097080	0.525522
F130	F	0.753828	0.890774	-0.323665
H131	H	0.948812	1.327716	-0.036225
H132	H	1.118744	0.314890	0.392354
F133	F	0.255964	0.742601	-0.032613
F134	F	0.961408	0.201155	0.521971
H135	H	0.414200	0.924486	-0.190659
F136	F	0.961256	1.008832	-0.285722
H137	H	0.766404	1.015478	-0.438918
F138	F	0.857552	1.083564	-0.438448
F139	F	0.753871	0.784481	0.542627
H140	H	0.265337	1.053293	-0.313817
F141	F	0.961345	0.441137	0.714314
H142	H	0.282066	1.110857	0.010503
H143	H	0.766391	0.897934	0.100786
H144	H	0.948694	0.884139	-0.170481
F145	F	1.303313	0.309084	0.237295
H146	H	0.948789	1.210185	-0.036239
F147	F	0.619319	0.900919	0.105159
H148	H	0.948811	0.327748	0.385910
H149	H	0.948707	0.884136	-0.036289
F150	F	0.753869	0.784501	0.216513
H151	H	0.948788	0.461925	0.829565
F152	F	1.095892	0.324729	-0.040596
H153	H	0.414165	0.924525	-0.056483
F154	F	0.753878	1.024491	0.110266
F155	F	0.753916	1.216822	0.110285
H156	H	1.433144	0.114815	0.054035
F157	F	0.261490	1.128601	-0.460950
F158	F	0.857718	0.142073	0.503071
F159	F	0.961298	1.008816	-0.045713
F160	F	0.753990	0.216757	0.350376
F161	F	1.265235	0.178194	-0.034206
F162	F	1.472715	0.162489	0.137442
F163	F	1.472691	0.162550	0.377427
H164	H	1.267635	0.186093	0.515526
H165	H	0.447578	1.039574	-0.450953
H166	H	0.596467	0.910750	-0.327780
H167	H	0.447668	1.039542	0.088746
H168	H	0.265318	1.053347	-0.062112
