data_functionalizedCrystal
_audit_creation_method	'MofGen! by Chris Wilmer'
_symmetry_space_group_name_H-M	'P1'
_symmetry_Int_Tables_number	1
_symmetry_cell_setting	triclinic
loop_
_symmetry_equiv_pos_as_xyz
  x,y,z
_cell_length_a	6.817900
_cell_length_b	7.190334
_cell_length_c	11.168121
_cell_angle_alpha	92.003899
_cell_angle_beta	108.508496
_cell_angle_gamma	60.611776
loop_
_atom_site_label
_atom_site_type_symbol
_atom_site_fract_x
_atom_site_fract_y
_atom_site_fract_z
V1	V	-4.248263	0.665018	-0.172691
O2	O	-4.205210	0.652341	0.010371
O3	O	-4.223608	0.660487	-0.344410
O4	O	-4.284905	0.955048	-0.169125
O5	O	-4.143488	0.355741	-0.166127
V6	V	-4.717795	0.628024	-0.150902
O7	O	-4.540213	0.746168	-0.220486
O8	O	-4.876043	0.546874	-0.103106
O9	O	-4.519244	0.632555	0.020817
O10	O	-4.878245	0.640702	-0.333963
O11	O	-4.939967	0.937301	-0.157465
O12	O	-4.457947	0.337995	-0.154467
C13	C	-4.071634	0.650001	-0.386299
C14	C	-4.133329	0.648230	-0.526676
C15	C	-4.337779	0.657556	-0.595340
C16	C	-4.401548	0.655726	-0.740427
C17	C	-4.149834	1.025739	-0.162700
C18	C	-4.263326	1.267296	-0.160886
C19	C	-4.334559	0.643035	0.062700
C20	C	-4.252107	0.644820	0.203076
H21	H	-4.465611	0.666908	-0.546716
H22	H	-4.576679	0.663685	-0.799451
H23	H	-4.076955	0.636829	-0.737905
H24	H	-4.005508	0.638902	-0.575303
