data_functionalizedCrystal
_audit_creation_method	'MofGen! by Chris Wilmer'
_symmetry_space_group_name_H-M	'P1'
_symmetry_Int_Tables_number	1
_symmetry_cell_setting	triclinic
loop_
_symmetry_equiv_pos_as_xyz
  x,y,z
_cell_length_a	15.995350
_cell_length_b	17.038272
_cell_length_c	14.472310
_cell_angle_alpha	89.999298
_cell_angle_beta	89.990621
_cell_angle_gamma	87.301966
loop_
_atom_site_label
_atom_site_type_symbol
_atom_site_fract_x
_atom_site_fract_y
_atom_site_fract_z
O1	O	1.118175	0.100774	-0.076763
O2	O	1.618175	0.600774	0.423237
O3	O	0.875286	0.113219	-0.076782
O4	O	1.375286	0.613219	0.423218
O5	O	0.995287	-0.006819	-0.076766
O6	O	1.495287	0.493181	0.423234
O7	O	0.998174	0.220812	-0.076780
O8	O	1.498174	0.720812	0.423220
O9	O	0.995254	-0.006812	0.076916
O10	O	1.495254	0.493188	0.576916
O11	O	0.875253	0.113226	0.076900
O12	O	1.375253	0.613226	0.576900
O13	O	1.118142	0.100781	0.076919
O14	O	1.618142	0.600781	0.576919
Cu15	Cu	0.996695	0.107004	0.090942
Cu16	Cu	1.496695	0.607004	0.590942
Cu17	Cu	0.996733	0.106996	-0.090805
Cu18	Cu	1.496733	0.606996	0.409195
O19	O	0.998141	0.220819	0.076902
O20	O	1.498141	0.720819	0.576902
C21	C	0.844038	0.112708	0.000056
C22	C	1.344038	0.612708	0.500056
C23	C	0.750978	0.111165	0.000049
C24	C	1.250978	0.611165	0.500049
C25	C	0.992645	-0.035945	0.000075
C26	C	1.492645	0.464055	0.500075
C27	C	0.984810	-0.122740	0.000074
C28	C	1.484810	0.377260	0.500074
C29	C	0.412836	0.105626	0.000069
C30	C	0.912836	0.605626	0.500069
C31	C	0.454180	0.020137	0.000417
C32	C	0.954180	0.520137	0.500417
C33	C	0.550981	0.021680	0.000064
C34	C	1.050981	0.521680	0.500064
C35	C	0.580592	0.108374	0.000060
C36	C	1.080592	0.608374	0.500060
C37	C	0.542527	0.150536	-0.087699
C38	C	1.042527	0.650536	0.412301
C39	C	0.445739	0.148388	-0.087766
C40	C	0.945739	0.648388	0.412234
C41	C	0.445488	0.150162	0.086999
C42	C	0.945488	0.650162	0.586999
C43	C	0.542432	0.150142	0.088152
C44	C	1.042432	0.650142	0.588152
C45	C	0.675401	0.109931	0.000051
C46	C	1.175401	0.609931	0.500051
C47	C	0.318027	0.104071	0.000071
C48	C	0.818027	0.604071	0.500071
C49	C	1.056739	-0.172836	0.000081
C50	C	1.556739	0.327164	0.500081
C51	C	1.049373	-0.254389	0.000072
C52	C	1.549373	0.245611	0.500072
C53	C	0.970077	-0.285843	0.000062
C54	C	1.470077	0.214157	0.500062
C55	C	0.898143	-0.235740	0.000053
C56	C	1.398143	0.264260	0.500053
C57	C	0.905510	-0.154189	0.000056
C58	C	1.405510	0.345811	0.500056
C59	C	0.944051	-0.531607	0.000047
C60	C	1.444051	-0.031607	0.500047
C61	C	0.936689	-0.613164	0.000048
C62	C	1.436689	-0.113164	0.500048
C63	C	1.087920	-0.631807	0.000065
C64	C	1.587920	-0.131807	0.500065
C65	C	1.095280	-0.550254	0.000073
C66	C	1.595280	-0.050254	0.500073
C67	C	1.023346	-0.500158	0.000059
C68	C	1.523346	-0.000158	0.500059
C69	C	0.962546	-0.369202	0.000056
C70	C	1.462546	0.130798	0.500056
C71	C	1.030878	-0.416801	0.000059
C72	C	1.530878	0.083199	0.500059
C73	C	1.149390	0.101292	0.000078
C74	C	1.649390	0.601292	0.500078
C75	C	1.242450	0.102834	0.000079
C76	C	1.742450	0.602834	0.500079
C77	C	1.000784	0.249944	0.000059
C78	C	1.500784	0.749944	0.500059
C79	C	1.008618	0.336739	0.000054
C80	C	1.508618	0.836739	0.500054
N81	N	0.996674	0.107009	0.218773
N82	N	1.496674	0.607009	0.718773
N83	N	0.996761	0.106984	-0.218636
N84	N	1.496761	0.606984	0.281364
C85	C	0.996732	0.106993	0.592864
C86	C	1.496732	0.606993	1.092864
C87	C	0.932276	0.171007	0.553689
C88	C	1.432276	0.671007	1.053689
C89	C	0.932452	0.171241	0.446601
C90	C	1.432452	0.671241	0.946601
C91	C	0.996702	0.107001	0.407273
C92	C	1.496702	0.607001	0.907273
C93	C	1.085336	0.124819	0.446115
C94	C	1.585336	0.624819	0.946115
C95	C	1.084981	0.125274	0.553237
C96	C	1.584981	0.625274	1.053237
C97	C	0.973320	0.024970	0.553397
C98	C	1.473320	0.524970	1.053397
C99	C	0.971356	0.025517	0.446269
C100	C	1.471356	0.525517	0.946269
C101	C	0.996691	0.107004	0.302385
C102	C	1.496691	0.607004	0.802385
C103	C	0.996749	0.106991	0.697752
C104	C	1.496749	0.606991	1.197752
H105	H	0.577035	-0.011462	0.062974
H106	H	1.077035	0.488538	0.562974
H107	H	0.568829	0.121246	-0.153008
H108	H	1.068829	0.621246	0.346992
H109	H	0.417962	0.211153	-0.091752
H110	H	0.917962	0.711153	0.408248
Cl111	Cl	1.161639	0.055951	0.593249
Cl112	Cl	1.661639	0.555951	1.093249
Cl113	Cl	1.139802	-0.317364	0.000083
Cl114	Cl	1.639802	0.182636	0.500083
Cl115	Cl	0.830533	0.154877	0.593474
Cl116	Cl	1.330533	0.654877	1.093474
Cl117	Cl	0.875197	-0.001468	0.595148
Cl118	Cl	1.375197	0.498532	1.095148
Cl119	Cl	0.798457	-0.275282	0.000030
Cl120	Cl	1.298457	0.224718	0.500030
H121	H	0.562300	0.213362	0.093450
H122	H	1.062300	0.713362	0.593450
Cl123	Cl	1.156430	-0.133302	0.000102
Cl124	Cl	1.656430	0.366698	0.500102
H125	H	1.014806	-0.024352	0.419501
H126	H	1.514806	0.475648	0.919501
H127	H	1.020257	-0.022668	0.578729
H128	H	1.520257	0.477332	1.078729
H129	H	1.105401	0.183955	0.419276
H130	H	1.605401	0.683955	0.919276
Cl131	Cl	0.831010	0.154902	0.406053
Cl132	Cl	1.331010	0.654902	0.906053
H133	H	0.433211	-0.014032	0.063353
H134	H	0.933211	0.485968	0.563353
Cl135	Cl	1.161535	0.054749	0.406787
Cl136	Cl	1.661535	0.554749	0.906787
H137	H	0.418217	0.213193	0.087589
H138	H	0.918217	0.713193	0.587589
Cl139	Cl	1.194970	-0.510718	0.000055
Cl140	Cl	1.694970	-0.010718	0.500055
H141	H	0.432177	-0.013880	-0.062167
H142	H	0.932177	0.486120	0.437833
H143	H	0.425254	0.117636	-0.153365
H144	H	0.925254	0.617636	0.346635
H145	H	0.885477	-0.490828	0.000036
H146	H	1.385477	0.009172	0.500036
Cl147	Cl	0.571364	0.248863	-0.092767
Cl148	Cl	1.071364	0.748863	0.407233
H149	H	0.906126	0.011995	0.420882
H150	H	1.406126	0.511995	0.920882
H151	H	0.422948	0.122217	0.153518
H152	H	0.922948	0.622217	0.653518
H153	H	1.104724	0.185092	0.578210
H154	H	1.604724	0.685092	1.078210
H155	H	0.567542	0.119364	0.153076
H156	H	1.067542	0.619364	0.653076
H157	H	0.872114	-0.638770	0.000055
H158	H	1.372114	-0.138770	0.500055
Cl159	Cl	0.815082	-0.091210	0.000044
Cl160	Cl	1.315082	0.408790	0.500044
Cl161	Cl	1.130560	-0.377257	0.000066
Cl162	Cl	1.630560	0.122743	0.500066
H163	H	0.576475	-0.011692	-0.062951
H164	H	1.076475	0.488308	0.437049
H165	H	1.146484	-0.672604	0.000074
H166	H	1.646484	-0.172604	0.500074
Cl167	Cl	0.862863	-0.408752	0.000039
Cl168	Cl	1.362863	0.091248	0.500039
H169	H	0.947652	0.231532	0.580596
H170	H	1.447652	0.731532	1.080596
Cl171	Cl	0.956435	0.265224	0.407012
Cl172	Cl	1.456435	0.765224	0.907012
