data_functionalizedCrystal
_audit_creation_method	'MofGen! by Chris Wilmer'
_symmetry_space_group_name_H-M	'P1'
_symmetry_Int_Tables_number	1
_symmetry_cell_setting	triclinic
loop_
_symmetry_equiv_pos_as_xyz
  x,y,z
_cell_length_a	13.635800
_cell_length_b	13.563541
_cell_length_c	17.982968
_cell_angle_alpha	69.847093
_cell_angle_beta	77.548040
_cell_angle_gamma	104.704624
loop_
_atom_site_label
_atom_site_type_symbol
_atom_site_fract_x
_atom_site_fract_y
_atom_site_fract_z
V1	V	-2.023037	-0.154798	0.270091
O2	O	-2.000774	0.006367	0.231688
O3	O	-2.013961	-0.305908	0.300233
O4	O	-1.996100	-0.152887	0.373292
O5	O	-2.018758	-0.147713	0.158123
V6	V	-2.263246	-0.135465	0.252813
O7	O	-2.157072	-0.197206	0.307992
O8	O	-2.354310	-0.093057	0.214911
O9	O	-2.160720	0.015645	0.222670
O10	O	-2.344209	-0.296630	0.291216
O11	O	-2.326224	-0.142550	0.364780
O12	O	-2.178581	-0.137376	0.149611
V13	V	-1.523037	-0.154798	0.270091
O14	O	-1.500774	0.006367	0.231688
O15	O	-1.513961	-0.305908	0.300233
O16	O	-1.496100	-0.152887	0.373292
O17	O	-1.518758	-0.147713	0.158123
V18	V	-1.763246	-0.135465	0.252813
O19	O	-1.657072	-0.197206	0.307992
O20	O	-1.854310	-0.093057	0.214911
O21	O	-1.660720	0.015645	0.222670
O22	O	-1.844209	-0.296630	0.291216
O23	O	-1.826224	-0.142550	0.364780
O24	O	-1.678581	-0.137376	0.149611
C25	C	-1.940229	-0.342730	0.304227
C26	C	-1.973433	-0.466268	0.329560
C27	C	-1.986908	-0.749790	0.108271
C28	C	-1.955704	-0.633720	0.084468
C29	C	-1.960135	-0.591851	0.145739
C30	C	-1.995773	-0.666064	0.230817
C31	C	-2.026972	-0.782145	0.254623
C32	C	-2.000199	-0.624206	0.292090
C33	C	-2.035837	-0.698419	0.377169
C34	C	-2.067033	-0.814488	0.400970
C35	C	-2.062602	-0.856357	0.339699
C36	C	-1.969000	-0.508125	0.268285
C37	C	-2.009064	-0.540480	0.414636
C38	C	-2.040268	-0.656550	0.438440
C39	C	-1.917445	-0.147535	0.397420
C40	C	-1.936162	-0.146973	0.481997
C41	C	-2.066123	0.052462	0.218676
C42	C	-2.022538	0.175998	0.193348
C43	C	-2.088907	-0.142731	0.125481
C44	C	-2.059809	-0.143288	0.040901
C45	C	-1.440229	-0.342730	0.304227
C46	C	-1.473433	-0.466268	0.329560
C47	C	-1.417445	-0.147535	0.397420
C48	C	-1.436162	-0.146973	0.481997
C49	C	-2.036473	-0.152277	0.526784
C50	C	-2.054054	-0.151748	0.606254
C51	C	-1.971325	-0.145922	0.640937
C52	C	-1.871005	-0.140614	0.596143
C53	C	-1.853423	-0.141135	0.516673
C54	C	-1.941908	-0.138509	0.916638
C55	C	-1.959499	-0.137991	0.996115
C56	C	-2.142539	-0.149122	1.006218
C57	C	-2.124957	-0.149643	0.926748
C58	C	-2.024637	-0.144329	0.881959
C59	C	-2.005575	-0.144901	0.795789
C60	C	-1.990388	-0.145358	0.727108
C61	C	-1.566123	0.052462	0.218676
C62	C	-1.522538	0.175998	0.193348
C63	C	-1.588907	-0.142731	0.125481
C64	C	-1.559809	-0.143288	0.040901
C65	C	-1.580568	-0.529965	0.346458
C66	C	-1.611784	-0.646045	0.370274
C67	C	-1.535863	-0.698424	0.377185
C68	C	-1.428720	-0.634718	0.360287
C69	C	-1.397507	-0.518642	0.336478
C70	C	-1.536477	-0.152266	0.526768
C71	C	-1.554074	-0.151723	0.606234
C72	C	-1.471357	-0.145894	0.640930
C73	C	-1.371033	-0.140597	0.596152
C74	C	-1.353435	-0.141132	0.516686
C75	C	-1.587897	0.239695	0.176452
C76	C	-1.546953	0.355774	0.152640
C77	C	-1.440651	0.408153	0.145731
C78	C	-1.375287	0.344448	0.162626
C79	C	-1.416230	0.228372	0.186432
C80	C	-1.460294	-0.149104	0.006222
C81	C	-1.432933	-0.149614	-0.073254
C82	C	-1.505093	-0.144316	-0.118046
C83	C	-1.604615	-0.138496	-0.083362
C84	C	-1.631971	-0.137978	-0.003891
H85	H	-1.934722	-0.497340	0.126353
H86	H	-1.407326	0.502670	0.126346
H87	H	-1.983298	-0.783891	0.058394
H88	H	-1.892124	-0.133245	1.024351
H89	H	-1.860236	-0.134222	0.880193
H90	H	-1.635770	-0.156041	0.642682
H91	H	-1.926691	-0.573303	0.015197
H92	H	-1.561293	-0.792942	0.396573
H93	H	-1.271747	-0.136824	0.480240
H94	H	-2.096039	-0.874910	0.470246
H95	H	-1.351894	-0.154353	-0.101481
H96	H	-1.600191	0.407627	0.138888
O97	O	-1.790771	-0.135008	0.629971
C98	C	-1.827789	-0.135661	0.709710
H99	H	-1.919274	-0.175734	0.736119
H100	H	-1.792012	-0.186140	0.753878
H101	H	-1.802017	-0.045639	0.703613
O102	O	-1.478365	-0.144889	-0.195216
C103	C	-1.375043	-0.151134	-0.216219
H104	H	-1.356011	-0.189337	-0.156343
H105	H	-1.372692	-0.206057	-0.251878
H106	H	-1.312880	-0.063062	-0.257419
O107	O	-1.271991	0.395166	0.155922
C108	C	-1.223076	0.314060	0.175961
H109	H	-1.267071	0.238592	0.166048
H110	H	-1.135365	0.352266	0.133609
H111	H	-1.227236	0.285739	0.244429
O112	O	-2.013558	-0.499966	0.474247
C113	C	-2.120337	-0.543543	0.529312
H114	H	-2.166285	-0.625021	0.527371
H115	H	-2.120169	-0.561098	0.596000
H116	H	-2.160900	-0.479751	0.509094
H117	H	-1.485700	-0.145460	0.705638
H118	H	-2.135734	-0.156061	0.642714
O119	O	-2.116966	-0.158091	0.493231
C120	C	-2.205456	-0.258099	0.546387
H121	H	-2.201707	-0.288390	0.612876
H122	H	-2.283368	-0.241413	0.546832
H123	H	-2.202851	-0.325362	0.522438
O124	O	-2.205219	-0.155350	0.892951
C125	C	-2.168182	-0.154645	0.813196
H126	H	-2.097553	-0.185298	0.809212
H127	H	-2.235940	-0.212626	0.803414
H128	H	-2.141106	-0.065446	0.762471
O129	O	-1.290598	-0.134739	0.629767
C130	C	-1.202073	-0.034765	0.576605
H131	H	-1.230828	0.029457	0.536256
H132	H	-1.162574	0.000572	0.616293
H133	H	-1.141235	-0.053480	0.534281
O134	O	-1.691168	0.189015	0.183080
C135	C	-1.740064	0.270142	0.163074
H136	H	-1.675370	0.356836	0.122162
H137	H	-1.796066	0.249195	0.127477
H138	H	-1.788295	0.269997	0.223402
H139	H	-1.642400	-0.487333	0.340830
O140	O	-2.093094	-0.969132	0.362879
C141	C	-2.201458	-1.022187	0.415738
H142	H	-2.243918	-0.958787	0.404046
H143	H	-2.242888	-1.094691	0.401734
H144	H	-2.205195	-1.055985	0.484174
O145	O	-1.352719	0.166485	0.202718
C146	C	-1.343002	0.114340	0.147285
H147	H	-1.359612	0.163262	0.088683
H148	H	-1.258059	0.113184	0.128640
H149	H	-1.403474	0.024412	0.179706
H150	H	-1.401524	-0.153418	0.042682
O151	O	-2.074729	-0.728525	0.521102
C152	C	-1.992321	-0.704635	0.555057
H153	H	-1.934978	-0.613960	0.515390
H154	H	-2.029141	-0.716678	0.622251
H155	H	-1.946209	-0.763946	0.554987
O156	O	-2.239987	-0.154420	1.049855
C157	C	-2.284165	-0.251203	1.126789
H158	H	-2.216842	-0.278539	1.144530
H159	H	-2.328849	-0.231436	1.177914
H160	H	-2.342526	-0.321894	1.120136
O161	O	-1.674601	-0.133412	-0.126973
C162	C	-1.629094	-0.135095	-0.204557
H163	H	-1.565385	-0.175297	-0.199847
H164	H	-1.694678	-0.185983	-0.220797
H165	H	-1.590421	-0.045370	-0.255763
H166	H	-1.603843	-0.157016	0.498530
O167	O	-1.728739	-0.132540	0.029824
C168	C	-1.812025	-0.226015	0.037972
H169	H	-1.780660	-0.297017	0.040520
H170	H	-1.881637	-0.255636	0.098234
H171	H	-1.841124	-0.200982	-0.018248
H172	H	-1.771732	-0.136788	0.480199
O173	O	-1.715835	-0.707829	0.386523
C174	C	-1.744847	-0.667515	0.314217
H175	H	-1.669401	-0.621567	0.256169
H176	H	-1.800510	-0.741254	0.308797
H177	H	-1.788089	-0.607128	0.319217
O178	O	-1.355102	-0.685776	0.367002
C179	C	-1.405645	-0.801888	0.391656
H180	H	-1.481620	-0.816977	0.373790
H181	H	-1.348399	-0.833782	0.358539
H182	H	-1.427785	-0.848796	0.462573
O183	O	-1.293376	-0.456928	0.320049
C184	C	-1.233076	-0.528065	0.331275
H185	H	-1.275221	-0.606854	0.324304
H186	H	-1.149379	-0.481968	0.281927
H187	H	-1.225868	-0.552897	0.396667
H188	H	-1.939983	-0.447711	0.199013
