data_functionalizedCrystal
_audit_creation_method	'MofGen! by Chris Wilmer'
_symmetry_space_group_name_H-M	'P1'
_symmetry_Int_Tables_number	1
_symmetry_cell_setting	triclinic
loop_
_symmetry_equiv_pos_as_xyz
  x,y,z
_cell_length_a	17.699083
_cell_length_b	15.995350
_cell_length_c	16.776229
_cell_angle_alpha	89.995580
_cell_angle_beta	89.998886
_cell_angle_gamma	83.387695
loop_
_atom_site_label
_atom_site_type_symbol
_atom_site_fract_x
_atom_site_fract_y
_atom_site_fract_z
O1	O	1.004255	0.105885	-0.066173
O2	O	0.783899	0.119661	-0.066198
O3	O	0.900100	-0.009127	-0.066184
O4	O	0.888053	0.234673	-0.066187
O5	O	0.900085	-0.009135	0.066393
O6	O	0.783884	0.119653	0.066378
O7	O	1.004239	0.105877	0.066404
Zn8	Zn	0.894059	0.112764	0.087441
Zn9	Zn	0.894079	0.112774	-0.087235
O10	O	0.888038	0.234665	0.066390
C11	C	0.755694	0.119163	0.000087
C12	C	0.671673	0.117683	0.000077
C13	C	0.623178	0.193278	0.000076
C14	C	0.544232	0.191882	0.000087
C15	C	0.513783	0.114889	0.000092
C16	C	0.562285	0.039287	0.000095
C17	C	0.641229	0.040685	0.000090
C18	C	0.243912	0.033651	0.000115
C19	C	0.164962	0.032259	0.000117
C20	C	0.146916	0.184848	0.000111
C21	C	0.225860	0.186245	0.000106
C22	C	0.274354	0.110644	0.000114
C23	C	0.359956	0.112159	0.000104
C24	C	0.428183	0.113373	0.000096
C25	C	0.899595	-0.040324	0.000103
C26	C	0.898101	-0.133272	0.000098
C27	C	0.892739	-0.471008	0.000100
C28	C	0.809983	-0.423406	-0.000207
C29	C	0.811476	-0.326719	0.000092
C30	C	0.895399	-0.303453	0.000099
C31	C	0.936209	-0.344618	0.075810
C32	C	0.934130	-0.441250	0.075873
C33	C	0.935857	-0.441602	-0.074891
C34	C	0.935837	-0.344657	-0.075892
C35	C	0.896907	-0.208759	0.000101
C36	C	0.891234	-0.565703	0.000104
C37	C	1.032445	0.106375	0.000117
C38	C	1.116465	0.107856	0.000122
C39	C	0.888544	0.265863	0.000101
C40	C	0.890037	0.358810	0.000101
N41	N	0.894051	0.112756	0.206652
N42	N	0.894094	0.112775	-0.206446
C43	C	0.945520	0.055752	0.248375
C44	C	0.945524	0.055752	0.331827
C45	C	0.894062	0.112760	0.373555
C46	C	0.842587	0.169766	0.331825
C47	C	0.842580	0.169762	0.248375
C48	C	0.842614	0.169783	0.668373
C49	C	0.842627	0.169784	0.751829
C50	C	0.945559	0.055772	0.751825
C51	C	0.945552	0.055768	0.668375
C52	C	0.894074	0.112771	0.626653
C53	C	0.894069	0.112770	0.536164
C54	C	0.894070	0.112765	0.464041
H55	H	0.647962	0.255975	0.000071
H56	H	0.987434	0.009334	0.365798
C57	C	0.785976	0.232477	0.377721
C58	C	0.786016	0.232529	0.469514
C59	C	0.729405	0.295244	0.515406
C60	C	0.672755	0.357908	0.469507
C61	C	0.672713	0.357859	0.377709
C62	C	0.729324	0.295144	0.331816
H63	H	0.827954	0.186139	0.503496
H64	H	0.729437	0.295280	0.583361
H65	H	0.630848	0.404334	0.503479
H66	H	0.630775	0.404249	0.343727
H67	H	0.729292	0.295108	0.263861
H68	H	0.987430	0.009334	0.214406
C69	C	1.002159	-0.006942	0.622474
C70	C	1.058774	-0.069652	0.668367
C71	C	1.115380	-0.132366	0.622467
C72	C	1.115372	-0.132370	0.530675
C73	C	1.058755	-0.069657	0.484777
C74	C	1.002149	-0.006944	0.530677
H75	H	1.058782	-0.069651	0.736322
H76	H	1.157292	-0.178789	0.656444
H77	H	1.157275	-0.178794	0.496697
H78	H	1.058747	-0.069658	0.416822
H79	H	0.960238	0.039480	0.496699
H80	H	0.107421	0.246406	0.000109
C81	C	0.131467	-0.052439	0.000130
C82	C	0.079677	-0.074383	-0.068711
C83	C	0.046180	-0.159075	-0.068699
C84	C	0.064474	-0.221823	0.000153
C85	C	0.116267	-0.199880	0.068999
C86	C	0.149763	-0.115188	0.068987
H87	H	0.066132	-0.027933	-0.119684
H88	H	0.007840	-0.175319	-0.119663
H89	H	0.039678	-0.284517	0.000162
H90	H	0.129811	-0.246331	0.119972
H91	H	0.188103	-0.098944	0.119951
H92	H	0.283388	-0.027909	0.000121
C93	C	0.528794	-0.045407	0.000104
C94	C	0.582140	-0.128562	0.000109
C95	C	0.548651	-0.213259	0.000117
C96	C	0.461817	-0.214801	0.000120
C97	C	0.408465	-0.131643	0.000114
C98	C	0.441954	-0.046946	0.000107
H99	H	0.646425	-0.127423	0.000107
H100	H	0.588146	-0.274817	0.000121
H101	H	0.437026	-0.277498	0.000126
H102	H	0.344180	-0.132781	0.000116
H103	H	0.402459	0.014613	0.000103
C104	C	0.259352	0.270939	0.000102
C105	C	0.206009	0.354095	0.000107
C106	C	0.239500	0.438790	0.000106
C107	C	0.326335	0.440329	0.000101
C108	C	0.379684	0.357169	0.000096
C109	C	0.346193	0.272474	0.000097
H110	H	0.141723	0.352959	0.000111
H111	H	0.200007	0.500350	0.000109
H112	H	0.351128	0.503025	0.000100
H113	H	0.443970	0.358305	0.000092
H114	H	0.385686	0.210914	0.000093
H115	H	0.504750	0.253440	0.000085
C116	C	0.694578	-0.042472	0.000089
C117	C	0.691170	-0.105610	0.068935
C118	C	0.744519	-0.188768	0.068939
C119	C	0.801274	-0.208789	0.000096
C120	C	0.804684	-0.145649	-0.068755
C121	C	0.751336	-0.062490	-0.068759
H122	H	0.649154	-0.090791	0.119901
H123	H	0.741994	-0.235508	0.119907
H124	H	0.840766	-0.270348	0.000098
H125	H	0.846700	-0.160468	-0.119721
H126	H	0.753860	-0.015750	-0.119727
H127	H	0.779397	-0.298228	-0.054181
H128	H	0.776912	-0.441867	-0.054501
C129	C	0.765483	-0.449782	0.072722
C130	C	0.803958	-0.514299	0.132469
C131	C	0.759460	-0.540678	0.205397
C132	C	0.676486	-0.502540	0.218579
C133	C	0.638006	-0.438020	0.158830
C134	C	0.682504	-0.411641	0.085901
H135	H	0.865384	-0.542535	0.122713
H136	H	0.787946	-0.588441	0.249627
H137	H	0.643546	-0.522068	0.272565
H138	H	0.576580	-0.409784	0.168586
H139	H	0.654018	-0.363878	0.041671
H140	H	0.779168	-0.298792	0.054450
H141	H	0.904358	-0.459494	0.132463
C142	C	1.016205	-0.484989	0.080540
C143	C	1.083429	-0.431958	0.084201
C144	C	1.165502	-0.475692	0.088878
C145	C	1.180352	-0.572458	0.089893
C146	C	1.113126	-0.625496	0.086232
C147	C	1.031053	-0.581761	0.081555
H148	H	1.072439	-0.360320	0.083450
H149	H	1.215267	-0.436430	0.091588
H150	H	1.241107	-0.604833	0.093354
H151	H	1.124116	-0.697133	0.086983
H152	H	0.981288	-0.621023	0.078845
H153	H	0.997864	-0.330618	0.078630
H154	H	0.908806	-0.462084	-0.132275
H155	H	0.907852	-0.316183	0.132147
H156	H	0.906000	-0.317344	-0.131901
H157	H	0.800717	0.216208	0.785802
C158	C	1.018285	-0.484675	-0.075583
C159	C	1.085164	-0.431077	-0.073238
C160	C	1.167589	-0.474152	-0.073923
C161	C	1.183135	-0.570824	-0.076954
C162	C	1.116254	-0.624428	-0.079300
C163	C	1.033829	-0.581353	-0.078614
H164	H	1.073658	-0.359509	-0.070994
H165	H	1.217099	-0.434471	-0.072187
H166	H	1.244151	-0.602711	-0.077462
H167	H	1.127760	-0.695995	-0.081544
H168	H	0.984319	-0.621034	-0.080350
H169	H	0.997038	-0.329419	-0.080458
H170	H	0.987473	0.009354	0.785804
H171	H	0.800701	0.216198	0.634409
H172	H	0.800667	0.216180	0.214404
