data_functionalizedCrystal
_audit_creation_method	'MofGen! by Chris Wilmer'
_symmetry_space_group_name_H-M	'P1'
_symmetry_Int_Tables_number	1
_symmetry_cell_setting	triclinic
loop_
_symmetry_equiv_pos_as_xyz
  x,y,z
_cell_length_a	12.759401
_cell_length_b	12.759393
_cell_length_c	12.759399
_cell_angle_alpha	89.968020
_cell_angle_beta	90.016641
_cell_angle_gamma	89.980119
loop_
_atom_site_label
_atom_site_type_symbol
_atom_site_fract_x
_atom_site_fract_y
_atom_site_fract_z
Zn1	Zn	1.606252	-0.594017	-0.418162
Zn2	Zn	2.106252	-0.094017	0.081838
Zn3	Zn	1.606145	-0.418336	-0.593880
Zn4	Zn	2.106145	0.081664	-0.093880
Zn5	Zn	1.430554	-0.418352	-0.418221
Zn6	Zn	1.930554	0.081648	0.081779
Zn7	Zn	1.430542	-0.593973	-0.593804
Zn8	Zn	1.930542	-0.093973	-0.093804
O9	O	1.518373	-0.506170	-0.506017
O10	O	2.018373	-0.006170	-0.006017
O11	O	1.753259	-0.570724	-0.441478
O12	O	2.253259	-0.070724	0.058522
O13	O	1.582813	-0.271317	-0.570636
O14	O	2.082813	0.228683	-0.070636
O15	O	1.453911	-0.441680	-0.271192
O16	O	1.953911	0.058320	0.228808
O17	O	1.753181	-0.441652	-0.570578
O18	O	2.253181	0.058348	-0.070578
O19	O	1.582996	-0.570740	-0.271148
O20	O	2.082996	-0.070740	0.228852
O21	O	1.453807	-0.271329	-0.441579
O22	O	1.953807	0.228671	0.058421
O23	O	1.283532	-0.441637	-0.441505
O24	O	1.783532	0.058363	0.058495
O25	O	1.453890	-0.741000	-0.570448
O26	O	1.953890	-0.241000	-0.070448
O27	O	1.283522	-0.570665	-0.570505
O28	O	1.783522	-0.070665	-0.070505
O29	O	1.582983	-0.741032	-0.441404
O30	O	2.082983	-0.241032	0.058596
O31	O	1.582801	-0.441609	-0.740891
O32	O	2.082801	0.058391	-0.240891
O33	O	1.453786	-0.570649	-0.740835
O34	O	1.953786	-0.070649	-0.240835
C35	C	1.245406	-0.506149	-0.506004
C36	C	1.745406	-0.006149	-0.006004
C37	C	1.128629	-0.506165	-0.506024
C38	C	1.628629	-0.006165	-0.006024
C39	C	1.073790	-0.573244	-0.573296
C40	C	1.573790	-0.073244	-0.073296
C41	C	0.964066	-0.573265	-0.573300
C42	C	1.464066	-0.073265	-0.073300
C43	C	0.964030	-0.439118	-0.438756
C44	C	1.464030	0.060882	0.061244
C45	C	1.073752	-0.439104	-0.438748
C46	C	1.573752	0.060896	0.061252
C47	C	1.518447	-0.780203	-0.505911
C48	C	2.018447	-0.280203	-0.005911
C49	C	1.518478	-0.896980	-0.505865
C50	C	2.018478	-0.396980	-0.005865
C51	C	1.585707	-0.951860	-0.438666
C52	C	2.085707	-0.451860	0.061334
C53	C	1.585732	-1.061585	-0.438628
C54	C	2.085732	-0.561585	0.061372
C55	C	1.451297	-1.061538	-0.572998
C56	C	1.951297	-0.561538	-0.072998
C57	C	1.451267	-0.951816	-0.573030
C58	C	1.951267	-0.451816	-0.073030
C59	C	1.652918	-0.897024	-0.371502
C60	C	2.152918	-0.397024	0.128498
C61	C	1.720152	-0.951905	-0.304298
C62	C	2.220152	-0.451905	0.195702
C63	C	1.720177	-1.061629	-0.304260
C64	C	2.220177	-0.561629	0.195740
C65	C	1.652968	-1.116473	-0.371426
C66	C	2.152968	-0.616473	0.128574
C67	C	1.792407	-0.506191	-0.506030
C68	C	2.292407	-0.006191	-0.006030
C69	C	1.909183	-0.506200	-0.506036
C70	C	2.409183	-0.006200	-0.006036
C71	C	1.518309	-0.506146	-0.778984
C72	C	2.018309	-0.006146	-0.278984
C73	C	1.518378	-0.506171	-0.895761
C74	C	2.018378	-0.006171	-0.395761
C75	C	1.518361	-0.233202	-0.506046
C76	C	2.018361	0.266798	-0.006046
C77	C	1.518533	-0.116426	-0.505796
C78	C	2.018533	0.383574	-0.005796
C79	C	1.585633	-0.439056	-0.950617
C80	C	2.085633	0.060944	-0.450617
C81	C	1.585700	-0.439091	-1.060341
C82	C	2.085700	0.060909	-0.560341
C83	C	1.451249	-0.573359	-1.060343
C84	C	1.951249	-0.073359	-0.560343
C85	C	1.451187	-0.573328	-0.950621
C86	C	1.951187	-0.073328	-0.450621
C87	C	1.518467	-0.506217	-0.231983
C88	C	2.018467	-0.006217	0.268017
C89	C	1.518506	-0.506237	-0.115207
C90	C	2.018506	-0.006237	0.384793
H91	H	1.652907	-0.807682	-0.371527
H92	H	2.152907	-0.307682	0.128473
H93	H	1.774865	-0.907244	-0.249607
H94	H	2.274865	-0.407244	0.250393
C95	C	1.134079	-0.365307	-0.364739
C96	C	1.634079	0.134693	0.135261
N97	N	1.179517	-0.309727	-0.308997
N98	N	1.679517	0.190273	0.191003
H99	H	1.118468	-0.627852	-0.628074
H100	H	1.618468	-0.127852	-0.128074
C101	C	1.652994	-1.237173	-0.371375
C102	C	2.152994	-0.737173	0.128625
N103	N	1.653018	-1.328084	-0.371339
N104	N	2.153018	-0.828084	0.128661
C105	C	1.377331	-0.647216	-1.120699
C106	C	1.877331	-0.147216	-0.620699
N107	N	1.321651	-0.702843	-1.166158
N108	N	1.821651	-0.202843	-0.666158
C109	C	0.903748	-0.647047	-0.647315
C110	C	1.403748	-0.147047	-0.147315
N111	N	0.858317	-0.702621	-0.703069
N112	N	1.358317	-0.202621	-0.203069
H113	H	1.640345	-0.384374	-0.905953
H114	H	2.140345	0.115626	-0.405953
C115	C	1.659682	-0.365255	-1.120678
C116	C	2.159682	0.134745	-0.620678
N117	N	1.715407	-0.309638	-1.166123
N118	N	2.215407	0.190362	-0.666123
H119	H	1.774915	-1.106310	-0.249531
H120	H	2.274915	-0.606310	0.250469
H121	H	1.396578	-1.106200	-0.627681
H122	H	1.896578	-0.606200	-0.127681
C123	C	1.377318	-0.891444	-0.646958
C124	C	1.877318	-0.391444	-0.146958
N125	N	1.321617	-0.845971	-0.702642
N126	N	1.821617	-0.345971	-0.202642
C127	C	1.377219	-0.647185	-0.890275
C128	C	1.877219	-0.147185	-0.390275
N129	N	1.321518	-0.702821	-0.844823
N130	N	1.821518	-0.202821	-0.344823
C131	C	0.903655	-0.365349	-0.364762
C132	C	1.403655	0.134651	0.135238
N133	N	0.858182	-0.309782	-0.309031
N134	N	1.358182	0.190218	0.190969
