data_functionalizedCrystal
_audit_creation_method	'MofGen! by Chris Wilmer'
_symmetry_space_group_name_H-M	'P1'
_symmetry_Int_Tables_number	1
_symmetry_cell_setting	triclinic
loop_
_symmetry_equiv_pos_as_xyz
  x,y,z
_cell_length_a	17.019282
_cell_length_b	17.019294
_cell_length_c	7.088929
_cell_angle_alpha	79.934307
_cell_angle_beta	100.047436
_cell_angle_gamma	83.655696
loop_
_atom_site_label
_atom_site_type_symbol
_atom_site_fract_x
_atom_site_fract_y
_atom_site_fract_z
O1	O	1.046404	0.100607	-0.003207
O2	O	0.814653	0.115509	-0.043833
O3	O	0.937972	-0.007820	-0.003207
O4	O	0.923086	0.223936	-0.043832
O5	O	0.954452	-0.024338	0.320203
O6	O	0.831134	0.098991	0.279578
O7	O	1.062885	0.084089	0.320204
Cu8	Cu	0.948514	0.090031	0.329421
Cu9	Cu	0.929024	0.109566	-0.053050
O10	O	0.939566	0.207417	0.279578
C11	C	0.793258	0.107013	0.113030
C12	C	0.704953	0.106297	0.098603
C13	C	0.672456	0.096954	0.268121
C14	C	0.589487	0.096268	0.254573
C15	C	0.539015	0.104931	0.071504
C16	C	0.571518	0.114272	-0.098026
C17	C	0.654486	0.114952	-0.084475
C18	C	0.288055	0.103323	0.021771
C19	C	0.205081	0.102645	0.008233
C20	C	0.223056	0.084639	0.360834
C21	C	0.306025	0.085325	0.374367
C22	C	0.338520	0.094662	0.204838
C23	C	0.454207	0.104233	0.057651
C24	C	0.423328	0.095354	0.218694
C25	C	0.945973	-0.045714	0.163336
C26	C	0.945250	-0.134019	0.177749
C27	C	0.935929	-0.166496	0.008231
C28	C	0.935245	-0.249468	0.021780
C29	C	0.943888	-0.299961	0.204849
C30	C	0.953207	-0.267479	0.374379
C31	C	0.953886	-0.184508	0.360828
C32	C	0.942285	-0.550929	0.254583
C33	C	0.941608	-0.633905	0.268122
C34	C	0.923644	-0.615888	-0.084479
C35	C	0.924328	-0.532917	-0.098013
C36	C	0.933643	-0.500441	0.071516
C37	C	0.943192	-0.384772	0.218702
C38	C	0.934334	-0.415631	0.057660
C39	C	1.084280	0.092585	0.163336
C40	C	1.172584	0.093302	0.177751
C41	C	0.931565	0.245312	0.113031
C42	C	0.932287	0.333618	0.098604
N43	N	0.962228	0.076291	0.598431
N44	N	0.915316	0.123301	-0.322058
H45	H	0.713545	0.089906	0.417194
Br46	Br	0.385709	0.115947	-0.190785
Br47	Br	1.043281	-0.004901	0.761239
Br48	Br	0.834279	0.204501	0.515142
H49	H	0.163987	0.109702	-0.140852
H50	H	0.530418	0.121320	-0.247084
Br51	Br	0.545386	0.083601	0.484642
H52	H	0.680943	0.122562	-0.222515
Br53	Br	0.954910	-0.506862	0.484658
Br54	Br	0.924206	-0.097978	-0.240230
H55	H	0.347115	0.078267	0.523442
H56	H	0.464426	0.088297	0.367748
Br57	Br	0.178950	0.071967	0.590897
Br58	Br	0.922593	-0.293540	-0.208292
H59	H	0.917291	-0.491810	-0.247087
Br60	Br	0.911003	-0.659967	-0.314541
H61	H	0.314503	0.110923	-0.116272
H62	H	0.960240	-0.308597	0.523437
Br63	Br	0.953348	-0.702434	0.516591
Br64	Br	0.966532	-0.140430	0.590896
H65	H	0.927291	-0.374515	-0.091395
H66	H	0.950232	-0.425893	0.367758
