data_functionalizedCrystal
_audit_creation_method	'MofGen! by Chris Wilmer'
_symmetry_space_group_name_H-M	'P1'
_symmetry_Int_Tables_number	1
_symmetry_cell_setting	triclinic
loop_
_symmetry_equiv_pos_as_xyz
  x,y,z
_cell_length_a	13.897447
_cell_length_b	18.215407
_cell_length_c	13.897441
_cell_angle_alpha	89.979341
_cell_angle_beta	90.028354
_cell_angle_gamma	89.980549
loop_
_atom_site_label
_atom_site_type_symbol
_atom_site_fract_x
_atom_site_fract_y
_atom_site_fract_z
Zn1	Zn	-0.383995	-1.125100	0.545443
Zn2	Zn	-0.050662	-0.791766	0.878776
Zn3	Zn	0.282671	-0.458433	1.212109
Zn4	Zn	-0.545314	-1.125020	0.384148
Zn5	Zn	-0.211981	-0.791686	0.717481
Zn6	Zn	0.121352	-0.458353	1.050814
Zn7	Zn	-0.384035	-1.002032	0.384155
Zn8	Zn	-0.050701	-0.668699	0.717489
Zn9	Zn	0.282632	-0.335366	1.050822
Zn10	Zn	-0.545250	-1.002010	0.545395
Zn11	Zn	-0.211917	-0.668676	0.878728
Zn12	Zn	0.121417	-0.335343	1.212061
O13	O	-0.464649	-1.063540	0.464785
O14	O	-0.131315	-0.730207	0.798118
O15	O	0.202018	-0.396874	1.131452
O16	O	-0.405405	-1.228073	0.524064
O17	O	-0.072072	-0.894740	0.857397
O18	O	0.261261	-0.561407	1.190730
O19	O	-0.523964	-1.108681	0.249167
O20	O	-0.190630	-0.775348	0.582500
O21	O	0.142703	-0.442014	0.915834
O22	O	-0.249048	-1.018400	0.405574
O23	O	0.084285	-0.685067	0.738907
O24	O	0.417619	-0.351734	1.072241
O25	O	-0.523926	-1.228014	0.405561
O26	O	-0.190592	-0.894681	0.738894
O27	O	0.142741	-0.561348	1.072228
O28	O	-0.249019	-1.108818	0.524071
O29	O	0.084314	-0.775484	0.857404
O30	O	0.417648	-0.442151	1.190738
O31	O	-0.405472	-1.018323	0.249173
O32	O	-0.072139	-0.684989	0.582506
O33	O	0.261194	-0.351656	0.915839
O34	O	-0.405410	-0.899045	0.405527
O35	O	-0.072076	-0.565712	0.738860
O36	O	0.261257	-0.232378	1.072194
O37	O	-0.523816	-1.018362	0.680383
O38	O	-0.190482	-0.685029	1.013716
O39	O	0.142851	-0.351695	1.347049
O40	O	-0.523854	-0.899028	0.523989
O41	O	-0.190521	-0.565695	0.857322
O42	O	0.142813	-0.232362	1.190655
O43	O	-0.405343	-1.108796	0.680418
O44	O	-0.072009	-0.775462	1.013751
O45	O	0.261324	-0.442129	1.347085
O46	O	-0.680287	-1.108659	0.405514
O47	O	-0.346954	-0.775326	0.738847
O48	O	-0.013621	-0.441992	1.072181
O49	O	-0.680240	-1.018284	0.523981
O50	O	-0.346907	-0.684951	0.857315
O51	O	-0.013573	-0.351618	1.190648
C52	C	-0.464630	-0.872334	0.464754
C53	C	-0.131296	-0.539001	0.798087
C54	C	0.202037	-0.205667	1.131421
C55	C	-0.464645	-0.790535	0.464764
C56	C	-0.131312	-0.457202	0.798097
C57	C	0.202022	-0.123869	1.131430
C58	C	-0.715263	-1.063481	0.464763
C59	C	-0.381930	-0.730147	0.798096
C60	C	-0.048596	-0.396814	1.131429
C61	C	-0.822477	-1.063522	0.464785
C62	C	-0.489144	-0.730189	0.798119
C63	C	-0.155810	-0.396856	1.131452
C64	C	-0.526414	-0.602352	0.526366
C65	C	-0.193080	-0.269019	0.859699
C66	C	0.140253	0.064315	1.193033
C67	C	-0.526416	-0.525493	0.526377
C68	C	-0.193082	-0.192160	0.859710
C69	C	0.140251	0.141173	1.193043
C70	C	-0.402889	-0.525481	0.403208
C71	C	-0.069556	-0.192147	0.736541
C72	C	0.263778	0.141186	1.069874
C73	C	-0.402883	-0.602338	0.403203
C74	C	-0.069550	-0.269005	0.736536
C75	C	0.263784	0.064329	1.069869
C76	C	-0.464651	-0.640772	0.464780
C77	C	-0.131317	-0.307438	0.798114
C78	C	0.202016	0.025895	1.131447
C79	C	-0.464659	-0.487056	0.464796
C80	C	-0.131326	-0.153722	0.798130
C81	C	0.202008	0.179611	1.131463
C82	C	-0.464661	-0.403722	0.464807
C83	C	-0.131327	-0.070389	0.798141
C84	C	0.202006	0.262945	1.131474
C85	C	-0.464648	-0.724111	0.464771
C86	C	-0.131314	-0.390777	0.798104
C87	C	0.202019	-0.057444	1.131437
C88	C	-0.909547	-1.063558	0.464807
C89	C	-0.576213	-0.730224	0.798141
C90	C	-0.242880	-0.396891	1.131474
C91	C	-1.018779	-1.063609	0.464832
C92	C	-0.685446	-0.730276	0.798166
C93	C	-0.352112	-0.396943	1.131499
C94	C	-0.213056	-1.063620	0.464829
C95	C	0.120278	-0.730287	0.798162
C96	C	0.453611	-0.396954	1.131495
C97	C	-0.105842	-1.063655	0.464847
C98	C	0.227492	-0.730321	0.798181
C99	C	0.560825	-0.396988	1.131514
C100	C	-0.464568	-1.063585	0.716378
C101	C	-0.131234	-0.730252	1.049712
C102	C	0.202099	-0.396919	1.383045
C103	C	-0.464533	-1.063605	0.823592
C104	C	-0.131200	-0.730271	1.156926
C105	C	0.202134	-0.396938	1.490259
C106	C	-0.464665	-0.255493	0.464812
C107	C	-0.131332	0.077840	0.798146
C108	C	0.202002	0.411173	1.131479
C109	C	-0.464664	-0.337292	0.464813
C110	C	-0.131331	-0.003959	0.798146
C111	C	0.202002	0.329375	1.131480
C112	C	-0.464660	-1.063538	0.214171
C113	C	-0.131326	-0.730204	0.547504
C114	C	0.202007	-0.396871	0.880837
C115	C	-0.464422	-1.063661	0.106957
C116	C	-0.131089	-0.730328	0.440291
C117	C	0.202244	-0.396995	0.773624
C118	C	-0.464506	-1.063620	0.910662
C119	C	-0.131172	-0.730286	1.243995
C120	C	0.202161	-0.396953	1.577329
C121	C	-0.464462	-1.063641	1.019895
C122	C	-0.131129	-0.730307	1.353228
C123	C	0.202204	-0.396974	1.686561
H124	H	-0.576708	-0.494215	0.576527
H125	H	-0.243375	-0.160882	0.909861
H126	H	0.089959	0.172451	1.243194
N127	N	-0.589485	-0.641623	0.589271
N128	N	-0.256152	-0.308289	0.922604
N129	N	0.077182	0.025044	1.255938
N130	N	-0.589472	-0.710245	0.589262
N131	N	-0.256139	-0.376911	0.922595
N132	N	0.077194	-0.043578	1.255929
H133	H	-0.634016	-0.737980	0.633692
H134	H	-0.300683	-0.404646	0.967026
H135	H	0.032651	-0.071313	1.300359
N136	N	-0.339804	-0.486209	0.340317
N137	N	-0.006471	-0.152876	0.673651
N138	N	0.326863	0.180458	1.006984
N139	N	-0.339817	-0.417587	0.340329
N140	N	-0.006484	-0.084254	0.673662
N141	N	0.326849	0.249080	1.006995
H142	H	-0.295263	-0.389851	0.295910
H143	H	0.038070	-0.056518	0.629243
H144	H	0.371403	0.276815	0.962576
H145	H	-0.352582	-0.633620	0.353052
H146	H	-0.019249	-0.300287	0.686385
H147	H	0.314085	0.033046	1.019719
