data_functionalizedCrystal
_audit_creation_method	'MofGen! by Chris Wilmer'
_symmetry_space_group_name_H-M	'P1'
_symmetry_Int_Tables_number	1
_symmetry_cell_setting	triclinic
loop_
_symmetry_equiv_pos_as_xyz
  x,y,z
_cell_length_a	19.077115
_cell_length_b	29.839131
_cell_length_c	19.076919
_cell_angle_alpha	87.728385
_cell_angle_beta	89.923103
_cell_angle_gamma	87.738067
loop_
_atom_site_label
_atom_site_type_symbol
_atom_site_fract_x
_atom_site_fract_y
_atom_site_fract_z
Zn1	Zn	1.058167	-0.217337	0.440404
Zn2	Zn	1.558167	0.282663	0.940404
Zn3	Zn	1.062773	-0.289570	0.322897
Zn4	Zn	1.562773	0.210430	0.822897
Zn5	Zn	0.945388	-0.211319	0.318199
Zn6	Zn	1.445388	0.288681	0.818199
Zn7	Zn	0.940595	-0.289299	0.435651
Zn8	Zn	1.440595	0.210701	0.935651
O9	O	1.001731	-0.251881	0.379288
O10	O	1.501731	0.248119	0.879288
O11	O	1.157109	-0.229551	0.428772
O12	O	1.657109	0.270449	0.928772
O13	O	1.051135	-0.276785	0.223943
O14	O	1.551135	0.223215	0.723943
O15	O	0.960427	-0.149253	0.334433
O16	O	1.460427	0.350747	0.834433
O17	O	1.160493	-0.282620	0.342440
O18	O	1.660493	0.217380	0.842440
O19	O	1.043285	-0.153674	0.424217
O20	O	1.543285	0.346326	0.924217
O21	O	0.964893	-0.219294	0.220491
O22	O	1.464893	0.280706	0.720491
O23	O	0.846422	-0.219031	0.329824
O24	O	1.346422	0.280969	0.829824
O25	O	0.952258	-0.282158	0.534613
O26	O	1.452258	0.217842	1.034613
O27	O	0.842900	-0.276323	0.416116
O28	O	1.342900	0.223677	0.916116
O29	O	1.038638	-0.229288	0.538105
O30	O	1.538638	0.270712	1.038105
O31	O	1.046488	-0.352399	0.337831
O32	O	1.546488	0.147601	0.837831
O33	O	0.956724	-0.352200	0.420671
O34	O	1.456724	0.147800	0.920671
C35	C	0.819165	-0.246995	0.371945
C36	C	1.319165	0.253005	0.871945
C37	C	0.741062	-0.244916	0.368820
C38	C	1.241062	0.255084	0.868820
C39	C	0.301618	-0.229984	0.346415
C40	C	0.801618	0.270016	0.846415
C41	C	0.375004	-0.231940	0.349354
C42	C	0.875004	0.268060	0.849354
C43	C	0.409883	-0.262793	0.395679
C44	C	0.909883	0.237207	0.895679
C45	C	0.371371	-0.291687	0.439071
C46	C	0.871371	0.208313	0.939071
C47	C	0.297987	-0.289729	0.436134
C48	C	0.797987	0.210271	0.936134
C49	C	0.629166	-0.271852	0.409275
C50	C	1.129166	0.228148	0.909275
C51	C	0.702556	-0.273809	0.412207
C52	C	1.202556	0.226191	0.912207
C53	C	0.706184	-0.214062	0.322491
C54	C	1.206184	0.285938	0.822491
C55	C	0.632797	-0.212107	0.319555
C56	C	1.132797	0.287893	0.819555
C57	C	0.594292	-0.241001	0.362950
C58	C	1.094292	0.258999	0.862950
N59	N	0.484895	-0.264794	0.398683
N60	N	0.984895	0.235206	0.898683
N61	N	0.519281	-0.238997	0.359949
N62	N	1.019281	0.261003	0.859949
C63	C	1.001604	-0.368600	0.379261
C64	C	1.501604	0.131400	0.879261
C65	C	1.001613	-0.418535	0.379276
C66	C	1.501613	0.081465	0.879276
C67	C	0.955020	-0.775038	0.422421
C68	C	1.455020	-0.275038	0.922421
C69	C	0.954928	-0.587362	0.422395
C70	C	1.454928	-0.087362	0.922395
O71	O	0.915160	-0.563022	0.459059
O72	O	1.415160	-0.063022	0.959059
N73	N	1.001686	-0.563983	0.379300
N74	N	1.501686	-0.063983	0.879300
C75	C	1.048474	-0.587525	0.336211
C76	C	1.548474	-0.087525	0.836211
O77	O	1.088248	-0.563333	0.299561
O78	O	1.588248	-0.063333	0.799561
C79	C	1.048569	-0.775201	0.336241
C80	C	1.548569	-0.275201	0.836241
C81	C	1.001803	-0.798577	0.379334
C82	C	1.501803	-0.298577	0.879334
C83	C	0.908258	-0.798415	0.465511
C84	C	1.408258	-0.298415	0.965511
C85	C	0.908279	-0.845331	0.465514
C86	C	1.408279	-0.345331	0.965514
C87	C	0.955062	-0.868870	0.422427
C88	C	1.455062	-0.368870	0.922427
C89	C	1.001824	-0.845493	0.379337
C90	C	1.501824	-0.345493	0.879337
C91	C	1.095360	-0.798742	0.293157
C92	C	1.595360	-0.298742	0.793157
C93	C	1.095381	-0.845664	0.293170
C94	C	1.595381	-0.345664	0.793170
C95	C	1.048614	-0.869041	0.336262
C96	C	1.548614	-0.369041	0.836262
C97	C	1.048628	-0.915949	0.336254
C98	C	1.548628	-0.415949	0.836254
N99	N	1.001869	-0.939328	0.379349
N100	N	1.501869	-0.439328	0.879349
C101	C	0.955086	-0.915789	0.422436
C102	C	1.455086	-0.415789	0.922436
C103	C	1.048420	-0.488993	0.336198
C104	C	1.548420	0.011007	0.836198
C105	C	1.048396	-0.442074	0.336189
C106	C	1.548396	0.057926	0.836189
C107	C	0.954850	-0.441914	0.422374
C108	C	1.454850	0.058086	0.922374
C109	C	0.954872	-0.488834	0.422378
C110	C	1.454872	0.011166	0.922378
C111	C	1.001662	-0.512372	0.379293
C112	C	1.501662	-0.012372	0.879293
C113	C	0.955133	-1.014316	0.422439
C114	C	1.455133	-0.514316	0.922439
C115	C	0.955156	-1.061236	0.422436
C116	C	1.455156	-0.561236	0.922436
C117	C	1.048704	-1.061392	0.336254
C118	C	1.548704	-0.561392	0.836254
C119	C	1.048679	-1.014476	0.336254
C120	C	1.548679	-0.514476	0.836254
C121	C	1.001891	-0.990939	0.379352
C122	C	1.501891	-0.490939	0.879352
O123	O	1.088380	-0.940318	0.299615
O124	O	1.588380	-0.440318	0.799615
O125	O	0.915329	-0.939989	0.459092
O126	O	1.415329	-0.439989	0.959092
C127	C	0.954999	-0.728122	0.422418
C128	C	1.454999	-0.228122	0.922418
C129	C	1.001761	-0.704745	0.379328
C130	C	1.501761	-0.204745	0.879328
C131	C	1.048544	-0.728284	0.336241
C132	C	1.548544	-0.228284	0.836241
C133	C	1.001737	-0.657827	0.379319
C134	C	1.501737	-0.157827	0.879319
C135	C	0.954954	-0.634287	0.422406
C136	C	1.454954	-0.134287	0.922406
C137	C	0.908195	-0.657667	0.465501
C138	C	1.408195	-0.157667	0.965501
C139	C	0.908216	-0.704583	0.465504
C140	C	1.408216	-0.204583	0.965504
C141	C	1.095302	-0.704905	0.293146
C142	C	1.595302	-0.204905	0.793146
C143	C	1.095277	-0.657989	0.293146
C144	C	1.595277	-0.157989	0.793146
C145	C	1.048494	-0.634450	0.336232
C146	C	1.548494	-0.134450	0.836232
C147	C	1.185010	-0.256787	0.386660
C148	C	1.685010	0.243213	0.886660
C149	C	1.263112	-0.258878	0.389802
C150	C	1.763112	0.241122	0.889802
C151	C	0.994399	-0.256364	0.562568
C152	C	1.494399	0.243636	1.062568
C153	C	0.991275	-0.258275	0.640671
C154	C	1.491275	0.241725	1.140671
C155	C	1.001877	-0.134708	0.379331
C156	C	1.501877	0.365292	0.879331
C157	C	1.001939	-0.084775	0.379349
C158	C	1.501939	0.415225	0.879349
C159	C	1.009074	-0.247384	0.196722
C160	C	1.509074	0.252616	0.696722
C161	C	1.012335	-0.245351	0.118625
C162	C	1.512335	0.254649	0.618625
C163	C	1.034778	-0.231647	0.679184
C164	C	1.534778	0.268353	1.179184
C165	C	1.031834	-0.233440	0.752569
C166	C	1.531834	0.266560	1.252569
C167	C	0.985390	-0.261864	0.787442
C168	C	1.485390	0.238136	1.287442
C169	C	0.941882	-0.288493	0.748924
C170	C	1.441882	0.211507	1.248924
C171	C	0.944823	-0.286697	0.675540
C172	C	1.444823	0.213303	1.175540
C173	C	0.971768	-0.270184	1.006723
C174	C	1.471768	0.229816	1.506723
C175	C	0.968832	-0.271979	1.080113
C176	C	1.468832	0.228021	1.580113
C177	C	1.058783	-0.216925	1.083753
C178	C	1.558783	0.283075	1.583753
C179	C	1.061723	-0.215134	1.010367
C180	C	1.561723	0.284866	1.510367
C181	C	1.018213	-0.241761	0.971856
C182	C	1.518213	0.258239	1.471856
N183	N	0.982381	-0.263698	0.862454
N184	N	1.482381	0.236302	1.362454
N185	N	1.021219	-0.239924	0.896845
N186	N	1.521219	0.260076	1.396845
H187	H	0.597823	-0.295380	0.444608
H188	H	1.097823	0.204620	0.944608
O189	O	1.145860	-0.871045	0.246699
O190	O	1.645860	-0.371045	0.746699
H191	H	1.180338	-0.894111	0.279626
H192	H	1.680338	-0.394111	0.779626
O193	O	1.145766	-0.730286	0.246667
O194	O	1.645766	-0.230286	0.746667
H195	H	1.180250	-0.753355	0.279581
H196	H	1.680250	-0.253355	0.779581
H197	H	0.916757	-0.422741	0.457456
H198	H	1.416757	0.077259	0.957456
H199	H	0.406353	-0.208414	0.314020
H200	H	0.906353	0.291586	0.814020
H201	H	0.904063	-0.311634	0.777323
H202	H	1.404063	0.188366	1.277323
O203	O	1.145726	-0.632780	0.246664
O204	O	1.645726	-0.132780	0.746664
H205	H	1.180176	-0.613102	0.279587
H206	H	1.680176	-0.113102	0.779587
H207	H	0.931009	-0.295126	1.108504
H208	H	1.431009	0.204874	1.608504
H209	H	1.067261	-0.211758	0.783923
H210	H	1.567261	0.288242	1.283923
H211	H	0.917035	-0.995158	0.457534
H212	H	1.417035	-0.495158	0.957534
H213	H	0.737542	-0.190538	0.287162
H214	H	1.237542	0.309462	0.787162
O215	O	0.904714	-1.086452	0.468915
O216	O	1.404714	-0.586452	0.968915
H217	H	0.914512	-1.079104	0.524557
H218	H	1.414512	-0.579104	1.024557
H219	H	1.086524	-0.508154	0.301110
H220	H	1.586524	-0.008154	0.801110
H221	H	1.099545	-0.191990	0.981979
H222	H	1.599545	0.308010	1.481979
O223	O	0.924844	-0.298894	0.965173
O224	O	1.424844	0.201106	1.465173
H225	H	0.890467	-0.276999	0.930318
H226	H	1.390467	0.223001	1.430318
O227	O	1.099116	-0.989258	0.289775
O228	O	1.599116	-0.489258	0.789775
H229	H	1.131652	-1.013511	0.259818
H230	H	1.631652	-0.513511	0.759818
H231	H	1.133442	-0.779716	0.258067
H232	H	1.633442	-0.279716	0.758067
O233	O	1.099182	-1.086785	0.289804
O234	O	1.599182	-0.586785	0.789804
H235	H	1.091348	-1.123338	0.297064
H236	H	1.591348	-0.623338	0.797064
O237	O	0.263993	-0.196712	0.296449
O238	O	0.763993	0.303288	0.796449
H239	H	0.277621	-0.162138	0.309166
H240	H	0.777621	0.337862	0.809166
O241	O	0.857777	-0.729796	0.511984
O242	O	1.357777	-0.229796	1.011984
H243	H	0.867577	-0.722443	0.567624
H244	H	1.367577	-0.222443	1.067624
H245	H	0.870100	-0.638493	0.500582
H246	H	1.370100	-0.138493	1.000582
O247	O	0.897893	-0.315410	0.633995
O248	O	1.397893	0.184590	1.133995
H249	H	0.865103	-0.335477	0.670572
H250	H	1.365103	0.164523	1.170572
H251	H	0.604404	-0.186987	0.281828
H252	H	1.104404	0.313013	0.781828
O253	O	1.084876	-0.200989	0.641578
O254	O	1.584876	0.299011	1.141578
H255	H	1.121946	-0.221236	0.609584
H256	H	1.621946	0.278764	1.109584
O257	O	1.105691	-0.188193	1.125287
O258	O	1.605691	0.311807	1.625287
H259	H	1.095836	-0.194209	1.182174
H260	H	1.595836	0.305791	1.682174
H261	H	0.399775	-0.316806	0.476792
H262	H	0.899775	0.183194	0.976792
O263	O	0.740179	-0.307084	0.462178
O264	O	1.240179	0.192916	0.962178
H265	H	0.701076	-0.326843	0.491866
H266	H	1.201076	0.173157	0.991866
H267	H	0.266635	-0.313256	0.471467
H268	H	0.766635	0.186744	0.971467
H269	H	0.870196	-0.864360	0.500603
H270	H	1.370196	-0.364360	1.000603
H271	H	0.870162	-0.779254	0.500600
H272	H	1.370162	-0.279254	1.000600
H273	H	0.916794	-0.507864	0.457472
H274	H	1.416794	-0.007864	0.957472
H275	H	1.086470	-0.423044	0.301091
H276	H	1.586470	0.076956	0.801091
