data_functionalizedCrystal
_audit_creation_method	'MofGen! by Chris Wilmer'
_symmetry_space_group_name_H-M	'P1'
_symmetry_Int_Tables_number	1
_symmetry_cell_setting	triclinic
loop_
_symmetry_equiv_pos_as_xyz
  x,y,z
_cell_length_a	13.635800
_cell_length_b	11.102188
_cell_length_c	11.102300
_cell_angle_alpha	88.052188
_cell_angle_beta	108.605850
_cell_angle_gamma	71.396125
loop_
_atom_site_label
_atom_site_type_symbol
_atom_site_fract_x
_atom_site_fract_y
_atom_site_fract_z
V1	V	2.055760	-0.175839	0.396257
O2	O	2.035282	0.008450	0.388713
O3	O	2.044144	-0.348659	0.393547
O4	O	2.044151	-0.173134	0.569078
O5	O	2.035275	-0.168290	0.211967
V6	V	2.294312	-0.153795	0.374214
O7	O	2.193430	-0.224192	0.444609
O8	O	2.381741	-0.105442	0.325862
O9	O	2.194325	0.019025	0.376924
O10	O	2.373489	-0.338084	0.381757
O11	O	2.373496	-0.161344	0.558503
O12	O	2.194318	-0.156500	0.201393
V13	V	2.555760	-0.175839	0.396257
O14	O	2.535282	0.008450	0.388713
O15	O	2.544144	-0.348659	0.393547
O16	O	2.544151	-0.173134	0.569078
O17	O	2.535275	-0.168290	0.211967
V18	V	2.794312	-0.153795	0.374214
O19	O	2.693430	-0.224192	0.444609
O20	O	2.881741	-0.105442	0.325862
O21	O	2.694325	0.019025	0.376924
O22	O	2.873489	-0.338084	0.381757
O23	O	2.873496	-0.161344	0.558503
O24	O	2.694318	-0.156500	0.201393
C25	C	1.969299	-0.390788	0.387295
C26	C	2.000528	-0.532071	0.386232
C27	C	1.985116	-0.580297	0.269348
C28	C	2.014471	-0.713048	0.268353
C29	C	2.074648	-0.749338	0.501137
C30	C	2.045300	-0.616589	0.502131
C31	C	2.077569	-0.876826	0.131240
C32	C	2.062138	-0.925053	0.014349
C33	C	1.966904	-0.861792	-0.092165
C34	C	1.887076	-0.750302	-0.081794
C35	C	1.902499	-0.702080	0.035098
C36	C	1.997755	-0.765341	0.141610
C37	C	1.982191	-0.452807	0.639235
C38	C	1.997607	-0.404583	0.756128
C39	C	2.092837	-0.467843	0.862653
C40	C	2.172655	-0.579338	0.852294
C41	C	2.157239	-0.627563	0.735400
C42	C	2.062009	-0.564293	0.628875
C43	C	1.969306	-0.166887	0.611201
C44	C	2.000539	-0.165819	0.752483
C45	C	2.100842	0.061148	0.383172
C46	C	2.059232	0.202429	0.384244
C47	C	2.100834	-0.162751	0.159263
C48	C	2.059220	-0.163812	0.017979
C49	C	2.469299	-0.390788	0.387295
C50	C	2.500528	-0.532071	0.386232
C51	C	2.107218	-0.171665	0.825332
C52	C	2.136558	-0.170657	0.958081
C53	C	1.952531	-0.157963	0.945120
C54	C	1.923190	-0.158961	0.812373
C55	C	2.607204	-0.604919	0.392072
C56	C	2.636544	-0.737670	0.391083
C57	C	2.452521	-0.724712	0.378406
C58	C	2.423185	-0.591965	0.379405
C59	C	2.469306	-0.166887	0.611201
C60	C	2.500539	-0.165819	0.752483
C61	C	2.600842	0.061148	0.383172
C62	C	2.559232	0.202429	0.384244
C63	C	2.600834	-0.162751	0.159263
C64	C	2.559220	-0.163812	0.017979
C65	C	2.607218	-0.171665	0.825332
C66	C	2.636558	-0.170657	0.958081
C67	C	2.452531	-0.157963	0.945120
C68	C	2.423190	-0.158961	0.812373
H69	H	1.948661	-0.511485	0.174975
H70	H	2.127143	-1.015831	0.005914
H71	H	2.250196	-0.630852	0.939036
H72	H	2.155128	-0.928335	0.217960
H73	H	2.723408	-0.796978	0.395841
H74	H	2.389555	-0.773494	0.372845
H75	H	2.670202	-0.177247	0.776574
H76	H	2.336314	-0.154191	0.753055
H77	H	2.723423	-0.175415	1.017389
H78	H	2.111102	-0.818168	0.595498
H79	H	1.889561	-0.152382	0.993899
H80	H	2.222235	-0.718352	0.726972
H81	H	2.336315	-0.532650	0.374653
H82	H	1.837502	-0.611311	0.043544
H83	H	2.389561	-0.152382	0.993899
H84	H	2.223423	-0.175415	1.017389
H85	H	1.809525	-0.698809	-0.168529
H86	H	2.670183	-0.556157	0.397630
H87	H	2.105377	-0.428574	0.957836
H88	H	1.954343	-0.901069	-0.187341
H89	H	1.932603	-0.313805	0.764561
H90	H	1.836314	-0.154191	0.753055
H91	H	1.904644	-0.401287	0.552497
H92	H	2.170202	-0.177247	0.776574
