data_functionalizedCrystal
_audit_creation_method	'MofGen! by Chris Wilmer'
_symmetry_space_group_name_H-M	'P1'
_symmetry_Int_Tables_number	1
_symmetry_cell_setting	triclinic
loop_
_symmetry_equiv_pos_as_xyz
  x,y,z
_cell_length_a	11.026660
_cell_length_b	12.837942
_cell_length_c	10.065875
_cell_angle_alpha	80.276251
_cell_angle_beta	100.697712
_cell_angle_gamma	101.706887
loop_
_atom_site_label
_atom_site_type_symbol
_atom_site_fract_x
_atom_site_fract_y
_atom_site_fract_z
O1	O	1.677802	0.431456	0.113505
O2	O	1.318657	0.380940	0.113505
O3	O	1.490265	0.253810	0.113497
O4	O	1.506194	0.558586	0.113513
O5	O	1.457556	0.278176	-0.113491
O6	O	1.285948	0.405306	-0.113482
O7	O	1.645093	0.455822	-0.113482
Zn8	Zn	1.460327	0.434433	-0.149521
Zn9	Zn	1.503423	0.402329	0.149544
O10	O	1.473485	0.582952	-0.113474
C11	C	1.256014	0.383803	0.000011
C12	C	1.118088	0.356022	0.000011
C13	C	0.910601	0.404028	0.000018
C14	C	1.053154	0.432744	0.000017
C15	C	1.468530	0.226368	0.000004
C16	C	1.452483	0.108297	0.000006
C17	C	1.645403	-0.096667	0.000034
C18	C	1.630332	-0.207605	0.000037
C19	C	1.407270	-0.224522	0.000023
C20	C	1.422342	-0.113583	0.000020
C21	C	1.541412	-0.049659	0.000024
C22	C	1.556481	0.061282	0.000012
C23	C	1.333422	0.044363	0.000008
C24	C	1.318351	-0.066576	0.000010
C25	C	1.707736	0.452958	0.000014
C26	C	1.845663	0.480739	0.000023
C27	C	1.495221	0.610393	0.000022
C28	C	1.511269	0.728464	0.000029
N29	N	1.430925	0.456344	-0.353625
C30	C	1.493184	0.409944	-0.421407
C31	C	1.470566	0.426818	-0.578573
N32	N	1.532834	0.380411	0.353648
H33	H	0.860656	0.317096	-0.000007
Br34	Br	0.928886	0.625643	0.000014
H35	H	1.221408	-0.118638	0.000012
H36	H	1.310331	-0.276589	0.000034
Br37	Br	1.771470	-0.271400	0.000060
Br38	Br	1.649914	0.293677	-0.549165
H39	H	1.653433	0.113329	0.000010
H40	H	1.103089	0.519685	0.000013
Br41	Br	1.314159	0.543367	-0.450821
Br42	Br	1.192279	0.108166	-0.000031
Br43	Br	1.034869	0.211114	-0.000013
Br44	Br	1.806986	-0.009903	-0.000002
H45	H	1.563227	0.357723	-0.363086
H46	H	1.400508	0.479033	-0.636891
