data_functionalizedCrystal
_audit_creation_method	'MofGen! by Chris Wilmer'
_symmetry_space_group_name_H-M	'P1'
_symmetry_Int_Tables_number	1
_symmetry_cell_setting	triclinic
loop_
_symmetry_equiv_pos_as_xyz
  x,y,z
_cell_length_a	27.731993
_cell_length_b	26.809956
_cell_length_c	10.489741
_cell_angle_alpha	90.004681
_cell_angle_beta	96.420217
_cell_angle_gamma	89.997216
loop_
_atom_site_label
_atom_site_type_symbol
_atom_site_fract_x
_atom_site_fract_y
_atom_site_fract_z
O1	O	0.641904	0.041345	-0.151406
O2	O	0.501253	0.041376	-0.174553
O3	O	0.574779	0.041357	0.022760
O4	O	0.568378	0.041364	-0.348720
O5	O	0.574765	-0.041603	0.022730
O6	O	0.501239	-0.041584	-0.174584
O7	O	0.641890	-0.041614	-0.151436
Zn8	Zn	0.571562	-0.054770	-0.163015
Zn9	Zn	0.571581	0.054532	-0.162975
O10	O	0.568364	-0.041595	-0.348750
C11	C	0.483235	-0.000100	-0.174093
C12	C	0.429570	-0.000089	-0.172663
C13	C	0.046352	0.045108	-0.162275
C14	C	0.248044	0.045122	-0.167729
O15	O	0.274128	0.083581	-0.168369
N16	N	0.273261	-0.000098	-0.168428
C17	C	0.248052	-0.045325	-0.167755
O18	O	0.274129	-0.083787	-0.168461
C19	C	0.046362	-0.045338	-0.162292
C20	C	0.021147	-0.000115	-0.161606
C21	C	0.021137	0.090327	-0.161588
C22	C	-0.029283	0.090323	-0.160232
C23	C	-0.054488	0.045100	-0.159563
C24	C	-0.029273	-0.000119	-0.160250
C25	C	0.021154	-0.090564	-0.161610
C26	C	-0.029271	-0.090564	-0.160241
C27	C	-0.054486	-0.045341	-0.159555
C28	C	-0.104899	-0.045346	-0.158224
N29	N	-0.130116	-0.000126	-0.157525
C30	C	-0.104911	0.045097	-0.158195
C31	C	0.353943	-0.045315	-0.170625
C32	C	0.404365	-0.045312	-0.171993
C33	C	0.404353	0.045135	-0.171965
C34	C	0.353929	0.045131	-0.170606
C35	C	0.328726	-0.000095	-0.169927
C36	C	-0.210797	0.045086	-0.155347
C37	C	-0.261222	0.045078	-0.153996
C38	C	-0.261205	-0.045369	-0.154018
C39	C	-0.210785	-0.045361	-0.155376
C40	C	-0.185582	-0.000130	-0.156036
O41	O	-0.131013	-0.083786	-0.157569
O42	O	-0.130995	0.083553	-0.157460
C43	C	0.096772	0.045112	-0.163632
C44	C	0.121987	-0.000107	-0.164319
C45	C	0.096782	-0.045331	-0.163650
C46	C	0.172410	-0.000104	-0.165687
C47	C	0.197615	0.045119	-0.166356
C48	C	0.172398	0.090339	-0.165657
C49	C	0.121978	0.090335	-0.164301
C50	C	0.121999	-0.090551	-0.164349
C51	C	0.172419	-0.090543	-0.165706
C52	C	0.197625	-0.045320	-0.166376
N53	N	0.571553	-0.129366	-0.163041
C54	C	0.604134	-0.474001	-0.075626
C55	C	0.604145	-0.682879	-0.075606
O56	O	0.631827	-0.709889	-0.001291
N57	N	0.571583	-0.708994	-0.162947
C58	C	0.539014	-0.682886	-0.250293
O59	O	0.511315	-0.709891	-0.324572
C60	C	0.539000	-0.474009	-0.250305
C61	C	0.571568	-0.447897	-0.162968
C62	C	0.636698	-0.447888	0.011706
C63	C	0.636697	-0.395672	0.011695
C64	C	0.604131	-0.369568	-0.075647
C65	C	0.571567	-0.395681	-0.162978
C66	C	0.506429	-0.447903	-0.337644
C67	C	0.506428	-0.395680	-0.337638
C68	C	0.538995	-0.369568	-0.250300
C69	C	0.538999	-0.317360	-0.250331
N70	N	0.571561	-0.291245	-0.162990
C71	C	0.604127	-0.317349	-0.075648
C72	C	0.539024	-0.792549	-0.250282
C73	C	0.539028	-0.844768	-0.250280
C74	C	0.604158	-0.844757	-0.075592
C75	C	0.604157	-0.792537	-0.075600
C76	C	0.571586	-0.766434	-0.162941
C77	C	0.604122	-0.207691	-0.075677
C78	C	0.604119	-0.155470	-0.075699
C79	C	0.538987	-0.155486	-0.250382
C80	C	0.538991	-0.207702	-0.250366
C81	C	0.571561	-0.233804	-0.163003
O82	O	0.511329	-0.290317	-0.324597
O83	O	0.631815	-0.290335	-0.001361
C84	C	0.604135	-0.526217	-0.075616
C85	C	0.571571	-0.552329	-0.162947
C86	C	0.539005	-0.526226	-0.250289
C87	C	0.571575	-0.604548	-0.162946
C88	C	0.604140	-0.630652	-0.075604
C89	C	0.636702	-0.604537	0.011737
C90	C	0.636701	-0.552321	0.011726
C91	C	0.506443	-0.552341	-0.337629
C92	C	0.506447	-0.604557	-0.337613
C93	C	0.539013	-0.630661	-0.250271
C94	C	0.659907	-0.000137	-0.151896
C95	C	0.713573	-0.000145	-0.153327
C96	C	0.574288	-0.000123	0.070256
C97	C	0.572842	-0.000121	0.211821
N98	N	0.571593	0.129128	-0.162939
C99	C	0.568854	-0.000115	-0.396245
C100	C	0.570301	-0.000113	-0.537810
C101	C	0.526060	-0.000108	0.277880
C102	C	0.548152	-0.041016	0.370971
C103	C	0.548177	0.040776	0.370976
C104	C	0.594954	-0.041063	0.303047
C105	C	0.594972	0.040765	0.303042
C106	C	0.617099	-0.000153	0.396106
H107	H	0.041676	-0.127390	-0.162164
Cl108	Cl	0.676537	-0.000199	0.475062
Cl109	Cl	0.436049	0.101987	-0.172809
Cl110	Cl	0.625482	-0.094519	0.256791
H111	H	0.333403	0.081956	-0.170048
H112	H	0.528352	-0.075592	0.401090
H113	H	-0.190255	-0.082186	-0.155959
Cl114	Cl	-0.060974	0.147179	-0.159357
Cl115	Cl	0.625517	0.094151	0.256482
Cl116	Cl	0.204111	-0.147401	-0.166577
Cl117	Cl	0.498049	-0.122661	-0.360180
Cl118	Cl	-0.060953	-0.147423	-0.159378
H119	H	0.479910	-0.469156	-0.408762
Cl120	Cl	0.465478	-0.362869	-0.447444
Cl121	Cl	0.517612	0.094169	0.417474
H122	H	0.101482	-0.127378	-0.163797
H123	H	0.630641	-0.134211	-0.004578
H124	H	-0.281750	0.081905	-0.153442
H125	H	-0.190283	0.081917	-0.155887
Cl126	Cl	0.204094	0.147190	-0.166503
H127	H	-0.281737	-0.082188	-0.153478
H128	H	0.424890	-0.082137	-0.172573
Cl129	Cl	0.052815	0.147187	-0.162429
Cl130	Cl	0.465503	-0.637378	-0.447425
Cl131	Cl	0.498091	-0.877589	-0.360097
Cl132	Cl	0.322264	-0.102177	-0.169790
Cl133	Cl	0.466675	-0.000155	0.198581
H134	H	0.630676	-0.771280	-0.004482
H135	H	0.101452	0.127160	-0.163743
Cl136	Cl	0.677644	-0.519501	0.121530
Cl137	Cl	0.645068	-0.240496	0.034151
H138	H	0.663215	-0.374415	0.082816
H139	H	0.663217	-0.469138	0.082836
H140	H	0.630676	-0.866020	-0.004476
H141	H	0.479923	-0.531091	-0.408752
H142	H	0.512500	-0.771300	-0.321409
Cl143	Cl	0.677643	-0.637364	0.121534
Cl144	Cl	0.498053	-0.240528	-0.360179
