data_functionalizedCrystal
_audit_creation_method	'MofGen! by Chris Wilmer'
_symmetry_space_group_name_H-M	'P1'
_symmetry_Int_Tables_number	1
_symmetry_cell_setting	triclinic
loop_
_symmetry_equiv_pos_as_xyz
  x,y,z
_cell_length_a	8.597340
_cell_length_b	17.699083
_cell_length_c	16.176319
_cell_angle_alpha	90.007696
_cell_angle_beta	97.694727
_cell_angle_gamma	95.684911
loop_
_atom_site_label
_atom_site_type_symbol
_atom_site_fract_x
_atom_site_fract_y
_atom_site_fract_z
O1	O	2.081962	-0.112959	0.079549
O2	O	1.625007	-0.121626	0.046998
O3	O	1.866394	-0.007210	0.064200
O4	O	1.840574	-0.227375	0.062346
O5	O	1.866361	-0.007202	0.201691
O6	O	1.624973	-0.121618	0.184489
O7	O	2.081929	-0.112951	0.217039
Cu8	Cu	1.853448	-0.117284	0.213318
Cu9	Cu	1.853487	-0.117293	0.050719
O10	O	1.840541	-0.227367	0.199837
C11	C	1.566523	-0.120692	0.111579
C12	C	1.392311	-0.117910	0.099169
C13	C	1.865453	0.020998	0.132880
C14	C	1.862677	0.105039	0.132682
C15	C	2.140412	-0.113885	0.152457
C16	C	2.314624	-0.116667	0.164861
C17	C	1.841483	-0.255575	0.131156
C18	C	1.844258	-0.339617	0.131348
N19	N	1.853432	-0.117277	0.327682
C20	C	2.004367	0.152487	0.142777
C21	C	2.001749	0.231452	0.142583
C22	C	1.857441	0.262968	0.132301
C23	C	1.715740	0.215514	0.122203
C24	C	1.718359	0.136551	0.122391
C25	C	1.705175	0.533965	0.121444
C26	C	1.702567	0.612935	0.121259
C27	C	1.988565	0.628866	0.141636
C28	C	1.991184	0.549902	0.141824
C29	C	1.849485	0.502456	0.131722
C30	C	1.852324	0.416833	0.131931
C31	C	1.854599	0.348589	0.132098
N32	N	1.853516	-0.117294	-0.063644
C33	C	1.960351	-0.066635	0.378566
C34	C	1.960359	-0.066634	0.465113
C35	C	1.853454	-0.117280	0.500776
C36	C	1.746524	-0.167924	0.449886
C37	C	1.746510	-0.167921	0.363339
C38	C	1.746578	-0.167939	0.798918
C39	C	1.746604	-0.167940	0.885471
C40	C	1.960427	-0.066653	0.900692
C41	C	1.960412	-0.066649	0.814146
C42	C	1.853478	-0.117290	0.763262
C43	C	1.853468	-0.117290	0.669417
C44	C	1.853470	-0.117285	0.594620
H45	H	1.381391	-0.117726	0.230599
H46	H	1.659543	-0.209183	0.914505
C47	C	2.144439	0.681056	0.152739
H48	H	2.230756	0.650975	0.158898
H49	H	2.149385	0.712184	0.105143
H50	H	2.149347	0.712196	0.201040
C51	C	1.628882	-0.223612	0.489106
H52	H	1.565179	-0.253761	0.446402
H53	H	1.685165	-0.255562	0.526876
H54	H	1.563685	-0.195858	0.518222
C55	C	1.302125	-0.116480	0.010354
H56	H	1.374225	-0.117629	-0.029192
H57	H	1.226131	-0.159480	0.001865
H58	H	1.250400	-0.071437	0.003594
C59	C	2.078002	-0.010937	0.774920
H60	H	2.141671	0.019230	0.817620
H61	H	2.143214	-0.038660	0.745788
H62	H	2.021651	0.021005	0.737161
H63	H	2.121880	0.126833	0.151155
C64	C	2.157608	0.283641	0.153695
H65	H	2.243927	0.253561	0.159858
H66	H	2.162559	0.314771	0.106101
H67	H	2.162507	0.314779	0.201997
H68	H	1.589794	0.495343	0.113219
C69	C	2.149923	0.515238	0.153130
H70	H	2.233936	0.554807	0.159106
H71	H	2.156883	0.484770	0.201572
H72	H	2.156891	0.484762	0.105672
H73	H	1.585047	0.638592	0.112888
H74	H	1.598242	0.241181	0.113826
C75	C	1.562501	0.084359	0.111290
H76	H	1.476180	0.114437	0.105146
H77	H	1.557591	0.053218	0.062993
H78	H	1.557565	0.053230	0.158891
C79	C	2.077945	-0.010923	0.339344
H80	H	2.141612	0.019242	0.382046
H81	H	2.143160	-0.038646	0.310213
H82	H	2.021600	0.021020	0.301585
C83	C	2.077984	-0.010935	0.521083
H84	H	2.141666	0.019219	0.487449
H85	H	2.021680	0.021008	0.550849
H86	H	2.143204	-0.038676	0.559474
H87	H	2.047494	-0.025415	0.942131
H88	H	1.659511	-0.209174	0.757496
H89	H	1.659444	-0.209158	0.321910
