data_functionalizedCrystal
_audit_creation_method	'MofGen! by Chris Wilmer'
_symmetry_space_group_name_H-M	'P1'
_symmetry_Int_Tables_number	1
_symmetry_cell_setting	triclinic
loop_
_symmetry_equiv_pos_as_xyz
  x,y,z
_cell_length_a	19.121102
_cell_length_b	21.295417
_cell_length_c	19.121595
_cell_angle_alpha	87.530324
_cell_angle_beta	85.004847
_cell_angle_gamma	87.584620
loop_
_atom_site_label
_atom_site_type_symbol
_atom_site_fract_x
_atom_site_fract_y
_atom_site_fract_z
Zn1	Zn	1.092604	-0.275507	-0.443657
Zn2	Zn	1.087490	-0.385079	-0.325979
Zn3	Zn	0.969926	-0.275515	-0.320992
Zn4	Zn	0.974894	-0.376428	-0.438594
O5	O	1.031228	-0.328132	-0.382306
O6	O	1.190389	-0.293659	-0.432253
O7	O	1.067675	-0.374169	-0.226852
O8	O	0.986260	-0.187426	-0.337296
O9	O	1.186631	-0.374160	-0.345795
O10	O	1.076392	-0.187420	-0.427417
O11	O	0.981301	-0.293673	-0.223189
O12	O	0.872121	-0.285285	-0.332387
O13	O	0.994728	-0.359416	-0.537731
O14	O	0.875771	-0.359425	-0.418788
O15	O	1.081209	-0.285270	-0.541451
O16	O	1.072492	-0.472019	-0.340886
O17	O	0.989768	-0.465664	-0.423624
C18	C	0.848416	-0.321417	-0.374497
C19	C	0.770209	-0.318559	-0.371174
C20	C	0.735382	-0.355881	-0.414526
C21	C	0.661899	-0.353187	-0.411406
C22	C	0.623242	-0.313174	-0.364930
C23	C	0.658073	-0.275849	-0.321576
C24	C	0.731556	-0.278540	-0.324700
C25	C	0.401276	-0.303112	-0.353255
C26	C	0.327789	-0.300425	-0.350133
C27	C	0.331619	-0.377762	-0.439965
C28	C	0.405103	-0.380452	-0.443081
C29	C	0.439928	-0.343125	-0.399730
C30	C	0.548130	-0.310421	-0.361739
C31	C	0.515039	-0.345875	-0.402925
C32	C	1.031134	-0.491682	-0.382263
C33	C	1.031160	-0.561651	-0.382271
C34	C	1.074276	-0.597806	-0.339237
C35	C	1.074309	-0.663549	-0.339254
C36	C	1.031214	-0.693134	-0.382297
C37	C	0.988095	-0.656971	-0.425340
C38	C	0.988068	-0.591229	-0.425326
N39	N	0.969890	-0.793947	-0.385032
N40	N	0.969918	-0.856399	-0.385041
C41	C	1.031294	-0.891210	-0.382341
N42	N	1.092643	-0.861211	-0.379618
N43	N	1.092615	-0.798753	-0.379606
C44	C	1.031239	-0.764420	-0.382317
C45	C	1.074451	-0.998652	-0.339324
C46	C	1.074486	-1.064396	-0.339346
C47	C	0.988265	-1.057817	-0.425427
C48	C	0.988236	-0.992074	-0.425409
C49	C	1.031328	-0.962495	-0.382353
C50	C	1.214754	-0.334874	-0.390145
C51	C	1.292962	-0.337746	-0.393485
C52	C	1.039093	-0.321377	-0.565836
C53	C	1.042444	-0.318499	-0.644045
C54	C	1.031342	-0.163944	-0.382365
C55	C	1.031391	-0.093977	-0.382390
C56	C	0.998994	-0.355747	-0.678853
C57	C	1.002148	-0.353043	-0.752339
C58	C	1.048751	-0.313086	-0.791017
C59	C	1.092207	-0.275836	-0.756204
C60	C	1.089055	-0.278544	-0.682719
C61	C	1.060523	-0.302981	-1.012991
C62	C	1.063670	-0.300274	-1.086480
C63	C	0.973613	-0.377482	-1.082611
C64	C	0.970462	-0.380184	-1.009124
C65	C	1.013920	-0.342937	-0.974318
C66	C	1.051975	-0.310319	-0.866131
C67	C	1.010699	-0.345707	-0.899205
C68	C	1.023435	-0.334817	-0.199491
C69	C	1.020220	-0.337523	-0.121288
H70	H	0.303256	-0.408151	-0.475260
O71	O	0.946308	-0.956882	-0.467106
C72	C	0.899150	-0.918730	-0.425058
H73	H	0.921722	-0.911758	-0.372814
H74	H	0.890906	-0.871094	-0.453297
H75	H	0.846690	-0.942485	-0.415063
H76	H	0.966767	-0.383376	-0.780676
O77	O	0.290301	-0.261589	-0.304899
C78	C	0.305202	-0.278482	-0.235494
H79	H	0.358483	-0.304678	-0.236236
H80	H	0.306368	-0.234251	-0.204153
H81	H	0.262807	-0.310176	-0.209972
H82	H	0.766851	-0.388465	-0.452370
H83	H	1.095910	-0.272652	-0.984661
H84	H	0.429622	-0.272722	-0.317950
O85	O	0.946330	-0.685779	-0.467189
C86	C	0.988319	-0.723539	-0.514395
H87	H	1.040604	-0.736223	-0.491901
H88	H	0.960073	-0.768390	-0.522585
H89	H	0.998234	-0.696539	-0.566870
O90	O	1.108848	-0.261392	-1.124083
C91	C	1.070644	-0.217705	-1.164906
H92	H	1.014282	-0.212587	-1.140391
H93	H	1.096171	-0.170170	-1.166850
H94	H	1.070585	-0.235032	-1.220487
H95	H	0.932525	-0.412731	-0.977638
O96	O	0.931476	-0.413645	-1.116533
C97	C	0.944236	-0.402678	-1.189686
H98	H	0.998980	-0.383684	-1.202048
H99	H	0.940631	-0.448626	-1.217395
H100	H	0.903416	-0.366857	-1.208769
O101	O	0.442545	-0.419334	-0.488291
C102	C	0.396048	-0.451711	-0.525874
H103	H	0.343788	-0.423921	-0.526141
H104	H	0.419665	-0.457244	-0.582200
H105	H	0.387092	-0.500147	-0.499671
H106	H	0.626594	-0.243267	-0.283737
H107	H	1.130155	-0.243306	-0.787701
H108	H	0.952957	-0.561791	-0.460370
O109	O	0.510645	-0.271595	-0.316498
C110	C	0.525546	-0.288502	-0.247097
H111	H	0.578824	-0.314701	-0.247844
H112	H	0.526715	-0.244277	-0.215746
H113	H	0.483149	-0.320197	-0.221581
O114	O	1.116103	-0.569147	-0.297321
C115	C	1.097772	-0.587260	-0.226527
H116	H	1.070676	-0.634076	-0.223900
H117	H	1.147231	-0.592509	-0.197189
H118	H	1.060589	-0.549844	-0.201244
H119	H	0.759911	-0.248146	-0.289401
H120	H	0.546516	-0.378450	-0.440769
O121	O	1.116376	-0.970015	-0.297485
C122	C	1.154432	-1.016028	-0.259496
H123	H	1.158104	-1.061903	-0.288435
H124	H	1.209546	-0.999296	-0.254395
H125	H	1.126419	-1.024092	-0.204939
H126	H	1.109422	-0.692992	-0.304211
O127	O	1.131288	-0.242297	-0.649014
C128	C	1.173109	-0.206460	-0.698908
H129	H	1.146537	-0.201290	-0.750061
H130	H	1.179741	-0.157923	-0.678010
H131	H	1.226867	-0.231189	-0.708999
H132	H	1.109601	-1.093833	-0.304304
O133	O	0.946424	-1.086648	-0.467177
C134	C	0.955709	-1.152427	-0.457979
H135	H	0.976472	-1.164257	-0.404683
H136	H	0.903215	-1.175348	-0.460468
H137	H	0.994946	-1.170868	-0.501348
O138	O	0.965513	-0.384615	-0.861669
C139	C	0.981605	-0.447256	-0.880272
H140	H	1.038676	-0.451753	-0.902883
H141	H	0.973461	-0.479910	-0.831674
H142	H	0.945690	-0.460757	-0.921302
H143	H	0.961036	-0.388277	-0.647366
O144	O	1.097201	-0.271417	-0.903627
C145	C	1.081084	-0.208772	-0.885053
H146	H	1.051753	-0.208435	-0.830542
H147	H	1.131775	-0.182500	-0.884724
H148	H	1.046692	-0.184724	-0.924874
H149	H	0.633546	-0.383578	-0.446708
