data_functionalizedCrystal
_audit_creation_method	'MofGen! by Chris Wilmer'
_symmetry_space_group_name_H-M	'P1'
_symmetry_Int_Tables_number	1
_symmetry_cell_setting	triclinic
loop_
_symmetry_equiv_pos_as_xyz
  x,y,z
_cell_length_a	19.188930
_cell_length_b	14.853569
_cell_length_c	13.930277
_cell_angle_alpha	90.000531
_cell_angle_beta	89.978906
_cell_angle_gamma	96.609827
loop_
_atom_site_label
_atom_site_type_symbol
_atom_site_fract_x
_atom_site_fract_y
_atom_site_fract_z
O1	O	-0.926523	0.112552	0.080131
O2	O	-0.723263	0.127703	0.080064
O3	O	-0.830322	-0.011132	0.080103
O4	O	-0.819464	0.251388	0.080092
O5	O	-0.830307	-0.011135	-0.079559
O6	O	-0.723248	0.127701	-0.079598
O7	O	-0.926509	0.112549	-0.079531
Zn8	Zn	-0.824876	0.120124	-0.104914
Zn9	Zn	-0.824895	0.120128	0.105447
O10	O	-0.819449	0.251385	-0.079569
C11	C	-0.697243	0.127211	0.000225
C12	C	-0.619733	0.125738	0.000200
C13	C	-0.829822	-0.044720	0.000275
C14	C	-0.828348	-0.144795	0.000283
C15	C	-0.952529	0.113041	0.000311
C16	C	-1.030038	0.114514	0.000342
C17	C	-0.575081	0.207203	0.000212
C18	C	-0.502253	0.205819	0.000222
C19	C	-0.474080	0.122966	0.000240
C20	C	-0.518741	0.041491	0.000223
C21	C	-0.591568	0.042877	0.000203
N22	N	-0.365893	0.059637	0.054621
N23	N	-0.296710	0.058326	0.054643
C24	C	-0.254657	0.118785	0.000299
N25	N	-0.284399	0.180619	-0.054054
N26	N	-0.353588	0.181933	-0.054071
C27	C	-0.395112	0.121454	0.000262
C28	C	-0.131036	0.198755	0.000321
C29	C	-0.058206	0.197367	0.000326
C30	C	-0.074696	0.033038	0.000336
C31	C	-0.147524	0.034427	0.000322
C32	C	-0.175689	0.117288	0.000319
C33	C	-0.819949	0.284972	0.000261
C34	C	-0.821424	0.385047	0.000259
N35	N	-0.824868	0.120121	-0.248480
C36	C	-0.885711	0.421067	0.000277
C37	C	-0.758522	0.443063	0.000246
C38	C	-0.759905	0.537090	0.000250
C39	C	-0.824193	0.573109	0.000268
C40	C	-0.887097	0.515101	0.000283
C41	C	-0.697003	0.595104	0.000244
C42	C	-0.698384	0.689137	0.000248
C43	C	-0.762672	0.725157	0.000260
C44	C	-0.825578	0.667144	0.000274
C45	C	-0.889866	0.703163	0.000292
C46	C	-0.952773	0.645151	0.000300
C47	C	-0.951385	0.551122	0.000295
C48	C	-0.764060	0.819186	0.000265
C49	C	-0.891251	0.797198	0.000298
C50	C	-0.777488	0.181580	-0.700766
C51	C	-0.872322	0.058669	-0.700701
C52	C	-0.872314	0.058666	-0.600206
C53	C	-0.824893	0.120122	-0.549986
C54	C	-0.777479	0.181581	-0.600261
C55	C	-0.919731	-0.002786	-0.549923
C56	C	-0.919725	-0.002791	-0.449421
C57	C	-0.872300	0.058662	-0.399199
C58	C	-0.824884	0.120123	-0.449481
C59	C	-0.777463	0.181579	-0.399261
C60	C	-0.730043	0.243037	-0.449541
C61	C	-0.730054	0.243034	-0.550039
C62	C	-0.872289	0.058665	-0.298700
C63	C	-0.777454	0.181580	-0.298756
N64	N	-0.824909	0.120124	0.249014
H65	H	-0.598008	0.274674	0.000211
H66	H	-0.706182	0.413730	0.000239
Cl67	Cl	-0.002071	0.299790	0.000336
Cl68	Cl	-0.616190	0.549818	0.000243
Cl69	Cl	-0.972075	0.842470	0.000315
H70	H	-0.495798	-0.025968	0.000251
H71	H	-1.005116	0.674490	0.000333
H72	H	-0.958336	-0.052833	-0.408489
H73	H	-1.002601	0.503881	0.000302
H74	H	-0.691447	0.293071	-0.590984
H75	H	-0.910900	0.008631	-0.257767
H76	H	-0.153969	0.266225	0.000305
H77	H	-0.627925	-0.023463	0.000194
Cl78	Cl	-0.446109	0.308239	0.000235
H79	H	-0.936929	0.373829	0.000280
H80	H	-0.738835	0.231623	-0.257872
H81	H	-0.051759	-0.034423	0.000410
Cl82	Cl	-0.717875	0.258835	-0.763970
Cl83	Cl	-0.203661	-0.067991	0.000313
Cl84	Cl	-0.684984	0.892110	0.000261
H85	H	-0.647161	0.736363	0.000241
H86	H	-0.910935	0.008637	-0.741594
H87	H	-0.691435	0.293079	-0.408640
Cl88	Cl	-0.979349	-0.080037	-0.613054
