data_functionalizedCrystal
_audit_creation_method	'MofGen! by Chris Wilmer'
_symmetry_space_group_name_H-M	'P1'
_symmetry_Int_Tables_number	1
_symmetry_cell_setting	triclinic
loop_
_symmetry_equiv_pos_as_xyz
  x,y,z
_cell_length_a	11.026607
_cell_length_b	14.519709
_cell_length_c	10.065875
_cell_angle_alpha	98.804604
_cell_angle_beta	79.302338
_cell_angle_gamma	96.133081
loop_
_atom_site_label
_atom_site_type_symbol
_atom_site_fract_x
_atom_site_fract_y
_atom_site_fract_z
O1	O	1.628737	0.375708	-0.113512
O2	O	1.275335	0.331718	-0.113511
O3	O	1.461404	0.221020	-0.113499
O4	O	1.442668	0.486407	-0.113524
O5	O	1.425923	0.242237	0.113487
O6	O	1.239855	0.352935	0.113475
O7	O	1.593256	0.396926	0.113475
Zn8	Zn	1.410922	0.378299	0.149514
Zn9	Zn	1.457669	0.350345	-0.149550
O10	O	1.407187	0.507624	0.113463
C11	C	1.212366	0.334211	-0.000018
C12	C	1.077600	0.310019	-0.000017
C13	C	1.442790	0.197125	-0.000006
C14	C	1.440173	0.094312	-0.000005
C15	C	1.003940	0.376818	-0.000024
C16	C	0.864652	0.351815	-0.000024
C17	C	1.430544	-0.282174	-0.000040
C18	C	1.433218	-0.177425	-0.000030
C19	C	1.435358	-0.093934	-0.000021
C20	C	1.438033	0.010822	-0.000014
C21	C	1.656225	0.394432	-0.000022
C22	C	1.790993	0.418624	-0.000031
C23	C	1.425802	0.531519	-0.000034
C24	C	1.428420	0.634330	-0.000043
N25	N	1.379027	0.397378	0.353617
N26	N	1.489574	0.331260	-0.353654
C27	C	1.446564	0.356976	0.421401
C28	C	1.422027	0.371668	0.578566
H29	H	0.824606	0.276108	-0.000052
C30	C	1.023500	0.207751	-0.000009
C31	C	1.071006	0.132467	-0.117870
C32	C	1.016911	0.030196	-0.117862
C33	C	0.915310	0.003209	0.000009
C34	C	0.867799	0.078495	0.117879
C35	C	0.921894	0.180766	0.117870
H36	H	1.146222	0.152442	-0.205133
H37	H	1.052082	-0.025535	-0.205118
H38	H	0.875265	-0.072497	0.000015
H39	H	0.792583	0.058519	0.205141
H40	H	0.886722	0.236497	0.205126
H41	H	1.043996	0.452517	-0.000024
H42	H	0.831041	0.494329	-0.000029
C43	C	1.319364	0.433096	0.657336
C44	C	1.351962	0.520604	0.755587
C45	C	1.249302	0.582031	0.834358
C46	C	1.114044	0.555950	0.814877
C47	C	1.081440	0.468438	0.716622
C48	C	1.184100	0.407011	0.637851
H49	H	1.452093	0.539915	0.770012
H50	H	1.273438	0.646813	0.907093
H51	H	1.038049	0.601422	0.873188
H52	H	0.981309	0.449128	0.702197
H53	H	1.159964	0.342229	0.565115
C54	C	1.276370	0.458803	0.432392
C55	C	1.308967	0.546311	0.530644
C56	C	1.206307	0.607738	0.609414
C57	C	1.071050	0.581657	0.589934
C58	C	1.038446	0.494145	0.491678
C59	C	1.141106	0.432718	0.412907
H60	H	1.409099	0.565622	0.545068
H61	H	1.230444	0.672520	0.682150
H62	H	0.995055	0.627129	0.648244
H63	H	0.938314	0.474835	0.477253
H64	H	1.116969	0.367936	0.340172
H65	H	1.522548	0.311504	0.363081
H66	H	1.565562	0.285786	0.588030
