data_functionalizedCrystal
_audit_creation_method	'MofGen! by Chris Wilmer'
_symmetry_space_group_name_H-M	'P1'
_symmetry_Int_Tables_number	1
_symmetry_cell_setting	triclinic
loop_
_symmetry_equiv_pos_as_xyz
  x,y,z
_cell_length_a	18.215407
_cell_length_b	18.050583
_cell_length_c	18.215405
_cell_angle_alpha	90.038858
_cell_angle_beta	89.977656
_cell_angle_gamma	89.986780
loop_
_atom_site_label
_atom_site_type_symbol
_atom_site_fract_x
_atom_site_fract_y
_atom_site_fract_z
Zn1	Zn	1.125045	-0.419844	0.292981
Zn2	Zn	1.124962	-0.295648	0.416071
Zn3	Zn	1.001986	-0.295674	0.293017
Zn4	Zn	1.001944	-0.419803	0.416005
O5	O	1.063484	-0.357742	0.354519
O6	O	1.228018	-0.403375	0.309322
O7	O	1.108631	-0.191727	0.399789
O8	O	1.018362	-0.312173	0.190028
O9	O	1.227957	-0.312129	0.399755
O10	O	1.108774	-0.403400	0.190002
O11	O	1.018281	-0.191746	0.309382
O12	O	0.898996	-0.312133	0.309319
O13	O	1.018291	-0.523733	0.399644
O14	O	0.898965	-0.403330	0.399678
O15	O	1.108733	-0.523763	0.309259
O16	O	1.108590	-0.312090	0.519046
O17	O	1.018210	-0.403305	0.518998
C18	C	0.872278	-0.357731	0.354496
C19	C	0.790479	-0.357743	0.354504
C20	C	0.525424	-0.405163	0.401646
C21	C	0.602283	-0.405160	0.401640
C22	C	0.602285	-0.310334	0.307408
C23	C	0.525427	-0.310335	0.307418
C24	C	0.486999	-0.357753	0.354536
C25	C	0.640715	-0.357749	0.354519
C26	C	0.724049	-0.357745	0.354512
C27	C	0.403660	-0.357757	0.354545
C28	C	1.063517	-0.551448	0.354440
C29	C	1.063530	-0.633994	0.354407
C30	C	1.112762	-0.833461	0.305231
C31	C	1.045640	-0.882860	0.287217
C32	C	1.063560	-0.785124	0.354394
C33	C	1.130709	-0.882807	0.372362
C34	C	1.063594	-0.931109	0.354380
C35	C	0.996402	-0.833436	0.336344
C36	C	1.081516	-0.833379	0.421521
C37	C	1.014348	-0.882755	0.403532
C38	C	1.063541	-0.701026	0.354400
C39	C	1.063606	-1.015206	0.354374
C40	C	1.255437	-0.357754	0.354542
C41	C	1.337236	-0.357759	0.354552
C42	C	1.063406	-0.357706	0.545725
C43	C	1.063440	-0.357716	0.627524
C44	C	1.063494	-0.164790	0.354544
C45	C	1.063623	-0.082245	0.354370
C46	C	1.063582	-0.357794	0.162566
C47	C	1.063624	-0.357816	0.080767
C48	C	1.110612	-0.310307	0.815718
C49	C	1.110645	-0.310325	0.892577
C50	C	1.016450	-0.405230	0.892567
C51	C	1.016421	-0.405216	0.815710
C52	C	1.063501	-0.357750	0.777287
C53	C	1.063563	-0.357783	0.931003
C54	C	1.063598	-0.357802	1.014337
C55	C	1.063467	-0.357731	0.693948
H56	H	0.494141	-0.271724	0.269055
H57	H	0.494139	-0.443774	0.440012
H58	H	1.154303	-0.811814	0.263630
H59	H	0.978058	-0.443853	0.784417
H60	H	0.939614	-0.811840	0.321075
H61	H	0.633566	-0.443765	0.440002
H62	H	0.633582	-0.271729	0.269045
H63	H	0.972706	-0.904263	0.445101
H64	H	1.030463	-0.904594	0.230443
Br65	Br	1.106846	-0.797124	0.516122
H66	H	1.187481	-0.904497	0.387564
H67	H	1.148948	-0.271659	0.784436
H68	H	1.149008	-0.271694	0.923864
H69	H	0.978118	-0.443874	0.923860
