data_functionalizedCrystal
_audit_creation_method	'MofGen! by Chris Wilmer'
_symmetry_space_group_name_H-M	'P1'
_symmetry_Int_Tables_number	1
_symmetry_cell_setting	triclinic
loop_
_symmetry_equiv_pos_as_xyz
  x,y,z
_cell_length_a	12.784905
_cell_length_b	12.837942
_cell_length_c	9.482900
_cell_angle_alpha	100.328050
_cell_angle_beta	81.701790
_cell_angle_gamma	83.968130
loop_
_atom_site_label
_atom_site_type_symbol
_atom_site_fract_x
_atom_site_fract_y
_atom_site_fract_z
O1	O	1.425755	-0.011129	-0.120904
O2	O	1.120756	0.032863	-0.120905
O3	O	1.266491	-0.139425	-0.120895
O4	O	1.280020	0.161159	-0.120913
O5	O	1.236902	-0.104301	0.120895
O6	O	1.091167	0.067987	0.120886
O7	O	1.396166	0.023995	0.120887
Cu8	Cu	1.240965	0.049198	0.142964
Cu9	Cu	1.275957	0.007660	-0.142981
O10	O	1.250430	0.196283	0.120878
C11	C	1.066652	0.053286	-0.000009
C12	C	0.949520	0.061799	-0.000009
C13	C	0.735571	-0.111646	-0.000025
C14	C	0.625516	-0.103652	-0.000025
C15	C	0.619354	0.085778	-0.000021
C16	C	0.729409	0.077784	-0.000020
C17	C	0.787514	-0.020931	-0.000020
C18	C	0.897570	-0.028922	-0.000010
C19	C	0.891407	0.160506	-0.000015
C20	C	0.781352	0.168500	-0.000016
C21	C	1.247128	-0.160072	-0.000001
C22	C	1.233500	-0.273921	-0.000003
C23	C	1.397335	-0.529651	-0.000033
C24	C	1.384536	-0.636623	-0.000035
C25	C	1.195104	-0.594842	-0.000021
C26	C	1.207904	-0.487869	-0.000018
C27	C	1.309022	-0.455278	-0.000022
C28	C	1.321819	-0.348302	-0.000009
C29	C	1.132390	-0.306524	-0.000005
C30	C	1.119590	-0.413497	-0.000008
C31	C	1.450271	0.003571	-0.000011
C32	C	1.567403	-0.004943	-0.000021
C33	C	1.269795	0.216929	-0.000020
C34	C	1.283423	0.330777	-0.000027
N35	N	1.216360	0.078413	0.344082
N36	N	1.300569	-0.021564	-0.344100
C37	C	1.268692	0.016272	0.416285
C38	C	1.248230	0.040586	0.583701
H39	H	0.583229	-0.177522	-0.000032
H40	H	0.572028	0.166144	-0.000040
Cl41	Cl	0.992479	-0.454482	-0.000015
Cl42	Cl	1.360996	-0.093869	0.320378
H43	H	1.188269	0.111789	0.645822
H44	H	1.360521	-0.092773	0.593779
Cl45	Cl	0.708297	0.292590	-0.000024
Cl46	Cl	1.021359	-0.213017	0.000027
H47	H	0.933709	0.234374	-0.000004
H48	H	1.404154	-0.321768	-0.000007
Cl49	Cl	1.524447	-0.488669	-0.000002
Cl50	Cl	1.123790	0.188341	0.439990
Cl51	Cl	1.068000	-0.635840	-0.000059
Cl52	Cl	1.495564	-0.730119	-0.000053
Cl53	Cl	0.808618	-0.235738	-0.000005
H54	H	0.944877	-0.109301	-0.000007
