data_functionalizedCrystal
_audit_creation_method	'MofGen! by Chris Wilmer'
_symmetry_space_group_name_H-M	'P1'
_symmetry_Int_Tables_number	1
_symmetry_cell_setting	triclinic
loop_
_symmetry_equiv_pos_as_xyz
  x,y,z
_cell_length_a	23.532407
_cell_length_b	22.010155
_cell_length_c	23.532407
_cell_angle_alpha	89.999577
_cell_angle_beta	97.151322
_cell_angle_gamma	90.003069
loop_
_atom_site_label
_atom_site_type_symbol
_atom_site_fract_x
_atom_site_fract_y
_atom_site_fract_z
O1	O	0.755264	0.050455	-0.069127
O2	O	1.088597	0.383789	0.264206
O3	O	1.421930	0.717122	0.597540
O4	O	0.589400	0.050474	-0.079130
O5	O	0.922734	0.383807	0.254203
O6	O	1.256067	0.717141	0.587537
O7	O	0.677334	0.050453	0.008803
O8	O	1.010667	0.383786	0.342137
O9	O	1.344000	0.717120	0.675470
O10	O	0.667330	0.050476	-0.157060
O11	O	1.000664	0.383810	0.176273
O12	O	1.333997	0.717143	0.509607
O13	O	0.677318	-0.050597	0.008790
O14	O	1.010651	0.282736	0.342123
O15	O	1.343984	0.616069	0.675457
O16	O	0.589384	-0.050576	-0.079143
O17	O	0.922718	0.282757	0.254190
O18	O	1.256051	0.616090	0.587523
O19	O	0.755248	-0.050595	-0.069140
O20	O	1.088581	0.282738	0.264193
O21	O	1.421914	0.616072	0.597527
Cu22	Cu	0.672315	-0.059812	-0.074143
Cu23	Cu	1.005648	0.273521	0.259190
Cu24	Cu	1.338981	0.606854	0.592524
Cu25	Cu	0.672333	0.059691	-0.074127
Cu26	Cu	1.005667	0.393025	0.259206
Cu27	Cu	1.339000	0.726358	0.592539
O28	O	0.667314	-0.050574	-0.157073
O29	O	1.000648	0.282759	0.176260
O30	O	1.333981	0.616093	0.509593
C31	C	0.568176	-0.000049	-0.078882
C32	C	0.901510	0.333285	0.254451
C33	C	1.234843	0.666618	0.587785
C34	C	0.504959	-0.000042	-0.078116
C35	C	0.838293	0.333291	0.255217
C36	C	1.171626	0.666625	0.588551
N37	N	0.672305	-0.143865	-0.074153
N38	N	1.005639	0.189469	0.259180
N39	N	1.338972	0.522802	0.592513
C40	C	0.105856	-0.000063	-0.125350
C41	C	0.439190	0.333270	0.207984
C42	C	0.772523	0.666604	0.541317
C43	C	0.046456	-0.000067	-0.124638
C44	C	0.379789	0.333267	0.208695
C45	C	0.713123	0.666600	0.542029
O46	O	0.009711	-0.000083	-0.168424
O47	O	0.343045	0.333251	0.164909
O48	O	0.676378	0.666584	0.498243
N49	N	0.023830	-0.000073	-0.072362
N50	N	0.357163	0.333260	0.260972
N51	N	0.690496	0.666593	0.594305
C52	C	0.060607	-0.000082	-0.020794
C53	C	0.393941	0.333251	0.312540
C54	C	0.727274	0.666585	0.645873
O55	O	0.035908	-0.000088	0.023737
O56	O	0.369241	0.333245	0.357070
O57	O	0.702574	0.666578	0.690404
C58	C	0.120006	-0.000082	-0.021506
C59	C	0.453340	0.333251	0.311828
C60	C	0.786673	0.666584	0.645161
C61	C	0.142629	-0.000070	-0.073785
C62	C	0.475962	0.333263	0.259548
C63	C	0.809296	0.666597	0.592881
C64	C	0.128479	-0.000051	-0.177625
C65	C	0.461813	0.333282	0.155708
C66	C	0.795146	0.666615	0.489042
C67	C	0.187876	-0.000046	-0.178336
C68	C	0.521209	0.333287	0.154997
C69	C	0.854542	0.666620	0.488330
C70	C	0.224649	-0.000053	-0.126772
C71	C	0.557982	0.333280	0.206561
C72	C	0.891315	0.666614	0.539895
C73	C	0.202025	-0.000065	-0.074497
C74	C	0.535359	0.333268	0.258837
C75	C	0.868692	0.666602	0.592170
C76	C	0.156783	-0.000096	0.030062
C77	C	0.490116	0.333238	0.363395
C78	C	0.823450	0.666571	0.696729
C79	C	0.216185	-0.000097	0.029345
C80	C	0.549519	0.333237	0.362679
C81	C	0.882852	0.666570	0.696012
C82	C	0.238808	-0.000084	-0.022934
C83	C	0.572141	0.333249	0.310399
C84	C	0.905475	0.666583	0.643732
C85	C	0.298194	-0.000067	-0.023643
C86	C	0.631528	0.333266	0.309690
C87	C	0.964861	0.666600	0.643023
N88	N	0.320820	-0.000061	-0.075920
N89	N	0.654154	0.333273	0.257414
N90	N	0.987487	0.666606	0.590747
C91	C	0.284048	-0.000054	-0.127484
C92	C	0.617381	0.333280	0.205849
C93	C	0.950714	0.666613	0.539183
C94	C	-0.064135	-0.000082	-0.019302
C95	C	0.269198	0.333251	0.314031
C96	C	0.602532	0.666585	0.647365
C97	C	-0.123533	-0.000077	-0.018589
C98	C	0.209800	0.333256	0.314744
C99	C	0.543134	0.666590	0.648077
C100	C	-0.137680	-0.000063	-0.122434
C101	C	0.195653	0.333270	0.210899
C102	C	0.528986	0.666604	0.544232
C103	C	-0.078281	-0.000064	-0.123146
C104	C	0.255052	0.333270	0.210187
C105	C	0.588385	0.666603	0.543520
C106	C	-0.041509	-0.000076	-0.071578
C107	C	0.291824	0.333258	0.261755
C108	C	0.625158	0.666591	0.595088
C109	C	0.408784	-0.000043	-0.128974
C110	C	0.742118	0.333291	0.204360
C111	C	1.075451	0.666624	0.537693
C112	C	0.468186	-0.000035	-0.129680
C113	C	0.801520	0.333298	0.203653
C114	C	1.134853	0.666631	0.536986
C115	C	0.482329	-0.000052	-0.025836
C116	C	0.815662	0.333281	0.307497
C117	C	1.148995	0.666614	0.640831
C118	C	0.422932	-0.000057	-0.025129
C119	C	0.756265	0.333277	0.308204
C120	C	1.089598	0.666610	0.641538
C121	C	0.386160	-0.000054	-0.076702
C122	C	0.719494	0.333279	0.256631
C123	C	1.052827	0.666613	0.589964
O124	O	0.334974	-0.000054	0.020119
O125	O	0.668307	0.333280	0.353453
O126	O	1.001640	0.666613	0.686786
O127	O	0.308755	-0.000055	-0.172007
O128	O	0.642089	0.333278	0.161326
O129	O	0.975422	0.666611	0.494660
C130	C	0.711273	-0.563653	-0.035196
C131	C	1.044606	-0.230320	0.298137
C132	C	1.377939	0.103013	0.631471
C133	C	0.711275	-0.627261	-0.035192
C134	C	1.044609	-0.293928	0.298141
C135	C	1.377942	0.039406	0.631475
O136	O	0.744384	-0.660160	-0.002076
O137	O	1.077717	-0.326827	0.331257
O138	O	1.411050	0.006506	0.664590
N139	N	0.672333	-0.659072	-0.074115
N140	N	1.005667	-0.325739	0.259218
N141	N	1.339000	0.007595	0.592551
C142	C	0.633382	-0.627272	-0.113041
C143	C	0.966715	-0.293938	0.220292
C144	C	1.300049	0.039395	0.553625
O145	O	0.600259	-0.660170	-0.146148
O146	O	0.933592	-0.326837	0.187185
O147	O	1.266925	0.006497	0.520519
C148	C	0.633377	-0.563665	-0.113042
C149	C	0.966711	-0.230332	0.220291
C150	C	1.300044	0.103001	0.553625
C151	C	0.672326	-0.531858	-0.074120
C152	C	1.005659	-0.198524	0.259213
C153	C	1.338992	0.134809	0.592547
C154	C	0.750217	-0.531846	0.003723
C155	C	1.083551	-0.198513	0.337057
C156	C	1.416884	0.134821	0.670390
C157	C	0.750215	-0.468243	0.003719
C158	C	1.083549	-0.134909	0.337052
C159	C	1.416882	0.198424	0.670385
C160	C	0.711268	-0.436447	-0.035205
C161	C	1.044602	-0.103114	0.298128
C162	C	1.377935	0.230220	0.631461
C163	C	0.672324	-0.468255	-0.074125
C164	C	1.005657	-0.134921	0.259209
C165	C	1.338990	0.198412	0.592542
C166	C	0.594424	-0.531866	-0.151965
C167	C	0.927757	-0.198533	0.181368
C168	C	1.261091	0.134800	0.514702
C169	C	0.594422	-0.468256	-0.151962
C170	C	0.927755	-0.134922	0.181371
C171	C	1.261089	0.198411	0.514705
C172	C	0.633370	-0.436448	-0.113040
C173	C	0.966704	-0.103115	0.220293
C174	C	1.300037	0.230219	0.553627
C175	C	0.633374	-0.372856	-0.113054
C176	C	0.966708	-0.039522	0.220280
C177	C	1.300041	0.293811	0.553613
N178	N	0.672317	-0.341045	-0.074130
N179	N	1.005650	-0.007712	0.259203
N180	N	1.338983	0.325622	0.592536
C181	C	0.711263	-0.372841	-0.035206
C182	C	1.044597	-0.039507	0.298127
C183	C	1.377930	0.293826	0.631460
C184	C	0.633395	-0.760850	-0.113036
C185	C	0.966728	-0.427516	0.220297
C186	C	1.300061	-0.094183	0.553631
C187	C	0.633402	-0.824455	-0.113039
C188	C	0.966735	-0.491122	0.220295
C189	C	1.300069	-0.157788	0.553628
C190	C	0.711294	-0.824440	-0.035188
C191	C	1.044628	-0.491106	0.298145
C192	C	1.377961	-0.157773	0.631478
C193	C	0.711290	-0.760833	-0.035189
C194	C	1.044623	-0.427500	0.298144
C195	C	1.377956	-0.094167	0.631478
C196	C	0.672337	-0.729039	-0.074113
C197	C	1.005670	-0.395705	0.259221
C198	C	1.339003	-0.062372	0.592554
C199	C	0.711256	-0.239269	-0.035220
C200	C	1.044590	0.094064	0.298114
C201	C	1.377923	0.427397	0.631447
C202	C	0.711252	-0.175660	-0.035229
C203	C	1.044586	0.157673	0.298104
C204	C	1.377919	0.491006	0.631437
C205	C	0.633358	-0.175681	-0.113077
C206	C	0.966691	0.157652	0.220256
C207	C	1.300025	0.490986	0.553589
C208	C	0.633364	-0.239284	-0.113070
C209	C	0.966697	0.094049	0.220264
C210	C	1.300031	0.427382	0.553597
C211	C	0.672315	-0.271077	-0.074136
C212	C	1.005649	0.062256	0.259197
C213	C	1.338982	0.395590	0.592531
O214	O	0.600282	-0.339916	-0.146151
O215	O	0.933615	-0.006583	0.187182
O216	O	1.266948	0.326751	0.520516
O217	O	0.744376	-0.339935	-0.002100
O218	O	1.077710	-0.006601	0.331233
O219	O	1.411043	0.326732	0.664567
C220	C	0.776472	-0.000071	-0.069388
C221	C	1.109805	0.333263	0.263945
C222	C	1.443138	0.666596	0.597278
C223	C	0.839689	-0.000073	-0.070154
C224	C	1.173022	0.333260	0.263179
C225	C	1.506355	0.666593	0.596513
C226	C	0.677071	-0.000074	0.030013
C227	C	1.010404	0.333260	0.363346
C228	C	1.343738	0.666593	0.696679
C229	C	0.676305	-0.000078	0.093230
C230	C	1.009638	0.333255	0.426563
C231	C	1.342972	0.666588	0.759896
N232	N	0.672347	0.143744	-0.074112
N233	N	1.005680	0.477077	0.259221
N234	N	1.339014	0.810411	0.592555
C235	C	0.667577	-0.000046	-0.178283
C236	C	1.000910	0.333288	0.155051
C237	C	1.334244	0.666621	0.488384
C238	C	0.668343	-0.000037	-0.241500
C239	C	1.001676	0.333296	0.091833
C240	C	1.335010	0.666629	0.425167
C241	C	0.723539	-0.000050	0.492333
C242	C	1.056872	0.333283	0.825666
C243	C	1.390205	0.666616	1.158999
C244	C	0.722827	-0.000046	0.551733
C245	C	1.056160	0.333288	0.885066
C246	C	1.389494	0.666621	1.218400
O247	O	0.766613	-0.000028	0.588478
O248	O	1.099946	0.333305	0.921811
O249	O	1.433280	0.666639	1.255144
N250	N	0.670551	-0.000040	0.574359
N251	N	1.003884	0.333293	0.907693
N252	N	1.337217	0.666627	1.241026
C253	C	0.618983	-0.000033	0.537582
C254	C	0.952316	0.333300	0.870915
C255	C	1.285649	0.666634	1.204248
O256	O	0.574452	-0.000027	0.562281
O257	O	0.907785	0.333306	0.895615
O258	O	1.241119	0.666639	1.228948
C259	C	0.619695	-0.000033	0.478182
C260	C	0.953028	0.333300	0.811516
C261	C	1.286361	0.666633	1.144849
C262	C	0.671974	-0.000045	0.455560
C263	C	1.005308	0.333288	0.788893
C264	C	1.338641	0.666622	1.122227
C265	C	0.775814	-0.000061	0.469710
C266	C	1.109147	0.333272	0.803043
C267	C	1.442481	0.666606	1.136376
C268	C	0.776525	-0.000067	0.410313
C269	C	1.109859	0.333266	0.743647
C270	C	1.443192	0.666600	1.076980
C271	C	0.724961	-0.000062	0.373540
C272	C	1.058294	0.333271	0.706874
C273	C	1.391628	0.666605	1.040207
C274	C	0.672685	-0.000051	0.396164
C275	C	1.006019	0.333282	0.729497
C276	C	1.339352	0.666616	1.062830
C277	C	0.568127	-0.000022	0.441406
C278	C	0.901460	0.333311	0.774739
C279	C	1.234794	0.666644	1.108073
C280	C	0.568844	-0.000022	0.382004
C281	C	0.902177	0.333311	0.715337
C282	C	1.235510	0.666645	1.048670
C283	C	0.621123	-0.000034	0.359381
C284	C	0.954457	0.333300	0.692714
C285	C	1.287790	0.666633	1.026048
C286	C	0.621832	-0.000052	0.299995
C287	C	0.955166	0.333282	0.633328
C288	C	1.288499	0.666615	0.966661
N289	N	0.674109	-0.000057	0.277368
N290	N	1.007442	0.333276	0.610702
N291	N	1.340775	0.666610	0.944035
C292	C	0.725673	-0.000062	0.314141
C293	C	1.059006	0.333271	0.647475
C294	C	1.392340	0.666604	0.980808
C295	C	0.617491	-0.000031	0.662324
C296	C	0.950824	0.333302	0.995657
C297	C	1.284158	0.666635	1.328991
C298	C	0.616778	-0.000035	0.721722
C299	C	0.950112	0.333298	1.055055
C300	C	1.283445	0.666631	1.388389
C301	C	0.720623	-0.000047	0.735869
C302	C	1.053957	0.333287	1.069203
C303	C	1.387290	0.666620	1.402536
C304	C	0.721335	-0.000047	0.676470
C305	C	1.054669	0.333286	1.009804
C306	C	1.388002	0.666620	1.343137
C307	C	0.669767	-0.000037	0.639698
C308	C	1.003101	0.333297	0.973031
C309	C	1.336434	0.666630	1.306365
C310	C	0.727163	-0.000075	0.189405
C311	C	1.060496	0.333258	0.522738
C312	C	1.393829	0.666592	0.856071
C313	C	0.727869	-0.000083	0.130003
C314	C	1.061203	0.333250	0.463336
C315	C	1.394536	0.666583	0.796669
C316	C	0.624025	-0.000069	0.115860
C317	C	0.957358	0.333264	0.449194
C318	C	1.290692	0.666598	0.782527
C319	C	0.623318	-0.000064	0.175257
C320	C	0.956651	0.333270	0.508591
C321	C	1.289985	0.666603	0.841924
C322	C	0.674891	-0.000065	0.212029
C323	C	1.008225	0.333269	0.545362
C324	C	1.341558	0.666602	0.878695
O325	O	0.578070	-0.000067	0.263215
O326	O	0.911403	0.333267	0.596549
O327	O	1.244736	0.666600	0.929882
O328	O	0.770196	-0.000060	0.289433
O329	O	1.103529	0.333273	0.622767
O330	O	1.436863	0.666607	0.956100
H331	H	0.378851	-0.000042	-0.170970
H332	H	0.712185	0.333291	0.162363
H333	H	1.045518	0.666624	0.495697
H334	H	0.770443	-0.000094	0.111587
H335	H	1.103777	0.333239	0.444920
H336	H	1.437110	0.666572	0.778254
C337	C	0.834032	-0.000076	0.385433
C338	C	1.167365	0.333257	0.718766
C339	C	1.500698	0.666590	1.052100
H340	H	0.827078	-0.000082	0.344790
H341	H	1.160412	0.333251	0.678123
H342	H	1.493745	0.666585	1.011457
H343	H	0.855253	0.035160	0.398077
H344	H	1.188587	0.368493	0.731411
H345	H	1.521920	0.701826	1.064744
H346	H	0.855240	-0.035322	0.398079
H347	H	1.188573	0.298012	0.731413
H348	H	1.521906	0.631345	1.064746
C349	C	0.832540	-0.000072	0.510151
C350	C	1.165873	0.333262	0.843485
C351	C	1.499207	0.666595	1.176818
H352	H	0.863770	-0.000083	0.488162
H353	H	1.197103	0.333250	0.821495
H354	H	1.530437	0.666584	1.154829
H355	H	0.834436	0.035164	0.533621
H356	H	1.167770	0.368497	0.866955
H357	H	1.501103	0.701831	1.200288
H358	H	0.834415	-0.035317	0.533613
H359	H	1.167749	0.298016	0.866946
H360	H	1.501082	0.631349	1.200280
C361	C	0.590501	-0.274274	-0.155861
C362	C	0.923834	0.059059	0.177472
C363	C	1.257167	0.392393	0.510806
H364	H	0.567297	-0.246225	-0.179034
H365	H	0.900630	0.087108	0.154299
H366	H	1.233963	0.420441	0.487632
H367	H	0.610823	-0.299105	-0.179473
H368	H	0.944157	0.034228	0.153860
H369	H	1.277490	0.367561	0.487193
H370	H	0.566919	-0.299068	-0.135461
H371	H	0.900252	0.034265	0.197872
H372	H	1.233586	0.367599	0.531205
H373	H	0.762610	-0.000048	0.765821
H374	H	1.095943	0.333285	1.099154
H375	H	1.429276	0.666618	1.432488
C376	C	0.493068	-0.000025	-0.187190
C377	C	0.826401	0.333308	0.146143
C378	C	1.159734	0.666642	0.479477
H379	H	0.462657	-0.000028	-0.217797
H380	H	0.795990	0.333305	0.115537
H381	H	1.129323	0.666639	0.448870
H382	H	0.515946	0.035215	-0.189625
H383	H	0.849279	0.368548	0.143708
H384	H	1.182612	0.701882	0.477042
H385	H	0.515944	-0.035267	-0.189631
H386	H	0.849277	0.298067	0.143703
H387	H	1.182610	0.631400	0.477036
H388	H	0.404512	-0.000058	0.017441
H389	H	0.737845	0.333275	0.350775
H390	H	1.071178	0.666609	0.684108
C391	C	0.559271	-0.000028	0.746601
C392	C	0.892604	0.333306	1.079934
C393	C	1.225938	0.666639	1.413267
H394	H	0.528666	-0.000021	0.716188
H395	H	0.861999	0.333313	1.049521
H396	H	1.195333	0.666646	1.382855
H397	H	0.556825	-0.035262	0.769481
H398	H	0.890158	0.298071	1.102814
H399	H	1.223491	0.631404	1.436148
H400	H	0.556840	0.035219	0.769473
H401	H	0.890173	0.368552	1.102807
H402	H	1.223506	0.701886	1.436140
C403	C	0.551576	-0.433282	-0.194780
C404	C	0.884909	-0.099949	0.138553
C405	C	1.218242	0.233384	0.471887
H406	H	0.557147	-0.390844	-0.189208
H407	H	0.890480	-0.057511	0.144125
H408	H	1.223813	0.275822	0.477458
H409	H	0.557542	-0.443710	-0.232758
H410	H	0.890875	-0.110377	0.100575
H411	H	1.224208	0.222957	0.433909
H412	H	0.513603	-0.443711	-0.188781
H413	H	0.846937	-0.110378	0.144553
H414	H	1.180270	0.222956	0.477886
C415	C	0.754134	-0.859420	0.007632
C416	C	1.087468	-0.526087	0.340965
C417	C	1.420801	-0.192754	0.674299
H418	H	0.777332	-0.831370	0.030813
H419	H	1.110666	-0.498037	0.364146
H420	H	1.443999	-0.164704	0.697479
H421	H	0.733782	-0.884235	0.031234
H422	H	1.067115	-0.550902	0.364567
H423	H	1.400449	-0.217569	0.697900
H424	H	0.777725	-0.884231	-0.012739
H425	H	1.111059	-0.550897	0.320594
H426	H	1.444392	-0.217564	0.653928
C427	C	-0.148414	-0.000080	0.038916
C428	C	0.184919	0.333253	0.372250
C429	C	0.518252	0.666587	0.705583
H430	H	-0.189057	-0.000076	0.031961
H431	H	0.144276	0.333258	0.365294
H432	H	0.477609	0.666591	0.698628
H433	H	-0.135771	-0.035319	0.060131
H434	H	0.197562	0.298014	0.393464
H435	H	0.530895	0.631348	0.726797
H436	H	-0.135769	0.035162	0.060133
H437	H	0.197564	0.368496	0.393466
H438	H	0.530897	0.701829	0.726799
H439	H	0.742971	-0.149765	-0.003534
H440	H	1.076304	0.183569	0.329799
H441	H	1.409638	0.516902	0.663132
H442	H	0.575496	-0.000028	0.632386
H443	H	0.908829	0.333305	0.965720
H444	H	1.242162	0.666638	1.299053
H445	H	0.206289	-0.000036	-0.220908
H446	H	0.539622	0.333298	0.112426
H447	H	0.872956	0.666631	0.445759
C448	C	0.522786	-0.000065	0.030880
C449	C	0.856119	0.333269	0.364214
C450	C	1.189452	0.666602	0.697547
H451	H	0.561400	-0.000068	0.022964
H452	H	0.894734	0.333265	0.356298
H453	H	1.228067	0.666599	0.689631
H454	H	0.515965	0.035167	0.052342
H455	H	0.849298	0.368500	0.385676
H456	H	1.182632	0.701833	0.719009
H457	H	0.515957	-0.035315	0.052320
H458	H	0.849291	0.298019	0.385654
H459	H	1.182624	0.631352	0.718987
C460	C	0.510618	-0.000004	0.466278
C461	C	0.843952	0.333329	0.799611
C462	C	1.177285	0.666662	1.132945
H463	H	0.480016	0.000007	0.435863
H464	H	0.813349	0.333340	0.769196
H465	H	1.146683	0.666673	1.102529
H466	H	0.508166	-0.035239	0.489157
H467	H	0.841499	0.298094	0.822490
H468	H	1.174833	0.631428	1.155824
H469	H	0.508189	0.035242	0.489151
H470	H	0.841522	0.368576	0.822484
H471	H	1.174855	0.701909	1.155818
H472	H	0.781929	-0.442349	0.035414
H473	H	1.115262	-0.109015	0.368747
H474	H	1.448595	0.224318	0.702081
H475	H	0.601650	-0.149783	-0.144771
H476	H	0.934983	0.183550	0.188563
H477	H	1.268316	0.516884	0.521896
H478	H	0.769159	-0.000073	0.219337
H479	H	1.102492	0.333260	0.552671
H480	H	1.435826	0.666593	0.886004
C481	C	-0.053402	-0.000055	-0.180653
C482	C	0.279932	0.333278	0.152680
C483	C	0.613265	0.666612	0.486014
H484	H	-0.083814	-0.000054	-0.211258
H485	H	0.249519	0.333279	0.122075
H486	H	0.582852	0.666613	0.455409
H487	H	-0.030520	0.035182	-0.183088
H488	H	0.302813	0.368515	0.150245
H489	H	0.636147	0.701848	0.483579
H490	H	-0.030530	-0.035300	-0.183096
H491	H	0.302803	0.298034	0.150237
H492	H	0.636137	0.631367	0.483571
H493	H	0.526850	-0.000013	0.352066
H494	H	0.860183	0.333320	0.685399
H495	H	1.193516	0.666654	1.018732
C496	C	0.131911	-0.000118	0.087571
C497	C	0.465244	0.333216	0.420904
C498	C	0.798578	0.666549	0.754237
H499	H	0.162326	-0.000131	0.118173
H500	H	0.495660	0.333203	0.451506
H501	H	0.828993	0.666536	0.784840
H502	H	0.109034	0.035117	0.090024
H503	H	0.442367	0.368450	0.423357
H504	H	0.775700	0.701783	0.756691
H505	H	0.109036	-0.035365	0.089999
H506	H	0.442370	0.297969	0.423333
H507	H	0.775703	0.631302	0.756666
C508	C	0.778842	-0.000054	0.651591
C509	C	1.112175	0.333279	0.984924
C510	C	1.445509	0.666613	1.318257
H511	H	0.809447	-0.000054	0.682003
H512	H	1.142780	0.333279	1.015337
H513	H	1.476114	0.666613	1.348670
H514	H	0.781276	-0.035291	0.628711
H515	H	1.114610	0.298042	0.962045
H516	H	1.447943	0.631376	1.295378
H517	H	0.781286	0.035190	0.628717
H518	H	1.114619	0.368524	0.962050
H519	H	1.447953	0.701857	1.295383
C520	C	0.754104	-0.274232	0.007604
C521	C	1.087437	0.059101	0.340937
C522	C	1.420771	0.392434	0.674271
H523	H	0.777298	-0.246172	0.030776
H524	H	1.110631	0.087162	0.364109
H525	H	1.443965	0.420495	0.697443
H526	H	0.733760	-0.299047	0.031214
H527	H	1.067094	0.034287	0.364547
H528	H	1.400427	0.367620	0.697881
H529	H	0.777698	-0.299042	-0.012764
H530	H	1.111031	0.034292	0.320569
H531	H	1.444365	0.367625	0.653902
C532	C	0.793066	-0.566811	0.046541
C533	C	1.126399	-0.233478	0.379874
C534	C	1.459732	0.099855	0.713207
H535	H	0.816258	-0.538750	0.069713
H536	H	1.149591	-0.205416	0.403046
H537	H	1.482925	0.127917	0.736379
H538	H	0.772726	-0.591630	0.070151
H539	H	1.106060	-0.258297	0.403484
H540	H	1.439393	0.075037	0.736818
H541	H	0.816661	-0.591617	0.026170
H542	H	1.149994	-0.258283	0.359503
H543	H	1.483328	0.075050	0.692836
H544	H	0.098544	-0.000048	-0.219617
H545	H	0.431877	0.333286	0.113716
H546	H	0.765211	0.666619	0.447049
C547	C	0.565812	-0.000050	0.200144
C548	C	0.899146	0.333284	0.533477
C549	C	1.232479	0.666617	0.866810
H550	H	0.535205	-0.000043	0.169733
H551	H	0.868538	0.333290	0.503067
H552	H	1.201872	0.666623	0.836400
H553	H	0.563364	-0.035281	0.223029
H554	H	0.896698	0.298053	0.556362
H555	H	1.230031	0.631386	0.889695
H556	H	0.563386	0.035201	0.223013
H557	H	0.896720	0.368534	0.556346
H558	H	1.230053	0.701867	0.889679
C559	C	0.567307	-0.000059	0.075406
C560	C	0.900641	0.333274	0.408739
C561	C	1.233974	0.666607	0.742072
H562	H	0.536068	-0.000055	0.097383
H563	H	0.869401	0.333278	0.430716
H564	H	1.202734	0.666611	0.764050
H565	H	0.565439	0.035179	0.051940
H566	H	0.898773	0.368512	0.385274
H567	H	1.232106	0.701846	0.718607
H568	H	0.565420	-0.035302	0.051940
H569	H	0.898753	0.298031	0.385274
H570	H	1.232087	0.631364	0.718607
H571	H	-0.034198	-0.000086	0.022693
H572	H	0.299136	0.333247	0.356027
H573	H	0.632469	0.666580	0.689360
H574	H	-0.167632	-0.000060	-0.164421
H575	H	0.165701	0.333273	0.168913
H576	H	0.499035	0.666606	0.502246
H577	H	0.246123	-0.000107	0.071339
H578	H	0.579457	0.333227	0.404673
H579	H	0.912790	0.666560	0.738006
H580	H	0.743004	-0.734939	-0.003495
H581	H	1.076338	-0.401606	0.329838
H582	H	1.409671	-0.068273	0.663172
H583	H	0.601692	-0.850348	-0.144738
H584	H	0.935026	-0.517015	0.188595
H585	H	1.268359	-0.183681	0.521928
H586	H	0.601676	-0.734966	-0.144737
H587	H	0.935009	-0.401632	0.188596
H588	H	1.268343	-0.068299	0.521930
H589	H	0.562708	-0.557755	-0.183658
H590	H	0.896042	-0.224422	0.149675
H591	H	1.229375	0.108911	0.483008
