data_functionalizedCrystal
_audit_creation_method	'MofGen! by Chris Wilmer'
_symmetry_space_group_name_H-M	'P1'
_symmetry_Int_Tables_number	1
_symmetry_cell_setting	triclinic
loop_
_symmetry_equiv_pos_as_xyz
  x,y,z
_cell_length_a	21.395362
_cell_length_b	19.805405
_cell_length_c	21.395355
_cell_angle_alpha	89.980090
_cell_angle_beta	89.956060
_cell_angle_gamma	90.042288
loop_
_atom_site_label
_atom_site_type_symbol
_atom_site_fract_x
_atom_site_fract_y
_atom_site_fract_z
Zn1	Zn	0.957878	-0.269255	-0.354580
Zn2	Zn	1.291212	0.064079	-0.021246
Zn3	Zn	1.624545	0.397412	0.312087
Zn4	Zn	0.957789	-0.382425	-0.249800
Zn5	Zn	1.291122	-0.049091	0.083534
Zn6	Zn	1.624455	0.284242	0.416867
Zn7	Zn	0.853093	-0.269286	-0.249781
Zn8	Zn	1.186426	0.064047	0.083553
Zn9	Zn	1.519760	0.397380	0.416886
Zn10	Zn	0.853070	-0.382438	-0.354504
Zn11	Zn	1.186403	-0.049105	-0.021171
Zn12	Zn	1.519737	0.284228	0.312162
O13	O	0.905458	-0.325851	-0.302166
O14	O	1.238791	0.007482	0.031167
O15	O	1.572124	0.340816	0.364501
O16	O	1.045544	-0.284248	-0.340720
O17	O	1.378878	0.049085	-0.007386
O18	O	1.712211	0.382419	0.325947
O19	O	0.943873	-0.367424	-0.162119
O20	O	1.277206	-0.034091	0.171214
O21	O	1.610539	0.299243	0.504548
O22	O	0.867040	-0.174565	-0.263706
O23	O	1.200374	0.158768	0.069627
O24	O	1.533707	0.492101	0.402960
O25	O	1.045478	-0.367393	-0.263738
O26	O	1.378812	-0.034060	0.069595
O27	O	1.712145	0.299273	0.402929
O28	O	0.944025	-0.174542	-0.340701
O29	O	1.277359	0.158791	-0.007368
O30	O	1.610692	0.492124	0.325965
O31	O	0.866953	-0.284302	-0.162105
O32	O	1.200287	0.049032	0.171228
O33	O	1.533620	0.382365	0.504561
O34	O	0.765412	-0.284315	-0.263633
O35	O	1.098746	0.049018	0.069700
O36	O	1.432079	0.382352	0.403033
O37	O	0.867001	-0.367417	-0.442192
O38	O	1.200334	-0.034084	-0.108859
O39	O	1.533668	0.299250	0.224475
O40	O	0.765395	-0.367448	-0.340573
O41	O	1.098729	-0.034114	-0.007240
O42	O	1.432062	0.299219	0.326094
O43	O	0.944003	-0.284261	-0.442247
O44	O	1.277336	0.049072	-0.108914
O45	O	1.610670	0.382405	0.224419
O46	O	0.943850	-0.477143	-0.263665
O47	O	1.277184	-0.143810	0.069668
O48	O	1.610517	0.189524	0.403002
O49	O	0.866914	-0.477153	-0.340591
O50	O	1.200247	-0.143820	-0.007258
O51	O	1.533581	0.189513	0.326075
C52	C	0.742670	-0.325887	-0.302093
C53	C	1.076003	0.007447	0.031240
C54	C	1.409336	0.340780	0.364573
C55	C	0.673029	-0.325918	-0.302077
C56	C	1.006362	0.007415	0.031256
C57	C	1.339695	0.340748	0.364590
C58	C	0.905387	-0.501707	-0.302136
C59	C	1.238720	-0.168374	0.031198
C60	C	1.572054	0.164960	0.364531
C61	C	0.905414	-0.576939	-0.302144
C62	C	1.238748	-0.243606	0.031190
C63	C	1.572081	0.089728	0.364523
C64	C	0.640323	-0.369263	-0.342080
C65	C	0.973656	-0.035930	-0.008746
C66	C	1.306990	0.297404	0.324587
C67	C	0.574888	-0.369246	-0.342108
C68	C	0.908221	-0.035913	-0.008774
C69	C	1.241554	0.297420	0.324559
C70	C	0.542160	-0.325892	-0.302122
C71	C	0.875494	0.007441	0.031212
C72	C	1.208827	0.340774	0.364545
C73	C	0.574874	-0.282539	-0.262116
C74	C	0.908207	0.050794	0.071217
C75	C	1.241540	0.384127	0.404550
C76	C	0.640308	-0.282553	-0.262094
C77	C	0.973641	0.050781	0.071239
C78	C	1.306974	0.384114	0.404573
C79	C	0.438435	-0.320440	-0.245717
C80	C	0.771768	0.012894	0.087617
C81	C	1.105102	0.346227	0.420950
C82	C	0.373002	-0.320431	-0.245738
C83	C	0.706336	0.012902	0.087595
C84	C	1.039669	0.346235	0.420929
C85	C	0.340340	-0.325848	-0.302191
C86	C	0.673673	0.007485	0.031142
C87	C	1.007006	0.340818	0.364476
C88	C	0.373118	-0.331287	-0.358624
C89	C	0.706451	0.002046	-0.025291
C90	C	1.039785	0.335379	0.308042
C91	C	0.438552	-0.331301	-0.358602
C92	C	0.771885	0.002033	-0.025269
C93	C	1.105219	0.335366	0.308065
C94	C	0.471208	-0.325873	-0.302142
C95	C	0.804541	0.007460	0.031192
C96	C	1.137875	0.340794	0.364525
C97	C	0.236682	-0.369177	-0.342227
C98	C	0.570015	-0.035844	-0.008894
C99	C	0.903348	0.297490	0.324440
C100	C	0.171245	-0.369156	-0.342256
C101	C	0.504578	-0.035822	-0.008923
C102	C	0.837912	0.297511	0.324411
C103	C	0.171232	-0.282452	-0.262259
C104	C	0.504566	0.050881	0.071074
C105	C	0.837899	0.384214	0.404407
C106	C	0.236668	-0.282470	-0.262236
C107	C	0.570001	0.050863	0.071097
C108	C	0.903334	0.384196	0.404431
C109	C	0.269388	-0.325836	-0.302219
C110	C	0.602722	0.007497	0.031114
C111	C	0.936055	0.340831	0.364448
C112	C	0.945514	-0.612255	-0.262130
C113	C	1.278847	-0.278922	0.071203
C114	C	1.612180	0.054411	0.404536
C115	C	0.945540	-0.682944	-0.262144
C116	C	1.278874	-0.349610	0.071189
C117	C	1.612207	-0.016277	0.404523
C118	C	0.905464	-0.718315	-0.302169
C119	C	1.238797	-0.384981	0.031165
C120	C	1.572130	-0.051648	0.364498
C121	C	0.865362	-0.682993	-0.342187
C122	C	1.198696	-0.349660	-0.008853
C123	C	1.532029	-0.016327	0.324480
C124	C	0.865339	-0.612306	-0.342175
C125	C	1.198673	-0.278973	-0.008842
C126	C	1.532006	0.054361	0.324491
C127	C	0.865455	-0.968067	-0.342233
C128	C	1.198788	-0.634733	-0.008900
C129	C	1.532122	-0.301400	0.324434
C130	C	0.865480	-1.038759	-0.342240
C131	C	1.198813	-0.705425	-0.008906
C132	C	1.532146	-0.372092	0.324427
C133	C	0.945656	-1.038704	-0.262202
C134	C	1.278989	-0.705371	0.071132
C135	C	1.612322	-0.372037	0.404465
C136	C	0.945633	-0.968017	-0.262191
C137	C	1.278966	-0.634684	0.071143
C138	C	1.612299	-0.301350	0.404476
C139	C	0.905534	-0.932702	-0.302210
C140	C	1.238867	-0.599369	0.031123
C141	C	1.572201	-0.266035	0.364456
C142	C	0.905507	-0.856053	-0.302196
C143	C	1.238840	-0.522720	0.031138
C144	C	1.572173	-0.189387	0.364471
C145	C	0.905488	-0.794962	-0.302181
C146	C	1.238821	-0.461628	0.031153
C147	C	1.572154	-0.128295	0.364486
C148	C	1.068881	-0.325816	-0.302239
C149	C	1.402214	0.007518	0.031094
C150	C	1.735548	0.340851	0.364427
C151	C	1.138522	-0.325800	-0.302271
C152	C	1.471855	0.007533	0.031063
C153	C	1.805189	0.340866	0.364396
C154	C	0.905510	-0.325837	-0.465589
C155	C	1.238843	0.007496	-0.132256
C156	C	1.572176	0.340829	0.201077
C157	C	0.905532	-0.325831	-0.535231
C158	C	1.238865	0.007502	-0.201897
C159	C	1.572198	0.340835	0.131436
C160	C	0.905545	-0.149308	-0.302210
C161	C	1.238879	0.184025	0.031123
C162	C	1.572212	0.517358	0.364456
C163	C	0.905583	-0.074076	-0.302229
C164	C	1.238916	0.259257	0.031104
C165	C	1.572249	0.592590	0.364438
C166	C	0.945625	-0.282530	-0.567974
C167	C	1.278958	0.050803	-0.234640
C168	C	1.612292	0.384136	0.098693
C169	C	0.945624	-0.282501	-0.633409
C170	C	1.278957	0.050832	-0.300076
C171	C	1.612291	0.384165	0.033258
C172	C	0.905537	-0.325785	-0.666099
C173	C	1.238870	0.007548	-0.332766
C174	C	1.572203	0.340881	0.000568
C175	C	0.865436	-0.369089	-0.633348
C176	C	1.198769	-0.035756	-0.300015
C177	C	1.532102	0.297577	0.033318
C178	C	0.865433	-0.369112	-0.567914
C179	C	1.198766	-0.035779	-0.234581
C180	C	1.532100	0.297554	0.098753
C181	C	0.900565	-0.386731	-0.769762
C182	C	1.233898	-0.053398	-0.436428
C183	C	1.567232	0.279936	-0.103095
C184	C	0.900572	-0.386709	-0.835195
C185	C	1.233905	-0.053376	-0.501861
C186	C	1.567238	0.279958	-0.168528
C187	C	0.905540	-0.325714	-0.867920
C188	C	1.238874	0.007620	-0.534587
C189	C	1.572207	0.340953	-0.201253
C190	C	0.910516	-0.264738	-0.835204
C191	C	1.243849	0.068595	-0.501871
C192	C	1.577182	0.401928	-0.168538
C193	C	0.910513	-0.264762	-0.769770
C194	C	1.243846	0.068572	-0.436437
C195	C	1.577180	0.401905	-0.103103
C196	C	0.905534	-0.325765	-0.737051
C197	C	1.238868	0.007569	-0.403718
C198	C	1.572201	0.340902	-0.070385
C199	C	0.945635	-0.282378	-0.971615
C200	C	1.278968	0.050956	-0.638282
C201	C	1.612302	0.384289	-0.304949
C202	C	0.945630	-0.282347	-1.037052
C203	C	1.278963	0.050986	-0.703719
C204	C	1.612296	0.384319	-0.370385
C205	C	0.865444	-0.368941	-1.036990
C206	C	1.198778	-0.035608	-0.703657
C207	C	1.532111	0.297725	-0.370323
C208	C	0.865446	-0.368966	-0.971555
C209	C	1.198780	-0.035632	-0.638221
C210	C	1.532113	0.297701	-0.304888
C211	C	0.905545	-0.325685	-0.938871
C212	C	1.238878	0.007649	-0.605538
C213	C	1.572212	0.340982	-0.272205
C214	C	0.905442	-0.325816	-0.139378
C215	C	1.238775	0.007518	0.193955
C216	C	1.572108	0.340851	0.527288
C217	C	0.905541	-0.325631	-0.069738
C218	C	1.238874	0.007702	0.263596
C219	C	1.572208	0.341036	0.596929
H220	H	0.666960	-0.404574	-0.374638
H221	H	1.000294	-0.071240	-0.041305
H222	H	1.333627	0.262093	0.292029
H223	H	0.144586	-0.247150	-0.229705
H224	H	0.477920	0.086184	0.103628
H225	H	0.811253	0.419517	0.436962
C226	C	0.989600	-0.573354	-0.218103
C227	C	1.322933	-0.240020	0.115230
C228	C	1.656266	0.093313	0.448563
H229	H	1.013489	-0.604514	-0.194280
H230	H	1.346823	-0.271180	0.139054
H231	H	1.680156	0.062153	0.472387
H232	H	0.965639	-0.545821	-0.190768
H233	H	1.298973	-0.212488	0.142565
H234	H	1.632306	0.120846	0.475898
H235	H	1.016881	-0.545735	-0.242106
H236	H	1.350214	-0.212402	0.091227
H237	H	1.683547	0.120932	0.424561
H238	H	0.978193	-0.711695	-0.229561
H239	H	1.311526	-0.378362	0.103773
H240	H	1.644860	-0.045029	0.437106
H241	H	0.666936	-0.247254	-0.229519
H242	H	1.000270	0.086079	0.103814
H243	H	1.333603	0.419412	0.437148
C244	C	0.989728	-0.234871	-0.669437
C245	C	1.323061	0.098463	-0.336104
C246	C	1.656395	0.431796	-0.002770
H247	H	0.983983	-0.241054	-0.713088
H248	H	1.317316	0.092279	-0.379755
H249	H	1.650649	0.425613	-0.046421
H250	H	1.031820	-0.244773	-0.658745
H251	H	1.365153	0.088561	-0.325412
H252	H	1.698486	0.421894	0.007922
H253	H	0.980580	-0.189395	-0.658709
H254	H	1.313913	0.143938	-0.325376
H255	H	1.647246	0.477271	0.007957
H256	H	0.978308	-1.067466	-0.229618
H257	H	1.311642	-0.734133	0.103715
H258	H	1.644975	-0.400800	0.437049
H259	H	0.465024	-0.316026	-0.199743
H260	H	0.798357	0.017308	0.133591
H261	H	1.131690	0.350641	0.466924
C262	C	0.538876	-0.234852	-0.218133
C263	C	0.872210	0.098482	0.115200
C264	C	1.205543	0.431815	0.448534
H265	H	0.495222	-0.241056	-0.223871
H266	H	0.828555	0.092277	0.109462
H267	H	1.161888	0.425611	0.442795
H268	H	0.549648	-0.189391	-0.227376
H269	H	0.882981	0.143942	0.105957
H270	H	1.216315	0.477275	0.439290
H271	H	0.549546	-0.244695	-0.176013
H272	H	0.882879	0.088638	0.157321
H273	H	1.216213	0.421971	0.490654
H274	H	0.914563	-0.215070	-0.861848
H275	H	1.247896	0.118263	-0.528514
H276	H	1.581229	0.451596	-0.195181
H277	H	0.914562	-0.215113	-0.743136
H278	H	1.247896	0.118220	-0.409802
H279	H	1.581229	0.451553	-0.076469
H280	H	0.263297	-0.247178	-0.229658
H281	H	0.596630	0.086156	0.103675
H282	H	0.929963	0.419489	0.437008
H283	H	0.832782	-0.404372	-0.541255
H284	H	1.166115	-0.071039	-0.207922
H285	H	1.499448	0.262294	0.125412
C286	C	0.821353	-0.416557	-1.072941
C287	C	1.154686	-0.083224	-0.739608
C288	C	1.488020	0.250109	-0.406274
H289	H	0.827099	-0.410347	-1.116601
H290	H	1.160433	-0.077013	-0.783268
H291	H	1.493766	0.256320	-0.449935
H292	H	0.779259	-0.406671	-1.062188
H293	H	1.112592	-0.073337	-0.728855
H294	H	1.445925	0.259996	-0.395521
H295	H	0.830509	-0.462037	-1.062222
H296	H	1.163842	-0.128704	-0.728888
H297	H	1.497175	0.204629	-0.395555
H298	H	0.346526	-0.335697	-0.404594
H299	H	0.679859	-0.002364	-0.071261
H300	H	1.013192	0.330969	0.262073
H301	H	0.832845	-1.067556	-0.374837
H302	H	1.166179	-0.734222	-0.041504
H303	H	1.499512	-0.400889	0.291829
H304	H	0.978265	-0.939220	-0.229597
H305	H	1.311598	-0.605887	0.103737
H306	H	1.644931	-0.272554	0.437070
C307	C	0.821337	-0.929229	-0.386242
C308	C	1.154671	-0.595895	-0.052909
C309	C	1.488004	-0.262562	0.280425
H310	H	0.797467	-0.960420	-0.410072
H311	H	1.130800	-0.627087	-0.076739
H312	H	1.464134	-0.293753	0.256594
H313	H	0.845274	-0.901607	-0.413572
H314	H	1.178607	-0.568274	-0.080238
H315	H	1.511940	-0.234940	0.253095
H316	H	0.794040	-0.901703	-0.362227
H317	H	1.127373	-0.568370	-0.028893
H318	H	1.460706	-0.235037	0.304440
H319	H	0.263324	-0.404485	-0.374787
H320	H	0.596658	-0.071151	-0.041454
H321	H	0.929991	0.262182	0.291880
H322	H	0.978277	-0.247083	-1.063710
H323	H	1.311611	0.086251	-0.730377
H324	H	1.644944	0.419584	-0.397044
H325	H	0.978282	-0.247132	-0.945003
H326	H	1.311615	0.086201	-0.611670
H327	H	1.644949	0.419535	-0.278337
H328	H	0.832734	-0.711798	-0.374778
H329	H	1.166067	-0.378464	-0.041445
H330	H	1.499401	-0.045131	0.291889
C331	C	0.821348	-0.416602	-0.935536
C332	C	1.154681	-0.083269	-0.602202
C333	C	1.488015	0.250064	-0.268869
H334	H	0.797475	-0.442381	-0.964374
H335	H	1.130809	-0.109047	-0.631041
H336	H	1.464142	0.224286	-0.297708
H337	H	0.794061	-0.390726	-0.909990
H338	H	1.127395	-0.057392	-0.576656
H339	H	1.460728	0.275941	-0.243323
H340	H	0.845304	-0.446100	-0.910028
H341	H	1.178637	-0.112767	-0.576694
H342	H	1.511970	0.220566	-0.243361
H343	H	0.548254	-0.404542	-0.374685
H344	H	0.881587	-0.071209	-0.041352
H345	H	1.214920	0.262124	0.291982
C346	C	0.336952	-0.314447	-0.183665
C347	C	0.670285	0.018886	0.149668
C348	C	1.003619	0.352219	0.483002
H349	H	0.365775	-0.311210	-0.150042
H350	H	0.699108	0.022123	0.183292
H351	H	1.032441	0.355457	0.516625
H352	H	0.311387	-0.353223	-0.178095
H353	H	0.644720	-0.019889	0.155238
H354	H	0.978053	0.313444	0.488571
H355	H	0.311461	-0.275205	-0.184560
H356	H	0.644795	0.058129	0.148774
H357	H	0.978128	0.391462	0.482107
C358	C	0.474606	-0.337273	-0.420674
C359	C	0.807939	-0.003940	-0.087340
C360	C	1.141273	0.329393	0.245993
H361	H	0.445786	-0.340493	-0.454301
H362	H	0.779120	-0.007159	-0.120968
H363	H	1.112453	0.326174	0.212365
H364	H	0.500100	-0.376509	-0.419787
H365	H	0.833434	-0.043176	-0.086454
H366	H	1.166767	0.290158	0.246880
H367	H	0.500168	-0.298489	-0.426232
H368	H	0.833502	0.034844	-0.092899
H369	H	1.166835	0.368178	0.240435
H370	H	0.144617	-0.404451	-0.374835
H371	H	0.477951	-0.071117	-0.041502
H372	H	0.811284	0.262216	0.291832
C373	C	0.821231	-0.573458	-0.386191
C374	C	1.154564	-0.240125	-0.052858
C375	C	1.487898	0.093209	0.280475
H376	H	0.797363	-0.604646	-0.410027
H377	H	1.130696	-0.271313	-0.076694
H378	H	1.464029	0.062020	0.256639
H379	H	0.845179	-0.545841	-0.413515
H380	H	1.178512	-0.212508	-0.080182
H381	H	1.511846	0.120826	0.253151
H382	H	0.793931	-0.545928	-0.362184
H383	H	1.127264	-0.212594	-0.028851
H384	H	1.460598	0.120739	0.304483
H385	H	0.978276	-0.247287	-0.541367
H386	H	1.311609	0.086046	-0.208034
H387	H	1.644942	0.419380	0.125300
H388	H	0.896524	-0.436359	-0.861827
H389	H	1.229858	-0.103026	-0.528493
H390	H	1.563191	0.230308	-0.195160
C391	C	0.894962	-0.453817	-0.733770
C392	C	1.228296	-0.120484	-0.400436
C393	C	1.561629	0.212849	-0.067103
H394	H	0.891968	-0.490124	-0.762624
H395	H	1.225301	-0.156790	-0.429291
H396	H	1.558634	0.176543	-0.095957
H397	H	0.858610	-0.452858	-0.708268
H398	H	1.191944	-0.119524	-0.374934
H399	H	1.525277	0.213809	-0.041601
H400	H	0.930822	-0.459857	-0.708220
H401	H	1.264155	-0.126524	-0.374887
H402	H	1.597489	0.206809	-0.041554
C403	C	0.821344	-0.416703	-0.669304
C404	C	1.154677	-0.083370	-0.335971
C405	C	1.488010	0.249963	-0.002638
H406	H	0.827092	-0.410494	-0.712965
H407	H	1.160425	-0.077161	-0.379631
H408	H	1.493759	0.256173	-0.046298
H409	H	0.779250	-0.406813	-0.658553
H410	H	1.112583	-0.073480	-0.325219
H411	H	1.445916	0.259854	0.008114
H412	H	0.830495	-0.462184	-0.658584
H413	H	1.163829	-0.128851	-0.325251
H414	H	1.497162	0.204483	0.008083
