data_functionalizedCrystal
_audit_creation_method	'MofGen! by Chris Wilmer'
_symmetry_space_group_name_H-M	'P1'
_symmetry_Int_Tables_number	1
_symmetry_cell_setting	triclinic
loop_
_symmetry_equiv_pos_as_xyz
  x,y,z
_cell_length_a	12.645035
_cell_length_b	13.032831
_cell_length_c	13.032268
_cell_angle_alpha	90.886977
_cell_angle_beta	82.719845
_cell_angle_gamma	97.027649
loop_
_atom_site_label
_atom_site_type_symbol
_atom_site_fract_x
_atom_site_fract_y
_atom_site_fract_z
Zn1	Zn	0.715917	1.496651	-0.782433
Zn2	Zn	1.215917	1.996651	-0.282433
Zn3	Zn	0.873861	1.517990	-0.610805
Zn4	Zn	1.373861	2.017990	-0.110805
Zn5	Zn	0.671633	1.346622	-0.588575
Zn6	Zn	1.171633	1.846622	-0.088575
Zn7	Zn	0.868129	1.324252	-0.760918
Zn8	Zn	1.368129	1.824252	-0.260918
O9	O	0.782385	1.421379	-0.685683
O10	O	1.282385	1.921379	-0.185683
O11	O	0.757801	1.643349	-0.777974
O12	O	1.257801	2.143349	-0.277974
O13	O	0.830900	1.513550	-0.463904
O14	O	1.330900	2.013550	0.036096
O15	O	0.529173	1.366955	-0.613991
O16	O	1.029173	1.866955	-0.113991
O17	O	0.873841	1.659026	-0.651880
O18	O	1.373841	2.159026	-0.151880
O19	O	0.561708	1.477181	-0.756418
O20	O	1.061708	1.977181	-0.256418
O21	O	0.682324	1.387647	-0.447571
O22	O	1.182324	1.887647	0.052429
O23	O	0.676766	1.199788	-0.593129
O24	O	1.176766	1.699788	-0.093129
O25	O	0.864072	1.328829	-0.907725
O26	O	1.364072	1.828829	-0.407725
O27	O	0.821132	1.183353	-0.719748
O28	O	1.321132	1.683353	-0.219748
O29	O	0.752243	1.455490	-0.923532
O30	O	1.252243	1.955490	-0.423532
O31	O	1.021435	1.491859	-0.631017
O32	O	1.521435	1.991859	-0.131017
O33	O	1.017224	1.349521	-0.741304
O34	O	1.517224	1.849521	-0.241304
C35	C	0.743522	1.154267	-0.651692
C36	C	1.243522	1.654267	-0.151692
C37	C	0.726925	1.039992	-0.637176
C38	C	1.226925	1.539992	-0.137176
C39	C	0.505904	1.422183	-0.685125
C40	C	1.005904	1.922183	-0.185125
C41	C	0.388084	1.422526	-0.684887
C42	C	0.888084	1.922526	-0.184887
C43	C	0.791047	0.980952	-0.693259
C44	C	1.291047	1.480952	-0.193259
C45	C	0.773895	0.862843	-0.678257
C46	C	1.273895	1.362843	-0.178257
C47	C	0.240955	1.489859	-0.776052
C48	C	0.740955	1.989859	-0.276052
C49	C	0.363551	1.491450	-0.774893
C50	C	0.863551	1.991450	-0.274893
C51	C	0.334041	1.465263	-0.580593
C52	C	0.834041	1.965263	-0.080593
C53	C	0.211553	1.464530	-0.582094
C54	C	0.711553	1.964530	-0.082094
C55	C	0.209777	1.308512	-0.700028
C56	C	0.709777	1.808512	-0.200028
C57	C	0.332781	1.310032	-0.701529
C58	C	0.832781	1.810032	-0.201529
C59	C	1.057797	1.420603	-0.686265
C60	C	1.557797	1.920603	-0.186265
C61	C	1.175638	1.420361	-0.686560
C62	C	1.675638	1.920361	-0.186560
C63	C	0.812458	1.387284	-0.953997
C64	C	1.312458	1.887284	-0.453997
C65	C	0.825274	1.372754	-1.068337
C66	C	1.325274	1.872754	-0.568337
C67	C	0.821400	1.689534	-0.719806
C68	C	1.321400	2.189534	-0.219806
C69	C	0.838026	1.803805	-0.734348
C70	C	1.338026	2.303805	-0.234348
C71	C	0.775656	1.428946	-1.127134
C72	C	1.275656	1.928946	-0.627134
C73	C	0.788900	1.413931	-1.245310
C74	C	1.288900	1.913931	-0.745310
C75	C	0.752361	1.455401	-0.418420
C76	C	1.252361	1.955401	0.081580
C77	C	0.739276	1.470130	-0.304105
C78	C	1.239276	1.970130	0.195895
H79	H	0.858640	1.017845	-0.752384
H80	H	1.358640	1.517845	-0.252384
Br81	Br	0.614248	0.978511	-0.538640
Br82	Br	1.114248	1.478511	-0.038640
H83	H	0.401159	1.463081	-0.852666
H84	H	0.901159	1.963081	-0.352666
H85	H	0.686981	1.529352	-1.266960
H86	H	1.186981	2.029352	-0.766960
H87	H	0.841180	1.354696	-1.282455
H88	H	1.341180	1.854696	-0.782455
H89	H	0.368817	1.278009	-0.778241
H90	H	0.868817	1.778009	-0.278241
Br91	Br	0.137114	1.385125	-0.468339
Br92	Br	0.637114	1.885125	0.031661
H93	H	0.723367	1.488166	-1.089983
H94	H	1.223367	1.988166	-0.589983
Br95	Br	0.357570	1.385544	-0.466610
Br96	Br	0.857570	1.885544	0.033390
Br97	Br	0.661213	0.801367	-0.579717
Br98	Br	1.161213	1.301367	-0.079717
H99	H	0.905622	0.840692	-0.793480
H100	H	1.405622	1.340692	-0.293480
H101	H	0.372264	1.547264	-0.566498
H102	H	0.872264	2.047264	-0.066498
Br103	Br	0.204472	1.441938	-0.906967
Br104	Br	0.704472	1.941938	-0.406967
Br105	Br	0.203639	1.626748	-0.763324
Br106	Br	0.703639	2.126748	-0.263324
Br107	Br	0.426560	1.630176	-0.761090
Br108	Br	0.926560	2.130176	-0.261090
Br109	Br	0.176680	1.601559	-0.560252
Br110	Br	0.676680	2.101559	-0.060252
Br111	Br	0.168359	1.246912	-0.824218
Br112	Br	0.668359	1.746912	-0.324218
Br113	Br	0.358786	1.218386	-0.598102
Br114	Br	0.858786	1.718386	-0.098102
Br115	Br	0.136301	1.222000	-0.591057
Br116	Br	0.636301	1.722000	-0.091057
Br117	Br	0.912411	1.274031	-1.130244
Br118	Br	1.412411	1.774031	-0.630244
