data_functionalizedCrystal
_audit_creation_method	'MofGen! by Chris Wilmer'
_symmetry_space_group_name_H-M	'P1'
_symmetry_Int_Tables_number	1
_symmetry_cell_setting	triclinic
loop_
_symmetry_equiv_pos_as_xyz
  x,y,z
_cell_length_a	17.699097
_cell_length_b	10.489741
_cell_length_c	16.776229
_cell_angle_alpha	90.006341
_cell_angle_beta	90.010738
_cell_angle_gamma	83.913802
loop_
_atom_site_label
_atom_site_type_symbol
_atom_site_fract_x
_atom_site_fract_y
_atom_site_fract_z
O1	O	1.005128	0.161376	0.066354
O2	O	1.505128	0.661376	0.566354
O3	O	0.784888	0.182343	0.066341
O4	O	1.284888	0.682343	0.566341
O5	O	0.900019	-0.013831	0.066343
O6	O	1.400019	0.486169	0.566343
O7	O	0.889996	0.357550	0.066352
O8	O	1.389996	0.857550	0.566352
O9	O	0.900004	-0.013843	-0.066233
O10	O	1.400004	0.486157	0.433767
O11	O	0.784872	0.182331	-0.066235
O12	O	1.284872	0.682331	0.433765
O13	O	1.005112	0.161364	-0.066222
O14	O	1.505112	0.661364	0.433778
Zn15	Zn	0.894990	0.171846	-0.087278
Zn16	Zn	1.394990	0.671846	0.412722
Zn17	Zn	0.895010	0.171862	0.087397
Zn18	Zn	1.395010	0.671862	0.587397
O19	O	0.889981	0.357538	-0.066225
O20	O	1.389981	0.857538	0.433775
C21	C	0.756678	0.181583	0.000051
C22	C	1.256678	0.681583	0.500051
C23	C	0.672646	0.179321	0.000046
C24	C	1.172646	0.679321	0.500046
C25	C	0.156846	0.165459	0.072345
C26	C	0.656846	0.665459	0.572345
C27	C	0.235804	0.167576	0.072341
C28	C	0.735804	0.667576	0.572341
C29	C	0.275268	0.168630	0.000071
C30	C	0.775268	0.668630	0.500071
C31	C	0.235771	0.167554	-0.072201
C32	C	0.735771	0.667554	0.427799
C33	C	0.156815	0.165428	-0.072196
C34	C	0.656815	0.665428	0.427804
C35	C	0.554192	0.176127	-0.072221
C36	C	1.054192	0.676127	0.427779
C37	C	0.633153	0.178258	-0.072221
C38	C	1.133153	0.678258	0.427779
C39	C	0.633180	0.178276	0.072316
C40	C	1.133180	0.678276	0.572316
C41	C	0.554224	0.176150	0.072321
C42	C	1.054224	0.676150	0.572321
C43	C	0.514734	0.175067	0.000050
C44	C	1.014734	0.675067	0.500050
C45	C	0.429119	0.172769	0.000055
C46	C	0.929119	0.672769	0.500055
C47	C	0.360881	0.170938	0.000065
C48	C	0.860881	0.670938	0.500065
C49	C	0.899255	-0.061354	0.000055
C50	C	1.399255	0.438646	0.500055
C51	C	0.896990	-0.202942	0.000057
C52	C	1.396990	0.297058	0.500057
C53	C	0.823735	-0.269727	0.000058
C54	C	1.323735	0.230273	0.500058
C55	C	0.858332	-0.362495	-0.065307
C56	C	1.358332	0.137505	0.434693
C57	C	0.858365	-0.362459	0.065403
C58	C	1.358365	0.137541	0.565403
C59	C	0.931617	-0.293846	-0.065362
C60	C	1.431617	0.206154	0.434638
C61	C	0.931640	-0.293799	0.065406
C62	C	1.431640	0.206201	0.565406
C63	C	0.966290	-0.386541	0.000025
C64	C	1.466290	0.113459	0.500025
C65	C	1.033322	0.162124	0.000069
C66	C	1.533322	0.662124	0.500069
C67	C	1.117354	0.164387	0.000080
C68	C	1.617354	0.664387	0.500080
C69	C	0.890746	0.405062	0.000065
C70	C	1.390746	0.905062	0.500065
C71	C	0.893011	0.546650	0.000069
C72	C	1.393011	1.046650	0.500069
N73	N	0.894982	0.171834	-0.206490
N74	N	1.394982	0.671834	0.293510
C75	C	0.945978	0.085004	-0.248206
C76	C	1.445978	0.585004	0.251794
C77	C	0.945982	0.085003	-0.331658
C78	C	1.445982	0.585003	0.168342
C79	C	0.894993	0.171839	-0.373392
C80	C	1.394993	0.671839	0.126608
C81	C	0.843991	0.258674	-0.331670
C82	C	1.343991	0.758674	0.168330
C83	C	0.843984	0.258668	-0.248220
C84	C	1.343984	0.758668	0.251780
C85	C	0.844019	0.258699	-0.668218
C86	C	1.344019	0.758699	-0.168218
C87	C	0.844032	0.258701	-0.751674
C88	C	1.344032	0.758701	-0.251674
C89	C	0.946017	0.085034	-0.751656
C90	C	1.446017	0.585034	-0.251656
C91	C	0.946009	0.085028	-0.668205
C92	C	1.446009	0.585028	-0.168205
C93	C	0.895005	0.171857	-0.626490
C94	C	1.395005	0.671857	-0.126490
C95	C	0.895001	0.171856	-0.536002
C96	C	1.395001	0.671856	-0.036002
C97	C	0.895001	0.171848	-0.463879
C98	C	1.395001	0.671848	0.036121
N99	N	0.895025	0.171863	0.206608
N100	N	1.395025	0.671863	0.706608
H101	H	0.522095	0.175298	0.131171
H102	H	1.022095	0.675298	0.631171
H103	H	0.802457	0.329372	-0.214255
H104	H	1.302457	0.829372	0.285745
Cl105	Cl	0.810501	-0.409404	0.150717
Cl106	Cl	1.310501	0.090596	0.650717
H107	H	0.522050	0.175227	-0.131069
H108	H	1.022050	0.675227	0.368931
H109	H	0.124719	0.164610	0.131197
H110	H	0.624719	0.664610	0.631197
H111	H	0.987502	0.014297	-0.214231
H112	H	1.487502	0.514297	0.285769
H113	H	0.124662	0.164568	-0.131042
H114	H	0.624662	0.664568	0.368958
Cl115	Cl	1.010134	-0.024130	-0.804102
Cl116	Cl	1.510134	0.475870	-0.304102
H117	H	0.802508	0.329416	-0.785653
H118	H	1.302508	0.829416	-0.285653
Cl119	Cl	0.979465	-0.246739	0.150736
Cl120	Cl	1.479465	0.253261	0.650736
H121	H	0.665342	0.179152	0.131163
H122	H	1.165342	0.679152	0.631163
Cl123	Cl	0.730746	-0.191348	-0.000044
Cl124	Cl	1.230746	0.308652	0.499956
H125	H	0.802491	0.329401	-0.634260
H126	H	1.302491	0.829401	-0.134260
H127	H	0.802472	0.329373	-0.365655
H128	H	1.302472	0.829373	0.134345
Cl129	Cl	0.682764	0.179580	-0.163082
Cl130	Cl	1.182764	0.679580	0.336918
Cl131	Cl	0.979423	-0.247144	-0.150777
Cl132	Cl	1.479423	0.252856	0.349223
H133	H	0.987506	0.014298	-0.365623
H134	H	1.487506	0.514298	0.134377
H135	H	0.267910	0.168404	-0.131045
H136	H	0.767910	0.668404	0.368955
Cl137	Cl	0.810470	-0.409499	-0.150632
Cl138	Cl	1.310470	0.090501	0.349368
H139	H	0.267955	0.168441	0.131188
H140	H	0.767955	0.668441	0.631188
Cl141	Cl	1.010114	-0.024137	-0.615742
Cl142	Cl	1.510114	0.475863	-0.115742
H143	H	1.026574	-0.437080	-0.000007
H144	H	1.526574	0.062920	0.499993
