data_functionalizedCrystal
_audit_creation_method	'MofGen! by Chris Wilmer'
_symmetry_space_group_name_H-M	'P1'
_symmetry_Int_Tables_number	1
_symmetry_cell_setting	triclinic
loop_
_symmetry_equiv_pos_as_xyz
  x,y,z
_cell_length_a	10.686685
_cell_length_b	12.759401
_cell_length_c	12.759393
_cell_angle_alpha	90.019837
_cell_angle_beta	94.346762
_cell_angle_gamma	94.358587
loop_
_atom_site_label
_atom_site_type_symbol
_atom_site_fract_x
_atom_site_fract_y
_atom_site_fract_z
Zn1	Zn	-0.502166	-1.638349	-0.626140
Zn2	Zn	-0.713186	-1.651730	-0.463957
Zn3	Zn	-0.502238	-1.462655	-0.450479
Zn4	Zn	-0.713094	-1.476120	-0.639588
O5	O	-0.607671	-1.557213	-0.545041
O6	O	-0.530168	-1.787145	-0.604638
O7	O	-0.685272	-1.626614	-0.315153
O8	O	-0.325672	-1.474727	-0.462512
O9	O	-0.685203	-1.796976	-0.485483
O10	O	-0.325619	-1.603808	-0.591569
O11	O	-0.530289	-1.487702	-0.305251
O12	O	-0.530199	-1.317420	-0.475553
O13	O	-0.685045	-1.497675	-0.784821
O14	O	-0.685115	-1.327312	-0.614491
O15	O	-0.530078	-1.616864	-0.774940
O16	O	-0.889730	-1.639669	-0.498524
O17	O	-0.889663	-1.510650	-0.627559
C18	C	-0.607656	-1.284245	-0.545019
C19	C	-0.607679	-1.167470	-0.545037
C20	C	-0.935476	-1.578101	-0.565986
C21	C	-1.075712	-1.587133	-0.574982
C22	C	-0.607543	-1.557279	-0.819066
C23	C	-0.607489	-1.557306	-0.935840
C24	C	-0.278587	-1.536273	-0.524037
C25	C	-0.138350	-1.527349	-0.515087
C26	C	-0.607687	-1.831248	-0.545064
C27	C	-0.607694	-1.948025	-0.545073
C28	C	-0.688466	-1.117794	-0.617284
C29	C	-0.688471	-1.008071	-0.617305
C30	C	-0.526899	-0.997708	-0.472823
C31	C	-0.526888	-1.107429	-0.472808
C32	C	-0.526775	-1.484998	-0.985544
C33	C	-0.526736	-1.485020	-1.095266
C34	C	-0.688129	-1.629668	-1.105569
C35	C	-0.688174	-1.629640	-0.995850
C36	C	-0.607707	-1.557203	-0.272076
C37	C	-0.607406	-1.557356	-0.155281
H38	H	-1.084688	-1.469256	-0.456923
H39	H	-1.129369	-1.645230	-0.633134
H40	H	-0.461094	-1.147875	-0.413975
N41	N	-0.775600	-1.182555	-0.695185
H42	H	-0.826777	-1.134431	-0.740956
H43	H	-0.724309	-1.224835	-0.740592
H44	H	-0.754254	-0.967630	-0.676137
H45	H	-0.461123	-0.948809	-0.414015
H46	H	-0.753906	-1.688525	-0.955380
N47	N	-0.439675	-1.407028	-1.148870
H48	H	-0.381196	-1.446014	-1.190672
H49	H	-0.491017	-1.361629	-1.197599
H50	H	-0.753819	-1.688560	-1.154442
N51	N	-0.439753	-1.406987	-0.920817
H52	H	-0.388616	-1.361184	-0.968958
H53	H	-0.491119	-1.361621	-0.878562
