data_functionalizedCrystal
_audit_creation_method	'MofGen! by Chris Wilmer'
_symmetry_space_group_name_H-M	'P1'
_symmetry_Int_Tables_number	1
_symmetry_cell_setting	triclinic
loop_
_symmetry_equiv_pos_as_xyz
  x,y,z
_cell_length_a	15.995350
_cell_length_b	15.995350
_cell_length_c	14.472310
_cell_angle_alpha	90.001162
_cell_angle_beta	89.990621
_cell_angle_gamma	83.492375
loop_
_atom_site_label
_atom_site_type_symbol
_atom_site_fract_x
_atom_site_fract_y
_atom_site_fract_z
O1	O	1.110997	0.107921	-0.076758
O2	O	0.867221	0.121248	-0.076776
O3	O	0.995773	-0.007303	-0.076766
O4	O	0.982445	0.236472	-0.076769
O5	O	0.995740	-0.007296	0.076916
O6	O	0.867188	0.121256	0.076906
O7	O	1.110963	0.107928	0.076924
Cu8	Cu	0.989073	0.114593	0.090947
Cu9	Cu	0.989112	0.114584	-0.090800
O10	O	0.982412	0.236480	0.076913
C11	C	0.836010	0.120701	0.000062
C12	C	0.743060	0.119049	0.000055
C13	C	0.405312	0.113117	0.000074
C14	C	0.452746	0.021565	0.000418
C15	C	0.549436	0.023217	0.000065
C16	C	0.572873	0.116060	0.000065
C17	C	0.531804	0.161212	-0.087692
C18	C	0.435169	0.158912	-0.087759
C19	C	0.434792	0.160812	0.087007
C20	C	0.531737	0.160790	0.088160
C21	C	0.667570	0.117727	0.000057
C22	C	0.310614	0.111452	0.000076
C23	C	0.995205	-0.038494	0.000073
C24	C	0.993553	-0.131444	0.000068
C25	C	0.987621	-0.469192	0.000071
C26	C	0.896069	-0.421758	-0.000281
C27	C	0.897721	-0.325068	0.000066
C28	C	0.990564	-0.301631	0.000069
C29	C	1.035701	-0.342705	0.087831
C30	C	1.033401	-0.439340	0.087904
C31	C	1.035330	-0.439707	-0.086861
C32	C	1.035309	-0.342762	-0.088021
C33	C	0.992231	-0.206934	0.000071
C34	C	0.985956	-0.563890	0.000075
C35	C	1.142175	0.108476	0.000083
C36	C	1.235125	0.110127	0.000084
C37	C	0.982980	0.267671	0.000072
C38	C	0.984631	0.360621	0.000071
N39	N	0.989051	0.114598	0.218778
N40	N	0.989140	0.114572	-0.218631
C41	C	0.989111	0.114581	0.592869
C42	C	0.920095	0.183135	0.553698
C43	C	0.920254	0.183385	0.446610
C44	C	0.989081	0.114590	0.407278
C45	C	1.076445	0.133671	0.446122
C46	C	1.076057	0.134159	0.553243
C47	C	0.971542	0.026741	0.553398
C48	C	0.969538	0.027327	0.446270
C49	C	0.989069	0.114593	0.302390
C50	C	0.989128	0.114579	0.697757
H51	H	0.560193	0.129845	-0.153002
H52	H	1.002307	-0.315516	-0.152945
H53	H	0.854945	0.171953	0.579481
O54	O	1.116077	-0.324392	-0.094183
C55	C	1.133967	-0.273668	-0.018648
H56	H	1.089107	-0.283343	0.040622
H57	H	1.125689	-0.204728	-0.040415
C58	C	1.280388	-0.286433	-0.059591
C59	C	1.225295	-0.298322	0.013208
H60	H	1.336724	-0.301638	-0.039943
H61	H	1.268335	-0.320605	-0.110483
H62	H	1.273479	-0.228983	-0.077723
H63	H	1.232196	-0.355773	0.031331
H64	H	1.237351	-0.264161	0.064104
O65	O	0.413188	0.119672	-0.165987
C66	C	0.325382	0.117055	-0.167054
H67	H	0.293705	0.169283	-0.121167
H68	H	0.310405	0.053468	-0.140062
C69	C	0.331396	0.065394	-0.323025
C70	C	0.292489	0.129546	-0.266672
H71	H	0.311106	0.073095	-0.384474
H72	H	0.390553	0.067154	-0.322306
H73	H	0.318912	0.012410	-0.300521
H74	H	0.304983	0.182526	-0.289170
H75	H	0.233333	0.127795	-0.267397
H76	H	0.859626	-0.441349	0.062299
H77	H	0.861973	-0.297200	0.063079
O78	O	0.429468	-0.021820	-0.074341
C79	C	0.449788	0.019788	-0.155817
H80	H	0.502151	0.060601	-0.140692
H81	H	0.391802	0.061134	-0.181759
C82	C	0.415271	-0.095871	-0.248780
C83	C	0.479588	-0.045750	-0.230206
H84	H	0.433649	-0.136297	-0.294669
H85	H	0.401577	-0.123903	-0.193889
H86	H	0.366954	-0.061407	-0.270394
H87	H	0.527899	-0.080212	-0.208582
H88	H	0.493290	-0.017725	-0.285096
H89	H	0.402921	0.226128	-0.091741
H90	H	1.000459	-0.457639	0.153505
H91	H	0.577308	-0.012521	-0.062951
H92	H	0.545930	0.229421	-0.090955
O93	O	0.855325	-0.291040	-0.074887
C94	C	0.787336	-0.233366	-0.045428
H95	H	0.800498	-0.210250	0.027069
H96	H	0.727333	-0.265621	-0.044619
C97	C	0.760175	-0.186409	-0.201317
C98	C	0.776345	-0.158013	-0.112277
H99	H	0.753392	-0.139929	-0.242554
H100	H	0.805979	-0.225267	-0.221165
H101	H	0.710175	-0.213288	-0.200630
H102	H	0.826350	-0.131144	-0.112964
H103	H	0.730549	-0.119148	-0.092431
H104	H	1.100617	-0.471588	0.091888
O105	O	1.094412	0.210584	0.583163
C106	C	1.026973	0.248954	0.636597
H107	H	0.989050	0.198560	0.665179
H108	H	0.984672	0.294393	0.591554
C109	C	1.108254	0.359457	0.682095
C110	C	1.061681	0.297561	0.717207
H111	H	1.129662	0.389443	0.731817
H112	H	1.153688	0.333608	0.646094
H113	H	1.072996	0.397313	0.644560
H114	H	1.096942	0.259700	0.754731
H115	H	1.016254	0.323405	0.753216
H116	H	1.103909	-0.328579	0.091097
O117	O	0.410371	0.124902	0.166279
C118	C	0.366161	0.056109	0.144363
H119	H	0.384825	0.032123	0.072246
H120	H	0.295625	0.076967	0.146278
C121	C	0.365015	0.014648	0.303830
C122	C	0.387944	-0.014817	0.215257
H123	H	0.378448	-0.029102	0.347563
H124	H	0.394797	0.060996	0.318597
H125	H	0.306236	0.032029	0.305413
H126	H	0.446724	-0.032188	0.213672
H127	H	0.358172	-0.061170	0.200492
O128	O	1.139088	0.075646	0.415610
C129	C	1.104750	0.016746	0.358578
H130	H	1.042044	0.046129	0.329313
H131	H	1.094407	-0.041319	0.400884
C132	C	1.242936	-0.044934	0.314603
C133	C	1.165922	-0.008844	0.278654
H134	H	1.280670	-0.060723	0.265304
H135	H	1.266070	-0.005255	0.353029
H136	H	1.234305	-0.093318	0.349858
H137	H	1.174553	0.039544	0.243409
H138	H	1.142791	-0.048516	0.240220
H139	H	0.931159	0.247952	0.580608
O140	O	0.564416	0.121396	0.165523
C141	C	0.624180	0.053650	0.140156
H142	H	0.649003	0.065094	0.067948
H143	H	0.593311	-0.007188	0.140491
C144	C	0.667141	0.032312	0.298223
C145	C	0.697635	0.046373	0.209539
H146	H	0.712450	0.027820	0.341023
H147	H	0.626875	0.077952	0.315315
H148	H	0.641418	-0.018385	0.298489
H149	H	0.723348	0.097074	0.209272
H150	H	0.737907	0.000741	0.192449
H151	H	1.102831	-0.471468	-0.087449
H152	H	1.129018	0.086196	0.579154
O153	O	0.897215	0.004716	0.585597
C154	C	0.883379	-0.074209	0.548912
H155	H	0.946133	-0.110142	0.527890
H156	H	0.840735	-0.064614	0.485795
C157	C	0.764028	-0.080713	0.648319
C158	C	0.841104	-0.124849	0.622506
H159	H	0.737947	-0.111949	0.693713
H160	H	0.773347	-0.027538	0.673032
H161	H	0.728501	-0.072719	0.595715
H162	H	0.876633	-0.132832	0.675107
H163	H	0.831790	-0.178026	0.597803
O164	O	0.550104	0.241558	0.094324
C165	C	0.600832	0.259461	0.018785
H166	H	0.591162	0.214609	-0.040485
H167	H	0.669771	0.251182	0.040547
C168	C	0.588060	0.405876	0.059733
C169	C	0.576177	0.350793	-0.013066
H170	H	0.572855	0.462215	0.040088
H171	H	0.553886	0.393815	0.110628
H172	H	0.645509	0.398967	0.077862
H173	H	0.518727	0.357695	-0.031185
H174	H	0.610341	0.362857	-0.063964
H175	H	0.855314	0.172016	0.420349
H176	H	0.403031	0.228313	0.087600
O177	O	0.852530	-0.443991	-0.075384
C178	C	0.904223	-0.502751	-0.128784
H179	H	0.955973	-0.535855	-0.083309
H180	H	0.933788	-0.468704	-0.187465
C181	C	0.787287	-0.527549	-0.225132
C182	C	0.850843	-0.568214	-0.169276
H183	H	0.754360	-0.567929	-0.250113
H184	H	0.752460	-0.487960	-0.189158
H185	H	0.811934	-0.499178	-0.274025
H186	H	0.826195	-0.596575	-0.120378
H187	H	0.885664	-0.607810	-0.205243
O188	O	1.095508	0.209191	0.414167
C189	C	1.174141	0.225379	0.449727
H190	H	1.212250	0.163448	0.469692
H191	H	1.164060	0.267377	0.513320
C192	C	1.175370	0.346053	0.351173
C193	C	1.222179	0.269987	0.375688
H194	H	1.205001	0.373573	0.305505
H195	H	1.122391	0.335149	0.327218
H196	H	1.166972	0.381041	0.404175
H197	H	1.230566	0.234996	0.322690
H198	H	1.275160	0.280886	0.399633
O199	O	0.998148	-0.308931	0.165719
C200	C	0.912935	-0.323790	0.166718
H201	H	0.904390	-0.380400	0.121256
H202	H	0.872272	-0.266015	0.139183
C203	C	0.896818	-0.272063	0.322252
C204	C	0.886324	-0.341598	0.266422
H205	H	0.880401	-0.283044	0.383754
H206	H	0.954227	-0.262049	0.321579
H207	H	0.862932	-0.223924	0.299296
H208	H	0.920218	-0.389733	0.289371
H209	H	0.828920	-0.351620	0.267101
H210	H	0.434210	-0.015027	0.063352
H211	H	1.005412	-0.460250	-0.153379
O212	O	0.933538	0.261211	0.416134
C213	C	0.868852	0.321053	0.448968
H214	H	0.839419	0.295536	0.513339
H215	H	0.818701	0.334157	0.393252
C216	C	0.941847	0.434532	0.394078
C217	C	0.905702	0.403194	0.473145
H218	H	0.964576	0.485202	0.408988
H219	H	0.985427	0.394216	0.371954
H220	H	0.900048	0.445445	0.347656
H221	H	0.947502	0.392272	0.519561
H222	H	0.862130	0.443511	0.495278
H223	H	0.905272	0.012845	0.420883
O224	O	1.025502	-0.036433	0.414234
C225	C	0.982234	-0.094044	0.364644
H226	H	0.919558	-0.061059	0.339171
H227	H	0.970340	-0.148631	0.411687
C228	C	1.112681	-0.168310	0.312626
C229	C	1.035705	-0.127794	0.281332
H230	H	1.145665	-0.189132	0.261237
H231	H	1.141833	-0.129498	0.346038
H232	H	1.102758	-0.213793	0.351829
H233	H	1.045629	-0.082306	0.242140
H234	H	1.006556	-0.166599	0.247911
O235	O	1.031467	-0.034215	0.583660
C236	C	0.993116	-0.094478	0.634837
H237	H	0.924294	-0.092533	0.613602
H238	H	0.997059	-0.079823	0.711700
C239	C	1.123389	-0.185118	0.641673
C240	C	1.038863	-0.182734	0.615587
H241	H	1.151610	-0.239558	0.629804
H242	H	1.149229	-0.144517	0.607198
H243	H	1.126664	-0.172902	0.705725
H244	H	1.035590	-0.194939	0.551535
H245	H	1.013024	-0.223339	0.650051
H246	H	0.577852	-0.012275	0.062973
