data_functionalizedCrystal
_audit_creation_method	'MofGen! by Chris Wilmer'
_symmetry_space_group_name_H-M	'P1'
_symmetry_Int_Tables_number	1
_symmetry_cell_setting	triclinic
loop_
_symmetry_equiv_pos_as_xyz
  x,y,z
_cell_length_a	17.077404
_cell_length_b	21.295417
_cell_length_c	21.295412
_cell_angle_alpha	89.969860
_cell_angle_beta	89.984809
_cell_angle_gamma	90.027672
loop_
_atom_site_label
_atom_site_type_symbol
_atom_site_fract_x
_atom_site_fract_y
_atom_site_fract_z
Zn1	Zn	1.199993	-0.250656	-0.355895
Zn2	Zn	1.699993	0.249344	0.144105
Zn3	Zn	1.199892	-0.355925	-0.250622
Zn4	Zn	1.699892	0.144075	0.249378
Zn5	Zn	1.068732	-0.250670	-0.250642
Zn6	Zn	1.568732	0.249330	0.249358
Zn7	Zn	1.068677	-0.355887	-0.355856
Zn8	Zn	1.568677	0.144113	0.144144
O9	O	1.134323	-0.303285	-0.303254
O10	O	1.634323	0.196715	0.196746
O11	O	1.309826	-0.264630	-0.341938
O12	O	1.809826	0.235370	0.158062
O13	O	1.182474	-0.341985	-0.162535
O14	O	1.682474	0.158015	0.337465
O15	O	1.086209	-0.162579	-0.264629
O16	O	1.586209	0.337421	0.235371
O17	O	1.309752	-0.341971	-0.264595
O18	O	1.809752	0.158029	0.235405
O19	O	1.182646	-0.162568	-0.341957
O20	O	1.682646	0.337432	0.158043
O21	O	1.086111	-0.264654	-0.162550
O22	O	1.586111	0.235346	0.337450
O23	O	0.958878	-0.264617	-0.264591
O24	O	1.458878	0.235383	0.235409
O25	O	1.086116	-0.341906	-0.443951
O26	O	1.586116	0.158094	0.056049
O27	O	0.958837	-0.341920	-0.341892
O28	O	1.458837	0.158080	0.158108
O29	O	1.182593	-0.264593	-0.443979
O30	O	1.682593	0.235407	0.056021
O31	O	1.182420	-0.444010	-0.264557
O32	O	1.682420	0.055990	0.235443
O33	O	1.086018	-0.443982	-0.341872
O34	O	1.586018	0.056018	0.158128
C35	C	0.930375	-0.303267	-0.303240
C36	C	1.430375	0.196733	0.196760
C37	C	0.843126	-0.303274	-0.303249
C38	C	1.343126	0.196726	0.196751
C39	C	0.802175	-0.263074	-0.343583
C40	C	1.302175	0.236926	0.156417
C41	C	0.720195	-0.263078	-0.343586
C42	C	1.220195	0.236922	0.156414
C43	C	0.679166	-0.303286	-0.303257
C44	C	1.179166	0.196714	0.196743
C45	C	0.720123	-0.343488	-0.262919
C46	C	1.220123	0.156512	0.237081
C47	C	0.802102	-0.343480	-0.262913
C48	C	1.302102	0.156520	0.237087
C49	C	0.549253	-0.343502	-0.262934
C50	C	1.049253	0.156498	0.237066
C51	C	0.467268	-0.343511	-0.262940
C52	C	0.967268	0.156489	0.237060
C53	C	0.467346	-0.263100	-0.343607
C54	C	0.967346	0.236900	0.156393
C55	C	0.549325	-0.263093	-0.343601
C56	C	1.049325	0.236907	0.156399
C57	C	0.590275	-0.303295	-0.303263
C58	C	1.090275	0.196705	0.196737
C59	C	1.134223	-0.466836	-0.303222
C60	C	1.634223	0.033164	0.196778
C61	C	1.134252	-0.536804	-0.303229
C62	C	1.634252	-0.036804	0.196771
C63	C	1.184438	-0.569608	-0.343523
C64	C	1.684438	-0.069608	0.156477
C65	C	1.184466	-0.635351	-0.343539
C66	C	1.684466	-0.135351	0.156461
C67	C	1.134316	-0.668287	-0.303249
C68	C	1.634316	-0.168287	0.196751
C69	C	1.084120	-0.635475	-0.262953
C70	C	1.584120	-0.135475	0.237047
C71	C	1.084088	-0.569734	-0.262943
C72	C	1.584088	-0.069734	0.237057
N73	N	1.128391	-0.771548	-0.248158
N74	N	1.628391	-0.271548	0.251842
N75	N	1.128425	-0.834000	-0.248170
N76	N	1.628425	-0.334000	0.251830
C77	C	1.134408	-0.866361	-0.303278
C78	C	1.634408	-0.366361	0.196722
N79	N	1.140369	-0.833913	-0.358375
N80	N	1.640369	-0.333913	0.141625
N81	N	1.140338	-0.771456	-0.358363
N82	N	1.640338	-0.271456	0.141637
C83	C	1.134345	-0.739572	-0.303256
C84	C	1.634345	-0.239572	0.196744
C85	C	1.184626	-0.970451	-0.343592
C86	C	1.684626	-0.470451	0.156408
C87	C	1.184648	-1.036195	-0.343608
C88	C	1.684648	-0.536195	0.156392
C89	C	1.084307	-1.036317	-0.263017
C90	C	1.584307	-0.536317	0.236983
C91	C	1.084281	-0.970575	-0.263006
C92	C	1.584281	-0.470575	0.236994
C93	C	1.134444	-0.937646	-0.303292
C94	C	1.634444	-0.437646	0.196708
C95	C	1.339068	-0.303303	-0.303268
C96	C	1.839068	0.196697	0.196732
C97	C	1.426317	-0.303311	-0.303275
C98	C	1.926317	0.196689	0.196725
C99	C	1.134360	-0.303244	-0.467444
C100	C	1.634360	0.196756	0.032556
C101	C	1.134375	-0.303227	-0.537412
C102	C	1.634375	0.196773	-0.037412
C103	C	1.134445	-0.139094	-0.303300
C104	C	1.634445	0.360906	0.196700
C105	C	1.134497	-0.069126	-0.303319
C106	C	1.634497	0.430874	0.196681
C107	C	1.184685	-0.262870	-1.036886
C108	C	1.684685	0.237130	-0.536886
C109	C	1.184679	-0.262885	-0.971144
C110	C	1.684679	0.237115	-0.471144
C111	C	1.134443	-0.303143	-0.938252
C112	C	1.634443	0.196857	-0.438252
C113	C	1.084224	-0.343401	-0.971108
C114	C	1.584224	0.156599	-0.471108
C115	C	1.084237	-0.343389	-1.036849
C116	C	1.584237	0.156611	-0.536849
N117	N	1.065707	-0.307985	-0.835025
N118	N	1.565707	0.192015	-0.335025
N119	N	1.065697	-0.307993	-0.772573
N120	N	1.565697	0.192007	-0.272573
C121	C	1.134402	-0.303183	-0.740177
C122	C	1.634402	0.196817	-0.240177
N123	N	1.203119	-0.298352	-0.772592
N124	N	1.703119	0.201648	-0.272592
N125	N	1.203128	-0.298342	-0.835049
N126	N	1.703128	0.201658	-0.335049
C127	C	1.134424	-0.303161	-0.866967
C128	C	1.634424	0.196839	-0.366967
C129	C	1.184615	-0.262948	-0.636043
C130	C	1.684615	0.237052	-0.136043
C131	C	1.184610	-0.262967	-0.570300
C132	C	1.684610	0.237033	-0.070300
C133	C	1.084148	-0.343480	-0.570265
C134	C	1.584148	0.156520	-0.070265
C135	C	1.084160	-0.343463	-0.636008
C136	C	1.584160	0.156537	-0.136008
C137	C	1.134392	-0.303194	-0.668893
C138	C	1.634392	0.196806	-0.168893
C139	C	1.134332	-0.303280	-0.139702
C140	C	1.634332	0.196720	0.360298
C141	C	1.134469	-0.303120	-0.069735
C142	C	1.634469	0.196880	0.430265
H143	H	0.835574	-0.230334	-0.376425
H144	H	1.335574	0.269666	0.123575
H145	H	0.835443	-0.376214	-0.230068
H146	H	1.335443	0.123786	0.269932
C147	C	1.239680	-0.671443	-0.387864
C148	C	1.739680	-0.171443	0.112136
N149	N	1.281269	-0.698625	-0.421249
N150	N	1.781269	-0.198625	0.078751
H151	H	1.043322	-0.376181	-0.944323
H152	H	1.543322	0.123819	-0.444323
C153	C	0.674989	-0.387715	-0.218556
C154	C	1.174989	0.112285	0.281444
N155	N	0.640994	-0.421031	-0.185142
N156	N	1.140994	0.078969	0.314858
H157	H	0.433865	-0.376252	-0.230102
H158	H	0.933865	0.123748	0.269898
H159	H	1.225470	-0.943639	-0.376398
H160	H	1.725470	-0.443639	0.123602
H161	H	1.043344	-0.376166	-1.063594
H162	H	1.543344	0.123834	-0.563594
H163	H	1.225517	-0.230157	-0.662820
H164	H	1.725517	0.269843	-0.162820
H165	H	1.043248	-0.376261	-0.543485
H166	H	1.543248	0.123739	-0.043485
H167	H	0.582592	-0.376238	-0.230085
H168	H	1.082592	0.123762	0.269915
H169	H	1.225508	-0.230193	-0.543556
H170	H	1.725508	0.269807	-0.043556
H171	H	1.225516	-1.062903	-0.376423
H172	H	1.725516	-0.562903	0.123577
H173	H	0.686856	-0.230345	-0.376431
H174	H	1.186856	0.269655	0.123569
H175	H	0.582728	-0.230356	-0.376444
H176	H	1.082728	0.269644	0.123556
C177	C	1.029130	-1.072543	-0.218706
C178	C	1.529130	-0.572543	0.281294
N179	N	0.987565	-1.099832	-0.185334
N180	N	1.487565	-0.599832	0.314666
C181	C	0.422298	-0.218879	-0.387981
C182	C	0.922298	0.281121	0.112019
N183	N	0.388365	-0.185576	-0.421406
N184	N	0.888365	0.314424	0.078594
C185	C	1.028909	-0.387735	-0.672142
C186	C	1.528909	0.112265	-0.172142
N187	N	0.987292	-0.421082	-0.699358
N188	N	1.487292	0.078918	-0.199358
C189	C	1.028986	-0.671706	-0.218610
C190	C	1.528986	-0.171706	0.281390
N191	N	0.987466	-0.698995	-0.185202
N192	N	1.487466	-0.198995	0.314798
H193	H	1.043220	-0.543024	-0.230130
H194	H	1.543220	-0.043024	0.269870
C195	C	1.239625	-0.533390	-0.387836
C196	C	1.739625	-0.033390	0.112164
N197	N	1.281193	-0.506109	-0.421212
N198	N	1.781193	-0.006109	0.078788
H199	H	1.043418	-0.943864	-0.230192
H200	H	1.543418	-0.443864	0.269808
C201	C	1.239948	-0.218577	-1.073056
C202	C	1.739948	0.281423	-0.573056
N203	N	1.281575	-0.185217	-1.100300
N204	N	1.781575	0.314783	-0.600300
H205	H	1.225570	-0.230107	-0.944394
H206	H	1.725570	0.269893	-0.444394
