data_functionalizedCrystal
_audit_creation_method	'MofGen! by Chris Wilmer'
_symmetry_space_group_name_H-M	'P1'
_symmetry_Int_Tables_number	1
_symmetry_cell_setting	triclinic
loop_
_symmetry_equiv_pos_as_xyz
  x,y,z
_cell_length_a	14.971486
_cell_length_b	14.048226
_cell_length_c	23.532409
_cell_angle_alpha	90.003987
_cell_angle_beta	96.768156
_cell_angle_gamma	90.003623
loop_
_atom_site_label
_atom_site_type_symbol
_atom_site_fract_x
_atom_site_fract_y
_atom_site_fract_z
O1	O	-1.186157	0.079044	0.074217
O2	O	-0.686157	0.579044	0.574217
O3	O	-0.925663	0.079070	0.083105
O4	O	-0.425663	0.579070	0.583105
O5	O	-1.063764	0.079058	-0.004237
O6	O	-0.563764	0.579058	0.495763
O7	O	-1.048056	0.079057	0.161559
O8	O	-0.548056	0.579057	0.661559
O9	O	-1.063761	-0.079264	-0.004244
O10	O	-0.563761	0.420736	0.495756
O11	O	-0.925660	-0.079252	0.083098
O12	O	-0.425660	0.420748	0.583098
O13	O	-1.186154	-0.079277	0.074210
O14	O	-0.686154	0.420723	0.574210
Zn15	Zn	-1.055907	-0.104401	0.078653
Zn16	Zn	-0.555907	0.395599	0.578653
Zn17	Zn	-1.055910	0.104194	0.078662
Zn18	Zn	-0.555910	0.604194	0.578662
O19	O	-1.048053	-0.079265	0.161552
O20	O	-0.548053	0.420735	0.661552
C21	C	-0.892341	-0.000088	0.082704
C22	C	-0.392341	0.499912	0.582704
C23	C	-0.793057	-0.000078	0.081513
C24	C	-0.293057	0.499922	0.581513
N25	N	-1.055914	0.246555	0.078665
N26	N	-0.555914	0.746555	0.578665
C27	C	-1.219476	-0.000117	0.074611
C28	C	-0.719476	0.499883	0.574611
C29	C	-1.318761	-0.000121	0.075802
C30	C	-0.818761	0.499879	0.575802
C31	C	-1.063363	-0.000101	-0.025458
C32	C	-0.563363	0.499899	0.474542
C33	C	-1.062159	-0.000094	-0.088680
C34	C	-0.562159	0.499906	0.411320
C35	C	-0.735290	-0.000079	0.132824
C36	C	-0.235290	0.499921	0.632824
C37	C	-0.642002	-0.000094	0.131701
C38	C	-0.142002	0.499906	0.631701
C39	C	-0.606483	-0.000099	0.079267
C40	C	-0.106483	0.499901	0.579267
C41	C	-0.664257	-0.000101	0.027952
C42	C	-0.164257	0.499899	0.527952
C43	C	-0.757543	-0.000093	0.029075
C44	C	-0.257543	0.499907	0.529075
C45	C	-0.469820	-0.000114	0.025615
C46	C	0.030180	0.499886	0.525615
C47	C	-0.376527	-0.000119	0.024491
C48	C	0.123473	0.499881	0.524491
C49	C	-0.354279	-0.000114	0.128241
C50	C	0.145721	0.499886	0.628241
C51	C	-0.447564	-0.000107	0.129364
C52	C	0.052436	0.499893	0.629364
C53	C	-0.505332	-0.000106	0.078049
C54	C	-0.005332	0.499894	0.578049
N55	N	-1.055911	-0.246762	0.078646
N56	N	-0.555911	0.253238	0.578646
C57	C	-1.117177	0.296367	0.040066
C58	C	-0.617177	0.796367	0.540066
C59	C	-1.117181	0.396025	0.040064
C60	C	-0.617181	0.896025	0.540064
C61	C	-1.055916	0.445868	0.078659
C62	C	-0.555916	0.945868	0.578659
C63	C	-0.994649	0.396048	0.117261
C64	C	-0.494649	0.896048	0.617261
C65	C	-0.994651	0.296393	0.117266
C66	C	-0.494651	0.796393	0.617266
C67	C	-0.994650	0.603763	0.117249
C68	C	-0.494650	1.103763	0.617249
C69	C	-0.994647	0.703425	0.117245
C70	C	-0.494647	1.203425	0.617245
C71	C	-1.117180	0.703395	0.040048
C72	C	-0.617180	1.203395	0.540048
C73	C	-1.117181	0.603739	0.040052
C74	C	-0.617181	1.103739	0.540052
C75	C	-1.055913	0.553926	0.078654
C76	C	-0.555913	1.053926	0.578654
C77	C	-1.057042	0.086212	-0.361943
C78	C	-0.557042	0.586212	0.138057
C79	C	-1.058160	0.086212	-0.302538
C80	C	-0.558160	0.586212	0.197462
O81	O	-1.058770	0.159605	-0.271808
O82	O	-0.558770	0.659605	0.228192
N83	N	-1.058711	-0.000090	-0.272838
N84	N	-0.558711	0.499910	0.227162
C85	C	-1.058155	-0.086399	-0.302546
C86	C	-0.558155	0.413601	0.197454
O87	O	-1.058727	-0.159806	-0.271829
O88	O	-0.558727	0.340194	0.228171
C89	C	-1.057043	-0.086398	-0.361951
C90	C	-0.557043	0.413602	0.138049
C91	C	-1.056483	-0.000090	-0.391647
C92	C	-0.556483	0.499910	0.108353
C93	C	-1.056482	0.172513	-0.391640
C94	C	-0.556482	0.672513	0.108360
C95	C	-1.055363	0.172513	-0.451041
C96	C	-0.555363	0.672513	0.048959
C97	C	-1.054804	0.086211	-0.480745
C98	C	-0.554804	0.586211	0.019255
C99	C	-1.055363	-0.000090	-0.451048
C100	C	-0.555363	0.499910	0.048952
C101	C	-1.056493	-0.172705	-0.391658
C102	C	-0.556493	0.327295	0.108342
C103	C	-1.055382	-0.172697	-0.451067
C104	C	-0.555382	0.327303	0.048933
C105	C	-1.054821	-0.086388	-0.480763
C106	C	-0.554821	0.413612	0.019237
C107	C	-1.053684	-0.086392	-0.540153
C108	C	-0.553684	0.413608	-0.040153
N109	N	-1.053133	-0.000090	-0.569853
N110	N	-0.553133	0.499910	-0.069853
C111	C	-1.053692	0.086212	-0.540149
C112	C	-0.553692	0.586212	-0.040149
C113	C	-1.060490	-0.086394	-0.177793
C114	C	-0.560490	0.413606	0.322207
C115	C	-1.061595	-0.086396	-0.118389
C116	C	-0.561595	0.413604	0.381611
C117	C	-1.061601	0.086215	-0.118386
C118	C	-0.561601	0.586215	0.381614
C119	C	-1.060490	0.086216	-0.177790
C120	C	-0.560490	0.586216	0.322210
C121	C	-1.059938	-0.000091	-0.207493
C122	C	-0.559938	0.499909	0.292507
C123	C	-1.051341	0.086204	-0.664895
C124	C	-0.551341	0.586204	-0.164895
C125	C	-1.050218	0.086196	-0.724301
C126	C	-0.550218	0.586196	-0.224301
C127	C	-1.050216	-0.086414	-0.724299
C128	C	-0.550216	0.413586	-0.224299
C129	C	-1.051334	-0.086406	-0.664899
C130	C	-0.551334	0.413594	-0.164899
C131	C	-1.051900	-0.000090	-0.635198
C132	C	-0.551900	0.499910	-0.135198
O133	O	-1.053077	-0.159747	-0.570921
O134	O	-0.553077	0.340253	-0.070921
O135	O	-1.053131	0.159607	-0.570875
O136	O	-0.553131	0.659607	-0.070875
C137	C	-1.048455	-0.000104	0.182773
C138	C	-0.548455	0.499896	0.682773
C139	C	-1.049658	-0.000105	0.245995
C140	C	-0.549658	0.499895	0.745995
H141	H	-0.764201	-0.000074	0.175521
H142	H	-0.264201	0.499926	0.675521
H143	H	-0.594972	-0.000094	0.173484
H144	H	-0.094972	0.499906	0.673484
H145	H	-0.944769	0.436637	0.148689
H146	H	-0.444769	0.936637	0.648689
F147	F	-1.051927	-0.178264	-0.633292
F148	F	-0.551927	0.321736	-0.133292
H149	H	-1.051802	0.156492	-0.640720
H150	H	-0.551802	0.656492	-0.140720
F151	F	-0.819023	-0.000095	-0.025537
F152	F	-0.319023	0.499905	0.474463
H153	H	-1.167067	0.436582	0.008634
H154	H	-0.667067	0.936582	0.508634
F155	F	-1.049613	-0.178258	-0.755922
F156	F	-0.549613	0.321742	-0.255922
F157	F	-0.338728	-0.000150	-0.031315
F158	F	0.161272	0.499850	0.468685
F159	F	-1.059895	0.178076	-0.209390
F160	F	-0.559895	0.678076	0.290610
H161	H	-0.476481	-0.000093	0.172060
H162	H	0.023519	0.499907	0.672060
H163	H	-0.944761	0.563208	0.148685
H164	H	-0.444761	1.063208	0.648685
F165	F	-1.182380	0.550692	-0.001028
F166	F	-0.682380	1.050692	0.498972
H167	H	-1.049758	0.156482	-0.748477
H168	H	-0.549758	0.656482	-0.248477
F169	F	-0.292797	-0.000117	0.182854
F170	F	0.207203	0.499883	0.682854
F171	F	-1.054774	0.264374	-0.482640
F172	F	-0.554774	0.764374	0.017360
H173	H	-0.944765	0.255836	0.148697
H174	H	-0.444765	0.755836	0.648697
H175	H	-1.056941	0.242794	-0.367462
H176	H	-0.556941	0.742794	0.132538
H177	H	-1.062054	0.156487	-0.094190
H178	H	-0.562054	0.656487	0.405810
H179	H	-1.062034	-0.156677	-0.094214
H180	H	-0.562034	0.343323	0.405786
H181	H	-1.060032	-0.156680	-0.201973
H182	H	-0.560032	0.343320	0.298027
F183	F	-1.054798	-0.264560	-0.482676
F184	F	-0.554798	0.235440	0.017324
F185	F	-0.531299	-0.000116	-0.029001
F186	F	-0.031299	0.499884	0.470999
F187	F	-0.626453	-0.000113	-0.027852
F188	F	-0.126453	0.499887	0.472148
F189	F	-1.182384	0.756413	-0.001036
F190	F	-0.682384	1.256413	0.498964
F191	F	-1.182381	0.243330	-0.001016
F192	F	-0.682381	0.743330	0.498984
H193	H	-0.944760	0.744003	0.148673
H194	H	-0.444760	1.244003	0.648673
H195	H	-1.056959	-0.242986	-0.367490
H196	H	-0.556959	0.257014	0.132510
