data_functionalizedCrystal
_audit_creation_method	'MofGen! by Chris Wilmer'
_symmetry_space_group_name_H-M	'P1'
_symmetry_Int_Tables_number	1
_symmetry_cell_setting	triclinic
loop_
_symmetry_equiv_pos_as_xyz
  x,y,z
_cell_length_a	12.759395
_cell_length_b	15.299816
_cell_length_c	12.759387
_cell_angle_alpha	99.651108
_cell_angle_beta	89.980929
_cell_angle_gamma	80.351966
loop_
_atom_site_label
_atom_site_type_symbol
_atom_site_fract_x
_atom_site_fract_y
_atom_site_fract_z
Zn1	Zn	1.678537	-0.358972	-0.666415
Zn2	Zn	2.178537	0.141028	-0.166415
Zn3	Zn	1.708805	-0.509813	-0.521162
Zn4	Zn	2.208805	-0.009813	-0.021162
Zn5	Zn	1.502849	-0.359021	-0.490761
Zn6	Zn	2.002849	0.140979	0.009239
Zn7	Zn	1.533188	-0.509750	-0.696788
Zn8	Zn	2.033188	-0.009750	-0.196788
O9	O	1.605845	-0.434389	-0.593782
O10	O	2.105845	0.065611	-0.093782
O11	O	1.829574	-0.378988	-0.647158
O12	O	2.329574	0.121012	-0.147158
O13	O	1.681455	-0.489857	-0.370117
O14	O	2.181455	0.010143	0.129883
O15	O	1.500790	-0.232806	-0.488628
O16	O	2.000790	0.267194	0.011372
O17	O	1.851812	-0.489810	-0.540441
O18	O	2.351812	0.010190	-0.040441
O19	O	1.629867	-0.232771	-0.617680
O20	O	2.129867	0.267229	-0.117680
O21	O	1.530140	-0.379070	-0.347782
O22	O	2.030140	0.120930	0.152218
O23	O	1.359851	-0.379009	-0.518080
O24	O	1.859851	0.120991	-0.018080
O25	O	1.552498	-0.489702	-0.839771
O26	O	2.052498	0.010298	-0.339771
O27	O	1.382141	-0.489749	-0.669447
O28	O	1.882141	0.010251	-0.169447
O29	O	1.659286	-0.378927	-0.817456
O30	O	2.159286	0.121073	-0.317456
O31	O	1.710874	-0.636012	-0.569893
O32	O	2.210874	-0.136012	-0.069893
O33	O	1.581848	-0.635966	-0.698925
O34	O	2.081848	-0.135966	-0.198925
C35	C	1.332875	-0.434378	-0.593761
C36	C	1.832875	0.065622	-0.093761
C37	C	1.216102	-0.434395	-0.593782
C38	C	1.716102	0.065605	-0.093782
C39	C	1.239388	-0.549895	-0.751221
C40	C	1.739388	-0.049895	-0.251221
C41	C	1.196172	-0.607652	-0.829944
C42	C	1.696172	-0.107652	-0.329944
C43	C	1.086453	-0.607663	-0.829960
C44	C	1.586453	-0.107663	-0.329960
C45	C	1.019946	-0.549909	-0.751244
C46	C	1.519946	-0.049909	-0.251244
C47	C	1.063162	-0.492152	-0.672520
C48	C	1.563162	0.007848	-0.172520
C49	C	1.172885	-0.492149	-0.672512
C50	C	1.672885	0.007851	-0.172512
C51	C	1.039874	-0.376648	-0.515088
C52	C	1.539874	0.123352	-0.015088
C53	C	1.149594	-0.376641	-0.515067
C54	C	1.649594	0.123359	-0.015067
C55	C	0.973367	-0.318894	-0.436373
C56	C	1.473367	0.181106	0.063627
C57	C	1.016584	-0.261140	-0.357643
C58	C	1.516584	0.238860	0.142357
C59	C	1.126310	-0.261132	-0.357630
C60	C	1.626310	0.238868	0.142370
C61	C	1.192810	-0.318884	-0.436343
C62	C	1.692810	0.181116	0.063657
C63	C	1.652966	-0.668713	-0.641027
C64	C	2.152966	-0.168713	-0.141027
C65	C	1.673221	-0.768958	-0.661274
C66	C	2.173221	-0.268958	-0.161274
C67	C	1.461769	-1.051905	-0.449431
C68	C	1.961769	-0.551905	0.050569
C69	C	1.442733	-0.957720	-0.430411
C70	C	1.942733	-0.457720	0.069589
C71	C	1.500354	-0.910525	-0.488125
C72	C	2.000354	-0.410525	0.011875
C73	C	1.577013	-0.957524	-0.564863
C74	C	2.077013	-0.457524	-0.064863
C75	C	1.596045	-1.051719	-0.583891
C76	C	2.096045	-0.551719	-0.083891
C77	C	1.634630	-0.910338	-0.622584
C78	C	2.134630	-0.410338	-0.122584
C79	C	1.711289	-0.957338	-0.699322
C80	C	2.211289	-0.457338	-0.199322
C81	C	1.730318	-1.051523	-0.718346
C82	C	2.230318	-0.551523	-0.218346
C83	C	1.672697	-1.098718	-0.660632
C84	C	2.172697	-0.598718	-0.160632
C85	C	1.615598	-0.816144	-0.603556
C86	C	2.115598	-0.316144	-0.103556
C87	C	1.749873	-0.815958	-0.738015
C88	C	2.249873	-0.315958	-0.238015
C89	C	1.768909	-0.910143	-0.757036
C90	C	2.268909	-0.410143	-0.257036
C91	C	1.879881	-0.434401	-0.593803
C92	C	2.379881	0.065599	-0.093803
C93	C	1.996658	-0.434406	-0.593812
C94	C	2.496658	0.065594	-0.093812
C95	C	1.605900	-0.434302	-0.867798
C96	C	2.105900	0.065698	-0.367798
C97	C	1.605923	-0.434265	-0.984567
C98	C	2.105923	0.065735	-0.484567
C99	C	1.558568	-0.199149	-0.546375
C100	C	2.058568	0.300851	-0.046375
C101	C	1.538421	-0.098904	-0.526173
C102	C	2.038421	0.401096	-0.026173
C103	C	1.717175	-0.318851	-1.180761
C104	C	2.217175	0.181149	-0.680761
C105	C	1.772763	-0.261193	-1.114284
C106	C	2.272763	0.238807	-0.614284
C107	C	1.772739	-0.261223	-1.004568
C108	C	2.272739	0.238777	-0.504568
C109	C	1.717124	-0.318919	-0.961329
C110	C	2.217124	0.181081	-0.461329
C111	C	1.661535	-0.376577	-1.027806
C112	C	2.161535	0.123423	-0.527806
C113	C	1.661562	-0.376539	-1.137522
C114	C	2.161562	0.123461	-0.637522
C115	C	1.550335	-0.491923	-1.051044
C116	C	2.050335	0.008077	-0.551044
C117	C	1.550351	-0.491890	-1.160759
C118	C	2.050351	0.008110	-0.660759
C119	C	1.494719	-0.549619	-1.007804
C120	C	1.994719	-0.049619	-0.507804
C121	C	1.439123	-0.607274	-1.074281
C122	C	1.939123	-0.107274	-0.574281
C123	C	1.439148	-0.607241	-1.184002
C124	C	1.939148	-0.107241	-0.684002
C125	C	1.494762	-0.549548	-1.227236
C126	C	1.994762	-0.049548	-0.727236
C127	C	1.605837	-0.434411	-0.320818
C128	C	2.105837	0.065589	0.179182
C129	C	1.605966	-0.434194	-0.203999
C130	C	2.105966	0.065806	0.296001
H131	H	0.884028	-0.318903	-0.436394
H132	H	1.384028	0.181097	0.063606
H133	H	1.494709	-0.549643	-0.918468
H134	H	1.994709	-0.049643	-0.418468
Br135	Br	1.184949	-0.182736	-0.250791
Br136	Br	1.684949	0.317264	0.249209
Br137	Br	1.341720	-0.318884	-0.436326
Br138	Br	1.841720	0.181116	0.063674
H139	H	1.818047	-0.214220	-1.149502
H140	H	2.318047	0.285780	-0.649502
H141	H	1.553181	-0.777886	-0.541076
H142	H	2.053181	-0.277886	-0.041076
Br143	Br	1.363712	-0.685503	-1.274215
Br144	Br	1.863712	-0.185503	-0.774215
Br145	Br	1.848191	-0.182980	-0.914346
Br146	Br	2.348191	0.317020	-0.414346
Br147	Br	1.872945	-0.973938	-0.861176
Br148	Br	2.372945	-0.473938	-0.361176
Br149	Br	1.338686	-0.893941	-0.326286
Br150	Br	1.838686	-0.393941	0.173714
Br151	Br	1.474108	-0.782701	-0.462721
Br152	Br	1.974108	-0.282701	0.037279
Br153	Br	1.383559	-1.115958	-0.371135
Br154	Br	1.883559	-0.615958	0.128865
Br155	Br	1.698776	-1.226546	-0.686197
Br156	Br	2.198776	-0.726546	-0.186197
Br157	Br	1.494791	-0.549491	-1.376134
Br158	Br	1.994791	-0.049491	-0.876134
H159	H	1.393851	-0.654249	-1.039066
H160	H	1.893851	-0.154249	-0.539066
H161	H	1.792734	-1.089787	-0.780836
H162	H	2.292734	-0.589787	-0.280836
Br163	Br	1.717184	-0.318786	-1.329657
Br164	Br	2.217184	0.181214	-0.829657
Br165	Br	1.717113	-0.318973	-0.812430
Br166	Br	2.217113	0.181027	-0.312430
Br167	Br	1.388299	-0.549900	-0.751190
Br168	Br	1.888299	-0.049900	-0.251190
Br169	Br	1.286436	-0.686034	-0.936763
Br170	Br	1.786436	-0.186034	-0.436763
H171	H	1.051267	-0.654689	-0.894068
H172	H	1.551267	-0.154689	-0.394068
H173	H	0.962425	-0.214117	-0.293563
H174	H	1.462425	0.285883	0.206437
H175	H	0.930606	-0.549915	-0.751271
H176	H	1.430606	-0.049915	-0.251271
Br177	Br	1.828073	-0.751916	-0.816351
Br178	Br	2.328073	-0.251916	-0.316351
