data_functionalizedCrystal
_audit_creation_method	'MofGen! by Chris Wilmer'
_symmetry_space_group_name_H-M	'P1'
_symmetry_Int_Tables_number	1
_symmetry_cell_setting	triclinic
loop_
_symmetry_equiv_pos_as_xyz
  x,y,z
_cell_length_a	10.654550
_cell_length_b	9.130313
_cell_length_c	10.654551
_cell_angle_alpha	90.002754
_cell_angle_beta	84.485166
_cell_angle_gamma	90.007043
loop_
_atom_site_label
_atom_site_type_symbol
_atom_site_fract_x
_atom_site_fract_y
_atom_site_fract_z
O1	O	1.667840	0.121914	0.176398
O2	O	1.302362	0.121890	0.193204
O3	O	1.493503	0.121899	0.002062
O4	O	1.476699	0.121904	0.367541
O5	O	1.493490	-0.121700	0.002057
O6	O	1.302349	-0.121709	0.193199
O7	O	1.667827	-0.121685	0.176393
Cu8	Cu	1.485087	-0.143940	0.184795
Cu9	Cu	1.485102	0.144144	0.184802
O10	O	1.476686	-0.121695	0.367535
C11	C	1.255557	0.000087	0.191968
C12	C	1.116114	0.000078	0.188276
N13	N	1.485085	-0.346562	0.184790
C14	C	1.492263	0.000102	-0.044739
C15	C	1.488570	0.000108	-0.184182
C16	C	1.036629	0.000101	0.300817
C17	C	0.905608	0.000126	0.297341
C18	C	0.933570	0.000112	0.068771
C19	C	1.064589	0.000076	0.072249
C20	C	1.020484	0.000116	0.432780
C21	C	0.889463	0.000141	0.429303
C22	C	1.714632	0.000121	0.177629
C23	C	1.854075	0.000139	0.181321
C24	C	1.569751	-0.423210	0.100188
C25	C	1.569763	-0.576547	0.100188
C26	C	1.400439	-0.576575	0.269403
C27	C	1.400422	-0.423241	0.269396
N28	N	1.485114	0.346767	0.184797
C29	C	1.486844	0.132895	-0.249682
C30	C	1.483364	0.132896	-0.380703
C31	C	1.483341	-0.132688	-0.380711
C32	C	1.486812	-0.132688	-0.249692
C33	C	1.477926	0.000106	0.414336
C34	C	1.481619	0.000109	0.553779
H35	H	0.891602	0.000133	-0.025694
H36	H	1.056145	0.105288	0.474801
H37	H	1.331509	-0.639022	0.338289
O38	O	1.488269	-0.261647	-0.185972
C39	C	1.381712	-0.269573	-0.096889
H40	H	1.304783	-0.194223	-0.127096
H41	H	1.345295	-0.387019	-0.090942
H42	H	1.408892	-0.233889	-0.000594
O43	O	1.488744	0.261843	-0.186002
C44	C	1.599305	0.269802	-0.123452
H45	H	1.674166	0.194478	-0.172219
H46	H	1.635772	0.387260	-0.126398
H47	H	1.577380	0.234105	-0.021160
O48	O	1.141621	0.000101	-0.037191
C49	C	1.068044	0.000069	-0.140338
H50	H	0.970567	0.046224	-0.109319
H51	H	1.115701	0.070762	-0.219272
H52	H	1.058367	-0.116801	-0.175833
H53	H	1.481956	0.241025	-0.434027
H54	H	0.843786	-0.105026	0.469182
O55	O	1.055443	-0.121658	0.494159
C56	C	1.018976	-0.247590	0.430210
H57	H	1.008169	-0.218860	0.327683
H58	H	1.094035	-0.336021	0.434060
H59	H	0.925238	-0.289720	0.477175
O60	O	1.481425	-0.261716	-0.444271
C61	C	1.373707	-0.342526	-0.398966
H62	H	1.298772	-0.264836	-0.353667
H63	H	1.334980	-0.402760	-0.480678
H64	H	1.400263	-0.425324	-0.325920
O65	O	0.839796	0.121721	0.488794
C66	C	0.868534	0.121466	0.615235
H67	H	0.955347	0.050666	0.624177
H68	H	0.888273	0.238254	0.645697
H69	H	0.785225	0.075276	0.678073
H70	H	1.638687	-0.360782	0.031295
H71	H	1.331470	-0.360830	0.338289
H72	H	1.638704	-0.638949	0.031296
