data_functionalizedCrystal
_audit_creation_method	'MofGen! by Chris Wilmer'
_symmetry_space_group_name_H-M	'P1'
_symmetry_Int_Tables_number	1
_symmetry_cell_setting	triclinic
loop_
_symmetry_equiv_pos_as_xyz
  x,y,z
_cell_length_a	19.805407
_cell_length_b	21.295416
_cell_length_c	19.805399
_cell_angle_alpha	89.971630
_cell_angle_beta	90.020409
_cell_angle_gamma	89.967728
loop_
_atom_site_label
_atom_site_type_symbol
_atom_site_fract_x
_atom_site_fract_y
_atom_site_fract_z
Zn1	Zn	1.034717	0.250591	0.382731
Zn2	Zn	1.034624	0.355860	0.269541
Zn3	Zn	0.921532	0.250612	0.269554
Zn4	Zn	0.921488	0.355830	0.382686
O5	O	0.978090	0.303223	0.326128
O6	O	1.129421	0.264559	0.367730
O7	O	1.019602	0.341920	0.174826
O8	O	0.936604	0.162520	0.284591
O9	O	1.129353	0.341900	0.284569
O10	O	1.019760	0.162505	0.367742
O11	O	0.936513	0.264595	0.174836
O12	O	0.826809	0.264566	0.284548
O13	O	0.936528	0.341849	0.477409
O14	O	0.826777	0.341869	0.367666
O15	O	1.019717	0.264530	0.477442
O16	O	1.019559	0.443945	0.284526
O17	O	0.936438	0.443923	0.367653
C18	C	0.802234	0.303217	0.326104
C19	C	0.727002	0.303229	0.326109
C20	C	0.265250	0.263027	0.369522
C21	C	0.335939	0.263029	0.369517
C22	C	0.371241	0.303233	0.326150
C23	C	0.335850	0.343443	0.282790
C24	C	0.265163	0.343445	0.282799
C25	C	0.620924	0.343438	0.282754
C26	C	0.691616	0.343432	0.282747
C27	C	0.691699	0.263022	0.369473
C28	C	0.621012	0.263024	0.369481
C29	C	0.585628	0.303236	0.326124
C30	C	0.508980	0.303235	0.326131
C31	C	0.447888	0.303231	0.326139
C32	C	0.978002	0.466775	0.326098
C33	C	0.978026	0.536743	0.326108
C34	C	1.021346	0.569600	0.282870
C35	C	1.021378	0.635343	0.282888
C36	C	0.978078	0.668226	0.326138
C37	C	0.934755	0.635360	0.369384
C38	C	0.934729	0.569619	0.369370
N39	N	0.918868	0.771493	0.331294
N40	N	0.918895	0.833945	0.331304
C41	C	0.978155	0.866300	0.326186
N42	N	1.037388	0.833845	0.321043
N43	N	1.037361	0.771388	0.321030
C44	C	0.978102	0.739511	0.326159
C45	C	1.021513	0.970443	0.282965
C46	C	1.021546	1.036187	0.282988
C47	C	0.934917	1.036203	0.369481
C48	C	0.934890	0.970461	0.369461
C49	C	0.978187	0.937584	0.326199
C50	C	1.154633	0.303230	0.326153
C51	C	1.229865	0.303233	0.326164
C52	C	0.978128	0.303184	0.502671
C53	C	0.978144	0.303167	0.577903
C54	C	0.978198	1.139033	0.326185
C55	C	0.978246	1.069065	0.326238
C56	C	0.978091	0.303217	0.150272
C57	C	0.978206	0.303057	0.075041
C58	C	1.021462	0.262905	0.613265
C59	C	1.021469	0.262887	0.683954
C60	C	0.978161	0.303134	0.719279
C61	C	0.934839	0.343397	0.683911
C62	C	0.934829	0.343412	0.613224
C63	C	0.934877	0.343339	0.968985
C64	C	0.934892	0.343322	1.039677
C65	C	1.021517	0.262813	1.039714
C66	C	1.021507	0.262828	0.969027
C67	C	0.978183	0.303089	0.933666
C68	C	0.978175	0.303107	0.857018
C69	C	0.978172	0.303119	0.795926
H70	H	0.364746	0.230291	0.404826
H71	H	0.720517	0.230281	0.404778
C72	C	0.887769	0.671172	0.416267
C73	C	0.897049	0.735779	0.407013
C74	C	0.853771	0.768787	0.450187
H75	H	0.897601	0.660437	0.461779
H76	H	0.842278	0.660479	0.406310
H77	H	0.942529	0.746468	0.416975
H78	H	0.887212	0.746532	0.361510
H79	H	0.808281	0.758094	0.440230
H80	H	0.863607	0.758047	0.495696
H81	H	0.860057	0.812626	0.443909
C82	C	0.729823	0.387159	0.235639
C83	C	0.683707	0.422389	0.197684
C84	C	0.718879	0.462680	0.154290
H85	H	0.757400	0.363114	0.206129
H86	H	0.757381	0.414646	0.261464
H87	H	0.656160	0.394906	0.171860
H88	H	0.656128	0.446447	0.227176
H89	H	0.746436	0.490167	0.180116
H90	H	0.746454	0.438630	0.124784
H91	H	0.687594	0.486592	0.128537
H92	H	0.899622	0.376098	1.068436
C93	C	0.887617	0.534055	0.416340
C94	C	0.849693	0.576920	0.454213
C95	C	0.806279	0.544180	0.497482
H96	H	0.913406	0.508363	0.445908
H97	H	0.858094	0.508468	0.390428
H98	H	0.879212	0.602497	0.480123
H99	H	0.823890	0.602613	0.424663
H100	H	0.776755	0.518593	0.471570
H101	H	0.832073	0.518490	0.527045
H102	H	0.780537	0.573259	0.523179
C103	C	0.582563	0.219399	0.416495
C104	C	0.513084	0.227996	0.407211
C105	C	0.477645	0.187816	0.450505
H106	H	0.594083	0.228629	0.461980
H107	H	0.594126	0.177077	0.406666
H108	H	0.501526	0.270308	0.417044
H109	H	0.501544	0.218761	0.361735
H110	H	0.489208	0.145493	0.440676
H111	H	0.489171	0.197049	0.495987
H112	H	0.430501	0.193639	0.444207
C113	C	1.068283	0.533794	0.235931
C114	C	1.058979	0.469186	0.245158
C115	C	1.102200	0.436180	0.201925
H116	H	1.113786	0.544447	0.245838
H117	H	1.058399	0.544570	0.190433
H118	H	1.068868	0.458414	0.290646
H119	H	1.013485	0.458514	0.235247
H120	H	1.092316	0.446957	0.156426
H121	H	1.147700	0.446839	0.211835
H122	H	1.095888	0.392341	0.208175
H123	H	1.056770	0.943674	0.247740
H124	H	1.056730	0.230133	0.584509
H125	H	0.236353	0.376186	0.247493
H126	H	1.056744	0.230103	0.712743
H127	H	1.056792	0.230029	1.068514
H128	H	1.056826	1.062938	0.247779
C129	C	0.887872	0.386986	0.930477
C130	C	0.897114	0.378377	0.861010
C131	C	0.853818	0.418571	0.825513
H132	H	0.897711	0.429304	0.941971
H133	H	0.842388	0.377764	0.942018
H134	H	0.942588	0.387603	0.849474
H135	H	0.887270	0.336067	0.849496
H136	H	0.808333	0.409349	0.837054
H137	H	0.863661	0.460887	0.837012
H138	H	0.860078	0.412731	0.778377
C139	C	0.227048	0.219353	0.416683
C140	C	0.273170	0.184156	0.454667
C141	C	0.238006	0.143924	0.498128
H142	H	0.199473	0.191837	0.390926
H143	H	0.199488	0.243457	0.446167
H144	H	0.300718	0.160054	0.425187
H145	H	0.300747	0.211655	0.480438
H146	H	0.210446	0.168028	0.527612
H147	H	0.210432	0.116412	0.472366
H148	H	0.269294	0.120042	0.523910
H149	H	1.056656	0.662100	0.247678
C150	C	0.887933	1.072010	0.416368
C151	C	0.897218	1.136617	0.407118
C152	C	0.853944	1.169624	0.450297
H153	H	0.897766	1.061271	0.461879
H154	H	0.842442	1.061320	0.406411
H155	H	0.942698	1.147302	0.417080
H156	H	0.887379	1.147374	0.361617
H157	H	0.808452	1.158934	0.440341
H158	H	0.863780	1.158880	0.495805
H159	H	0.860232	1.213463	0.444023
H160	H	0.899612	0.943707	0.404667
H161	H	1.056775	0.230057	0.940269
H162	H	0.899574	0.376165	0.712678
H163	H	0.899548	0.376191	0.584433
H164	H	0.592122	0.376180	0.247448
H165	H	0.364599	0.376181	0.247482
