data_functionalizedCrystal
_audit_creation_method	'MofGen! by Chris Wilmer'
_symmetry_space_group_name_H-M	'P1'
_symmetry_Int_Tables_number	1
_symmetry_cell_setting	triclinic
loop_
_symmetry_equiv_pos_as_xyz
  x,y,z
_cell_length_a	21.395362
_cell_length_b	16.625546
_cell_length_c	21.395356
_cell_angle_alpha	89.972354
_cell_angle_beta	89.957023
_cell_angle_gamma	90.038346
loop_
_atom_site_label
_atom_site_type_symbol
_atom_site_fract_x
_atom_site_fract_y
_atom_site_fract_z
Zn1	Zn	0.957889	-0.320680	-0.354586
Zn2	Zn	1.207889	-0.070680	-0.104586
Zn3	Zn	1.457889	0.179320	0.145414
Zn4	Zn	1.707889	0.429320	0.395414
Zn5	Zn	0.957809	-0.455517	-0.249808
Zn6	Zn	1.207809	-0.205517	0.000192
Zn7	Zn	1.457809	0.044483	0.250192
Zn8	Zn	1.707809	0.294483	0.500192
Zn9	Zn	0.853106	-0.320739	-0.249787
Zn10	Zn	1.103106	-0.070739	0.000213
Zn11	Zn	1.353106	0.179261	0.250213
Zn12	Zn	1.603106	0.429261	0.500213
Zn13	Zn	0.853089	-0.455512	-0.354513
Zn14	Zn	1.103089	-0.205512	-0.104513
Zn15	Zn	1.353089	0.044488	0.145487
Zn16	Zn	1.603089	0.294488	0.395487
O17	O	0.905473	-0.388112	-0.302174
O18	O	1.155473	-0.138112	-0.052174
O19	O	1.405473	0.111888	0.197826
O20	O	1.655473	0.361888	0.447826
O21	O	1.045557	-0.338544	-0.340726
O22	O	1.295557	-0.088544	-0.090726
O23	O	1.545557	0.161456	0.159274
O24	O	1.795557	0.411456	0.409274
O25	O	0.943893	-0.437665	-0.162128
O26	O	1.193893	-0.187665	0.087872
O27	O	1.443893	0.062335	0.337872
O28	O	1.693893	0.312335	0.587872
O29	O	0.867047	-0.207899	-0.263710
O30	O	1.117047	0.042101	-0.013710
O31	O	1.367047	0.292101	0.236290
O32	O	1.617047	0.542101	0.486290
O33	O	1.045497	-0.437608	-0.263747
O34	O	1.295497	-0.187608	-0.013747
O35	O	1.545497	0.062392	0.236253
O36	O	1.795497	0.312392	0.486253
O37	O	0.944031	-0.207856	-0.340706
O38	O	1.194031	0.042144	-0.090706
O39	O	1.444031	0.292144	0.159294
O40	O	1.694031	0.542144	0.409294
O41	O	0.866969	-0.338645	-0.162112
O42	O	1.116969	-0.088645	0.087888
O43	O	1.366969	0.161355	0.337888
O44	O	1.616969	0.411355	0.587888
O45	O	0.765426	-0.338640	-0.263640
O46	O	1.015426	-0.088640	-0.013640
O47	O	1.265426	0.161360	0.236360
O48	O	1.515426	0.411360	0.486360
O49	O	0.867017	-0.437599	-0.442201
O50	O	1.117017	-0.187599	-0.192201
O51	O	1.367017	0.062401	0.057799
O52	O	1.617017	0.312401	0.307799
O53	O	0.765413	-0.437657	-0.340582
O54	O	1.015413	-0.187657	-0.090582
O55	O	1.265413	0.062343	0.159418
O56	O	1.515413	0.312343	0.409418
O57	O	0.944014	-0.338539	-0.442254
O58	O	1.194014	-0.088539	-0.192254
O59	O	1.444014	0.161461	0.057746
O60	O	1.694014	0.411461	0.307746
O61	O	0.943876	-0.568349	-0.263676
O62	O	1.193876	-0.318349	-0.013676
O63	O	1.443876	-0.068349	0.236324
O64	O	1.693876	0.181651	0.486324
O65	O	0.866939	-0.568345	-0.340602
O66	O	1.116939	-0.318345	-0.090602
O67	O	1.366939	-0.068345	0.159398
O68	O	1.616939	0.181655	0.409398
C69	C	0.742686	-0.388155	-0.302101
C70	C	0.992686	-0.138155	-0.052101
C71	C	1.242686	0.111845	0.197899
C72	C	1.492686	0.361845	0.447899
C73	C	0.673044	-0.388192	-0.302085
C74	C	0.923044	-0.138192	-0.052085
C75	C	1.173044	0.111808	0.197915
C76	C	1.423044	0.361808	0.447915
C77	C	0.640341	-0.439819	-0.342088
C78	C	0.890341	-0.189819	-0.092088
C79	C	1.140341	0.060181	0.157912
C80	C	1.390341	0.310181	0.407912
C81	C	0.574905	-0.439799	-0.342116
C82	C	0.824905	-0.189799	-0.092116
C83	C	1.074905	0.060201	0.157884
C84	C	1.324905	0.310201	0.407884
C85	C	0.542176	-0.388161	-0.302129
C86	C	0.792176	-0.138161	-0.052129
C87	C	1.042176	0.111839	0.197871
C88	C	1.292176	0.361839	0.447871
C89	C	0.574887	-0.336525	-0.262123
C90	C	0.824887	-0.086525	-0.012123
C91	C	1.074887	0.163475	0.237877
C92	C	1.324887	0.413475	0.487877
C93	C	0.640321	-0.336540	-0.262101
C94	C	0.890321	-0.086540	-0.012101
C95	C	1.140321	0.163460	0.237899
C96	C	1.390321	0.413460	0.487899
C97	C	0.438451	-0.381677	-0.245724
C98	C	0.688451	-0.131677	0.004276
C99	C	0.938451	0.118323	0.254276
C100	C	1.188451	0.368323	0.504276
C101	C	0.373019	-0.381668	-0.245745
C102	C	0.623019	-0.131668	0.004255
C103	C	0.873019	0.118332	0.254255
C104	C	1.123019	0.368332	0.504255
C105	C	0.340355	-0.388109	-0.302198
C106	C	0.590355	-0.138109	-0.052198
C107	C	0.840355	0.111891	0.197802
C108	C	1.090355	0.361891	0.447802
C109	C	0.373133	-0.394577	-0.358632
C110	C	0.623133	-0.144577	-0.108632
C111	C	0.873133	0.105423	0.141368
C112	C	1.123133	0.355423	0.391368
C113	C	0.438567	-0.394592	-0.358610
C114	C	0.688567	-0.144592	-0.108610
C115	C	0.938567	0.105408	0.141390
C116	C	1.188567	0.355408	0.391390
C117	C	0.471224	-0.388138	-0.302149
C118	C	0.721224	-0.138138	-0.052149
C119	C	0.971224	0.111862	0.197851
C120	C	1.221224	0.361862	0.447851
C121	C	0.236699	-0.439716	-0.342236
C122	C	0.486699	-0.189716	-0.092236
C123	C	0.736699	0.060284	0.157764
C124	C	0.986699	0.310284	0.407764
C125	C	0.171263	-0.439691	-0.342265
C126	C	0.421263	-0.189691	-0.092265
C127	C	0.671263	0.060309	0.157735
C128	C	0.921263	0.310309	0.407735
C129	C	0.171246	-0.336421	-0.262266
C130	C	0.421246	-0.086421	-0.012266
C131	C	0.671246	0.163579	0.237734
C132	C	0.921246	0.413579	0.487734
C133	C	0.236681	-0.336442	-0.262242
C134	C	0.486681	-0.086442	-0.012242
C135	C	0.736681	0.163558	0.237758
C136	C	0.986681	0.413558	0.487758
C137	C	0.269404	-0.388094	-0.302227
C138	C	0.519404	-0.138094	-0.052227
C139	C	0.769404	0.111906	0.197773
C140	C	1.019404	0.361906	0.447773
C141	C	0.905414	-0.597603	-0.302147
C142	C	1.155414	-0.347603	-0.052147
C143	C	1.405414	-0.097603	0.197853
C144	C	1.655414	0.152397	0.447853
C145	C	0.905446	-0.687224	-0.302157
C146	C	1.155446	-0.437224	-0.052157
C147	C	1.405446	-0.187224	0.197843
C148	C	1.655446	0.062776	0.447843
C149	C	0.905555	-1.015400	-0.302222
C150	C	1.155555	-0.765400	-0.052222
C151	C	1.405555	-0.515400	0.197778
C152	C	1.655555	-0.265400	0.447778
C153	C	0.905523	-0.924091	-0.302206
C154	C	1.155523	-0.674091	-0.052206
C155	C	1.405523	-0.424091	0.197794
C156	C	1.655523	-0.174091	0.447794
C157	C	0.905500	-0.851315	-0.302189
C158	C	1.155500	-0.601315	-0.052189
C159	C	1.405500	-0.351315	0.197811
C160	C	1.655500	-0.101315	0.447811
C161	C	0.905469	-0.760001	-0.302174
C162	C	1.155469	-0.510001	-0.052174
C163	C	1.405469	-0.260001	0.197826
C164	C	1.655469	-0.010001	0.447826
C165	C	1.068897	-0.388070	-0.302247
C166	C	1.318897	-0.138070	-0.052247
C167	C	1.568897	0.111930	0.197753
C168	C	1.818897	0.361930	0.447753
C169	C	1.138538	-0.388052	-0.302278
C170	C	1.388538	-0.138052	-0.052278
C171	C	1.638538	0.111948	0.197722
C172	C	1.888538	0.361948	0.447722
C173	C	0.905522	-0.388062	-0.465597
C174	C	1.155522	-0.138062	-0.215597
C175	C	1.405522	0.111938	0.034403
C176	C	1.655522	0.361938	0.284403
C177	C	0.905544	-0.388041	-0.535238
C178	C	1.155544	-0.138041	-0.285238
C179	C	1.405544	0.111959	-0.035238
C180	C	1.655544	0.361959	0.214762
C181	C	0.905550	-0.177803	-0.302214
C182	C	1.155550	0.072197	-0.052214
C183	C	1.405550	0.322197	0.197786
C184	C	1.655550	0.572197	0.447786
C185	C	0.905582	-0.088182	-0.302231
C186	C	1.155582	0.161818	-0.052231
C187	C	1.405582	0.411818	0.197769
C188	C	1.655582	0.661818	0.447769
C189	C	0.865500	-0.336475	-0.567933
C190	C	1.115500	-0.086475	-0.317933
C191	C	1.365500	0.163525	-0.067933
C192	C	1.615500	0.413525	0.182067
C193	C	0.865497	-0.336460	-0.633369
C194	C	1.115497	-0.086460	-0.383369
C195	C	1.365497	0.163540	-0.133369
C196	C	1.615497	0.413540	0.116631
C197	C	0.905550	-0.388002	-0.666107
C198	C	1.155550	-0.138002	-0.416107
C199	C	1.405550	0.111998	-0.166107
C200	C	1.655550	0.361998	0.083893
C201	C	0.945597	-0.439578	-0.633404
C202	C	1.195597	-0.189578	-0.383404
C203	C	1.445597	0.060422	-0.133404
C204	C	1.695597	0.310422	0.116596
C205	C	0.945594	-0.439597	-0.567969
C206	C	1.195594	-0.189597	-0.317969
C207	C	1.445594	0.060403	-0.067969
C208	C	1.695594	0.310403	0.182031
C209	C	0.962003	-0.394322	-0.769812
C210	C	1.212003	-0.144322	-0.519812
C211	C	1.462003	0.105678	-0.269812
C212	C	1.712003	0.355678	-0.019812
C213	C	0.962008	-0.394297	-0.835245
C214	C	1.212008	-0.144297	-0.585245
C215	C	1.462008	0.105703	-0.335245
C216	C	1.712008	0.355703	-0.085245
C217	C	0.905561	-0.387948	-0.867927
C218	C	1.155561	-0.137948	-0.617927
C219	C	1.405561	0.112052	-0.367927
C220	C	1.655561	0.362052	-0.117927
C221	C	0.849108	-0.381607	-0.835169
C222	C	1.099108	-0.131607	-0.585169
C223	C	1.349108	0.118393	-0.335169
C224	C	1.599108	0.368393	-0.085169
C225	C	0.849104	-0.381626	-0.769735
C226	C	1.099104	-0.131626	-0.519735
C227	C	1.349104	0.118374	-0.269735
C228	C	1.599104	0.368374	-0.019735
C229	C	0.905558	-0.387988	-0.737059
C230	C	1.155558	-0.137988	-0.487059
C231	C	1.405558	0.112012	-0.237059
C232	C	1.655558	0.362012	0.012941
C233	C	0.865511	-0.336363	-0.971575
C234	C	1.115511	-0.086363	-0.721575
C235	C	1.365511	0.163637	-0.471575
C236	C	1.615511	0.413637	-0.221575
C237	C	0.865508	-0.336354	-1.037012
C238	C	1.115508	-0.086354	-0.787012
C239	C	1.365508	0.163646	-0.537012
C240	C	1.615508	0.413646	-0.287012
C241	C	0.945613	-0.439468	-1.037045
C242	C	1.195613	-0.189468	-0.787045
C243	C	1.445613	0.060532	-0.537045
C244	C	1.695613	0.310532	-0.287045
C245	C	0.945611	-0.439481	-0.971610
C246	C	1.195611	-0.189481	-0.721610
C247	C	1.445611	0.060519	-0.471610
C248	C	1.695611	0.310519	-0.221610
C249	C	0.905561	-0.387925	-0.938879
C250	C	1.155561	-0.137925	-0.688879
C251	C	1.405561	0.112075	-0.438879
C252	C	1.655561	0.362075	-0.188879
C253	C	0.905460	-0.388104	-0.139386
C254	C	1.155460	-0.138104	0.110614
C255	C	1.405460	0.111896	0.360614
C256	C	1.655460	0.361896	0.610614
C257	C	0.905561	-0.387898	-0.069745
C258	C	1.155561	-0.137898	0.180255
C259	C	1.405561	0.112102	0.430255
C260	C	1.655561	0.362102	0.680255
H261	H	0.666948	-0.294498	-0.229525
H262	H	0.916948	-0.044498	0.020475
H263	H	1.166948	0.205502	0.270475
H264	H	1.416948	0.455502	0.520475
F265	F	0.988238	-0.494328	-1.071883
F266	F	1.238238	-0.244328	-0.821883
F267	F	1.488238	0.005672	-0.571883
F268	F	1.738238	0.255672	-0.321883
F269	F	0.136458	-0.494638	-0.384848
F270	F	0.386458	-0.244638	-0.134848
F271	F	0.636458	0.005362	0.115152
F272	F	0.886458	0.255362	0.365152
F273	F	1.022089	-0.401051	-0.870103
F274	F	1.272089	-0.151051	-0.620103
F275	F	1.522089	0.098949	-0.370103
F276	F	1.772089	0.348949	-0.120103
H277	H	0.832885	-0.294497	-0.541288
H278	H	1.082885	-0.044497	-0.291288
H279	H	1.332885	0.205503	-0.041288
H280	H	1.582885	0.455503	0.208712
H281	H	0.346540	-0.399820	-0.404602
H282	H	0.596540	-0.149820	-0.154602
H283	H	0.846540	0.100180	0.095398
H284	H	1.096540	0.350180	0.345398
F285	F	0.136417	-0.281460	-0.219712
F286	F	0.386417	-0.031460	0.030288
F287	F	0.636417	0.218540	0.280288
F288	F	0.886417	0.468540	0.530288
H289	H	0.263344	-0.481770	-0.374796
H290	H	0.513344	-0.231770	-0.124796
H291	H	0.763344	0.018230	0.125204
H292	H	1.013344	0.268230	0.375204
H293	H	0.465252	-0.399856	-0.404560
H294	H	0.715252	-0.149856	-0.154560
H295	H	0.965252	0.100144	0.095440
H296	H	1.215252	0.350144	0.345440
F297	F	0.988235	-0.494361	-0.936812
F298	F	1.238235	-0.244361	-0.686812
F299	F	1.488235	0.005639	-0.436812
F300	F	1.738235	0.255639	-0.186812
H301	H	0.263309	-0.294407	-0.229664
H302	H	0.513309	-0.044407	0.020336
H303	H	0.763309	0.205593	0.270336
H304	H	1.013309	0.455593	0.520336
F305	F	0.675163	-0.494789	-0.384645
F306	F	0.925163	-0.244789	-0.134645
F307	F	1.175163	0.005211	0.115355
F308	F	1.425163	0.255211	0.365355
F309	F	0.338140	-0.374784	-0.185685
F310	F	0.588140	-0.124784	0.064315
F311	F	0.838140	0.125216	0.314315
F312	F	1.088140	0.375216	0.564315
F313	F	0.473208	-0.374823	-0.185635
F314	F	0.723208	-0.124823	0.064365
F315	F	0.973208	0.125177	0.314365
F316	F	1.223208	0.375177	0.564365
H317	H	0.548235	-0.294480	-0.229567
H318	H	0.798235	-0.044480	0.020433
H319	H	1.048235	0.205520	0.270433
H320	H	1.298235	0.455520	0.520433
H321	H	0.978208	-0.481545	-0.660063
H322	H	1.228208	-0.231545	-0.410063
H323	H	1.478208	0.018455	-0.160063
H324	H	1.728208	0.268455	0.089937
F325	F	0.822886	-0.281561	-0.668172
F326	F	1.072886	-0.031561	-0.418172
F327	F	1.322886	0.218439	-0.168172
F328	F	1.572886	0.468439	0.081828
F329	F	0.540093	-0.494749	-0.384695
F330	F	0.790093	-0.244749	-0.134695
F331	F	1.040093	0.005251	0.115305
F332	F	1.290093	0.255251	0.365305
H333	H	0.803143	-0.376432	-0.861777
H334	H	1.053143	-0.126432	-0.611777
H335	H	1.303143	0.123568	-0.361777
H336	H	1.553143	0.373568	-0.111777
F337	F	0.789024	-0.374882	-0.734873
F338	F	1.039024	-0.124882	-0.484873
F339	F	1.289024	0.125118	-0.234873
F340	F	1.539024	0.375118	0.015127
F341	F	0.822884	-0.281497	-0.936738
F342	F	1.072884	-0.031497	-0.686738
F343	F	1.322884	0.218503	-0.436738
F344	F	1.572884	0.468503	-0.186738
F345	F	0.822871	-0.281486	-1.071808
F346	F	1.072871	-0.031486	-0.821808
F347	F	1.322871	0.218514	-0.571808
F348	F	1.572871	0.468514	-0.321808
H349	H	1.007973	-0.399485	-0.743207
H350	H	1.257973	-0.149485	-0.493207
H351	H	1.507973	0.100515	-0.243207
H352	H	1.757973	0.350515	0.006793
H353	H	0.978205	-0.481588	-0.541349
H354	H	1.228205	-0.231588	-0.291349
H355	H	1.478205	0.018412	-0.041349
H356	H	1.728205	0.268412	0.208651
