data_functionalizedCrystal
_audit_creation_method	'MofGen! by Chris Wilmer'
_symmetry_space_group_name_H-M	'P1'
_symmetry_Int_Tables_number	1
_symmetry_cell_setting	triclinic
loop_
_symmetry_equiv_pos_as_xyz
  x,y,z
_cell_length_a	42.784839
_cell_length_b	42.784841
_cell_length_c	42.784893
_cell_angle_alpha	90.002418
_cell_angle_beta	59.997780
_cell_angle_gamma	119.999863
loop_
_atom_site_label
_atom_site_type_symbol
_atom_site_fract_x
_atom_site_fract_y
_atom_site_fract_z
O1	O	0.275695	-0.214412	-0.009300
O2	O	0.211692	-0.168961	0.009253
O3	O	0.275692	-0.168961	-0.054750
O4	O	0.211694	-0.214412	0.054702
O5	O	0.223708	-0.220945	-0.054749
O6	O	0.159708	-0.220945	0.009253
O7	O	0.223710	-0.266397	-0.009300
Zn8	Zn	0.183455	-0.251924	-0.000023
Zn9	Zn	0.251947	-0.183433	-0.000024
O10	O	0.159710	-0.266396	0.054703
C11	C	0.051021	-0.022778	0.028112
C12	C	0.013142	-0.041761	0.028375
C13	C	0.051018	-0.079378	0.028116
C14	C	0.013139	-0.098275	0.028379
C15	C	-0.005578	-0.079377	0.028112
C16	C	0.069652	-0.041762	0.028379
C17	C	0.152948	0.113708	0.017863
C18	C	0.173786	0.152360	0.014965
C19	C	0.155902	0.171750	0.013509
C20	C	0.178499	0.213661	0.010359
C21	C	0.117177	0.152485	0.014953
C22	C	0.096339	0.113835	0.017857
C23	C	0.114226	0.094447	0.019312
C24	C	-0.131813	-0.113936	0.017859
C25	C	-0.167567	-0.131750	0.014961
C26	C	-0.185502	-0.169024	0.013506
C27	C	-0.224264	-0.188340	0.010358
C28	C	-0.167685	-0.188485	0.014954
C29	C	-0.131938	-0.170675	0.017859
C30	C	-0.114002	-0.133396	0.019309
C31	C	0.152939	-0.113943	0.017877
C32	C	0.173778	-0.131757	0.014977
C33	C	0.155892	-0.169032	0.013523
C34	C	0.178486	-0.188349	0.010377
C35	C	0.117170	-0.188491	0.014967
C36	C	0.096334	-0.170675	0.017865
C37	C	0.114220	-0.133401	0.019323
C38	C	0.091629	0.052537	0.022456
C39	C	0.073617	0.019131	0.024964
C40	C	0.073613	-0.098693	0.024971
C41	C	0.091623	-0.114089	0.022466
C42	C	-0.044339	-0.098690	0.024964
C43	C	-0.075237	-0.114084	0.022456
O44	O	-0.327856	-0.266388	-0.009322
O45	O	-0.236954	-0.220935	0.009228
O46	O	-0.236950	-0.220939	-0.054773
O47	O	-0.327860	-0.266385	0.054680
O48	O	-0.236948	-0.168954	-0.054776
O49	O	-0.236952	-0.168950	0.009225
O50	O	-0.327854	-0.214403	-0.009325
Zn51	Zn	-0.282403	-0.183423	-0.000050
Zn52	Zn	-0.282405	-0.251916	-0.000046
O53	O	-0.327858	-0.214400	0.054676
C54	C	0.384390	-0.079141	-0.361606
C55	C	0.422270	-0.041526	-0.380503
C56	C	0.384390	-0.079141	-0.305008
C57	C	0.422270	-0.041526	-0.323990
C58	C	0.440988	-0.022543	-0.361606
C59	C	0.365758	-0.098038	-0.323991
C60	C	0.282465	-0.170819	-0.396168
C61	C	0.261627	-0.188759	-0.413983
C62	C	0.279513	-0.169420	-0.451257
C63	C	0.256917	-0.188867	-0.470572
C64	C	0.318239	-0.132140	-0.470717
C65	C	0.339076	-0.114205	-0.452905
C66	C	0.321187	-0.133546	-0.415628
C67	C	0.567227	0.113942	-0.453282
C68	C	0.602981	0.152594	-0.471222
C69	C	0.620916	0.171985	-0.451883
C70	C	0.659678	0.213894	-0.471328
C71	C	0.603097	0.152719	-0.414603
C72	C	0.567349	0.114068	-0.396667
C73	C	0.549414	0.094682	-0.416011
C74	C	0.282465	-0.170819	-0.168522
C75	C	0.261624	-0.188757	-0.129868
C76	C	0.279510	-0.169418	-0.110479
C77	C	0.256914	-0.188865	-0.068568
C78	C	0.318233	-0.132140	-0.129742
C79	C	0.339070	-0.114203	-0.168394
C80	C	0.321184	-0.133548	-0.187782
C81	C	0.343783	-0.114094	-0.396315
C82	C	0.361794	-0.098590	-0.380920
C83	C	0.361794	-0.098590	-0.263099
C84	C	0.343783	-0.114094	-0.229693
C85	C	0.479750	0.019366	-0.381054
C86	C	0.510649	0.052771	-0.396557
C87	C	0.440758	-0.356212	-0.028193
C88	C	0.422041	-0.393827	-0.028459
C89	C	0.384158	-0.356213	-0.028190
C90	C	0.365526	-0.393828	-0.028456
C91	C	0.384160	-0.412810	-0.028193
C92	C	0.422038	-0.337315	-0.028456
C93	C	0.567000	-0.264532	-0.017949
C94	C	0.602755	-0.246591	-0.015053
C95	C	0.620692	-0.265931	-0.013601
C96	C	0.659455	-0.246483	-0.010453
C97	C	0.602873	-0.303210	-0.015048
C98	C	0.567125	-0.321146	-0.017949
C99	C	0.549188	-0.301805	-0.019399
C100	C	0.339356	-0.549295	-0.017951
C101	C	0.318645	-0.587947	-0.015055
C102	C	0.279915	-0.607338	-0.013597
C103	C	0.257452	-0.649247	-0.010452
C104	C	0.261899	-0.588073	-0.015042
C105	C	0.282613	-0.549422	-0.017945
C106	C	0.321343	-0.530035	-0.019397
C107	C	0.339344	-0.264537	-0.017936
C108	C	0.318628	-0.246599	-0.015032
C109	C	0.279898	-0.265939	-0.013577
C110	C	0.257433	-0.246493	-0.010426
C111	C	0.261884	-0.303217	-0.015022
C112	C	0.282601	-0.321153	-0.017924
C113	C	0.321334	-0.301808	-0.019385
C114	C	0.510421	-0.321258	-0.022542
C115	C	0.479522	-0.336762	-0.025048
C116	C	0.361696	-0.336765	-0.025041
C117	C	0.343793	-0.321261	-0.022532
C118	C	0.361701	-0.454719	-0.025047
C119	C	0.343799	-0.488125	-0.022541
O120	O	0.223728	0.336934	-0.009323
O121	O	0.159726	0.227482	0.009227
O122	O	0.223729	0.291478	-0.054775
O123	O	0.159725	0.272938	0.054678
O124	O	0.275711	0.291477	-0.054771
O125	O	0.211707	0.227481	0.009230
O126	O	0.275710	0.336932	-0.009320
Zn127	Zn	0.251962	0.282206	-0.000045
Zn128	Zn	0.183474	0.282208	-0.000049
O129	O	0.211707	0.272936	0.054681
O130	O	0.763271	0.337164	-0.496871
O131	O	0.672367	0.227713	-0.451422
O132	O	0.672365	0.291711	-0.451418
O133	O	0.763273	0.273165	-0.496876
O134	O	0.672366	0.291712	-0.503402
O135	O	0.672368	0.227714	-0.503407
O136	O	0.763272	0.337165	-0.548856
Zn137	Zn	0.717820	0.282440	-0.534385
Zn138	Zn	0.717819	0.282438	-0.465893
O139	O	0.763275	0.273167	-0.548860
O140	O	0.211690	-0.214417	-0.548617
O141	O	0.275691	-0.168962	-0.503167
O142	O	0.211689	-0.168964	-0.503163
O143	O	0.275692	-0.214415	-0.548621
O144	O	0.159706	-0.220947	-0.451179
O145	O	0.223708	-0.220945	-0.451183
O146	O	0.159707	-0.266400	-0.496633
Zn147	Zn	0.183454	-0.251926	-0.465654
Zn148	Zn	0.251944	-0.183436	-0.534146
O149	O	0.223709	-0.266398	-0.496637
C150	C	-0.005343	-0.412572	0.361558
C151	C	0.013375	-0.393590	0.380456
C152	C	0.051255	-0.355974	0.304961
C153	C	0.069887	-0.337077	0.323944
C154	C	0.051254	-0.355974	0.361560
C155	C	0.013375	-0.393589	0.323943
C156	C	-0.131582	-0.549057	0.396116
C157	C	-0.167336	-0.587709	0.413930
C158	C	-0.185271	-0.607098	0.451205
C159	C	-0.224034	-0.649009	0.470519
C160	C	-0.167452	-0.587833	0.470666
C161	C	-0.131705	-0.549184	0.452854
C162	C	-0.113770	-0.529796	0.415578
C163	C	0.096061	-0.321414	0.453239
C164	C	0.116773	-0.303600	0.471179
C165	C	0.155502	-0.266327	0.451842
C166	C	0.177965	-0.247011	0.471288
C167	C	0.173517	-0.246866	0.414562
C168	C	0.152802	-0.264677	0.396625
C169	C	0.114073	-0.301955	0.415968
C170	C	0.096064	-0.321412	0.168474
C171	C	0.116779	-0.303599	0.129820
C172	C	0.155508	-0.266324	0.110432
C173	C	0.177972	-0.247009	0.068521
C174	C	0.173522	-0.246865	0.129696
C175	C	0.152807	-0.264680	0.168348
C176	C	0.114075	-0.301953	0.187735
C177	C	-0.075004	-0.487887	0.396265
C178	C	-0.044106	-0.454481	0.380871
C179	C	0.073715	-0.336660	0.263052
C180	C	0.091618	-0.321265	0.229646
C181	C	0.073714	-0.336661	0.381009
C182	C	0.091616	-0.321267	0.396513
C183	C	0.051046	-0.022794	-0.361634
C184	C	0.069679	-0.041778	-0.380530
C185	C	-0.005555	-0.079390	-0.305034
C186	C	0.013163	-0.098288	-0.324016
C187	C	0.051045	-0.079393	-0.361631
C188	C	0.013164	-0.041775	-0.324018
C189	C	0.095858	0.113693	-0.396200
C190	C	0.116571	0.152344	-0.414015
C191	C	0.155302	0.171732	-0.451290
C192	C	0.177767	0.213642	-0.470607
C193	C	0.173317	0.152465	-0.470750
C194	C	0.152600	0.113815	-0.452936
C195	C	0.113869	0.094429	-0.415659
C196	C	0.152973	-0.113959	-0.453306
C197	C	0.173810	-0.131775	-0.471245
C198	C	0.155926	-0.169048	-0.451906
C199	C	0.178519	-0.188366	-0.471350
C200	C	0.117198	-0.188507	-0.414626
C201	C	0.096358	-0.170694	-0.396690
C202	C	0.114251	-0.133416	-0.416035
C203	C	-0.131801	-0.113944	-0.168548
C204	C	-0.167554	-0.131755	-0.129895
C205	C	-0.185491	-0.169029	-0.110504
C206	C	-0.224255	-0.188343	-0.068593
C207	C	-0.167671	-0.188490	-0.129767
C208	C	-0.131918	-0.170677	-0.168418
C209	C	-0.113988	-0.133404	-0.187808
C210	C	0.091411	0.052521	-0.396344
C211	C	0.073508	0.019115	-0.380949
C212	C	-0.044320	-0.098701	-0.263125
C213	C	-0.075220	-0.114094	-0.229719
C214	C	0.073641	-0.098707	-0.381079
C215	C	0.091652	-0.114103	-0.396582
C216	C	-0.615853	-0.356193	0.361535
C217	C	-0.634487	-0.393808	0.380433
C218	C	-0.559253	-0.356195	0.304938
C219	C	-0.577972	-0.393810	0.323921
C220	C	-0.615854	-0.412792	0.361537
C221	C	-0.577972	-0.337297	0.323920
C222	C	-0.660661	-0.264512	0.396093
C223	C	-0.681373	-0.246571	0.413906
C224	C	-0.720104	-0.265909	0.451181
C225	C	-0.742568	-0.246461	0.470495
C226	C	-0.738120	-0.303189	0.470643
C227	C	-0.717405	-0.321125	0.452831
C228	C	-0.678674	-0.301785	0.415554
C229	C	-0.717784	-0.549275	0.453218
C230	C	-0.738622	-0.587926	0.471159
C231	C	-0.720740	-0.607319	0.451822
C232	C	-0.743333	-0.649227	0.471268
C233	C	-0.682012	-0.588055	0.414542
C234	C	-0.661170	-0.549403	0.396604
C235	C	-0.679063	-0.530016	0.415946
C236	C	-0.433006	-0.264522	0.168449
C237	C	-0.397253	-0.246585	0.129796
C238	C	-0.379317	-0.265926	0.110407
C239	C	-0.340553	-0.246480	0.068496
C240	C	-0.397138	-0.303204	0.129672
C241	C	-0.432891	-0.321139	0.168324
C242	C	-0.450820	-0.301793	0.187711
C243	C	-0.656216	-0.321238	0.396242
C244	C	-0.638314	-0.336743	0.380848
C245	C	-0.520488	-0.336748	0.263028
C246	C	-0.489588	-0.321245	0.229622
C247	C	-0.638451	-0.454700	0.380987
C248	C	-0.656463	-0.488106	0.396492
C249	C	0.440756	0.310302	-0.361620
C250	C	0.422038	0.310564	-0.380518
C251	C	0.384160	0.310312	-0.305026
C252	C	0.365528	0.310574	-0.324010
C253	C	0.384159	0.310303	-0.361624
C254	C	0.422038	0.310573	-0.324006
C255	C	0.566989	0.300046	-0.396172
C256	C	0.602741	0.297145	-0.413984
C257	C	0.620675	0.295684	-0.451257
C258	C	0.659436	0.292531	-0.470569
C259	C	0.602857	0.297127	-0.470719
C260	C	0.567111	0.300033	-0.452909
C261	C	0.549177	0.301493	-0.415634
C262	C	0.339351	0.300042	-0.453303
C263	C	0.318640	0.297142	-0.471244
C264	C	0.279912	0.295690	-0.451908
C265	C	0.257449	0.292541	-0.471354
C266	C	0.261899	0.297143	-0.414629
C267	C	0.282613	0.300049	-0.396692
C268	C	0.321341	0.301496	-0.416033
C269	C	0.339354	0.300088	-0.168540
C270	C	0.318640	0.297192	-0.129888
C271	C	0.279912	0.295742	-0.110501
C272	C	0.257450	0.292601	-0.068591
C273	C	0.261898	0.297184	-0.129766
C274	C	0.282612	0.300078	-0.168417
C275	C	0.321344	0.301533	-0.187802
C276	C	0.510413	0.304640	-0.396323
C277	C	0.479516	0.307151	-0.380931
C278	C	0.361701	0.307173	-0.263117
C279	C	0.343799	0.304671	-0.229712
C280	C	0.361700	0.307154	-0.381073
C281	C	0.343798	0.304644	-0.396578
O282	O	0.275503	0.336913	-0.548651
O283	O	0.211494	0.227461	-0.503201
O284	O	0.275490	0.291455	-0.503192
O285	O	0.211507	0.272919	-0.548659
O286	O	0.223502	0.291457	-0.451211
O287	O	0.159506	0.227463	-0.451219
O288	O	0.223515	0.336915	-0.496669
Zn289	Zn	0.183256	0.282189	-0.465691
Zn290	Zn	0.251753	0.282187	-0.534179
O291	O	0.159519	0.272921	-0.496677
C292	C	0.051032	0.254111	0.361530
C293	C	0.013154	0.253851	0.380425
C294	C	0.051031	0.254102	0.304932
C295	C	0.013153	0.253842	0.323913
C296	C	-0.005564	0.254113	0.361527
C297	C	0.069663	0.253840	0.323916
C298	C	0.152954	0.264360	0.396096
C299	C	0.173791	0.267260	0.413911
C300	C	0.155906	0.268721	0.451185
C301	C	0.178502	0.271871	0.470501
C302	C	0.117182	0.267279	0.470643
C303	C	0.096345	0.264374	0.452830
C304	C	0.114233	0.262915	0.415555
C305	C	-0.131796	0.264379	0.453195
C306	C	-0.167548	0.267281	0.471133
C307	C	-0.185483	0.268734	0.451793
C308	C	-0.224243	0.271886	0.471236
C309	C	-0.167664	0.267282	0.414515
C310	C	-0.131919	0.264374	0.396581
C311	C	-0.113984	0.262925	0.415925
C312	C	0.152952	0.264325	0.168451
C313	C	0.173792	0.267221	0.129798
C314	C	0.155907	0.268673	0.110407
C315	C	0.178502	0.271814	0.068498
C316	C	0.117186	0.267232	0.129669
C317	C	0.096350	0.264339	0.168320
C318	C	0.114234	0.262881	0.187709
C319	C	0.091638	0.259769	0.396240
C320	C	0.073627	0.257260	0.380845
C321	C	0.073626	0.257242	0.263024
C322	C	0.091636	0.259743	0.229619
C323	C	-0.044324	0.257264	0.380973
C324	C	-0.075221	0.259775	0.396474
H325	H	-0.182070	-0.115902	0.013781
C326	C	-0.675200	-0.414156	0.421610
C327	C	-0.709819	-0.416040	0.423632
C328	C	-0.747338	-0.434795	0.461552
H329	H	-0.668687	-0.400428	0.437382
H330	H	-0.683686	-0.439333	0.430189
H331	H	-0.701335	-0.390867	0.415058
H332	H	-0.716346	-0.429771	0.407869
H333	H	-0.755823	-0.459972	0.470130
H334	H	-0.740820	-0.421065	0.477320
H335	H	-0.770833	-0.436079	0.462928
H336	H	0.552400	-0.248780	-0.019131
C337	C	-0.007682	0.253256	0.303533
C338	C	0.016828	0.253073	0.266461
C339	C	-0.002354	0.252529	0.247678
H340	H	-0.007842	0.275331	0.302187
H341	H	-0.037162	0.230929	0.317283
H342	H	0.046301	0.275397	0.252713
H343	H	0.016990	0.230999	0.267795
H344	H	-0.031835	0.230202	0.261429
H345	H	-0.002513	0.274605	0.246336
H346	H	0.014271	0.252401	0.222524
H347	H	-0.002298	-0.408829	0.411365
C348	C	-0.780660	-0.608902	0.511635
C349	C	-0.795076	-0.646899	0.523207
C350	C	-0.833797	-0.666232	0.560493
H351	H	-0.802921	-0.608451	0.512229
H352	H	-0.774884	-0.596696	0.528484
H353	H	-0.800854	-0.659102	0.506362
H354	H	-0.772826	-0.647361	0.522622
H355	H	-0.828021	-0.654026	0.577342
H356	H	-0.856055	-0.665777	0.561084
H357	H	-0.843581	-0.692013	0.568351
C358	C	0.443233	-0.021220	-0.421742
C359	C	0.486666	-0.010726	-0.444810
C360	C	0.505990	0.007971	-0.482802
H361	H	0.443443	0.001040	-0.423265
H362	H	0.426672	-0.037922	-0.430344
H363	H	0.503223	0.005975	-0.436210
H364	H	0.486469	-0.032979	-0.443298
H365	H	0.489429	-0.008730	-0.491404
H366	H	0.506197	0.030230	-0.484321
H367	H	0.535460	0.015091	-0.498459
C368	C	0.381066	-0.073703	-0.474021
C369	C	0.372404	-0.048982	-0.483449
C370	C	0.411071	-0.011667	-0.502898
H371	H	0.403317	-0.073094	-0.496756
H372	H	0.390916	-0.065767	-0.458078
H373	H	0.362559	-0.056915	-0.499392
H374	H	0.350159	-0.049579	-0.460721
H375	H	0.420922	-0.003731	-0.486954
H376	H	0.433320	-0.011062	-0.525631
H377	H	0.405198	0.005112	-0.509294
H378	H	0.064526	-0.351765	0.468991
C379	C	0.054346	-0.191751	-0.356200
C380	C	0.061383	-0.171169	-0.332241
C381	C	0.022689	-0.190552	-0.294940
H382	H	0.046636	-0.216502	-0.347193
H383	H	0.031034	-0.194104	-0.356155
H384	H	0.084688	-0.168820	-0.332284
H385	H	0.069088	-0.146419	-0.341235
H386	H	-0.000623	-0.192904	-0.294895
H387	H	0.014982	-0.215302	-0.285937
H388	H	0.027458	-0.176588	-0.278680
H389	H	0.333308	0.295959	-0.501595
C390	C	0.622280	0.295567	-0.511194
C391	C	0.599033	0.297463	-0.524429
C392	C	0.616916	0.296031	-0.561716
H393	H	0.619954	0.272296	-0.511228
H394	H	0.652506	0.316586	-0.527479
H395	H	0.568814	0.276445	-0.508149
H396	H	0.601357	0.320733	-0.524404
H397	H	0.647143	0.317051	-0.578001
H398	H	0.614590	0.272760	-0.561746
H399	H	0.601149	0.297322	-0.570702
H400	H	0.437704	0.310998	-0.308766
H401	H	-0.117197	0.263199	0.468949
C402	C	0.097164	-0.324801	0.511642
C403	C	0.058823	-0.361261	0.524735
C404	C	0.040752	-0.380805	0.562005
H405	H	0.090018	-0.310942	0.528004
H406	H	0.118060	-0.327191	0.511680
H407	H	0.037931	-0.358870	0.524700
H408	H	0.065957	-0.375130	0.508385
H409	H	0.061648	-0.383195	0.562043
H410	H	0.033609	-0.366943	0.578363
H411	H	0.014738	-0.405547	0.570892
H412	H	0.333309	0.296016	-0.114204
C413	C	-0.187204	-0.228946	0.013354
C414	C	-0.222317	-0.240378	0.010492
C415	C	-0.240304	-0.277646	0.009009
H416	H	-0.197686	-0.245862	0.035963
H417	H	-0.165104	-0.229554	-0.008326
H418	H	-0.244414	-0.239773	0.032170
H419	H	-0.211847	-0.223473	-0.012117
H420	H	-0.218204	-0.278253	-0.012671
H421	H	-0.250784	-0.294558	0.031619
H422	H	-0.264128	-0.285406	0.007064
C423	C	0.442926	-0.296126	-0.028959
C424	C	0.443101	-0.294083	0.003620
C425	C	0.462341	-0.256148	0.003169
H426	H	0.426368	-0.287505	-0.029059
H427	H	0.472423	-0.280400	-0.051264
H428	H	0.413609	-0.309804	0.025919
H429	H	0.459661	-0.302697	0.003727
H430	H	0.491838	-0.240421	-0.019136
H431	H	0.445781	-0.247530	0.003068
H432	H	0.462465	-0.254756	0.025271
C433	C	0.219901	0.295689	-0.108722
C434	C	0.227022	0.326704	-0.095199
C435	C	0.188348	0.325343	-0.075818
H436	H	0.196601	0.272441	-0.087749
H437	H	0.212140	0.296983	-0.125726
H438	H	0.234777	0.325406	-0.078196
H439	H	0.250314	0.349957	-0.116165
H440	H	0.180587	0.326637	-0.092823
H441	H	0.165051	0.302093	-0.054846
H442	H	0.193176	0.346388	-0.066644
C443	C	-0.007837	-0.139504	0.029008
C444	C	-0.051280	-0.162573	0.061931
C445	C	-0.070618	-0.200553	0.062521
H446	H	0.008693	-0.148142	0.029145
H447	H	-0.008022	-0.140982	0.006939
H448	H	-0.051092	-0.161097	0.083995
H449	H	-0.067821	-0.153947	0.061801
H450	H	-0.070803	-0.202031	0.040452
H451	H	-0.054085	-0.209187	0.062657
H452	H	-0.100097	-0.216209	0.084858
H453	H	-0.002500	-0.026531	-0.308780
H454	H	0.102110	-0.319446	0.114137
C455	C	-0.007645	0.253329	0.421621
C456	C	0.016883	0.253179	0.434176
C457	C	-0.002255	0.252712	0.472118
H458	H	-0.037128	0.231023	0.437391
H459	H	-0.007774	0.275426	0.423070
H460	H	0.017007	0.231084	0.432730
H461	H	0.046365	0.275484	0.418417
H462	H	-0.002384	0.274810	0.473567
H463	H	-0.031737	0.230406	0.487884
H464	H	0.014387	0.252614	0.480640
H465	H	0.064321	0.097912	-0.365848
H466	H	-0.562326	-0.306401	0.308670
C467	C	0.219839	0.295546	-0.393690
C468	C	0.205546	0.292682	-0.417372
C469	C	0.166798	0.291203	-0.398094
H470	H	0.225533	0.318157	-0.387258
H471	H	0.197550	0.273868	-0.370982
H472	H	0.227830	0.314358	-0.440074
H473	H	0.199842	0.270072	-0.423806
H474	H	0.144509	0.269525	-0.375386
H475	H	0.172496	0.313814	-0.391662
H476	H	0.157093	0.289256	-0.414158
C477	C	0.096960	0.173200	-0.392817
C478	C	0.058617	0.147953	-0.356356
C479	C	0.040543	0.167153	-0.336815
H480	H	0.089817	0.182413	-0.406678
H481	H	0.117854	0.194135	-0.390426
H482	H	0.037727	0.127025	-0.358749
H483	H	0.065748	0.138738	-0.342485
H484	H	0.061437	0.188088	-0.334424
H485	H	0.033403	0.176366	-0.350680
H486	H	0.014528	0.150027	-0.312073
C487	C	0.219588	-0.229233	-0.392923
C488	C	0.205172	-0.240804	-0.416504
C489	C	0.166449	-0.278086	-0.397116
H490	H	0.197329	-0.229825	-0.370210
H491	H	0.225362	-0.246084	-0.386494
H492	H	0.199396	-0.223957	-0.422927
H493	H	0.227420	-0.240221	-0.439216
H494	H	0.172222	-0.294938	-0.390687
H495	H	0.144193	-0.278675	-0.374405
H496	H	0.156665	-0.285943	-0.413114
C497	C	0.263102	-0.361629	-0.019484
C498	C	0.289528	-0.373201	-0.022328
C499	C	0.271576	-0.410487	-0.023761
H500	H	0.262054	-0.362227	-0.041149
H501	H	0.234048	-0.378477	0.003144
H502	H	0.318574	-0.356358	-0.044954
H503	H	0.290578	-0.372612	-0.000666
H504	H	0.242521	-0.427335	-0.001132
H505	H	0.270528	-0.411081	-0.045425
H506	H	0.289500	-0.418344	-0.025687
H507	H	-0.181841	-0.603391	0.398082
H508	H	0.100149	0.253421	0.308676
C509	C	0.622515	0.173698	-0.393546
C510	C	0.599265	0.148554	-0.357065
C511	C	0.617140	0.167867	-0.337656
H512	H	0.620186	0.194642	-0.391186
H513	H	0.652742	0.182906	-0.407485
H514	H	0.569045	0.139352	-0.343128
H515	H	0.601592	0.127610	-0.359413
H516	H	0.647368	0.177074	-0.351595
H517	H	0.614811	0.188810	-0.335298
H518	H	0.601371	0.150808	-0.312902
C519	C	0.622095	-0.206145	-0.013413
C520	C	0.618609	-0.206205	0.020918
C521	C	0.636424	-0.168952	0.022441
H522	H	0.606316	-0.197158	-0.014669
H523	H	0.652329	-0.189821	-0.034412
H524	H	0.588381	-0.222523	0.041911
H525	H	0.634389	-0.215184	0.022181
H526	H	0.666657	-0.152628	0.001442
H527	H	0.620643	-0.159968	0.021184
H528	H	0.634064	-0.168987	0.045733
C529	C	-0.737176	-0.528225	0.474267
C530	C	-0.738647	-0.528924	0.507711
C531	C	-0.756501	-0.509530	0.527106
H532	H	-0.766238	-0.540377	0.480739
H533	H	-0.719219	-0.502438	0.458265
H534	H	-0.756604	-0.554705	0.523710
H535	H	-0.709590	-0.516769	0.501249
H536	H	-0.738544	-0.483744	0.511104
H537	H	-0.785562	-0.521685	0.533576
H538	H	-0.757498	-0.509999	0.549798
H539	H	0.102618	0.168275	0.013770
C540	C	0.215790	0.173212	0.013455
C541	C	0.207141	0.155116	0.046828
C542	C	0.245827	0.174310	0.045447
H543	H	0.225674	0.199009	0.011537
H544	H	0.238014	0.172705	-0.008200
H545	H	0.184925	0.155626	0.068477
H546	H	0.197263	0.129320	0.048752
H547	H	0.268051	0.173804	0.023792
H548	H	0.255708	0.200106	0.043528
H549	H	0.239965	0.162033	0.068088
H550	H	0.064802	-0.186523	0.019045
C551	C	0.337575	-0.111200	-0.511176
C552	C	0.311033	-0.134882	-0.522608
C553	C	0.328830	-0.115602	-0.559875
H554	H	0.366620	-0.104764	-0.528093
H555	H	0.338600	-0.088495	-0.511781
H556	H	0.310013	-0.157581	-0.522006
H557	H	0.281987	-0.141320	-0.505701
H558	H	0.329855	-0.092896	-0.560480
H559	H	0.357875	-0.109166	-0.576789
H560	H	0.310822	-0.131666	-0.567636
C561	C	-0.187068	-0.228931	-0.108713
C562	C	-0.154395	-0.229701	-0.109412
C563	C	-0.172246	-0.266946	-0.090018
H564	H	-0.197505	-0.245842	-0.120865
H565	H	-0.210901	-0.236760	-0.082926
H566	H	-0.130570	-0.221877	-0.135194
H567	H	-0.143954	-0.212798	-0.097258
H568	H	-0.196079	-0.274775	-0.064231
H569	H	-0.182683	-0.283854	-0.102171
H570	H	-0.150082	-0.267473	-0.090486
H571	H	0.102624	0.268416	0.113879
C572	C	0.338265	-0.206119	-0.013485
C573	C	0.376624	-0.193015	-0.015394
C574	C	0.394730	-0.155724	-0.013976
H575	H	0.317406	-0.206036	0.009785
H576	H	0.345393	-0.189791	-0.034506
H577	H	0.369494	-0.209339	0.005626
H578	H	0.397492	-0.193088	-0.038663
H579	H	0.401858	-0.139397	-0.034997
H580	H	0.373868	-0.155646	0.009295
H581	H	0.420760	-0.146828	-0.015274
H582	H	0.205322	0.268398	0.114116
H583	H	-0.382753	-0.216236	0.114110
C584	C	0.324903	0.311169	-0.303636
C585	C	0.312521	0.311355	-0.266564
C586	C	0.275106	0.311910	-0.247788
H587	H	0.301320	0.289096	-0.302290
H588	H	0.331510	0.333499	-0.317391
H589	H	0.305912	0.289028	-0.252812
H590	H	0.336093	0.333426	-0.267898
H591	H	0.281713	0.334240	-0.261543
H592	H	0.251526	0.289837	-0.246446
H593	H	0.266702	0.312040	-0.222634
H594	H	0.102633	-0.218858	-0.398880
H595	H	0.204850	0.168253	-0.501099
H596	H	0.205059	-0.216514	0.113907
H597	H	0.370881	-0.248784	-0.019122
H598	H	0.167477	-0.248833	0.184031
H599	H	-0.117412	-0.186525	-0.184100
H600	H	-0.182059	-0.115906	-0.114213
H601	H	0.267945	0.301232	-0.366341
C602	C	-0.662575	-0.609070	0.393478
C603	C	-0.661075	-0.608353	0.360020
C604	C	-0.643166	-0.627703	0.340603
H605	H	-0.680500	-0.634858	0.409449
H606	H	-0.633512	-0.596887	0.387024
H607	H	-0.690133	-0.620536	0.366474
H608	H	-0.643147	-0.582569	0.344040
H609	H	-0.614104	-0.615521	0.334149
H610	H	-0.661094	-0.653490	0.356577
H611	H	-0.642142	-0.627216	0.317898
H612	H	0.064821	0.263164	0.184001
H613	H	-0.002524	-0.026519	0.028802
C614	C	-0.112399	-0.528227	0.473990
C615	C	-0.115902	-0.497392	0.477436
C616	C	-0.098126	-0.478080	0.496908
H617	H	-0.082168	-0.518981	0.460105
H618	H	-0.128202	-0.545290	0.498752
H619	H	-0.100098	-0.480331	0.452678
H620	H	-0.146129	-0.506627	0.491324
H621	H	-0.113930	-0.495144	0.521670
H622	H	-0.067896	-0.468837	0.483021
H623	H	-0.100504	-0.457159	0.499251
C624	C	0.215833	-0.110687	0.013386
C625	C	0.230259	-0.134263	0.010526
C626	C	0.269001	-0.114865	0.009056
H627	H	0.210091	-0.104247	0.035999
H628	H	0.238075	-0.087978	-0.008291
H629	H	0.208022	-0.156966	0.032200
H630	H	0.236011	-0.140704	-0.012087
H631	H	0.291243	-0.092155	-0.012620
H632	H	0.263255	-0.108426	0.031670
H633	H	0.278796	-0.130856	0.007112
C634	C	0.172481	-0.073468	-0.474333
C635	C	0.215293	-0.048682	-0.483777
C636	C	0.233279	-0.011380	-0.503149
H637	H	0.154581	-0.065588	-0.458348
H638	H	0.173549	-0.072855	-0.497059
H639	H	0.214223	-0.049293	-0.461054
H640	H	0.233204	-0.056549	-0.499767
H641	H	0.234347	-0.010768	-0.525876
H642	H	0.215375	-0.003505	-0.487162
H643	H	0.262330	0.005441	-0.509563
H644	H	0.370598	-0.083850	-0.184076
H645	H	0.167506	-0.083593	0.019063
H646	H	0.100131	-0.026521	0.028807
H647	H	-0.002509	-0.129196	-0.308775
H648	H	-0.182060	-0.603623	0.501016
H649	H	0.552629	0.098160	-0.469035
H650	H	0.230346	-0.318966	-0.013835
H651	H	0.167269	0.098131	-0.468782
H652	H	0.102606	-0.218843	0.013783
H653	H	-0.117212	-0.083598	-0.184336
C654	C	-0.452427	-0.243464	0.189426
C655	C	-0.429180	-0.206984	0.164280
C656	C	-0.447064	-0.187579	0.183591
H657	H	-0.450104	-0.241102	0.210373
H658	H	-0.482653	-0.257406	0.198631
H659	H	-0.398961	-0.193045	0.155081
H660	H	-0.431501	-0.209335	0.143334
H661	H	-0.477290	-0.201521	0.192795
H662	H	-0.444739	-0.185220	0.204536
H663	H	-0.431296	-0.162827	0.166531
C664	C	0.263002	0.301662	-0.189272
C665	C	0.224661	0.299784	-0.164025
C666	C	0.206587	0.301249	-0.183225
H667	H	0.255855	0.280654	-0.198481
H668	H	0.283897	0.324944	-0.210210
H669	H	0.203770	0.276506	-0.143094
H670	H	0.231796	0.320791	-0.154815
H671	H	0.227481	0.324531	-0.204163
H672	H	0.199443	0.280240	-0.192434
H673	H	0.180573	0.299978	-0.166099
C674	C	-0.007491	-0.413840	0.303584
C675	C	-0.020041	-0.393472	0.293058
C676	C	-0.039251	-0.412110	0.274294
H677	H	-0.032793	-0.439010	0.320242
H678	H	0.013300	-0.415122	0.281330
H679	H	-0.040831	-0.392194	0.315309
H680	H	0.005253	-0.368302	0.276395
H681	H	-0.018461	-0.413392	0.252040
H682	H	-0.064552	-0.437280	0.290955
H683	H	-0.047766	-0.398291	0.267147
C684	C	0.622246	0.173448	-0.511686
C685	C	0.598880	0.148200	-0.524780
C686	C	0.616610	0.167398	-0.562052
H687	H	0.652465	0.182661	-0.528045
H688	H	0.619896	0.194382	-0.511726
H689	H	0.601235	0.127272	-0.524743
H690	H	0.568661	0.138985	-0.508432
H691	H	0.614259	0.188333	-0.562092
H692	H	0.646829	0.176611	-0.578408
H693	H	0.600756	0.150271	-0.570940
C694	C	-0.618601	-0.243442	0.355628
C695	C	-0.607250	-0.206954	0.342403
C696	C	-0.568505	-0.187533	0.305132
H697	H	-0.623296	-0.257355	0.339318
H698	H	-0.595318	-0.241101	0.355630
H699	H	-0.630527	-0.209296	0.342399
H700	H	-0.602546	-0.193030	0.358703
H701	H	-0.545222	-0.185192	0.305133
H702	H	-0.573204	-0.201450	0.288824
H703	H	-0.560796	-0.162773	0.296155
H704	H	0.437930	-0.026285	-0.308746
C705	C	0.110341	-0.021386	-0.421731
C706	C	0.122741	0.015694	-0.434288
C707	C	0.160200	0.034490	-0.472237
H708	H	0.103790	-0.035107	-0.437492
H709	H	0.133895	-0.020063	-0.423194
H710	H	0.099192	0.014369	-0.432829
H711	H	0.129301	0.029424	-0.418538
H712	H	0.183754	0.035814	-0.473699
H713	H	0.153645	0.020767	-0.487994
H714	H	0.168621	0.059652	-0.480760
C715	C	0.172452	0.092722	0.019386
C716	C	0.215266	0.110744	-0.013980
C717	C	0.233247	0.091424	-0.012589
H718	H	0.154551	0.066943	0.021301
H719	H	0.173516	0.093176	0.041046
H720	H	0.214199	0.110286	-0.035634
H721	H	0.233177	0.136521	-0.015901
H722	H	0.234311	0.091879	0.009072
H723	H	0.215343	0.065646	-0.010673
H724	H	0.262299	0.103652	-0.035225
H725	H	0.552391	0.301235	-0.365822
H726	H	0.370892	0.301275	-0.184323
H727	H	-0.562304	-0.409050	0.308680
H728	H	0.552607	0.301210	-0.468757
C729	C	0.262988	-0.191891	-0.355704
C730	C	0.224624	-0.228379	-0.342480
C731	C	0.206674	-0.247800	-0.305208
H732	H	0.255893	-0.177978	-0.339393
H733	H	0.283930	-0.194232	-0.355705
H734	H	0.203686	-0.226036	-0.342476
H735	H	0.231707	-0.242302	-0.358780
H736	H	0.227617	-0.250141	-0.305209
H737	H	0.199582	-0.233884	-0.288901
H738	H	0.180645	-0.272561	-0.296232
H739	H	0.205048	-0.216515	0.398819
C740	C	0.172453	0.262773	0.189429
C741	C	0.210831	0.264668	0.164286
C742	C	0.228809	0.263246	0.183597
H743	H	0.151543	0.239505	0.210378
H744	H	0.179533	0.283797	0.198630
H745	H	0.203750	0.243646	0.155091
H746	H	0.231751	0.287934	0.143337
H747	H	0.235889	0.284270	0.192799
H748	H	0.207896	0.239978	0.204546
H749	H	0.254852	0.264535	0.166540
C750	C	0.172437	-0.243493	0.356146
C751	C	0.210792	-0.207041	0.343044
C752	C	0.228896	-0.187517	0.305755
H753	H	0.151575	-0.241085	0.356067
H754	H	0.179569	-0.257383	0.339814
H755	H	0.203659	-0.193154	0.359371
H756	H	0.231664	-0.209438	0.343114
H757	H	0.236028	-0.201407	0.289423
H758	H	0.208031	-0.185111	0.305679
H759	H	0.254924	-0.162783	0.296859
H760	H	-0.117435	-0.186523	0.019040
C761	C	-0.661788	-0.206073	0.392824
C762	C	-0.651350	-0.182108	0.413393
C763	C	-0.633301	-0.144798	0.393981
H764	H	-0.682666	-0.205987	0.390449
H765	H	-0.635740	-0.197103	0.368077
H766	H	-0.677394	-0.191076	0.438133
H767	H	-0.630468	-0.182182	0.415769
H768	H	-0.607254	-0.135828	0.369234
H769	H	-0.654181	-0.144716	0.391607
H770	H	-0.626213	-0.128532	0.407932
H771	H	0.335269	-0.128941	-0.308748
H772	H	-0.629638	-0.533721	0.366252
C773	C	0.219904	-0.609083	-0.013546
C774	C	0.228493	-0.591071	-0.046923
C775	C	0.189818	-0.610418	-0.045560
H776	H	0.197604	-0.608651	0.008100
H777	H	0.210146	-0.634858	-0.011632
H778	H	0.238244	-0.565302	-0.048833
H779	H	0.250786	-0.591502	-0.068574
H780	H	0.180061	-0.636194	-0.043647
H781	H	0.167521	-0.609985	-0.023913
H782	H	0.195642	-0.598202	-0.068207
C783	C	0.054315	0.092993	0.019399
C784	C	0.043118	0.118248	0.017491
C785	C	0.004413	0.099063	0.018903
H786	H	0.030961	0.072052	0.042667
H787	H	0.059013	0.083795	-0.001625
H788	H	0.038418	0.127440	0.038513
H789	H	0.066461	0.139190	-0.005776
H790	H	0.009111	0.089866	-0.002120
H791	H	-0.018937	0.078122	0.042172
H792	H	-0.003186	0.116196	0.017606
H793	H	0.205343	-0.115928	-0.501596
H794	H	0.617482	-0.318952	-0.013867
C795	C	-0.780186	-0.324128	0.511100
C796	C	-0.794480	-0.300446	0.522531
C797	C	-0.833234	-0.319727	0.559797
H798	H	-0.774498	-0.330565	0.528019
H799	H	-0.802471	-0.346833	0.511704
H800	H	-0.772200	-0.277748	0.521931
H801	H	-0.800177	-0.294007	0.505622
H802	H	-0.855519	-0.342432	0.560400
H803	H	-0.827543	-0.326163	0.576713
H804	H	-0.842940	-0.303663	0.567556
H805	H	-0.117214	-0.083584	0.019042
C806	C	-0.737044	-0.361605	0.474014
C807	C	-0.775402	-0.374706	0.510466
C808	C	-0.793509	-0.411998	0.529989
H809	H	-0.716185	-0.361688	0.476425
H810	H	-0.744174	-0.377933	0.460122
H811	H	-0.768271	-0.358382	0.524356
H812	H	-0.796270	-0.374633	0.508067
H813	H	-0.800639	-0.428326	0.516096
H814	H	-0.772648	-0.412077	0.532397
H815	H	-0.819539	-0.420893	0.554722
H816	H	0.064523	-0.351759	0.184259
H817	H	0.230091	-0.219108	-0.114185
C818	C	0.547828	-0.361626	-0.019495
C819	C	0.571178	-0.374728	-0.017593
C820	C	0.553410	-0.412019	-0.019010
H821	H	0.550154	-0.361709	-0.042764
H822	H	0.517607	-0.377954	0.001529
H823	H	0.601391	-0.358404	-0.038615
H824	H	0.568854	-0.374654	0.005674
H825	H	0.523189	-0.428348	0.002013
H826	H	0.555737	-0.412099	-0.042279
H827	H	0.569248	-0.420915	-0.017716
C828	C	0.337726	-0.111124	-0.108743
C829	C	0.380538	-0.101676	-0.126758
C830	C	0.398503	-0.082316	-0.107423
H831	H	0.319816	-0.127117	-0.082966
H832	H	0.338788	-0.088400	-0.109192
H833	H	0.379473	-0.124397	-0.126305
H834	H	0.398458	-0.085679	-0.152533
H835	H	0.399565	-0.059592	-0.107871
H836	H	0.380590	-0.098311	-0.081647
H837	H	0.427554	-0.075900	-0.119645
H838	H	0.335043	-0.409068	-0.028878
H839	H	0.267897	-0.186572	-0.184305
H840	H	-0.447397	-0.351491	0.184007
C841	C	0.172428	0.262757	0.355634
C842	C	0.210790	0.264628	0.342412
C843	C	0.228737	0.263148	0.305143
H844	H	0.179525	0.283762	0.339320
H845	H	0.151484	0.239473	0.355638
H846	H	0.231731	0.287910	0.342405
H847	H	0.203706	0.243625	0.358716
H848	H	0.207792	0.239863	0.305147
H849	H	0.235831	0.284153	0.288832
H850	H	0.254765	0.264414	0.296168
C851	C	0.215825	0.268817	0.392855
C852	C	0.230240	0.271663	0.416437
C853	C	0.268959	0.273094	0.397054
H854	H	0.238088	0.290479	0.370141
H855	H	0.210046	0.246188	0.386430
H856	H	0.236022	0.294289	0.422856
H857	H	0.207989	0.250003	0.439152
H858	H	0.263179	0.250465	0.390629
H859	H	0.291218	0.294757	0.374340
H860	H	0.278742	0.275022	0.413053
H861	H	0.552845	0.098385	-0.366316
C862	C	0.442991	-0.414086	-0.029023
C863	C	0.480234	-0.389401	-0.029189
C864	C	0.499543	-0.408050	-0.029710
H865	H	0.451581	-0.421244	-0.051342
H866	H	0.422235	-0.436322	-0.006938
H867	H	0.500986	-0.367172	-0.051272
H868	H	0.471656	-0.382241	-0.006872
H869	H	0.478787	-0.430286	-0.007624
H870	H	0.508130	-0.415207	-0.052029
H871	H	0.524812	-0.391305	-0.029819
C872	C	-0.377585	-0.324132	0.108565
C873	C	-0.342450	-0.300444	0.070596
C874	C	-0.324423	-0.319706	0.051144
H875	H	-0.399647	-0.346844	0.108962
H876	H	-0.367119	-0.330549	0.120726
H877	H	-0.352917	-0.294032	0.058437
H878	H	-0.320379	-0.277732	0.070187
H879	H	-0.313957	-0.326124	0.063305
H880	H	-0.346488	-0.342418	0.051543
H881	H	-0.300579	-0.303635	0.025381
C882	C	0.442978	0.311109	-0.421722
C883	C	0.480217	0.311267	-0.434277
C884	C	0.499514	0.311766	-0.472228
H885	H	0.451572	0.333423	-0.437479
H886	H	0.422215	0.289019	-0.423191
H887	H	0.500977	0.333354	-0.432810
H888	H	0.471636	0.288955	-0.418530
H889	H	0.478751	0.289676	-0.473698
H890	H	0.508105	0.334080	-0.487982
H891	H	0.524780	0.311869	-0.480750
H892	H	0.617241	0.295963	-0.398133
C893	C	0.381409	0.301633	-0.474372
C894	C	0.392757	0.299752	-0.510860
C895	C	0.431500	0.301221	-0.530280
H896	H	0.376711	0.280628	-0.460457
H897	H	0.404693	0.324917	-0.476716
H898	H	0.369478	0.276471	-0.508515
H899	H	0.397464	0.320756	-0.524786
H900	H	0.454784	0.324505	-0.532624
H901	H	0.426798	0.280215	-0.516361
H902	H	0.439207	0.299949	-0.555040
C903	C	0.097850	0.268894	0.511098
C904	C	0.124393	0.271758	0.522531
C905	C	0.106601	0.273255	0.559794
H906	H	0.068803	0.246290	0.528020
H907	H	0.096830	0.290578	0.511697
H908	H	0.125408	0.250076	0.521936
H909	H	0.153440	0.294361	0.505620
H910	H	0.105582	0.294938	0.560393
H911	H	0.077555	0.250650	0.576713
H912	H	0.124610	0.275201	0.567555
C913	C	0.054322	0.262835	0.474010
C914	C	0.043124	0.264746	0.510461
C915	C	0.004420	0.263335	0.529980
H916	H	0.030968	0.239566	0.476422
H917	H	0.059020	0.283857	0.460114
H918	H	0.038424	0.243725	0.524353
H919	H	0.066467	0.288013	0.508060
H920	H	0.009118	0.284358	0.516084
H921	H	-0.018931	0.240066	0.532389
H922	H	-0.003181	0.264635	0.554712
C923	C	0.381416	-0.528307	-0.019548
C924	C	0.392767	-0.553446	-0.017675
C925	C	0.431513	-0.534123	-0.019150
H926	H	0.376721	-0.519090	0.001459
H927	H	0.404698	-0.507366	-0.042832
H928	H	0.369490	-0.574380	0.005606
H929	H	0.397472	-0.562664	-0.038681
H930	H	0.454795	-0.513182	-0.042434
H931	H	0.426813	-0.524907	0.001857
H932	H	0.439222	-0.551175	-0.017884
C933	C	-0.186807	0.268884	0.511593
C934	C	-0.163440	0.267006	0.524688
C935	C	-0.181161	0.268491	0.561955
H936	H	-0.217028	0.247883	0.527957
H937	H	-0.184451	0.292172	0.511625
H938	H	-0.165800	0.243721	0.524659
H939	H	-0.133220	0.288005	0.508334
H940	H	-0.178805	0.291779	0.561986
H941	H	-0.211381	0.247490	0.578315
H942	H	-0.165307	0.267220	0.570843
C943	C	0.338230	-0.608862	-0.013560
C944	C	0.348668	-0.622386	-0.044570
C945	C	0.366715	-0.641651	-0.043208
H946	H	0.317351	-0.629826	0.009692
H947	H	0.364277	-0.591787	-0.014860
H948	H	0.322624	-0.639460	-0.043266
H949	H	0.369551	-0.601430	-0.067827
H950	H	0.392763	-0.624576	-0.044508
H951	H	0.345834	-0.662613	-0.019955
H952	H	0.373804	-0.650826	-0.064249
C953	C	-0.112190	-0.528070	0.355653
C954	C	-0.135454	-0.553209	0.342428
C955	C	-0.117605	-0.533886	0.305157
H956	H	-0.081966	-0.518853	0.339341
H957	H	-0.114533	-0.507129	0.355655
H958	H	-0.133107	-0.574143	0.342423
H959	H	-0.165677	-0.562427	0.358729
H960	H	-0.119948	-0.512945	0.305160
H961	H	-0.087382	-0.524670	0.288849
H962	H	-0.133389	-0.550939	0.296181
H963	H	0.267943	-0.533739	-0.019121
C964	C	0.110516	-0.295861	0.303567
C965	C	0.122900	-0.283299	0.266494
C966	C	0.160320	-0.245333	0.247715
H967	H	0.134096	-0.294355	0.302224
H968	H	0.103914	-0.280133	0.317319
H969	H	0.129504	-0.299022	0.252746
H970	H	0.099331	-0.284796	0.267826
H971	H	0.153718	-0.229605	0.261467
H972	H	0.183897	-0.243830	0.246375
H973	H	0.168725	-0.236803	0.222560
H974	H	-0.182272	0.268459	0.398770
H975	H	-0.117415	0.263190	0.366230
