data_functionalizedCrystal
_audit_creation_method	'MofGen! by Chris Wilmer'
_symmetry_space_group_name_H-M	'P1'
_symmetry_Int_Tables_number	1
_symmetry_cell_setting	triclinic
loop_
_symmetry_equiv_pos_as_xyz
  x,y,z
_cell_length_a	6.817900
_cell_length_b	15.185311
_cell_length_c	16.255661
_cell_angle_alpha	95.125321
_cell_angle_beta	103.488922
_cell_angle_gamma	104.261569
loop_
_atom_site_label
_atom_site_type_symbol
_atom_site_fract_x
_atom_site_fract_y
_atom_site_fract_z
V1	V	-4.030591	-0.126490	-0.264121
O2	O	-4.014027	0.005323	-0.258838
O3	O	-3.985933	-0.250083	-0.262560
O4	O	-3.982104	-0.124876	-0.379201
O5	O	-4.017883	-0.120750	-0.141389
V6	V	-4.513745	-0.110685	-0.249411
O7	O	-4.292658	-0.161161	-0.296387
O8	O	-4.701876	-0.076014	-0.217145
O9	O	-4.335197	0.012907	-0.250972
O10	O	-4.647706	-0.242498	-0.254694
O11	O	-4.643850	-0.116425	-0.372143
O12	O	-4.339026	-0.112299	-0.134331
C13	C	-3.831847	-0.280201	-0.258457
C14	C	-3.876620	-0.381242	-0.257948
C15	C	-4.025416	-0.795280	-0.178292
C16	C	-4.106671	-0.821656	-0.333354
C17	C	-4.064577	-0.726722	-0.333828
C18	C	-4.002902	-0.666062	-0.256532
C19	C	-3.983322	-0.700337	-0.178763
C20	C	-4.084173	-0.692440	-0.411596
C21	C	-4.042080	-0.597501	-0.412073
C22	C	-3.980390	-0.536839	-0.334776
C23	C	-3.960808	-0.571119	-0.257003
C24	C	-3.899134	-0.510460	-0.179707
C25	C	-3.879537	-0.544737	-0.101934
C26	C	-3.921632	-0.639675	-0.101466
C27	C	-3.938295	-0.441901	-0.335244
C28	C	-3.857040	-0.415516	-0.180179
C29	C	-3.826961	-0.120487	-0.407243
C30	C	-3.868625	-0.119985	-0.501323
C31	C	-3.778998	-0.113989	-0.724130
C32	C	-3.937787	-0.191378	-0.793759
C33	C	-3.944981	-0.119044	-0.673570
C34	C	-3.860455	-0.040769	-0.771576
C35	C	-4.018721	-0.118131	-0.839951
C36	C	-4.103254	-0.196502	-0.741969
C37	C	-4.025858	-0.045825	-0.719771
C38	C	-4.184784	-0.123236	-0.789380
C39	C	-3.902496	-0.119571	-0.577721
C40	C	-4.061223	-0.117611	-0.935799
C41	C	-4.152625	0.043021	-0.255073
C42	C	-4.087090	0.144061	-0.255587
C43	C	-4.157511	-0.116691	-0.106285
C44	C	-4.095085	-0.117189	-0.012204
H45	H	-4.058035	-0.569601	-0.475400
H46	H	-4.009455	-0.823193	-0.114970
H47	H	-4.156905	-0.871050	-0.396285
H48	H	-4.062565	0.015716	-0.687541
C49	C	-3.509629	-0.108571	-0.597188
C50	C	-3.546985	-0.108844	-0.685658
H51	H	-3.366396	-0.105392	-0.573438
H52	H	-3.596214	-0.163345	-0.586507
H53	H	-3.540913	-0.056779	-0.571619
H54	H	-3.515716	-0.160640	-0.711228
H55	H	-3.460372	-0.054063	-0.696346
C56	C	-3.510594	0.052752	-0.756642
C57	C	-3.722432	0.048087	-0.789727
H58	H	-3.425380	0.107608	-0.767842
H59	H	-3.480696	0.001037	-0.783063
H60	H	-3.482035	0.052788	-0.696578
H61	H	-3.750994	0.048044	-0.849793
H62	H	-3.752341	0.099815	-0.763308
C63	C	-4.022865	-0.477514	-0.488468
C64	C	-3.959831	-0.404222	-0.420723
H65	H	-4.036148	-0.454250	-0.541242
H66	H	-4.154177	-0.516952	-0.487764
H67	H	-3.920994	-0.511034	-0.482349
H68	H	-4.061711	-0.370705	-0.426839
H69	H	-3.828501	-0.364768	-0.421429
H70	H	-3.806808	-0.366132	-0.117234
C71	C	-3.956954	-0.427032	-0.016513
C72	C	-3.811748	-0.478050	-0.016974
H73	H	-3.915095	-0.385856	0.035934
H74	H	-4.091624	-0.467584	-0.022248
H75	H	-3.962592	-0.393044	-0.062906
H76	H	-3.806121	-0.512043	0.029416
H77	H	-3.677042	-0.437492	-0.011230
C78	C	-3.950084	-0.773495	-0.031896
C79	C	-3.900101	-0.677356	-0.015983
H80	H	-3.936804	-0.796758	0.020877
H81	H	-3.857089	-0.791503	-0.060964
H82	H	-4.090275	-0.797425	-0.066382
H83	H	-3.759904	-0.653426	0.018498
H84	H	-3.993099	-0.659339	0.013098
H85	H	-4.356777	-0.127166	-0.817735
H86	H	-4.134414	-0.741836	-0.474526
H87	H	-3.901002	-0.252916	-0.825966
H88	H	-4.205491	-0.262390	-0.728632
