data_functionalizedCrystal
_audit_creation_method	'MofGen! by Chris Wilmer'
_symmetry_space_group_name_H-M	'P1'
_symmetry_Int_Tables_number	1
_symmetry_cell_setting	triclinic
loop_
_symmetry_equiv_pos_as_xyz
  x,y,z
_cell_length_a	17.699083
_cell_length_b	10.654550
_cell_length_c	16.776229
_cell_angle_alpha	89.994543
_cell_angle_beta	89.998886
_cell_angle_gamma	83.883959
loop_
_atom_site_label
_atom_site_type_symbol
_atom_site_fract_x
_atom_site_fract_y
_atom_site_fract_z
O1	O	1.005088	0.158809	-0.066174
O2	O	0.784841	0.179470	-0.066200
O3	O	0.900029	-0.013689	-0.066184
O4	O	0.889901	0.351967	-0.066191
O5	O	0.900013	-0.013700	0.066393
O6	O	0.784826	0.179458	0.066376
O7	O	1.005073	0.158797	0.066402
Zn8	Zn	0.894947	0.169126	0.087439
Zn9	Zn	0.894967	0.169141	-0.087237
O10	O	0.889885	0.351955	0.066386
C11	C	0.756632	0.178724	0.000085
C12	C	0.672599	0.176503	0.000075
C13	C	0.624699	0.289883	0.000073
C14	C	0.545743	0.287788	0.000083
C15	C	0.514688	0.172313	0.000090
C16	C	0.562594	0.058924	0.000094
C17	C	0.641549	0.061020	0.000090
C18	C	0.244177	0.050470	0.000114
C19	C	0.165216	0.048383	0.000116
C20	C	0.148371	0.277239	0.000108
C21	C	0.227326	0.279334	0.000103
C22	C	0.275225	0.165946	0.000112
C23	C	0.360839	0.168219	0.000102
C24	C	0.429076	0.170039	0.000094
C25	C	0.899277	-0.060479	0.000103
C26	C	0.897052	-0.199884	0.000100
C27	C	0.964873	-0.280557	0.000111
C28	C	0.962778	-0.411541	0.000105
C29	C	0.825036	-0.381166	0.000082
C30	C	0.827132	-0.250185	0.000082
C31	C	1.034794	-0.230256	0.000129
C32	C	1.102620	-0.310930	0.000141
C33	C	1.100525	-0.441914	0.000135
C34	C	1.030603	-0.492224	0.000118
C35	C	1.033282	0.159543	0.000115
C36	C	1.117314	0.161764	0.000120
C37	C	0.890637	0.398746	0.000097
C38	C	0.892861	0.538151	0.000095
N39	N	0.894938	0.169114	0.206650
N40	N	0.894981	0.169143	-0.206448
C41	C	0.945959	0.083619	0.248374
C42	C	0.945963	0.083618	0.331826
C43	C	0.894950	0.169119	0.373553
C44	C	0.843923	0.254619	0.331822
C45	C	0.843916	0.254613	0.248372
C46	C	0.843951	0.254643	0.668370
C47	C	0.843964	0.254645	0.751826
C48	C	0.945998	0.083648	0.751824
C49	C	0.945991	0.083642	0.668374
C50	C	0.894962	0.169137	0.626651
C51	C	0.894957	0.169135	0.536162
C52	C	0.894958	0.169128	0.464040
H53	H	0.283168	-0.041858	0.000122
O54	O	0.995543	0.000440	0.207968
C55	C	1.040587	-0.075000	0.262695
H56	H	1.009555	-0.076348	0.322185
H57	H	1.097022	-0.034340	0.271560
C58	C	1.093591	-0.208856	0.157072
C59	C	1.055474	-0.210520	0.230137
H60	H	1.102777	-0.292450	0.136988
H61	H	1.063246	-0.158028	0.120201
H62	H	1.140615	-0.174967	0.164470
H63	H	1.008446	-0.244394	0.222736
H64	H	1.085811	-0.261357	0.267006
H65	H	0.768109	-0.422140	0.000069
O66	O	0.654772	0.402137	-0.000041
C67	C	0.630363	0.471231	-0.068713
H68	H	0.575433	0.437170	-0.091600
H69	H	0.675966	0.456556	-0.116796
C70	C	0.683767	0.654375	-0.019748
C71	C	0.616297	0.612548	-0.047855
H72	H	0.675093	0.741547	-0.006884
H73	H	0.700215	0.607825	0.026517
H74	H	0.721763	0.642135	-0.059822
H75	H	0.578305	0.624774	-0.007778
H76	H	0.599842	0.659104	-0.094112
O77	O	0.794360	0.337817	0.627971
C78	C	0.749328	0.413262	0.682697
H79	H	0.780374	0.414618	0.742177
H80	H	0.692896	0.372603	0.691587
C81	C	0.696299	0.547106	0.577066
C82	C	0.734433	0.548779	0.650119
H83	H	0.687107	0.630697	0.556970
H84	H	0.726635	0.496274	0.540195
H85	H	0.649276	0.513216	0.584485
H86	H	0.781458	0.582652	0.642698
H87	H	0.704104	0.599619	0.686988
H88	H	0.802369	0.324230	0.214401
H89	H	1.036507	-0.123604	0.000137
O90	O	0.532555	-0.053360	0.000133
C91	C	0.591767	-0.152984	0.000114
H92	H	0.645578	-0.117947	0.025213
H93	H	0.602755	-0.187935	-0.063490
C94	C	0.502820	-0.304954	0.021277
C95	C	0.568911	-0.261924	0.052111
H96	H	0.488721	-0.372157	0.053348
H97	H	0.462927	-0.237837	0.021287
H98	H	0.511986	-0.334072	-0.031726
H99	H	0.559741	-0.232793	0.105109
H100	H	0.608802	-0.329039	0.052111
O101	O	0.499138	0.397846	-0.000033
C102	C	0.452975	0.403494	-0.068703
H103	H	0.448455	0.303826	-0.091583
H104	H	0.479248	0.460759	-0.116792
C105	C	0.378713	0.589355	-0.019748
C106	C	0.373157	0.466940	-0.047845
H107	H	0.329478	0.628496	-0.006884
H108	H	0.409815	0.585554	0.026515
H109	H	0.400610	0.637060	-0.059827
H110	H	0.351268	0.419233	-0.007764
H111	H	0.342048	0.470735	-0.094102
O112	O	0.794262	0.337546	0.372319
C113	C	0.719236	0.317300	0.351925
H114	H	0.718343	0.216754	0.328993
H115	H	0.697363	0.386950	0.303484
C116	C	0.669135	0.460409	0.454229
C117	C	0.668037	0.336914	0.426070
H118	H	0.637551	0.472513	0.499963
H119	H	0.719680	0.474054	0.467968
H120	H	0.650908	0.518437	0.413854
H121	H	0.686272	0.278889	0.466441
H122	H	0.617493	0.323259	0.412340
H123	H	1.028903	-0.598881	0.000104
H124	H	0.252606	0.373366	0.000094
H125	H	1.159547	-0.269958	0.000135
O126	O	0.995425	0.000446	0.372389
C127	C	0.954505	-0.076938	0.420686
H128	H	0.894806	-0.078944	0.395549
H129	H	0.950751	-0.037633	0.483931
C130	C	1.068843	-0.209392	0.452838
C131	C	0.995522	-0.211864	0.421960
H132	H	1.094146	-0.292618	0.453628
H133	H	1.096413	-0.157254	0.420302
H134	H	1.065705	-0.176631	0.505539
H135	H	0.998661	-0.244608	0.369257
H136	H	0.967953	-0.264010	0.454488
H137	H	0.109361	0.369564	0.000105
H138	H	0.139935	-0.045657	0.000123
H139	H	1.155752	-0.507596	0.000136
H140	H	0.680549	-0.031306	0.000091
O141	O	0.995457	0.000462	0.792393
C142	C	0.954527	-0.076911	0.840688
H143	H	0.894830	-0.078911	0.815545
H144	H	0.950769	-0.037599	0.903932
C145	C	1.068857	-0.209376	0.872857
C146	C	0.995538	-0.211841	0.841972
H147	H	1.094155	-0.292606	0.873652
H148	H	1.096433	-0.157246	0.840322
H149	H	1.065715	-0.176610	0.925557
H150	H	0.998681	-0.244591	0.789270
H151	H	0.967963	-0.263979	0.874498
H152	H	0.771906	-0.184498	0.000074
H153	H	0.987533	0.014023	0.634403
H154	H	0.802419	0.324273	0.785798
