data_functionalizedCrystal
_audit_creation_method	'MofGen! by Chris Wilmer'
_symmetry_space_group_name_H-M	'P1'
_symmetry_Int_Tables_number	1
_symmetry_cell_setting	triclinic
loop_
_symmetry_equiv_pos_as_xyz
  x,y,z
_cell_length_a	8.559649
_cell_length_b	8.559649
_cell_length_c	7.088929
_cell_angle_alpha	84.655815
_cell_angle_beta	95.325015
_cell_angle_gamma	69.778664
loop_
_atom_site_label
_atom_site_type_symbol
_atom_site_fract_x
_atom_site_fract_y
_atom_site_fract_z
O1	O	2.108185	-0.036318	-0.158958
O2	O	1.632699	0.047464	-0.158965
O3	O	1.912333	-0.232170	-0.158959
O4	O	1.828551	0.243315	-0.158964
O5	O	1.949712	-0.269616	0.159017
O6	O	1.670079	0.010018	0.159011
O7	O	2.145564	-0.073764	0.159018
Cu8	Cu	1.911235	-0.035292	0.188048
Cu9	Cu	1.867029	0.008992	-0.187995
O10	O	1.865931	0.205870	0.159012
C11	C	1.591080	0.035090	0.000022
C12	C	1.411380	0.053990	0.000019
C13	C	1.937372	-0.311201	0.000026
C14	C	1.956269	-0.490899	0.000015
C15	C	2.187183	-0.061390	0.000027
C16	C	2.366881	-0.080288	0.000017
C17	C	1.840892	0.284902	0.000023
C18	C	1.821992	0.464601	0.000021
N19	N	1.942338	-0.066441	0.452537
N20	N	1.835940	0.040127	-0.452484
H21	H	1.311991	0.183419	0.000007
N22	N	2.088429	-0.212721	0.560689
H23	H	2.079669	-0.321463	0.525963
H24	H	2.197179	-0.204036	0.525872
N25	N	1.650556	-0.403777	0.000046
H26	H	1.660900	-0.289758	0.000044
H27	H	1.574170	-0.402950	-0.117823
N28	N	1.498498	-0.251733	0.000022
H29	H	1.556354	-0.251828	-0.117849
H30	H	1.583954	-0.279489	0.117977
H31	H	2.085699	-0.590290	0.000033
N32	N	1.689871	0.186417	0.439379
H33	H	1.692064	0.184207	0.297430
H34	H	1.581113	0.177819	0.474289
