data_functionalizedCrystal
_audit_creation_method	'MofGen! by Chris Wilmer'
_symmetry_space_group_name_H-M	'P1'
_symmetry_Int_Tables_number	1
_symmetry_cell_setting	triclinic
loop_
_symmetry_equiv_pos_as_xyz
  x,y,z
_cell_length_a	12.594517
_cell_length_b	13.897448
_cell_length_c	13.897441
_cell_angle_alpha	90.030599
_cell_angle_beta	89.984820
_cell_angle_gamma	89.982350
loop_
_atom_site_label
_atom_site_type_symbol
_atom_site_fract_x
_atom_site_fract_y
_atom_site_fract_z
Zn1	Zn	1.627264	0.383985	-0.545238
Zn2	Zn	1.960597	0.717319	-0.211905
Zn3	Zn	2.293931	1.050652	0.121428
Zn4	Zn	1.627147	0.545307	-0.383940
Zn5	Zn	1.960480	0.878640	-0.050606
Zn6	Zn	2.293814	1.211974	0.282727
Zn7	Zn	1.449265	0.384028	-0.383972
Zn8	Zn	1.782598	0.717361	-0.050639
Zn9	Zn	2.115932	1.050694	0.282694
Zn10	Zn	1.449245	0.545240	-0.545208
Zn11	Zn	1.782578	0.878573	-0.211875
Zn12	Zn	2.115912	1.211907	0.121459
O13	O	1.538230	0.464640	-0.464589
O14	O	1.871564	0.797973	-0.131256
O15	O	2.204897	1.131307	0.202077
O16	O	1.776194	0.405395	-0.523841
O17	O	2.109528	0.738729	-0.190507
O18	O	2.442861	1.072062	0.142826
O19	O	1.603510	0.523959	-0.248962
O20	O	1.936843	0.857292	0.084371
O21	O	2.270177	1.190625	0.417704
O22	O	1.472934	0.249040	-0.405391
O23	O	1.806268	0.582374	-0.072058
O24	O	2.139601	0.915707	0.261276
O25	O	1.776108	0.523918	-0.405335
O26	O	2.109442	0.857251	-0.072002
O27	O	2.442775	1.190584	0.261331
O28	O	1.603709	0.249009	-0.523872
O29	O	1.937043	0.582343	-0.190539
O30	O	2.270376	0.915676	0.142794
O31	O	1.472821	0.405467	-0.248986
O32	O	1.806154	0.738801	0.084347
O33	O	2.139488	1.072134	0.417680
O34	O	1.300317	0.405402	-0.405361
O35	O	1.633650	0.738736	-0.072028
O36	O	1.966983	1.072069	0.261305
O37	O	1.472900	0.523803	-0.680194
O38	O	1.806233	0.857137	-0.346860
O39	O	2.139567	1.190470	-0.013527
O40	O	1.300302	0.523844	-0.523821
O41	O	1.633635	0.857178	-0.190487
O42	O	1.966969	1.190511	0.142846
O43	O	1.603690	0.405330	-0.680216
O44	O	1.937023	0.738664	-0.346883
O45	O	2.270357	1.071997	-0.013549
O46	O	1.603490	0.680280	-0.405306
O47	O	1.936824	1.013613	-0.071973
O48	O	2.270157	1.346946	0.261361
O49	O	1.472787	0.680230	-0.523789
O50	O	1.806120	1.013564	-0.190456
O51	O	2.139453	1.346897	0.142878
C52	C	1.261689	0.464621	-0.464592
C53	C	1.595023	0.797955	-0.131258
C54	C	1.928356	1.131288	0.202075
C55	C	1.143384	0.464637	-0.464616
C56	C	1.476717	0.797970	-0.131282
C57	C	1.810051	1.131303	0.202051
C58	C	1.003390	0.529174	-0.528926
C59	C	1.336723	0.862507	-0.195593
C60	C	1.670057	1.195841	0.137741
C61	C	1.074158	0.552653	-0.440891
C62	C	1.407492	0.885986	-0.107558
C63	C	1.740825	1.219320	0.225776
C64	C	1.074187	0.441200	-0.552641
C65	C	1.407520	0.774534	-0.219308
C66	C	1.740854	1.107867	0.114026
C67	C	1.003367	0.488192	-0.376505
C68	C	1.336700	0.821526	-0.043172
C69	C	1.670033	1.154859	0.290161
C70	C	1.003389	0.376699	-0.488315
C71	C	1.336723	0.710032	-0.154981
C72	C	1.670056	1.043366	0.178352
C73	C	1.074126	0.400144	-0.400219
C74	C	1.407459	0.733478	-0.066885
C75	C	1.740792	1.066811	0.266448
C76	C	1.538153	0.715254	-0.464562
C77	C	1.871486	1.048588	-0.131228
C78	C	2.204819	1.381921	0.202105
C79	C	1.538217	0.822468	-0.464582
C80	C	1.871550	1.155802	-0.131249
C81	C	2.204883	1.489135	0.202085
C82	C	1.538306	0.464555	-0.716183
C83	C	1.871639	0.797888	-0.382849
C84	C	2.204972	1.131221	-0.049516
C85	C	1.538338	0.464518	-0.823397
C86	C	1.871671	0.797852	-0.490063
C87	C	2.205005	1.131185	-0.156730
C88	C	1.815851	0.464659	-0.464588
C89	C	2.149184	0.797993	-0.131254
C90	C	2.482518	1.131326	0.202079
C91	C	1.934156	0.464668	-0.464587
C92	C	2.267490	0.798001	-0.131254
C93	C	2.600823	1.131334	0.202080
C94	C	1.538337	0.213047	-0.464639
C95	C	1.871671	0.546380	-0.131305
C96	C	2.205004	0.879714	0.202028
C97	C	1.538383	0.105833	-0.464660
C98	C	1.871716	0.439166	-0.131326
C99	C	2.205049	0.772500	0.202007
C100	C	1.538328	1.018763	-0.464642
C101	C	1.871662	1.352097	-0.131309
C102	C	2.204995	1.685430	0.202024
C103	C	1.538263	0.909531	-0.464612
C104	C	1.871597	1.242864	-0.131278
C105	C	2.204930	1.576197	0.202055
C106	C	1.538367	0.464453	-1.019692
C107	C	1.871700	0.797786	-0.686359
C108	C	2.205033	1.131120	-0.353025
C109	C	1.538347	0.464492	-0.910459
C110	C	1.871681	0.797825	-0.577126
C111	C	2.205014	1.131159	-0.243793
C112	C	1.538216	0.464655	-0.213975
C113	C	1.871550	0.797989	0.119358
C114	C	2.204883	1.131322	0.452692
C115	C	1.538390	0.464420	-0.106762
C116	C	1.871724	0.797753	0.226572
C117	C	2.205057	1.131087	0.559905
H118	H	0.972389	0.508118	-0.302031
H119	H	1.305722	0.841451	0.031303
H120	H	1.639056	1.174785	0.364636
H121	H	1.104988	0.345580	-0.345759
H122	H	1.438322	0.678914	-0.012425
H123	H	1.771655	1.012247	0.320908
Cl124	Cl	1.122218	0.410574	-0.667590
Cl125	Cl	1.455552	0.743908	-0.334257
Cl126	Cl	1.788885	1.077241	-0.000924
Cl127	Cl	0.955432	0.613476	-0.612806
Cl128	Cl	1.288765	0.946809	-0.279473
Cl129	Cl	1.622099	1.280143	0.053860
Cl130	Cl	1.122159	0.667487	-0.409915
Cl131	Cl	1.455492	1.000820	-0.076582
Cl132	Cl	1.788826	1.334154	0.256751
H133	H	0.972280	0.302340	-0.508404
H134	H	1.305613	0.635674	-0.175070
H135	H	1.638947	0.969007	0.158263
