data_functionalizedCrystal
_audit_creation_method	'MofGen! by Chris Wilmer'
_symmetry_space_group_name_H-M	'P1'
_symmetry_Int_Tables_number	1
_symmetry_cell_setting	triclinic
loop_
_symmetry_equiv_pos_as_xyz
  x,y,z
_cell_length_a	17.019311
_cell_length_b	17.038272
_cell_length_c	16.098538
_cell_angle_alpha	92.920305
_cell_angle_beta	83.390489
_cell_angle_gamma	87.245400
loop_
_atom_site_label
_atom_site_type_symbol
_atom_site_fract_x
_atom_site_fract_y
_atom_site_fract_z
O1	O	1.060282	0.092293	-0.145296
O2	O	0.830686	0.105819	-0.128832
O3	O	0.944119	-0.014753	-0.136960
O4	O	0.946849	0.212865	-0.137169
O5	O	0.937491	-0.007737	0.002028
O6	O	0.824057	0.112835	0.010156
O7	O	1.053654	0.099309	-0.006308
Zn8	Zn	0.937804	0.107186	0.023991
Zn9	Zn	0.946536	0.097942	-0.159131
O10	O	0.940221	0.219881	0.001819
C11	C	0.797849	0.108952	-0.057221
C12	C	0.709882	0.107823	-0.050913
C13	C	0.212171	0.101659	-0.011436
C14	C	0.294826	0.102719	-0.017365
C15	C	0.339767	0.099419	-0.096093
C16	C	0.302049	0.095067	-0.168897
C17	C	0.219395	0.094012	-0.162967
C18	C	0.589509	0.102416	-0.117787
C19	C	0.672169	0.103469	-0.123711
C20	C	0.664940	0.111123	0.027821
C21	C	0.582286	0.110063	0.033744
C22	C	0.544574	0.105715	-0.039060
C23	C	0.424254	0.100500	-0.102155
C24	C	0.460088	0.104640	-0.032997
C25	C	0.938323	-0.040362	-0.067288
C26	C	0.930917	-0.127122	-0.066757
C27	C	0.998910	-0.177539	-0.071632
C28	C	0.991947	-0.259059	-0.071140
C29	C	0.916991	-0.290160	-0.065768
C30	C	0.848994	-0.239737	-0.060896
C31	C	0.855957	-0.158219	-0.061393
C32	C	0.892389	-0.535809	-0.064016
C33	C	0.885431	-0.617333	-0.063516
C34	C	1.028385	-0.636649	-0.073762
C35	C	1.035342	-0.555129	-0.074254
C36	C	0.967345	-0.504713	-0.069386
C37	C	0.909872	-0.373486	-0.065263
C38	C	0.974464	-0.421389	-0.069897
C39	C	1.086491	0.096177	-0.077921
C40	C	1.174459	0.097305	-0.084235
C41	C	0.946017	0.245490	-0.067854
C42	C	0.953423	0.332250	-0.068391
N43	N	0.931849	0.113494	0.148967
N44	N	0.952496	0.091628	-0.284108
C45	C	0.980015	0.062336	0.189101
C46	C	0.975858	0.066756	0.276588
C47	C	0.923538	0.122338	0.323939
C48	C	0.875367	0.173498	0.283799
C49	C	0.879521	0.169074	0.196314
C50	C	0.908479	0.138364	0.588268
C51	C	0.904331	0.142786	0.675758
C52	C	1.004821	0.036043	0.668541
C53	C	1.008973	0.031626	0.581054
C54	C	0.960799	0.082783	0.540923
C55	C	0.919289	0.126859	0.413364
C56	C	0.965045	0.078258	0.451499
H57	H	0.558815	0.098873	-0.177070
O58	O	0.705612	0.115826	0.106343
H59	H	0.770636	0.116013	0.088998
H60	H	0.188691	0.090468	-0.222248
H61	H	0.708758	0.100787	-0.187825
H62	H	1.022623	0.017079	0.150553
H63	H	1.051576	-0.013633	0.542503
H64	H	0.423493	0.107331	0.031103
O65	O	0.782619	-0.103841	-0.056127
H66	H	0.785069	-0.069099	-0.112761
H67	H	1.044041	-0.005608	0.701225
H68	H	0.832763	0.218752	0.322358
H69	H	0.848842	-0.398818	-0.060887
H70	H	0.861723	0.188050	0.714308
O71	O	0.827556	0.224241	0.153028
H72	H	0.839222	0.211817	0.084240
H73	H	0.545701	0.112734	0.097852
O74	O	1.021462	0.018306	0.400422
H75	H	1.083041	0.028849	0.412713
H76	H	0.876691	0.172117	0.451925
H77	H	0.175586	0.104350	0.052673
O78	O	0.472736	0.096919	-0.187065
H79	H	0.507112	0.150481	-0.193151
H80	H	0.869255	0.180019	0.555599
H81	H	0.787963	-0.265067	-0.056527
O82	O	0.335504	0.107447	0.061152
H83	H	0.290367	0.109566	0.116892
O84	O	0.350514	0.091509	-0.253815
H85	H	0.339834	0.036202	-0.289249
O86	O	1.027823	0.011594	0.319877
H87	H	1.064914	-0.027787	0.272253
H88	H	1.059946	-0.152222	-0.076001
H89	H	1.047314	-0.300105	-0.075108
O90	O	1.116192	-0.521593	-0.080067
H91	H	1.146436	-0.539022	-0.025788
O92	O	1.101723	-0.691024	-0.079018
H93	H	1.084292	-0.752934	-0.077776
H94	H	0.824389	-0.642652	-0.059128
H95	H	0.837021	-0.494770	-0.060051
H96	H	1.035494	-0.396063	-0.074290
