data_functionalizedCrystal
_audit_creation_method	'MofGen! by Chris Wilmer'
_symmetry_space_group_name_H-M	'P1'
_symmetry_Int_Tables_number	1
_symmetry_cell_setting	triclinic
loop_
_symmetry_equiv_pos_as_xyz
  x,y,z
_cell_length_a	12.827893
_cell_length_b	12.759400
_cell_length_c	12.827885
_cell_angle_alpha	90.029377
_cell_angle_beta	90.019272
_cell_angle_gamma	90.013136
loop_
_atom_site_label
_atom_site_type_symbol
_atom_site_fract_x
_atom_site_fract_y
_atom_site_fract_z
Zn1	Zn	1.597686	-0.418216	0.590852
Zn2	Zn	1.597587	-0.593932	0.416113
Zn3	Zn	1.422927	-0.418267	0.416125
Zn4	Zn	1.422919	-0.593854	0.590813
O5	O	1.510280	-0.506067	0.503476
O6	O	1.743909	-0.441537	0.567683
O7	O	1.574380	-0.570684	0.269879
O8	O	1.446154	-0.271240	0.439324
O9	O	1.743836	-0.570634	0.439304
O10	O	1.574548	-0.271202	0.567695
O11	O	1.446058	-0.441624	0.269888
O12	O	1.276690	-0.441548	0.439287
O13	O	1.446141	-0.570501	0.737054
O14	O	1.276684	-0.570550	0.567629
O15	O	1.574541	-0.441461	0.737083
O16	O	1.574372	-0.740942	0.439266
O17	O	1.446044	-0.740885	0.567618
C18	C	1.238770	-0.506047	0.503456
C19	C	1.122617	-0.506064	0.503472
C20	C	1.510225	-0.779035	0.503459
C21	C	1.510297	-0.895811	0.503487
C22	C	1.070857	-0.569998	0.566882
C23	C	0.950806	-0.570017	0.566900
C24	C	1.577119	-0.950574	0.570385
C25	C	1.577167	-1.060298	0.570410
C26	C	1.443570	-1.060487	0.436632
C27	C	1.443517	-0.950765	0.436612
C28	C	1.643899	-0.895620	0.637259
C29	C	1.710727	-0.950383	0.704161
C30	C	1.710775	-1.060107	0.704187
C31	C	1.643996	-1.115068	0.637310
C32	C	1.782850	-0.506088	0.503496
C33	C	1.899003	-0.506097	0.503505
C34	C	1.510351	-0.505966	0.776046
C35	C	1.510381	-0.505923	0.892199
C36	C	1.510363	-0.232034	0.503515
C37	C	1.510399	-0.115257	0.503532
C38	C	1.510269	-0.506092	0.231966
C39	C	1.510441	-0.505839	0.115813
C40	C	1.573925	-0.442058	0.943998
C41	C	1.573957	-0.442012	1.064049
H42	H	1.115420	-0.624717	0.621160
H43	H	1.078054	-0.451337	0.449202
H44	H	1.628363	-0.387338	1.108594
H45	H	1.765090	-0.905628	0.758616
O46	O	1.638947	-0.376916	0.891001
C47	C	1.743125	-0.399870	0.917580
H48	H	1.745370	-0.440159	0.996848
H49	H	1.778233	-0.453966	0.856167
C50	C	1.803706	-0.247965	0.825137
C51	C	1.806465	-0.297440	0.922500
H52	H	1.842780	-0.184783	0.828167
H53	H	1.733520	-0.232501	0.807226
H54	H	1.832961	-0.293055	0.773970
H55	H	1.777198	-0.252355	0.973662
H56	H	1.876647	-0.312893	0.940419
H57	H	1.456040	-0.560523	1.071274
H58	H	1.389202	-1.105245	0.382184
H59	H	1.765181	-1.104692	0.758670
O60	O	1.378571	-0.897724	0.371535
C61	C	1.319625	-0.969753	0.312529
H62	H	1.362468	-1.047937	0.308947
H63	H	1.240249	-0.981457	0.350739
C64	C	1.251965	-0.830980	0.205692
C65	C	1.304590	-0.927005	0.201286
H66	H	1.242686	-0.804610	0.137074
H67	H	1.291674	-0.782451	0.245448
H68	H	1.185824	-0.840747	0.237539
H69	H	1.370735	-0.917235	0.169452
H70	H	1.264892	-0.975531	0.161523
O71	O	0.897551	-0.635222	0.631636
C72	C	0.789543	-0.620737	0.617230
H73	H	0.774730	-0.539606	0.583129
H74	H	0.758537	-0.682967	0.561452
C75	C	0.751651	-0.730094	0.764788
C76	C	0.733456	-0.630444	0.722913
H77	H	0.717051	-0.736086	0.829977
H78	H	0.824417	-0.739856	0.774492
H79	H	0.725812	-0.781941	0.718297
H80	H	0.759307	-0.578600	0.769398
H81	H	0.660692	-0.620673	0.713219
H82	H	0.943509	-0.451362	0.449211
H83	H	1.455997	-0.560560	0.936729
H84	H	1.644029	-1.204413	0.637349
H85	H	1.643869	-0.806278	0.637244
