data_functionalizedCrystal
_audit_creation_method	'MofGen! by Chris Wilmer'
_symmetry_space_group_name_H-M	'P1'
_symmetry_Int_Tables_number	1
_symmetry_cell_setting	triclinic
loop_
_symmetry_equiv_pos_as_xyz
  x,y,z
_cell_length_a	13.635800
_cell_length_b	11.168129
_cell_length_c	11.102300
_cell_angle_alpha	88.015883
_cell_angle_beta	71.394150
_cell_angle_gamma	108.508637
loop_
_atom_site_label
_atom_site_type_symbol
_atom_site_fract_x
_atom_site_fract_y
_atom_site_fract_z
V1	V	-2.055513	-0.174704	0.396267
O2	O	-2.035294	0.008396	0.388713
O3	O	-2.043653	-0.346410	0.393568
O4	O	-2.043907	-0.172017	0.569088
O5	O	-2.035038	-0.167205	0.211978
V6	V	-2.294096	-0.152804	0.374224
O7	O	-2.193114	-0.222746	0.444623
O8	O	-2.381593	-0.104762	0.325869
O9	O	-2.194352	0.018902	0.376923
O10	O	-2.373013	-0.335904	0.381778
O11	O	-2.373269	-0.160303	0.558514
O12	O	-2.194098	-0.155491	0.201403
V13	V	-1.555513	-0.174704	0.396267
O14	O	-1.535294	0.008396	0.388713
O15	O	-1.543653	-0.346410	0.393568
O16	O	-1.543907	-0.172017	0.569088
O17	O	-1.535038	-0.167205	0.211978
V18	V	-1.794096	-0.152804	0.374224
O19	O	-1.693114	-0.222746	0.444623
O20	O	-1.881593	-0.104762	0.325869
O21	O	-1.694352	0.018902	0.376923
O22	O	-1.873013	-0.335904	0.381778
O23	O	-1.873269	-0.160303	0.558514
O24	O	-1.694098	-0.155491	0.201403
C25	C	-1.968748	-0.388268	0.387320
C26	C	-1.999779	-0.528639	0.386265
C27	C	-1.985047	-0.574085	0.275187
C28	C	-2.017118	-0.719166	0.274095
C29	C	-1.969071	-0.165811	0.611212
C30	C	-2.000306	-0.164750	0.752494
C31	C	-2.100928	0.060753	0.383168
C32	C	-2.059517	0.201123	0.384231
C33	C	-2.100605	-0.161701	0.159273
C34	C	-2.058989	-0.162756	0.017990
C35	C	-1.468748	-0.388268	0.387320
C36	C	-1.499779	-0.528639	0.386265
C37	C	-1.469071	-0.165811	0.611212
C38	C	-1.500306	-0.164750	0.752494
C39	C	-2.106976	-0.170558	0.825343
C40	C	-2.136317	-0.169556	0.958091
C41	C	-1.952308	-0.156944	0.945130
C42	C	-1.922966	-0.157936	0.812383
C43	C	-1.600928	0.060753	0.383168
C44	C	-1.559517	0.201123	0.384231
C45	C	-1.600605	-0.161701	0.159273
C46	C	-1.558989	-0.162756	0.017990
C47	C	-1.606352	-0.601018	0.392110
C48	C	-1.635505	-0.732913	0.391129
C49	C	-1.451501	-0.720038	0.378451
C50	C	-1.422351	-0.588147	0.379442
C51	C	-1.606976	-0.170558	0.825343
C52	C	-1.636317	-0.169556	0.958091
C53	C	-1.452308	-0.156944	0.945130
C54	C	-1.422966	-0.157936	0.812383
H55	H	-1.948697	-0.505586	0.180900
H56	H	-2.004552	-0.758314	0.178995
H57	H	-2.072074	-0.759737	0.479335
H58	H	-1.336097	-0.153197	0.753065
H59	H	-1.723176	-0.174284	1.017400
H60	H	-1.669400	-0.552571	0.397664
H61	H	-2.036138	-0.597139	0.480553
H62	H	-2.169952	-0.176104	0.776585
H63	H	-2.223176	-0.174284	1.017400
H64	H	-1.889346	-0.151399	0.993908
H65	H	-1.836097	-0.153197	0.753065
H66	H	-1.722285	-0.791838	0.395891
H67	H	-1.669952	-0.176104	0.776585
H68	H	-1.388465	-0.768505	0.372893
H69	H	-1.335565	-0.529215	0.374686
H70	H	-1.389346	-0.151399	0.993908
