data_functionalizedCrystal
_audit_creation_method	'MofGen! by Chris Wilmer'
_symmetry_space_group_name_H-M	'P1'
_symmetry_Int_Tables_number	1
_symmetry_cell_setting	triclinic
loop_
_symmetry_equiv_pos_as_xyz
  x,y,z
_cell_length_a	16.625548
_cell_length_b	18.050590
_cell_length_c	16.625539
_cell_angle_alpha	90.029956
_cell_angle_beta	90.020568
_cell_angle_gamma	90.019620
loop_
_atom_site_label
_atom_site_type_symbol
_atom_site_fract_x
_atom_site_fract_y
_atom_site_fract_z
Zn1	Zn	1.232702	-0.295637	0.455900
Zn2	Zn	1.732702	0.204363	0.955900
Zn3	Zn	1.232615	-0.419835	0.321063
Zn4	Zn	1.732615	0.080165	0.821063
Zn5	Zn	1.097864	-0.295665	0.321081
Zn6	Zn	1.597864	0.204335	0.821081
Zn7	Zn	1.097844	-0.419792	0.455853
Zn8	Zn	1.597844	0.080208	0.955853
O9	O	1.165256	-0.357732	0.388474
O10	O	1.665256	0.142268	0.888474
O11	O	1.345523	-0.312118	0.438026
O12	O	1.845523	0.187882	0.938026
O13	O	1.214712	-0.403393	0.208233
O14	O	1.714712	0.096607	0.708233
O15	O	1.115796	-0.191737	0.338992
O16	O	1.615796	0.308263	0.838992
O17	O	1.345459	-0.403365	0.338962
O18	O	1.845459	0.096635	0.838962
O19	O	1.214861	-0.191716	0.438043
O20	O	1.714861	0.308284	0.938043
O21	O	1.115711	-0.312166	0.208246
O22	O	1.615711	0.187834	0.708246
O23	O	0.985029	-0.312125	0.338946
O24	O	1.485029	0.187875	0.838946
O25	O	1.115761	-0.403293	0.568692
O26	O	1.615761	0.096707	1.068692
O27	O	0.985014	-0.403320	0.437963
O28	O	1.485014	0.096680	0.937963
O29	O	1.214841	-0.312077	0.568726
O30	O	1.714841	0.187923	1.068726
O31	O	1.214692	-0.523754	0.338917
O32	O	1.714692	-0.023754	0.838917
O33	O	1.115676	-0.523722	0.437946
O34	O	1.615676	-0.023722	0.937946
C35	C	0.955765	-0.357722	0.388452
C36	C	1.455765	0.142278	0.888452
C37	C	0.866144	-0.357735	0.388461
C38	C	1.366144	0.142265	0.888461
C39	C	0.537969	-0.357740	0.388496
C40	C	1.037969	0.142260	0.888496
C41	C	0.629277	-0.357736	0.388484
C42	C	1.129277	0.142264	0.888484
C43	C	0.702054	-0.357738	0.388478
C44	C	1.202054	0.142262	0.888478
C45	C	0.793368	-0.357734	0.388467
C46	C	1.293368	0.142266	0.888467
C47	C	1.165194	-0.550684	0.388442
C48	C	1.665194	-0.050684	0.888442
C49	C	1.165242	-0.633230	0.388455
C50	C	1.665242	-0.133230	0.888455
C51	C	1.219198	-0.832671	0.334678
C52	C	1.719198	-0.332671	0.834678
C53	C	1.238896	-0.882001	0.408268
C54	C	1.738896	-0.382001	0.908268
C55	C	1.165287	-0.784360	0.388488
C56	C	1.665287	-0.284360	0.888488
C57	C	1.145672	-0.882112	0.314931
C58	C	1.645672	-0.382112	0.814931
C59	C	1.165333	-0.930345	0.388512
C60	C	1.665333	-0.430345	0.888512
C61	C	1.185022	-0.832604	0.462116
C62	C	1.685022	-0.332604	0.962116
C63	C	1.091765	-0.832710	0.368729
C64	C	1.591765	-0.332710	0.868729
C65	C	1.111434	-0.882018	0.442370
C66	C	1.611434	-0.382018	0.942370
C67	C	1.165263	-0.700262	0.388472
C68	C	1.665263	-0.200262	0.888472
C69	C	1.165357	-1.014442	0.388536
C70	C	1.665357	-0.514442	0.888536
C71	C	1.375565	-0.357743	0.388497
C72	C	1.875565	0.142257	0.888497
C73	C	1.465186	-0.357748	0.388507
C74	C	1.965186	0.142252	0.888507
C75	C	1.165309	-0.357677	0.598783
C76	C	1.665309	0.142323	1.098783
C77	C	1.165331	-0.357653	0.688405
C78	C	1.665331	0.142347	1.188405
C79	C	1.165341	-0.164027	0.388524
C80	C	1.665341	0.335973	0.888524
C81	C	1.165376	-0.081481	0.388546
C82	C	1.665376	0.418519	0.888546
C83	C	1.165250	-0.357734	0.178984
C84	C	1.665250	0.142266	0.678984
C85	C	1.165384	-0.357548	0.089363
C86	C	1.665384	0.142452	0.589363
C87	C	1.165368	-0.357570	1.016580
C88	C	1.665368	0.142430	1.516580
C89	C	1.165356	-0.357596	0.925272
C90	C	1.665356	0.142404	1.425272
C91	C	1.165350	-0.357612	0.852495
C92	C	1.665350	0.142388	1.352495
C93	C	1.165337	-0.357637	0.761181
C94	C	1.665337	0.142363	1.261181
H95	H	1.301092	-0.903655	0.424996
H96	H	1.801092	-0.403655	0.924996
H97	H	1.129063	-0.903857	0.252715
H98	H	1.629063	-0.403857	0.752715
O99	O	1.204795	-0.806813	0.536412
O100	O	1.704795	-0.306813	1.036412
C101	C	1.148274	-0.832559	0.593096
C102	C	1.648274	-0.332559	1.093096
H103	H	1.089574	-0.846770	0.561152
H104	H	1.589574	-0.346770	1.061152
H105	H	1.172798	-0.884138	0.624119
H106	H	1.672798	-0.384138	1.124119
C107	C	1.204792	-0.754356	0.695492
C108	C	1.704792	-0.254356	1.195492
C109	C	1.132694	-0.771804	0.656259
C110	C	1.632694	-0.271804	1.156259
H111	H	1.195183	-0.716882	0.734457
H112	H	1.695183	-0.216882	1.234457
H113	H	1.242874	-0.737012	0.657305
H114	H	1.742874	-0.237012	1.157305
H115	H	1.225222	-0.797343	0.721338
H116	H	1.725222	-0.297343	1.221338
H117	H	1.112270	-0.728820	0.630406
H118	H	1.612270	-0.228820	1.130406
H119	H	1.094608	-0.789139	0.694444
H120	H	1.594608	-0.289139	1.194444
H121	H	1.065863	-0.903549	0.487938
H122	H	1.565863	-0.403549	0.987938
H123	H	1.264804	-0.811003	0.289221
H124	H	1.764804	-0.311003	0.789221
O125	O	1.017612	-0.806886	0.348609
O126	O	1.517612	-0.306886	0.848609
C127	C	0.997130	-0.832083	0.270971
C128	C	1.497130	-0.332083	0.770971
H129	H	1.054291	-0.845944	0.236239
H130	H	1.554291	-0.345944	0.736239
H131	H	0.958025	-0.883764	0.276032
H132	H	1.458025	-0.383764	0.776032
C133	C	0.880157	-0.754048	0.268899
C134	C	1.380157	-0.254048	0.768899
C135	C	0.950364	-0.771066	0.226239
C136	C	1.450364	-0.271066	0.726239
H137	H	0.851307	-0.716411	0.241307
H138	H	1.351307	-0.216411	0.741307
H139	H	0.893954	-0.737073	0.321207
H140	H	1.393954	-0.237073	0.821207
H141	H	0.847580	-0.797120	0.273114
H142	H	1.347580	-0.297120	0.773114
H143	H	0.982944	-0.727996	0.222034
H144	H	1.482944	-0.227996	0.722034
H145	H	0.936571	-0.788032	0.173930
H146	H	1.436571	-0.288032	0.673930
