data_functionalizedCrystal
_audit_creation_method	'MofGen! by Chris Wilmer'
_symmetry_space_group_name_H-M	'P1'
_symmetry_Int_Tables_number	1
_symmetry_cell_setting	triclinic
loop_
_symmetry_equiv_pos_as_xyz
  x,y,z
_cell_length_a	13.897449
_cell_length_b	16.120484
_cell_length_c	13.897441
_cell_angle_alpha	92.866498
_cell_angle_beta	89.978743
_cell_angle_gamma	92.926462
loop_
_atom_site_label
_atom_site_type_symbol
_atom_site_fract_x
_atom_site_fract_y
_atom_site_fract_z
Zn1	Zn	1.455160	-0.331870	-0.564892
Zn2	Zn	1.788493	0.001463	-0.231559
Zn3	Zn	2.121827	0.334797	0.101774
Zn4	Zn	1.446858	-0.471299	-0.411762
Zn5	Zn	1.780191	-0.137966	-0.078429
Zn6	Zn	2.113525	0.195367	0.254905
Zn7	Zn	1.293853	-0.331906	-0.403605
Zn8	Zn	1.627186	0.001427	-0.070272
Zn9	Zn	1.960520	0.334760	0.263061
Zn10	Zn	1.285632	-0.471246	-0.573004
Zn11	Zn	1.618965	-0.137912	-0.239671
Zn12	Zn	1.952299	0.195421	0.093663
O13	O	1.370376	-0.401580	-0.488316
O14	O	1.703709	-0.068247	-0.154983
O15	O	2.037042	0.265086	0.178351
O16	O	1.589040	-0.350373	-0.544598
O17	O	1.922373	-0.017040	-0.211265
O18	O	2.255707	0.316294	0.122069
O19	O	1.426528	-0.452846	-0.275701
O20	O	1.759861	-0.119513	0.057633
O21	O	2.093194	0.213821	0.390966
O22	O	1.322166	-0.215236	-0.418192
O23	O	1.655499	0.118098	-0.084858
O24	O	1.988832	0.451431	0.248475
O25	O	1.582941	-0.452811	-0.432094
O26	O	1.916274	-0.119478	-0.098761
O27	O	2.249607	0.213856	0.234573
O28	O	1.440677	-0.215209	-0.536689
O29	O	1.774011	0.118124	-0.203355
O30	O	2.107344	0.451458	0.129978
O31	O	1.314116	-0.350435	-0.269708
O32	O	1.647449	-0.017101	0.063626
O33	O	1.980782	0.316232	0.396959
O34	O	1.157781	-0.350383	-0.426058
O35	O	1.491115	-0.017049	-0.092724
O36	O	1.824448	0.316284	0.240609
O37	O	1.308154	-0.452720	-0.706907
O38	O	1.641488	-0.119386	-0.373574
O39	O	1.974821	0.213947	-0.040241
O40	O	1.151741	-0.452755	-0.550514
O41	O	1.485075	-0.119421	-0.217181
O42	O	1.818408	0.213912	0.116153
O43	O	1.432706	-0.350321	-0.700948
O44	O	1.766039	-0.016988	-0.367614
O45	O	2.099372	0.316346	-0.034281
O46	O	1.418556	-0.587958	-0.439960
O47	O	1.751890	-0.254624	-0.106626
O48	O	2.085223	0.078709	0.226707
O49	O	1.300104	-0.587918	-0.558423
O50	O	1.633437	-0.254585	-0.225090
O51	O	1.966771	0.078748	0.108243
C52	C	1.119762	-0.401567	-0.488282
C53	C	1.453096	-0.068234	-0.154948
C54	C	1.786429	0.265099	0.178385
C55	C	1.012547	-0.401582	-0.488291
C56	C	1.345881	-0.068249	-0.154958
C57	C	1.679214	0.265085	0.178376
C58	C	1.357563	-0.618188	-0.500978
C59	C	1.690897	-0.284855	-0.167645
C60	C	2.024230	0.048478	0.165689
C61	C	1.352170	-0.710854	-0.506427
C62	C	1.685504	-0.377521	-0.173094
C63	C	2.018837	-0.044187	0.160240
C64	C	0.925477	-0.401585	-0.488307
C65	C	1.258811	-0.068252	-0.154974
C66	C	1.592144	0.265082	0.178360
C67	C	0.816245	-0.401591	-0.488337
C68	C	1.149578	-0.068257	-0.155003
C69	C	1.482911	0.265076	0.178330
C70	C	1.342330	-0.880515	-0.516396
C71	C	1.675663	-0.547182	-0.183062
C72	C	2.008997	-0.213849	0.150271
C73	C	1.398594	-0.921805	-0.460252
C74	C	1.731928	-0.588471	-0.126919
C75	C	2.065261	-0.255138	0.206415
C76	C	1.393119	-1.016210	-0.465799
C77	C	1.726452	-0.682877	-0.132465
C78	C	2.059786	-0.349543	0.200868
C79	C	1.347804	-0.786101	-0.510850
C80	C	1.681137	-0.452768	-0.177517
C81	C	2.014471	-0.119435	0.155816
C82	C	1.621968	-0.401594	-0.488351
C83	C	1.955301	-0.068260	-0.155018
C84	C	2.288635	0.265073	0.178316
C85	C	1.729182	-0.401600	-0.488366
C86	C	2.062515	-0.068266	-0.155033
C87	C	2.395848	0.265067	0.178301
C88	C	1.370439	-0.401510	-0.739905
C89	C	1.703772	-0.068177	-0.406572
C90	C	2.037106	0.265156	-0.073238
C91	C	1.370466	-0.401480	-0.847117
C92	C	1.703799	-0.068147	-0.513784
C93	C	2.037133	0.265186	-0.180450
C94	C	1.383264	-0.184127	-0.475626
C95	C	1.716598	0.149207	-0.142292
C96	C	2.049931	0.482540	0.191041
C97	C	1.388757	-0.091461	-0.470218
C98	C	1.722090	0.241873	-0.136884
C99	C	2.055424	0.575206	0.196449
C100	C	1.370487	-0.401457	-0.934186
C101	C	1.703820	-0.068124	-0.600852
C102	C	2.037154	0.265210	-0.267519
C103	C	1.370517	-0.401419	-1.043416
C104	C	1.703850	-0.068086	-0.710083
C105	C	2.037184	0.265247	-0.376749
C106	C	1.370372	-0.401590	-0.237702
C107	C	1.703705	-0.068257	0.095631
C108	C	2.037039	0.265077	0.428965
C109	C	1.370546	-0.401385	-0.130477
C110	C	1.703879	-0.068052	0.202857
C111	C	2.037212	0.265282	0.536190
H112	H	1.450875	-0.886252	-0.408020
H113	H	1.784209	-0.552919	-0.074687
H114	H	2.117542	-0.219586	0.258647
O115	O	1.279979	-0.923049	-0.578616
O116	O	1.613312	-0.589716	-0.245282
O117	O	1.946645	-0.256383	0.088051
C118	C	1.217675	-1.057300	-0.640996
C119	C	1.551008	-0.723966	-0.307663
C120	C	1.884341	-0.390633	0.025671
C121	C	1.288316	-1.009221	-0.570479
C122	C	1.621649	-0.675888	-0.237146
C123	C	1.954983	-0.342555	0.096187
H124	H	1.224406	-1.126978	-0.634456
H125	H	1.557739	-0.793645	-0.301123
H126	H	1.891072	-0.460311	0.032210
H127	H	1.140848	-1.040376	-0.622999
H128	H	1.474181	-0.707043	-0.289666
H129	H	1.807514	-0.373709	0.043668
H130	H	1.235523	-1.040130	-0.717795
H131	H	1.568857	-0.706796	-0.384462
H132	H	1.902190	-0.373463	-0.051129
H133	H	1.270556	-1.026366	-0.493656
H134	H	1.603889	-0.693032	-0.160322
H135	H	1.937222	-0.359699	0.173011
H136	H	1.365122	-1.026149	-0.588559
H137	H	1.698456	-0.692816	-0.255226
H138	H	2.031789	-0.359483	0.078107
