data_functionalizedCrystal
_audit_creation_method	'MofGen! by Chris Wilmer'
_symmetry_space_group_name_H-M	'P1'
_symmetry_Int_Tables_number	1
_symmetry_cell_setting	triclinic
loop_
_symmetry_equiv_pos_as_xyz
  x,y,z
_cell_length_a	19.288864
_cell_length_b	13.339070
_cell_length_c	18.366186
_cell_angle_alpha	89.997828
_cell_angle_beta	89.977106
_cell_angle_gamma	99.382770
loop_
_atom_site_label
_atom_site_type_symbol
_atom_site_fract_x
_atom_site_fract_y
_atom_site_fract_z
O1	O	0.945923	0.126087	-0.060787
O2	O	0.746977	0.143095	-0.060738
O3	O	0.823618	-0.012569	-0.060755
O4	O	0.869283	0.281750	-0.060770
O5	O	0.823598	-0.012576	0.060345
O6	O	0.746958	0.143088	0.060362
O7	O	0.945904	0.126079	0.060312
Zn8	Zn	0.846427	0.134582	0.079564
Zn9	Zn	0.846453	0.134592	-0.079989
O10	O	0.869263	0.281743	0.060329
C11	C	0.720984	0.142544	-0.000182
C12	C	0.643560	0.140901	-0.000162
C13	C	0.616663	0.232238	-0.000179
C14	C	0.543915	0.230694	-0.000187
C15	C	0.498067	0.137809	-0.000193
C16	C	0.524972	0.046461	-0.000173
C17	C	0.597719	0.048007	-0.000157
C18	C	0.375583	0.064794	-0.042640
C19	C	0.302838	0.063252	-0.042660
C20	C	0.273691	0.133037	-0.000237
C21	C	0.317301	0.204382	0.042197
C22	C	0.390048	0.205928	0.042212
C23	C	0.419184	0.136123	-0.000209
C24	C	0.167913	0.222706	-0.000261
C25	C	0.095163	0.221159	-0.000264
C26	C	0.076222	0.036923	-0.000257
C27	C	0.148970	0.038473	-0.000247
C28	C	0.194812	0.131367	-0.000252
C29	C	0.815894	-0.050226	-0.000204
C30	C	0.792901	-0.162423	-0.000201
C31	C	0.971681	-0.528031	-0.000245
C32	C	0.993286	-0.422617	-0.000244
C33	C	0.943192	-0.357563	-0.000233
C34	C	0.871489	-0.397934	-0.000224
C35	C	0.849881	-0.503359	-0.000220
C36	C	0.821392	-0.332891	-0.000208
C37	C	0.749689	-0.373262	-0.000198
C38	C	0.728085	-0.478677	-0.000195
C39	C	0.778180	-0.543730	-0.000205
C40	C	0.842999	-0.227467	-0.000212
C41	C	0.721199	-0.202795	-0.000187
C42	C	0.699594	-0.308209	-0.000188
C43	C	0.971897	0.126630	-0.000245
C44	C	1.049320	0.128273	-0.000269
C45	C	0.876987	0.319401	-0.000223
C46	C	0.899980	0.431598	-0.000231
N47	N	0.846415	0.134575	0.188455
N48	N	0.846470	0.134592	-0.188881
C49	C	0.880373	0.065680	0.226548
C50	C	0.880377	0.065676	0.302776
C51	C	0.846432	0.134583	0.340908
C52	C	0.812466	0.203482	0.302806
C53	C	0.812457	0.203478	0.226580
C54	C	0.855080	0.226676	0.461665
C55	C	0.855093	0.226682	0.537890
C56	C	0.846454	0.134596	0.576016
C57	C	0.837815	0.042500	0.537907
C58	C	0.837806	0.042496	0.461681
C59	C	0.846437	0.134595	0.423563
C60	C	0.880418	0.065691	0.696763
C61	C	0.880416	0.065685	0.772993
C62	C	0.812510	0.203500	0.773021
C63	C	0.812507	0.203497	0.696793
C64	C	0.846464	0.134594	0.658669
H65	H	0.205239	0.298346	-0.000254
N66	N	0.626735	-0.050510	-0.000136
H67	H	0.586654	-0.109589	-0.000138
H68	H	0.656530	-0.053881	-0.045023
N69	N	1.025706	-0.598191	-0.000243
H70	H	1.001136	-0.671098	-0.000235
H71	H	1.056089	-0.585158	-0.045140
H72	H	0.862104	0.301669	0.430629
H73	H	0.760592	-0.629568	-0.000209
H74	H	0.901380	-0.194607	-0.000219
N75	N	0.255806	-0.013691	-0.088426
H76	H	0.285306	-0.057674	-0.115291
H77	H	0.221148	-0.057667	-0.055884
N78	N	0.917059	-0.008609	0.814083
H79	H	0.938576	-0.052248	0.778361
H80	H	0.955196	0.030003	0.845681
N81	N	0.775880	0.277812	0.655709
H82	H	0.797696	0.349520	0.668960
H83	H	0.781030	0.267268	0.601646
H84	H	0.399307	0.007964	-0.077190
H85	H	0.908021	0.009573	0.195510
N86	N	0.514895	0.329213	-0.000216
H87	H	0.461854	0.314135	-0.000227
H88	H	0.531718	0.369717	0.044674
H89	H	0.862132	0.301671	0.568912
N90	N	0.066149	0.319677	-0.000224
H91	H	0.106231	0.378755	-0.000209
H92	H	0.036386	0.323096	-0.045104
H93	H	0.653984	0.307880	-0.000184
H94	H	0.908031	0.009572	0.333797
N95	N	1.070615	-0.379065	-0.000267
H96	H	1.082287	-0.335881	0.044621
H97	H	1.099025	-0.436319	-0.000305
H98	H	0.425551	0.264016	0.076765
N99	N	0.650750	-0.522224	-0.000164
H100	H	0.622293	-0.465020	-0.000156
H101	H	0.639135	-0.565425	-0.045051
H102	H	0.641212	-0.341094	-0.000180
N103	N	0.285878	0.279663	0.087953
H104	H	0.233176	0.267859	0.081509
H105	H	0.297595	0.270483	0.140876
H106	H	0.830780	-0.032485	0.568947
N107	N	0.667162	-0.132643	-0.000167
H108	H	0.691729	-0.059736	-0.000171
H109	H	0.636797	-0.145673	-0.045051
H110	H	0.038893	-0.038706	-0.000308
N111	N	0.966491	-0.243866	-0.000236
H112	H	1.019515	-0.228162	-0.000247
H113	H	0.947748	-0.213705	-0.045129
H114	H	0.170869	-0.035904	-0.000237
H115	H	0.830770	-0.032491	0.430656
N116	N	0.917039	-0.008624	0.655637
H117	H	0.938548	-0.052276	0.691339
H118	H	0.881856	-0.053209	0.624027
N119	N	0.775890	0.277816	0.814138
H120	H	0.781046	0.267364	0.868208
H121	H	0.797721	0.349491	0.800801
H122	H	0.784803	0.259581	0.195564
N123	N	0.475527	-0.053724	-0.000171
H124	H	0.425360	-0.040845	-0.000184
H125	H	0.484131	-0.093682	-0.045057
N126	N	0.775848	0.277800	0.343928
H127	H	0.781008	0.267350	0.397999
H128	H	0.797677	0.349474	0.330589
