data_functionalizedCrystal
_audit_creation_method	'MofGen! by Chris Wilmer'
_symmetry_space_group_name_H-M	'P1'
_symmetry_Int_Tables_number	1
_symmetry_cell_setting	triclinic
loop_
_symmetry_equiv_pos_as_xyz
  x,y,z
_cell_length_a	10.654550
_cell_length_b	10.654549
_cell_length_c	9.730223
_cell_angle_alpha	89.996580
_cell_angle_beta	89.999957
_cell_angle_gamma	84.484854
loop_
_atom_site_label
_atom_site_type_symbol
_atom_site_fract_x
_atom_site_fract_y
_atom_site_fract_z
O1	O	1.667839	0.176399	-0.114184
O2	O	2.167839	0.676399	0.385816
O3	O	1.302360	0.193205	-0.114209
O4	O	1.802360	0.693205	0.385791
O5	O	1.493503	0.002062	-0.114190
O6	O	1.993503	0.502062	0.385810
O7	O	1.476696	0.367541	-0.114203
O8	O	1.976696	0.867541	0.385797
O9	O	1.493490	0.002057	0.114390
O10	O	1.993490	0.502057	0.614390
O11	O	1.302348	0.193199	0.114371
O12	O	1.802348	0.693199	0.614371
O13	O	1.667826	0.176393	0.114396
O14	O	2.167826	0.676393	0.614396
Zn15	Zn	1.485085	0.184796	0.150675
Zn16	Zn	1.985085	0.684796	0.650675
Zn17	Zn	1.485102	0.184803	-0.150489
Zn18	Zn	1.985102	0.684803	0.349511
O19	O	1.476684	0.367536	0.114377
O20	O	1.976684	0.867536	0.614377
C21	C	1.255556	0.191968	0.000078
C22	C	1.755556	0.691968	0.500078
C23	C	1.116113	0.188276	0.000068
C24	C	1.616113	0.688276	0.500068
C25	C	1.036627	0.300818	0.000068
C26	C	1.536627	0.800818	0.500068
C27	C	0.905606	0.297341	0.000092
C28	C	1.405606	0.797341	0.500092
C29	C	0.933570	0.068772	0.000111
C30	C	1.433570	0.568772	0.500111
C31	C	1.064588	0.072250	0.000096
C32	C	1.564588	0.572250	0.500096
C33	C	1.714631	0.177630	0.000106
C34	C	2.214631	0.677630	0.500106
C35	C	1.854074	0.181322	0.000106
C36	C	2.354074	0.681322	0.500106
C37	C	1.492263	-0.044738	0.000098
C38	C	1.992263	0.455262	0.500098
C39	C	1.488571	-0.184181	0.000094
C40	C	1.988571	0.315819	0.500094
C41	C	1.597634	-0.394696	0.000092
C42	C	2.097634	0.105304	0.500092
C43	C	1.601113	-0.263676	0.000103
C44	C	2.101113	0.236324	0.500103
C45	C	1.372543	-0.235714	0.000087
C46	C	1.872543	0.264286	0.500087
C47	C	1.369066	-0.366732	0.000086
C48	C	1.869066	0.133268	0.500086
N49	N	1.485083	0.184790	0.356212
N50	N	1.985083	0.684790	0.856212
C51	C	1.477924	0.414336	0.000086
C52	C	1.977924	0.914336	0.500086
C53	C	1.481616	0.553780	0.000081
C54	C	1.981616	1.053780	0.500081
N55	N	1.485113	0.184798	-0.356025
N56	N	1.985113	0.684798	0.143975
C57	C	1.569750	0.100188	0.428146
C58	C	2.069750	0.600188	0.928146
C59	C	1.569763	0.100189	0.572029
C60	C	2.069763	0.600189	1.072029
C61	C	1.400437	0.269404	0.572031
C62	C	1.900437	0.769404	1.072031
C63	C	1.400420	0.269396	0.428150
C64	C	1.900420	0.769396	0.928150
H65	H	0.891602	-0.025693	0.000142
H66	H	1.391602	0.474307	0.500142
H67	H	1.695586	-0.221732	0.000114
H68	H	2.195586	0.278268	0.500114
H69	H	1.280910	-0.170979	0.000088
H70	H	1.780910	0.329021	0.500088
Br71	Br	1.750379	-0.502570	0.000088
Br72	Br	2.250379	-0.002570	0.500088
Br73	Br	1.172472	-0.080497	0.000114
Br74	Br	1.672472	0.419503	0.500114
H75	H	1.274584	-0.408682	0.000084
H76	H	1.774584	0.091318	0.500084
H77	H	1.638687	0.031295	0.369577
H78	H	2.138687	0.531295	0.869577
Br79	Br	1.684666	-0.014638	0.669652
Br80	Br	2.184666	0.485362	1.169652
H81	H	1.331508	0.338290	0.630618
H82	H	1.831508	0.838290	1.130618
Br83	Br	1.285497	0.384211	0.330514
Br84	Br	1.785497	0.884211	0.830514
H85	H	0.840893	0.388984	0.000095
H86	H	1.340893	0.888984	0.500095
Br87	Br	1.106550	0.458281	0.000035
Br88	Br	1.606550	0.958281	0.500035
