data_functionalizedCrystal
_audit_creation_method	'MofGen! by Chris Wilmer'
_symmetry_space_group_name_H-M	'P1'
_symmetry_Int_Tables_number	1
_symmetry_cell_setting	triclinic
loop_
_symmetry_equiv_pos_as_xyz
  x,y,z
_cell_length_a	16.109318
_cell_length_b	10.540539
_cell_length_c	14.586319
_cell_angle_alpha	89.998343
_cell_angle_beta	90.000075
_cell_angle_gamma	83.997027
loop_
_atom_site_label
_atom_site_type_symbol
_atom_site_fract_x
_atom_site_fract_y
_atom_site_fract_z
O1	O	1.104120	0.163264	-0.076160
O2	O	1.604120	0.663264	0.423840
O3	O	0.862184	0.183546	-0.076178
O4	O	1.362184	0.683546	0.423822
O5	O	0.988672	-0.011380	-0.076167
O6	O	1.488672	0.488620	0.423833
O7	O	0.977633	0.358189	-0.076170
O8	O	1.477633	0.858189	0.423830
O9	O	0.988663	-0.011383	0.076314
O10	O	1.488663	0.488617	0.576314
O11	O	0.862175	0.183543	0.076303
O12	O	1.362175	0.683543	0.576303
O13	O	1.104111	0.163261	0.076321
O14	O	1.604111	0.663261	0.576321
Cu15	Cu	0.983142	0.173401	0.090235
Cu16	Cu	1.483142	0.673401	0.590235
Cu17	Cu	0.983153	0.173405	-0.090091
Cu18	Cu	1.483153	0.673405	0.409909
O19	O	0.977624	0.358186	0.076311
O20	O	1.477624	0.858186	0.576311
C21	C	0.831200	0.182719	0.000060
C22	C	1.331200	0.682719	0.500060
C23	C	0.738890	0.180244	0.000053
C24	C	1.238890	0.680244	0.500053
C25	C	0.987839	-0.058673	0.000072
C26	C	1.487839	0.441327	0.500072
C27	C	0.985363	-0.199586	0.000066
C28	C	1.485363	0.300414	0.500066
C29	C	0.439773	0.172253	-0.083048
C30	C	0.939773	0.672253	0.416952
C31	C	0.526508	0.174570	-0.083053
C32	C	1.026508	0.674570	0.416947
C33	C	0.526517	0.174549	0.083190
C34	C	1.026517	0.674549	0.583190
C35	C	0.439784	0.172224	0.083194
C36	C	0.939784	0.672224	0.583194
C37	C	0.396413	0.171082	0.000073
C38	C	0.896413	0.671082	0.500073
C39	C	0.569882	0.175724	0.000063
C40	C	1.069882	0.675724	0.500063
C41	C	0.663924	0.178236	0.000057
C42	C	1.163924	0.678236	0.500057
C43	C	0.302365	0.168567	0.000078
C44	C	0.802365	0.668567	0.500078
C45	C	0.890454	-0.381669	-0.000283
C46	C	1.390454	0.118331	0.499717
C47	C	0.892964	-0.235086	0.000061
C48	C	1.392964	0.264914	0.500061
C49	C	1.029824	-0.261875	0.087144
C50	C	1.529824	0.238125	0.587144
C51	C	1.026670	-0.408375	0.087217
C52	C	1.526670	0.091625	0.587217
C53	C	1.028560	-0.408916	-0.086182
C54	C	1.528560	0.091084	0.413818
C55	C	1.029411	-0.261946	-0.087333
C56	C	1.529411	0.238054	0.412667
C57	C	1.135095	0.164088	0.000081
C58	C	1.635095	0.664088	0.500081
C59	C	1.227405	0.166562	0.000082
C60	C	1.727405	0.666562	0.500082
C61	C	0.978456	0.405479	0.000070
C62	C	1.478456	0.905479	0.500070
C63	C	0.980933	0.546392	0.000069
C64	C	1.480933	1.046392	0.500069
N65	N	0.983141	0.173398	0.217067
N66	N	1.483141	0.673398	0.717067
N67	N	0.983161	0.173398	-0.216923
N68	N	1.483161	0.673398	0.283077
C69	C	1.039169	0.087114	0.452078
C70	C	1.539169	0.587114	0.952078
C71	C	1.039171	0.087111	0.548059
C72	C	1.539171	0.587111	1.048059
C73	C	0.927127	0.259686	0.548059
C74	C	1.427127	0.759686	1.048059
C75	C	0.927122	0.259682	0.452080
C76	C	1.427122	0.759682	0.952080
C77	C	0.983147	0.173398	0.404091
C78	C	1.483147	0.673398	0.904091
C79	C	0.983155	0.173399	0.596052
C80	C	1.483155	0.673399	1.096052
C81	C	0.983157	0.173396	0.700119
C82	C	1.483157	0.673396	1.200119
C83	C	0.983144	0.173398	0.300018
C84	C	1.483144	0.673398	0.800018
H85	H	0.404463	0.171322	-0.150731
H86	H	0.904463	0.671322	0.349269
H87	H	0.996879	-0.220626	-0.151751
H88	H	1.496879	0.279374	0.348249
H89	H	1.084787	0.016854	0.413008
H90	H	1.584787	0.516854	0.913008
Cl91	Cl	0.982129	-0.195439	0.187186
Cl92	Cl	1.482129	0.304561	0.687186
Cl93	Cl	0.581014	0.176037	-0.187553
Cl94	Cl	1.081014	0.676037	0.312447
H95	H	0.561840	0.175481	0.150864
H96	H	1.061840	0.675481	0.650864
Cl97	Cl	1.109600	-0.021367	0.608382
Cl98	Cl	1.609600	0.478633	1.108382
Cl99	Cl	0.838949	-0.168537	-0.096311
Cl100	Cl	1.338949	0.331463	0.403689
H101	H	0.881514	0.329939	0.587141
H102	H	1.381514	0.829939	1.087141
H103	H	0.404480	0.171269	0.150885
H104	H	0.904480	0.671269	0.650885
Cl105	Cl	0.838558	-0.169839	0.096584
Cl106	Cl	1.338558	0.330161	0.596584
Cl107	Cl	0.856685	0.368155	0.391748
Cl108	Cl	1.356685	0.868155	0.891748
H109	H	0.998659	-0.440044	-0.152181
H110	H	1.498659	0.059956	0.347819
Cl111	Cl	1.134587	-0.228849	0.092156
Cl112	Cl	1.634587	0.271151	0.592156
H113	H	0.853958	-0.409751	-0.062728
H114	H	1.353958	0.090249	0.437272
Cl115	Cl	0.975923	-0.451201	0.187703
Cl116	Cl	1.475923	0.048799	0.687703
H117	H	0.854099	-0.411362	0.061807
H118	H	1.354099	0.088638	0.561807
Cl119	Cl	1.129262	-0.483893	0.093337
Cl120	Cl	1.629262	0.016107	0.593337
H121	H	1.096776	-0.238679	-0.092586
H122	H	1.596776	0.261321	0.407414
H123	H	1.095299	-0.457087	-0.086763
H124	H	1.595299	0.042913	0.413237
