data_functionalizedCrystal
_audit_creation_method	'MofGen! by Chris Wilmer'
_symmetry_space_group_name_H-M	'P1'
_symmetry_Int_Tables_number	1
_symmetry_cell_setting	triclinic
loop_
_symmetry_equiv_pos_as_xyz
  x,y,z
_cell_length_a	15.995350
_cell_length_b	11.792241
_cell_length_c	14.472310
_cell_angle_alpha	90.008847
_cell_angle_beta	90.001162
_cell_angle_gamma	96.157105
loop_
_atom_site_label
_atom_site_type_symbol
_atom_site_fract_x
_atom_site_fract_y
_atom_site_fract_z
O1	O	0.114757	-1.505966	-0.076746
O2	O	0.126585	-1.175527	-0.076767
O3	O	-0.001176	-1.349779	-0.076755
O4	O	0.242517	-1.331714	-0.076758
O5	O	-0.001169	-1.349734	0.076927
O6	O	0.126592	-1.175482	0.076915
O7	O	0.114764	-1.505922	0.076936
Cu8	Cu	0.120679	-1.340698	0.090958
Cu9	Cu	0.120670	-1.340751	-0.090789
O10	O	0.242525	-1.331669	0.076924
C11	C	0.125845	-1.133219	0.000071
C12	C	0.123622	-1.007224	0.000063
C13	C	-0.032370	-1.349010	0.000084
C14	C	-0.125331	-1.346771	0.000078
N15	N	0.120684	-1.340669	0.218788
C16	C	-0.463115	-1.338730	0.000081
C17	C	-0.416244	-1.214630	-0.000272
C18	C	-0.319544	-1.216870	0.000075
C19	C	-0.295536	-1.342718	0.000079
C20	C	-0.336332	-1.403903	0.087841
C21	C	-0.432982	-1.400786	0.087915
C22	C	-0.433336	-1.403400	-0.086850
C23	C	-0.336391	-1.403371	-0.088010
C24	C	-0.200829	-1.344979	0.000081
C25	C	-0.557823	-1.336473	0.000085
C26	C	0.273719	-1.332438	0.000082
C27	C	0.366680	-1.334677	0.000082
C28	C	0.115504	-1.548229	0.000095
C29	C	0.117727	-1.674224	0.000097
C30	C	0.119532	-0.776546	0.000089
C31	C	0.121804	-0.904912	0.000075
N32	N	0.120658	-1.340789	-0.218620
C33	C	0.120667	-1.340749	0.592880
C34	C	0.188797	-1.247197	0.553707
C35	C	0.189048	-1.247413	0.446619
C36	C	0.120676	-1.340708	0.407289
C37	C	0.140295	-1.459132	0.446133
C38	C	0.140780	-1.458606	0.553255
C39	C	0.032719	-1.316934	0.553408
C40	C	0.033292	-1.314218	0.446281
C41	C	0.120679	-1.340692	0.302400
C42	C	0.120665	-1.340773	0.697768
H43	H	-0.291343	-1.168773	-0.062837
H44	H	0.092015	-1.530410	0.420655
C45	C	0.227457	-1.486935	0.586999
N46	N	0.292747	-1.508264	0.612411
H47	H	0.013987	-1.232455	0.580470
C48	C	-0.441597	-1.147636	-0.085289
N49	N	-0.460700	-1.097173	-0.149325
H50	H	-0.436059	-1.165231	0.062308
H51	H	-0.308140	-1.361370	0.153148
C52	C	-0.299810	-1.342995	-0.175723
N53	N	-0.272259	-1.297509	-0.241788
C54	C	0.076352	-1.555500	0.588262
N55	N	0.027835	-1.628493	0.614625
H56	H	-0.451483	-1.356132	0.153515
C57	C	0.173165	-1.127892	0.588559
N58	N	0.161394	-1.038030	0.614822
C59	C	-0.461333	-1.348608	-0.176714
N60	N	-0.482419	-1.307326	-0.244395
C61	C	0.225989	-1.488156	0.409891
N62	N	0.290539	-1.510008	0.382599
C63	C	-0.315083	-1.527361	-0.095162
N64	N	-0.299036	-1.620757	-0.100540
H65	H	-0.291896	-1.168413	0.063088
C66	C	-0.475688	-1.527007	-0.087647
N67	N	-0.507592	-1.620103	-0.088242
H68	H	-0.464816	-1.491896	0.091900
H69	H	-0.321786	-1.496360	0.091108
H70	H	0.177279	-1.159387	0.420358
C71	C	0.277201	-1.267965	0.411985
N72	N	0.343601	-1.283452	0.385900
H73	H	0.018416	-1.227104	0.420893
H74	H	-0.019824	-1.377931	0.419511
H75	H	0.253682	-1.262195	0.580617
C76	C	-0.035784	-1.409093	0.587636
N77	N	-0.087375	-1.478510	0.613422
