data_functionalizedCrystal
_audit_creation_method	'MofGen! by Chris Wilmer'
_symmetry_space_group_name_H-M	'P1'
_symmetry_Int_Tables_number	1
_symmetry_cell_setting	triclinic
loop_
_symmetry_equiv_pos_as_xyz
  x,y,z
_cell_length_a	10.654546
_cell_length_b	23.532407
_cell_length_c	9.730223
_cell_angle_alpha	89.994043
_cell_angle_beta	89.998853
_cell_angle_gamma	83.666080
loop_
_atom_site_label
_atom_site_type_symbol
_atom_site_fract_x
_atom_site_fract_y
_atom_site_fract_z
O1	O	1.665303	0.079973	-0.114336
O2	O	1.299582	0.087595	-0.114333
O3	O	1.493471	0.000924	-0.114309
O4	O	1.471414	0.166644	-0.114360
O5	O	1.493469	0.000926	0.114271
O6	O	1.299580	0.087598	0.114247
O7	O	1.665300	0.079975	0.114244
Zn8	Zn	1.482440	0.083787	0.150537
Zn9	Zn	1.482443	0.083784	-0.150626
O10	O	1.471412	0.166646	0.114220
C11	C	1.252801	0.087037	-0.000043
C12	C	1.113410	0.085364	-0.000041
C13	C	1.047942	0.084571	-0.124646
C14	C	0.916971	0.082994	-0.124656
C15	C	0.916949	0.083001	0.124554
C16	C	1.047917	0.084582	0.124563
C17	C	1.113436	0.085353	-0.249250
C18	C	1.047967	0.084559	-0.373865
C19	C	0.916996	0.082983	-0.373875
C20	C	0.851494	0.082199	-0.249271
C21	C	1.492908	-0.020294	-0.000016
C22	C	1.491219	-0.083522	-0.000005
C23	C	1.595367	-0.481947	-0.000081
C24	C	1.593798	-0.541358	-0.000092
O25	O	1.690344	-0.577474	-0.000143
N26	N	1.478531	-0.564734	-0.000090
C27	C	1.364826	-0.528697	-0.000092
O28	O	1.266639	-0.554036	-0.000093
C29	C	1.366396	-0.469288	-0.000091
C30	C	1.481670	-0.445915	-0.000079
C31	C	1.710632	-0.458574	-0.000071
C32	C	1.712200	-0.399168	-0.000058
C33	C	1.598503	-0.363135	-0.000055
C34	C	1.483238	-0.386508	-0.000066
C35	C	1.252692	-0.433251	-0.000103
C36	C	1.254272	-0.373839	-0.000103
C37	C	1.369546	-0.350466	-0.000091
C38	C	1.371110	-0.291069	-0.000051
N39	N	1.486377	-0.267693	-0.000052
C40	C	1.600073	-0.303725	-0.000055
C41	C	1.361537	-0.653461	-0.000095
C42	C	1.359966	-0.712869	-0.000086
C43	C	1.588939	-0.725526	-0.000089
C44	C	1.590509	-0.666117	-0.000088
C45	C	1.476804	-0.630084	-0.000097
C46	C	1.603358	-0.178967	-0.000026
C47	C	1.604916	-0.119555	-0.000008
C48	C	1.375944	-0.106904	-0.000012
C49	C	1.374385	-0.166310	-0.000024
C50	C	1.488102	-0.202341	-0.000035
O51	O	1.274615	-0.254918	-0.000005
O52	O	1.698244	-0.278378	-0.000072
C53	C	1.712082	0.080533	-0.000049
C54	C	1.851472	0.082207	-0.000060
C55	C	1.471975	0.187865	-0.000076
C56	C	1.473663	0.251093	-0.000096
N57	N	1.482447	0.083788	0.356074
N58	N	1.482446	0.083778	-0.356163
C59	C	1.568322	0.045423	0.428010
C60	C	1.568319	0.045417	0.571893
C61	C	1.396561	0.122144	0.571890
C62	C	1.396559	0.122148	0.428010
C63	C	1.654210	0.007064	0.356074
C64	C	1.740093	-0.031304	0.428011
C65	C	1.740090	-0.031311	0.571894
C66	C	1.654204	0.007050	0.643840
H67	H	1.220079	0.086636	-0.249255
H68	H	1.684375	-0.647091	-0.000079
H69	H	0.744847	0.080922	-0.249290
Br70	Br	0.828054	0.081938	0.293649
H71	H	1.283375	-0.077555	-0.000006
H72	H	1.268939	-0.624126	-0.000091
H73	H	1.654200	0.007037	0.760999
Br74	Br	1.136774	0.085662	0.293673
Br75	Br	1.856633	-0.083369	0.330376
Br76	Br	1.856629	-0.083385	0.669522
H77	H	1.101306	0.085202	-0.475313
H78	H	1.698790	-0.100528	0.000006
Br79	Br	0.828146	0.081914	-0.542991
H80	H	1.326637	0.153377	0.630478
Br81	Br	1.280003	0.174213	0.330378
H82	H	1.695957	-0.208297	-0.000041
Br83	Br	1.654225	0.007075	0.160805
H84	H	1.806068	-0.380143	-0.000053
H85	H	1.681517	-0.754875	-0.000096
H86	H	1.266098	-0.731894	-0.000072
H87	H	1.158824	-0.452271	-0.000121
H88	H	1.803222	-0.487907	-0.000078
Br89	Br	1.099949	-0.324941	-0.000122
H90	H	1.280520	-0.185342	0.000004
