data_functionalizedCrystal
_audit_creation_method	'MofGen! by Chris Wilmer'
_symmetry_space_group_name_H-M	'P1'
_symmetry_Int_Tables_number	1
_symmetry_cell_setting	triclinic
loop_
_symmetry_equiv_pos_as_xyz
  x,y,z
_cell_length_a	6.817900
_cell_length_b	9.582860
_cell_length_c	14.125286
_cell_angle_alpha	94.009630
_cell_angle_beta	100.396688
_cell_angle_gamma	111.206767
loop_
_atom_site_label
_atom_site_type_symbol
_atom_site_fract_x
_atom_site_fract_y
_atom_site_fract_z
V1	V	-4.031080	-0.205901	-0.299815
V2	V	-3.697746	0.127433	0.033518
V3	V	-3.364413	0.460766	0.366852
O4	O	-3.977390	0.011084	-0.294289
O5	O	-3.644057	0.344417	0.039044
O6	O	-3.310723	0.677750	0.372377
O7	O	-4.022116	-0.409410	-0.297590
O8	O	-3.688782	-0.076077	0.035743
O9	O	-3.355449	0.257257	0.369077
O10	O	-3.966519	-0.202212	-0.430655
O11	O	-3.633186	0.131122	-0.097321
O12	O	-3.299852	0.464455	0.236012
O13	O	-4.033371	-0.197549	-0.160304
O14	O	-3.700038	0.135784	0.173030
O15	O	-3.366705	0.469117	0.506363
V16	V	-4.511692	-0.180009	-0.283150
V17	V	-4.178358	0.153325	0.050184
V18	V	-3.845025	0.486658	0.383517
O19	O	-4.298724	-0.262697	-0.336372
O20	O	-3.965390	0.070636	-0.003039
O21	O	-3.632057	0.403969	0.330294
O22	O	-4.694245	-0.123212	-0.246593
O23	O	-4.360912	0.210121	0.086741
O24	O	-4.027578	0.543455	0.420074
O25	O	-4.297449	0.023501	-0.285375
O26	O	-3.964116	0.356834	0.047959
O27	O	-3.630782	0.690168	0.381292
O28	O	-4.682778	-0.396993	-0.288675
O29	O	-4.349445	-0.063659	0.044658
O30	O	-4.016112	0.269674	0.377991
O31	O	-4.626797	-0.188360	-0.422661
O32	O	-4.293464	0.144973	-0.089328
O33	O	-3.960130	0.478307	0.244006
O34	O	-4.353046	-0.183697	-0.152310
O35	O	-4.019712	0.149636	0.181023
O36	O	-3.686379	0.482969	0.514356
C37	C	-3.877233	-0.459038	-0.292815
C38	C	-3.543900	-0.125704	0.040518
C39	C	-3.210566	0.207629	0.373851
C40	C	-3.951083	-0.625406	-0.291868
C41	C	-3.617750	-0.292073	0.041465
C42	C	-3.284416	0.041261	0.374798
C43	C	-3.806313	-0.194734	-0.462551
C44	C	-3.472980	0.138600	-0.129218
C45	C	-3.139646	0.471933	0.204116
C46	C	-3.835072	-0.193064	-0.569512
C47	C	-3.501739	0.140269	-0.236178
C48	C	-3.168405	0.473603	0.097155
C49	C	-4.074429	-0.196097	-0.817631
C50	C	-3.741095	0.137236	-0.484298
C51	C	-3.407762	0.470569	-0.150964
C52	C	-3.887723	-0.189810	-0.765322
C53	C	-3.554390	0.143524	-0.431989
C54	C	-3.221056	0.476857	-0.098655
C55	C	-3.858429	-0.191621	-0.656363
C56	C	-3.525095	0.141713	-0.323030
C57	C	-3.191762	0.475046	0.010304
C58	C	-4.103731	-0.194286	-0.926600
C59	C	-3.770398	0.139047	-0.593266
C60	C	-3.437064	0.472380	-0.259933
C61	C	-4.105676	0.073121	-0.290147
C62	C	-3.772342	0.406454	0.043187
C63	C	-3.439009	0.739787	0.376520
C64	C	-4.011063	0.239487	-0.291100
C65	C	-3.677730	0.572821	0.042233
C66	C	-3.344397	0.906154	0.375567
C67	C	-4.176596	-0.191180	-0.120409
C68	C	-3.843262	0.142153	0.212925
C69	C	-3.509929	0.475486	0.546258
C70	C	-4.127074	-0.192842	-0.013447
C71	C	-3.793740	0.140491	0.319886
C72	C	-3.460407	0.473824	0.653220
H73	H	-3.749878	-0.183063	-0.802369
H74	H	-3.416544	0.150270	-0.469036
H75	H	-3.083211	0.483604	-0.135702
H76	H	-4.212261	-0.202841	-0.780586
H77	H	-3.878928	0.130492	-0.447252
H78	H	-3.545595	0.463825	-0.113919
