data_functionalizedCrystal
_audit_creation_method	'MofGen! by Chris Wilmer'
_symmetry_space_group_name_H-M	'P1'
_symmetry_Int_Tables_number	1
_symmetry_cell_setting	triclinic
loop_
_symmetry_equiv_pos_as_xyz
  x,y,z
_cell_length_a	10.654537
_cell_length_b	22.610064
_cell_length_c	10.654545
_cell_angle_alpha	89.993535
_cell_angle_beta	95.516298
_cell_angle_gamma	89.992600
loop_
_atom_site_label
_atom_site_type_symbol
_atom_site_fract_x
_atom_site_fract_y
_atom_site_fract_z
O1	O	-1.667857	0.049169	0.176339
O2	O	-1.302377	0.049173	0.193154
O3	O	-1.493519	0.049170	0.002007
O4	O	-1.476715	0.049171	0.367486
O5	O	-1.493485	-0.049199	0.002035
O6	O	-1.302343	-0.049197	0.193182
O7	O	-1.667823	-0.049200	0.176367
Zn8	Zn	-1.485078	-0.064817	0.184779
Zn9	Zn	-1.485122	0.064789	0.184742
O10	O	-1.476681	-0.049198	0.367514
C11	C	-1.255562	-0.000011	0.191936
C12	C	-1.116118	-0.000010	0.188247
N13	N	-1.485056	-0.153269	0.184803
C14	C	-1.088148	-0.000002	0.416812
C15	C	-1.008654	0.000004	0.529357
C16	C	-0.877636	0.000004	0.525883
C17	C	-0.826110	-0.000004	0.409853
C18	C	-0.905604	-0.000010	0.297309
C19	C	-1.036624	-0.000008	0.300794
C20	C	-0.933574	-0.000022	0.068747
C21	C	-1.064592	-0.000018	0.072217
C22	C	-0.882048	-0.000030	-0.047284
C23	C	-0.961542	-0.000032	-0.159831
C24	C	-1.092568	-0.000031	-0.156353
C25	C	-1.144086	-0.000024	-0.040327
C26	C	-1.569764	-0.561911	0.100115
C27	C	-1.569770	-0.623831	0.100106
O28	O	-1.641738	-0.655851	0.028120
N29	N	-1.485121	-0.654806	0.184716
C30	C	-1.400451	-0.623858	0.269332
O31	O	-1.328450	-0.655890	0.341298
C32	C	-1.400440	-0.561939	0.269334
C33	C	-1.485103	-0.530967	0.184727
C34	C	-1.654420	-0.530940	0.015515
C35	C	-1.654414	-0.469024	0.015526
C36	C	-1.569754	-0.438080	0.100137
C37	C	-1.485098	-0.469052	0.184738
C38	C	-1.315765	-0.530992	0.353943
C39	C	-1.315760	-0.469069	0.353937
C40	C	-1.400424	-0.438097	0.269330
C41	C	-1.400432	-0.376192	0.269361
N42	N	-1.485082	-0.345217	0.184751
C43	C	-1.569742	-0.376161	0.100139
C44	C	-1.400480	-0.753891	0.269320
C45	C	-1.400497	-0.815809	0.269325
C46	C	-1.569814	-0.815778	0.100097
C47	C	-1.569803	-0.753860	0.100099
C48	C	-1.485129	-0.722917	0.184710
C49	C	-1.569726	-0.246134	0.100169
C50	C	-1.569717	-0.184213	0.100191
C51	C	-1.400395	-0.184249	0.269414
C52	C	-1.400408	-0.246165	0.269397
C53	C	-1.485078	-0.277106	0.184764
O54	O	-1.328498	-0.344133	0.341307
O55	O	-1.641720	-0.344122	0.028175
C56	C	-0.714637	-0.000016	0.177590
C57	C	-0.854080	-0.000016	0.181291
C58	C	-1.492268	-0.000013	-0.044777
C59	C	-1.488575	-0.000010	-0.184220
N60	N	-1.485153	0.153242	0.184708
C61	C	-1.488627	0.107236	-0.184259
C62	C	-1.486923	0.160858	-0.249788
C63	C	-1.483454	0.160859	-0.380807
C64	C	-1.481685	0.107231	-0.446299
C65	C	-1.483389	0.053609	-0.380769
C66	C	-1.486862	0.053614	-0.249748
C67	C	-1.483328	-0.053635	-0.380730
C68	C	-1.486807	-0.053637	-0.249712
C69	C	-1.481560	-0.107262	-0.446222
C70	C	-1.483273	-0.160886	-0.380693
C71	C	-1.486743	-0.160884	-0.249667
C72	C	-1.488511	-0.107259	-0.184183
C73	C	-1.477932	-0.000013	0.414298
C74	C	-1.481624	-0.000013	0.553741
H75	H	-1.194829	0.000011	0.419652
O76	O	-1.309053	-0.150869	0.360642
H77	H	-1.323260	-0.102611	0.346406
O78	O	-1.745719	-0.435627	-0.075749
H79	H	-1.807232	-0.407417	-0.022331
O80	O	-0.684798	-0.000011	0.406099
H81	H	-0.638178	-0.000006	0.503850
H82	H	-1.157286	-0.000038	-0.248001
O83	O	-1.481383	-0.218719	-0.451339
H84	H	-1.394356	-0.221280	-0.500587
O85	O	-0.740736	-0.000031	-0.051041
H86	H	-0.694113	-0.000020	0.046709
O87	O	-1.309107	-0.279577	0.360655
H88	H	-1.211068	-0.267700	0.343737
H89	H	-1.246824	-0.556200	0.422836
O90	O	-1.064236	0.000013	0.654496
H91	H	-1.032380	-0.040081	0.708643
H92	H	-1.488362	0.204520	-0.196450
O93	O	-1.224419	-0.435691	0.445179
H94	H	-1.277793	-0.407473	0.506715
H95	H	-1.491467	0.107240	-0.077578
O96	O	-1.481600	0.218691	-0.451496
H97	H	-1.483412	0.255982	-0.383951
H98	H	-0.812911	0.000005	0.617527
O99	O	-1.285399	-0.000028	-0.036580
H100	H	-1.307868	-0.000027	0.063007
O101	O	-1.745757	-0.564311	-0.075735
H102	H	-1.804621	-0.532362	-0.134543
H103	H	-0.919578	-0.000038	-0.254293
O104	O	-1.477936	0.107220	-0.587611
H105	H	-1.562456	0.084060	-0.632586
H106	H	-1.638665	-0.158998	0.031294
H107	H	-1.478728	-0.107258	-0.552903
O108	O	-1.661061	-0.279502	0.008906
H109	H	-1.719930	-0.247555	-0.049902
H110	H	-1.488112	-0.204550	-0.196318
H111	H	-1.638742	-0.728646	0.031205
H112	H	-1.491342	-0.107253	-0.077501
O113	O	-1.661132	-0.849156	0.008825
H114	H	-1.607736	-0.877362	-0.052713
O115	O	-1.309224	-0.849213	0.360620
H116	H	-1.250365	-0.817287	0.419458
H117	H	-1.331532	-0.728701	0.338230
