data_functionalizedCrystal
_audit_creation_method	'MofGen! by Chris Wilmer'
_symmetry_space_group_name_H-M	'P1'
_symmetry_Int_Tables_number	1
_symmetry_cell_setting	triclinic
loop_
_symmetry_equiv_pos_as_xyz
  x,y,z
_cell_length_a	15.298068
_cell_length_b	18.050590
_cell_length_c	18.050582
_cell_angle_alpha	89.975956
_cell_angle_beta	80.293237
_cell_angle_gamma	99.677990
loop_
_atom_site_label
_atom_site_type_symbol
_atom_site_fract_x
_atom_site_fract_y
_atom_site_fract_z
Zn1	Zn	1.379311	-0.099468	-0.616774
Zn2	Zn	1.379226	-0.223665	-0.492571
Zn3	Zn	1.228444	-0.120945	-0.471066
Zn4	Zn	1.228409	-0.245090	-0.595193
O5	O	1.303847	-0.172292	-0.543901
O6	O	1.505555	-0.097989	-0.618330
O7	O	1.359203	-0.210061	-0.385790
O8	O	1.248507	-0.014164	-0.490426
O9	O	1.505493	-0.189236	-0.527078
O10	O	1.359349	0.001615	-0.597478
O11	O	1.248425	-0.134593	-0.369991
O12	O	1.102184	-0.155367	-0.469500
O13	O	1.248447	-0.225751	-0.701984
O14	O	1.102158	-0.246576	-0.560696
O15	O	1.359314	-0.118763	-0.717839
O16	O	1.359169	-0.330439	-0.506152
O17	O	1.248364	-0.346179	-0.581548
C18	C	1.069434	-0.205628	-0.510423
C19	C	0.969151	-0.219907	-0.496118
C20	C	0.686603	-0.070424	-0.646139
C21	C	0.780824	-0.057011	-0.659583
C22	C	0.827910	-0.097733	-0.618718
C23	C	0.780766	-0.151872	-0.564407
C24	C	0.686536	-0.165291	-0.550965
C25	C	0.827844	-0.192600	-0.523544
C26	C	0.780700	-0.246739	-0.469233
C27	C	0.686479	-0.260156	-0.455794
C28	C	0.639392	-0.219433	-0.496659
C29	C	0.922074	-0.179181	-0.536986
C30	C	0.922007	-0.274048	-0.441812
C31	C	0.827786	-0.287462	-0.428368
C32	C	1.303778	-0.365254	-0.543862
C33	C	1.303831	-0.447792	-0.543881
C34	C	1.364212	-0.638638	-0.502968
C35	C	1.386245	-0.684842	-0.573893
C36	C	1.303882	-0.598915	-0.543918
C37	C	1.281940	-0.699781	-0.473037
C38	C	1.303933	-0.744893	-0.543948
C39	C	1.325958	-0.644025	-0.614885
C40	C	1.221615	-0.658966	-0.513978
C41	C	1.243617	-0.705151	-0.584945
C42	C	1.303855	-0.514821	-0.543900
C43	C	1.303960	-0.828986	-0.543974
C44	C	1.539176	-0.138827	-0.577510
C45	C	1.639459	-0.124566	-0.591833
C46	C	1.303886	-0.172251	-0.737612
C47	C	1.303903	-0.172234	-0.820161
C48	C	1.303942	0.021427	-0.543960
C49	C	1.303982	0.103978	-0.543986
C50	C	1.243670	-0.230325	-1.060372
C51	C	1.221618	-0.165725	-1.007838
C52	C	1.303979	-0.172114	-1.117292
C53	C	1.325951	-0.236775	-1.022733
C54	C	1.303940	-0.172177	-0.971301
C55	C	1.281885	-0.107484	-1.065839
C56	C	1.386257	-0.178574	-1.080744
C57	C	1.364236	-0.113923	-1.028236
C58	C	1.304000	-0.172079	-1.201393
C59	C	1.303919	-0.172204	-0.887202
C60	C	1.303860	-0.172272	-0.350951
C61	C	1.304019	-0.172055	-0.268428
H62	H	0.904629	-0.086806	-0.629665
C63	C	1.433148	-0.599542	-0.456248
H64	H	1.403055	-0.574900	-0.415633
H65	H	1.476535	-0.563650	-0.487192
H66	H	1.462375	-0.635962	-0.437086
H67	H	1.455839	-0.696597	-0.599233
H68	H	1.263361	-0.724164	-0.413081
H69	H	0.648257	-0.037278	-0.679410
C70	C	0.832680	0.002534	-0.719321
H71	H	0.895540	0.004687	-0.721480
H72	H	0.817247	0.050252	-0.706347
H73	H	0.817254	-0.010611	-0.767000
C74	C	1.351088	-0.310609	-0.997016
H75	H	1.308193	-0.351890	-1.007800
H76	H	1.351436	-0.309921	-0.944445
H77	H	1.409140	-0.315571	-1.022955
C78	C	1.433113	-0.047400	-1.008975
H79	H	1.477205	-0.065889	-0.986299
H80	H	1.403160	-0.015852	-0.975066
H81	H	1.461479	-0.019425	-1.053685
C82	C	1.174746	-0.296722	-1.079813
H83	H	1.116300	-0.292025	-1.054553
H84	H	1.189794	-0.342594	-1.064323
H85	H	1.175614	-0.296497	-1.132562
C86	C	0.775926	-0.347016	-0.368633
H87	H	0.817457	-0.369347	-0.346214
H88	H	0.739173	-0.384645	-0.391741
H89	H	0.739162	-0.323791	-0.331080
H90	H	1.455834	-0.184041	-1.112393
C91	C	1.127627	-0.643056	-0.479729
H92	H	1.104497	-0.617387	-0.516041
H93	H	1.131949	-0.612759	-0.437047
H94	H	1.088441	-0.689213	-0.464976
C95	C	0.973792	-0.318844	-0.396857
H96	H	1.036661	-0.303093	-0.412634
H97	H	0.958348	-0.370957	-0.405430
H98	H	0.958329	-0.310103	-0.344770
H99	H	0.960449	-0.135100	-0.581205
H100	H	0.562670	-0.230357	-0.485721
H101	H	1.344469	-0.619744	-0.674881
H102	H	1.152020	-0.160281	-0.976202
H103	H	0.648097	-0.304245	-0.411576
H104	H	1.192620	-0.733940	-0.619637
C105	C	1.256613	-0.033653	-1.091414
H106	H	1.256742	-0.034095	-1.144062
H107	H	1.299156	0.007676	-1.080203
H108	H	1.198326	-0.029005	-1.065761
