data_functionalizedCrystal
_audit_creation_method	'MofGen! by Chris Wilmer'
_symmetry_space_group_name_H-M	'P1'
_symmetry_Int_Tables_number	1
_symmetry_cell_setting	triclinic
loop_
_symmetry_equiv_pos_as_xyz
  x,y,z
_cell_length_a	12.811438
_cell_length_b	12.837942
_cell_length_c	10.065875
_cell_angle_alpha	99.723749
_cell_angle_beta	75.861253
_cell_angle_gamma	89.411773
loop_
_atom_site_label
_atom_site_type_symbol
_atom_site_fract_x
_atom_site_fract_y
_atom_site_fract_z
O1	O	1.442253	0.100641	-0.291987
O2	O	1.133529	0.120938	-0.253781
O3	O	1.281045	-0.040028	-0.272028
O4	O	1.294738	0.261607	-0.273740
O5	O	1.252928	-0.009213	-0.041562
O6	O	1.105412	0.151753	-0.023315
O7	O	1.414137	0.131456	-0.061520
Zn8	Zn	1.255310	0.146498	-0.005826
Zn9	Zn	1.292355	0.105897	-0.309475
O10	O	1.266621	0.292422	-0.043273
C11	C	1.079681	0.136153	-0.133624
C12	C	0.961118	0.135566	-0.118951
C13	C	1.262361	-0.063184	-0.156223
C14	C	1.248567	-0.178092	-0.154519
C15	C	0.778685	0.151536	0.027348
C16	C	0.890084	0.152089	0.013568
C17	C	0.920747	0.118492	-0.237700
C18	C	0.809348	0.117940	-0.223920
C19	C	0.738320	0.134460	-0.091392
C20	C	0.626920	0.133900	-0.077613
C21	C	0.657585	0.100311	-0.328880
C22	C	0.768984	0.100864	-0.342660
C23	C	1.414403	-0.421094	-0.175070
C24	C	1.401447	-0.529061	-0.173469
C25	C	1.209702	-0.501996	-0.149726
C26	C	1.222658	-0.394029	-0.151327
C27	C	1.325011	-0.353582	-0.163997
C28	C	1.337965	-0.245612	-0.165588
C29	C	1.146222	-0.218550	-0.141855
C30	C	1.133266	-0.326517	-0.140254
C31	C	1.467985	0.116241	-0.181680
C32	C	1.586549	0.116826	-0.196362
C33	C	1.285305	0.315578	-0.159081
C34	C	1.299100	0.430484	-0.160795
N35	N	1.230036	0.174206	0.201406
N36	N	1.317638	0.078180	-0.516708
C37	C	1.283554	0.115531	0.262565
C38	C	1.264111	0.136864	0.422137
H39	H	0.569090	0.147359	0.030298
H40	H	1.169818	0.240230	0.267181
C41	C	1.498381	-0.602453	-0.185260
C42	C	1.482075	-0.649401	-0.066483
C43	C	1.571345	-0.717027	-0.077308
H44	H	1.561258	-0.563019	-0.192975
H45	H	1.507110	-0.655930	-0.265457
H46	H	1.473359	-0.595931	0.013692
H47	H	1.419216	-0.688853	-0.058745
H48	H	1.580073	-0.770505	-0.157505
H49	H	1.634215	-0.677586	-0.085025
H50	H	1.560289	-0.748897	0.003273
C51	C	1.049089	-0.145402	-0.130035
C52	C	1.002540	-0.179361	-0.241032
C53	C	0.913053	-0.112011	-0.230173
H54	H	1.071318	-0.075278	-0.132851
H55	H	0.997720	-0.146820	-0.044560
H56	H	1.053898	-0.177932	-0.326485
H57	H	0.980287	-0.249475	-0.238238
H58	H	0.861684	-0.113430	-0.144698
H59	H	0.935292	-0.041891	-0.232986
H60	H	0.881452	-0.135049	-0.305473
H61	H	1.343764	0.049499	0.196793
C62	C	1.098597	-0.545909	-0.136269
C63	C	1.058386	-0.527354	-0.248089
C64	C	0.956047	-0.567807	-0.235755
H65	H	1.051395	-0.511965	-0.051365
H66	H	1.103659	-0.619894	-0.136981
H67	H	1.053318	-0.453383	-0.247364
H68	H	1.105558	-0.561299	-0.333009
H69	H	0.961109	-0.641792	-0.236467
H70	H	0.908855	-0.533859	-0.150847
H71	H	0.928756	-0.555232	-0.311628
C72	C	1.449028	-0.201599	-0.179062
C73	C	1.447625	-0.124579	-0.062091
C74	C	1.549924	-0.084027	-0.074452
H75	H	1.467969	-0.170704	-0.260469
H76	H	1.500435	-0.257238	-0.185361
H77	H	1.396235	-0.068950	-0.055806
H78	H	1.428704	-0.155449	0.019332
H79	H	1.601331	-0.139665	-0.080752
H80	H	1.568855	-0.053137	-0.155863
H81	H	1.548988	-0.031772	0.004915
C82	C	1.022054	-0.370262	-0.126274
C83	C	0.952901	-0.319970	-0.000946
C84	C	0.850439	-0.360226	0.011973
H85	H	1.026977	-0.444218	-0.126819
H86	H	0.994527	-0.357710	-0.201977
H87	H	0.980422	-0.332531	0.074737
H88	H	0.947946	-0.246016	-0.000373
H89	H	0.822911	-0.347673	-0.063730
H90	H	0.855372	-0.434181	0.011423
H91	H	0.803503	-0.326102	0.097001
C92	C	0.701736	0.169536	0.171349
C93	C	0.760930	0.184627	0.272391
C94	C	0.690082	0.201225	0.405062
H95	H	0.659607	0.109623	0.181892
H96	H	0.655662	0.230490	0.182270
H97	H	0.806985	0.123680	0.261475
H98	H	0.803055	0.244542	0.261894
H99	H	0.644008	0.262178	0.415982
H100	H	0.647957	0.141309	0.415590
H101	H	0.730234	0.211475	0.473635
C102	C	0.934064	0.170447	0.142367
C103	C	1.000082	0.082593	0.141419
C104	C	1.040625	0.099474	0.260041
H105	H	0.875915	0.180169	0.223366
H106	H	0.974953	0.231767	0.142464
H107	H	0.959194	0.021290	0.141335
H108	H	1.058247	0.072856	0.060447
H109	H	1.081514	0.160794	0.260138
H110	H	0.982469	0.109197	0.341031
H111	H	1.085430	0.039873	0.259407
H112	H	1.377851	0.012144	0.417523
C113	C	0.997747	0.100398	-0.381668
C114	C	0.982835	0.000981	-0.454505
C115	C	1.053735	-0.015712	-0.587141
H116	H	1.069916	0.103101	-0.373072
H117	H	0.983772	0.153806	-0.430844
H118	H	0.996818	-0.052413	-0.405341
H119	H	0.910681	-0.001746	-0.463140
H120	H	1.039760	0.037696	-0.636317
H121	H	1.125900	-0.013005	-0.578531
H122	H	1.043620	-0.083163	-0.636582
C123	C	0.845982	0.082754	-0.486630
C124	C	0.831056	-0.016668	-0.559444
C125	C	0.901953	-0.033383	-0.692083
H126	H	0.918152	0.085451	-0.478037
H127	H	0.832014	0.136156	-0.535819
H128	H	0.845032	-0.070055	-0.510267
H129	H	0.758900	-0.019389	-0.568075
H130	H	0.887985	0.020019	-0.741271
H131	H	0.974119	-0.030681	-0.683475
H132	H	0.891829	-0.100836	-0.741508
C133	C	0.613695	0.081991	-0.457762
C134	C	0.547715	0.169862	-0.456857
C135	C	0.507278	0.153026	-0.575565
H136	H	0.572798	0.020691	-0.457977
H137	H	0.671925	0.072283	-0.538693
H138	H	0.489494	0.179559	-0.375947
H139	H	0.588588	0.231174	-0.456662
H140	H	0.565508	0.143317	-0.656497
H141	H	0.466386	0.091723	-0.575771
H142	H	0.462515	0.212646	-0.574974
C143	C	1.525620	-0.377383	-0.188906
C144	C	1.601139	-0.459622	-0.198289
C145	C	1.703607	-0.419400	-0.211058
H146	H	1.525010	-0.325103	-0.109698
H147	H	1.544520	-0.346607	-0.270434
H148	H	1.582245	-0.490381	-0.116770
H149	H	1.601784	-0.511908	-0.277495
H150	H	1.722507	-0.388624	-0.292586
H151	H	1.702986	-0.367120	-0.131848
H152	H	1.754861	-0.475194	-0.217439
C153	C	1.183730	0.224924	0.509587
C154	C	1.138103	0.274904	0.422241
C155	C	1.064042	0.356018	0.502752
H156	H	1.219613	0.275078	0.560886
H157	H	1.128542	0.195881	0.572140
H158	H	1.193282	0.303948	0.359712
H159	H	1.102200	0.224779	0.370941
H160	H	1.008854	0.326975	0.565305
H161	H	1.099934	0.406164	0.554047
H162	H	1.033068	0.389933	0.443501
