data_functionalizedCrystal
_audit_creation_method	'MofGen! by Chris Wilmer'
_symmetry_space_group_name_H-M	'P1'
_symmetry_Int_Tables_number	1
_symmetry_cell_setting	triclinic
loop_
_symmetry_equiv_pos_as_xyz
  x,y,z
_cell_length_a	28.938199
_cell_length_b	28.937346
_cell_length_c	28.934044
_cell_angle_alpha	60.005004
_cell_angle_beta	60.009897
_cell_angle_gamma	59.994060
loop_
_atom_site_label
_atom_site_type_symbol
_atom_site_fract_x
_atom_site_fract_y
_atom_site_fract_z
O1	O	0.064043	-0.675186	0.564597
O2	O	0.024124	-0.525682	0.454913
O3	O	0.118795	-0.620275	0.454833
O4	O	-0.030629	-0.580593	0.564678
O5	O	0.150204	-0.588870	0.486157
O6	O	0.055533	-0.494276	0.486238
O7	O	0.095452	-0.643780	0.595921
Cu8	Cu	0.078360	-0.566161	0.543940
Cu9	Cu	0.041215	-0.603301	0.506895
O10	O	0.000780	-0.549187	0.596002
N11	N	0.104487	-0.540042	0.569998
N12	N	0.015094	-0.629425	0.480837
C13	C	0.165467	-0.323909	0.630915
C14	C	0.165587	-0.479117	0.786068
C15	C	0.165481	-0.479095	0.630906
C16	C	0.320696	-0.479083	0.630835
C17	C	0.182557	-0.375118	0.647971
C18	C	0.182626	-0.462038	0.734858
C19	C	0.269485	-0.462018	0.647928
C20	C	0.182566	-0.462025	0.647966
C21	C	0.143714	-0.258726	0.609206
C22	C	0.143738	-0.500820	0.609192
C23	C	0.204309	-0.440300	0.669680
C24	C	0.415481	-0.462740	0.580919
C25	C	0.474732	-0.482485	0.561145
C26	C	0.474757	-0.578356	0.597704
C27	C	0.415508	-0.558609	0.617479
C28	C	0.157989	-0.229089	0.550957
C29	C	0.138212	-0.169834	0.531225
C30	C	0.089890	-0.169857	0.627992
C31	C	0.109667	-0.229112	0.647725
C32	C	0.085482	-0.486515	0.623535
C33	C	0.065722	-0.506265	0.603789
C34	C	0.162467	-0.554625	0.555370
C35	C	0.182230	-0.534875	0.575110
C36	C	0.085661	-0.486557	0.880902
C37	C	0.065952	-0.506323	0.940155
C38	C	0.162734	-0.554693	0.940102
C39	C	0.182441	-0.534928	0.880847
C40	C	0.143904	-0.500859	0.851249
C41	C	0.385871	-0.500801	0.609083
C42	C	-0.110907	-0.668480	0.441278
C43	C	-0.024049	-0.668588	0.441475
C44	C	-0.045729	-0.690282	0.419668
C45	C	-0.062146	-0.785032	0.469507
C46	C	-0.042446	-0.844287	0.489286
C47	C	0.053426	-0.844399	0.452899
C48	C	0.033725	-0.785144	0.433120
C49	C	-0.140617	-0.682751	0.499509
C50	C	-0.199867	-0.662928	0.519152
C51	C	-0.199694	-0.614571	0.422330
C52	C	-0.140443	-0.634393	0.402687
C53	C	-0.038320	-0.610337	0.427144
C54	C	-0.018610	-0.590621	0.446974
C55	C	0.029642	-0.687402	0.495454
C56	C	0.009933	-0.707121	0.475630
C57	C	-0.038148	-0.610347	0.324832
C58	C	-0.018301	-0.590634	0.265579
C59	C	0.030035	-0.687421	0.265643
C60	C	0.010190	-0.707133	0.324897
C61	C	-0.023903	-0.668595	0.354491
C62	C	-0.024062	-0.755463	0.441426
N63	N	0.503527	-0.540005	0.569810
O64	O	0.684453	-0.545211	0.434650
O65	O	0.684643	-0.655237	0.584005
O66	O	0.684567	-0.654986	0.489282
O67	O	0.684529	-0.545462	0.529373
O68	O	0.590438	-0.623674	0.520735
O69	O	0.590513	-0.623924	0.615457
O70	O	0.590323	-0.513899	0.466102
Cu71	Cu	0.581823	-0.566053	0.543652
Cu72	Cu	0.693143	-0.603083	0.506456
O73	O	0.590399	-0.514149	0.560825
N74	N	0.771439	-0.629131	0.480292
N75	N	0.104456	-0.141061	0.570015
O76	O	-0.030629	0.039964	0.564688
O77	O	0.118732	0.039984	0.454661
O78	O	0.023980	0.039958	0.454946
O79	O	0.064123	0.039990	0.564403
O80	O	0.055392	-0.054179	0.486321
O81	O	0.150144	-0.054153	0.486036
O82	O	0.000784	-0.054173	0.596063
Cu83	Cu	0.078332	-0.062759	0.543914
Cu84	Cu	0.041183	0.048570	0.506810
O85	O	0.095535	-0.054147	0.595778
N86	N	0.015053	0.126872	0.480710
N87	N	0.104760	-0.540096	0.968910
O88	O	0.099447	-0.675167	1.149923
O89	O	-0.010552	-0.525757	1.149951
O90	O	-0.010297	-0.620493	1.149918
O91	O	0.099192	-0.580431	1.149956
O92	O	0.021064	-0.589100	1.055785
O93	O	0.020809	-0.494365	1.055818
O94	O	0.130808	-0.643774	1.055790
Cu95	Cu	0.078672	-0.566203	1.047209
Cu96	Cu	0.041584	-0.603328	1.158532
O97	O	0.130553	-0.549038	1.055823
N98	N	0.015495	-0.629442	1.236831
C99	C	0.036087	-0.491140	0.455465
C100	C	0.153325	-0.608283	0.455364
C101	C	0.083488	-0.678322	0.595370
C102	C	-0.033750	-0.561180	0.595470
C103	C	0.637601	-0.654732	0.618548
C104	C	0.637509	-0.654422	0.501245
C105	C	0.637362	-0.514403	0.431560
C106	C	0.637458	-0.514713	0.548862
C107	C	0.153215	-0.006966	0.455158
C108	C	0.035916	-0.007114	0.455550
C109	C	-0.033739	-0.007106	0.595527
C110	C	0.083600	-0.007076	0.595174
C111	C	-0.010020	-0.491238	1.102888
C112	C	-0.009698	-0.608550	1.102828
C113	C	0.130276	-0.678293	1.102853
C114	C	0.129961	-0.560974	1.102892
H115	H	0.018524	-0.494668	0.964293
H116	H	-0.076633	-0.007113	0.630069
O117	O	0.637764	-0.695957	0.669696
C118	C	0.686525	-0.709060	0.679826
H119	H	0.720561	-0.696505	0.637802
H120	H	0.675507	-0.684816	0.707185
C121	C	0.666889	-0.788505	0.762317
C122	C	0.708696	-0.773088	0.710702
H123	H	0.680564	-0.828000	0.781365
H124	H	0.634037	-0.779676	0.755494
H125	H	0.657711	-0.768297	0.785109
H126	H	0.717868	-0.793291	0.687908
H127	H	0.741550	-0.781922	0.717522
O128	O	-0.084971	-0.550992	0.636570
C129	C	-0.120150	-0.495382	0.616107
H130	H	-0.092896	-0.468503	0.579754
H131	H	-0.148737	-0.496244	0.600393
C132	C	-0.190247	-0.502793	0.708734
C133	C	-0.156774	-0.469779	0.664088
H134	H	-0.212841	-0.487000	0.738332
H135	H	-0.166548	-0.540260	0.722521
H136	H	-0.214065	-0.503509	0.695632
H137	H	-0.132952	-0.469069	0.677189
H138	H	-0.180470	-0.432311	0.650305
O139	O	0.637500	-0.695401	0.490929
C140	C	0.637457	-0.674786	0.435299
H141	H	0.619594	-0.626574	0.420426
H142	H	0.682604	-0.689072	0.405988
C143	C	0.622492	-0.757309	0.452484
C144	C	0.600548	-0.698094	0.434218
H145	H	0.599727	-0.771688	0.451816
H146	H	0.622523	-0.771199	0.489963
H147	H	0.660114	-0.769207	0.428056
H148	H	0.562930	-0.686197	0.458650
H149	H	0.600510	-0.684203	0.396743
H150	H	0.637300	-0.479859	0.388668
H151	H	0.196241	-0.616742	0.420869
H152	H	0.092195	-0.007066	0.629560
H153	H	0.637450	-0.480310	0.557440
H154	H	0.196022	-0.006699	0.420530
O155	O	0.025816	-0.439885	0.414418
C156	C	-0.029802	-0.404773	0.434960
H157	H	-0.056622	-0.432086	0.471310
H158	H	-0.028948	-0.376202	0.450699
C159	C	-0.022542	-0.334571	0.342387
C160	C	-0.055483	-0.368118	0.387030
H161	H	-0.038383	-0.311959	0.312822
H162	H	0.014930	-0.358225	0.328548
H163	H	-0.021833	-0.310767	0.355511
H164	H	-0.056186	-0.391926	0.373908
H165	H	-0.092956	-0.344467	0.400866
H166	H	-0.073458	-0.868361	0.512142
O167	O	0.171015	-0.550691	1.102797
C168	C	0.183991	-0.504846	1.054060
H169	H	0.171552	-0.500385	1.019981
H170	H	0.159569	-0.464263	1.065093
C171	C	0.263235	-0.521094	1.073808
C172	C	0.247962	-0.515618	1.031950
H173	H	0.302695	-0.527737	1.060171
H174	H	0.254492	-0.551980	1.106644
H175	H	0.242879	-0.487273	1.082998
H176	H	0.268312	-0.549441	1.022766
H177	H	0.256709	-0.484738	0.999112
O178	O	0.025586	-0.007165	0.414600
C179	C	-0.030051	-0.007170	0.435229
H180	H	-0.044926	-0.024974	0.483440
H181	H	-0.059348	0.037984	0.420906
C182	C	-0.012886	-0.022254	0.352771
C183	C	-0.031154	-0.044126	0.411985
H184	H	-0.013568	-0.045048	0.338431
H185	H	0.024597	-0.022249	0.338872
H186	H	-0.037303	0.015374	0.340842
H187	H	-0.006733	-0.081750	0.423912
H188	H	-0.068634	-0.044138	0.425886
O189	O	-0.051168	-0.440024	1.102922
C190	C	-0.030791	-0.404800	1.102924
H191	H	0.005545	-0.432020	1.120746
H192	H	-0.015082	-0.376214	1.057768
C193	C	-0.123464	-0.334737	1.117958
C194	C	-0.078839	-0.368169	1.139853
H195	H	-0.153102	-0.312139	1.140735
H196	H	-0.137192	-0.358467	1.117955
H197	H	-0.110366	-0.310920	1.080329
H198	H	-0.091935	-0.391990	1.177479
H199	H	-0.065114	-0.344442	1.139863
O200	O	-0.050647	-0.618839	1.102741
C201	C	-0.030030	-0.674478	1.102725
H202	H	0.018180	-0.689385	1.084935
H203	H	-0.044362	-0.703765	1.147872
C204	C	-0.112484	-0.657246	1.087601
C205	C	-0.053272	-0.675553	1.065747
H206	H	-0.126823	-0.657910	1.064793
H207	H	-0.126376	-0.619761	1.087614
H208	H	-0.124421	-0.681654	1.125223
H209	H	-0.041337	-0.651140	1.028128
H210	H	-0.039379	-0.713034	1.065726
H211	H	0.054136	-0.458786	0.651283
O212	O	0.171460	-0.729480	1.102766
C213	C	0.184612	-0.739625	1.053995
H214	H	0.147198	-0.713211	1.037740
H215	H	0.223413	-0.727438	1.019863
C216	C	0.243057	-0.835291	1.088748
C217	C	0.197102	-0.802853	1.068786
H218	H	0.250764	-0.874293	1.097870
H219	H	0.234198	-0.828455	1.121605
H220	H	0.275386	-0.825128	1.060301
H221	H	0.164773	-0.813010	1.097235
H222	H	0.205956	-0.809691	1.035934
O223	O	0.048201	-0.453543	0.852179
C224	C	0.013938	-0.483460	0.866684
H225	H	0.036836	-0.530867	0.882953
H226	H	-0.027673	-0.470853	0.901097
C227	C	-0.026333	-0.410904	0.794084
C228	C	0.001792	-0.469130	0.814062
H229	H	-0.033828	-0.402063	0.761626
H230	H	-0.003251	-0.390747	0.784313
H231	H	-0.061006	-0.400405	0.822767
H232	H	0.036468	-0.479626	0.785382
H233	H	-0.021284	-0.489289	0.823827
O234	O	0.200188	-0.587864	0.968831
C235	C	0.234455	-0.637547	0.954321
H236	H	0.211564	-0.645782	0.938040
H237	H	0.276069	-0.632156	0.919915
C238	C	0.274710	-0.677862	1.026936
C239	C	0.246592	-0.687979	1.006944
H240	H	0.282199	-0.708971	1.059395
H241	H	0.251625	-0.644389	1.036711
H242	H	0.309385	-0.673369	0.998260
H243	H	0.211915	-0.692465	1.035617
H244	H	0.269671	-0.721454	0.997176
O245	O	0.239003	-0.548790	0.851955
C246	C	0.248138	-0.524030	0.793310
H247	H	0.209245	-0.515099	0.785239
H248	H	0.256021	-0.482694	0.776497
C249	C	0.347776	-0.575860	0.772779
C250	C	0.300008	-0.564894	0.762865
H251	H	0.379773	-0.601064	0.753998
H252	H	0.341622	-0.592539	0.812289
H253	H	0.354337	-0.541409	0.758768
H254	H	0.293443	-0.599343	0.776883
H255	H	0.306162	-0.548221	0.723357
O256	O	0.199888	-0.587624	0.522184
C257	C	0.234124	-0.557696	0.472492
H258	H	0.211228	-0.510291	0.464270
H259	H	0.275762	-0.570308	0.477858
C260	C	0.274324	-0.630227	0.432169
C261	C	0.246201	-0.572003	0.422067
H262	H	0.281776	-0.639053	0.401064
H263	H	0.251261	-0.650391	0.465647
H264	H	0.309019	-0.640729	0.436642
H265	H	0.211504	-0.561503	0.417602
H266	H	0.269259	-0.551837	0.388586
O267	O	0.238814	-0.548668	0.561115
C268	C	0.253100	-0.498872	0.531304
H269	H	0.219672	-0.463278	0.511276
H270	H	0.255083	-0.486407	0.561771
C271	C	0.352242	-0.553115	0.509236
C272	C	0.311186	-0.509399	0.484634
H273	H	0.388073	-0.559608	0.480450
H274	H	0.342617	-0.586664	0.529322
H275	H	0.353887	-0.542722	0.534625
H276	H	0.309537	-0.519795	0.459252
H277	H	0.320812	-0.475852	0.464543
H278	H	0.018285	-0.494604	0.615454
H279	H	0.092017	-0.721269	0.629819
O280	O	0.386834	-0.595658	0.644805
C281	C	0.425703	-0.650915	0.647982
H282	H	0.467923	-0.648653	0.612973
H283	H	0.432036	-0.673535	0.690913
C284	C	0.350717	-0.686550	0.683747
C285	C	0.402572	-0.683773	0.640746
H286	H	0.336449	-0.706821	0.679287
H287	H	0.324530	-0.649323	0.681610
H288	H	0.356002	-0.705399	0.719520
H289	H	0.397286	-0.664918	0.604975
H290	H	0.428758	-0.720998	0.642877
H291	H	0.498841	-0.451490	0.538213
O292	O	0.503608	-0.634506	0.605888
C293	C	0.537900	-0.655041	0.638105
H294	H	0.546772	-0.618461	0.633460
H295	H	0.515092	-0.675458	0.684541
C296	C	0.583284	-0.744234	0.622551
C297	C	0.594185	-0.699306	0.616841
H298	H	0.618003	-0.771540	0.609436
H299	H	0.560180	-0.730400	0.600847
H300	H	0.564276	-0.761241	0.661248
H301	H	0.613186	-0.682295	0.578144
H302	H	0.617294	-0.713137	0.638538
O303	O	0.386779	-0.406569	0.572740
C304	C	0.425623	-0.377210	0.543629
H305	H	0.467871	-0.407621	0.550449
H306	H	0.431897	-0.358792	0.496490
C307	C	0.350618	-0.291588	0.557916
C308	C	0.402506	-0.328938	0.566297
H309	H	0.336358	-0.261810	0.571896
H310	H	0.324447	-0.311366	0.577527
H311	H	0.355854	-0.276246	0.518633
H312	H	0.397269	-0.344285	0.605580
H313	H	0.428676	-0.309161	0.546693
H314	H	0.185713	-0.253197	0.519589
H315	H	0.149834	-0.145702	0.483792
H316	H	0.098041	-0.253238	0.695156
O317	O	0.056888	-0.141151	0.665465
C318	C	0.086848	-0.155621	0.699685
H319	H	0.121350	-0.198637	0.700244
H320	H	0.106944	-0.122264	0.681855
C321	C	0.003444	-0.105546	0.759712
C322	C	0.045817	-0.158382	0.760402
H323	H	-0.021865	-0.107246	0.797164
H324	H	-0.016740	-0.095795	0.736656
H325	H	0.020198	-0.077754	0.744850
H326	H	0.029064	-0.186171	0.775256
H327	H	0.065998	-0.168137	0.783462
O328	O	-0.071231	-0.572831	0.353491
C329	C	-0.079557	-0.517192	0.314608
H330	H	-0.043790	-0.517347	0.272410
H331	H	-0.121737	-0.500164	0.308222
C332	C	-0.123922	-0.479015	0.389593
C333	C	-0.079989	-0.479206	0.337766
H334	H	-0.124191	-0.455582	0.403878
H335	H	-0.118314	-0.516500	0.415790
H336	H	-0.159067	-0.464827	0.384264
H337	H	-0.044844	-0.493400	0.343096
H338	H	-0.085591	-0.441722	0.311570
H339	H	-0.029909	-0.543201	0.241439
H340	H	0.057785	-0.718806	0.241554
O341	O	0.024060	-0.763737	0.353618
C342	C	0.058414	-0.793522	0.314790
H343	H	0.050932	-0.765263	0.272511
H344	H	0.104809	-0.806352	0.308583
C345	C	0.052563	-0.881605	0.389803
C346	C	0.043370	-0.846899	0.337876
H347	H	0.043286	-0.914531	0.404044
H348	H	0.029420	-0.861539	0.415963
H349	H	0.091226	-0.892291	0.384623
H350	H	0.004707	-0.836207	0.343058
H351	H	0.066507	-0.866964	0.311718
H352	H	-0.065985	-0.578958	0.399332
H353	H	-0.030233	-0.543188	0.435308
H354	H	0.021552	-0.754553	0.487300
O355	O	0.062711	-0.724889	0.528562
C356	C	0.112430	-0.759186	0.498704
H357	H	0.104544	-0.759757	0.464161
H358	H	0.148085	-0.741417	0.478668
C359	C	0.138914	-0.819183	0.582241
C360	C	0.129227	-0.819888	0.539818
H361	H	0.149278	-0.856626	0.607602
H362	H	0.105419	-0.796075	0.602357
H363	H	0.168625	-0.804372	0.565538
H364	H	0.099512	-0.834691	0.556521
H365	H	0.162718	-0.842999	0.519706
O366	O	0.070786	-0.756482	0.405784
C367	C	0.111057	-0.770996	0.356962
H368	H	0.113833	-0.814006	0.362301
H369	H	0.097738	-0.737646	0.318534
C370	C	0.165880	-0.720973	0.341772
C371	C	0.169293	-0.773802	0.348331
H372	H	0.201802	-0.722702	0.336447
H373	H	0.138748	-0.711193	0.374664
H374	H	0.154779	-0.693187	0.309750
H375	H	0.180387	-0.801585	0.380358
H376	H	0.196428	-0.783587	0.315445
H377	H	0.100481	-0.868567	0.446139
H378	H	-0.116569	-0.710512	0.530934
O379	O	-0.118268	-0.756219	0.477484
C380	C	-0.136301	-0.770689	0.450805
H381	H	-0.098422	-0.787030	0.415849
H382	H	-0.156192	-0.805038	0.483255
C383	C	-0.226822	-0.697948	0.467982
C384	C	-0.180299	-0.718015	0.425045
H385	H	-0.253964	-0.665457	0.452094
H386	H	-0.214674	-0.688201	0.485958
H387	H	-0.243390	-0.726577	0.495020
H388	H	-0.163727	-0.689388	0.398012
H389	H	-0.192446	-0.727756	0.407064
O390	O	-0.228330	-0.581528	0.384792
C391	C	-0.213827	-0.611465	0.350537
H392	H	-0.170834	-0.645997	0.350030
H393	H	-0.247194	-0.631525	0.368299
C394	C	-0.263789	-0.528007	0.290433
C395	C	-0.210983	-0.570417	0.289806
H396	H	-0.262038	-0.502687	0.252972
H397	H	-0.273562	-0.507838	0.313512
H398	H	-0.291590	-0.544731	0.305237
H399	H	-0.183185	-0.553694	0.275009
H400	H	-0.201205	-0.590582	0.266723
H401	H	-0.116252	-0.622767	0.355267
H402	H	-0.224058	-0.674545	0.566571
