data_functionalizedCrystal
_audit_creation_method	'MofGen! by Chris Wilmer'
_symmetry_space_group_name_H-M	'P1'
_symmetry_Int_Tables_number	1
_symmetry_cell_setting	triclinic
loop_
_symmetry_equiv_pos_as_xyz
  x,y,z
_cell_length_a	19.288874
_cell_length_b	12.837939
_cell_length_c	18.366186
_cell_angle_alpha	90.008087
_cell_angle_beta	89.993232
_cell_angle_gamma	91.015568
loop_
_atom_site_label
_atom_site_type_symbol
_atom_site_fract_x
_atom_site_fract_y
_atom_site_fract_z
O1	O	0.180511	-1.374627	-0.060545
O2	O	0.513844	-1.041294	0.272789
O3	O	0.847177	-0.707961	0.606122
O4	O	0.171594	-1.072863	-0.060547
O5	O	0.504928	-0.739530	0.272786
O6	O	0.838261	-0.406196	0.606119
O7	O	0.075518	-1.232460	-0.060540
O8	O	0.408851	-0.899126	0.272793
O9	O	0.742184	-0.565793	0.606126
O10	O	0.276587	-1.215031	-0.060552
O11	O	0.609921	-0.881698	0.272782
O12	O	0.943254	-0.548364	0.606115
O13	O	0.075511	-1.232432	0.060559
O14	O	0.408844	-0.899099	0.393893
O15	O	0.742177	-0.565766	0.727226
O16	O	0.171587	-1.072836	0.060552
O17	O	0.504921	-0.739503	0.393885
O18	O	0.838254	-0.406169	0.727219
O19	O	0.180504	-1.374600	0.060555
O20	O	0.513837	-1.041267	0.393888
O21	O	0.847170	-0.707934	0.727221
Zn22	Zn	0.176044	-1.223714	0.079781
Zn23	Zn	0.509378	-0.890381	0.413114
Zn24	Zn	0.842711	-0.557047	0.746447
Zn25	Zn	0.176054	-1.223750	-0.079773
Zn26	Zn	0.509387	-0.890416	0.253560
Zn27	Zn	0.842720	-0.557083	0.586894
O28	O	0.276580	-1.215004	0.060548
O29	O	0.609914	-0.881671	0.393881
O30	O	0.943247	-0.548337	0.727214
C31	C	0.168579	-1.034243	0.000002
C32	C	0.501912	-0.700909	0.333335
C33	C	0.835245	-0.367576	0.666669
C34	C	0.159595	-0.919207	0.000001
C35	C	0.492928	-0.585874	0.333334
C36	C	0.826261	-0.252540	0.666668
C37	C	0.267600	-0.677750	0.000006
C38	C	0.600934	-0.344417	0.333340
C39	C	0.934267	-0.011083	0.666673
C40	C	0.259162	-0.569663	0.000006
C41	C	0.592496	-0.236330	0.333339
C42	C	0.925829	0.097004	0.666673
C43	C	0.134281	-0.594944	0.000005
C44	C	0.467615	-0.261611	0.333339
C45	C	0.800948	0.071722	0.666672
C46	C	0.142719	-0.703031	0.000006
C47	C	0.476053	-0.369698	0.333339
C48	C	0.809386	-0.036365	0.666672
C49	C	0.209381	-0.744430	0.000005
C50	C	0.542714	-0.411096	0.333338
C51	C	0.876048	-0.077763	0.666672
C52	C	0.217818	-0.852519	0.000000
C53	C	0.551152	-0.519185	0.333333
C54	C	0.884485	-0.185852	0.666667
C55	C	0.092938	-0.877798	0.000005
C56	C	0.426271	-0.544465	0.333338
C57	C	0.759605	-0.211131	0.666671
C58	C	0.084500	-0.769711	0.000004
C59	C	0.417833	-0.436378	0.333338
C60	C	0.751167	-0.103044	0.666671
C61	C	0.049599	-1.231884	0.000009
C62	C	0.382933	-0.898550	0.333343
C63	C	0.716266	-0.565217	0.666676
C64	C	-0.027619	-1.230195	0.000009
C65	C	0.305714	-0.896862	0.333342
C66	C	0.639048	-0.563528	0.666676
C67	C	-0.584020	-1.218057	0.066002
C68	C	-0.250687	-0.884724	0.399336
C69	C	0.082647	-0.551390	0.732669
C70	C	-0.511465	-1.219632	0.066006
C71	C	-0.178131	-0.886299	0.399340
C72	C	0.155202	-0.552966	0.732673
C73	C	-0.475176	-1.220440	-0.000004
C74	C	-0.141842	-0.887106	0.333329
C75	C	0.191491	-0.553773	0.666663
C76	C	-0.511447	-1.219645	-0.066023
C77	C	-0.178114	-0.886311	0.267310
C78	C	0.155220	-0.552978	0.600643
C79	C	-0.584001	-1.218059	-0.066025
C80	C	-0.250667	-0.884726	0.267308
C81	C	0.082666	-0.551392	0.600641
C82	C	-0.361525	-1.283658	-0.050574
C83	C	-0.028192	-0.950325	0.282759
C84	C	0.305141	-0.616992	0.616092
C85	C	-0.288973	-1.285250	-0.050570
C86	C	0.044360	-0.951917	0.282764
C87	C	0.377694	-0.618584	0.616097
C88	C	-0.251396	-1.225326	-0.000000
C89	C	0.081938	-0.891992	0.333333
C90	C	0.415271	-0.558659	0.666666
C91	C	-0.286380	-1.163822	0.050576
C92	C	0.046954	-0.830489	0.383910
C93	C	0.380287	-0.497155	0.717243
C94	C	-0.358934	-1.162236	0.050574
C95	C	-0.025600	-0.828903	0.383908
C96	C	0.307733	-0.495570	0.717241
C97	C	-0.396503	-1.222158	-0.000009
C98	C	-0.063170	-0.888825	0.333324
C99	C	0.270163	-0.555492	0.666658
C100	C	-0.136460	-1.227821	0.066019
C101	C	0.196873	-0.894487	0.399352
C102	C	0.530207	-0.561154	0.732686
C103	C	-0.063903	-1.229390	0.066020
C104	C	0.269430	-0.896056	0.399354
C105	C	0.602763	-0.562723	0.732687
C106	C	-0.063887	-1.229413	-0.066011
C107	C	0.269446	-0.896079	0.267322
C108	C	0.602779	-0.562746	0.600655
C109	C	-0.136442	-1.227833	-0.066011
C110	C	0.196891	-0.894500	0.267323
C111	C	0.530224	-0.561167	0.600656
C112	C	-0.172725	-1.227042	0.000007
C113	C	0.160609	-0.893709	0.333340
C114	C	0.493942	-0.560376	0.666673
C115	C	0.302499	-1.215580	-0.000004
C116	C	0.635832	-0.882247	0.333330
C117	C	0.969165	-0.548913	0.666663
C118	C	0.379717	-1.217268	-0.000008
C119	C	0.713050	-0.883935	0.333325
C120	C	1.046384	-0.550602	0.666659
N121	N	0.176038	-1.223697	0.188672
N122	N	0.509371	-0.890364	0.522005
N123	N	0.842705	-0.557030	0.855338
C124	C	0.183520	-0.413221	0.000005
C125	C	0.516853	-0.079887	0.333338
C126	C	0.850187	0.253446	0.666672
C127	C	0.192505	-0.528256	0.000004
C128	C	0.525838	-0.194923	0.333338
C129	C	0.859172	0.138411	0.666671
N130	N	0.176055	-1.223774	-0.188664
N131	N	0.509388	-0.890441	0.144669
N132	N	0.842722	-0.557108	0.478002
C133	C	0.133520	-1.294390	0.226775
C134	C	0.466853	-0.961056	0.560109
C135	C	0.800187	-0.627723	0.893442
C136	C	0.133517	-1.294396	0.303003
C137	C	0.466851	-0.961063	0.636336
C138	C	0.800184	-0.627729	0.969670
C139	C	0.176045	-1.223720	0.341124
C140	C	0.509379	-0.890387	0.674458
C141	C	0.842712	-0.557053	1.007791
C142	C	0.218566	-1.153015	0.303012
C143	C	0.551899	-0.819681	0.636345
C144	C	0.885233	-0.486348	0.969678
C145	C	0.218562	-1.153003	0.226785
C146	C	0.551896	-0.819670	0.560119
C147	C	0.885229	-0.486336	0.893452
C148	C	0.238386	-1.209851	0.461881
C149	C	0.571719	-0.876518	0.795214
C150	C	0.905053	-0.543184	1.128548
C151	C	0.238391	-1.209870	0.538106
C152	C	0.571724	-0.876536	0.871439
C153	C	0.905058	-0.543203	1.204773
C154	C	0.176056	-1.223750	0.576232
C155	C	0.509389	-0.890416	0.909565
C156	C	0.842723	-0.557083	1.242899
C157	C	0.113715	-1.237633	0.538124
C158	C	0.447048	-0.904300	0.871457
C159	C	0.780382	-0.570966	1.204790
C160	C	0.113711	-1.237621	0.461897
C161	C	0.447045	-0.904288	0.795231
C162	C	0.780378	-0.570955	1.128564
C163	C	0.176054	-1.223724	0.423779
C164	C	0.509387	-0.890391	0.757112
C165	C	0.842720	-0.557058	1.090446
C166	C	0.133532	-1.294453	0.696990
C167	C	0.466865	-0.961120	1.030324
C168	C	0.800198	-0.627786	1.363657
C169	C	0.133527	-1.294452	0.773220
C170	C	0.466861	-0.961119	1.106553
C171	C	0.800194	-0.627786	1.439886
C172	C	0.218582	-1.153076	0.773227
C173	C	0.551916	-0.819742	1.106560
C174	C	0.885249	-0.486409	1.439893
C175	C	0.218580	-1.153071	0.696999
C176	C	0.551913	-0.819738	1.030332
C177	C	0.885247	-0.486405	1.363666
C178	C	0.176056	-1.223766	0.658885
C179	C	0.509389	-0.890432	0.992219
C180	C	0.842723	-0.557099	1.325552
H181	H	0.030226	-0.735989	0.000013
H182	H	0.363559	-0.402656	0.333347
H183	H	0.696892	-0.069322	0.666680
H184	H	-0.613526	-1.217415	-0.119781
H185	H	-0.280192	-0.884082	0.213552
H186	H	0.053141	-0.550749	0.546886
H187	H	0.098893	-1.351964	0.334033
H188	H	0.432226	-1.018631	0.667366
H189	H	0.765560	-0.685297	1.000699
N190	N	-0.024787	-1.230236	0.137221
N191	N	0.308546	-0.896903	0.470554
N192	N	0.641880	-0.563569	0.803888
H193	H	-0.058784	-1.229498	0.179039
H194	H	0.274549	-0.896165	0.512372
H195	H	0.607883	-0.562831	0.845706
H196	H	0.003938	-1.295121	0.140090
H197	H	0.337272	-0.961787	0.473423
H198	H	0.670605	-0.628454	0.806757
H199	H	0.253192	-1.095467	0.334054
H200	H	0.586525	-0.762134	0.667387
H201	H	0.919858	-0.428801	1.000720
N202	N	0.030138	-0.949717	-0.000004
N203	N	0.363472	-0.616383	0.333329
N204	N	0.696805	-0.283050	0.666662
H205	H	0.045597	-1.024472	-0.000007
H206	H	0.378930	-0.691139	0.333326
H207	H	0.712263	-0.357806	0.666660
H208	H	0.001389	-0.936340	0.044888
H209	H	0.334722	-0.603006	0.378221
H210	H	0.668056	-0.269673	0.711554
N211	N	0.087665	-1.370676	0.655863
N212	N	0.420998	-1.037342	0.989196
N213	N	0.754331	-0.704009	1.322529
H214	H	0.100551	-1.444191	0.669109
H215	H	0.433884	-1.110858	1.002442
H216	H	0.767218	-0.777524	1.335775
H217	H	0.037604	-1.358879	0.669148
H218	H	0.370937	-1.025546	1.002481
H219	H	0.704270	-0.692212	1.335815
H220	H	-0.166002	-1.227168	0.119774
H221	H	0.167331	-0.893835	0.453108
H222	H	0.500664	-0.560501	0.786441
N223	N	-0.024761	-1.230287	-0.137213
N224	N	0.308572	-0.896954	0.196121
N225	N	0.641906	-0.563620	0.529454
H226	H	-0.036007	-1.165789	-0.166071
H227	H	0.297326	-0.832456	0.167263
H228	H	0.630660	-0.499123	0.500596
H229	H	0.026692	-1.231448	-0.127139
H230	H	0.360025	-0.898115	0.206194
H231	H	0.693358	-0.564782	0.539528
H232	H	0.306571	-0.515375	0.000009
H233	H	0.639904	-0.182042	0.333342
H234	H	0.973238	0.151291	0.666676
N235	N	0.062387	-0.550283	0.000027
N236	N	0.395721	-0.216950	0.333360
N237	N	0.729054	0.116383	0.666693
H238	H	0.065880	-0.471693	0.000034
H239	H	0.399213	-0.138359	0.333367
H240	H	0.732546	0.194974	0.666700
H241	H	0.036590	-0.574692	-0.044863
H242	H	0.369923	-0.241359	0.288471
H243	H	0.703256	0.091975	0.621804
N244	N	0.339494	-0.722411	-0.000006
N245	N	0.672828	-0.389078	0.333327
N246	N	1.006161	-0.055744	0.666661
H247	H	0.375097	-0.663767	-0.000010
H248	H	0.708430	-0.330433	0.333324
H249	H	1.041764	0.002900	0.666657
H250	H	0.345715	-0.766698	0.044886
H251	H	0.679048	-0.433365	0.378219
H252	H	1.012381	-0.100031	0.711553
N253	N	-0.623153	-1.217202	0.137203
N254	N	-0.289819	-0.883869	0.470537
N255	N	0.043514	-0.550535	0.803870
H256	H	-0.589166	-1.217940	0.179022
H257	H	-0.255833	-0.884607	0.512355
H258	H	0.077501	-0.551274	0.845689
H259	H	-0.651876	-1.152315	0.140083
H260	H	-0.318543	-0.818982	0.473416
H261	H	0.014790	-0.485649	0.806749
H262	H	0.098893	-1.351950	0.195745
H263	H	0.432226	-1.018617	0.529079
H264	H	0.765559	-0.685284	0.862412
H265	H	0.062951	-1.248923	0.430872
H266	H	0.396284	-0.915589	0.764206
H267	H	0.729617	-0.582256	1.097539
N268	N	-0.472310	-1.220527	-0.137220
N269	N	-0.138976	-0.887194	0.196113
N270	N	0.194357	-0.553861	0.529447
H271	H	-0.506295	-1.219788	-0.179040
H272	H	-0.172961	-0.886454	0.154293
H273	H	0.160372	-0.553121	0.487627
H274	H	-0.440825	-1.156960	-0.140094
H275	H	-0.107491	-0.823627	0.193239
H276	H	0.225842	-0.490294	0.526573
H277	H	0.062956	-1.248935	0.569164
H278	H	0.396289	-0.915601	0.902497
H279	H	0.729622	-0.582268	1.235831
N280	N	-0.472340	-1.220481	0.137206
N281	N	-0.139007	-0.887148	0.470539
N282	N	0.194326	-0.553814	0.803873
H283	H	-0.506335	-1.219738	0.179026
H284	H	-0.173001	-0.886404	0.512360
H285	H	0.160332	-0.553071	0.845693
H286	H	-0.443618	-1.285368	0.140074
H287	H	-0.110285	-0.952035	0.473408
H288	H	0.223049	-0.618702	0.806741
N289	N	-0.396660	-1.095892	0.105116
N290	N	-0.063327	-0.762559	0.438450
N291	N	0.270006	-0.429226	0.771783
H292	H	-0.425644	-1.043335	0.078512
H293	H	-0.092311	-0.710001	0.411845
H294	H	0.241023	-0.376668	0.745179
H295	H	-0.427728	-1.141794	0.136211
H296	H	-0.094395	-0.808461	0.469545
H297	H	0.238939	-0.475127	0.802878
H298	H	0.253186	-1.095435	0.195761
H299	H	0.586519	-0.762102	0.529094
H300	H	0.919853	-0.428769	0.862427
H301	H	-0.255786	-1.115029	0.091757
H302	H	0.077547	-0.781695	0.425090
H303	H	0.410881	-0.448362	0.758423
H304	H	0.098900	-1.352015	0.804244
H305	H	0.432234	-1.018682	1.137578
H306	H	0.765567	-0.685349	1.470911
N307	N	0.264447	-1.076836	0.814332
N308	N	0.597781	-0.743503	1.147665
N309	N	0.931114	-0.410170	1.480999
H310	H	0.257997	-1.087567	0.868404
H311	H	0.591330	-0.754234	1.201737
H312	H	0.924664	-0.420900	1.535070
H313	H	0.314504	-1.088571	0.800999
H314	H	0.647838	-0.755238	1.134332
H315	H	0.981171	-0.421904	1.467666
H316	H	0.272097	-0.886223	0.000001
H317	H	0.605431	-0.552890	0.333334
H318	H	0.938764	-0.219557	0.666667
H319	H	0.253205	-1.095511	0.665973
H320	H	0.586539	-0.762178	0.999306
H321	H	0.919872	-0.428844	1.332640
H322	H	0.289153	-1.198572	0.569128
H323	H	0.622486	-0.865238	0.902461
H324	H	0.955820	-0.531905	1.235795
H325	H	0.289149	-1.198530	0.430845
H326	H	0.622482	-0.865197	0.764178
H327	H	0.955815	-0.531863	1.097512
N328	N	-0.251243	-1.351590	-0.105112
N329	N	0.082090	-1.018257	0.228222
N330	N	0.415424	-0.684923	0.561555
H331	H	-0.286055	-1.389302	-0.137153
H332	H	0.047278	-1.055969	0.196180
H333	H	0.380611	-0.722636	0.529514
H334	H	-0.220134	-1.305694	-0.136165
H335	H	0.113200	-0.972360	0.197168
H336	H	0.446533	-0.639027	0.530501
N337	N	-0.175541	-1.227027	-0.137220
N338	N	0.157792	-0.893694	0.196113
N339	N	0.491125	-0.560360	0.529446
H340	H	-0.204270	-1.162152	-0.140191
H341	H	0.129063	-0.828819	0.193142
H342	H	0.462397	-0.495485	0.526475
H343	H	-0.141485	-1.227828	-0.178981
H344	H	0.191849	-0.894494	0.154353
H345	H	0.525182	-0.561161	0.487686
N346	N	-0.402052	-1.348284	-0.105127
N347	N	-0.068719	-1.014951	0.228206
N348	N	0.264615	-0.681617	0.561539
H349	H	-0.368882	-1.387489	-0.137163
H350	H	-0.035549	-1.054156	0.196171
H351	H	0.297784	-0.720823	0.529504
H352	H	-0.433274	-1.399469	-0.078479
H353	H	-0.099941	-1.066136	0.254854
H354	H	0.233392	-0.732802	0.588187
