data_functionalizedCrystal
_audit_creation_method	'MofGen! by Chris Wilmer'
_symmetry_space_group_name_H-M	'P1'
_symmetry_Int_Tables_number	1
_symmetry_cell_setting	triclinic
loop_
_symmetry_equiv_pos_as_xyz
  x,y,z
_cell_length_a	11.892095
_cell_length_b	10.723024
_cell_length_c	10.723024
_cell_angle_alpha	84.467869
_cell_angle_beta	93.927454
_cell_angle_gamma	86.064166
loop_
_atom_site_label
_atom_site_type_symbol
_atom_site_fract_x
_atom_site_fract_y
_atom_site_fract_z
O1	O	0.093993	-1.665098	-0.167118
O2	O	0.093997	-1.301946	-0.183871
O3	O	0.093991	-1.491899	0.006081
O4	O	0.093999	-1.475146	-0.357071
O5	O	-0.094016	-1.476061	-0.009732
O6	O	-0.094010	-1.286108	-0.199685
O7	O	-0.094014	-1.649260	-0.182932
Zn8	Zn	-0.123862	-1.465170	-0.193819
Zn9	Zn	0.123845	-1.486037	-0.172984
O10	O	-0.094008	-1.459308	-0.372884
C11	C	-0.000006	-1.247528	-0.190559
C12	C	-0.000005	-1.108974	-0.186911
C13	C	-0.000012	-1.482761	0.044674
C14	C	-0.000008	-1.479113	0.183229
N15	N	-0.292916	-1.450937	-0.208037
C16	C	-0.529569	-1.599313	-0.059746
C17	C	-0.647910	-1.589374	-0.069694
C18	C	-0.647943	-1.421115	-0.237874
C19	C	-0.529601	-1.431054	-0.227926
C20	C	-0.470418	-1.520157	-0.138861
C21	C	-0.352075	-1.530102	-0.128920
C22	C	-0.352109	-1.361837	-0.297093
C23	C	-0.470451	-1.351898	-0.307040
N24	N	0.292899	-1.500279	-0.158756
C25	C	-0.000008	-1.703679	-0.176244
C26	C	-0.000002	-1.842234	-0.179891
C27	C	-0.000002	-1.033991	-0.293198
C28	C	-0.000000	-0.890788	-0.289431
C29	C	-0.000003	-1.468446	-0.411477
C30	C	0.000000	-1.472094	-0.550031
C31	C	-0.000007	-1.585401	0.258211
C32	C	-0.000003	-1.581634	0.401415
H33	H	-0.481381	-1.671873	0.012766
H34	H	-0.000008	-1.672624	0.465847
O35	O	-0.528121	-1.265455	-0.393524
C36	C	-0.710446	-1.175522	-0.483337
C37	C	-0.645280	-1.273490	-0.385354
H38	H	-0.805181	-1.181967	-0.476746
H39	H	-0.687261	-1.194593	-0.581515
H40	H	-0.687128	-1.077406	-0.464227
H41	H	-0.668564	-1.371645	-0.404346
H42	H	-0.668472	-1.254309	-0.287208
O43	O	0.000142	-1.697228	0.208193
C44	C	0.097575	-1.840952	0.085402
C45	C	0.097533	-1.714262	0.141948
H46	H	0.176320	-1.854777	0.031851
H47	H	0.018947	-1.841550	0.018438
H48	H	0.097520	-1.920370	0.164143
H49	H	0.097628	-1.634775	0.063291
H50	H	0.176154	-1.713773	0.208943
H51	H	0.000002	-0.906659	-0.088895
H52	H	0.000007	-0.826356	-0.380421
O53	O	-0.294705	-1.285058	-0.374131
C54	C	-0.258581	-1.216789	-0.587426
C55	C	-0.323639	-1.303819	-0.500321
H56	H	-0.281968	-1.231908	-0.689469
H57	H	-0.163817	-1.239194	-0.565137
H58	H	-0.281853	-1.114758	-0.572150
H59	H	-0.300461	-1.405879	-0.515548
H60	H	-0.418386	-1.281306	-0.522630
H61	H	-0.000006	-1.075813	-0.386985
O62	O	-0.000055	-1.059295	-0.074916
C63	C	0.000014	-1.100331	0.150023
C64	C	0.000044	-1.156749	0.023270
H65	H	0.000118	-1.179097	0.229442
H66	H	-0.078684	-1.033476	0.150695
H67	H	0.078677	-1.046643	0.163771
H68	H	-0.078566	-1.210499	0.009440
H69	H	0.078794	-1.223537	0.022657
O70	O	0.000201	-1.363582	0.373084
C71	C	0.097566	-1.244073	0.217954
C72	C	0.097491	-1.367008	0.304998
H73	H	0.176204	-1.246813	0.162864
H74	H	0.097643	-1.160972	0.276736
H75	H	0.018847	-1.233460	0.149755
H76	H	0.176197	-1.377742	0.373213
H77	H	0.097355	-1.450046	0.246137
O78	O	-0.294756	-1.616682	-0.042299
C79	C	-0.307220	-1.782565	0.123419
C80	C	-0.372269	-1.684551	0.025390
H81	H	-0.369860	-1.837482	0.178154
H82	H	-0.251857	-1.732868	0.190988
H83	H	-0.251773	-1.849970	0.073615
H84	H	-0.427777	-1.617118	0.075087
H85	H	-0.427560	-1.734332	-0.042173
O86	O	-0.705194	-1.666400	0.007219
C87	C	-0.692668	-1.834280	0.175140
C88	C	-0.627654	-1.747147	0.088088
H89	H	-0.630006	-1.899567	0.240562
H90	H	-0.748031	-1.892519	0.116111
H91	H	-0.748113	-1.775185	0.233252
H92	H	-0.572148	-1.806145	0.029958
H93	H	-0.572363	-1.688902	0.147189
H94	H	-0.696145	-1.348560	-0.310380
H95	H	0.000001	-1.385328	0.225051
