data_functionalizedCrystal
_audit_creation_method	'MofGen! by Chris Wilmer'
_symmetry_space_group_name_H-M	'P1'
_symmetry_Int_Tables_number	1
_symmetry_cell_setting	triclinic
loop_
_symmetry_equiv_pos_as_xyz
  x,y,z
_cell_length_a	14.044220
_cell_length_b	10.540539
_cell_length_c	13.101018
_cell_angle_alpha	86.605148
_cell_angle_beta	93.664297
_cell_angle_gamma	88.857185
loop_
_atom_site_label
_atom_site_type_symbol
_atom_site_fract_x
_atom_site_fract_y
_atom_site_fract_z
O1	O	1.264950	0.299856	0.085097
O2	O	0.988907	0.288802	0.085123
O3	O	1.133226	0.110260	0.085108
O4	O	1.120631	0.478399	0.085112
O5	O	1.122860	0.123081	-0.085321
O6	O	0.978541	0.301624	-0.085306
O7	O	1.254583	0.312677	-0.085333
Zn8	Zn	1.114916	0.309186	-0.112379
Zn9	Zn	1.128574	0.292294	0.112169
O10	O	1.110264	0.491220	-0.085318
C11	C	0.948377	0.290375	-0.000088
C12	C	0.843054	0.275945	-0.000078
C13	C	0.650213	0.249565	-0.000099
C14	C	0.593272	0.351908	-0.000102
C15	C	0.485969	0.337230	-0.000114
C16	C	0.757526	0.264241	-0.000087
C17	C	1.127098	0.069271	-0.000105
C18	C	1.124273	-0.071963	-0.000099
C19	C	1.016007	-0.266367	0.000294
C20	C	1.018849	-0.119430	-0.000090
C21	C	1.169088	-0.121169	-0.097427
C22	C	1.165485	-0.268071	-0.097509
C23	C	1.179418	-0.282953	0.096301
C24	C	1.180467	-0.135970	0.097587
C25	C	1.295114	0.311104	-0.000119
C26	C	1.400437	0.325534	-0.000123
C27	C	1.116392	0.532208	-0.000103
C28	C	1.119218	0.673442	-0.000102
N29	N	1.105601	0.320715	-0.265627
C30	C	1.150565	0.265065	-0.525541
C31	C	1.092936	0.336401	-0.474662
C32	C	1.099985	0.327671	-0.358344
C33	C	1.143517	0.273794	-0.641870
N34	N	1.137897	0.280756	0.265417
H35	H	0.978607	-0.304428	0.070090
O36	O	1.222909	0.175457	-0.467538
H37	H	1.217154	0.182570	-0.383956
O38	O	1.280334	-0.335378	0.097156
H39	H	1.330695	-0.255595	0.094642
H40	H	0.625111	0.450550	-0.000096
H41	H	0.618376	0.150932	-0.000105
H42	H	1.038306	0.404032	-0.518462
O43	O	0.971572	-0.075277	0.092310
H44	H	0.946467	-0.158923	0.137672
H45	H	0.970310	-0.295547	-0.069104
H46	H	1.147724	-0.104281	0.169588
H47	H	0.974397	-0.076482	-0.069968
H48	H	1.257686	-0.104419	0.103457
H49	H	1.123564	-0.294589	-0.170257
H50	H	1.246288	-0.090715	-0.101053
O51	O	1.265551	-0.321032	-0.103392
H52	H	1.316299	-0.241702	-0.106174
H53	H	1.129439	-0.076685	-0.169849
O54	O	1.140167	-0.336651	0.194022
H55	H	1.077307	-0.395025	0.174966
