data_functionalizedCrystal
_audit_creation_method	'MofGen! by Chris Wilmer'
_symmetry_space_group_name_H-M	'P1'
_symmetry_Int_Tables_number	1
_symmetry_cell_setting	triclinic
loop_
_symmetry_equiv_pos_as_xyz
  x,y,z
_cell_length_a	21.295417
_cell_length_b	14.908792
_cell_length_c	14.909241
_cell_angle_alpha	96.416526
_cell_angle_beta	86.669119
_cell_angle_gamma	86.681052
loop_
_atom_site_label
_atom_site_type_symbol
_atom_site_fract_x
_atom_site_fract_y
_atom_site_fract_z
Zn1	Zn	-0.169969	-1.413369	-0.591800
Zn2	Zn	0.163365	-1.080035	-0.258467
Zn3	Zn	0.496698	-0.746702	0.074867
Zn4	Zn	-0.281698	-1.404501	-0.440411
Zn5	Zn	0.051635	-1.071168	-0.107078
Zn6	Zn	0.384968	-0.737835	0.226255
Zn7	Zn	-0.182876	-1.253256	-0.431695
Zn8	Zn	0.150458	-0.919922	-0.098361
Zn9	Zn	0.483791	-0.586589	0.234972
Zn10	Zn	-0.281644	-1.261933	-0.582982
Zn11	Zn	0.051689	-0.928600	-0.249649
Zn12	Zn	0.385022	-0.595267	0.083684
O13	O	-0.229047	-1.333265	-0.511722
O14	O	0.104287	-0.999931	-0.178389
O15	O	0.437620	-0.666598	0.154945
O16	O	-0.179411	-1.538866	-0.579056
O17	O	0.153923	-1.205532	-0.245723
O18	O	0.487256	-0.872199	0.087611
O19	O	-0.274013	-1.377096	-0.312584
O20	O	0.059320	-1.043762	0.020749
O21	O	0.392653	-0.710429	0.354083
O22	O	-0.093069	-1.274574	-0.452975
O23	O	0.240264	-0.941241	-0.119642
O24	O	0.573597	-0.607908	0.213692
O25	O	-0.261498	-1.532351	-0.467832
O26	O	0.071835	-1.199018	-0.134498
O27	O	0.405169	-0.865684	0.198835
O28	O	-0.083587	-1.392209	-0.570604
O29	O	0.249747	-1.058875	-0.237270
O30	O	0.583080	-0.725542	0.096063
O31	O	-0.201409	-1.265976	-0.306180
O32	O	0.131924	-0.932643	0.027154
O33	O	0.465258	-0.599309	0.360487
O34	O	-0.201357	-1.127734	-0.444425
O35	O	0.131977	-0.794400	-0.111092
O36	O	0.465310	-0.461067	0.222242
O37	O	-0.261406	-1.289364	-0.710823
O38	O	0.071927	-0.956031	-0.377490
O39	O	0.405260	-0.622697	-0.044157
O40	O	-0.273922	-1.134109	-0.555576
O41	O	0.059412	-0.800776	-0.222242
O42	O	0.392745	-0.467442	0.111091
O43	O	-0.179359	-1.400623	-0.717301
O44	O	0.153975	-1.067290	-0.383968
O45	O	0.487308	-0.733956	-0.050635
O46	O	-0.369785	-1.385510	-0.459282
O47	O	-0.036452	-1.052177	-0.125948
O48	O	0.296881	-0.718844	0.207385
O49	O	-0.369746	-1.280766	-0.564028
O50	O	-0.036413	-0.947433	-0.230695
O51	O	0.296921	-0.614099	0.102639
C52	C	-0.239034	-1.098076	-0.498098
C53	C	0.094299	-0.764743	-0.164765
C54	C	0.427632	-0.431410	0.168568
C55	C	-0.243321	-0.997463	-0.492291
C56	C	0.090012	-0.664130	-0.158958
C57	C	0.423345	-0.330796	0.174375
C58	C	-0.292039	-0.852258	-0.426109
C59	C	0.041295	-0.518924	-0.092776
C60	C	0.374628	-0.185591	0.240558
C61	C	-0.288013	-0.946793	-0.431565
C62	C	0.045320	-0.613460	-0.098231
C63	C	0.378653	-0.280126	0.235102
C64	C	-0.202651	-0.953592	-0.547565
C65	C	0.130683	-0.620258	-0.214231
C66	C	0.464016	-0.286925	0.119102
C67	C	-0.206676	-0.859056	-0.542109
C68	C	0.126657	-0.525723	-0.208776
C69	C	0.459991	-0.192390	0.124558
C70	C	-0.251372	-0.808393	-0.481380
C71	C	0.081961	-0.475059	-0.148047
C72	C	0.415295	-0.141726	0.185287
C73	C	-0.255400	-0.713856	-0.475930
C74	C	0.077933	-0.380523	-0.142596
C75	C	0.411267	-0.047189	0.190737
C76	C	-0.170035	-0.720656	-0.591924
C77	C	0.163298	-0.387323	-0.258591
C78	C	0.496632	-0.053990	0.074742
C79	C	-0.166009	-0.815191	-0.597380
C80	C	0.167324	-0.481858	-0.264047
C81	C	0.500657	-0.148525	0.069287
C82	C	-0.392606	-1.333143	-0.511665
C83	C	-0.059272	-0.999810	-0.178332
C84	C	0.274061	-0.666477	0.155002
C85	C	-0.462572	-1.333176	-0.511676
C86	C	-0.129239	-0.999842	-0.178342
C87	C	0.204095	-0.666509	0.154991
C88	C	-0.495434	-1.387771	-0.457197
C89	C	-0.162100	-1.054438	-0.123863
C90	C	0.171233	-0.721104	0.209470
C91	C	-0.561173	-1.387815	-0.457219
C92	C	-0.227840	-1.054481	-0.123886
C93	C	0.105493	-0.721148	0.209447
C94	C	-0.594050	-1.333246	-0.511711
C95	C	-0.260717	-0.999913	-0.178378
C96	C	0.072616	-0.666580	0.154956
C97	C	-0.561180	-1.278648	-0.566201
C98	C	-0.227847	-0.945314	-0.232868
C99	C	0.105486	-0.611981	0.100466
C100	C	-0.495441	-1.278612	-0.566184
C101	C	-0.162108	-0.945279	-0.232850
C102	C	0.171225	-0.611946	0.100483
N103	N	-0.700389	-1.254457	-0.514025
N104	N	-0.367055	-0.921124	-0.180691
N105	N	-0.033722	-0.587791	0.152642
N106	N	-0.762838	-1.254493	-0.514036
N107	N	-0.429505	-0.921160	-0.180703
N108	N	-0.096171	-0.587826	0.152631
C109	C	-0.792118	-1.333351	-0.511769
C110	C	-0.458785	-1.000017	-0.178435
C111	C	-0.125452	-0.666684	0.154898
N112	N	-0.756591	-1.412172	-0.509472
N113	N	-0.423257	-1.078839	-0.176138
N114	N	-0.089924	-0.745505	0.157195
N115	N	-0.694135	-1.412135	-0.509455
N116	N	-0.360802	-1.078801	-0.176122
N117	N	-0.027469	-0.745468	0.157211
C118	C	-0.665333	-1.333279	-0.511737
C119	C	-0.332000	-0.999946	-0.178403
C120	C	0.001333	-0.666612	0.154930
C121	C	-0.896263	-1.387998	-0.457312
C122	C	-0.562929	-1.054664	-0.123978
C123	C	-0.229596	-0.721331	0.209355
C124	C	-0.962003	-1.388043	-0.457341
C125	C	-0.628670	-1.054710	-0.124007
C126	C	-0.295337	-0.721377	0.209326
C127	C	-0.962009	-1.278868	-0.566317
C128	C	-0.628676	-0.945535	-0.232984
C129	C	-0.295343	-0.612201	0.100349
C130	C	-0.896269	-1.278831	-0.566293
C131	C	-0.562936	-0.945498	-0.232960
C132	C	-0.229603	-0.612164	0.100373
C133	C	-0.863400	-1.333394	-0.511785
C134	C	-0.530067	-1.000061	-0.178452
C135	C	-0.196734	-0.666728	0.154881
C136	C	-0.064847	-1.333413	-0.511801
C137	C	0.268486	-1.000079	-0.178467
C138	C	0.601819	-0.666746	0.154866
C139	C	0.005125	-1.333476	-0.511834
C140	C	0.338458	-1.000142	-0.178501
C141	C	0.671791	-0.666809	0.154833
C142	C	-0.218937	-1.346951	-0.747825
C143	C	0.114397	-1.013617	-0.414492
C144	C	0.447730	-0.680284	-0.081158
C145	C	-0.214628	-1.352783	-0.848438
C146	C	0.118705	-1.019449	-0.515105
C147	C	0.452038	-0.686116	-0.181771
C148	C	-0.219016	-0.569371	-0.525393
C149	C	0.114317	-0.236038	-0.192060
C150	C	0.447651	0.097296	0.141273
C151	C	-0.214729	-0.669985	-0.531203
C152	C	0.118604	-0.336651	-0.197869
C153	C	0.451937	-0.003318	0.135464
C154	C	-0.291983	-1.247890	-1.030757
C155	C	0.041350	-0.914557	-0.697423
C156	C	0.374684	-0.581224	-0.364090
C157	C	-0.287937	-1.253367	-1.125292
C158	C	0.045396	-0.920034	-0.791958
C159	C	0.378730	-0.586701	-0.458625
C160	C	-0.202494	-1.369217	-1.132044
C161	C	0.130839	-1.035884	-0.798711
C162	C	0.464173	-0.702551	-0.465378
C163	C	-0.206540	-1.363740	-1.037509
C164	C	0.126793	-1.030407	-0.704176
C165	C	0.460127	-0.697074	-0.370843
C166	C	-0.251285	-1.303074	-0.986869
C167	C	0.082048	-0.969741	-0.653536
C168	C	0.415381	-0.636407	-0.320202
C169	C	-0.255328	-1.297593	-0.892332
C170	C	0.078006	-0.964260	-0.558999
C171	C	0.411339	-0.630927	-0.225666
C172	C	-0.169888	-1.413447	-0.899087
C173	C	0.163445	-1.080114	-0.565754
C174	C	0.496779	-0.746781	-0.232420
C175	C	-0.165842	-1.418924	-0.993622
C176	C	0.167491	-1.085591	-0.660288
C177	C	0.500824	-0.752257	-0.326955
C178	C	-0.239070	-1.319684	-0.276541
C179	C	0.094263	-0.986351	0.056793
C180	C	0.427597	-0.653018	0.390126
C181	C	-0.243194	-1.314028	-0.175938
C182	C	0.090140	-0.980694	0.157395
C183	C	0.423473	-0.647361	0.490728
H184	H	-0.136922	-0.684932	-0.636931
H185	H	0.196411	-0.351598	-0.303598
H186	H	0.529745	-0.018265	0.029735
H187	H	-0.321078	-1.208432	-1.161021
H188	H	0.012255	-0.875099	-0.827688
H189	H	0.345589	-0.541765	-0.494355
O190	O	-0.340246	-0.797611	-0.360613
O191	O	-0.006912	-0.464278	-0.027279
O192	O	0.326421	-0.130944	0.306054
H193	H	-0.336214	-0.724505	-0.366108
H194	H	-0.002881	-0.391172	-0.032775
H195	H	0.330452	-0.057839	0.300558
H196	H	-0.129414	-1.468319	-1.034866
H197	H	0.203920	-1.134986	-0.701533
H198	H	0.537253	-0.801653	-0.368199
O199	O	-0.459997	-1.219720	-0.624945
O200	O	-0.126663	-0.886387	-0.291612
O201	O	0.206670	-0.553053	0.041721
H202	H	-0.408761	-1.228866	-0.615780
H203	H	-0.075428	-0.895533	-0.282447
H204	H	0.257905	-0.562199	0.050886
O205	O	-0.117803	-0.869843	-0.662873
O206	O	0.215530	-0.536510	-0.329540
O207	O	0.548863	-0.203177	0.003793
H208	H	-0.090199	-0.823456	-0.700386
H209	H	0.243135	-0.490122	-0.367053
H210	H	0.576468	-0.156789	-0.033720
O211	O	-0.340237	-1.182452	-0.976135
O212	O	-0.006904	-0.849119	-0.642801
O213	O	0.326430	-0.515786	-0.309468
H214	H	-0.336209	-1.187910	-0.903025
H215	H	-0.002876	-0.854576	-0.569692
H216	H	0.330457	-0.521243	-0.236358
H217	H	-0.587934	-1.432276	-0.412856
H218	H	-0.254601	-1.098942	-0.079523
H219	H	0.078732	-0.765609	0.253810
O220	O	-0.154441	-1.008248	-0.613050
O221	O	0.178892	-0.674914	-0.279716
O222	O	0.512226	-0.341581	0.053617
H223	H	-0.163037	-0.994235	-0.683022
H224	H	0.170296	-0.660902	-0.349689
H225	H	0.503630	-0.327568	-0.016356
H226	H	-0.468673	-1.432202	-0.412816
H227	H	-0.135340	-1.098869	-0.079482
H228	H	0.197993	-0.765535	0.253851
O229	O	-0.860802	-1.446856	-0.398538
O230	O	-0.527469	-1.113523	-0.065205
O231	O	-0.194135	-0.780190	0.268129
H232	H	-0.894699	-1.484842	-0.360670
H233	H	-0.561366	-1.151508	-0.027337
H234	H	-0.228033	-0.818175	0.305996
H235	H	-0.321128	-0.982504	-0.386556
H236	H	0.012206	-0.649170	-0.053223
H237	H	0.345539	-0.315837	0.280110
H238	H	-0.587953	-1.234220	-0.610570
H239	H	-0.254619	-0.900886	-0.277237
H240	H	0.078714	-0.567553	0.056096
H241	H	-0.988758	-1.432507	-0.412979
H242	H	-0.655424	-1.099174	-0.079646
H243	H	-0.322091	-0.765840	0.253687
H244	H	-0.166069	-1.418616	-1.173292
H245	H	0.167264	-1.085283	-0.839959
H246	H	0.500597	-0.751949	-0.506626
H247	H	-0.136746	-1.458377	-0.863343
H248	H	0.196587	-1.125044	-0.530010
H249	H	0.529921	-0.791711	-0.196677
O250	O	-0.997464	-1.220014	-0.625092
O251	O	-0.664130	-0.886681	-0.291759
O252	O	-0.330797	-0.553348	0.041574
H253	H	-0.963565	-1.182045	-0.662976
H254	H	-0.630231	-0.848712	-0.329642
H255	H	-0.296898	-0.515378	0.003691
O256	O	-0.860821	-1.219921	-0.625028
O257	O	-0.527488	-0.886588	-0.291695
O258	O	-0.194154	-0.553255	0.041638
H259	H	-0.894725	-1.181972	-0.662914
H260	H	-0.561392	-0.848638	-0.329580
H261	H	-0.228059	-0.515305	0.003753
H262	H	-0.291756	-1.248186	-0.851101
H263	H	0.041578	-0.914853	-0.517768
H264	H	0.374911	-0.581520	-0.184435
H265	H	-0.291796	-0.672607	-0.426484
H266	H	0.041537	-0.339274	-0.093151
H267	H	0.374871	-0.005940	0.240183
