data_functionalizedCrystal
_audit_creation_method	'MofGen! by Chris Wilmer'
_symmetry_space_group_name_H-M	'P1'
_symmetry_Int_Tables_number	1
_symmetry_cell_setting	triclinic
loop_
_symmetry_equiv_pos_as_xyz
  x,y,z
_cell_length_a	12.594517
_cell_length_b	29.839131
_cell_length_c	29.839126
_cell_angle_alpha	89.975848
_cell_angle_beta	89.979777
_cell_angle_gamma	90.041220
loop_
_atom_site_label
_atom_site_type_symbol
_atom_site_fract_x
_atom_site_fract_y
_atom_site_fract_z
Zn1	Zn	1.627068	-0.178890	-0.254012
Zn2	Zn	1.626883	-0.254011	-0.178882
Zn3	Zn	1.449075	-0.178895	-0.178894
Zn4	Zn	1.448975	-0.253994	-0.253983
O5	O	1.538000	-0.216447	-0.216443
O6	O	1.775989	-0.188860	-0.244053
O7	O	1.603261	-0.244056	-0.116017
O8	O	1.472805	-0.116027	-0.188876
O9	O	1.775853	-0.244051	-0.188856
O10	O	1.603576	-0.116024	-0.244065
O11	O	1.472626	-0.188869	-0.116025
O12	O	1.300116	-0.188852	-0.188848
O13	O	1.472635	-0.244022	-0.316854
O14	O	1.300042	-0.244027	-0.244015
O15	O	1.603479	-0.188844	-0.316875
O16	O	1.603164	-0.316876	-0.188827
O17	O	1.472456	-0.316863	-0.244003
C18	C	1.261459	-0.216438	-0.216430
C19	C	1.143154	-0.216445	-0.216435
C20	C	1.537808	-0.333170	-0.216421
C21	C	1.537823	-0.383104	-0.216426
C22	C	1.073910	-0.186395	-0.186486
C23	C	1.003056	-0.227372	-0.175431
C24	C	1.003208	-0.175488	-0.227497
C25	C	1.073858	-0.257444	-0.205358
C26	C	1.074017	-0.205532	-0.257443
C27	C	1.003195	-0.246538	-0.246404
C28	C	1.606184	-0.692742	-0.187755
C29	C	1.606315	-0.880415	-0.187772
O30	O	1.664285	-0.904674	-0.163377
N31	N	1.538221	-0.903889	-0.216477
C32	C	1.470094	-0.880443	-0.245181
O33	O	1.412186	-0.904716	-0.269600
C34	C	1.469969	-0.692771	-0.245166
C35	C	1.538060	-0.669299	-0.216456
C36	C	1.674270	-0.669269	-0.159047
C37	C	1.674233	-0.622354	-0.159042
C38	C	1.606109	-0.598911	-0.187743
C39	C	1.538022	-0.622383	-0.216450
C40	C	1.401848	-0.669325	-0.273872
C41	C	1.401824	-0.622404	-0.273867
C42	C	1.469915	-0.598932	-0.245157
C43	C	1.469860	-0.552025	-0.245146
N44	N	1.537955	-0.528550	-0.216441
C45	C	1.606079	-0.551993	-0.187740
C46	C	1.470163	-0.978974	-0.245187
C47	C	1.470193	-1.025891	-0.245190
C48	C	1.606416	-1.025860	-0.187781
C49	C	1.606380	-0.978941	-0.187776
C50	C	1.538257	-0.955499	-0.216482
C51	C	1.605994	-0.453467	-0.187729
C52	C	1.605947	-0.406547	-0.187725
C53	C	1.469729	-0.406583	-0.245135
C54	C	1.469771	-0.453499	-0.245138
C55	C	1.537912	-0.476939	-0.216434
O56	O	1.411929	-0.527736	-0.269531
O57	O	1.663994	-0.527712	-0.163331
C58	C	1.606221	-0.739657	-0.187760
C59	C	1.538135	-0.763129	-0.216467
C60	C	1.470011	-0.739686	-0.245169
C61	C	1.538165	-0.810047	-0.216471
C62	C	1.606289	-0.833490	-0.187770
C63	C	1.674383	-0.810016	-0.159065
C64	C	1.674345	-0.763100	-0.159059
C65	C	1.401917	-0.763161	-0.273874
C66	C	1.401959	-0.810077	-0.273877
C67	C	1.470083	-0.833520	-0.245175
C68	C	1.815621	-0.216457	-0.216456
C69	C	1.933926	-0.216461	-0.216462
C70	C	1.538066	-0.216430	-0.333621
C71	C	1.538094	-0.216423	-0.383556
C72	C	1.538222	-0.099269	-0.216475
C73	C	1.538317	-0.049335	-0.216489
C74	C	1.470094	-0.187642	-0.693207
C75	C	1.470124	-0.187611	-0.880880
O76	O	1.412254	-0.163185	-0.905151
N77	N	1.538145	-0.216339	-0.904341
C78	C	1.606158	-0.245078	-0.880881
O79	O	1.664006	-0.269515	-0.905142
C80	C	1.606121	-0.245111	-0.693209
C81	C	1.538104	-0.216378	-0.669750
C82	C	1.402081	-0.158912	-0.669748
C83	C	1.402078	-0.158918	-0.622832
C84	C	1.470088	-0.187655	-0.599376
C85	C	1.538101	-0.216385	-0.622834
C86	C	1.674128	-0.273853	-0.669750
C87	C	1.674111	-0.273859	-0.622829
C88	C	1.606094	-0.245127	-0.599370
C89	C	1.606108	-0.245128	-0.552462
N90	N	1.538088	-0.216400	-0.529001
C91	C	1.470078	-0.187664	-0.552458
C92	C	1.606173	-0.245058	-0.979412
C93	C	1.606184	-0.245049	-1.026330
C94	C	1.470149	-0.187583	-1.026325
C95	C	1.470144	-0.187589	-0.979406
C96	C	1.538153	-0.216330	-0.955950
C97	C	1.470078	-0.187679	-0.453932
C98	C	1.470084	-0.187686	-0.407012
C99	C	1.606115	-0.245155	-0.407021
C100	C	1.606113	-0.245146	-0.453936
C101	C	1.538086	-0.216406	-0.477391
O102	O	1.663939	-0.269544	-0.528162
O103	O	1.412221	-0.163237	-0.528188
C104	C	1.470097	-0.187636	-0.740122
C105	C	1.538109	-0.216366	-0.763581
C106	C	1.606119	-0.245102	-0.740124
C107	C	1.538120	-0.216357	-0.810499
C108	C	1.470110	-0.187621	-0.833955
C109	C	1.402089	-0.158893	-0.810494
C110	C	1.402087	-0.158899	-0.763579
C111	C	1.674140	-0.273830	-0.763585
C112	C	1.674138	-0.273821	-0.810501
C113	C	1.606128	-0.245084	-0.833958
C114	C	1.537996	-0.216432	-0.099720
C115	C	1.538174	-0.216313	-0.049786
H116	H	1.104958	-0.161007	-0.161129
H117	H	1.729792	-0.743992	-0.135681
H118	H	0.971889	-0.236612	-0.140763
H119	H	1.104764	-0.292098	-0.195975
H120	H	1.729500	-0.297262	-0.603733
H121	H	1.346700	-0.135502	-0.744483
H122	H	0.972117	-0.140849	-0.236827
H123	H	1.414759	-0.164192	-0.960309
H124	H	1.414259	-0.387489	-0.268502
H125	H	0.972342	-0.271986	-0.271742
H126	H	1.346395	-0.688428	-0.297249
H127	H	1.414329	-0.472611	-0.268517
H128	H	1.729849	-0.829111	-0.135694
H129	H	1.105209	-0.196280	-0.292101
H130	H	1.661395	-0.387438	-0.164344
H131	H	1.346352	-0.603320	-0.297244
H132	H	1.661885	-1.044955	-0.164412
H133	H	1.661826	-0.959833	-0.164398
H134	H	1.346717	-0.135493	-0.829601
H135	H	1.661483	-0.472547	-0.164357
H136	H	1.729681	-0.603245	-0.135665
H137	H	1.414736	-1.044999	-0.268564
H138	H	1.729751	-0.688352	-0.135675
H139	H	1.414687	-0.959890	-0.268563
H140	H	1.346687	-0.135523	-0.603736
H141	H	1.346502	-0.829184	-0.297255
H142	H	1.414696	-0.164287	-0.387914
H143	H	1.346443	-0.744077	-0.297246
H144	H	1.414684	-0.164276	-0.473023
H145	H	1.729536	-0.297218	-0.829597
H146	H	1.346694	-0.135511	-0.688841
H147	H	1.414775	-0.164183	-1.045431
H148	H	1.661583	-0.268442	-1.045426
H149	H	1.729519	-0.297233	-0.744492
H150	H	1.661555	-0.268465	-0.960318
H151	H	1.729515	-0.297251	-0.688842
H152	H	1.661510	-0.268537	-0.473038
H153	H	1.661490	-0.268550	-0.387914
