data_functionalizedCrystal
_audit_creation_method	'MofGen! by Chris Wilmer'
_symmetry_space_group_name_H-M	'P1'
_symmetry_Int_Tables_number	1
_symmetry_cell_setting	triclinic
loop_
_symmetry_equiv_pos_as_xyz
  x,y,z
_cell_length_a	6.817900
_cell_length_b	11.102289
_cell_length_c	10.943881
_cell_angle_alpha	91.859769
_cell_angle_beta	108.843448
_cell_angle_gamma	108.605707
loop_
_atom_site_label
_atom_site_type_symbol
_atom_site_fract_x
_atom_site_fract_y
_atom_site_fract_z
V1	V	-4.114336	-0.175803	-0.402552
O2	O	-4.073315	0.008485	-0.394889
O3	O	-4.091094	-0.348623	-0.399799
O4	O	-4.092341	-0.173082	-0.578119
O5	O	-4.072060	-0.168271	-0.215335
V6	V	-4.591283	-0.153762	-0.380159
O7	O	-4.390020	-0.224152	-0.451672
O8	O	-4.765796	-0.105413	-0.331039
O9	O	-4.391318	0.019059	-0.382913
O10	O	-4.749700	-0.338050	-0.387822
O11	O	-4.750956	-0.161294	-0.567377
O12	O	-4.390071	-0.156482	-0.204592
C13	C	-3.941360	-0.390754	-0.393448
C14	C	-4.003820	-0.532037	-0.392367
C15	C	-3.942950	-0.166832	-0.620912
C16	C	-4.006416	-0.165751	-0.764439
C17	C	-4.217216	-0.604884	-0.398300
C18	C	-4.275897	-0.737636	-0.397296
C19	C	-3.907762	-0.724679	-0.384420
C20	C	-3.849089	-0.591931	-0.385434
C21	C	-4.429753	-0.612365	-0.405728
C22	C	-4.488434	-0.745117	-0.404724
C23	C	-4.235818	-0.171737	-0.855322
C24	C	-4.123117	-0.062491	-0.921059
C25	C	-4.232143	-0.272993	-0.954428
C26	C	-3.892833	-0.056434	-0.828271
C27	C	-4.001932	-0.267032	-0.861650
C28	C	-3.889060	-0.157756	-0.927338
C29	C	-4.204394	0.061182	-0.389260
C30	C	-4.121174	0.202464	-0.390349
C31	C	-4.202804	-0.162737	-0.161793
C32	C	-4.118575	-0.163811	-0.018265
H33	H	-3.675335	-0.532626	-0.380618
H34	H	-4.539127	-0.770094	-0.316530
C35	C	-4.193121	0.054351	-0.956912
C36	C	-4.390845	0.069478	-0.927436
C37	C	-4.460864	0.186315	-0.963285
C38	C	-4.333158	0.288024	-1.028609
C39	C	-4.135422	0.272900	-1.058088
C40	C	-4.065403	0.156064	-1.022240
H41	H	-4.485392	-0.005816	-0.879076
H42	H	-4.607242	0.197510	-0.941462
H43	H	-4.384990	0.374514	-1.055147
H44	H	-4.040876	0.348195	-1.106449
H45	H	-3.919025	0.144869	-1.044062
H46	H	-3.950170	-0.353530	-0.835095
C47	C	-3.698364	0.067339	-0.754542
C48	C	-3.478325	0.059108	-0.664227
C49	C	-3.283873	0.182887	-0.590506
C50	C	-3.309458	0.314898	-0.607100
C51	C	-3.529506	0.323134	-0.697419
C52	C	-3.723958	0.199355	-0.771140
H53	H	-3.459377	-0.038618	-0.651940
H54	H	-3.120979	0.176789	-0.523646
H55	H	-3.165512	0.406526	-0.552527
H56	H	-3.548454	0.420861	-0.709706
H57	H	-3.886852	0.205453	-0.838000
C58	C	-4.426777	-0.396617	-1.028388
C59	C	-4.645921	-0.388047	-1.119609
C60	C	-4.840565	-0.511664	-1.193564
C61	C	-4.816064	-0.643849	-1.176297
C62	C	-4.596910	-0.652424	-1.085071
C63	C	-4.402267	-0.528807	-1.011117
H64	H	-4.664066	-0.290191	-1.132395
H65	H	-5.002797	-0.505315	-1.261095
H66	H	-4.960150	-0.735357	-1.231042
H67	H	-4.578765	-0.750280	-1.072286
H68	H	-4.240035	-0.535156	-0.943586
H69	H	-3.781795	-0.773462	-0.378776
C70	C	-4.581729	-0.586373	-0.532580
C71	C	-4.763522	-0.699544	-0.633825
C72	C	-4.915490	-0.673551	-0.760674
C73	C	-4.885664	-0.534388	-0.786276
C74	C	-4.703863	-0.421208	-0.685028
C75	C	-4.551895	-0.447201	-0.558179
H76	H	-4.785608	-0.802569	-0.614876
H77	H	-5.050071	-0.757334	-0.835624
H78	H	-4.998160	-0.515146	-0.880177
H79	H	-4.681777	-0.318183	-0.703977
H80	H	-4.417314	-0.363417	-0.483229
H81	H	-4.429187	-0.559146	-0.314696
H82	H	-4.620910	-0.802975	-0.500374
H83	H	-4.381687	-0.177524	-0.823453
H84	H	-3.742867	-0.151803	-0.958938
