data_functionalizedCrystal
_audit_creation_method	'MofGen! by Chris Wilmer'
_symmetry_space_group_name_H-M	'P1'
_symmetry_Int_Tables_number	1
_symmetry_cell_setting	triclinic
loop_
_symmetry_equiv_pos_as_xyz
  x,y,z
_cell_length_a	19.188930
_cell_length_b	14.971486
_cell_length_c	18.266242
_cell_angle_alpha	90.004638
_cell_angle_beta	90.019668
_cell_angle_gamma	83.379454
loop_
_atom_site_label
_atom_site_type_symbol
_atom_site_fract_x
_atom_site_fract_y
_atom_site_fract_z
O1	O	-0.926506	-0.111668	-0.061117
O2	O	-0.723243	-0.126700	-0.061067
O3	O	-0.830322	0.011045	-0.061088
O4	O	-0.819426	-0.249413	-0.061096
O5	O	-0.830310	0.011048	0.060674
O6	O	-0.723231	-0.126697	0.060695
O7	O	-0.926494	-0.111665	0.060645
Zn8	Zn	-0.824860	-0.119181	0.080003
Zn9	Zn	-0.824876	-0.119185	-0.080424
O10	O	-0.819414	-0.249410	0.060666
C11	C	-0.829829	0.044368	-0.000207
C12	C	-0.828369	0.143658	-0.000207
C13	C	-0.697224	-0.126212	-0.000179
C14	C	-0.619715	-0.124751	-0.000160
C15	C	-0.952512	-0.112153	-0.000244
C16	C	-1.030021	-0.113615	-0.000268
C17	C	-0.575051	-0.205575	-0.000174
C18	C	-0.502223	-0.204202	-0.000182
C19	C	-0.474062	-0.122000	-0.000191
C20	C	-0.518735	-0.041165	-0.000173
C21	C	-0.591562	-0.042541	-0.000157
N22	N	-0.365883	-0.059168	-0.041659
N23	N	-0.296701	-0.057868	-0.041675
C24	C	-0.254640	-0.117852	-0.000235
N25	N	-0.284374	-0.179200	0.041212
N26	N	-0.353563	-0.180504	0.041225
C27	C	-0.395094	-0.120500	-0.000207
C28	C	-0.131007	-0.197193	-0.000257
C29	C	-0.058178	-0.195817	-0.000260
C30	C	-0.074692	-0.032778	-0.000258
C31	C	-0.147519	-0.034157	-0.000248
C32	C	-0.175672	-0.116367	-0.000250
C33	C	-0.819907	-0.282734	-0.000216
C34	C	-0.821368	-0.382023	-0.000221
N35	N	-0.824855	-0.119177	0.189490
C36	C	-0.891275	0.201215	-0.000222
C37	C	-0.889899	0.294507	-0.000229
C38	C	-0.825615	0.330240	-0.000216
C39	C	-0.762704	0.272675	-0.000203
C40	C	-0.764081	0.179385	-0.000201
C41	C	-0.759839	0.467123	-0.000205
C42	C	-0.758461	0.560419	-0.000206
C43	C	-0.885656	0.582245	-0.000233
C44	C	-0.887033	0.488955	-0.000231
C45	C	-0.824122	0.431396	-0.000217
C46	C	-0.872300	-0.058206	0.771757
C47	C	-0.872302	-0.058208	0.695113
C48	C	-0.824875	-0.119178	0.656802
C49	C	-0.777455	-0.180166	0.695143
C50	C	-0.777460	-0.180169	0.771786
N51	N	-0.763100	-0.130769	0.536491
N52	N	-0.763098	-0.130761	0.463683
C53	C	-0.824858	-0.119176	0.425880
N54	N	-0.886623	-0.107580	0.463636
N55	N	-0.886625	-0.107583	0.536450
C56	C	-0.824864	-0.119182	0.573695
C57	C	-0.872279	-0.058197	0.304441
C58	C	-0.872281	-0.058205	0.227795
C59	C	-0.777429	-0.180160	0.227827
C60	C	-0.777433	-0.180156	0.304471
C61	C	-0.824857	-0.119170	0.342774
N62	N	-0.824884	-0.119183	0.810089
H63	H	-0.597968	-0.272517	-0.000177
N64	N	-0.044331	0.055886	-0.000269
H65	H	-0.060593	0.091284	0.044872
H66	H	0.008577	0.044422	-0.000307
H67	H	-0.708609	0.420260	-0.000196
H68	H	-0.939378	0.459865	-0.000237
H69	H	-0.943622	0.172130	-0.000228
H70	H	-0.183886	0.031659	-0.000240
N71	N	-0.693370	0.311214	-0.000182
H72	H	-0.653728	0.260592	-0.000173
H73	H	-0.690031	0.349443	-0.045319
N74	N	-0.161381	-0.285856	-0.000247
H75	H	-0.191248	-0.290063	-0.045380
H76	H	-0.121995	-0.336800	-0.000222
N77	N	-0.957747	0.356589	-0.000241
H78	H	-0.998679	0.319796	-0.000243
H79	H	-0.959935	0.395775	0.044897
N80	N	-0.726278	-0.245911	0.345819
H81	H	-0.752987	-0.285434	0.377605
H82	H	-0.696245	-0.284472	0.309874
H83	H	-0.910915	-0.008551	0.663897
N84	N	-0.696237	0.117292	-0.000170
H85	H	-0.693976	0.078091	-0.045304
H86	H	-0.655339	0.154138	-0.000129
N87	N	-0.953512	0.644320	-0.000247
H88	H	-0.942888	0.708841	-0.000249
H89	H	-0.981532	0.632772	-0.045389
N90	N	-0.639735	0.044642	-0.000141
H91	H	-0.630693	0.080520	-0.045279
H92	H	-0.690124	0.031226	-0.000104
N93	N	-0.923472	0.007540	0.813069
H94	H	-0.953518	0.046159	0.777151
H95	H	-0.954359	-0.026635	0.844838
N96	N	-0.010000	-0.282996	-0.000217
H97	H	-0.038889	-0.335280	-0.000200
H98	H	0.020580	-0.286018	-0.045343
H99	H	-0.738840	-0.229811	0.663947
N100	N	-0.726308	-0.245929	0.813135
H101	H	-0.753018	-0.285448	0.844923
H102	H	-0.696275	-0.284494	0.777192
N103	N	-0.454037	-0.291380	-0.000198
H104	H	-0.482923	-0.343667	-0.000197
H105	H	-0.423488	-0.294350	-0.045346
N106	N	-0.923427	0.007575	0.345760
H107	H	-0.953469	0.046201	0.309844
H108	H	-0.954320	-0.026567	0.377548
H109	H	-0.706116	0.589510	-0.000183
H110	H	-0.495802	0.025764	-0.000190
N111	N	-0.923430	0.007560	0.186447
H112	H	-0.953470	0.046192	0.222345
H113	H	-0.896665	0.047013	0.154659
H114	H	-0.738815	-0.229807	0.196635
