data_functionalizedCrystal
_audit_creation_method	'MofGen! by Chris Wilmer'
_symmetry_space_group_name_H-M	'P1'
_symmetry_Int_Tables_number	1
_symmetry_cell_setting	triclinic
loop_
_symmetry_equiv_pos_as_xyz
  x,y,z
_cell_length_a	21.295417
_cell_length_b	10.686154
_cell_length_c	21.295412
_cell_angle_alpha	94.345362
_cell_angle_beta	90.030668
_cell_angle_gamma	85.590079
loop_
_atom_site_label
_atom_site_type_symbol
_atom_site_fract_x
_atom_site_fract_y
_atom_site_fract_z
Zn1	Zn	-0.176745	-1.929040	0.282212
Zn2	Zn	-0.282021	-1.928848	0.176945
Zn3	Zn	-0.184844	-1.718015	0.185019
Zn4	Zn	-0.290065	-1.717950	0.290234
O5	O	-0.233419	-1.823463	0.233603
O6	O	-0.183955	-2.105590	0.261512
O7	O	-0.269153	-1.900827	0.089929
O8	O	-0.095677	-1.746115	0.197934
O9	O	-0.261300	-2.105449	0.184172
O10	O	-0.089726	-1.901154	0.269341
O11	O	-0.197758	-1.745929	0.095861
O12	O	-0.205558	-1.541430	0.205713
O13	O	-0.275010	-1.746004	0.377257
O14	O	-0.282863	-1.541382	0.283013
O15	O	-0.191754	-1.901091	0.371364
O16	O	-0.371182	-1.900764	0.191951
O17	O	-0.377092	-1.745818	0.275184
C18	C	-0.245963	-1.495622	0.246110
C19	C	-0.251344	-1.355370	0.251476
C20	C	-0.396977	-1.823298	0.233574
C21	C	-0.466943	-1.823342	0.233579
C22	C	-0.496709	-1.904094	0.190278
C23	C	-0.562449	-1.904154	0.190290
C24	C	-0.598422	-1.823438	0.233597
C25	C	-0.568649	-1.742680	0.276906
C26	C	-0.502909	-1.742632	0.276897
N27	N	-0.705916	-1.713055	0.242607
N28	N	-0.768365	-1.713104	0.242611
C29	C	-0.796491	-1.823579	0.233627
N30	N	-0.759809	-1.934006	0.224626
N31	N	-0.697354	-1.933955	0.224618
C32	C	-0.669706	-1.823482	0.233611
C33	C	-0.897540	-1.904402	0.190337
C34	C	-0.963281	-1.904464	0.190353
C35	C	-0.969480	-1.742979	0.276966
C36	C	-0.903739	-1.742929	0.276953
C37	C	-0.867773	-1.823639	0.233635
C38	C	-0.069221	-1.823664	0.233644
C39	C	0.000750	-1.823749	0.233661
C40	C	-0.233376	-1.823562	0.397789
C41	C	-0.233358	-1.823604	0.467756
C42	C	-0.220821	-1.152584	0.221043
C43	C	-0.215436	-1.292836	0.215680
C44	C	-0.233414	-1.823437	0.070052
C45	C	-0.233245	-1.823640	0.000077
C46	C	-0.196177	-1.742970	0.503701
C47	C	-0.196165	-1.742965	0.569443
C48	C	-0.233327	-1.823617	0.599238
C49	C	-0.270516	-1.904257	0.563285
C50	C	-0.270531	-1.904250	0.497544
N51	N	-0.233904	-1.934075	0.698256
N52	N	-0.233886	-1.934078	0.760707
C53	C	-0.233284	-1.823641	0.797312
N54	N	-0.232689	-1.713198	0.769106
N55	N	-0.232704	-1.713197	0.706648
C56	C	-0.233315	-1.823633	0.670523
C57	C	-0.196089	-1.742995	0.904543
C58	C	-0.196082	-1.742988	0.970287
C59	C	-0.270429	-1.904291	0.964126
C60	C	-0.270440	-1.904287	0.898384
C61	C	-0.233266	-1.823640	0.868596
H62	H	-0.286209	-1.301605	0.286226
O63	O	-0.461865	-1.982625	0.148181
C64	C	-0.462660	-2.142749	0.062254
C65	C	-0.502197	-2.053894	0.109900
H66	H	-0.495252	-2.200374	0.031282
H67	H	-0.429324	-2.208762	0.088630
H68	H	-0.434129	-2.084815	0.031547
H69	H	-0.530766	-2.111726	0.140619
H70	H	-0.535494	-1.987877	0.083485
H71	H	-0.987515	-1.970230	0.155093
O72	O	-0.159974	-1.664526	0.875704
C73	C	-0.086212	-1.504575	0.888750
C74	C	-0.127092	-1.593360	0.921488
H75	H	-0.059607	-1.447034	0.925750
H76	H	-0.117622	-1.438480	0.860493
H77	H	-0.051110	-1.562558	0.855760
H78	H	-0.162200	-1.535479	0.954508
H79	H	-0.095643	-1.659459	0.949705
H80	H	-0.586689	-1.969916	0.155029
H81	H	-0.180577	-1.346595	0.180928
O82	O	-1.004512	-1.664616	0.318977
C83	C	-1.108531	-1.593190	0.357409
C84	C	-1.068932	-1.681974	0.309784
H85	H	-1.160622	-1.607212	0.350002
H86	H	-1.099606	-1.491416	0.350196
H87	H	-1.094673	-1.615279	0.407323
H88	H	-1.082766	-1.659999	0.259850
H89	H	-1.077861	-1.783723	0.317052
O90	O	-0.603652	-1.664447	0.318998
C91	C	-0.678449	-1.647445	0.404664
C92	C	-0.638853	-1.736181	0.357015
H93	H	-0.706909	-1.705407	0.435422
H94	H	-0.711842	-1.581535	0.378290
H95	H	-0.645868	-1.589689	0.435584
H96	H	-0.671385	-1.794019	0.326082
H97	H	-0.605454	-1.802008	0.383428
O98	O	-0.474094	-1.664063	0.318984
C99	C	-0.487177	-1.503961	0.404920
C100	C	-0.519893	-1.592857	0.357282
H101	H	-0.524190	-1.446387	0.435904
H102	H	-0.458998	-1.437902	0.378537
H103	H	-0.454113	-1.561859	0.435615
H104	H	-0.552987	-1.535061	0.326574
H105	H	-0.548032	-1.658920	0.383703
H106	H	-0.165885	-1.677306	0.598715
H107	H	-0.879503	-1.677168	0.312210
O108	O	-0.862691	-1.982923	0.148238
C109	C	-0.863482	-2.143035	0.062304
C110	C	-0.903020	-2.054199	0.109957
H111	H	-0.896073	-2.200666	0.031333
H112	H	-0.830138	-2.209044	0.088674
H113	H	-0.834959	-2.085086	0.031597
H114	H	-0.931581	-2.112046	0.140677
H115	H	-0.936325	-1.988186	0.083548
O116	O	-0.306518	-1.982741	0.592246
C117	C	-0.308452	-2.153056	0.660016
C118	C	-0.267601	-2.064273	0.627243
H119	H	-0.277006	-2.218978	0.688330
H120	H	-0.335015	-2.210782	0.623054
H121	H	-0.343591	-2.095063	0.692964
H122	H	-0.232428	-2.122168	0.594298
H123	H	-0.241082	-2.006542	0.664240
O124	O	-0.306664	-1.982705	0.462716
C125	C	-0.380435	-2.142633	0.463546
C126	C	-0.339534	-2.053867	0.503064
H127	H	-0.407031	-2.200172	0.496151
H128	H	-0.349041	-2.208732	0.430282
H129	H	-0.415546	-2.084636	0.434943
H130	H	-0.304418	-2.111762	0.531705
H131	H	-0.370966	-1.987765	0.536288
H132	H	-0.165807	-1.677317	0.999553
H133	H	-0.165910	-1.677297	0.479452
O134	O	-0.306465	-1.982609	0.993159
C135	C	-0.339409	-2.054075	1.091708
C136	C	-0.298558	-1.965333	1.058905
H137	H	-0.333040	-2.040119	1.144869
H138	H	-0.324454	-2.155856	1.074959
H139	H	-0.391015	-2.031882	1.079575
H140	H	-0.246941	-1.987411	1.071023
H141	H	-0.313566	-1.863578	1.075656
H142	H	-0.300715	-1.969951	0.869117
