data_functionalizedCrystal
_audit_creation_method	'MofGen! by Chris Wilmer'
_symmetry_space_group_name_H-M	'P1'
_symmetry_Int_Tables_number	1
_symmetry_cell_setting	triclinic
loop_
_symmetry_equiv_pos_as_xyz
  x,y,z
_cell_length_a	9.065218
_cell_length_b	7.540329
_cell_length_c	9.065218
_cell_angle_alpha	90.001757
_cell_angle_beta	94.984081
_cell_angle_gamma	89.994865
loop_
_atom_site_label
_atom_site_type_symbol
_atom_site_fract_x
_atom_site_fract_y
_atom_site_fract_z
O1	O	-1.960398	0.147565	0.216356
O2	O	-1.460398	0.647565	0.716356
O3	O	-1.531114	0.147548	0.234102
O4	O	-1.031114	0.647548	0.734102
O5	O	-1.754629	0.147554	0.010587
O6	O	-1.254629	0.647554	0.510587
O7	O	-1.736883	0.147560	0.439871
O8	O	-1.236883	0.647560	0.939871
O9	O	-1.754616	-0.147411	0.010584
O10	O	-1.254616	0.352589	0.510584
O11	O	-1.531100	-0.147417	0.234099
O12	O	-1.031100	0.352583	0.734099
O13	O	-1.960385	-0.147400	0.216353
O14	O	-1.460385	0.352600	0.716353
Cu15	Cu	-1.745741	-0.174341	0.225226
Cu16	Cu	-1.245741	0.325659	0.725226
Cu17	Cu	-1.745757	0.174489	0.225229
Cu18	Cu	-1.245757	0.674489	0.725229
O19	O	-1.736869	-0.147405	0.439868
O20	O	-1.236869	0.352595	0.939868
C21	C	-1.476120	0.000064	0.232395
C22	C	-0.976120	0.500064	0.732395
C23	C	-1.312277	0.000057	0.227295
C24	C	-0.812277	0.500057	0.727295
N25	N	-1.745741	-0.419689	0.225223
N26	N	-1.245741	0.080311	0.725223
C27	C	-1.752917	0.000074	-0.044402
C28	C	-1.252917	0.500074	0.455598
C29	C	-1.747817	0.000082	-0.208244
C30	C	-1.247817	0.500082	0.291756
C31	C	-1.015378	0.000078	0.218060
C32	C	-0.515378	0.500078	0.718060
C33	C	-1.179221	0.000063	0.223159
C34	C	-0.679221	0.500063	0.723159
N35	N	-1.745769	0.419838	0.225221
N36	N	-1.245769	0.919838	0.725221
C37	C	-1.738581	0.000079	0.494856
C38	C	-1.238581	0.500079	0.994856
C39	C	-1.743681	0.000082	0.658699
C40	C	-1.243681	0.500082	1.158699
