data_functionalizedCrystal
_audit_creation_method	'MofGen! by Chris Wilmer'
_symmetry_space_group_name_H-M	'P1'
_symmetry_Int_Tables_number	1
_symmetry_cell_setting	triclinic
loop_
_symmetry_equiv_pos_as_xyz
  x,y,z
_cell_length_a	10.654545
_cell_length_b	14.044209
_cell_length_c	9.730223
_cell_angle_alpha	90.007132
_cell_angle_beta	89.997167
_cell_angle_gamma	91.164484
loop_
_atom_site_label
_atom_site_type_symbol
_atom_site_fract_x
_atom_site_fract_y
_atom_site_fract_z
O1	O	1.681227	-0.133211	-0.114286
O2	O	2.181227	0.366789	0.385714
O3	O	1.317024	-0.145909	-0.114293
O4	O	1.817024	0.354091	0.385707
O5	O	1.493660	-0.001539	-0.114270
O6	O	1.993660	0.498461	0.385730
O7	O	1.504591	-0.277581	-0.114309
O8	O	2.004591	0.222419	0.385691
O9	O	1.493648	-0.001535	0.114310
O10	O	1.993648	0.498465	0.614310
O11	O	1.317011	-0.145905	0.114287
O12	O	1.817011	0.354095	0.614287
O13	O	1.681215	-0.133207	0.114294
O14	O	2.181215	0.366793	0.614294
Zn15	Zn	1.499111	-0.139555	0.150582
Zn16	Zn	1.999111	0.360445	0.650582
Zn17	Zn	1.499128	-0.139561	-0.150582
Zn18	Zn	1.999128	0.360439	0.349418
O19	O	1.504578	-0.277577	0.114271
O20	O	2.004578	0.222423	0.614271
C21	C	1.270126	-0.144976	-0.000004
C22	C	1.770126	0.355024	0.499996
C23	C	1.130402	-0.142189	-0.000005
C24	C	1.630402	0.357811	0.499995
C25	C	1.064759	-0.140875	0.124595
C26	C	1.564759	0.359125	0.624595
C27	C	0.933475	-0.138241	0.124595
C28	C	1.433475	0.361759	0.624595
C29	C	0.933489	-0.138239	-0.124615
C30	C	1.433489	0.361761	0.375385
C31	C	1.064771	-0.140866	-0.124614
C32	C	1.564771	0.359134	0.375386
C33	C	1.488869	0.033808	0.000022
C34	C	1.988869	0.533808	0.500022
C35	C	1.474594	0.139128	0.000028
C36	C	1.974594	0.639128	0.500028
C37	C	1.448497	0.331961	0.000016
C38	C	1.948497	0.831961	0.500016
C39	C	1.549746	0.388930	0.000016
C40	C	2.049746	0.888930	0.500016
C41	C	1.535226	0.496229	0.000009
C42	C	2.035226	0.996229	0.500009
C43	C	1.463016	0.224652	0.000023
C44	C	1.963016	0.724652	0.500023
C45	C	1.728113	-0.134141	0.000001
C46	C	2.228113	0.365859	0.500001
C47	C	1.867836	-0.136927	-0.000006
C48	C	2.367836	0.363073	0.499994
N49	N	1.499108	-0.139551	0.356119
N50	N	1.999108	0.360449	0.856119
C51	C	1.509373	0.687076	-0.000013
C52	C	2.009373	1.187076	0.499987
C53	C	1.523655	0.581757	0.000004
C54	C	2.023655	1.081757	0.500004
N55	N	1.499139	-0.139557	-0.356118
N56	N	1.999139	0.360443	0.143882
C57	C	1.577355	-0.075652	0.428055
C58	C	2.077355	0.424348	0.928055
C59	C	1.577368	-0.075652	0.571938
C60	C	2.077368	0.424348	1.071938
C61	C	1.420884	-0.203460	0.571936
C62	C	1.920884	0.296540	1.071936
C63	C	1.420866	-0.203454	0.428056
C64	C	1.920866	0.296546	0.928056
H65	H	1.647333	0.357118	-0.000076
H66	H	2.147333	0.857118	0.499924
H67	H	0.880036	-0.137162	-0.226068
H68	H	1.380036	0.362838	0.273932
H69	H	1.118192	-0.141952	0.226059
H70	H	1.618192	0.358048	0.726059
H71	H	1.641081	-0.023618	0.630504
H72	H	2.141081	0.476382	1.130504
H73	H	1.350918	0.363770	0.000012
H74	H	1.850918	0.863770	0.500012
H75	H	0.880034	-0.137171	0.226057
H76	H	1.380034	0.362829	0.726057
H77	H	1.118219	-0.141933	-0.226085
H78	H	1.618219	0.358067	0.273915
N79	N	1.661739	-0.006730	0.350463
N80	N	2.161739	0.493270	0.850463
H81	H	1.711307	0.033751	0.417872
H82	H	2.211307	0.533751	0.917872
H83	H	1.608926	0.035546	0.290786
H84	H	2.108926	0.535546	0.790786
H85	H	1.357182	-0.255490	0.630521
H86	H	1.857182	0.244510	1.130521
H87	H	1.357142	-0.255489	0.369481
H88	H	1.857142	0.244511	0.869481
