data_functionalizedCrystal
_audit_creation_method	'MofGen! by Chris Wilmer'
_symmetry_space_group_name_H-M	'P1'
_symmetry_Int_Tables_number	1
_symmetry_cell_setting	triclinic
loop_
_symmetry_equiv_pos_as_xyz
  x,y,z
_cell_length_a	16.109302
_cell_length_b	15.995343
_cell_length_c	14.586319
_cell_angle_alpha	89.991487
_cell_angle_beta	89.994552
_cell_angle_gamma	83.475482
loop_
_atom_site_label
_atom_site_type_symbol
_atom_site_fract_x
_atom_site_fract_y
_atom_site_fract_z
O1	O	1.103156	0.107627	-0.076291
O2	O	0.861098	0.121020	-0.076285
O3	O	0.988747	-0.007566	-0.076271
O4	O	0.975507	0.236214	-0.076305
O5	O	0.988738	-0.007568	0.076209
O6	O	0.861089	0.121019	0.076196
O7	O	1.103148	0.107626	0.076190
Cu8	Cu	0.982117	0.114322	0.090115
Cu9	Cu	0.982128	0.114324	-0.090211
O10	O	0.975498	0.236212	0.076176
C11	C	0.830118	0.120477	-0.000044
C12	C	0.737823	0.118850	-0.000041
C13	C	0.525476	0.115087	0.083068
C14	C	0.438756	0.113550	0.083065
C15	C	0.438776	0.113556	-0.083178
C16	C	0.525495	0.115088	-0.083174
C17	C	0.568843	0.115858	-0.000048
C18	C	0.395403	0.112788	-0.000055
C19	C	0.301377	0.111121	-0.000059
C20	C	0.662875	0.117523	-0.000044
C21	C	0.988197	-0.038762	-0.000029
C22	C	0.986559	-0.131712	-0.000021
C23	C	0.983587	-0.301898	-0.000042
C24	C	0.891443	-0.325218	-0.000042
C25	C	0.889709	-0.421896	-0.000398
C26	C	0.980659	-0.469457	-0.000062
C27	C	1.026995	-0.440369	-0.086962
C28	C	1.028088	-0.343577	-0.087024
C29	C	1.029427	-0.343684	0.086381
C30	C	1.026025	-0.440178	0.087513
C31	C	0.979009	-0.564154	-0.000076
C32	C	0.985239	-0.207200	-0.000034
C33	C	1.134127	0.108169	-0.000054
C34	C	1.226423	0.109796	-0.000063
C35	C	0.976049	0.267408	-0.000069
C36	C	0.977686	0.360358	-0.000082
N37	N	0.982116	0.114320	0.216947
N38	N	0.982136	0.114320	-0.217043
C39	C	1.038658	0.057401	0.451960
C40	C	1.038660	0.057399	0.547941
C41	C	0.925588	0.171241	0.547938
C42	C	0.925582	0.171239	0.451959
C43	C	0.982122	0.114319	0.403972
C44	C	0.982130	0.114320	0.595933
C45	C	0.982132	0.114318	0.700000
C46	C	0.982119	0.114320	0.299898
H47	H	0.560806	0.115713	-0.150861
N48	N	0.569754	0.115850	0.167978
N49	N	0.625806	0.057715	0.186536
H50	H	0.657074	0.058251	0.246507
H51	H	0.879540	0.217589	0.412884
N52	N	0.844196	-0.445770	0.077716
N53	N	0.835118	-0.521426	0.090810
H54	H	0.802968	-0.538284	0.145977
N55	N	0.394483	0.112769	-0.168076
N56	N	0.317056	0.111402	-0.168070
H57	H	0.285773	0.110848	-0.228031
H58	H	0.855724	-0.297207	0.062267
H59	H	0.856313	-0.296218	-0.062265
H60	H	1.084696	0.011050	0.587010
N61	N	1.096403	-0.000758	0.402958
N62	N	1.148028	0.025778	0.349385
H63	H	1.188811	-0.015308	0.314790
N64	N	0.394472	0.112757	0.167975
N65	N	0.433189	0.113440	0.242183
H66	H	0.401915	0.112878	0.302155
H67	H	0.995209	-0.460445	-0.151879
H68	H	0.879556	0.217585	0.587018
H69	H	0.853619	-0.440317	-0.063059
N70	N	0.988314	-0.309963	-0.168827
N71	N	0.959942	-0.358014	-0.225474
H72	H	0.931850	-0.334279	-0.283250
H73	H	1.095660	-0.329021	-0.090730
H74	H	1.000352	-0.315412	0.152271
N75	N	1.110965	-0.480342	-0.090705
N76	N	1.137658	-0.530836	-0.029222
H77	H	1.196963	-0.559069	-0.031862
H78	H	0.992282	-0.458735	0.151803
H79	H	1.092391	-0.473144	0.093020
N80	N	1.114508	-0.326123	0.087424
N81	N	1.141364	-0.283034	0.024862
H82	H	1.201450	-0.270627	0.025591
