data_functionalizedCrystal
_audit_creation_method	'MofGen! by Chris Wilmer'
_symmetry_space_group_name_H-M	'P1'
_symmetry_Int_Tables_number	1
_symmetry_cell_setting	triclinic
loop_
_symmetry_equiv_pos_as_xyz
  x,y,z
_cell_length_a	25.427154
_cell_length_b	25.426324
_cell_length_c	25.422586
_cell_angle_alpha	60.006367
_cell_angle_beta	60.012446
_cell_angle_gamma	59.992398
loop_
_atom_site_label
_atom_site_type_symbol
_atom_site_fract_x
_atom_site_fract_y
_atom_site_fract_z
O1	O	0.072968	-0.768436	0.642532
O2	O	0.027520	-0.598284	0.517710
O3	O	0.135268	-0.705940	0.517611
O4	O	-0.034780	-0.660780	0.642632
O5	O	0.171018	-0.670200	0.553260
O6	O	0.063270	-0.562544	0.553360
O7	O	0.108718	-0.732696	0.678182
Zn8	Zn	0.091670	-0.641945	0.621431
Zn9	Zn	0.044568	-0.689034	0.574461
O10	O	0.000970	-0.625039	0.678281
N11	N	0.123818	-0.609812	0.653490
N12	N	0.012426	-0.721173	0.542402
C13	C	0.168482	-0.466269	0.698103
C14	C	0.168494	-0.565177	0.698095
C15	C	0.193243	-0.540453	0.722807
C16	C	0.301113	-0.521853	0.665993
C17	C	0.368545	-0.544324	0.643486
C18	C	0.368579	-0.653434	0.685090
C19	C	0.301149	-0.630961	0.707599
C20	C	0.184722	-0.432539	0.631812
C21	C	0.162210	-0.365100	0.609357
C22	C	0.107225	-0.365129	0.719489
C23	C	0.129737	-0.432567	0.741943
C24	C	0.102194	-0.548896	0.714421
C25	C	0.079702	-0.571372	0.691949
C26	C	0.189805	-0.626409	0.636839
C27	C	0.212300	-0.603934	0.659303
C28	C	0.102289	-0.548918	0.830735
C29	C	0.079866	-0.571415	0.898171
C30	C	0.190015	-0.626466	0.898104
C31	C	0.212437	-0.603971	0.830666
C32	C	0.168573	-0.565195	0.796984
C33	C	0.267418	-0.565170	0.698047
C34	C	-0.130981	-0.765617	0.497386
C35	C	-0.032127	-0.765741	0.497606
C36	C	-0.056804	-0.790430	0.472789
C37	C	-0.075480	-0.898263	0.529507
C38	C	-0.053057	-0.965702	0.552014
C39	C	0.056052	-0.965829	0.510599
C40	C	0.033627	-0.898392	0.488091
C41	C	-0.164787	-0.781859	0.563659
C42	C	-0.232219	-0.759299	0.586018
C43	C	-0.232034	-0.704261	0.475827
C44	C	-0.164602	-0.726821	0.453469
C45	C	-0.048372	-0.699446	0.481299
C46	C	-0.025938	-0.677008	0.503867
C47	C	0.028987	-0.787155	0.559036
C48	C	0.006552	-0.809596	0.536475
C49	C	-0.048188	-0.699454	0.364860
C50	C	-0.025608	-0.677017	0.297425
C51	C	0.029406	-0.787170	0.297492
C52	C	0.006827	-0.809605	0.364929
C53	C	-0.031972	-0.765745	0.398611
C54	C	-0.032140	-0.864611	0.497548
N55	N	0.401319	-0.609788	0.653344
O56	O	0.621664	-0.620517	0.494685
O57	O	0.621901	-0.745740	0.664659
O58	O	0.621803	-0.745452	0.556857
O59	O	0.621762	-0.620805	0.602487
O60	O	0.514676	-0.709815	0.592658
O61	O	0.514774	-0.710104	0.700460
O62	O	0.514537	-0.584881	0.530485
Zn63	Zn	0.497647	-0.641834	0.621157
Zn64	Zn	0.638791	-0.688787	0.573988
O65	O	0.514635	-0.585169	0.638287
N66	N	0.735119	-0.720834	0.541794
N67	N	0.123794	-0.332357	0.653504
O68	O	-0.034774	-0.111885	0.642639
O69	O	0.135202	-0.111860	0.517412
O70	O	0.027364	-0.111888	0.517742
O71	O	0.073064	-0.111857	0.642310
O72	O	0.063120	-0.219026	0.553444
O73	O	0.170958	-0.218998	0.553115
O74	O	0.000983	-0.219022	0.678342
Zn75	Zn	0.091647	-0.236020	0.621397
Zn76	Zn	0.044537	-0.094862	0.574357
O77	O	0.108821	-0.218994	0.678013
N78	N	0.012383	0.001474	0.542251
N79	N	0.124036	-0.609854	0.930891
O80	O	0.113202	-0.768401	1.151342
O81	O	-0.011992	-0.598359	1.151385
O82	O	-0.011700	-0.706176	1.151343
O83	O	0.112910	-0.660584	1.151384
O84	O	0.023980	-0.670446	1.044212
O85	O	0.023689	-0.562630	1.044253
O86	O	0.148882	-0.732671	1.044211
Zn87	Zn	0.091951	-0.641977	1.027223
Zn88	Zn	0.044940	-0.689053	1.168373
O89	O	0.148590	-0.624854	1.044252
N90	N	0.012853	-0.721183	1.264704
C91	C	0.041135	-0.558973	0.518338
C92	C	0.174567	-0.692292	0.518215
C93	C	0.095103	-0.772007	0.677553
C94	C	-0.038330	-0.638687	0.677677
C95	C	0.568366	-0.745166	0.703974
C96	C	0.568246	-0.744810	0.570474
C97	C	0.568069	-0.585454	0.491172
C98	C	0.568192	-0.585812	0.624671
C99	C	0.174449	-0.165294	0.517975
C100	C	0.040949	-0.165460	0.518427
C101	C	-0.038309	-0.165456	0.677735
C102	C	0.095236	-0.165423	0.677328
C103	C	-0.011393	-0.559072	1.097824
C104	C	-0.011024	-0.692583	1.097752
C105	C	0.148283	-0.771958	1.097772
C106	C	0.147922	-0.638440	1.097820
H107	H	0.025889	-0.558152	0.925643
H108	H	0.031160	-0.165463	0.479291
O109	O	0.568007	-0.538628	0.432893
C110	C	0.567966	-0.561814	0.392815
H111	H	0.588305	-0.616685	0.410229
H112	H	0.516556	-0.545476	0.394606
C113	C	0.584911	-0.467697	0.301707
C114	C	0.609897	-0.535090	0.323092
H115	H	0.610774	-0.451210	0.258698
H116	H	0.584937	-0.452074	0.328709
H117	H	0.542070	-0.454090	0.303204
H118	H	0.652734	-0.548695	0.321602
H119	H	0.609880	-0.550714	0.296088
H120	H	0.223163	-0.164989	0.478564
O121	O	0.568236	-0.791446	0.558732
C122	C	0.568179	-0.767982	0.495421
H123	H	0.547847	-0.713113	0.478497
H124	H	0.619558	-0.784241	0.462061
C125	C	0.551151	-0.861900	0.514978
C126	C	0.526173	-0.794509	0.494192
H127	H	0.525242	-0.878265	0.514218
H128	H	0.551191	-0.877710	0.557631
H129	H	0.593966	-0.875441	0.487174
H130	H	0.483362	-0.780969	0.522000
H131	H	0.526125	-0.778697	0.451544
O132	O	0.568147	-0.539157	0.636430
C133	C	0.568239	-0.562632	0.699730
H134	H	0.548010	-0.604007	0.730210
H135	H	0.619650	-0.580571	0.698738
C136	C	0.551066	-0.457335	0.691604
C137	C	0.526214	-0.508149	0.729042
H138	H	0.525145	-0.423728	0.709684
H139	H	0.551006	-0.441520	0.648957
H140	H	0.593907	-0.472292	0.690780
H141	H	0.483376	-0.493194	0.729858
H142	H	0.526265	-0.523962	0.771689
O143	O	0.195257	-0.830172	1.097729
C144	C	0.250692	-0.830171	1.097757
H145	H	0.249920	-0.778498	1.077491
H146	H	0.251459	-0.853202	1.149155
C147	C	0.312201	-0.932324	1.080622
C148	C	0.311256	-0.868859	1.055727
H149	H	0.349560	-0.956191	1.054699
H150	H	0.274853	-0.932326	1.080606
H151	H	0.312838	-0.951508	1.123453
H152	H	0.310611	-0.849673	1.012900
H153	H	0.348606	-0.868854	1.055735
O154	O	0.194691	-0.626923	1.097851
C155	C	0.250290	-0.682238	1.097819
H156	H	0.236232	-0.726525	1.118091
H157	H	0.285304	-0.677036	1.046419
C158	C	0.299980	-0.635473	1.114935
C159	C	0.282713	-0.689867	1.139838
H160	H	0.319983	-0.640177	1.140851
H161	H	0.262523	-0.598204	1.114954
H162	H	0.329155	-0.631143	1.072102
H163	H	0.253532	-0.694191	1.182667
H164	H	0.320166	-0.727136	1.139827
H165	H	0.225736	-0.658027	0.925521
O166	O	0.059589	-0.511281	0.798116
C167	C	-0.003724	-0.501722	0.842366
H168	H	-0.003562	-0.542386	0.890425
H169	H	-0.023044	-0.453685	0.849550
C170	C	-0.047203	-0.451298	0.757052
C171	C	-0.047005	-0.501245	0.816078
H172	H	-0.073903	-0.451000	0.740835
H173	H	-0.004549	-0.457735	0.727239
H174	H	-0.063302	-0.411272	0.763046
H175	H	-0.030899	-0.541270	0.810081
H176	H	-0.089658	-0.494814	0.845889
O177	O	0.075814	-0.865801	0.457083
C178	C	0.138671	-0.910080	0.453554
H179	H	0.136043	-0.958129	0.493386
H180	H	0.164470	-0.917283	0.404691
C181	C	0.179261	-0.824799	0.412979
C182	C	0.176033	-0.883812	0.461904
H183	H	0.202310	-0.808595	0.418126
H184	H	0.136914	-0.794966	0.415354
H185	H	0.200759	-0.830809	0.372264
H186	H	0.154529	-0.877799	0.502616
H187	H	0.218378	-0.913643	0.459536
O188	O	-0.096497	-0.165573	0.724693
C189	C	-0.087974	-0.221046	0.778975
H190	H	-0.040807	-0.259828	0.763449
H191	H	-0.086472	-0.208491	0.815324
C192	C	-0.202339	-0.198581	0.829211
C193	C	-0.144410	-0.246216	0.810141
H194	H	-0.237153	-0.214106	0.848439
H195	H	-0.208082	-0.161207	0.792642
H196	H	-0.201078	-0.188123	0.859499
H197	H	-0.145669	-0.256668	0.779848
H198	H	-0.138669	-0.283593	0.846706
O199	O	0.276850	-0.619822	0.797982
C200	C	0.310753	-0.658880	0.842174
H201	H	0.278622	-0.650283	0.890254
H202	H	0.325305	-0.711701	0.849333
C203	C	0.411000	-0.652361	0.756775
C204	C	0.371537	-0.641799	0.815826
H205	H	0.448496	-0.641828	0.740522
H206	H	0.388159	-0.626049	0.727001
H207	H	0.423119	-0.696379	0.762749
H208	H	0.359412	-0.597780	0.809850
H209	H	0.394377	-0.668103	0.845598
H210	H	0.105023	-0.165413	0.716462
H211	H	0.116505	-0.460032	0.795926
O212	O	-0.058225	-0.500787	1.097866
C213	C	-0.035034	-0.460699	1.097868
H214	H	0.006323	-0.491678	1.118149
H215	H	-0.017162	-0.428164	1.046477
C216	C	-0.140506	-0.380960	1.114985
C217	C	-0.089714	-0.419010	1.139900
H218	H	-0.174235	-0.355243	1.140909
H219	H	-0.156130	-0.407967	1.114981
H220	H	-0.125604	-0.353854	1.072160
H221	H	-0.104614	-0.446121	1.182721
H222	H	-0.074094	-0.392007	1.139912
O223	O	-0.057629	-0.704291	1.097655
C224	C	-0.034164	-0.767613	1.097633
H225	H	0.020703	-0.784579	1.077385
H226	H	-0.050470	-0.800946	1.149014
C227	C	-0.128009	-0.748000	1.080425
C228	C	-0.060620	-0.768835	1.055550
H229	H	-0.144330	-0.748755	1.054469
H230	H	-0.143819	-0.705339	1.080442
H231	H	-0.141588	-0.775780	1.123242
H232	H	-0.047042	-0.741050	1.012738
H233	H	-0.044808	-0.811491	1.055525
H234	H	-0.129033	-0.870764	0.537213
H235	H	0.066522	-0.517340	0.746005
H236	H	0.025716	-0.558101	0.705227
O237	O	-0.264962	-0.775163	0.650420
C238	C	-0.220828	-0.814233	0.684388
H239	H	-0.172733	-0.838793	0.652286
H240	H	-0.213683	-0.783147	0.698984
C241	C	-0.306306	-0.835560	0.784569
C242	C	-0.247237	-0.865730	0.745142
H243	H	-0.322598	-0.867325	0.822046
H244	H	-0.336042	-0.809237	0.761685
H245	H	-0.300345	-0.809656	0.796726
H246	H	-0.253201	-0.891627	0.732979
H247	H	-0.217504	-0.892060	0.768025
H248	H	-0.087172	-0.629063	0.716934
O249	O	0.232876	-0.703868	0.471455
C250	C	0.272905	-0.767170	0.494730
H251	H	0.255431	-0.784230	0.549597
H252	H	0.271132	-0.800481	0.478412
C253	C	0.364090	-0.747322	0.400690
C254	C	0.342632	-0.768273	0.468079
H255	H	0.407101	-0.748004	0.384248
H256	H	0.337122	-0.704674	0.385008
H257	H	0.362607	-0.775084	0.387100
H258	H	0.344107	-0.740506	0.481668
H259	H	0.369602	-0.810916	0.483763
H260	H	0.031425	-0.510094	0.479136
O261	O	0.106673	-0.830365	0.724267
C262	C	0.121816	-0.878878	0.702149
H263	H	0.101053	-0.856901	0.662129
H264	H	0.176362	-0.901529	0.682774
C265	C	0.118224	-0.957953	0.807378
C266	C	0.092718	-0.930962	0.758228
H267	H	0.100277	-0.990083	0.841969
H268	H	0.108024	-0.925270	0.822279
H269	H	0.163678	-0.976824	0.791223
H270	H	0.047266	-0.912085	0.774381
H271	H	0.102909	-0.963643	0.743330
O272	O	0.276724	-0.619811	0.643393
C273	C	0.310567	-0.658815	0.604314
H274	H	0.278421	-0.683355	0.612944
H275	H	0.325037	-0.627679	0.551499
C276	C	0.410893	-0.680189	0.610713
C277	C	0.371413	-0.710334	0.621317
H278	H	0.448427	-0.711967	0.621199
H279	H	0.388093	-0.653910	0.637040
H280	H	0.422945	-0.654243	0.566700
H281	H	0.359355	-0.736272	0.665330
H282	H	0.394212	-0.736619	0.594998
O283	O	0.268516	-0.673125	0.738697
C284	C	0.312750	-0.736014	0.742308
H285	H	0.360798	-0.733442	0.702464
H286	H	0.319963	-0.761761	0.791167
C287	C	0.227408	-0.776563	0.783014
C288	C	0.286420	-0.773404	0.734073
H289	H	0.211165	-0.799629	0.777937
H290	H	0.197605	-0.734194	0.780584
H291	H	0.233426	-0.798017	0.823725
H292	H	0.280399	-0.751943	0.693364
H293	H	0.316221	-0.815770	0.736496
O294	O	0.232324	-0.664138	0.599237
C295	C	0.222644	-0.724095	0.629855
H296	H	0.198228	-0.733402	0.683924
H297	H	0.190783	-0.723476	0.609994
C298	C	0.318077	-0.766423	0.550683
C299	C	0.288094	-0.777856	0.617092
H300	H	0.358449	-0.799586	0.542808
H301	H	0.324598	-0.726029	0.530053
H302	H	0.291520	-0.765906	0.534140
H303	H	0.314648	-0.778365	0.633632
H304	H	0.281579	-0.818252	0.637724
H305	H	0.396045	-0.707006	0.692856
O306	O	0.401178	-0.502156	0.612336
C307	C	0.356946	-0.439270	0.608745
H308	H	0.308870	-0.436645	0.613185
H309	H	0.349803	-0.426684	0.649599
C310	C	0.442269	-0.394346	0.538186
C311	C	0.383222	-0.391122	0.543634
H312	H	0.458478	-0.364645	0.498024
H313	H	0.472070	-0.436714	0.540607
H314	H	0.436308	-0.383859	0.572234
H315	H	0.389185	-0.401616	0.509590
H316	H	0.353423	-0.348754	0.541206
O317	O	0.222260	-0.465251	0.589205
C318	C	0.188174	-0.448759	0.550236
H319	H	0.134232	-0.430232	0.576302
H320	H	0.202492	-0.409605	0.502858
C321	C	0.270718	-0.531417	0.504443
C322	C	0.204466	-0.508667	0.536460
H323	H	0.280769	-0.568369	0.495942
H324	H	0.293684	-0.542527	0.530695
H325	H	0.282642	-0.498783	0.464965
H326	H	0.192545	-0.541298	0.575940
H327	H	0.181498	-0.497564	0.510214
O328	O	0.177871	-0.332300	0.544964
C329	C	0.121184	-0.293282	0.528705
H330	H	0.080698	-0.313618	0.566735
H331	H	0.106983	-0.242176	0.526479
C332	C	0.182864	-0.267249	0.415871
C333	C	0.133139	-0.292229	0.462577
H334	H	0.190237	-0.266597	0.375079
H335	H	0.221055	-0.293534	0.426824
H336	H	0.171023	-0.224663	0.414024
H337	H	0.144983	-0.334817	0.464429
H338	H	0.094949	-0.265951	0.451622
H339	H	0.273654	-0.468282	0.658214
H340	H	0.568427	-0.784476	0.752793
H341	H	0.075686	-0.337687	0.755188
O342	O	0.119919	-0.998676	0.501533
C343	C	0.128987	-1.037692	0.561773
H344	H	0.086262	-1.017327	0.600613
H345	H	0.132946	-1.088787	0.573438
C346	C	0.243734	-1.063816	0.511650
C347	C	0.191261	-1.038799	0.559353
H348	H	0.282149	-1.064501	0.510157
H349	H	0.237626	-1.037532	0.471064
H350	H	0.247025	-1.106392	0.521376
H351	H	0.187966	-0.996221	0.549622
H352	H	0.197370	-1.065076	0.599938
O353	O	-0.085838	-0.656758	0.397479
C354	C	-0.095320	-0.593435	0.353229
H355	H	-0.054617	-0.593611	0.305203
H356	H	-0.143326	-0.574055	0.345964
C357	C	-0.145803	-0.549989	0.438571
C358	C	-0.095809	-0.550204	0.379585
H359	H	-0.146108	-0.523321	0.454829
H360	H	-0.139417	-0.592650	0.468384
H361	H	-0.185804	-0.533841	0.432508
H362	H	-0.055809	-0.566360	0.385650
H363	H	-0.102188	-0.507544	0.349774
O364	O	-0.041264	-0.612623	0.264615
C365	C	0.015422	-0.596394	0.225690
H366	H	0.055880	-0.634439	0.246098
H367	H	0.029686	-0.594177	0.174571
C368	C	-0.046266	-0.483542	0.199594
C369	C	0.003423	-0.530267	0.224662
H370	H	-0.053668	-0.442750	0.198956
H371	H	-0.084458	-0.494475	0.225816
H372	H	-0.034373	-0.481702	0.156996
H373	H	-0.008474	-0.532112	0.267261
H374	H	0.041612	-0.519332	0.198446
H375	H	0.060986	-0.822887	0.270075
H376	H	-0.079862	-0.663733	0.449648
O377	O	0.022504	-0.874010	0.397685
C378	C	-0.000513	-0.901978	0.381114
H379	H	-0.042047	-0.863544	0.362486
H380	H	0.039980	-0.923309	0.342016
C381	C	0.026765	-1.002835	0.463873
C382	C	-0.024252	-0.955631	0.440998
H383	H	0.012124	-1.035933	0.500810
H384	H	0.042274	-0.983994	0.475036
H385	H	0.060504	-1.020604	0.431285
H386	H	-0.057987	-0.937857	0.473582
H387	H	-0.039768	-0.974470	0.429842
O388	O	-0.041790	-0.612613	0.488132
C389	C	-0.075798	-0.596268	0.544769
H390	H	-0.098678	-0.634238	0.585251
H391	H	-0.041166	-0.594065	0.559051
C392	C	-0.100721	-0.483462	0.482940
C393	C	-0.128827	-0.530095	0.532659
H394	H	-0.133430	-0.442643	0.475471
H395	H	-0.077807	-0.494474	0.444782
H396	H	-0.071861	-0.481635	0.494848
H397	H	-0.157680	-0.531927	0.520748
H398	H	-0.151747	-0.519082	0.570815
H399	H	0.060486	-0.822870	0.590677
H400	H	-0.088349	-0.993100	0.578027
O401	O	-0.264630	-0.666655	0.433109
C402	C	-0.248128	-0.700724	0.394122
H403	H	-0.199197	-0.740025	0.393542
H404	H	-0.286101	-0.723554	0.414338
C405	C	-0.305000	-0.605739	0.325724
C406	C	-0.244900	-0.654006	0.325007
H407	H	-0.303011	-0.576922	0.283091
H408	H	-0.316120	-0.582786	0.351991
H409	H	-0.336638	-0.624772	0.342574
H410	H	-0.213264	-0.634974	0.308166
H411	H	-0.233774	-0.676955	0.298735
O412	O	-0.132026	-0.819570	0.606230
C413	C	-0.065260	-0.835986	0.572285
H414	H	-0.055973	-0.831979	0.521874
H415	H	-0.046120	-0.801738	0.568568
C416	C	-0.042131	-0.910517	0.670237
C417	C	-0.030726	-0.905600	0.608323
H418	H	-0.020828	-0.953456	0.692468
H419	H	-0.087113	-0.899455	0.693107
H420	H	-0.026182	-0.881973	0.667130
H421	H	-0.046682	-0.934137	0.611430
H422	H	0.014254	-0.916668	0.585454
H423	H	0.019779	-0.863579	0.549754
H424	H	-0.137077	-0.713589	0.399501
