data_functionalizedCrystal
_audit_creation_method	'MofGen! by Chris Wilmer'
_symmetry_space_group_name_H-M	'P1'
_symmetry_Int_Tables_number	1
_symmetry_cell_setting	triclinic
loop_
_symmetry_equiv_pos_as_xyz
  x,y,z
_cell_length_a	27.731994
_cell_length_b	27.732048
_cell_length_c	26.809956
_cell_angle_alpha	90.009578
_cell_angle_beta	90.009960
_cell_angle_gamma	82.631595
loop_
_atom_site_label
_atom_site_type_symbol
_atom_site_fract_x
_atom_site_fract_y
_atom_site_fract_z
O1	O	0.640953	0.057391	0.041414
O2	O	1.140953	0.557391	0.541414
O3	O	0.500155	0.066164	0.041431
O4	O	1.000155	0.566164	0.541431
O5	O	0.574927	-0.008620	0.041412
O6	O	1.074927	0.491380	0.541412
O7	O	0.566181	0.132175	0.041432
O8	O	1.066181	0.632175	0.541432
O9	O	0.574904	-0.008620	-0.041547
O10	O	1.074904	0.491380	0.458453
O11	O	0.500132	0.066164	-0.041528
O12	O	1.000132	0.566164	0.458472
O13	O	0.640930	0.057391	-0.041545
O14	O	1.140930	0.557391	0.458455
Zn15	Zn	0.570527	0.061778	-0.054708
Zn16	Zn	1.070527	0.561778	0.445292
Zn17	Zn	0.570558	0.061778	0.054594
Zn18	Zn	1.070558	0.561778	0.554594
O19	O	0.566158	0.132175	-0.041527
O20	O	1.066158	0.632175	0.458473
C21	C	0.482137	0.065984	-0.000046
C22	C	0.982137	0.565984	0.499954
C23	C	0.428480	0.065442	-0.000040
C24	C	0.928480	0.565442	0.499960
C25	C	0.095749	0.062026	-0.045281
C26	C	0.595749	0.562026	0.454719
C27	C	-0.105909	0.059964	-0.045287
C28	C	0.394091	0.559964	0.454713
O29	O	-0.131992	0.059677	-0.083746
O30	O	0.368008	0.559677	0.416254
N31	N	-0.131111	0.059708	-0.000066
N32	N	0.368889	0.559708	0.499934
C33	C	-0.105896	0.059964	0.045160
C34	C	0.394104	0.559964	0.545160
O35	O	-0.131958	0.059694	0.083623
O36	O	0.368042	0.559694	0.583623
C37	C	0.095762	0.062023	0.045165
C38	C	0.595762	0.562023	0.545165
C39	C	0.120961	0.062283	-0.000059
C40	C	0.620961	0.562283	0.499941
C41	C	0.120949	0.062286	-0.090501
C42	C	0.620949	0.562286	0.409499
C43	C	0.171360	0.062804	-0.090499
C44	C	0.671360	0.562804	0.409501
C45	C	0.196572	0.063062	-0.045277
C46	C	0.696572	0.563062	0.454723
C47	C	0.171372	0.062801	-0.000057
C48	C	0.671372	0.562801	0.499943
C49	C	0.120977	0.062275	0.090390
C50	C	0.620977	0.562275	0.590390
C51	C	0.171395	0.062789	0.090388
C52	C	0.671395	0.562789	0.590388
C53	C	0.196594	0.063050	0.045164
C54	C	0.696594	0.563050	0.545164
C55	C	0.246996	0.063577	0.045167
C56	C	0.746996	0.563577	0.545167
N57	N	0.272198	0.063833	-0.000054
N58	N	0.772198	0.563833	0.499946
C59	C	0.246986	0.063576	-0.045276
C60	C	0.746986	0.563576	0.454724
C61	C	-0.211769	0.058885	0.045154
C62	C	0.288231	0.558885	0.545154
C63	C	-0.262183	0.058371	0.045152
C64	C	0.237817	0.558371	0.545152
C65	C	-0.262193	0.058370	-0.045294
C66	C	0.237807	0.558370	0.454706
C67	C	-0.211778	0.058887	-0.045293
C68	C	0.288222	0.558887	0.454707
C69	C	-0.186566	0.059141	-0.000067
C70	C	0.313434	0.559141	0.499933
C71	C	0.352853	0.064664	-0.045268
C72	C	0.852853	0.564664	0.454732
C73	C	0.403268	0.065184	-0.045262
C74	C	0.903268	0.565184	0.454738
C75	C	0.403274	0.065182	0.045184
C76	C	0.903274	0.565182	0.545184
C77	C	0.352863	0.064665	0.045179
C78	C	0.852863	0.564665	0.545179
C79	C	0.327654	0.064404	-0.000052
C80	C	0.827654	0.564404	0.499948
O81	O	0.273111	0.063859	0.083606
O82	O	0.773111	0.563859	0.583606
O83	O	0.273059	0.063835	-0.083733
O84	O	0.773059	0.563835	0.416267
C85	C	0.045338	0.061508	-0.045283
C86	C	0.545338	0.561508	0.454717
C87	C	0.020139	0.061247	-0.000063
C88	C	0.520139	0.561247	0.499937
C89	C	0.045351	0.061505	0.045160
C90	C	0.545351	0.561505	0.545160
C91	C	-0.030275	0.060734	-0.000064
C92	C	0.469725	0.560734	0.499936
C93	C	-0.055487	0.060476	-0.045286
C94	C	0.444513	0.560476	0.454714
C95	C	-0.030285	0.060732	-0.090507
C96	C	0.469715	0.560732	0.409493
C97	C	0.020126	0.061250	-0.090505
C98	C	0.520126	0.561250	0.409495
C99	C	0.020149	0.061249	0.090381
C100	C	0.520149	0.561249	0.590381
C101	C	-0.030263	0.060732	0.090375
C102	C	0.469737	0.560732	0.590375
C103	C	-0.055475	0.060474	0.045153
C104	C	0.444525	0.560474	0.545153
C105	C	0.574732	-0.026627	-0.000069
C106	C	1.074732	0.473373	0.499931
C107	C	0.574179	-0.080282	-0.000073
C108	C	1.074179	0.419718	0.499927
C109	C	0.614884	-0.419105	-0.000052
C110	C	1.114884	0.080895	0.499948
C111	C	0.612833	-0.620764	-0.000045
C112	C	1.112833	-0.120764	0.499955
O113	O	0.650055	-0.652027	-0.000028
O114	O	1.150055	-0.152027	0.499972
N115	N	0.568496	-0.639879	-0.000040
N116	N	1.068496	-0.139879	0.499960
C117	C	0.524670	-0.608576	-0.000033
C118	C	1.024670	-0.108576	0.499967
O119	O	0.486912	-0.629462	-0.000024
O120	O	0.986912	-0.129462	0.499976
C121	C	0.526721	-0.406918	-0.000037
C122	C	1.026721	0.093082	0.499963
C123	C	0.571061	-0.387805	-0.000047
C124	C	1.071061	0.112195	0.499953
C125	C	0.659220	-0.399992	-0.000061
C126	C	1.159220	0.100008	0.499939
C127	C	0.659732	-0.349580	-0.000066
C128	C	1.159732	0.150420	0.499934
C129	C	0.615908	-0.318281	-0.000061
C130	C	1.115908	0.181719	0.499939
C131	C	0.571573	-0.337394	-0.000052
C132	C	1.071573	0.162606	0.499948
C133	C	0.482895	-0.375615	-0.000027
C134	C	0.982895	0.124385	0.499973
C135	C	0.483412	-0.325198	-0.000027
C136	C	0.983412	0.174802	0.499973
C137	C	0.527751	-0.306086	-0.000037
C138	C	1.027751	0.193914	0.499963
C139	C	0.528262	-0.255683	-0.000051
C140	C	1.028262	0.244317	0.499949
N141	N	0.572598	-0.236567	-0.000056
N142	N	1.072598	0.263433	0.499944
C143	C	0.616421	-0.267867	-0.000061
C144	C	1.116421	0.232133	0.499939
C145	C	0.523596	-0.714450	-0.000032
C146	C	1.023596	-0.214450	0.499968
C147	C	0.523083	-0.764864	-0.000032
C148	C	1.023083	-0.264864	0.499968
C149	C	0.611246	-0.777049	-0.000043
C150	C	1.111246	-0.277049	0.499957
C151	C	0.611759	-0.726633	-0.000047
C152	C	1.111759	-0.226633	0.499953
C153	C	0.567932	-0.695335	-0.000037
C154	C	1.067932	-0.195335	0.499963
C155	C	0.617494	-0.161998	-0.000071
C156	C	1.117494	0.338002	0.499929
C157	C	0.618002	-0.111581	-0.000078
C158	C	1.118002	0.388419	0.499922
C159	C	0.529839	-0.099401	-0.000064
C160	C	1.029839	0.400599	0.499936
C161	C	0.529331	-0.149813	-0.000060
C162	C	1.029331	0.350187	0.499940
C163	C	0.573162	-0.181111	-0.000062
C164	C	1.073162	0.318889	0.499938
O165	O	0.491060	-0.224391	-0.000063
O166	O	0.991060	0.275609	0.499937
O167	O	0.654174	-0.246971	-0.000060
O168	O	1.154174	0.253029	0.499940
C169	C	0.614372	-0.469517	-0.000047
C170	C	1.114372	0.030483	0.499953
C171	C	0.570036	-0.488629	-0.000038
C172	C	1.070036	0.011371	0.499962
C173	C	0.526213	-0.457330	-0.000033
C174	C	1.026213	0.042670	0.499967
C175	C	0.569523	-0.539043	-0.000038
C176	C	1.069523	-0.039043	0.499962
C177	C	0.613346	-0.570343	-0.000043
C178	C	1.113346	-0.070343	0.499957
C179	C	0.657683	-0.551228	-0.000048
C180	C	1.157683	-0.051228	0.499952
C181	C	0.658195	-0.500816	-0.000052
C182	C	1.158195	-0.000816	0.499948
C183	C	0.481876	-0.476445	-0.000028
C184	C	0.981876	0.023555	0.499972
C185	C	0.481367	-0.526857	-0.000024
C186	C	0.981367	-0.026857	0.499976
C187	C	0.525191	-0.558157	-0.000029
C188	C	1.025191	-0.058157	0.499971
C189	C	0.658949	0.057571	-0.000067
C190	C	1.158949	0.557571	0.499933
C191	C	0.712605	0.058114	-0.000070
C192	C	1.212605	0.558114	0.499930
C193	C	0.566353	0.150182	-0.000045
C194	C	1.066353	0.650182	0.499955
C195	C	0.566906	0.203837	-0.000037
C196	C	1.066906	0.703837	0.499963
N197	N	0.570510	0.061777	-0.129304
N198	N	1.070510	0.561777	0.370696
C199	C	0.599649	0.090883	-0.473930
C200	C	1.099649	0.590883	0.026070
C201	C	0.599665	0.090882	-0.682808
C202	C	1.099665	0.590882	-0.182808
O203	O	0.624426	0.115623	-0.709811
O204	O	1.124426	0.615623	-0.209811
N205	N	0.570569	0.061773	-0.708931
N206	N	1.070569	0.561773	-0.208931
C207	C	0.541470	0.032659	-0.682833
C208	C	1.041470	0.532659	-0.182833
O209	O	0.516727	0.007895	-0.709845
O210	O	1.016727	0.507895	-0.209845
C211	C	0.541458	0.032657	-0.473956
C212	C	1.041458	0.532657	0.026044
C213	C	0.570551	0.061772	-0.447835
C214	C	1.070551	0.561772	0.052165
C215	C	0.628741	0.119995	-0.447809
C216	C	1.128741	0.619995	0.052191
C217	C	0.628734	0.119997	-0.395592
C218	C	1.128734	0.619997	0.104408
C219	C	0.599637	0.090886	-0.369497
C220	C	1.099637	0.590886	0.130503
C221	C	0.570545	0.061774	-0.395618
C222	C	1.070545	0.561774	0.104382
C223	C	0.512362	0.003540	-0.447858
C224	C	1.012362	0.503540	0.052142
C225	C	0.512362	0.003542	-0.395636
C226	C	1.012362	0.503542	0.104364
C227	C	0.541455	0.032657	-0.369514
C228	C	1.041455	0.532657	0.130486
C229	C	0.541441	0.032665	-0.317307
C230	C	1.041441	0.532665	0.182693
N231	N	0.570536	0.061775	-0.291183
N232	N	1.070536	0.561775	0.208817
C233	C	0.599634	0.090885	-0.317278
C234	C	1.099634	0.590885	0.182722
C235	C	0.541478	0.032662	-0.792496
C236	C	1.041478	0.532662	-0.292496
C237	C	0.541481	0.032663	-0.844715
C238	C	1.041481	0.532663	-0.344715
C239	C	0.599676	0.090886	-0.844686
C240	C	1.099676	0.590886	-0.344686
C241	C	0.599670	0.090888	-0.792466
C242	C	1.099670	0.590888	-0.292466
C243	C	0.570574	0.061772	-0.766372
C244	C	1.070574	0.561772	-0.266372
C245	C	0.599619	0.090887	-0.207620
C246	C	1.099619	0.590887	0.292380
C247	C	0.599608	0.090888	-0.155399
C248	C	1.099608	0.590888	0.344601
C249	C	0.541415	0.032663	-0.155433
C250	C	1.041415	0.532663	0.344567
C251	C	0.541423	0.032664	-0.207649
C252	C	1.041423	0.532664	0.292351
C253	C	0.570529	0.061777	-0.233742
C254	C	1.070529	0.561777	0.266258
O255	O	0.516696	0.007933	-0.290272
O256	O	1.016696	0.507933	0.209728
O257	O	0.624382	0.115637	-0.290257
O258	O	1.124382	0.615637	0.209743
C259	C	0.599655	0.090881	-0.526146
C260	C	1.099655	0.590881	-0.026146
C261	C	0.570564	0.061768	-0.552267
C262	C	1.070564	0.561768	-0.052267
C263	C	0.541466	0.032658	-0.526172
C264	C	1.041466	0.532658	-0.026172
C265	C	0.570566	0.061769	-0.604486
C266	C	1.070566	0.561769	-0.104486
C267	C	0.599664	0.090880	-0.630581
C268	C	1.099664	0.590880	-0.130581
C269	C	0.628759	0.119990	-0.604458
C270	C	1.128759	0.619990	-0.104458
C271	C	0.628753	0.119991	-0.552241
C272	C	1.128753	0.619991	-0.052241
C273	C	0.512370	0.003548	-0.552296
C274	C	1.012370	0.503548	-0.052296
C275	C	0.512378	0.003549	-0.604512
C276	C	1.012378	0.503549	-0.104512
C277	C	0.541476	0.032660	-0.630608
C278	C	1.041476	0.532660	-0.130608
N279	N	0.570578	0.061774	0.129190
N280	N	1.070578	0.561774	0.629190
H281	H	0.100426	0.062075	-0.127329
H282	H	0.600426	0.562075	0.372671
H283	H	0.447722	-0.299716	-0.000018
H284	H	0.947722	0.200284	0.499982
H285	H	0.488671	-0.020169	-0.469117
H286	H	0.988671	0.479831	0.030883
H287	H	0.191920	0.062995	0.127217
H288	H	0.691920	0.562995	0.627217
O289	O	-0.187373	0.059114	-0.089267
O290	O	0.312627	0.559114	0.410733
C291	C	-0.220445	0.058790	-0.129178
C292	C	0.279555	0.558790	0.370822
H293	H	-0.254263	0.043117	-0.115919
H294	H	0.245737	0.543117	0.384081
H295	H	-0.231171	0.097531	-0.143078
H296	H	0.268829	0.597531	0.356922
C297	C	-0.154861	0.046527	-0.188195
C298	C	0.345139	0.546527	0.311805
C299	C	-0.196395	0.027273	-0.171911
C300	C	0.303605	0.527273	0.328089
H301	H	-0.140026	0.027088	-0.214556
H302	H	0.359974	0.527088	0.285444
H303	H	-0.132580	0.046747	-0.161307
H304	H	0.367420	0.546747	0.338693
H305	H	-0.163806	0.078810	-0.199774
H306	H	0.336194	0.578810	0.300226
H307	H	-0.187449	-0.005007	-0.160326
H308	H	0.312551	0.494993	0.339674
H309	H	-0.218675	0.027047	-0.198798
H310	H	0.281325	0.527047	0.301202
O311	O	0.513271	0.004313	-0.870064
O312	O	1.013271	0.504313	-0.370064
C313	C	0.527026	-0.044847	-0.857298
C314	C	1.027026	0.455153	-0.357298
H315	H	0.566042	-0.049795	-0.842937
H316	H	1.066042	0.450205	-0.342937
H317	H	0.501770	-0.055886	-0.826993
H318	H	1.001770	0.444114	-0.326993
C319	C	0.475543	-0.070871	-0.921329
C320	C	0.975543	0.429129	-0.421329
C321	C	0.523465	-0.076949	-0.903694
C322	C	1.023465	0.423051	-0.403694
H323	H	0.473345	-0.090674	-0.949947
H324	H	0.973345	0.409326	-0.449947
H325	H	0.466275	-0.037751	-0.929928
H326	H	0.966275	0.462249	-0.429928
H327	H	0.454502	-0.080070	-0.896070
H328	H	0.954502	0.419930	-0.396070
H329	H	0.544504	-0.067744	-0.928950
H330	H	1.044504	0.432256	-0.428950
H331	H	0.532737	-0.110068	-0.895100
H332	H	1.032737	0.389932	-0.395100
H333	H	0.652449	0.143695	-0.625713
H334	H	1.152449	0.643695	-0.125713
O335	O	0.661063	-0.092993	-0.000173
O336	O	1.161063	0.407007	0.499827
C337	C	0.663985	-0.064195	-0.043134
C338	C	1.163985	0.435805	0.456866
H339	H	0.638807	-0.075934	-0.073161
H340	H	1.138807	0.424066	0.426839
H341	H	0.652535	-0.024347	-0.033422
H342	H	1.152535	0.475653	0.466578
C343	C	0.747575	-0.056290	-0.025741
C344	C	1.247575	0.443710	0.474259
C345	C	0.716655	-0.070711	-0.062623
C346	C	1.216655	0.429289	0.437377
H347	H	0.780065	-0.060307	-0.037762
H348	H	1.280065	0.439693	0.462238
H349	H	0.745607	-0.075690	0.003204
H350	H	1.245607	0.424310	0.503204
H351	H	0.738028	-0.023085	-0.017651
H352	H	1.238028	0.476915	0.482349
H353	H	0.726199	-0.103917	-0.070708
H354	H	1.226199	0.396083	0.429292
H355	H	0.718626	-0.051316	-0.091569
H356	H	1.218626	0.448684	0.408431
O357	O	0.328458	0.064400	0.089152
O358	O	0.828458	0.564400	0.589152
C359	C	0.361521	0.064756	0.129066
C360	C	0.861521	0.564756	0.629066
H361	H	0.399574	0.049815	0.115808
H362	H	0.899574	0.549815	0.615808
H363	H	0.361517	0.103608	0.142973
H364	H	0.861517	0.603608	0.642973
C365	C	0.299503	0.051197	0.188075
C366	C	0.799503	0.551197	0.688075
C367	C	0.346240	0.032843	0.171792
C368	C	0.846240	0.532843	0.671792
H369	H	0.290076	0.031513	0.214431
H370	H	0.790076	0.531513	0.714431
H371	H	0.277227	0.050959	0.161184
H372	H	0.777227	0.550959	0.661184
H373	H	0.299506	0.083573	0.199660
H374	H	0.799506	0.583573	0.699660
H375	H	0.346235	0.000470	0.160202
H376	H	0.846235	0.500470	0.660202
H377	H	0.368516	0.033075	0.198682
H378	H	0.868516	0.533075	0.698682
H379	H	0.488676	-0.020159	-0.531055
H380	H	0.988676	0.479841	-0.031055
H381	H	0.488667	-0.020169	-0.374392
H382	H	0.988667	0.479831	0.125608
O383	O	0.427675	0.065413	-0.089240
O384	O	0.927675	0.565413	0.410760
C385	C	0.394606	0.065085	-0.129153
C386	C	0.894606	0.565085	0.370847
H387	H	0.360790	0.049407	-0.115896
H388	H	0.860790	0.549407	0.384104
H389	H	0.383875	0.103825	-0.143052
H390	H	0.883875	0.603825	0.356948
C391	C	0.460193	0.052830	-0.188166
C392	C	0.960193	0.552830	0.311834
C393	C	0.418661	0.033570	-0.171884
C394	C	0.918661	0.533570	0.328116
H395	H	0.475031	0.033393	-0.214525
H396	H	0.975031	0.533393	0.285475
H397	H	0.482472	0.053053	-0.161276
H398	H	0.982472	0.553053	0.338724
H399	H	0.451244	0.085113	-0.199745
H400	H	0.951244	0.585113	0.300255
H401	H	0.427611	0.001291	-0.160299
H402	H	0.927611	0.501291	0.339701
H403	H	0.396384	0.033341	-0.198773
H404	H	0.896384	0.533341	0.301227
H405	H	0.517727	0.008962	-0.228918
H406	H	1.017727	0.508962	0.271082
O407	O	-0.286582	0.058103	0.089128
O408	O	0.213418	0.558103	0.589128
C409	C	-0.253514	0.058452	0.129039
C410	C	0.246486	0.558452	0.629039
H411	H	-0.215463	0.043510	0.115775
H412	H	0.284537	0.543510	0.615775
H413	H	-0.253513	0.097301	0.142949
H414	H	0.246487	0.597301	0.642949
C415	C	-0.315527	0.044891	0.188051
C416	C	0.184473	0.544891	0.688051
C417	C	-0.268794	0.026535	0.171762
C418	C	0.231206	0.526535	0.671762
H419	H	-0.324953	0.025205	0.214406
H420	H	0.175047	0.525205	0.714406
H421	H	-0.337807	0.044658	0.161163
H422	H	0.162193	0.544658	0.661163
H423	H	-0.315520	0.077265	0.199640
H424	H	0.184480	0.577265	0.699640
H425	H	-0.268802	-0.005836	0.160168
H426	H	0.231198	0.494164	0.660168
H427	H	-0.246514	0.026762	0.198649
H428	H	0.253486	0.526762	0.698649
H429	H	0.040671	0.061457	0.127207
H430	H	0.540671	0.561457	0.627207
H431	H	0.423810	0.065394	0.082003
H432	H	0.923810	0.565394	0.582003
H433	H	0.487905	-0.688970	-0.000025
H434	H	0.987905	-0.188970	0.499975
O435	O	0.484102	-0.024780	-0.629807
O436	O	0.984102	0.475220	-0.129807
C437	C	0.458411	-0.050463	-0.595573
C438	C	0.958411	0.449537	-0.095573
H439	H	0.478439	-0.053419	-0.558344
H440	H	0.978439	0.446581	-0.058344
H441	H	0.420317	-0.030284	-0.590029
H442	H	0.920317	0.469716	-0.090029
C443	C	0.430155	-0.098156	-0.661681
C444	C	0.930155	0.401844	-0.161681
C445	C	0.454756	-0.101790	-0.615957
C446	C	0.954756	0.398210	-0.115957
H447	H	0.427898	-0.129816	-0.674255
H448	H	0.927898	0.370184	-0.174255
H449	H	0.447462	-0.080852	-0.684746
H450	H	0.947462	0.419148	-0.184746
H451	H	0.398413	-0.081338	-0.657054
H452	H	0.898413	0.418662	-0.157054
H453	H	0.486500	-0.118602	-0.620584
H454	H	0.986500	0.381398	-0.120584
H455	H	0.437454	-0.119098	-0.592893
H456	H	0.937454	0.380902	-0.092893
O457	O	0.328307	0.064477	-0.089172
O458	O	0.828307	0.564477	0.410828
C459	C	0.293361	0.106065	-0.091882
C460	C	0.793361	0.606065	0.408118
H461	H	0.283877	0.119948	-0.052616
H462	H	0.783877	0.619948	0.447384
H463	H	0.308735	0.135591	-0.114188
H464	H	0.808735	0.635591	0.385812
C465	C	0.258882	0.075803	-0.165975
C466	C	0.758882	0.575803	0.334025
C467	C	0.247230	0.092851	-0.117749
C468	C	0.747230	0.592851	0.382251
H469	H	0.230427	0.067654	-0.181934
H470	H	0.730427	0.567654	0.318066
H471	H	0.282427	0.047785	-0.164152
H472	H	0.782427	0.547785	0.335848
H473	H	0.271694	0.100411	-0.184558
H474	H	0.771694	0.600411	0.315442
H475	H	0.234424	0.068241	-0.099166
H476	H	0.734424	0.568241	0.400834
H477	H	0.223682	0.120865	-0.119570
H478	H	0.723682	0.620865	0.380430
O479	O	0.439336	-0.445995	-0.000091
O480	O	0.939336	0.054005	0.499909
C481	C	0.436975	-0.416487	-0.043066
C482	C	0.936975	0.083513	0.456934
H483	H	0.475320	-0.414223	-0.057394
H484	H	0.975320	0.085777	0.442606
H485	H	0.415020	-0.432920	-0.073148
H486	H	0.915020	0.067080	0.426852
C487	C	0.365160	-0.367895	-0.012420
C488	C	0.865160	0.132105	0.487580
C489	C	0.412257	-0.365111	-0.030015
C490	C	0.912257	0.134889	0.469985
H491	H	0.349911	-0.336204	-0.004371
H492	H	0.849911	0.163796	0.495629
H493	H	0.366749	-0.387776	0.016532
H494	H	0.866749	0.112224	0.516532
H495	H	0.346871	-0.381590	-0.037491
H496	H	0.846871	0.118410	0.462509
H497	H	0.430547	-0.351421	-0.004942
H498	H	0.930547	0.148579	0.495058
H499	H	0.410670	-0.345226	-0.058963
H500	H	0.910670	0.154774	0.441037
H501	H	0.517723	0.008963	-0.134177
H502	H	1.017723	0.508963	0.365823
H503	H	0.695837	-0.334024	-0.000072
H504	H	1.195837	0.165976	0.499928
O505	O	0.486218	-0.168301	-0.000030
O506	O	0.986218	0.331699	0.499970
C507	C	0.447649	-0.129862	-0.000041
C508	C	0.947649	0.370138	0.499959
H509	H	0.460944	-0.095707	0.015653
H510	H	0.960944	0.404293	0.515653
H511	H	0.434135	-0.122639	-0.039839
H512	H	0.934135	0.377361	0.460161
C513	C	0.389484	-0.185719	0.013229
C514	C	0.889484	0.314281	0.513229
C515	C	0.405812	-0.143770	0.032510
C516	C	0.905812	0.356230	0.532510
H517	H	0.363676	-0.194298	0.033306
H518	H	0.863676	0.305702	0.533306
H519	H	0.415468	-0.211616	0.013235
H520	H	0.915468	0.288384	0.513235
H521	H	0.378226	-0.179694	-0.019936
H522	H	0.878226	0.320306	0.480064
H523	H	0.417075	-0.149797	0.065671
H524	H	0.917075	0.350203	0.565671
H525	H	0.379829	-0.117873	0.032511
H526	H	0.879829	0.382127	0.532511
O527	O	0.627799	0.119228	-0.130004
O528	O	1.127799	0.619228	0.369996
C529	C	0.598075	0.152416	-0.099794
C530	C	1.098075	0.652416	0.400206
H531	H	0.559573	0.157876	-0.115540
H532	H	1.059573	0.657876	0.384460
H533	H	0.597369	0.137489	-0.060220
H534	H	1.097369	0.637489	0.439780
C535	C	0.665858	0.194752	-0.079646
C536	C	1.165858	0.694752	0.420354
C537	C	0.618570	0.201461	-0.098987
C538	C	1.118570	0.701461	0.401013
H539	H	0.678501	0.225004	-0.079146
H540	H	1.178501	0.725004	0.420854
H541	H	0.685884	0.172392	-0.099998
H542	H	1.185884	0.672392	0.400002
H543	H	0.665263	0.182311	-0.046669
H544	H	1.165263	0.682311	0.453331
H545	H	0.619166	0.213896	-0.131966
H546	H	1.119166	0.713896	0.368034
H547	H	0.598545	0.223825	-0.078641
H548	H	1.098545	0.723825	0.421359
H549	H	0.623361	0.114596	-0.771202
H550	H	1.123361	0.614596	-0.271202
O551	O	0.513132	0.004437	-0.767178
O552	O	1.013132	0.504437	-0.267178
C553	C	0.463974	0.018179	-0.779968
C554	C	0.963974	0.518179	-0.279968
H555	H	0.459017	0.057198	-0.794310
H556	H	0.959017	0.557198	-0.294310
H557	H	0.452950	-0.007076	-0.810295
H558	H	0.952950	0.492924	-0.310295
C559	C	0.437950	-0.033326	-0.715985
C560	C	0.937950	0.466674	-0.215985
C561	C	0.431862	0.014599	-0.733595
C562	C	0.931862	0.514599	-0.233595
H563	H	0.418141	-0.035536	-0.687381
H564	H	0.918141	0.464464	-0.187381
H565	H	0.471069	-0.042586	-0.707369
H566	H	0.971069	0.457414	-0.207369
H567	H	0.428764	-0.054366	-0.741262
H568	H	0.928764	0.445634	-0.241262
H569	H	0.441053	0.035638	-0.708321
H570	H	0.941053	0.535638	-0.208321
H571	H	0.398743	0.023863	-0.742206
H572	H	0.898743	0.523863	-0.242206
O573	O	0.660115	-0.192327	-0.000097
O574	O	1.160115	0.307673	0.499903
C575	C	0.699352	-0.164638	-0.000094
C576	C	1.199352	0.335362	0.499906
H577	H	0.686783	-0.126919	-0.015799
H578	H	1.186783	0.373081	0.484201
H579	H	0.712973	-0.161141	0.039703
H580	H	1.212973	0.338859	0.539703
C581	C	0.756229	-0.236397	-0.013345
C582	C	1.256229	0.263603	0.486655
C583	C	0.740792	-0.190071	-0.032638
C584	C	1.240792	0.309929	0.467362
H585	H	0.781793	-0.252086	-0.033418
H586	H	1.281793	0.247914	0.466582
H587	H	0.729795	-0.255052	-0.013345
H588	H	1.229795	0.244948	0.486655
H589	H	0.767576	-0.233476	0.019819
H590	H	1.267576	0.266524	0.519819
H591	H	0.729440	-0.192992	-0.065799
H592	H	1.229440	0.307008	0.434201
H593	H	0.767225	-0.171416	-0.032645
H594	H	1.267225	0.328584	0.467355
H595	H	0.040639	0.061463	-0.127331
H596	H	0.540639	0.561463	0.372669
H597	H	-0.050822	0.060525	-0.127329
H598	H	0.449178	0.560525	0.372671
O599	O	-0.054661	0.060458	0.134354
O600	O	0.445339	0.560458	0.634354
C601	C	-0.021593	0.060808	0.174265
C602	C	0.478407	0.560808	0.674265
H603	H	0.016459	0.045871	0.161000
H604	H	0.516459	0.545871	0.661000
H605	H	-0.021596	0.099657	0.188179
H606	H	0.478404	0.599657	0.688179
C607	C	-0.083603	0.047233	0.233276
C608	C	0.416397	0.547233	0.733276
C609	C	-0.036867	0.028884	0.216985
C610	C	0.463133	0.528884	0.716985
H611	H	-0.093026	0.027543	0.259629
H612	H	0.406974	0.527543	0.759629
H613	H	-0.105882	0.046999	0.206388
H614	H	0.394118	0.546999	0.706388
H615	H	-0.083600	0.079607	0.244868
H616	H	0.416400	0.579607	0.744868
H617	H	-0.036872	-0.003487	0.205388
H618	H	0.463128	0.496513	0.705388
H619	H	-0.014588	0.029112	0.243872
H620	H	0.485412	0.529112	0.743872
H621	H	0.623366	0.114591	-0.865942
H622	H	1.123366	0.614591	-0.365942
H623	H	0.191873	0.063014	-0.127325
H624	H	0.691873	0.563014	0.372675
H625	H	0.694908	-0.425472	-0.000064
H626	H	1.194908	0.074528	0.499936
H627	H	0.652444	0.143700	-0.530978
H628	H	1.152444	0.643700	-0.030978
H629	H	0.694301	-0.485260	-0.000060
H630	H	1.194301	0.014740	0.499940
H631	H	-0.191246	0.059091	0.081984
H632	H	0.308754	0.559091	0.581984
O633	O	-0.286696	0.058028	-0.089212
O634	O	0.213304	0.558028	0.410788
C635	C	-0.310074	0.015854	-0.091907
C636	C	0.189926	0.515854	0.408093
H637	H	-0.290826	-0.013257	-0.066244
H638	H	0.209174	0.486743	0.433756
H639	H	-0.349589	0.024933	-0.079755
H640	H	0.150411	0.524933	0.420245
C641	C	-0.331874	0.032598	-0.177454
C642	C	0.168126	0.532598	0.322546
C643	C	-0.308231	-0.003157	-0.145937
C644	C	0.191769	0.496843	0.354063
H645	H	-0.330739	0.020872	-0.210783
H646	H	0.169261	0.520872	0.289217
H647	H	-0.316125	0.061013	-0.175638
H648	H	0.183875	0.561013	0.324362
H649	H	-0.364801	0.040161	-0.167322
H650	H	0.135199	0.540161	0.332678
H651	H	-0.275303	-0.010715	-0.156066
H652	H	0.224697	0.489285	0.343934
H653	H	-0.323974	-0.031574	-0.147756
H654	H	0.176026	0.468426	0.352244
H655	H	0.647863	-0.711076	-0.000054
H656	H	1.147863	-0.211076	0.499946
O657	O	0.096585	0.061995	0.134366
O658	O	0.596585	0.561995	0.634366
C659	C	0.129658	0.062340	0.174274
C660	C	0.629658	0.562340	0.674274
H661	H	0.167708	0.047404	0.161004
H662	H	0.667708	0.547404	0.661004
H663	H	0.129656	0.101187	0.188192
H664	H	0.629656	0.601187	0.688192
C665	C	0.067653	0.048761	0.233290
C666	C	0.567653	0.548761	0.733290
C667	C	0.114386	0.030412	0.216993
C668	C	0.614386	0.530412	0.716993
H669	H	0.058233	0.029068	0.259642
H670	H	0.558233	0.529068	0.759642
H671	H	0.045371	0.048530	0.206404
H672	H	0.545371	0.548530	0.706404
H673	H	0.067658	0.081133	0.244885
H674	H	0.567658	0.581133	0.744885
H675	H	0.114380	-0.001957	0.205392
H676	H	0.614380	0.498043	0.705392
H677	H	0.136668	0.030637	0.243878
H678	H	0.636668	0.530637	0.743878
H679	H	0.646929	-0.802541	-0.000047
H680	H	1.146929	-0.302541	0.499953
H681	H	0.486977	-0.780420	-0.000033
H682	H	0.986977	-0.280420	0.499967
O683	O	0.439810	-0.394148	0.000075
O684	O	0.939810	0.105852	0.500075
C685	C	0.413135	-0.378097	0.043040
C686	C	0.913135	0.121903	0.543040
H687	H	0.439084	-0.367805	0.073062
H688	H	0.939084	0.132195	0.573062
H689	H	0.385951	-0.345030	0.033331
H690	H	0.885951	0.154970	0.533331
C691	C	0.353793	-0.431776	0.025660
C692	C	0.853793	0.068224	0.525660
C693	C	0.385665	-0.419139	0.062535
C694	C	0.885665	0.080861	0.562535
H695	H	0.336847	-0.457092	0.037685
H696	H	0.836847	0.042908	0.537685
H697	H	0.371764	-0.442589	-0.003287
H698	H	0.871764	0.057411	0.496713
H699	H	0.331144	-0.404217	0.017573
H700	H	0.831144	0.095783	0.517573
H701	H	0.408317	-0.446697	0.070617
H702	H	0.908317	0.053303	0.570617
H703	H	0.367698	-0.408332	0.091485
H704	H	0.867698	0.091668	0.591485
H705	H	0.494160	-0.073908	-0.000062
H706	H	0.994160	0.426092	0.499938
O707	O	0.700285	-0.581588	0.000015
O708	O	1.200285	-0.081588	0.500015
C709	C	0.727232	-0.572979	0.042984
C710	C	1.227232	-0.072979	0.542984
H711	H	0.715080	-0.534638	0.057305
H712	H	1.215080	-0.034638	0.557305
H713	H	0.720834	-0.600500	0.073073
H714	H	1.220834	-0.100500	0.573073
C715	C	0.796653	-0.625284	0.012339
C716	C	1.296653	-0.125284	0.512339
C717	C	0.781730	-0.578191	0.029927
C718	C	1.281730	-0.078191	0.529927
H719	H	0.830270	-0.628500	0.004286
H720	H	1.330270	-0.128500	0.504286
H721	H	0.778498	-0.631085	-0.016609
H722	H	1.278498	-0.131085	0.483391
H723	H	0.791318	-0.648212	0.037417
H724	H	1.291318	-0.148212	0.537417
H725	H	0.787060	-0.555263	0.004848
H726	H	1.287060	-0.055263	0.504848
H727	H	0.799888	-0.572385	0.058871
H728	H	1.299888	-0.072385	0.558871
O729	O	0.438250	-0.545339	0.000007
O730	O	0.938250	-0.045339	0.500007
C731	C	0.399684	-0.506897	-0.000001
C732	C	0.899684	-0.006897	0.499999
H733	H	0.412983	-0.472744	0.015696
H734	H	0.912983	0.027256	0.515696
H735	H	0.386170	-0.499670	-0.039798
H736	H	0.886170	0.000330	0.460202
C737	C	0.341513	-0.562748	0.013267
C738	C	0.841513	-0.062748	0.513267
C739	C	0.357846	-0.520802	0.032550
C740	C	0.857846	-0.020802	0.532550
H741	H	0.315705	-0.571326	0.033343
H742	H	0.815705	-0.071326	0.533343
H743	H	0.367496	-0.588648	0.013270
H744	H	0.867496	-0.088648	0.513270
H745	H	0.330255	-0.556720	-0.019898
H746	H	0.830255	-0.056720	0.480102
H747	H	0.369110	-0.526833	0.065711
H748	H	0.869110	-0.026833	0.565711
H749	H	0.331865	-0.494904	0.032553
H750	H	0.831865	0.005096	0.532553
O751	O	0.627902	0.119214	-0.232884
O752	O	1.127902	0.619214	0.267116
C753	C	0.653584	0.144897	-0.198623
C754	C	1.153584	0.644897	0.301377
H755	H	0.633544	0.147855	-0.161407
H756	H	1.133544	0.647855	0.338593
H757	H	0.691675	0.124716	-0.193060
H758	H	1.191675	0.624716	0.306940
C759	C	0.681863	0.192586	-0.264695
C760	C	1.181863	0.692586	0.235305
C761	C	0.657248	0.196222	-0.218987
C762	C	1.157248	0.696222	0.281013
H763	H	0.684125	0.224245	-0.277257
H764	H	1.184125	0.724245	0.222743
H765	H	0.664562	0.175282	-0.287778
H766	H	1.164562	0.675282	0.212222
H767	H	0.713603	0.175766	-0.260053
H768	H	1.213603	0.675766	0.239947
H769	H	0.625506	0.213036	-0.223631
H770	H	1.125506	0.713036	0.276369
H771	H	0.674543	0.213531	-0.195905
H772	H	1.174543	0.713531	0.304095
O773	O	0.657020	0.148322	-0.473075
O774	O	1.157020	0.648322	0.026925
C775	C	0.682702	0.174003	-0.438812
C776	C	1.182702	0.674003	0.061188
H777	H	0.662665	0.176956	-0.401595
H778	H	1.162665	0.676956	0.098405
H779	H	0.720794	0.153822	-0.433253
H780	H	1.220794	0.653822	0.066747
C781	C	0.710975	0.221700	-0.504880
C782	C	1.210975	0.721700	-0.004880
C783	C	0.686363	0.225330	-0.459171
C784	C	1.186363	0.725330	0.040829
H785	H	0.713236	0.253361	-0.517439
H786	H	1.213236	0.753361	-0.017439
H787	H	0.693675	0.204397	-0.527965
H788	H	1.193675	0.704397	-0.027965
H789	H	0.742717	0.204881	-0.500241
H790	H	1.242717	0.704881	-0.000241
H791	H	0.654621	0.242144	-0.463811
H792	H	1.154621	0.742144	0.036189
H793	H	0.703659	0.242637	-0.436087
H794	H	1.203659	0.742637	0.063913
H795	H	0.652427	0.143703	-0.374329
H796	H	1.152427	0.643703	0.125671
