data_functionalizedCrystal
_audit_creation_method	'MofGen! by Chris Wilmer'
_symmetry_space_group_name_H-M	'P1'
_symmetry_Int_Tables_number	1
_symmetry_cell_setting	triclinic
loop_
_symmetry_equiv_pos_as_xyz
  x,y,z
_cell_length_a	9.065215
_cell_length_b	14.971486
_cell_length_c	14.048226
_cell_angle_alpha	89.993360
_cell_angle_beta	89.994106
_cell_angle_gamma	84.314413
loop_
_atom_site_label
_atom_site_type_symbol
_atom_site_fract_x
_atom_site_fract_y
_atom_site_fract_z
O1	O	1.957748	0.131143	-0.079150
O2	O	1.528245	0.141904	-0.079155
O3	O	1.754508	0.006409	-0.079145
O4	O	1.731485	0.266638	-0.079159
O5	O	1.754481	0.006401	0.079176
O6	O	1.528218	0.141895	0.079167
O7	O	1.957721	0.131135	0.079171
Zn8	Zn	1.742965	0.136514	0.104306
Zn9	Zn	1.743001	0.136525	-0.104289
O10	O	1.731458	0.266629	0.079162
C11	C	1.753465	-0.026928	0.000015
C12	C	1.750380	-0.126248	0.000014
C13	C	1.473265	0.140866	0.000006
C14	C	1.309485	0.137776	0.000004
C15	C	1.883303	-0.182483	0.000016
C16	C	1.880395	-0.275804	0.000006
C17	C	1.744562	-0.312888	0.000002
C18	C	1.611628	-0.256645	-0.000003
C19	C	1.614538	-0.163326	-0.000001
C20	C	1.605573	-0.451153	-0.000007
C21	C	1.602663	-0.544479	-0.000008
C22	C	1.871431	-0.563631	0.000000
C23	C	1.874340	-0.470312	0.000003
C24	C	1.741406	-0.414075	-0.000000
C25	C	2.012700	0.132173	0.000009
C26	C	2.176481	0.135263	0.000004
C27	C	1.732501	0.299966	-0.000000
C28	C	1.735586	0.399286	-0.000006
N29	N	1.742951	0.136506	0.246667
N30	N	1.743026	0.136526	-0.246650
C31	C	1.843172	0.076534	0.296489
C32	C	1.843182	0.076534	0.396146
C33	C	1.742977	0.136510	0.445980
C34	C	1.642745	0.196484	0.396151
C35	C	1.642730	0.196480	0.296495
C36	C	1.642788	0.196491	0.603865
C37	C	1.642805	0.196497	0.703528
C38	C	1.843241	0.076545	0.703516
C39	C	1.843225	0.076541	0.603861
C40	C	1.742995	0.136516	0.554038
H41	H	1.993914	-0.152297	0.000026
O42	O	1.476304	-0.396652	0.000030
C43	C	1.209417	-0.387498	-0.000032
C44	C	1.355696	-0.449323	-0.000056
H45	H	1.111867	-0.430057	-0.000121
H46	H	1.203946	-0.343354	0.066242
H47	H	1.204155	-0.343304	-0.066273
H48	H	1.361056	-0.493573	0.066141
H49	H	1.361107	-0.493406	-0.066373
O50	O	1.545373	0.254839	0.555614
C51	C	1.346526	0.373788	0.566137
C52	C	1.456779	0.307770	0.620899
H53	H	1.274849	0.416587	0.618896
H54	H	1.410216	0.419069	0.519491
H55	H	1.272821	0.334531	0.519470
H56	H	1.530512	0.346954	0.667618
H57	H	1.392997	0.262489	0.667485
O58	O	1.940367	0.018130	0.248148
C59	C	2.026564	-0.136693	0.217791
C60	C	1.916387	-0.070634	0.272560
H61	H	2.007236	-0.208472	0.237522
H62	H	2.009377	-0.126500	0.137988
H63	H	2.144732	-0.123999	0.237366
H64	H	1.798177	-0.083288	0.253064
H65	H	1.933705	-0.080842	0.352349
H66	H	1.924851	0.027711	0.744087
O67	O	2.009482	-0.330465	-0.000161
C68	C	2.162172	-0.446957	-0.082162
C69	C	2.015934	-0.385095	-0.082098
H70	H	2.167422	-0.491154	-0.148390
H71	H	2.259806	-0.404462	-0.082214
H72	H	2.167504	-0.491098	-0.015879
H73	H	2.010457	-0.340942	-0.148369
H74	H	1.918369	-0.427643	-0.081995
O75	O	1.940344	0.018189	0.444581
C76	C	1.971599	-0.103675	0.557143
C77	C	1.861394	-0.037661	0.502338
H78	H	1.907812	-0.148834	0.603869
H79	H	2.043198	-0.146599	0.504445
H80	H	2.045392	-0.064411	0.603741
H81	H	1.787505	-0.076853	0.455740
H82	H	1.789900	0.005263	0.555088
O83	O	2.000529	-0.618289	-0.000175
C84	C	2.153214	-0.734783	-0.082176
C85	C	2.006979	-0.672918	-0.082112
H86	H	2.158463	-0.778980	-0.148405
H87	H	2.250850	-0.692290	-0.082229
H88	H	2.158545	-0.778924	-0.015894
H89	H	2.001503	-0.628766	-0.148383
H90	H	1.909412	-0.715465	-0.082009
O91	O	1.940409	0.018310	0.555298
C92	C	2.141254	0.000632	0.442354
C93	C	2.031502	0.066741	0.497380
H94	H	2.214910	0.039762	0.395498
H95	H	2.213024	-0.042360	0.494908
H96	H	2.076994	-0.044459	0.395867
H97	H	2.095642	0.111890	0.543868
H98	H	1.959732	0.109671	0.444774
H99	H	1.501030	-0.286846	-0.000013
H100	H	1.561206	0.245335	0.744098
O101	O	1.545323	0.254825	0.248242
C102	C	1.346462	0.373765	0.258765
C103	C	1.456726	0.307754	0.313528
H104	H	1.274782	0.416562	0.311524
H105	H	1.410143	0.419048	0.212116
H106	H	1.272761	0.334502	0.212101
H107	H	1.530455	0.346943	0.360243
H108	H	1.392954	0.262470	0.360116
O109	O	1.470750	-0.580542	0.000148
C110	C	1.311493	-0.674835	0.082125
C111	C	1.460922	-0.634039	0.082078
H112	H	1.303511	-0.718111	0.148348
H113	H	1.216926	-0.618646	0.082176
H114	H	1.303460	-0.718002	0.015837
H115	H	1.469100	-0.590881	0.148355
H116	H	1.555417	-0.690271	0.081978
H117	H	1.984948	-0.440121	0.000014
O118	O	1.485278	-0.108824	0.000040
C119	C	1.218391	-0.099671	-0.000033
C120	C	1.364670	-0.161495	-0.000049
H121	H	1.120841	-0.142229	-0.000124
H122	H	1.212913	-0.055524	0.066238
H123	H	1.213136	-0.055479	-0.066276
H124	H	1.370023	-0.205742	0.066150
H125	H	1.370087	-0.205581	-0.066364
H126	H	1.561149	0.245315	0.436731
