data_functionalizedCrystal
_audit_creation_method	'MofGen! by Chris Wilmer'
_symmetry_space_group_name_H-M	'P1'
_symmetry_Int_Tables_number	1
_symmetry_cell_setting	triclinic
loop_
_symmetry_equiv_pos_as_xyz
  x,y,z
_cell_length_a	19.288864
_cell_length_b	16.109301
_cell_length_c	18.366186
_cell_angle_alpha	89.992337
_cell_angle_beta	89.977106
_cell_angle_gamma	83.298863
loop_
_atom_site_label
_atom_site_type_symbol
_atom_site_fract_x
_atom_site_fract_y
_atom_site_fract_z
O1	O	0.921600	0.103716	-0.060785
O2	O	1.421600	0.603716	0.439215
O3	O	0.719373	0.117707	-0.060736
O4	O	1.219373	0.617707	0.439264
O5	O	0.826042	-0.010339	-0.060755
O6	O	1.326042	0.489661	0.439245
O7	O	0.814931	0.231761	-0.060767
O8	O	1.314931	0.731761	0.439233
O9	O	0.826024	-0.010345	0.060345
O10	O	1.326024	0.489655	0.560345
O11	O	0.719355	0.117701	0.060363
O12	O	1.219355	0.617701	0.560363
O13	O	0.921582	0.103710	0.060314
O14	O	1.421582	0.603710	0.560314
Zn15	Zn	0.820466	0.110704	0.079566
Zn16	Zn	1.320466	0.610704	0.579566
Zn17	Zn	0.820490	0.110712	-0.079988
Zn18	Zn	1.320490	0.610712	0.420012
O19	O	0.814913	0.231755	0.060333
O20	O	1.314913	0.731755	0.560333
C21	C	0.693487	0.117254	-0.000180
C22	C	1.193487	0.617254	0.499820
C23	C	0.616380	0.115902	-0.000161
C24	C	1.116380	0.615902	0.499839
C25	C	0.571863	0.191034	-0.000176
C26	C	1.071863	0.691034	0.499824
C27	C	0.499413	0.189764	-0.000184
C28	C	0.999413	0.689764	0.499816
C29	C	0.471483	0.113359	-0.000191
C30	C	0.971483	0.613359	0.499809
C31	C	0.516009	0.038218	-0.000172
C32	C	1.016009	0.538218	0.499828
C33	C	0.588458	0.039489	-0.000157
C34	C	1.088458	0.539489	0.499843
C35	C	0.363084	0.053298	-0.042639
C36	C	0.863084	0.553298	0.457361
C37	C	0.290636	0.052029	-0.042659
C38	C	0.790636	0.552029	0.457341
C39	C	0.248028	0.109433	-0.000235
C40	C	0.748028	0.609433	0.499765
C41	C	0.277874	0.168120	0.042199
C42	C	0.777874	0.668120	0.542199
C43	C	0.350323	0.169391	0.042214
C44	C	0.850323	0.669391	0.542214
C45	C	0.392925	0.111971	-0.000207
C46	C	0.892925	0.611971	0.499793
C47	C	0.124952	0.183193	-0.000258
C48	C	0.624952	0.683193	0.499742
C49	C	0.052501	0.181920	-0.000262
C50	C	0.552501	0.681920	0.499738
C51	C	0.069099	0.030372	-0.000257
C52	C	0.569099	0.530372	0.499743
C53	C	0.141548	0.031647	-0.000246
C54	C	0.641548	0.531647	0.499754
C55	C	0.169470	0.108060	-0.000250
C56	C	0.669470	0.608060	0.499750
C57	C	0.825583	-0.041315	-0.000205
C58	C	1.325583	0.458685	0.499795
C59	C	0.824234	-0.133606	-0.000203
C60	C	1.324234	0.366394	0.499797
C61	C	0.884391	-0.356084	-0.000229
C62	C	1.384391	0.143916	0.499771
C63	C	0.883118	-0.442800	-0.000235
C64	C	1.383118	0.057200	0.499765
C65	C	0.756559	-0.422493	-0.000201
C66	C	1.256559	0.077507	0.499799
C67	C	0.757833	-0.335778	-0.000201
C68	C	1.257833	0.164222	0.499799
C69	C	0.821751	-0.302577	-0.000211
C70	C	1.321751	0.197423	0.499789
C71	C	0.819204	-0.476007	-0.000217
C72	C	1.319204	0.023993	0.499783
C73	C	0.817823	-0.570028	-0.000223
C74	C	1.317823	-0.070028	0.499777
C75	C	0.823133	-0.208549	-0.000206
C76	C	1.323133	0.291451	0.499794
C77	C	0.947469	0.104163	-0.000244
C78	C	1.447469	0.604163	0.499756
C79	C	1.024576	0.105514	-0.000268
C80	C	1.524576	0.605514	0.499732
C81	C	0.815372	0.262732	-0.000219
C82	C	1.315372	0.762732	0.499781
C83	C	0.816722	0.355022	-0.000225
C84	C	1.316722	0.855022	0.499775
N85	N	0.820455	0.110698	0.188457
N86	N	1.320455	0.610698	0.688457
N87	N	0.820506	0.110712	-0.188879
N88	N	1.320506	0.610712	0.311121
C89	C	0.867703	0.054027	0.226549
C90	C	1.367703	0.554027	0.726549
C91	C	0.867707	0.054023	0.302777
C92	C	1.367707	0.554023	0.802777
C93	C	0.820470	0.110705	0.340910
C94	C	1.320470	0.610705	0.840910
C95	C	0.773213	0.167380	0.302808
C96	C	1.273213	0.667380	0.802808
C97	C	0.773205	0.167377	0.226582
C98	C	1.273205	0.667377	0.726582
C99	C	0.811353	0.186459	0.461668
C100	C	1.311353	0.686459	0.961668
C101	C	0.811365	0.186463	0.537893
C102	C	1.311365	0.686463	1.037893
C103	C	0.820490	0.110715	0.576017
C104	C	1.320490	0.610715	1.076017
C105	C	0.829616	0.034960	0.537908
C106	C	1.329616	0.534960	1.037908
C107	C	0.829609	0.034956	0.461681
C108	C	1.329609	0.534956	0.961681
C109	C	0.820473	0.110715	0.423564
C110	C	1.320473	0.610715	0.923564
C111	C	0.867746	0.054036	0.696764
C112	C	1.367746	0.554036	1.196764
C113	C	0.867745	0.054031	0.772993
C114	C	1.367745	0.554031	1.272993
C115	C	0.773254	0.167395	0.773023
C116	C	1.273254	0.667395	1.273023
C117	C	0.773251	0.167392	0.696796
C118	C	1.273251	0.667392	1.196796
C119	C	0.820500	0.110714	0.658671
C120	C	1.320500	0.610714	1.158671
H121	H	0.243184	0.214863	0.076745
H122	H	0.743184	0.714863	0.576745
C123	C	0.688927	-0.276913	-0.000184
C124	C	1.188927	0.223087	0.499816
H125	H	0.698842	-0.220514	-0.000195
H126	H	1.198842	0.279486	0.499805
H127	H	0.662709	-0.286952	0.042051
H128	H	1.162709	0.213048	0.542051
H129	H	0.662728	-0.286948	-0.042415
H130	H	1.162728	0.213052	0.457585
C131	C	0.721293	0.229743	0.814960
C132	C	1.221293	0.729743	1.314960
H133	H	0.728066	0.221632	0.865814
H134	H	1.228066	0.721632	1.365814
H135	H	0.674940	0.220856	0.802493
H136	H	1.174940	0.720856	1.302493
H137	H	0.728825	0.285211	0.802456
H138	H	1.228825	0.785211	1.302456
H139	H	0.934126	-0.486363	-0.000251
H140	H	1.434126	0.013637	0.499749
H141	H	0.734750	0.213530	0.333860
H142	H	1.234750	0.713530	0.833860
H143	H	0.936438	-0.329054	-0.000239
H144	H	1.436438	0.170946	0.499761
C145	C	0.637429	-0.043159	-0.000149
C146	C	1.137429	0.456841	0.499851
H147	H	0.610421	-0.088847	-0.000158
H148	H	1.110421	0.411153	0.499842
H149	H	0.666017	-0.045817	0.042084
H150	H	1.166017	0.454183	0.542084
H151	H	0.666054	-0.045806	-0.042381
H152	H	1.166054	0.454194	0.457619
H153	H	0.016255	0.243104	-0.000270
H154	H	0.516255	0.743104	0.499730
H155	H	0.734779	0.213542	0.665779
H156	H	1.234779	0.713542	1.165779
H157	H	0.906175	0.007874	0.195510
H158	H	1.406175	0.507874	0.695510
H159	H	0.906217	0.007882	0.665722
H160	H	1.406217	0.507882	1.165722
H161	H	0.704519	-0.449537	-0.000191
H162	H	1.204519	0.050463	0.499809
C163	C	0.602577	0.275082	-0.000176
C164	C	1.102577	0.775082	0.499824
H165	H	0.652101	0.265082	-0.000171
H166	H	1.152101	0.765082	0.499829
H167	H	0.587269	0.306009	0.042047
H168	H	1.087269	0.806009	0.542047
H169	H	0.587318	0.306002	-0.042418
H170	H	1.087318	0.806002	0.457582
H171	H	0.803938	0.248148	0.568916
H172	H	1.303938	0.748148	1.068916
C173	C	0.919684	-0.008315	0.344687
C174	C	1.419684	0.491685	0.844687
H175	H	0.947824	-0.042068	0.311064
H176	H	1.447824	0.457932	0.811064
H177	H	0.894714	-0.042848	0.374444
H178	H	1.394714	0.457152	0.874444
H179	H	0.948590	0.021518	0.374401
H180	H	1.448590	0.521518	0.874401
H181	H	0.837038	-0.026726	0.430655
H182	H	1.337038	0.473274	0.930655
H183	H	0.463160	0.250947	-0.000194
H184	H	0.963160	0.750947	0.499806
C185	C	0.839648	-0.048368	0.579834
C186	C	1.339648	0.451632	1.079834
H187	H	0.838337	-0.037520	0.630689
H188	H	1.338337	0.462480	1.130689
H189	H	0.883459	-0.078153	0.567327
H190	H	1.383459	0.421847	1.067327
H191	H	0.803326	-0.080831	0.567361
H192	H	1.303326	0.419169	1.067361
C193	C	0.190522	-0.050997	-0.000240
C194	C	0.690522	0.449003	0.499760
H195	H	0.237669	-0.039297	-0.000225
H196	H	0.737669	0.460703	0.499775
H197	H	0.182082	-0.082336	-0.042471
H198	H	0.682082	0.417664	0.457529
H199	H	0.182035	-0.082340	0.041994
H200	H	0.682035	0.417660	0.541994
H201	H	0.906218	0.007878	0.804009
H202	H	1.406218	0.507878	1.304009
C203	C	0.801320	0.269787	0.419738
C204	C	1.301320	0.769787	0.919738
H205	H	0.795898	0.314902	0.453350
H206	H	1.295898	0.814902	0.953350
H207	H	0.760876	0.271597	0.390020
H208	H	1.260876	0.771597	0.890020
H209	H	0.841010	0.274271	0.389983
H210	H	1.341010	0.774271	0.889983
C211	C	0.721238	0.229724	0.184676
C212	C	1.221238	0.729724	0.684676
H213	H	0.727999	0.221603	0.133817
H214	H	1.227999	0.721603	0.633817
H215	H	0.728768	0.285189	0.197159
H216	H	1.228768	0.785189	0.697159
H217	H	0.674883	0.220834	0.197189
H218	H	1.174883	0.720834	0.697189
C219	C	0.383153	0.233933	0.088895
C220	C	0.883153	0.733933	0.588895
H221	H	0.347406	0.267938	0.114164
H222	H	0.847406	0.767938	0.614164
H223	H	0.407759	0.268000	0.058315
H224	H	0.907759	0.768000	0.558315
H225	H	0.414542	0.205673	0.123018
H226	H	0.914542	0.705673	0.623018
H227	H	0.266341	0.004247	-0.077214
H228	H	0.766341	0.504247	0.422786
H229	H	0.147687	0.245413	-0.000251
H230	H	0.647687	0.745413	0.499749
H231	H	0.397770	0.006551	-0.077190
H232	H	0.897770	0.506551	0.422810
H233	H	0.046359	-0.031839	-0.000308
H234	H	0.546359	0.468161	0.499692
H235	H	0.493264	-0.023992	-0.000188
H236	H	0.993264	0.476008	0.499812
