data_functionalizedCrystal
_audit_creation_method	'MofGen! by Chris Wilmer'
_symmetry_space_group_name_H-M	'P1'
_symmetry_Int_Tables_number	1
_symmetry_cell_setting	triclinic
loop_
_symmetry_equiv_pos_as_xyz
  x,y,z
_cell_length_a	23.532407
_cell_length_b	23.532409
_cell_length_c	12.996460
_cell_angle_alpha	89.997236
_cell_angle_beta	90.003504
_cell_angle_gamma	82.849153
loop_
_atom_site_label
_atom_site_type_symbol
_atom_site_fract_x
_atom_site_fract_y
_atom_site_fract_z
O1	O	0.755262	0.069131	0.085495
O2	O	0.589399	0.079134	0.085511
O3	O	0.677331	-0.008799	0.085504
O4	O	0.667329	0.157064	0.085502
O5	O	0.677320	-0.008794	-0.085630
O6	O	0.589387	0.079140	-0.085623
O7	O	0.755251	0.069136	-0.085638
Cu8	Cu	0.672318	0.074138	-0.101257
Cu9	Cu	0.672331	0.074132	0.101129
O10	O	0.667318	0.157070	-0.085632
C11	C	0.568177	0.078882	-0.000054
C12	C	0.504960	0.078116	-0.000048
C13	C	0.677071	-0.030012	-0.000060
C14	C	0.676304	-0.093229	-0.000053
C15	C	0.238792	0.022921	-0.000075
C16	C	0.298192	0.023632	-0.000075
O17	O	0.334936	-0.020153	-0.000110
N18	N	0.320819	0.075909	-0.000069
C19	C	0.284042	0.127477	-0.000073
O20	O	0.308742	0.172007	-0.000068
C21	C	0.224643	0.126765	-0.000081
C22	C	0.202020	0.074485	-0.000077
C23	C	0.216168	-0.029354	-0.000073
C24	C	0.156772	-0.030066	-0.000071
C25	C	0.120000	0.021499	-0.000072
C26	C	0.142623	0.073774	-0.000075
C27	C	0.187867	0.178332	-0.000092
C28	C	0.128464	0.177616	-0.000101
C29	C	0.105841	0.125336	-0.000097
C30	C	0.046455	0.124627	-0.000074
N31	N	0.023828	0.072351	-0.000081
C32	C	0.060601	0.020787	-0.000080
C33	C	0.408784	0.128968	-0.000059
C34	C	0.468182	0.129681	-0.000044
C35	C	0.482329	0.025836	-0.000048
C36	C	0.422930	0.025124	-0.000056
C37	C	0.386158	0.076692	-0.000065
C38	C	-0.064136	0.019297	-0.000075
C39	C	-0.123538	0.018590	-0.000069
C40	C	-0.137680	0.122435	-0.000071
C41	C	-0.078283	0.123142	-0.000071
C42	C	-0.041512	0.071568	-0.000077
O43	O	0.009676	0.168390	-0.000043
O44	O	0.035892	-0.023736	-0.000098
C45	C	0.673051	-0.366477	0.093237
C46	C	0.673763	-0.307077	0.093237
O47	O	0.674156	-0.276354	0.172569
N48	N	0.674109	-0.277372	-0.000049
C49	C	0.673749	-0.307071	-0.093342
O50	O	0.674110	-0.276350	-0.172690
C51	C	0.673042	-0.366471	-0.093341
C52	C	0.672690	-0.396172	-0.000049
C53	C	0.672700	-0.396178	0.186522
C54	C	0.671988	-0.455574	0.186522
C55	C	0.671626	-0.485269	0.093236
C56	C	0.671977	-0.455568	-0.000049
C57	C	0.672686	-0.396169	-0.186633
C58	C	0.671979	-0.455573	-0.186624
C59	C	0.671627	-0.485274	-0.093331
C60	C	0.670903	-0.544658	-0.093335
N61	N	0.670557	-0.574363	-0.000049
C62	C	0.670919	-0.544669	0.093237
C63	C	0.675236	-0.182328	-0.093337
C64	C	0.675940	-0.122929	-0.093339
C65	C	0.675954	-0.122939	0.093241
C66	C	0.675247	-0.182338	0.093242
C67	C	0.674890	-0.212033	-0.000051
C68	C	0.669421	-0.669404	0.093229
C69	C	0.668706	-0.728805	0.093220
C70	C	0.668695	-0.728790	-0.093359
C71	C	0.669407	-0.669394	-0.093351
C72	C	0.669772	-0.639703	-0.000049
O73	O	0.670512	-0.575419	-0.172627
O74	O	0.670566	-0.575398	0.172571
C75	C	0.776472	0.069389	-0.000071
C76	C	0.839689	0.070154	-0.000071
C77	C	0.667578	0.178283	-0.000065
C78	C	0.668345	0.241500	-0.000066
N79	N	0.672313	0.074142	-0.243604
C80	C	0.672315	0.074144	-0.336710
C81	C	0.672320	0.074140	-0.453515
C82	C	0.672328	0.074134	-0.546613
C83	C	0.672334	0.074130	-0.663426
N84	N	0.672341	0.074124	0.243476
H85	H	-0.034204	-0.022699	-0.000080
C86	C	0.131894	-0.087576	-0.000082
C87	C	0.093008	-0.102346	-0.088955
C88	C	0.068136	-0.159860	-0.088971
C89	C	0.082151	-0.202604	-0.000114
C90	C	0.121039	-0.187835	0.088766
C91	C	0.145910	-0.130320	0.088782
H92	H	0.082632	-0.070704	-0.154738
H93	H	0.039349	-0.170794	-0.154766
H94	H	0.063739	-0.245179	-0.000126
H95	H	0.131414	-0.219477	0.154549
H96	H	0.174698	-0.119387	0.154577
H97	H	0.668398	-0.752978	-0.169310
C98	C	-0.053389	0.180646	-0.000064
C99	C	-0.067397	0.223387	-0.088926
C100	C	-0.042506	0.280891	-0.088928
C101	C	-0.003609	0.295655	-0.000067
C102	C	0.010400	0.252912	0.088802
C103	C	-0.014490	0.195408	0.088804
H104	H	-0.096193	0.212460	-0.154713
H105	H	-0.052877	0.312532	-0.154716
H106	H	0.014817	0.338223	-0.000069
H107	H	0.039197	0.263840	0.154588
H108	H	-0.004119	0.163768	0.154592
H109	H	0.676247	-0.098750	0.169199
C110	C	-0.178138	0.179152	-0.000077
C111	C	-0.220922	0.192939	0.088779
C112	C	-0.261382	0.249656	0.088763
C113	C	-0.259058	0.292588	-0.000109
C114	C	-0.216272	0.278803	-0.088972
C115	C	-0.175812	0.222085	-0.088956
H116	H	-0.222644	0.161157	0.154574
H117	H	-0.293055	0.259861	0.154546
H118	H	-0.289009	0.334574	-0.000121
H119	H	-0.214550	0.310584	-0.154766
H120	H	-0.144139	0.211881	-0.154739
C121	C	0.212745	0.235840	-0.000119
C122	C	0.251638	0.250626	0.088732
C123	C	0.276517	0.308137	0.088695
C124	C	0.262503	0.350860	-0.000192
C125	C	0.223609	0.336074	-0.089050
C126	C	0.198730	0.278564	-0.089013
H127	H	0.262014	0.218999	0.154537
H128	H	0.305310	0.319082	0.154474
H129	H	0.280920	0.393433	-0.000219
H130	H	0.213233	0.367702	-0.154856
H131	H	0.169937	0.267619	-0.154792
H132	H	-0.141954	-0.023984	-0.000064
C133	C	0.668322	-0.761475	0.195848
C134	C	0.717887	-0.760049	0.272801
C135	C	0.717504	-0.792716	0.375426
C136	C	0.667556	-0.826811	0.401098
C137	C	0.617988	-0.828239	0.324144
C138	C	0.618371	-0.795571	0.221519
H139	H	0.754864	-0.734809	0.253798
H140	H	0.754198	-0.791659	0.432392
H141	H	0.667273	-0.850993	0.477068
H142	H	0.581010	-0.853479	0.343147
H143	H	0.581677	-0.796628	0.164553
C144	C	0.676321	-0.090261	-0.195963
C145	C	0.626759	-0.091692	-0.272921
C146	C	0.627145	-0.059028	-0.375549
C147	C	0.677092	-0.024933	-0.401220
C148	C	0.726658	-0.023501	-0.324261
C149	C	0.726272	-0.056165	-0.221633
H150	H	0.589782	-0.116932	-0.253919
H151	H	0.590453	-0.060088	-0.432519
H152	H	0.677378	-0.000753	-0.477192
H153	H	0.763635	0.001739	-0.343263
H154	H	0.762964	-0.055105	-0.164663
H155	H	0.246103	-0.071347	-0.000075
H156	H	0.098526	0.219610	-0.000113
C157	C	0.673079	-0.363512	-0.289262
C158	C	0.624110	-0.315940	-0.314951
C159	C	0.624505	-0.283285	-0.417588
C160	C	0.673869	-0.298202	-0.494535
C161	C	0.722842	-0.345777	-0.468847
C162	C	0.722447	-0.378431	-0.366210
H163	H	0.587565	-0.304895	-0.257989
H164	H	0.588252	-0.248067	-0.436603
H165	H	0.674161	-0.274029	-0.570513
H166	H	0.759387	-0.356821	-0.525809
H167	H	0.758700	-0.413649	-0.347195
C168	C	0.669819	-0.636749	0.195860
C169	C	0.719183	-0.651664	0.272822
C170	C	0.719576	-0.619008	0.375452
C171	C	0.670606	-0.571437	0.401120
C172	C	0.621239	-0.556519	0.324156
C173	C	0.620846	-0.589175	0.221526
H174	H	0.755436	-0.686882	0.253823
H175	H	0.756121	-0.630052	0.432426
H176	H	0.670897	-0.547263	0.477093
H177	H	0.584985	-0.521301	0.343155
H178	H	0.584301	-0.578131	0.164552
C179	C	0.398047	-0.032384	-0.000061
C180	C	0.359161	-0.047154	-0.088934
C181	C	0.334282	-0.104664	-0.088942
C182	C	0.348289	-0.147404	-0.000077
C183	C	0.387177	-0.132635	0.088803
C184	C	0.412056	-0.075125	0.088811
H185	H	0.348790	-0.015514	-0.154722
H186	H	0.305494	-0.115597	-0.154737
H187	H	0.329872	-0.189977	-0.000083
H188	H	0.397548	-0.164274	0.154592
H189	H	0.440844	-0.064191	0.154606
H190	H	0.512280	-0.016150	-0.000047
H191	H	0.671689	-0.479747	-0.262596
H192	H	0.486596	0.172252	-0.000033
H193	H	0.378847	0.170964	-0.000059
H194	H	0.671705	-0.479752	0.262490
H195	H	0.672996	-0.372007	0.262491
H196	H	0.674959	-0.206517	0.169209
H197	H	0.674941	-0.206501	-0.169312
H198	H	0.669671	-0.645207	-0.169318
