data_functionalizedCrystal
_audit_creation_method	'MofGen! by Chris Wilmer'
_symmetry_space_group_name_H-M	'P1'
_symmetry_Int_Tables_number	1
_symmetry_cell_setting	triclinic
loop_
_symmetry_equiv_pos_as_xyz
  x,y,z
_cell_length_a	8.497374
_cell_length_b	17.077404
_cell_length_c	17.077402
_cell_angle_alpha	89.979147
_cell_angle_beta	89.987778
_cell_angle_gamma	90.002323
loop_
_atom_site_label
_atom_site_type_symbol
_atom_site_fract_x
_atom_site_fract_y
_atom_site_fract_z
Zn1	Zn	0.891940	1.199930	0.312687
Zn2	Zn	0.628125	1.199874	0.443921
Zn3	Zn	0.628165	1.068699	0.312669
Zn4	Zn	0.891854	1.068630	0.443910
O5	O	0.760021	1.134283	0.378297
O6	O	0.856964	1.309770	0.330108
O7	O	0.407368	1.182479	0.426508
O8	O	0.663207	1.086159	0.202824
O9	O	0.663140	1.309729	0.426525
O10	O	0.857002	1.182574	0.202837
O11	O	0.407397	1.086105	0.330077
O12	O	0.663124	0.958843	0.330066
O13	O	1.112628	1.086042	0.426505
O14	O	0.856855	0.958792	0.426488
O15	O	1.112691	1.182508	0.330096
O16	O	0.663057	1.182412	0.553767
O17	O	0.856817	1.085988	0.553758
C18	C	0.759986	0.930336	0.378274
C19	C	0.760008	0.843086	0.378284
C20	C	0.861086	0.802118	0.328169
C21	C	0.861093	0.720137	0.328174
C22	C	0.760029	0.679126	0.378298
C23	C	0.658940	0.720100	0.428416
C24	C	0.658926	0.802079	0.428406
C25	C	0.658979	0.549230	0.428434
C26	C	0.658995	0.467245	0.428445
C27	C	0.861146	0.467288	0.328201
C28	C	0.861132	0.549267	0.328191
C29	C	0.760045	0.590235	0.378310
C30	C	0.759958	1.134208	0.582245
C31	C	0.759984	1.134247	0.669494
C32	C	1.171501	1.134278	0.378298
C33	C	1.350145	1.134279	0.378306
C34	C	0.760057	1.339028	0.378320
C35	C	0.760073	1.426277	0.378329
C36	C	0.760119	1.134381	0.173552
C37	C	0.760160	1.134422	0.086303
C38	C	0.659201	1.184506	0.710463
C39	C	0.659241	1.184545	0.792443
C40	C	0.760057	1.134319	0.833454
C41	C	0.860851	1.084058	0.792480
C42	C	0.860818	1.084024	0.710501
C43	C	0.860911	1.084130	0.963350
C44	C	0.860943	1.084163	1.045334
C45	C	0.659335	1.184651	1.045292
C46	C	0.659301	1.184618	0.963313
C47	C	0.760093	1.134355	0.922345
H48	H	0.576701	0.433856	0.469261
H49	H	0.576644	0.686702	0.469225
H50	H	0.577271	1.225580	1.078653
O51	O	0.561483	1.233335	0.670543
C52	C	0.651371	1.283990	0.623079
H53	H	0.770869	1.256249	0.610792
H54	H	0.668825	1.342167	0.654626
C55	C	0.417790	1.332282	0.560308
C56	C	0.564555	1.298207	0.545211
H57	H	0.364237	1.341056	0.512277
H58	H	0.357230	1.298157	0.592287
H59	H	0.432356	1.380759	0.586599
H60	H	0.549986	1.249727	0.518930
H61	H	0.625112	1.332324	0.513226
H62	H	0.942887	1.043098	0.677145
H63	H	0.943452	0.433928	0.287391
H64	H	0.942944	1.043166	0.825877
O65	O	0.959316	0.841831	0.279405
C66	C	1.048558	0.788088	0.235187
H67	H	0.983957	0.729648	0.232424
H68	H	1.168268	0.779367	0.264030
C69	C	1.150943	0.891881	0.155051
C70	C	1.071592	0.820106	0.151652
H71	H	1.165159	0.911632	0.103523
H72	H	1.090825	0.928090	0.184842
H73	H	1.250693	0.884604	0.179089
H74	H	0.971837	0.827386	0.127622
H75	H	1.131695	0.783899	0.121854
O76	O	0.959369	0.680258	0.279604
C77	C	1.061130	0.632848	0.324385
H78	H	1.005265	0.620542	0.383826
H79	H	1.177996	0.664450	0.333107
C80	C	1.158497	0.570106	0.208216
C81	C	1.089877	0.554987	0.281221
H82	H	1.176237	0.522079	0.181590
H83	H	1.089944	0.602049	0.178046
H84	H	1.255879	0.596443	0.215495
H85	H	0.992489	0.528660	0.273940
H86	H	1.158414	0.523038	0.311389
O87	O	0.561187	1.233389	0.832118
C88	C	0.472218	1.277722	0.778343
H89	H	0.466677	1.245545	0.719933
H90	H	0.530084	1.337312	0.769563
C91	C	0.311153	1.328636	0.882103
C92	C	0.304337	1.289113	0.810365
H93	H	0.207598	1.335666	0.901857
H94	H	0.371096	1.298771	0.918334
H95	H	0.359381	1.378290	0.874777
H96	H	0.256127	1.239456	0.817694
H97	H	0.244381	1.318970	0.774136
H98	H	0.576659	0.582584	0.469244
O99	O	0.958604	1.035266	0.923468
C100	C	0.868676	0.984571	0.876121
H101	H	0.749169	1.012303	0.863839
H102	H	0.851246	0.926421	0.907766
C103	C	1.102205	0.936224	0.813330
C104	C	0.955429	0.970288	0.798239
H105	H	1.155720	0.927410	0.765290
H106	H	1.162792	0.970376	0.845230
H107	H	1.087659	0.887770	0.839702
H108	H	0.969977	1.018745	0.771876
H109	H	0.894846	0.936143	0.766333
H110	H	0.576617	0.835434	0.469215
H111	H	0.943436	0.582656	0.287380
H112	H	0.943066	1.043279	1.078723
H113	H	0.577202	1.225511	0.929923
