data_functionalizedCrystal
_audit_creation_method	'MofGen! by Chris Wilmer'
_symmetry_space_group_name_H-M	'P1'
_symmetry_Int_Tables_number	1
_symmetry_cell_setting	triclinic
loop_
_symmetry_equiv_pos_as_xyz
  x,y,z
_cell_length_a	13.032831
_cell_length_b	13.032721
_cell_length_c	13.033255
_cell_angle_alpha	74.857313
_cell_angle_beta	103.333446
_cell_angle_gamma	90.902885
loop_
_atom_site_label
_atom_site_type_symbol
_atom_site_fract_x
_atom_site_fract_y
_atom_site_fract_z
Zn1	Zn	1.617261	-0.734619	0.889146
Zn2	Zn	1.577758	-0.883949	0.728354
Zn3	Zn	1.422820	-0.683795	0.683318
Zn4	Zn	1.422781	-0.883855	0.883384
O5	O	1.510155	-0.796554	0.796051
O6	O	1.758254	-0.775738	0.889076
O7	O	1.540690	-0.836167	0.571359
O8	O	1.465162	-0.544316	0.694185
O9	O	1.729231	-0.885449	0.770942
O10	O	1.608017	-0.581657	0.845406
O11	O	1.426858	-0.689114	0.538271
O12	O	1.276582	-0.689023	0.688598
O13	O	1.465094	-0.885289	1.035170
O14	O	1.276553	-0.836007	0.835586
O15	O	1.607978	-0.775647	1.039403
O16	O	1.540652	-1.030157	0.765355
O17	O	1.426790	-1.030088	0.879256
C18	C	1.238651	-0.756990	0.756581
C19	C	1.122501	-0.740094	0.739723
C20	C	1.070708	-0.805373	0.804848
C21	C	0.950660	-0.787911	0.787427
C22	C	1.479461	-1.068043	0.826595
C23	C	1.466429	-1.184206	0.839712
C24	C	1.517017	-1.236010	0.789261
C25	C	1.503550	-1.356071	0.802817
C26	C	1.782719	-0.836273	0.835675
C27	C	1.898870	-0.853199	0.852561
C28	C	1.540938	-0.836127	1.077539
C29	C	1.554056	-0.852990	1.197493
C30	C	1.541000	-0.524013	0.765415
C31	C	1.554145	-0.407872	0.752360
C32	C	1.479560	-0.757069	0.515657
C33	C	1.466678	-0.739941	0.395701
C34	C	1.517147	-0.805178	1.358584
C35	C	1.503581	-0.787744	1.234604
H36	H	0.943399	-0.922015	0.921225
H37	H	1.570393	-0.873940	1.418593
H38	H	1.413423	-0.671186	1.335691
O39	O	1.403003	-1.237467	0.903303
C40	C	1.463055	-1.318976	0.988784
H41	H	1.536320	-1.341364	0.964120
H42	H	1.487902	-1.289839	1.065716
C43	C	1.306132	-1.389634	1.041846
C44	C	1.396114	-1.417137	1.011550
H45	H	1.264840	-1.450183	1.055894
H46	H	1.265674	-1.334718	0.984259
H47	H	1.326852	-1.365352	1.105953
H48	H	1.375394	-1.441406	0.947438
H49	H	1.436568	-1.472060	1.069127
H50	H	1.607315	-0.921751	1.257498
O51	O	1.439888	-0.705807	1.163065
C52	C	1.336144	-0.717286	1.177977
H53	H	1.324796	-0.804328	1.217644
H54	H	1.322269	-0.666406	1.233041
C55	C	1.270829	-0.574073	1.017582
C56	C	1.256889	-0.680981	1.066293
H57	H	1.221940	-0.551674	0.948692
H58	H	1.340724	-0.566336	1.007537
H59	H	1.259269	-0.531686	1.063479
H60	H	1.268462	-0.723367	1.020403
H61	H	1.186994	-0.688725	1.076328
O62	O	1.123964	-0.887351	0.886806
C63	C	1.201435	-0.846894	0.959042
H64	H	1.222470	-0.764659	0.914536
H65	H	1.169484	-0.840719	1.031711
C66	C	1.274972	-1.023133	1.054566
C67	C	1.300814	-0.922133	0.999900
H68	H	1.336272	-1.069545	1.079774
H69	H	1.222776	-1.050391	1.005903
H70	H	1.248344	-1.017972	1.115116
H71	H	1.327428	-0.927293	0.939343
H72	H	1.353017	-0.894878	1.048554
O73	O	1.617557	-1.354677	0.688709
C74	C	1.557519	-1.273131	0.603260
H75	H	1.470804	-1.293228	0.588267
H76	H	1.566756	-1.194597	0.626826
C77	C	1.703102	-1.238309	0.516757
C78	C	1.596598	-1.262997	0.498335
H79	H	1.727209	-1.232054	0.452035
H80	H	1.743553	-1.293245	0.574327
H81	H	1.710785	-1.172866	0.536397
H82	H	1.588917	-1.328445	0.478709
H83	H	1.556146	-1.208072	0.440759
O84	O	0.897375	-0.705896	0.705530
C85	C	0.789378	-0.706714	0.706371
H86	H	0.769327	-0.790219	0.748545
H87	H	0.771693	-0.648428	0.752504
C88	C	0.747008	-0.570978	0.536206
C89	C	0.722379	-0.673543	0.587996
H90	H	0.705679	-0.550513	0.463188
H91	H	0.819768	-0.570423	0.535640
H92	H	0.732270	-0.522420	0.574661
H93	H	0.737130	-0.722102	0.549549
H94	H	0.649619	-0.674105	0.588553
O95	O	1.069311	-0.658125	0.657704
C96	C	0.991808	-0.698589	0.585503
H97	H	1.014727	-0.784685	0.592722
H98	H	0.912370	-0.694980	0.607354
C99	C	0.955348	-0.525615	0.458497
C100	C	0.983502	-0.631358	0.467358
H101	H	0.950220	-0.484142	0.385620
H102	H	1.007560	-0.498352	0.507142
H103	H	0.889152	-0.522623	0.476713
H104	H	1.049703	-0.634350	0.449157
H105	H	0.931301	-0.658619	0.418708
O106	O	1.580425	-1.182806	0.725616
C107	C	1.520384	-1.101259	0.640171
H108	H	1.433670	-1.121361	0.625175
H109	H	1.529616	-1.022727	0.663742
C110	C	1.665966	-1.066421	0.553669
C111	C	1.559464	-1.091115	0.535245
H112	H	1.690075	-1.060159	0.488947
H113	H	1.706419	-1.121358	0.611237
H114	H	1.673646	-1.000980	0.573314
H115	H	1.551788	-1.156561	0.515615
H116	H	1.519010	-1.036189	0.477672
H117	H	1.450270	-1.400601	0.856054
