data_functionalizedCrystal
_audit_creation_method	'MofGen! by Chris Wilmer'
_symmetry_space_group_name_H-M	'P1'
_symmetry_Int_Tables_number	1
_symmetry_cell_setting	triclinic
loop_
_symmetry_equiv_pos_as_xyz
  x,y,z
_cell_length_a	17.038272
_cell_length_b	16.109301
_cell_length_c	14.586319
_cell_angle_alpha	90.005214
_cell_angle_beta	89.997870
_cell_angle_gamma	87.286519
loop_
_atom_site_label
_atom_site_type_symbol
_atom_site_fract_x
_atom_site_fract_y
_atom_site_fract_z
O1	O	-1.037364	-0.180538	-0.076131
O2	O	-0.809734	-0.177672	-0.076158
O3	O	-0.929802	-0.058518	-0.076134
O4	O	-0.917296	-0.299692	-0.076154
O5	O	-0.929794	-0.058516	0.076347
O6	O	-0.809725	-0.177669	0.076323
O7	O	-1.037356	-0.180536	0.076350
Cu8	Cu	-0.923540	-0.179102	0.090259
Cu9	Cu	-0.923550	-0.179105	-0.090067
O10	O	-0.917287	-0.299690	0.076326
C11	C	-0.929291	-0.027506	0.000107
C12	C	-0.927773	0.064897	0.000108
C13	C	-0.780601	-0.175063	0.000079
C14	C	-0.693808	-0.167284	0.000069
C15	C	-1.066488	-0.183145	0.000111
C16	C	-1.153281	-0.190924	0.000115
C17	C	-0.643694	-0.238705	0.000064
C18	C	-0.562143	-0.231391	0.000077
C19	C	-0.530709	-0.152655	0.000089
C20	C	-0.580830	-0.081229	0.000097
C21	C	-0.662379	-0.088544	0.000091
C22	C	-0.284951	-0.126813	0.000116
C23	C	-0.203396	-0.119503	0.000120
C24	C	-0.184714	-0.269665	0.000102
C25	C	-0.266266	-0.276973	0.000089
C26	C	-0.316380	-0.205547	0.000102
C27	C	-0.447352	-0.145177	0.000100
C28	C	-0.399736	-0.213026	0.000098
C29	C	-0.917798	-0.330702	0.000084
C30	C	-0.919317	-0.423105	0.000076
N31	N	-0.923539	-0.179100	0.217091
C32	C	-0.995487	0.282360	0.000101
C33	C	-0.994054	0.369183	0.000093
C34	C	-0.851597	0.359425	0.000080
C35	C	-0.853031	0.272605	0.000081
C36	C	-0.924978	0.234075	0.000096
C37	C	-0.922111	0.407718	0.000088
C38	C	-0.920557	0.501854	0.000079
C39	C	-0.926533	0.139932	0.000103
N40	N	-0.923557	-0.179101	-0.216899
C41	C	-0.976723	-0.126359	0.452108
C42	C	-0.976725	-0.126357	0.548089
C43	C	-0.870368	-0.231845	0.548078
C44	C	-0.870362	-0.231842	0.452098
C45	C	-0.923544	-0.179100	0.404116
C46	C	-0.923552	-0.179101	0.596076
C47	C	-0.923554	-0.179100	0.700144
C48	C	-0.923541	-0.179100	0.300042
H49	H	-0.669280	-0.302820	0.000054
O50	O	-0.818636	-0.283103	0.594548
C51	C	-0.713171	-0.387763	0.584405
C52	C	-0.771703	-0.329740	0.531667
H53	H	-0.675222	-0.425496	0.533589
H54	H	-0.674075	-0.349120	0.629321
H55	H	-0.746928	-0.431670	0.629359
H56	H	-0.738010	-0.285821	0.486664
H57	H	-0.810799	-0.368434	0.486809
O58	O	-0.818810	-0.283123	0.405373
C59	C	-0.802137	-0.395510	0.297034
C60	C	-0.860602	-0.337480	0.349875
H61	H	-0.835903	-0.439484	0.252166
H62	H	-0.763098	-0.356875	0.252043
H63	H	-0.764117	-0.433173	0.347832
H64	H	-0.898673	-0.299806	0.299143
H65	H	-0.899586	-0.376163	0.394880
H66	H	-0.521342	-0.289549	0.000072
O67	O	-1.028406	-0.075045	0.405639
C68	C	-1.133925	0.029553	0.415785
C69	C	-1.075424	-0.028508	0.468521
H70	H	-1.171966	0.067181	0.466602
H71	H	-1.100220	0.073549	0.370882
H72	H	-1.172935	-0.009137	0.370818
H73	H	-1.036399	0.010115	0.513538
H74	H	-1.109178	-0.072507	0.513366
H75	H	-1.020027	-0.083410	0.587162
H76	H	-0.291853	-0.341088	0.000069
H77	H	-0.143903	-0.327816	0.000093
H78	H	-0.177806	-0.055384	0.000129
O79	O	-0.784586	0.225606	0.000199
C80	C	-0.703510	0.121955	0.079209
C81	C	-0.781054	0.175118	0.079185
H82	H	-0.700621	0.081135	0.143072
H83	H	-0.700616	0.081004	0.015437
H84	H	-0.651853	0.164421	0.079160
H85	H	-0.832755	0.132715	0.079267
H86	H	-0.783880	0.216077	0.142951
H87	H	-0.555230	-0.017121	0.000120
O88	O	-0.333590	-0.057405	-0.000040
C89	C	-0.374458	0.068729	-0.078997
C90	C	-0.319341	-0.009855	-0.078944
H91	H	-0.362946	0.107204	-0.142773
H92	H	-0.438161	0.050036	-0.079058
H93	H	-0.363034	0.107154	-0.015150
H94	H	-0.330695	-0.048315	-0.142779
H95	H	-0.255656	0.008896	-0.078835
O96	O	-0.711032	-0.019142	-0.000071
C97	C	-0.751919	0.106986	-0.079028
C98	C	-0.696789	0.028412	-0.078974
H99	H	-0.740411	0.145464	-0.142805
H100	H	-0.815618	0.088281	-0.079092
H101	H	-0.740503	0.145413	-0.015182
H102	H	-0.708134	-0.010051	-0.142810
H103	H	-0.633108	0.047174	-0.078863
H104	H	-0.425333	-0.277132	0.000094
O105	O	-1.065442	0.245065	0.000064
C106	C	-1.206588	0.263910	0.000117
C107	C	-1.127418	0.306251	0.000143
H108	H	-1.256717	0.313360	0.000200
H109	H	-1.210873	0.223529	-0.063712
H110	H	-1.210782	0.223486	0.063914
H111	H	-1.123171	0.346716	-0.063611
H112	H	-1.123168	0.346582	0.064014
O113	O	-1.062526	0.416122	-0.000063
C114	C	-1.143570	0.519828	-0.079030
C115	C	-1.066001	0.466707	-0.078975
H116	H	-1.146397	0.560752	-0.142814
H117	H	-1.195264	0.477411	-0.079080
H118	H	-1.146449	0.560691	-0.015191
H119	H	-1.063045	0.425838	-0.142803
H120	H	-1.014342	0.509171	-0.078878
H121	H	-0.793020	0.390807	0.000070
H122	H	-0.421749	-0.081070	0.000136
