data_functionalizedCrystal
_audit_creation_method	'MofGen! by Chris Wilmer'
_symmetry_space_group_name_H-M	'P1'
_symmetry_Int_Tables_number	1
_symmetry_cell_setting	triclinic
loop_
_symmetry_equiv_pos_as_xyz
  x,y,z
_cell_length_a	19.377369
_cell_length_b	14.560438
_cell_length_c	14.560438
_cell_angle_alpha	89.999727
_cell_angle_beta	48.637252
_cell_angle_gamma	72.126583
loop_
_atom_site_label
_atom_site_type_symbol
_atom_site_fract_x
_atom_site_fract_y
_atom_site_fract_z
Zr1	Zr	0.779872	0.063568	0.701547
O2	O	0.928508	-0.047989	0.519984
O3	O	0.631235	0.073434	0.781420
O4	O	0.779871	-0.083079	0.746504
O5	O	0.779874	0.259663	0.554898
O6	O	0.779872	-0.083080	0.897642
O7	O	0.779872	0.108524	0.554900
O8	O	0.513989	0.196894	0.960101
O9	O	1.045757	-0.020310	0.492440
O10	O	0.692373	0.107039	0.899023
O11	O	0.692374	0.219833	0.786228
O12	O	0.867374	0.035558	0.745119
O13	O	0.867374	0.148352	0.632325
Zr14	Zr	0.779878	0.304615	0.942592
Zr15	Zr	0.779875	0.063566	0.942595
Zr16	Zr	0.779876	0.304617	0.701544
Zr17	Zr	0.966871	0.107712	0.657617
Zr18	Zr	0.592879	0.260471	0.986522
O19	O	0.928516	0.294749	0.862719
O20	O	0.928511	-0.047991	0.862724
O21	O	0.928512	0.294752	0.519980
O22	O	0.631242	0.416172	1.124155
O23	O	0.631238	0.073432	1.124159
O24	O	0.631239	0.416175	0.781416
O25	O	0.779877	0.108520	1.089241
O26	O	0.779879	0.451262	0.897635
O27	O	0.779878	0.451263	0.746497
O28	O	0.779879	0.259659	1.089239
O29	O	1.045758	-0.020312	0.684041
O30	O	0.513992	0.388495	0.960098
O31	O	0.513993	0.388494	1.151699
O32	O	0.513991	0.196892	1.151702
O33	O	1.045759	0.171291	0.492437
O34	O	1.045761	0.171290	0.684039
O35	O	0.692376	0.332625	0.899020
O36	O	0.692376	0.219831	1.011814
O37	O	0.867376	0.148351	0.857911
O38	O	0.867377	0.261145	0.745116
C39	C	0.545969	0.128874	0.877019
C40	C	0.466583	0.110134	0.895669
C41	C	0.779872	0.184094	0.520555
C42	C	0.779871	0.184095	0.418224
C43	C	0.779879	0.485607	0.822066
C44	C	0.779880	0.587938	0.822065
C45	C	0.205185	0.343205	0.663096
C46	C	0.130500	0.325676	0.680774
C47	C	0.130508	0.207928	0.798522
C48	C	0.205192	0.225451	0.780859
C49	C	0.242526	0.293090	0.713144
C50	C	0.242533	0.175335	0.830907
C51	C	0.317214	0.192853	0.813240
C52	C	0.354554	0.260486	0.745524
C53	C	0.317207	0.310608	0.695476
C54	C	0.205203	0.107691	0.898615
C55	C	0.242543	0.057576	0.948663
C56	C	0.317221	0.075099	0.931004
C57	C	0.354561	0.142732	0.863288
C58	C	0.354568	0.024977	0.981052
C59	C	0.429250	0.042495	0.963384
C60	C	0.429243	0.160250	0.845621
C61	C	1.013782	0.239309	0.767120
C62	C	1.093167	0.258049	0.748470
C63	C	0.779871	-0.117424	0.822073
C64	C	0.779870	-0.219755	0.822075
C65	C	0.871227	0.598705	0.741734
C66	C	0.871222	0.694859	0.741736
C67	C	0.688516	0.769475	0.902408
C68	C	0.688522	0.673322	0.902399
C69	C	0.962586	0.513321	0.661399
C70	C	1.053940	0.524084	0.581064
C71	C	1.053935	0.620238	0.581065
C72	C	0.962576	0.705629	0.661402
C73	C	0.779881	0.267354	0.273984
C74	C	0.779874	0.267359	0.370142
C75	C	0.779866	0.100824	0.370151
C76	C	0.779866	0.100823	0.274001
C77	C	0.779894	0.350620	0.225898
C78	C	0.779897	0.433892	0.273965
C79	C	0.779890	0.433897	0.370124
C80	C	0.779879	0.350630	0.418215
C81	C	0.779878	0.184089	1.123584
C82	C	0.779879	0.184089	1.225915
C83	C	0.545971	0.128872	1.178534
C84	C	0.466587	0.110131	1.299514
C85	C	0.545973	0.430390	0.877016
C86	C	0.466588	0.513981	0.895664
C87	C	0.545975	0.430387	1.178530
C88	C	0.466592	0.513978	1.299509
C89	C	1.013775	-0.062204	0.465609
C90	C	1.093158	-0.145795	0.344630
C91	C	1.013779	0.239311	0.465605
C92	C	1.093163	0.258052	0.344625
C93	C	1.013778	-0.062206	0.767124
C94	C	1.093162	-0.145798	0.748476
C95	C	0.429305	0.042444	1.297452
C96	C	0.354725	0.024814	1.411115
C97	C	0.317423	0.074879	1.526839
C98	C	0.354711	0.142570	1.528898
C99	C	0.429295	0.160193	1.415235
C100	C	0.429310	0.612123	0.963297
C101	C	0.354730	0.690677	0.980812
C102	C	0.317425	0.671087	0.930701
C103	C	0.354711	0.572935	0.863059
C104	C	0.429294	0.494384	0.845537
C105	C	0.429312	0.494356	1.415210
C106	C	0.354734	0.572891	1.528890
C107	C	0.317431	0.671047	1.526867
C108	C	0.354718	0.690669	1.411154
C109	C	0.429300	0.612135	1.297475
C110	C	1.130447	-0.126170	0.228927
C111	C	1.205049	-0.204700	0.115242
C112	C	1.242356	-0.302855	0.117263
C113	C	1.205064	-0.322478	0.232978
C114	C	1.130468	-0.243947	0.346659
C115	C	1.130453	0.325732	0.346685
C116	C	1.205053	0.343339	0.233018
C117	C	1.242358	0.293272	0.117293
C118	C	1.205066	0.225584	0.115235
C119	C	1.130472	0.207973	0.228900
C120	C	1.130443	-0.126177	0.798604
C121	C	1.205023	-0.204713	0.781106
C122	C	1.242326	-0.302868	0.713472
C123	C	1.205037	-0.322488	0.663344
C124	C	1.130453	-0.243954	0.680849
H125	H	0.459641	0.215329	0.790480
H126	H	0.415368	0.274744	0.731135
F127	F	0.090764	0.379019	0.627496
H128	H	0.779863	0.350645	0.496522
H129	H	0.779859	0.033031	0.409312
H130	H	0.459637	0.414474	0.790469
F131	F	0.779897	0.522510	0.222793
H132	H	1.100084	0.366512	0.440904
F133	F	1.321708	-0.386441	0.694848
H134	H	0.779863	0.033021	0.234865
F135	F	0.238042	0.056114	1.647801
H136	H	0.459676	0.001660	1.203233
F137	F	0.314999	0.195848	1.652072
H138	H	1.100113	0.152865	0.227206
H139	H	0.459640	0.215315	1.416932
H140	H	1.235452	0.184824	0.020996
F141	F	1.244777	-0.426949	0.235110
F142	F	0.315050	-0.047227	1.408898
F143	F	1.244726	0.415383	0.235235
F144	F	0.962576	0.807963	0.661386
H145	H	1.100083	-0.046259	0.853676
H146	H	0.459675	0.628093	1.004107
F147	F	1.321748	0.312027	-0.003671
H148	H	0.324169	-0.030101	1.036175
F149	F	0.244916	0.415201	0.591034
F150	F	0.315059	0.795129	1.052809
F151	F	0.591300	0.661863	0.987894
H152	H	0.324382	0.556896	1.623098
F153	F	0.356938	0.382603	0.623415
F154	F	0.315007	0.795140	1.409021
F155	F	1.244700	-0.183809	0.834459
F156	F	0.238046	0.754699	0.949360
F157	F	0.314997	0.552101	0.809734
F158	F	0.469004	0.389898	1.417390
F159	F	1.244754	-0.426958	0.591355
F160	F	1.090791	-0.264851	0.627479
F161	F	0.090771	0.135941	0.870583
H162	H	1.100109	-0.259939	0.440867
H163	H	0.144398	0.093425	0.912989
F164	F	1.244721	-0.183796	-0.007896
H165	H	0.212141	0.002501	1.003793
H166	H	0.962600	0.435024	0.661392
F167	F	0.468993	-0.010844	1.016650
H168	H	1.128321	0.454554	0.515648
F169	F	0.238052	0.754620	1.647865
H170	H	0.459643	0.628125	1.203273
F171	F	0.591292	0.860354	0.987905
H172	H	0.779903	0.350622	0.147598
H173	H	1.128320	0.628997	0.515643
F174	F	1.090753	-0.021713	0.226747
H175	H	0.779883	0.501704	0.409268
H176	H	1.303096	-0.366790	0.024688
