data_functionalizedCrystal
_audit_creation_method	'MofGen! by Chris Wilmer'
_symmetry_space_group_name_H-M	'P1'
_symmetry_Int_Tables_number	1
_symmetry_cell_setting	triclinic
loop_
_symmetry_equiv_pos_as_xyz
  x,y,z
_cell_length_a	16.793024
_cell_length_b	16.793047
_cell_length_c	33.586455
_cell_angle_alpha	113.253857
_cell_angle_beta	66.219990
_cell_angle_gamma	112.758327
loop_
_atom_site_label
_atom_site_type_symbol
_atom_site_fract_x
_atom_site_fract_y
_atom_site_fract_z
O1	O	0.005016	-0.570216	-0.583573
O2	O	-0.034529	-0.474528	-0.453458
O3	O	0.114723	-0.474535	-0.528082
O4	O	-0.144235	-0.570209	-0.508949
O5	O	0.108729	-0.346329	-0.530229
O6	O	-0.040523	-0.346322	-0.455605
O7	O	-0.000977	-0.442010	-0.585721
Zn8	Zn	-0.021701	-0.373810	-0.521004
Zn9	Zn	-0.013805	-0.542728	-0.518175
O10	O	-0.150229	-0.442003	-0.511097
C11	C	0.005100	-0.790970	-0.238461
C12	C	0.009223	-0.693065	-0.217557
C13	C	0.003804	-0.645758	-0.241627
C14	C	-0.075059	-0.538459	-0.266316
C15	C	0.049838	-0.422849	-0.250165
C16	C	-0.040584	-0.395375	-0.435637
C17	C	-0.044693	-0.353446	-0.386631
C18	C	-0.039275	-0.401741	-0.363054
C19	C	-0.040566	-0.125547	-0.300731
C20	C	-0.044689	-0.223451	-0.321635
C21	C	-0.039266	-0.270752	-0.297563
C22	C	0.039597	-0.378051	-0.272874
C23	C	-0.085304	-0.493667	-0.289026
C24	C	0.005118	-0.521142	-0.103554
C25	C	0.009231	-0.563064	-0.152559
C26	C	0.003809	-0.514775	-0.176138
C27	C	0.010758	-0.652581	-0.172822
C28	C	0.001010	-0.556371	-0.220792
C29	C	-0.008251	-0.506059	-0.245823
C30	C	-0.046224	-0.263935	-0.366370
C31	C	-0.036476	-0.360146	-0.318399
C32	C	-0.027211	-0.410451	-0.293367
C33	C	0.815184	-0.521162	-0.508596
C34	C	0.415541	-0.125553	-0.528781
C35	C	0.375032	-0.223457	-0.531493
C36	C	0.423813	-0.270761	-0.529101
C37	C	0.149318	-0.395376	-0.530584
C38	C	0.246774	-0.353455	-0.532364
C39	C	0.294574	-0.401748	-0.529976
C40	C	0.548961	-0.790984	-0.510398
C41	C	0.286104	-0.263940	-0.532530
C42	C	0.383336	-0.360149	-0.528302
C43	C	0.432207	-0.407971	-0.525810
C44	C	0.392316	-0.497392	-0.524993
C45	C	0.303554	-0.538991	-0.526667
C46	C	0.254683	-0.491169	-0.529159
C47	C	0.263666	-0.628421	-0.525851
C48	C	0.312537	-0.676243	-0.523359
C49	C	0.401299	-0.634644	-0.521685
C50	C	0.441190	-0.545223	-0.522502
C51	C	0.529952	-0.503624	-0.520828
C52	C	0.578823	-0.551446	-0.518336
C53	C	0.538939	-0.640864	-0.517520
C54	C	0.450177	-0.682463	-0.519194
C55	C	0.587810	-0.688687	-0.515028
C56	C	0.676572	-0.647088	-0.513354
C57	C	0.716463	-0.557666	-0.514172
C58	C	0.667586	-0.509847	-0.516662
C59	C	0.569840	-0.414195	-0.521644
C60	C	0.658602	-0.372596	-0.519970
C61	C	0.707476	-0.420426	-0.517480
C62	C	0.698493	-0.283174	-0.520788
C63	C	0.649622	-0.235352	-0.523280
C64	C	0.560860	-0.276951	-0.524954
C65	C	0.520969	-0.366372	-0.524136
C66	C	0.511989	-0.229129	-0.527446
C67	C	-0.040530	-0.395407	-0.935652
C68	C	0.005063	-0.791004	-0.738448
C69	C	0.009186	-0.693099	-0.717543
C70	C	0.003779	-0.645796	-0.741620
C71	C	0.005077	-0.521171	-0.603544
C72	C	0.009198	-0.563096	-0.652550
C73	C	0.003786	-0.514804	-0.676131
C74	C	-0.040516	-0.125574	-0.800747
C75	C	0.010719	-0.652613	-0.672809
C76	C	0.000994	-0.556406	-0.720789
C77	C	-0.004621	-0.508585	-0.744908
C78	C	-0.007444	-0.419162	-0.724369
C79	C	-0.004651	-0.377560	-0.679711
C80	C	0.000964	-0.425381	-0.655592
C81	C	-0.007471	-0.288129	-0.659174
C82	C	-0.013086	-0.240308	-0.683293
C83	C	-0.015878	-0.281910	-0.727951
C84	C	-0.013056	-0.371333	-0.748490
C85	C	-0.015848	-0.412935	-0.793148
C86	C	-0.021463	-0.365114	-0.817267
C87	C	-0.024282	-0.275694	-0.796731
C88	C	-0.021490	-0.234092	-0.752073
C89	C	-0.029897	-0.227873	-0.820850
C90	C	-0.032690	-0.269476	-0.865508
C91	C	-0.029867	-0.358899	-0.886047
C92	C	-0.024255	-0.406717	-0.861925
C93	C	-0.013028	-0.502367	-0.813685
C94	C	-0.015821	-0.543969	-0.858343
C95	C	-0.021433	-0.496140	-0.882464
C96	C	-0.012998	-0.633392	-0.878882
C97	C	-0.007383	-0.681213	-0.854763
C98	C	-0.004591	-0.639611	-0.810105
C99	C	-0.007414	-0.550188	-0.789566
C100	C	0.001024	-0.687432	-0.785986
O101	O	-0.000965	0.173549	-0.277957
O102	O	-0.040516	-0.085616	-0.325254
O103	O	0.108737	0.059592	-0.327284
O104	O	-0.150219	0.028341	-0.275927
O105	O	0.114753	0.055151	-0.263265
O106	O	-0.034500	-0.090057	-0.261234
O107	O	0.005051	0.169108	-0.213937
Zn108	Zn	-0.013769	0.038820	-0.227421
Zn109	Zn	-0.021696	0.044672	-0.311770
O110	O	-0.144202	0.023900	-0.211907
O111	O	-0.034458	-0.474571	0.046517
O112	O	0.005076	-0.570190	-0.083599
O113	O	-0.144170	-0.570237	-0.008972
O114	O	0.114787	-0.474523	-0.028110
O115	O	-0.150200	-0.442024	-0.011093
O116	O	-0.000954	-0.441976	-0.085720
O117	O	-0.040488	-0.346357	0.044396
Zn118	Zn	-0.021679	-0.373810	-0.020999
Zn119	Zn	-0.013734	-0.542737	-0.018204
O120	O	0.108757	-0.346309	-0.030231
C121	C	-0.850734	0.086244	-0.289716
C122	C	-0.753280	0.087165	-0.312001
C123	C	-0.705462	0.081107	-0.288506
C124	C	-0.599592	0.000085	-0.264184
C125	C	-0.481080	0.121287	-0.283645
C126	C	-0.450996	0.035117	-0.097351
C127	C	-0.410501	0.028587	-0.146852
C128	C	-0.459292	0.034683	-0.169840
C129	C	-0.184802	0.024283	-0.235878
C130	C	-0.282257	0.023363	-0.213592
C131	C	-0.330068	0.029423	-0.237088
C132	C	-0.435938	0.110445	-0.261411
C133	C	-0.554456	-0.010759	-0.241948
C134	C	-0.584541	0.075410	-0.428242
C135	C	-0.625029	0.081943	-0.378743
C136	C	-0.576244	0.075844	-0.355753
C137	C	-0.713963	0.086424	-0.357292
C138	C	-0.616708	0.075351	-0.310510
C139	C	-0.565963	0.065400	-0.286043
C140	C	-0.321573	0.024104	-0.168302
C141	C	-0.418828	0.035176	-0.215083
C142	C	-0.469568	0.045131	-0.239552
O143	O	0.585213	0.169090	-0.504004
O144	O	0.494056	-0.090076	-0.525516
O145	O	0.488081	0.055124	-0.449918
O146	O	0.591189	0.023889	-0.579602
O147	O	0.359978	0.059584	-0.452885
O148	O	0.365953	-0.085616	-0.528483
O149	O	0.457110	0.173550	-0.506971
Zn150	Zn	0.391193	0.044675	-0.518198
Zn151	Zn	0.559974	0.038798	-0.514289
O152	O	0.463086	0.028349	-0.582569
C153	C	0.815354	-0.521094	-0.008709
C154	C	0.717898	-0.563028	-0.006927
C155	C	0.670072	-0.514739	-0.009298
C156	C	0.564182	-0.463204	-0.048354
C157	C	0.445681	-0.498945	0.013847
C158	C	0.415547	-0.125494	-0.028771
C159	C	0.375059	-0.223405	-0.031498
C160	C	0.423859	-0.270708	-0.029121
C161	C	0.149365	-0.395355	-0.030599
C162	C	0.246820	-0.353421	-0.032381
C163	C	0.294640	-0.401713	-0.030008
C164	C	0.400530	-0.453248	0.009048
C165	C	0.519038	-0.417504	-0.053155
C166	C	0.549171	-0.790955	-0.010537
C167	C	0.589653	-0.693047	-0.007809
C168	C	0.540859	-0.645741	-0.010187
C169	C	0.678588	-0.652551	-0.006775
C170	C	0.581317	-0.556344	-0.010973
C171	C	0.530562	-0.506029	-0.015250
C172	C	0.286131	-0.263897	-0.032533
C173	C	0.383402	-0.360104	-0.028335
C174	C	0.434150	-0.410423	-0.024057
O175	O	-0.620614	0.089309	0.052274
O176	O	-0.529507	0.043784	-0.078544
O177	O	-0.523494	0.194833	-0.006033
O178	O	-0.626628	-0.061740	-0.020236
O179	O	-0.395386	0.185419	-0.005549
O180	O	-0.401400	0.034370	-0.078059
O181	O	-0.492507	0.079895	0.052758
Zn182	Zn	-0.426614	0.055638	-0.012574
Zn183	Zn	-0.595401	0.068041	-0.013212
O184	O	-0.498521	-0.071154	-0.019752
C185	C	-0.437537	0.048335	0.402491
C186	C	-0.397043	0.041789	0.352989
C187	C	-0.445822	0.047883	0.329994
C188	C	-0.496646	0.126653	0.277022
C189	C	-0.465894	-0.000633	0.218811
C190	C	-0.837226	0.099430	0.210091
C191	C	-0.739773	0.100339	0.187806
C192	C	-0.691967	0.094287	0.211308
C193	C	-0.571027	0.088563	0.071568
C194	C	-0.611521	0.095108	0.121070
C195	C	-0.562739	0.089011	0.144061
C196	C	-0.511915	0.010241	0.197033
C197	C	-0.542670	0.137531	0.255247
C198	C	-0.171338	0.037467	0.263967
C199	C	-0.268788	0.036555	0.286249
C200	C	-0.316597	0.042611	0.262750
C201	C	-0.308112	0.037305	0.331542
C202	C	-0.405351	0.048369	0.284750
C203	C	-0.456092	0.058317	0.260279
C204	C	-0.700452	0.099593	0.142516
C205	C	-0.603213	0.088528	0.189308
C206	C	-0.552469	0.078578	0.213776
O207	O	-0.040608	-1.085661	-0.825229
O208	O	-0.001018	-0.826491	-0.777938
O209	O	-0.150287	-0.971682	-0.775894
O210	O	0.108661	-0.940470	-0.827272
O211	O	-0.144253	-0.976123	-0.711878
O212	O	0.005016	-0.830932	-0.713922
O213	O	-0.034575	-1.090102	-0.761213
Zn214	Zn	-0.013821	-0.961222	-0.727403
Zn215	Zn	-0.021771	-0.955371	-0.811747
O216	O	0.114695	-0.944911	-0.763256
O217	O	-0.036862	-0.230384	-0.253947
C218	C	-0.115987	-0.202041	-0.227222
H219	H	-0.171766	-0.243574	-0.244184
H220	H	-0.138525	-0.211820	-0.192195
H221	H	-0.101653	-0.127812	-0.223676
H222	H	0.088092	-0.309407	-0.275738
H223	H	-0.574318	0.196197	0.271049
H224	H	0.001660	-0.441639	-0.159184
H225	H	0.413839	-0.532573	0.042316
H226	H	-0.518563	-0.039000	0.162804
H227	H	0.107243	-0.392097	-0.234140
H228	H	-0.449229	0.177371	-0.300885
H229	H	-0.005182	-0.254109	-0.622664
O230	O	-0.762008	0.090359	-0.380466
C231	C	-0.718322	0.167741	-0.395996
H232	H	-0.643678	0.189804	-0.398303
H233	H	-0.725228	0.151706	-0.430942
H234	H	-0.750734	0.224284	-0.371302
O235	O	-0.731326	0.093816	0.255445
C236	C	-0.808492	0.019653	0.258888
H237	H	-0.802039	-0.034327	0.224823
H238	H	-0.814507	-0.009104	0.285884
H239	H	-0.871329	0.042417	0.268743
O240	O	0.014007	-0.700215	-0.649086
C241	C	0.092841	-0.730309	-0.671186
H242	H	0.145383	-0.685311	-0.693291
H243	H	0.121152	-0.727323	-0.644809
H244	H	0.075735	-0.802627	-0.693330
O245	O	-0.004505	-0.768407	-0.874767
C246	C	0.076498	-0.776708	-0.875486
H247	H	0.103244	-0.718984	-0.847692
H248	H	0.062989	-0.843580	-0.869440
H249	H	0.128759	-0.774273	-0.909906
H250	H	-0.015393	-0.167196	-0.666497
O251	O	-0.024127	-0.146825	-0.732105
C252	C	0.050353	-0.091704	-0.756906
H253	H	0.075435	-0.133820	-0.793206
H254	H	0.028902	-0.035359	-0.757214
H255	H	0.106946	-0.061358	-0.740352
O256	O	-0.153851	-0.530463	-0.308106
C257	C	-0.204445	-0.614575	-0.299752
H258	H	-0.194742	-0.616959	-0.268586
H259	H	-0.279096	-0.624244	-0.293530
H260	H	-0.180410	-0.670536	-0.330385
O261	O	-0.683138	-0.055627	-0.265625
C262	C	-0.707868	-0.118506	-0.241797
H263	H	-0.668062	-0.090304	-0.216322
H264	H	-0.783297	-0.132033	-0.223053
H265	H	-0.692243	-0.184027	-0.266746
O266	O	0.717250	-0.691678	-0.504529
C267	C	0.667758	-0.707655	-0.461849
H268	H	0.595064	-0.706368	-0.452837
H269	H	0.668310	-0.776343	-0.463189
H270	H	0.699877	-0.653174	-0.435009
O271	O	-0.290784	0.029906	-0.281225
C272	C	-0.289282	0.110627	-0.285608
H273	H	-0.293308	0.164398	-0.251513
H274	H	-0.223865	0.134232	-0.311868
H275	H	-0.349455	0.098525	-0.296987
O276	O	0.255244	-0.488930	-0.029260
C277	C	0.178119	-0.493726	0.008885
H278	H	0.152540	-0.432125	0.020290
H279	H	0.122994	-0.557299	-0.000421
H280	H	0.196455	-0.495631	0.037630
O281	O	-0.050616	-0.224902	-0.885685
C282	C	0.022517	-0.210258	-0.924357
H283	H	0.062000	-0.261850	-0.936833
H284	H	-0.004192	-0.217541	-0.952248
H285	H	0.068878	-0.139544	-0.915261
O286	O	-0.748488	0.103507	0.119332
C287	C	-0.704803	0.180874	0.103790
H288	H	-0.630161	0.202952	0.101490
H289	H	-0.711697	0.164814	0.068838
H290	H	-0.737224	0.237417	0.128472
H291	H	0.001650	-0.679613	-0.278166
H292	H	0.417564	-0.755580	-0.518528
H293	H	-0.023718	-0.530163	-0.918978
O294	O	-0.744826	0.080623	-0.244372
C295	C	-0.821987	0.006453	-0.240933
H296	H	-0.815525	-0.047521	-0.275000
H297	H	-0.828002	-0.022307	-0.213939
H298	H	-0.884827	0.029211	-0.231080
H299	H	0.771070	-0.249160	-0.519423
O300	O	0.794006	-0.379781	-0.515772
C301	C	0.795515	-0.304602	-0.477111
H302	H	0.726185	-0.313501	-0.450773
H303	H	0.848413	-0.298514	-0.462178
H304	H	0.813169	-0.241003	-0.487119
H305	H	-0.365918	0.157102	-0.260160
H306	H	0.013390	-0.692483	-0.152899
H307	H	0.544602	-0.156012	-0.528109
H308	H	-0.015274	-0.667410	-0.915397
H309	H	-0.503619	0.071273	-0.373665
H310	H	0.003321	-0.760550	-0.802778
H311	H	0.682238	-0.162236	-0.523943
O312	O	0.510564	-0.230411	-0.027660
C313	C	0.568449	-0.277781	-0.065270
H314	H	0.534901	-0.316880	-0.093485
H315	H	0.634838	-0.228093	-0.078004
H316	H	0.582417	-0.326672	-0.054733
H317	H	0.003251	-0.391359	-0.619081
O318	O	-0.592295	-0.077703	-0.221411
C319	C	-0.536298	-0.136101	-0.240492
H320	H	-0.464195	-0.098885	-0.256448
H321	H	-0.537275	-0.159925	-0.212830
H322	H	-0.562142	-0.196714	-0.267626
O323	O	0.709233	-0.427426	-0.009902
C324	C	0.659071	-0.372223	0.027758
H325	H	0.618952	-0.407813	0.055473
H326	H	0.707138	-0.305858	0.041271
H327	H	0.610562	-0.358357	0.016985
O328	O	0.647662	-0.468500	-0.077383
C329	C	0.642068	-0.510775	-0.122090
H330	H	0.579605	-0.503295	-0.124461
H331	H	0.705077	-0.477924	-0.146442
H332	H	0.636998	-0.585287	-0.131519
O333	O	-0.132982	-0.620284	-0.262808
C334	C	-0.177533	-0.616252	-0.216659
H335	H	-0.176647	-0.543506	-0.195961
H336	H	-0.250480	-0.659309	-0.212548
H337	H	-0.141500	-0.642682	-0.204150
H338	H	-0.434254	-0.059305	0.203012
H339	H	-0.531920	0.039247	-0.151930
H340	H	0.550886	-0.383867	-0.081621
H341	H	0.468233	-0.679598	-0.011487
O342	O	-0.488574	0.185338	0.317851
C343	C	-0.438186	0.160028	0.333525
H344	H	-0.394285	0.117984	0.303511
H345	H	-0.393256	0.222950	0.351576
H346	H	-0.486269	0.118686	0.358160
H347	H	-0.037138	-0.474881	-0.380005
H348	H	-0.048864	-0.224020	-0.386283
O349	O	0.237846	-0.216325	-0.533700
C350	C	0.160910	-0.213669	-0.495340
H351	H	0.173258	-0.225153	-0.467292
H352	H	0.147270	-0.145104	-0.482880
H353	H	0.099992	-0.268598	-0.504829
O354	O	-0.273345	0.020181	-0.145217
C355	C	-0.246160	-0.060075	-0.166555
H356	H	-0.245245	-0.085233	-0.203576
H357	H	-0.175576	-0.046610	-0.164748
H358	H	-0.295675	-0.113277	-0.148597
H359	H	0.330510	-0.448858	0.033327
O360	O	0.726642	-0.700197	-0.005461
C361	C	0.682961	-0.730081	0.033818
H362	H	0.608313	-0.732687	0.045859
H363	H	0.689879	-0.800157	0.025705
H364	H	0.715367	-0.681567	0.061652
H365	H	0.182115	-0.525189	-0.530531
O366	O	0.177087	-0.669117	-0.527460
C367	C	0.152269	-0.758672	-0.526212
H368	H	0.196744	-0.765061	-0.510039
H369	H	0.078438	-0.777683	-0.505363
H370	H	0.161556	-0.805688	-0.562224
H371	H	0.245737	-0.223998	-0.033572
H372	H	-0.283673	0.042875	0.225734
O373	O	-0.476144	0.083441	0.122634
C374	C	-0.474447	0.006033	0.085052
H375	H	-0.536977	-0.014575	0.073829
H376	H	-0.411157	0.021318	0.055961
H377	H	-0.473832	-0.051238	0.094975
O378	O	0.273615	-0.763419	-0.522483
C379	C	0.272330	-0.771727	-0.482048
H380	H	0.276140	-0.703566	-0.455284
H381	H	0.207092	-0.822594	-0.469303
H382	H	0.332715	-0.795740	-0.488859
H383	H	-0.267732	0.034117	0.350946
O384	O	-0.532399	0.053523	0.351399
C385	C	-0.534069	0.130920	0.388987
H386	H	-0.464774	0.181784	0.383635
H387	H	-0.586984	0.162106	0.392665
H388	H	-0.551799	0.111456	0.421057
