data_functionalizedCrystal
_audit_creation_method	'MofGen! by Chris Wilmer'
_symmetry_space_group_name_H-M	'P1'
_symmetry_Int_Tables_number	1
_symmetry_cell_setting	triclinic
loop_
_symmetry_equiv_pos_as_xyz
  x,y,z
_cell_length_a	15.944493
_cell_length_b	15.944493
_cell_length_c	9.730223
_cell_angle_alpha	89.998619
_cell_angle_beta	89.986404
_cell_angle_gamma	96.524956
loop_
_atom_site_label
_atom_site_type_symbol
_atom_site_fract_x
_atom_site_fract_y
_atom_site_fract_z
O1	O	-0.108108	1.114525	0.114289
O2	O	-0.121515	0.869966	0.114297
O3	O	0.007468	0.998949	0.114265
O4	O	-0.237091	0.985542	0.114321
O5	O	0.007482	0.998952	-0.114315
O6	O	-0.121502	0.869969	-0.114282
O7	O	-0.108094	1.114528	-0.114291
Zn8	Zn	-0.114796	0.992249	-0.150579
Zn9	Zn	-0.114814	0.992245	0.150585
O10	O	-0.237077	0.985545	-0.114259
C11	C	-0.120961	0.838673	0.000008
C12	C	-0.119318	0.745424	0.000010
C13	C	-0.195240	0.509649	0.000029
C14	C	-0.154291	0.459100	-0.112688
C15	C	-0.116273	0.574704	0.000007
C16	C	-0.154286	0.459102	0.112674
C17	C	-0.113339	0.409795	0.000010
C18	C	-0.075346	0.525384	-0.112803
C19	C	-0.075352	0.525389	0.112660
C20	C	-0.034346	0.474873	-0.000085
C21	C	-0.117966	0.669704	0.000004
C22	C	-0.111640	0.314798	0.000003
C23	C	-0.268379	0.986091	0.000039
C24	C	-0.361627	0.987734	0.000061
C25	C	-0.597403	0.911812	0.000018
C26	C	-0.647979	0.952752	0.112712
C27	C	-0.532348	0.990778	0.000028
C28	C	-0.647922	0.952773	-0.112650
C29	C	-0.697257	0.993713	-0.000009
C30	C	-0.581695	1.031698	0.112816
C31	C	-0.581635	1.031707	-0.112647
C32	C	-0.632178	1.072706	0.000074
C33	C	-0.437348	0.989085	0.000051
C34	C	-0.792253	0.995412	-0.000021
C35	C	0.038769	0.998403	-0.000030
C36	C	0.132018	0.996760	-0.000042
C37	C	-0.108649	1.145821	0.000001
C38	C	-0.110292	1.239069	0.000008
N39	N	-0.114820	0.992243	0.356121
N40	N	-0.114783	0.992258	-0.356115
C41	C	-0.063738	0.941420	0.428027
C42	C	-0.063716	0.941429	0.571910
C43	C	-0.165867	1.043086	0.571969
C44	C	-0.165884	1.043081	0.428088
H45	H	0.033727	0.459422	-0.000166
C46	C	-0.030364	0.564526	0.241383
C47	C	-0.023060	0.660646	0.264259
C48	C	0.021913	0.699787	0.392999
C49	C	0.059580	0.642808	0.498863
C50	C	0.052277	0.546683	0.475990
C51	C	0.007304	0.507541	0.347249
H52	H	-0.050944	0.702830	0.185890
H53	H	0.027319	0.770946	0.409931
H54	H	0.092871	0.671783	0.594164
H55	H	0.080161	0.504498	0.554359
H56	H	0.001898	0.436382	0.330318
H57	H	-0.263261	0.525258	-0.000061
C58	C	-0.542782	1.076714	0.241685
C59	C	-0.553270	1.170275	0.267128
C60	C	-0.514357	1.215287	0.395997
C61	C	-0.464954	1.166738	0.499424
C62	C	-0.454463	1.073171	0.473985
C63	C	-0.493377	1.028159	0.345115
H64	H	-0.589843	1.206219	0.190562
H65	H	-0.522123	1.284552	0.414828
H66	H	-0.436148	1.200058	0.594821
H67	H	-0.417891	1.037227	0.550550
H68	H	-0.485611	0.958894	0.326284
C69	C	-0.199359	0.420003	0.241401
C70	C	-0.293152	0.429763	0.266150
C71	C	-0.338231	0.390667	0.394869
C72	C	-0.289518	0.341810	0.498839
C73	C	-0.195720	0.332048	0.474093
C74	C	-0.150640	0.371144	0.345374
H75	H	-0.329217	0.465931	0.189182
H76	H	-0.407667	0.397893	0.413187
H77	H	-0.322889	0.312869	0.594125
H78	H	-0.159655	0.295880	0.551061
H79	H	-0.081205	0.363918	0.327056
H80	H	-0.581790	0.843791	0.000136
H81	H	-0.676944	0.919403	0.207994
H82	H	-0.207482	1.084471	0.369541
H83	H	-0.647630	1.140779	0.000131
C84	C	-0.686991	0.907709	-0.241369
C85	C	-0.677226	0.813918	-0.266086
C86	C	-0.716293	0.768847	-0.394797
C87	C	-0.765125	0.817567	-0.498791
C88	C	-0.774893	0.911364	-0.474078
C89	C	-0.735826	0.956435	-0.345367
H90	H	-0.641076	0.777847	-0.189100
H91	H	-0.709063	0.699412	-0.413091
H92	H	-0.794045	0.784203	-0.594071
H93	H	-0.811043	0.947434	-0.551063
H94	H	-0.743056	1.025870	-0.327073
H95	H	-0.187634	0.430157	-0.207965
C96	C	-0.007529	0.885519	0.651007
C97	C	0.048636	0.829602	0.571840
C98	C	0.104827	0.773689	0.650936
C99	C	0.104853	0.773694	0.809199
C100	C	0.048686	0.829613	0.888375
C101	C	-0.007505	0.885526	0.809279
H102	H	0.048619	0.829597	0.454677
H103	H	0.146405	0.732294	0.592325
H104	H	0.146448	0.732304	0.867751
H105	H	0.048703	0.829619	1.005538
H106	H	-0.049083	0.926921	0.867890
H107	H	-0.042012	0.554220	-0.208191
H108	H	-0.552655	1.065027	-0.207933
C109	C	-0.222043	1.098997	0.651136
C110	C	-0.222033	1.099002	0.809399
C111	C	-0.278213	1.154912	0.888562
C112	C	-0.334403	1.210817	0.809463
C113	C	-0.334415	1.210815	0.651192
C114	C	-0.278235	1.154905	0.572028
H115	H	-0.180437	1.057615	0.867960
H116	H	-0.278204	1.154913	1.005726
H117	H	-0.375991	1.252205	0.868065
H118	H	-0.376011	1.252202	0.592630
H119	H	-0.278244	1.154904	0.454864
H120	H	-0.022158	0.900025	0.369436
