data_functionalizedCrystal
_audit_creation_method	'MofGen! by Chris Wilmer'
_symmetry_space_group_name_H-M	'P1'
_symmetry_Int_Tables_number	1
_symmetry_cell_setting	triclinic
loop_
_symmetry_equiv_pos_as_xyz
  x,y,z
_cell_length_a	17.077404
_cell_length_b	18.050590
_cell_length_c	17.077396
_cell_angle_alpha	89.969391
_cell_angle_beta	89.983895
_cell_angle_gamma	90.016523
loop_
_atom_site_label
_atom_site_type_symbol
_atom_site_fract_x
_atom_site_fract_y
_atom_site_fract_z
Zn1	Zn	1.200061	-0.295694	-0.443812
Zn2	Zn	1.700061	0.204306	0.056188
Zn3	Zn	1.199983	-0.419893	-0.312543
Zn4	Zn	1.699983	0.080107	0.187457
Zn5	Zn	1.068798	-0.295717	-0.312562
Zn6	Zn	1.568798	0.204283	0.187438
Zn7	Zn	1.068770	-0.419842	-0.443769
Zn8	Zn	1.568770	0.080158	0.056231
O9	O	1.134403	-0.357786	-0.378171
O10	O	1.634403	0.142214	0.121829
O11	O	1.309897	-0.312180	-0.426408
O12	O	1.809897	0.187820	0.073592
O13	O	1.182560	-0.403451	-0.202698
O14	O	1.682560	0.096549	0.297302
O15	O	1.086254	-0.191789	-0.329999
O16	O	1.586254	0.308211	0.170001
O17	O	1.309840	-0.403429	-0.329966
O18	O	1.809840	0.096571	0.170034
O19	O	1.182692	-0.191772	-0.426427
O20	O	1.682692	0.308228	0.073573
O21	O	1.086179	-0.312220	-0.202713
O22	O	1.586179	0.187780	0.297287
O23	O	0.958947	-0.312170	-0.329957
O24	O	1.458947	0.187830	0.170043
O25	O	1.086208	-0.403342	-0.553622
O26	O	1.586208	0.096658	-0.053622
O27	O	0.958927	-0.403365	-0.426354
O28	O	1.458927	0.096635	0.073646
O29	O	1.182666	-0.312131	-0.553653
O30	O	1.682666	0.187869	-0.053653
O31	O	1.182533	-0.523810	-0.329924
O32	O	1.682533	-0.023810	0.170076
O33	O	1.086132	-0.523773	-0.426336
O34	O	1.586132	-0.023773	0.073664
C35	C	0.930455	-0.357765	-0.378154
C36	C	1.430455	0.142235	0.121846
C37	C	0.843205	-0.357774	-0.378165
C38	C	1.343205	0.142226	0.121835
C39	C	0.802246	-0.310345	-0.428459
C40	C	1.302246	0.189655	0.071541
C41	C	0.720265	-0.310350	-0.428463
C42	C	1.220265	0.189650	0.071537
C43	C	0.679246	-0.357788	-0.378176
C44	C	1.179246	0.142212	0.121824
C45	C	0.720211	-0.405219	-0.327876
C46	C	1.220211	0.094781	0.172124
C47	C	0.802190	-0.405209	-0.327869
C48	C	1.302190	0.094791	0.172131
C49	C	0.549341	-0.405235	-0.327895
C50	C	1.049341	0.094765	0.172105
C51	C	0.467357	-0.405246	-0.327903
C52	C	0.967357	0.094754	0.172097
C53	C	0.467416	-0.310376	-0.428489
C54	C	0.967416	0.189624	0.071511
C55	C	0.549395	-0.310367	-0.428482
C56	C	1.049395	0.189633	0.071518
C57	C	0.590355	-0.357799	-0.378183
C58	C	1.090355	0.142201	0.121817
C59	C	1.134343	-0.550738	-0.378140
C60	C	1.634343	-0.050738	0.121860
C61	C	1.134389	-0.633284	-0.378153
C62	C	1.634389	-0.133284	0.121847
C63	C	1.186921	-0.832728	-0.325798
C64	C	1.686921	-0.332728	0.174202
C65	C	1.206093	-0.882059	-0.397440
C66	C	1.706093	-0.382059	0.102560
C67	C	1.134433	-0.784414	-0.378184
C68	C	1.634433	-0.284414	0.121816
C69	C	1.115341	-0.882165	-0.306574
C70	C	1.615341	-0.382165	0.193426
C71	C	1.134478	-0.930399	-0.378208
C72	C	1.634478	-0.430399	0.121792
C73	C	1.153642	-0.832658	-0.449864
C74	C	1.653642	-0.332658	0.050136
C75	C	1.062857	-0.832760	-0.358950
C76	C	1.562857	-0.332760	0.141050
C77	C	1.082002	-0.882069	-0.430642
C78	C	1.582002	-0.382069	0.069358
C79	C	1.134410	-0.700316	-0.378170
C80	C	1.634410	-0.200316	0.121830
C81	C	1.134501	-1.014496	-0.378231
C82	C	1.634501	-0.514496	0.121769
C83	C	1.339147	-0.357808	-0.378190
C84	C	1.839147	0.142192	0.121810
C85	C	1.426397	-0.357817	-0.378197
C86	C	1.926397	0.142183	0.121803
C87	C	1.134442	-0.357729	-0.582916
C88	C	1.634442	0.142271	-0.082916
C89	C	1.134459	-0.357704	-0.670166
C90	C	1.634459	0.142296	-0.170166
C91	C	1.134485	-0.164081	-0.378220
C92	C	1.634485	0.335919	0.121780
C93	C	1.134520	-0.081535	-0.378241
C94	C	1.634520	0.418465	0.121759
C95	C	1.084289	-0.310194	-0.711163
C96	C	1.584289	0.189806	-0.211163
C97	C	1.084302	-0.310177	-0.793143
C98	C	1.584302	0.189823	-0.293143
C99	C	1.134489	-0.357667	-0.834125
C100	C	1.634489	0.142333	-0.334125
C101	C	1.184662	-0.405182	-0.793122
C102	C	1.684662	0.094818	-0.293122
C103	C	1.184645	-0.405202	-0.711143
C104	C	1.684645	0.094798	-0.211143
C105	C	1.184696	-0.405136	-0.963993
C106	C	1.684696	0.094864	-0.463993
C107	C	1.184715	-0.405115	-1.045977
C108	C	1.684715	0.094885	-0.545977
C109	C	1.084353	-0.310111	-1.045992
C110	C	1.584353	0.189889	-0.545992
C111	C	1.084336	-0.310131	-0.964013
C112	C	1.584336	0.189869	-0.464013
C113	C	1.134509	-0.357645	-0.923016
C114	C	1.634509	0.142355	-0.423016
C115	C	1.134409	-0.357790	-0.174224
C116	C	1.634409	0.142210	0.325776
C117	C	1.134544	-0.357605	-0.086974
C118	C	1.634544	0.142395	0.413026
H119	H	0.433961	-0.443874	-0.286955
H120	H	0.933961	0.056126	0.213045
H121	H	1.002325	-0.811088	-0.342645
H122	H	1.502325	-0.311088	0.157355
H123	H	1.043445	-0.271493	-0.826519
H124	H	1.543445	0.228507	-0.326519
Br125	Br	0.664680	-0.245980	-0.496723
Br126	Br	1.164680	0.254020	0.003277
H127	H	1.043472	-0.271457	-0.930648
H128	H	1.543472	0.228543	-0.430648
Br129	Br	1.016264	-0.245623	-1.101630
Br130	Br	1.516264	0.254377	-0.601630
H131	H	0.835638	-0.271718	-0.469411
H132	H	1.335638	0.228282	0.030589
H133	H	0.582688	-0.443858	-0.286934
H134	H	1.082688	0.056142	0.213066
Br135	Br	1.252835	-0.469559	-1.101596
Br136	Br	1.752835	0.030441	-0.601596
Br137	Br	1.016179	-0.245734	-0.655552
Br138	Br	1.516179	0.254266	-0.155552
Br139	Br	0.664543	-0.469593	-0.259621
Br140	Br	1.164543	0.030407	0.240379
Br141	Br	1.180716	-0.796573	-0.550846
Br142	Br	1.680716	-0.296573	-0.050846
H143	H	1.225560	-0.443821	-0.930615
H144	H	1.725560	0.056179	-0.430615
H145	H	1.225522	-0.443853	-0.826496
H146	H	1.725522	0.056147	-0.326496
H147	H	1.225504	-0.443884	-0.677765
H148	H	1.725504	0.056116	-0.177765
Br149	Br	1.088396	-0.918414	-0.205623
Br150	Br	1.588396	-0.418414	0.294377
Br151	Br	0.605064	-0.245995	-0.496739
Br152	Br	1.105064	0.254005	0.003261
Br153	Br	0.857780	-0.469578	-0.259608
Br154	Br	1.357780	0.030422	0.240392
H155	H	1.231323	-0.811063	-0.281542
H156	H	1.731323	-0.311063	0.218458
H157	H	1.266642	-0.903715	-0.413724
H158	H	1.766642	-0.403715	0.086276
H159	H	0.434063	-0.271754	-0.469443
H160	H	0.934063	0.228246	0.030557
Br161	Br	1.008050	-0.917954	-0.504579
Br162	Br	1.508050	-0.417954	-0.004579
