data_functionalizedCrystal
_audit_creation_method	'MofGen! by Chris Wilmer'
_symmetry_space_group_name_H-M	'P1'
_symmetry_Int_Tables_number	1
_symmetry_cell_setting	triclinic
loop_
_symmetry_equiv_pos_as_xyz
  x,y,z
_cell_length_a	15.944551
_cell_length_b	11.026607
_cell_length_c	9.482900
_cell_angle_alpha	101.363848
_cell_angle_beta	99.334197
_cell_angle_gamma	83.957623
loop_
_atom_site_label
_atom_site_type_symbol
_atom_site_fract_x
_atom_site_fract_y
_atom_site_fract_z
O1	O	0.341447	-1.629108	-0.120915
O2	O	0.301394	-1.275798	-0.120914
O3	O	0.200605	-1.462099	-0.120901
O4	O	0.442235	-1.442807	-0.120927
O5	O	0.221183	-1.424257	0.120889
O6	O	0.321972	-1.237956	0.120876
O7	O	0.362024	-1.591266	0.120875
Cu8	Cu	0.343877	-1.411156	0.142953
Cu9	Cu	0.319541	-1.455908	-0.142992
O10	O	0.462813	-1.404965	0.120862
C11	C	0.179479	-1.442377	-0.000006
C12	C	0.085870	-1.439975	-0.000005
C13	C	0.304294	-1.211666	-0.000019
C14	C	0.282267	-1.076950	-0.000019
N15	N	0.360994	-1.379688	0.344071
C16	C	-0.147313	-1.318759	-0.000025
C17	C	-0.189675	-1.356391	0.119192
C18	C	-0.085514	-1.435632	-0.000016
C19	C	-0.209942	-1.393728	-0.119194
C20	C	-0.251064	-1.431430	-0.000034
C21	C	-0.126634	-1.473281	0.119299
C22	C	-0.146907	-1.510618	-0.119194
C23	C	-0.189236	-1.548331	0.000052
C24	C	0.009855	-1.438050	-0.000005
C25	C	-0.346429	-1.429020	-0.000034
C26	C	0.483939	-1.424688	-0.000036
C27	C	0.577547	-1.427091	-0.000046
C28	C	0.359124	-1.655399	-0.000023
C29	C	0.381150	-1.790116	-0.000033
C30	C	0.343086	-1.003151	-0.000026
C31	C	0.320322	-0.863914	-0.000026
N32	N	0.302419	-1.487386	-0.344110
C33	C	0.324584	-1.446618	0.416275
C34	C	0.338834	-1.420446	0.583690
H35	H	-0.128660	-1.221729	0.000094
Br36	Br	-0.270187	-1.337590	-0.287166
Br37	Br	-0.221347	-1.247713	0.287183
Br38	Br	0.430526	-1.251873	0.447603
H39	H	-0.090590	-1.506881	0.220198
Br40	Br	0.408368	-1.292625	0.687217
H41	H	-0.207711	-1.645417	0.000119
H42	H	0.213341	-1.037058	-0.000048
Br43	Br	0.496038	-0.856588	-0.000018
Br44	Br	0.233116	-1.615482	0.552368
H45	H	0.282860	-1.523292	0.354152
H46	H	-0.127888	-1.575784	-0.219988
Br47	Br	0.457967	-1.069634	-0.000029
H48	H	0.251392	-0.824028	-0.000055
