data_functionalizedCrystal
_audit_creation_method	'MofGen! by Chris Wilmer'
_symmetry_space_group_name_H-M	'P1'
_symmetry_Int_Tables_number	1
_symmetry_cell_setting	triclinic
loop_
_symmetry_equiv_pos_as_xyz
  x,y,z
_cell_length_a	14.044220
_cell_length_b	10.654549
_cell_length_c	9.130313
_cell_angle_alpha	90.004258
_cell_angle_beta	89.995463
_cell_angle_gamma	88.836827
loop_
_atom_site_label
_atom_site_type_symbol
_atom_site_fract_x
_atom_site_fract_y
_atom_site_fract_z
O1	O	1.259693	0.302987	0.121638
O2	O	1.759693	0.802987	0.621638
O3	O	0.983651	0.292054	0.121675
O4	O	1.483651	0.792054	0.621675
O5	O	1.128019	0.115419	0.121649
O6	O	1.628019	0.615419	0.621649
O7	O	1.115325	0.479622	0.121663
O8	O	1.615325	0.979622	0.621663
O9	O	1.128018	0.115410	-0.121949
O10	O	1.628018	0.615410	0.378051
O11	O	0.983650	0.292045	-0.121924
O12	O	1.483650	0.792045	0.378076
O13	O	1.259691	0.302978	-0.121961
O14	O	1.759691	0.802978	0.378039
Cu15	Cu	1.121671	0.297510	-0.144185
Cu16	Cu	1.621671	0.797510	0.355815
Cu17	Cu	1.121672	0.297522	0.143899
Cu18	Cu	1.621672	0.797522	0.643899
O19	O	1.115324	0.479613	-0.121935
O20	O	1.615324	0.979613	0.378065
C21	C	0.948305	0.287263	-0.000120
C22	C	1.448305	0.787263	0.499880
C23	C	0.842985	0.272988	-0.000105
C24	C	1.342985	0.772988	0.499895
C25	C	1.127086	0.068523	-0.000148
C26	C	1.627086	0.568523	0.499852
C27	C	1.124298	-0.071201	-0.000143
C28	C	1.624298	0.428799	0.499857
C29	C	1.206672	-0.273438	-0.000144
C30	C	1.706672	0.226562	0.499856
C31	C	1.209299	-0.142153	-0.000156
C32	C	1.709299	0.357847	0.499844
C33	C	1.036664	-0.131539	-0.000133
C34	C	1.536664	0.368461	0.499867
C35	C	1.034038	-0.262822	-0.000132
C36	C	1.534038	0.237178	0.499868
C37	C	0.650152	0.246889	-0.000135
C38	C	1.150152	0.746889	0.499865
C39	C	0.593185	0.348137	-0.000138
C40	C	1.093185	0.848137	0.499862
C41	C	0.485886	0.333615	-0.000154
C42	C	0.985886	0.833615	0.499846
C43	C	0.757461	0.261409	-0.000119
C44	C	1.257461	0.761409	0.499881
C45	C	1.295038	0.307769	-0.000163
C46	C	1.795038	0.807769	0.499837
C47	C	1.400357	0.322044	-0.000168
C48	C	1.900357	0.822044	0.499832
C49	C	1.116256	0.526509	-0.000134
C50	C	1.616256	1.026509	0.499866
C51	C	1.119045	0.666233	-0.000130
C52	C	1.619045	1.166233	0.499870
N53	N	1.121674	0.297520	0.346522
N54	N	1.621674	0.797520	0.846522
N55	N	1.121676	0.297502	-0.346808
N56	N	1.621676	0.797502	0.153192
C57	C	1.185721	0.219487	0.423162
C58	C	1.685721	0.719487	0.923162
C59	C	1.185725	0.219480	0.576499
C60	C	1.685725	0.719480	1.076499
C61	C	1.057626	0.375545	0.576541
C62	C	1.557626	0.875545	1.076541
C63	C	1.057628	0.375557	0.423207
C64	C	1.557628	0.875557	0.923207
H65	H	1.275891	-0.331198	-0.000143
H66	H	1.775891	0.168802	0.499857
H67	H	1.237879	0.155940	0.638895
H68	H	1.737879	0.655940	1.138895
O69	O	1.254810	0.135333	0.340460
O70	O	1.754810	0.635333	0.840460
H71	H	1.214584	0.069638	0.270601
H72	H	1.714584	0.569638	0.770601
O73	O	1.303811	-0.077078	-0.000148
O74	O	1.803811	0.422922	0.499852
H75	H	1.362476	-0.148471	-0.000131
H76	H	1.862476	0.351529	0.499869
O77	O	0.944979	-0.055021	-0.000123
O78	O	1.444979	0.444979	0.499877
H79	H	0.961525	0.046404	-0.000112
H80	H	1.461525	0.546404	0.499888
H81	H	0.624997	0.445725	-0.000127
H82	H	1.124997	0.945725	0.499873
H83	H	0.962677	-0.311943	-0.000127
H84	H	1.462677	0.188057	0.499873
O85	O	0.608025	0.117626	-0.000139
O86	O	1.108025	0.617626	0.499861
H87	H	0.529137	0.126364	-0.000138
H88	H	1.029137	0.626364	0.499862
O89	O	0.988523	0.459673	0.659249
O90	O	1.488523	0.959673	1.159249
H91	H	0.999266	0.446537	0.778749
H92	H	1.499266	0.946537	1.278749
O93	O	0.988570	0.459760	0.340527
O94	O	1.488570	0.959760	0.840527
H95	H	0.944034	0.514021	0.419609
H96	H	1.444034	1.014021	0.919609
