data_functionalizedCrystal
_audit_creation_method	'MofGen! by Chris Wilmer'
_symmetry_space_group_name_H-M	'P1'
_symmetry_Int_Tables_number	1
_symmetry_cell_setting	triclinic
loop_
_symmetry_equiv_pos_as_xyz
  x,y,z
_cell_length_a	15.944551
_cell_length_b	16.098538
_cell_length_c	15.944493
_cell_angle_alpha	87.271722
_cell_angle_beta	83.486891
_cell_angle_gamma	92.734390
loop_
_atom_site_label
_atom_site_type_symbol
_atom_site_fract_x
_atom_site_fract_y
_atom_site_fract_z
O1	O	1.118258	0.069158	0.104587
O2	O	1.618258	0.569158	0.604587
O3	O	0.873707	0.069178	0.117942
O4	O	1.373707	0.569178	0.617942
O5	O	1.002686	0.069175	-0.011014
O6	O	1.502686	0.569175	0.488986
O7	O	0.989278	0.069162	0.233543
O8	O	1.489278	0.569162	0.733543
O9	O	0.995152	-0.069338	-0.003511
O10	O	1.495152	0.430662	0.496489
O11	O	0.866172	-0.069335	0.125446
O12	O	1.366172	0.430665	0.625446
O13	O	1.110724	-0.069354	0.112090
O14	O	1.610724	0.430646	0.612090
Zn15	Zn	0.987252	-0.091336	0.119959
Zn16	Zn	1.487252	0.408664	0.619959
Zn17	Zn	0.997178	0.091160	0.110073
Zn18	Zn	1.497178	0.591160	0.610073
O19	O	0.981744	-0.069351	0.241046
O20	O	1.481744	0.430649	0.741046
C21	C	0.838646	-0.000076	0.121139
C22	C	1.338646	0.499924	0.621139
C23	C	0.745400	-0.000068	0.119476
C24	C	1.245400	0.499932	0.619476
N25	N	0.980483	-0.215885	0.126706
N26	N	1.480483	0.284115	0.626706
C27	C	0.530560	-0.000080	0.035570
C28	C	1.030560	0.499920	0.535570
C29	C	0.473247	0.068212	0.070834
C30	C	0.973247	0.568212	0.570834
C31	C	0.574675	-0.000078	0.116470
C32	C	1.074675	0.499922	0.616470
C33	C	0.465841	-0.068350	0.078251
C34	C	0.965841	0.431650	0.578251
C35	C	0.409762	-0.000091	0.113559
C36	C	0.909762	0.499909	0.613559
C37	C	0.518592	0.068271	0.151753
C38	C	1.018592	0.568271	0.651753
C39	C	0.511189	-0.068353	0.159162
C40	C	1.011189	0.431647	0.659162
C41	C	0.453894	-0.000044	0.194484
C42	C	0.953894	0.499956	0.694484
C43	C	0.669677	-0.000069	0.118144
C44	C	1.169677	0.499931	0.618144
C45	C	0.314761	-0.000093	0.111891
C46	C	0.814761	0.499907	0.611891
C47	C	1.035247	-0.259472	0.071991
C48	C	1.535247	0.240528	0.571991
C49	C	1.030520	-0.346661	0.076718
C50	C	1.530520	0.153339	0.576718
C51	C	0.971032	-0.390262	0.136165
C52	C	1.471032	0.109738	0.636165
C53	C	0.916262	-0.346669	0.190882
C54	C	1.416262	0.153331	0.690882
C55	C	0.920986	-0.259482	0.186150
C56	C	1.420986	0.240518	0.686150
C57	C	0.953908	-0.653511	0.153305
C58	C	1.453908	-0.153511	0.653305
C59	C	0.949190	-0.740705	0.158035
C60	C	1.449190	-0.240705	0.658035
C61	C	1.063447	-0.740690	0.043869
C62	C	1.563447	-0.240690	0.543869
C63	C	1.068169	-0.653501	0.039145
C64	C	1.568169	-0.153501	0.539145
C65	C	1.013396	-0.609916	0.093860
C66	C	1.513396	-0.109916	0.593860
C67	C	0.966200	-0.479383	0.141001
C68	C	1.466200	0.020617	0.641001
C69	C	1.018224	-0.520797	0.089020
C70	C	1.518224	-0.020797	0.589020
C71	C	1.145785	-0.000099	0.108893
C72	C	1.645785	0.499901	0.608893
C73	C	1.239030	-0.000101	0.110555
C74	C	1.739030	0.499899	0.610555
C75	C	0.998371	-0.000078	-0.038557
C76	C	1.498371	0.499922	0.461443
C77	C	0.996729	-0.000068	-0.131807
C78	C	1.496729	0.499932	0.368193
N79	N	1.003954	0.215709	0.103320
N80	N	1.503954	0.715709	0.603320
C81	C	1.072648	-0.000089	-0.367565
C82	C	1.572648	0.499911	0.132435
C83	C	1.035422	0.068207	-0.421833
C84	C	1.535422	0.568207	0.078167
C85	C	0.993684	-0.000077	-0.302527
C86	C	1.493684	0.499923	0.197473
C87	C	1.027975	-0.068355	-0.414411
C88	C	1.527975	0.431645	0.085589
C89	C	0.990749	-0.000091	-0.467436
C90	C	1.490749	0.499909	0.032564
C91	C	0.956483	0.068276	-0.355570
C92	C	1.456483	0.568276	0.144430
C93	C	0.949044	-0.068348	-0.348141
C94	C	1.449044	0.431652	0.151859
C95	C	0.911761	-0.000035	-0.402377
C96	C	1.411761	0.499965	0.097623
C97	C	0.995378	-0.000069	-0.207528
C98	C	1.495378	0.499931	0.292472
C99	C	0.989050	-0.000093	-0.562433
C100	C	1.489050	0.499907	-0.062433
C101	C	0.986059	-0.000096	0.268589
C102	C	1.486059	0.499904	0.768589
C103	C	0.987702	-0.000102	0.361838
C104	C	1.487702	0.499898	0.861838
H105	H	0.563912	0.000008	-0.031574
H106	H	1.063912	0.500008	0.468426
H107	H	0.926298	0.126077	-0.329881
H108	H	1.426298	0.626077	0.170119
C109	C	1.164533	-0.000012	-0.346449
C110	C	1.664533	0.499988	0.153551
H111	H	1.171745	-0.048561	-0.312314
H112	H	1.671745	0.451439	0.187686
H113	H	1.176623	0.048049	-0.316691
H114	H	1.676623	0.548049	0.183309
H115	H	1.201920	0.000512	-0.397320
H116	H	1.701920	0.500512	0.102680
C117	C	1.068797	-0.146357	-0.449260
C118	C	1.568797	0.353643	0.050740
H119	H	1.125925	-0.146270	-0.437602
H120	H	1.625925	0.353730	0.062398
H121	H	1.066983	-0.146071	-0.508617
H122	H	1.566983	0.353929	-0.008617
H123	H	1.038676	-0.194852	-0.423043
H124	H	1.538676	0.305148	0.076957
C125	C	0.883706	-0.788664	0.223384
C126	C	1.383706	-0.288664	0.723384
H127	H	0.851743	-0.750220	0.255275
H128	H	1.351743	-0.250220	0.755275
H129	H	0.912025	-0.822691	0.260236
H130	H	1.412025	-0.322691	0.760236
H131	H	0.846927	-0.822661	0.194937
H132	H	1.346927	-0.322661	0.694937
H133	H	0.541717	0.126069	0.182813
H134	H	1.041717	0.626069	0.682813
C135	C	0.409075	0.000001	0.285269
C136	C	0.909075	0.500001	0.785269
H137	H	0.427221	0.048556	0.311237
H138	H	0.927221	0.548556	0.811237
H139	H	0.422682	-0.048054	0.316822
H140	H	0.922682	0.451946	0.816822
H141	H	0.349665	-0.000454	0.283752
H142	H	0.849665	0.499546	0.783752
H143	H	0.528173	-0.126096	0.196478
H144	H	1.028173	0.373904	0.696478
C145	C	1.084712	0.146198	-0.465170
C146	C	1.584712	0.646198	0.034830
H147	H	1.141836	0.146112	-0.453520
H148	H	1.641836	0.646112	0.046480
H149	H	1.059862	0.194699	-0.444234
H150	H	1.559862	0.694699	0.055766
H151	H	1.082860	0.145885	-0.524498
H152	H	1.582860	0.645885	-0.024498
C153	C	1.123685	-0.788631	-0.016320
C154	C	1.623685	-0.288631	0.483680
H155	H	1.159793	-0.750176	-0.052399
H156	H	1.659793	-0.250176	0.447601
H157	H	1.091634	-0.822649	-0.049460
H158	H	1.591634	-0.322649	0.450540
H159	H	1.156806	-0.822636	0.015766
H160	H	1.656806	-0.322636	0.515766
H161	H	0.442622	-0.126084	0.047147
H162	H	0.942622	0.373916	0.547147
C163	C	0.860749	-0.211533	0.246336
C164	C	1.360749	0.288467	0.746336
H165	H	0.872076	-0.153363	0.234999
H166	H	1.372076	0.346637	0.734999
H167	H	0.869082	-0.225815	0.303180
H168	H	1.369082	0.274185	0.803180
H169	H	0.803918	-0.225831	0.237946
H170	H	1.303918	0.274169	0.737946
H171	H	0.456285	0.125952	0.033489
H172	H	0.956285	0.625952	0.533489
H173	H	0.909311	-0.618031	0.197857
H174	H	1.409311	-0.118031	0.697857
C175	C	1.100683	-0.211519	0.006598
C176	C	1.600683	0.288481	0.506598
H177	H	1.132615	-0.249968	-0.025316
H178	H	1.632615	0.250032	0.474684
H179	H	1.137485	-0.177498	0.034987
H180	H	1.637485	0.322502	0.534987
H181	H	1.072312	-0.177516	-0.030237
H182	H	1.572312	0.322484	0.469763
C183	C	1.090769	-0.394602	0.016540
C184	C	1.590769	0.105398	0.516540
H185	H	1.126882	-0.356148	-0.019533
H186	H	1.626882	0.143852	0.480467
H187	H	1.058728	-0.428623	-0.016606
H188	H	1.558728	0.071377	0.483394
H189	H	1.123882	-0.428604	0.048637
H190	H	1.623882	0.071396	0.548637
C191	C	1.133601	-0.605546	-0.026251
C192	C	1.633601	-0.105546	0.473749
H193	H	1.165535	-0.643993	-0.058166
H194	H	1.665535	-0.143993	0.441834
H195	H	1.170401	-0.571526	0.002140
H196	H	1.670401	-0.071526	0.502140
H197	H	1.105228	-0.571544	-0.063085
H198	H	1.605228	-0.071544	0.436915
H199	H	0.867821	-0.382174	0.239283
H200	H	1.367821	0.117826	0.739283
C201	C	0.900738	-0.527343	0.206363
C202	C	1.400738	-0.027343	0.706363
H203	H	0.868784	-0.488900	0.238264
H204	H	1.368784	0.011100	0.738264
H205	H	0.929072	-0.561369	0.243203
H206	H	1.429072	-0.061369	0.743203
H207	H	0.863950	-0.561341	0.177928
H208	H	1.363950	-0.061341	0.677928
H209	H	1.066656	-0.485295	0.040615
H210	H	1.566656	0.014705	0.540615
C211	C	0.819811	0.000021	-0.423283
C212	C	1.319811	0.500021	0.076717
H213	H	0.794535	0.048580	-0.403010
H214	H	1.294535	0.548580	0.096990
H215	H	0.788956	-0.048030	-0.396974
H216	H	1.288956	0.451970	0.103026
H217	H	0.819221	-0.000434	-0.482771
H218	H	1.319221	0.499566	0.017229
H219	H	0.912584	-0.126086	-0.316053
H220	H	1.412584	0.373914	0.183947
