data_functionalizedCrystal
_audit_creation_method	'MofGen! by Chris Wilmer'
_symmetry_space_group_name_H-M	'P1'
_symmetry_Int_Tables_number	1
_symmetry_cell_setting	triclinic
loop_
_symmetry_equiv_pos_as_xyz
  x,y,z
_cell_length_a	10.489716
_cell_length_b	19.188924
_cell_length_c	8.965430
_cell_angle_alpha	89.998356
_cell_angle_beta	89.996523
_cell_angle_gamma	83.835550
loop_
_atom_site_label
_atom_site_type_symbol
_atom_site_fract_x
_atom_site_fract_y
_atom_site_fract_z
O1	O	1.691866	0.098416	-0.124035
O2	O	1.320459	0.107680	-0.124041
O3	O	1.516885	0.001463	-0.124020
O4	O	1.495440	0.204633	-0.124056
O5	O	1.516869	0.001470	0.124058
O6	O	1.320443	0.107687	0.124038
O7	O	1.691850	0.098423	0.124044
Cu8	Cu	1.506145	0.103056	0.146692
Cu9	Cu	1.506164	0.103047	-0.146690
O10	O	1.495424	0.204640	0.124023
C11	C	1.272934	0.106987	-0.000002
C12	C	1.131350	0.104905	-0.000004
C13	C	1.032217	0.170040	-0.000019
C14	C	0.955634	0.135625	0.122309
C15	C	0.955657	0.135603	-0.122277
C16	C	1.056632	0.070517	0.122425
C17	C	1.056660	0.070504	-0.122271
C18	C	0.980128	0.036041	0.000088
C19	C	1.516184	-0.024549	0.000020
C20	C	1.514104	-0.102068	0.000024
C21	C	1.513142	-0.138477	-0.135204
C22	C	1.511169	-0.211313	-0.135215
C23	C	1.510184	-0.247738	0.000009
C24	C	1.511139	-0.211320	0.135255
C25	C	1.513099	-0.138484	0.135263
N26	N	1.579683	-0.366936	0.100655
N27	N	1.577823	-0.436127	0.100639
C28	C	1.504276	-0.467187	-0.000005
N29	N	1.432674	-0.426443	-0.100655
N30	N	1.434539	-0.357246	-0.100643
C31	C	1.508058	-0.326716	0.000016
C32	C	1.501173	-0.582573	-0.135255
C33	C	1.499192	-0.655409	-0.135261
C34	C	1.499175	-0.655416	0.135214
C35	C	1.501143	-0.582580	0.135216
C36	C	1.502148	-0.546163	-0.000023
C37	C	1.739375	0.099116	0.000002
C38	C	1.880959	0.101198	-0.000006
C39	C	1.496125	0.230652	-0.000021
C40	C	1.498205	0.308170	-0.000035
N41	N	1.506140	0.103061	0.353041
N42	N	1.506179	0.103036	-0.353039
C43	C	1.415272	0.152166	0.450338
C44	C	1.530454	0.166288	0.549751
C45	C	1.391008	0.088946	0.549756
C46	C	1.621380	0.117214	0.450265
C47	C	1.481858	0.039844	0.450262
C48	C	1.597123	0.053939	0.549630
H49	H	0.911564	0.163109	-0.225681
C50	C	1.677879	0.253695	0.556386
C51	C	1.558218	0.238439	0.608768
H52	H	1.695007	0.298240	0.592814
H53	H	1.742501	0.218848	0.590374
H54	H	1.677273	0.254355	0.450440
H55	H	1.558827	0.237774	0.714714
H56	H	1.493579	0.273295	0.574788
H57	H	1.100779	0.043026	-0.225684
H58	H	1.055617	0.226698	0.000085
H59	H	1.501937	-0.552936	0.245333
H60	H	1.498403	-0.685052	-0.245384
H61	H	1.513957	-0.108830	-0.245326
H62	H	0.911528	0.163124	0.225717
H63	H	1.293626	0.077018	0.593462
C64	C	1.765480	-0.036194	0.487434
C65	C	1.700991	-0.002136	0.608130
H66	H	1.829610	-0.070807	0.523555
H67	H	1.706159	-0.057893	0.427797
H68	H	1.804426	-0.002980	0.429111
H69	H	1.662036	-0.035349	0.666448
H70	H	1.760322	0.019564	0.667792
C71	C	1.511332	-0.203994	-0.402567
C72	C	1.510063	-0.251342	-0.283868
H73	H	1.510641	-0.228706	-0.494336
H74	H	1.437755	-0.170623	-0.396913
H75	H	1.586478	-0.180551	-0.396962
H76	H	1.434912	-0.274781	-0.289466
H77	H	1.583648	-0.284725	-0.289525
C78	C	1.311926	0.207288	0.235292
C79	C	1.311631	0.208272	0.391460
H80	H	1.247942	0.241923	0.198945
H81	H	1.393556	0.216869	0.199779
H82	H	1.294458	0.162407	0.201243
H83	H	1.329109	0.253152	0.425509
H84	H	1.229982	0.198696	0.426987
H85	H	1.100557	0.043039	0.225946
H86	H	1.498363	-0.685072	0.245316
C87	C	1.393831	-0.493328	-0.292159
C88	C	1.502298	-0.542527	-0.283889
H89	H	1.394542	-0.468602	-0.383913
H90	H	1.318705	-0.516778	-0.286588
H91	H	1.394698	-0.461229	-0.211595
H92	H	1.501426	-0.574629	-0.364448
H93	H	1.577444	-0.519075	-0.289475
H94	H	1.718782	0.129207	0.406747
H95	H	1.461257	-0.013589	0.406528
C96	C	1.000315	-0.074433	0.128371
C97	C	0.948843	-0.040498	0.000193
H98	H	0.980991	-0.121682	0.128442
H99	H	1.090662	-0.073503	0.129176
H100	H	0.964181	-0.051132	0.214425
H101	H	0.984985	-0.063795	-0.085862
H102	H	0.858479	-0.041431	-0.000626
C103	C	1.508138	-0.322976	0.255335
C104	C	1.510055	-0.251356	0.283897
H105	H	1.507471	-0.347690	0.347106
H106	H	1.433467	-0.329952	0.199773
H107	H	1.582191	-0.339858	0.199775
H108	H	1.435997	-0.234472	0.339448
H109	H	1.584734	-0.244375	0.339483
C110	C	1.512879	-0.145808	0.402611
C111	C	1.514165	-0.098459	0.283917
H112	H	1.513546	-0.121096	0.494383
H113	H	1.437755	-0.169257	0.396981
H114	H	1.586479	-0.179175	0.396978
H115	H	1.440559	-0.065095	0.289543
H116	H	1.589296	-0.074999	0.289550
