data_functionalizedCrystal
_audit_creation_method	'MofGen! by Chris Wilmer'
_symmetry_space_group_name_H-M	'P1'
_symmetry_Int_Tables_number	1
_symmetry_cell_setting	triclinic
loop_
_symmetry_equiv_pos_as_xyz
  x,y,z
_cell_length_a	12.645331
_cell_length_b	18.101395
_cell_length_c	12.645323
_cell_angle_alpha	90.028267
_cell_angle_beta	90.015738
_cell_angle_gamma	90.030339
loop_
_atom_site_label
_atom_site_type_symbol
_atom_site_fract_x
_atom_site_fract_y
_atom_site_fract_z
Zn1	Zn	1.620632	-0.294839	0.599225
Zn2	Zn	1.620473	-0.418689	0.421955
Zn3	Zn	1.443347	-0.294865	0.421991
Zn4	Zn	1.443287	-0.418641	0.599191
O5	O	1.531935	-0.356759	0.510590
O6	O	1.768958	-0.311277	0.575709
O7	O	1.596935	-0.402294	0.273612
O8	O	1.466956	-0.191228	0.445531
O9	O	1.768841	-0.402270	0.445469
O10	O	1.597207	-0.191209	0.575744
O11	O	1.466801	-0.311321	0.273639
O12	O	1.294992	-0.311274	0.445498
O13	O	1.466854	-0.402188	0.747543
O14	O	1.294948	-0.402213	0.575686
O15	O	1.597149	-0.311231	0.747568
O16	O	1.596877	-0.522316	0.445436
O17	O	1.466699	-0.522281	0.575651
C18	C	1.256505	-0.356742	0.510593
C19	C	1.138675	-0.356752	0.510619
C20	C	0.971119	-0.414276	0.592094
C21	C	1.093679	-0.414090	0.592435
C22	C	1.094223	-0.278752	0.541147
C23	C	0.971625	-0.279103	0.541721
C24	C	0.971423	-0.376601	0.398358
C25	C	1.094028	-0.378307	0.398964
C26	C	1.531793	-0.549169	0.510559
C27	C	1.531829	-0.631483	0.510581
C28	C	1.532062	-0.930574	0.510638
C29	C	1.450348	-0.899258	0.592770
C30	C	1.449959	-0.813640	0.592513
C31	C	1.531946	-0.782192	0.510611
C32	C	1.501694	-0.813344	0.398889
C33	C	1.501167	-0.898989	0.399381
C34	C	1.644207	-0.898919	0.539246
C35	C	1.643548	-0.813267	0.541696
C36	C	1.531883	-0.698332	0.510589
C37	C	1.532123	-1.014434	0.510653
C38	C	1.808440	-0.356776	0.510588
C39	C	1.926270	-0.356783	0.510587
C40	C	1.532013	-0.356701	0.787096
C41	C	1.532046	-0.356677	0.904926
C42	C	1.532106	-0.163597	0.510645
C43	C	1.532179	-0.081283	0.510668
C44	C	1.531918	-0.356762	0.235161
C45	C	1.532090	-0.356578	0.117331
C46	C	1.449825	-0.413628	1.072475
C47	C	1.450040	-0.413910	0.949915
C48	C	1.643739	-0.377858	0.949431
C49	C	1.643288	-0.378215	1.072029
C50	C	1.503631	-0.278226	1.072134
C51	C	1.501139	-0.278696	0.949528
H52	H	1.124658	-0.339470	0.334977
N53	N	1.728461	-0.784921	0.468222
H54	H	1.799205	-0.805799	0.490119
H55	H	1.730963	-0.729212	0.471936
N56	N	1.392268	-0.257525	0.910996
H57	H	1.339068	-0.295286	0.936062
H58	H	1.392062	-0.255774	0.831168
N59	N	1.474480	-0.490096	1.113248
H60	H	1.538703	-0.487943	1.160654
H61	H	1.489109	-0.524085	1.051608
N62	N	1.673768	-0.786287	0.650603
H63	H	1.676266	-0.730517	0.650883
H64	H	1.745598	-0.806500	0.670103
N65	N	1.475156	-0.926476	0.702861
H66	H	1.539603	-0.959372	0.700570
H67	H	1.412907	-0.955368	0.731042
H68	H	1.123032	-0.400974	0.675592
N69	N	1.132836	-0.220459	0.464987
H70	H	1.070279	-0.196404	0.429238
H71	H	1.179644	-0.244159	0.409890
H72	H	1.420584	-0.791959	0.374220
H73	H	1.671788	-0.920466	0.619324
H74	H	1.558102	-0.919708	0.336101
H75	H	1.124954	-0.261636	0.622303
H76	H	1.705087	-0.919170	0.479426
H77	H	1.556682	-0.233943	0.918904
N78	N	0.932994	-0.321141	0.317909
H79	H	0.962253	-0.334151	0.245964
H80	H	0.957811	-0.270121	0.338716
H81	H	0.941608	-0.472309	0.573172
H82	H	1.563549	-0.235721	1.101144
N83	N	1.676252	-0.452934	0.908787
H84	H	1.744075	-0.448283	0.867148
H85	H	1.618740	-0.473292	0.861599
H86	H	1.706675	-0.337619	0.920291
H87	H	1.667413	-0.435492	1.100632
N88	N	1.340344	-0.396322	0.910045
H89	H	1.291412	-0.388319	0.972111
H90	H	1.313471	-0.438830	0.865782
N91	N	1.474933	-0.490854	0.911091
H92	H	1.546755	-0.506325	0.938099
H93	H	1.475109	-0.491322	0.831226
N94	N	1.727240	-0.325578	1.111347
H95	H	1.764379	-0.302248	1.049036
H96	H	1.780269	-0.353549	1.155631
N97	N	1.340905	-0.927844	0.567996
H98	H	1.344026	-0.960993	0.503802
H99	H	1.292236	-0.884838	0.553276
N100	N	1.339859	-0.786576	0.567402
H101	H	1.288873	-0.805330	0.622697
H102	H	1.317880	-0.805490	0.495526
H103	H	1.423604	-0.258919	1.103049
H104	H	1.123732	-0.471931	0.573301
H105	H	1.559338	-0.792975	0.336027
N106	N	1.392584	-0.925546	0.367276
H107	H	1.345510	-0.881617	0.352940
H108	H	1.361261	-0.956171	0.426214
N109	N	1.339779	-0.396234	1.111498
H110	H	1.342178	-0.351205	1.158639
H111	H	1.311500	-0.439696	1.152816
H112	H	0.943056	-0.262294	0.623766
N113	N	0.930346	-0.397134	0.701609
H114	H	0.882950	-0.352289	0.698654
H115	H	0.991976	-0.386919	0.750292
N116	N	1.132518	-0.454336	0.368461
H117	H	1.103550	-0.467893	0.296580
H118	H	1.107441	-0.491482	0.422503
N119	N	1.475023	-0.785729	0.702243
H120	H	1.486424	-0.829061	0.751216
H121	H	1.414138	-0.754845	0.728980
H122	H	0.940482	-0.432509	0.370612
H123	H	0.941959	-0.234732	0.485078
