data_functionalizedCrystal
_audit_creation_method	'MofGen! by Chris Wilmer'
_symmetry_space_group_name_H-M	'P1'
_symmetry_Int_Tables_number	1
_symmetry_cell_setting	triclinic
loop_
_symmetry_equiv_pos_as_xyz
  x,y,z
_cell_length_a	21.295419
_cell_length_b	15.297327
_cell_length_c	15.296720
_cell_angle_alpha	107.319222
_cell_angle_beta	99.658759
_cell_angle_gamma	99.721516
loop_
_atom_site_label
_atom_site_type_symbol
_atom_site_fract_x
_atom_site_fract_y
_atom_site_fract_z
Zn1	Zn	0.835415	-0.460906	-0.589779
Zn2	Zn	1.335415	0.039094	-0.089779
Zn3	Zn	0.835343	-0.589528	-0.461173
Zn4	Zn	1.335343	-0.089528	0.038827
Zn5	Zn	0.752177	-0.434066	-0.434302
Zn6	Zn	1.252177	0.065934	0.065698
Zn7	Zn	0.708092	-0.616418	-0.616626
Zn8	Zn	1.208092	-0.116418	-0.116626
O9	O	0.782757	-0.525229	-0.525470
O10	O	1.282757	-0.025229	-0.025470
O11	O	0.923496	-0.477947	-0.572730
O12	O	1.423496	0.022053	-0.072730
O13	O	0.842731	-0.546418	-0.327484
O14	O	1.342731	-0.046418	0.172516
O15	O	0.781698	-0.307482	-0.432445
O16	O	1.281698	0.192518	0.067555
O17	O	0.923444	-0.572444	-0.478244
O18	O	1.423444	-0.072444	0.021756
O19	O	0.842853	-0.327202	-0.546674
O20	O	1.342853	0.172798	-0.046674
O21	O	0.781629	-0.432201	-0.307742
O22	O	1.281629	0.067799	0.192258
O23	O	0.658238	-0.458276	-0.458478
O24	O	1.158238	0.041724	0.041522
O25	O	0.706562	-0.618276	-0.743190
O26	O	1.206562	-0.118276	-0.243190
O27	O	0.625849	-0.592250	-0.592430
O28	O	1.125849	-0.092250	-0.092430
O29	O	0.800106	-0.504022	-0.723466
O30	O	1.300106	-0.004022	-0.223466
O31	O	0.799984	-0.723239	-0.504276
O32	O	1.299984	-0.223239	-0.004276
O33	O	0.706492	-0.742995	-0.618486
O34	O	1.206492	-0.242995	-0.118486
C35	C	0.619203	-0.525269	-0.525452
C36	C	1.119203	-0.025269	-0.025452
C37	C	0.549227	-0.525313	-0.525470
C38	C	1.049227	-0.025313	-0.025470
C39	C	0.748461	-0.766865	-0.567230
C40	C	1.248461	-0.266865	-0.067230
C41	C	0.733842	-0.870243	-0.585126
C42	C	1.233842	-0.370243	-0.085126
C43	C	0.887454	-1.120407	-0.397881
C44	C	1.387454	-0.620407	0.102119
C45	C	0.901190	-1.023277	-0.381062
C46	C	1.401190	-0.523277	0.118938
C47	C	0.859354	-0.985014	-0.432076
C48	C	1.359354	-0.485014	0.067924
C49	C	0.803780	-1.043890	-0.499913
C50	C	1.303780	-0.543890	0.000087
C51	C	0.790041	-1.141028	-0.516729
C52	C	1.290041	-0.641028	-0.016729
C53	C	0.761941	-1.005635	-0.550924
C54	C	1.261941	-0.505635	-0.050924
C55	C	0.706367	-1.064512	-0.618761
C56	C	1.206367	-0.564512	-0.118761
C57	C	0.692630	-1.161640	-0.635574
C58	C	1.192630	-0.661640	-0.135574
C59	C	0.734466	-1.199904	-0.584559
C60	C	1.234466	-0.699904	-0.084559
C61	C	0.775680	-0.908497	-0.534109
C62	C	1.275680	-0.408497	-0.034109
C63	C	0.678267	-0.929119	-0.652957
C64	C	1.178267	-0.429119	-0.152957
C65	C	0.664531	-1.026248	-0.669776
C66	C	1.164531	-0.526248	-0.169776
C67	C	0.516383	-0.476221	-0.574778
C68	C	1.016383	0.023779	-0.074778
C69	C	0.450644	-0.476197	-0.574777
C70	C	0.950644	0.023803	-0.074777
C71	C	0.417747	-0.525282	-0.525481
C72	C	0.917747	-0.025282	-0.025481
C73	C	0.450599	-0.574376	-0.476163
C74	C	0.950599	-0.074376	0.023837
C75	C	0.516340	-0.574392	-0.476157
C76	C	1.016340	-0.074392	0.023843
N77	N	0.303978	-0.605402	-0.532294
N78	N	0.803978	-0.105402	-0.032294
N79	N	0.241527	-0.605386	-0.532304
N80	N	0.741527	-0.105386	-0.032304
C81	C	0.219676	-0.525238	-0.525493
C82	C	0.719676	-0.025238	-0.025493
N83	N	0.262633	-0.445108	-0.518690
N84	N	0.762633	0.054892	-0.018690
N85	N	0.325088	-0.445126	-0.518684
N86	N	0.825088	0.054874	-0.018684
C87	C	0.346463	-0.525271	-0.525481
C88	C	0.846463	-0.025271	-0.025481
C89	C	0.115550	-0.476115	-0.574803
C90	C	0.615550	0.023885	-0.074803
C91	C	0.049811	-0.476088	-0.574795
C92	C	0.549811	0.023912	-0.074795
C93	C	0.049766	-0.574277	-0.476187
C94	C	0.549766	-0.074277	0.023813
C95	C	0.115506	-0.574295	-0.476188
C96	C	0.615506	-0.074295	0.023812
C97	C	0.148393	-0.525216	-0.525501
C98	C	0.648393	-0.025216	-0.025501
C99	C	0.946949	-0.525190	-0.525489
C100	C	1.446949	-0.025190	-0.025489
C101	C	1.016919	-0.525173	-0.525497
C102	C	1.516919	-0.025173	-0.025497
C103	C	0.748424	-0.567142	-0.768011
C104	C	1.248424	-0.067142	-0.268011
C105	C	0.733794	-0.585003	-0.871368
C106	C	1.233794	-0.085003	-0.371368
C107	C	0.817201	-0.282653	-0.483568
C108	C	1.317201	0.217347	0.016432
C109	C	0.831879	-0.179282	-0.465711
C110	C	1.331879	0.320718	0.034289
C111	C	0.887370	-0.397412	-1.121636
C112	C	1.387370	0.102588	-0.621636
C113	C	0.901120	-0.380633	-1.024528
C114	C	1.401120	0.119367	-0.524528
C115	C	0.859289	-0.431724	-0.986233
C116	C	1.359289	0.068276	-0.486233
C117	C	0.803707	-0.499597	-1.045056
C118	C	1.303707	0.000403	-0.545056
C119	C	0.789958	-0.516384	-1.142175
C120	C	1.289958	-0.016384	-0.642175
C121	C	0.761878	-0.550695	-1.006772
C122	C	1.261878	-0.050695	-0.506772
C123	C	0.706295	-0.618569	-1.065595
C124	C	1.206295	-0.118569	-0.565595
C125	C	0.692549	-0.635352	-1.162703
C126	C	1.192549	-0.135352	-0.662703
C127	C	0.734380	-0.584261	-1.200998
C128	C	1.234380	-0.084261	-0.700998
C129	C	0.775626	-0.533909	-0.909653
C130	C	1.275626	-0.033909	-0.409653
C131	C	0.678215	-0.652880	-0.930191
C132	C	1.178215	-0.152880	-0.430191
C133	C	0.664465	-0.669660	-1.027299
C134	C	1.164465	-0.169660	-0.527299
C135	C	0.817002	-0.483412	-0.283861
C136	C	1.317002	0.016588	0.216139
C137	C	0.831791	-0.465289	-0.180460
C138	C	1.331791	0.034711	0.319540
H139	H	0.820929	-0.860568	-0.478876
H140	H	1.320929	-0.360568	0.021124
Cl141	Cl	0.409346	-0.414475	-0.636767
Cl142	Cl	0.909346	0.085525	-0.136767
Cl143	Cl	0.008522	-0.414362	-0.636783
Cl144	Cl	0.508522	0.085638	-0.136783
Cl145	Cl	0.008418	-0.635978	-0.414206
Cl146	Cl	0.508418	-0.135978	0.085794
Cl147	Cl	0.594669	-1.100274	-0.755053
Cl148	Cl	1.094669	-0.600274	-0.255053
H149	H	0.820882	-0.478644	-0.861768
H150	H	1.320882	0.021356	-0.361768
H151	H	0.543080	-0.614369	-0.436004
H152	H	1.043080	-0.114369	0.063996
Cl153	Cl	0.156799	-0.636009	-0.414193
Cl154	Cl	0.656799	-0.136009	0.085807
Cl155	Cl	0.939954	-0.333201	-1.169785
Cl156	Cl	1.439954	0.166799	-0.669785
Cl157	Cl	0.940039	-1.168514	-0.333754
Cl158	Cl	1.440039	-0.668514	0.166246
Cl159	Cl	0.876574	-0.410625	-0.864152
Cl160	Cl	1.376574	0.089375	-0.364152
Cl161	Cl	0.716999	-1.321948	-0.605323
Cl162	Cl	1.216999	-0.821948	-0.105323
Cl163	Cl	0.622764	-1.235653	-0.720851
Cl164	Cl	1.122764	-0.735653	-0.220851
H165	H	0.644200	-0.897966	-0.694496
H166	H	1.144200	-0.397966	-0.194496
Cl167	Cl	0.622682	-0.720695	-1.236653
Cl168	Cl	1.122682	-0.220695	-0.736653
Cl169	Cl	0.557725	-0.414519	-0.636768
Cl170	Cl	1.057725	0.085481	-0.136768
Cl171	Cl	0.409245	-0.636079	-0.414186
Cl172	Cl	0.909245	-0.136079	0.085814
H173	H	0.946376	-0.325372	-0.976642
H174	H	1.446376	0.174628	-0.476642
Cl175	Cl	0.156900	-0.414409	-0.636786
Cl176	Cl	0.656900	0.085591	-0.136786
Cl177	Cl	0.717099	-0.605358	-1.323083
Cl178	Cl	1.217099	-0.105358	-0.823083
Cl179	Cl	0.625628	-0.717118	-0.882057
Cl180	Cl	1.125628	-0.217118	-0.382057
Cl181	Cl	0.876759	-0.862950	-0.411186
Cl182	Cl	1.376759	-0.362950	0.088814
Cl183	Cl	0.971055	-0.949270	-0.295794
Cl184	Cl	1.471055	-0.449270	0.204206
Cl185	Cl	0.594593	-0.754986	-1.101259
Cl186	Cl	1.094593	-0.254986	-0.601259
