data_functionalizedCrystal
_audit_creation_method	'MofGen! by Chris Wilmer'
_symmetry_space_group_name_H-M	'P1'
_symmetry_Int_Tables_number	1
_symmetry_cell_setting	triclinic
loop_
_symmetry_equiv_pos_as_xyz
  x,y,z
_cell_length_a	17.077404
_cell_length_b	21.295417
_cell_length_c	17.077404
_cell_angle_alpha	90.015658
_cell_angle_beta	90.008318
_cell_angle_gamma	90.030732
loop_
_atom_site_label
_atom_site_type_symbol
_atom_site_fract_x
_atom_site_fract_y
_atom_site_fract_z
Zn1	Zn	1.199926	-0.250714	0.443817
Zn2	Zn	1.199842	-0.355955	0.312540
Zn3	Zn	1.068684	-0.250704	0.312565
Zn4	Zn	1.068609	-0.355950	0.443764
O5	O	1.134265	-0.303331	0.378171
O6	O	1.309762	-0.264681	0.426414
O7	O	1.182439	-0.341991	0.202696
O8	O	1.086160	-0.162616	0.330008
O9	O	1.309700	-0.342001	0.329966
O10	O	1.182584	-0.162624	0.426438
O11	O	1.086078	-0.264664	0.202715
O12	O	0.958827	-0.264659	0.329957
O13	O	1.086032	-0.341992	0.553617
O14	O	0.958772	-0.341983	0.426348
O15	O	1.182511	-0.264676	0.553657
O16	O	1.182366	-0.444044	0.329914
O17	O	1.085950	-0.444040	0.426324
C18	C	0.930317	-0.303320	0.378150
C19	C	0.843067	-0.303330	0.378159
C20	C	0.802069	-0.343653	0.428269
C21	C	0.720089	-0.343654	0.428282
C22	C	0.679108	-0.303335	0.378179
C23	C	0.720112	-0.263008	0.328067
C24	C	0.802091	-0.263004	0.328059
C25	C	0.549242	-0.263020	0.328086
C26	C	0.467257	-0.263025	0.328093
C27	C	0.467240	-0.343671	0.428309
C28	C	0.549219	-0.343667	0.428301
C29	C	0.590217	-0.303340	0.378187
C30	C	1.134162	-0.466883	0.378128
C31	C	1.134190	-0.536851	0.378135
C32	C	1.184439	-0.569698	0.327987
C33	C	1.184475	-0.635441	0.328004
C34	C	1.134250	-0.668333	0.378162
C35	C	1.083998	-0.635478	0.428321
C36	C	1.083968	-0.569736	0.428308
N37	N	1.065580	-0.771601	0.384139
N38	N	1.065610	-0.834052	0.384148
C39	C	1.134337	-0.866408	0.378207
N40	N	1.203035	-0.833953	0.372243
N41	N	1.203003	-0.771496	0.372231
C42	C	1.134277	-0.739619	0.378183
C43	C	1.184630	-0.970541	0.328075
C44	C	1.184668	-1.036285	0.328098
C45	C	1.084183	-1.036320	0.428411
C46	C	1.084152	-0.970578	0.428392
C47	C	1.134375	-0.937692	0.378220
C48	C	1.339009	-0.303343	0.378193
C49	C	1.426259	-0.303348	0.378203
C50	C	1.134273	-0.303335	0.582915
C51	C	1.134276	-0.303337	0.670165
C52	C	1.134390	-0.139141	0.378232
C53	C	1.134443	-0.069173	0.378258
C54	C	1.184506	-0.263085	0.711177
C55	C	1.184499	-0.263084	0.793157
C56	C	1.134266	-0.303339	0.834125
C57	C	1.084030	-0.343592	0.793107
C58	C	1.084034	-0.343589	0.711128
C59	C	1.084029	-0.343596	0.963977
C60	C	1.084026	-0.343600	1.045962
C61	C	1.184494	-0.263091	1.046006
C62	C	1.184498	-0.263088	0.964028
C63	C	1.134263	-0.303343	0.923016
C64	C	1.134254	-0.303343	1.174223
C65	C	1.134256	-0.303348	1.086974
H66	H	0.686739	-0.230177	0.287276
H67	H	1.225407	-0.230313	0.930674
C68	C	0.422143	-0.388028	0.483438
C69	C	0.433443	-0.383008	0.572685
C70	C	0.388342	-0.427365	0.627809
C71	C	0.331940	-0.476742	0.593686
C72	C	0.320638	-0.481764	0.504434
C73	C	0.365739	-0.437407	0.449310
H74	H	0.475197	-0.346455	0.597950
H75	H	0.396709	-0.423648	0.693880
H76	H	0.298554	-0.509578	0.634491
H77	H	0.278884	-0.518317	0.479169
H78	H	0.357372	-0.441124	0.383240
H79	H	1.043123	-0.376360	0.677737
C80	C	1.239683	-0.533522	0.272803
C81	C	1.301264	-0.488268	0.306860
C82	C	1.356508	-0.452089	0.251677
C83	C	1.350170	-0.461163	0.162437
C84	C	1.288587	-0.506419	0.128375
C85	C	1.233343	-0.542599	0.183558
H86	H	1.305958	-0.481549	0.372926
H87	H	1.402096	-0.418587	0.276893
H88	H	1.391065	-0.434381	0.121587
H89	H	1.283893	-0.513139	0.062310
H90	H	1.187755	-0.576100	0.158342
H91	H	1.043049	-0.542991	0.469146
H92	H	0.433893	-0.230186	0.287304
C93	C	0.674994	-0.388016	0.483400
C94	C	0.618598	-0.437396	0.449274
C95	C	0.573505	-0.481761	0.504395
C96	C	0.584809	-0.476746	0.593642
C97	C	0.641207	-0.427365	0.627773
C98	C	0.686300	-0.383000	0.572652
H99	H	0.610228	-0.441110	0.383204
H100	H	0.531755	-0.518316	0.479128
H101	H	0.551428	-0.509588	0.634446
H102	H	0.649577	-0.423651	0.693844
H103	H	0.728050	-0.346444	0.597919
C104	C	1.239879	-0.934362	0.272895
C105	C	1.295163	-0.970497	0.217738
C106	C	1.350412	-0.934320	0.162559
C107	C	1.350377	-0.862007	0.162536
C108	C	1.295091	-0.825868	0.217694
C109	C	1.239842	-0.862045	0.272874
H110	H	1.295191	-1.024031	0.217754
H111	H	1.391339	-0.961073	0.121726
H112	H	1.391276	-0.835226	0.121688
H113	H	1.295063	-0.772334	0.217679
H114	H	1.198915	-0.835292	0.313706
C115	C	1.239950	-1.072418	0.272933
C116	C	1.233603	-1.063419	0.183688
C117	C	1.288887	-1.099553	0.128522
C118	C	1.350518	-1.144685	0.162601
C119	C	1.356867	-1.153686	0.251851
C120	C	1.301583	-1.117553	0.307016
H121	H	1.187978	-1.030008	0.158457
H122	H	1.284187	-1.092889	0.062454
H123	H	1.391442	-1.171433	0.121764
H124	H	1.402492	-1.187098	0.277082
H125	H	1.306283	-1.124216	0.373085
C126	C	1.239765	-0.218803	0.666116
C127	C	1.205791	-0.169379	0.609770
C128	C	1.261049	-0.125095	0.564711
C129	C	1.350282	-0.130235	0.576000
C130	C	1.384260	-0.179662	0.632349
C131	C	1.329002	-0.223946	0.677408
H132	H	1.139732	-0.165572	0.601411
H133	H	1.235896	-0.088506	0.522998
H134	H	1.391187	-0.097454	0.542645
H135	H	1.450319	-0.183469	0.640708
H136	H	1.354155	-0.260535	0.719121
C137	C	1.028931	-1.072493	0.483585
C138	C	1.028959	-1.144806	0.483602
C139	C	0.973707	-1.180983	0.538779
C140	C	0.918426	-1.144847	0.593939
C141	C	0.918396	-1.072530	0.593924
C142	C	0.973649	-1.036353	0.538747
H143	H	1.069883	-1.171560	0.442768
H144	H	0.973730	-1.234517	0.538790
H145	H	0.877525	-1.171627	0.634784
H146	H	0.877473	-1.045776	0.634758
H147	H	0.973626	-0.982819	0.538736
C148	C	0.594346	-0.218659	0.272965
C149	C	0.583118	-0.147107	0.279538
C150	C	0.628224	-0.102749	0.224419
C151	C	0.684557	-0.129944	0.162726
C152	C	0.695786	-0.201500	0.156150
C153	C	0.650681	-0.245858	0.211270
H154	H	0.541415	-0.126972	0.325209
H155	H	0.619911	-0.049778	0.229287
H156	H	0.717946	-0.097107	0.121923
H157	H	0.737489	-0.221635	0.110479
H158	H	0.658994	-0.298829	0.206402
H159	H	1.043232	-0.943831	0.469225
C160	C	1.028797	-0.387902	1.091028
C161	C	0.973557	-0.432193	1.045921
C162	C	0.918343	-0.476507	1.090987
C163	C	0.918369	-0.476530	1.181161
C164	C	0.973611	-0.432236	1.226273
C165	C	1.028825	-0.387922	1.181207
H166	H	0.973536	-0.432178	0.979164
H167	H	0.877449	-0.509296	1.057592
H168	H	0.877496	-0.509334	1.214522
H169	H	0.973632	-0.432252	1.293029
H170	H	1.069719	-0.355134	1.214602
C171	C	1.028777	-0.387878	0.918856
C172	C	0.939542	-0.382745	0.930104
C173	C	0.884299	-0.427028	0.884979
C174	C	0.918290	-0.476443	0.828607
C175	C	1.007530	-0.481578	0.817357
C176	C	1.062774	-0.437295	0.862481
H177	H	0.914375	-0.346163	0.971836
H178	H	0.818237	-0.423227	0.893307
H179	H	0.877396	-0.509224	0.795203
H180	H	1.032697	-0.518160	0.775624
H181	H	1.128835	-0.441096	0.854153
H182	H	1.225404	-0.230308	0.826546
H183	H	1.225396	-0.230313	1.079402
H184	H	0.835430	-0.376488	0.469066
C185	C	0.847194	-0.218647	0.272938
C186	C	0.835964	-0.147095	0.279514
C187	C	0.881067	-0.102735	0.224396
C188	C	0.937400	-0.129926	0.162702
C189	C	0.948633	-0.201482	0.156123
C190	C	0.903530	-0.245843	0.211241
H191	H	0.794261	-0.126963	0.325186
H192	H	0.872751	-0.049764	0.229266
H193	H	0.970788	-0.097088	0.121900
H194	H	0.990337	-0.221615	0.110451
H195	H	0.911846	-0.298814	0.206371
H196	H	0.582583	-0.376502	0.469094
H197	H	1.043127	-0.376366	0.826469
H198	H	1.043105	-0.662263	0.469162
C199	C	1.239744	-0.671586	0.272831
C200	C	1.233387	-0.662585	0.183588
C201	C	1.288652	-0.698728	0.128413
C202	C	1.350275	-0.743872	0.162483
C203	C	1.356634	-0.752875	0.251731
C204	C	1.301369	-0.716732	0.306905
H205	H	1.187768	-0.629164	0.158363
H206	H	1.283944	-0.692063	0.062346
H207	H	1.391185	-0.770628	0.121639
H208	H	1.402253	-0.786295	0.276955
H209	H	1.306077	-0.723397	0.372973
