data_functionalizedCrystal
_audit_creation_method	'MofGen! by Chris Wilmer'
_symmetry_space_group_name_H-M	'P1'
_symmetry_Int_Tables_number	1
_symmetry_cell_setting	triclinic
loop_
_symmetry_equiv_pos_as_xyz
  x,y,z
_cell_length_a	19.188933
_cell_length_b	16.109301
_cell_length_c	15.186229
_cell_angle_alpha	90.005167
_cell_angle_beta	89.998062
_cell_angle_gamma	96.696475
loop_
_atom_site_label
_atom_site_type_symbol
_atom_site_fract_x
_atom_site_fract_y
_atom_site_fract_z
O1	O	0.926385	-0.103804	-0.073202
O2	O	1.426385	0.396196	0.426798
O3	O	0.723107	-0.117775	-0.073211
O4	O	1.223107	0.382225	0.426789
O5	O	0.830330	0.010260	-0.073197
O6	O	1.330330	0.510260	0.426803
O7	O	0.819162	-0.231839	-0.073215
O8	O	1.319162	0.268161	0.426785
O9	O	0.830323	0.010262	0.073260
O10	O	1.330323	0.510262	0.573260
O11	O	0.723100	-0.117773	0.073247
O12	O	1.223100	0.382227	0.573247
O13	O	0.926378	-0.103802	0.073255
O14	O	1.426378	0.396198	0.573255
Zn15	Zn	0.824738	-0.110788	0.096504
Zn16	Zn	1.324738	0.389212	0.596504
Zn17	Zn	0.824747	-0.110790	-0.096460
Zn18	Zn	1.324747	0.389210	0.403540
O19	O	0.819155	-0.231837	0.073242
O20	O	1.319155	0.268163	0.573242
C21	C	0.697091	-0.117322	0.000017
C22	C	1.197091	0.382678	0.500017
C23	C	0.619584	-0.115963	0.000014
C24	C	1.119584	0.384037	0.500014
C25	C	0.066310	-0.106264	-0.079810
C26	C	0.566310	0.393736	0.420190
C27	C	0.139137	-0.107536	-0.079813
C28	C	0.639137	0.392464	0.420187
C29	C	0.175551	-0.108175	0.000020
C30	C	0.675551	0.391825	0.500020
C31	C	0.139135	-0.107521	0.079863
C32	C	0.639135	0.392479	0.579863
C33	C	0.066310	-0.106240	0.079865
C34	C	0.566310	0.393760	0.579865
N35	N	0.284684	-0.157495	0.059440
N36	N	0.784684	0.342505	0.559440
N37	N	0.353864	-0.158713	0.059434
N38	N	0.853864	0.341287	0.559434
C39	C	0.394969	-0.112031	0.000022
C40	C	0.894969	0.387969	0.500022
N41	N	0.364279	-0.064095	-0.059397
N42	N	0.864279	0.435905	0.440603
N43	N	0.295092	-0.062881	-0.059393
N44	N	0.795092	0.437119	0.440607
C45	C	0.254518	-0.109563	0.000028
C46	C	0.754518	0.390437	0.500028
C47	C	0.510345	-0.114058	-0.079820
C48	C	1.010345	0.385942	0.420180
C49	C	0.583174	-0.115325	-0.079820
C50	C	1.083174	0.384675	0.420180
C51	C	0.583170	-0.115318	0.079859
C52	C	1.083170	0.384682	0.579859
C53	C	0.510343	-0.114043	0.079856
C54	C	1.010343	0.385957	0.579856
C55	C	0.473935	-0.113417	0.000015
C56	C	0.973935	0.386583	0.500015
C57	C	0.829874	0.041234	0.000032
C58	C	1.329874	0.541234	0.500032
C59	C	0.828518	0.133525	0.000033
C60	C	1.328518	0.633525	0.500033
C61	C	0.952394	-0.104256	0.000026
C62	C	1.452394	0.395744	0.500026
C63	C	1.029902	-0.105615	0.000023
C64	C	1.529902	0.394385	0.500023
C65	C	0.819611	-0.262812	0.000011
C66	C	1.319611	0.237188	0.500011
C67	C	0.820967	-0.355102	0.000004
C68	C	1.320967	0.144898	0.500004
N69	N	0.824737	-0.110785	0.228197
N70	N	1.324737	0.389215	0.728197
C71	C	0.888989	0.355997	0.000022
C72	C	1.388989	0.855997	0.500022
C73	C	0.887709	0.442713	0.000014
C74	C	1.387709	0.942713	0.500014
C75	C	0.760492	0.422418	0.000013
C76	C	1.260492	0.922418	0.500013
C77	C	0.761772	0.335704	0.000014
C78	C	1.261772	0.835704	0.500014
C79	C	0.826023	0.302496	0.000023
C80	C	1.326023	0.802496	0.500023
C81	C	0.823462	0.475927	0.000014
C82	C	1.323462	0.975927	0.500014
C83	C	0.822074	0.569948	0.000006
C84	C	1.322074	1.069948	0.500006
C85	C	0.827411	0.208469	0.000029
C86	C	1.327411	0.708469	0.500029
N87	N	0.824754	-0.110785	-0.228152
N88	N	1.324754	0.389215	0.271848
C89	C	0.872231	-0.054110	0.453926
C90	C	1.372231	0.445890	0.953926
C91	C	0.872233	-0.054108	0.546115
C92	C	1.372233	0.445892	1.046115
C93	C	0.777254	-0.167463	0.546113
C94	C	1.277254	0.332537	1.046113
C95	C	0.777249	-0.167460	0.453925
C96	C	1.277249	0.332540	0.953925
C97	C	0.824742	-0.110785	0.407834
C98	C	1.324742	0.389215	0.907834
C99	C	0.824749	-0.110786	0.592211
C100	C	1.324749	0.389214	1.092211
C101	C	0.824751	-0.110784	0.692167
C102	C	1.324751	0.389216	1.192167
C103	C	0.824739	-0.110786	0.307871
C104	C	1.324739	0.389214	0.807871
H105	H	0.036671	-0.105752	-0.144823
H106	H	0.536671	0.394248	0.355177
C107	C	0.924470	0.008245	0.596813
C108	C	1.424470	0.508245	1.096813
N109	N	0.963815	0.055215	0.634997
N110	N	1.463815	0.555215	1.134997
C111	C	0.725014	-0.229801	0.596821
C112	C	1.225014	0.270199	1.096821
N113	N	0.685666	-0.276755	0.635014
N114	N	1.185666	0.223245	1.135014
C115	C	0.725036	-0.229848	0.403220
C116	C	1.225036	0.270152	0.903220
N117	N	0.685721	-0.276848	0.365030
N118	N	1.185721	0.223152	0.865030
H119	H	0.168786	-0.108070	-0.144824
H120	H	0.668786	0.391930	0.355176
H121	H	0.710495	0.292141	0.000012
H122	H	1.210495	0.792141	0.500012
C123	C	0.956976	0.501562	0.000021
C124	C	1.456976	1.001562	0.500021
N125	N	1.009152	0.545886	0.000028
N126	N	1.509152	1.045886	0.500028
C127	C	0.689820	0.458956	0.000020
C128	C	1.189820	0.958956	0.500020
N129	N	0.636588	0.486475	0.000032
N130	N	1.136588	0.986475	0.500032
C131	C	0.623224	-0.116030	-0.167647
C132	C	1.123224	0.383970	0.332353
N133	N	0.653390	-0.116559	-0.233800
N134	N	1.153390	0.383441	0.266200
C135	C	0.924469	0.008241	0.403229
C136	C	1.424469	0.508241	0.903229
N137	N	0.963813	0.055208	0.365046
N138	N	1.463813	0.555208	0.865046
H139	H	0.168789	-0.108039	0.144864
H140	H	0.668789	0.391961	0.644864
H141	H	0.036667	-0.105715	0.144876
H142	H	0.536667	0.394285	0.644876
C143	C	0.470294	-0.113360	-0.167647
C144	C	0.970294	0.386640	0.332353
N145	N	0.440130	-0.112832	-0.233799
N146	N	0.940130	0.387168	0.266201
H147	H	0.480699	-0.113517	0.144865
H148	H	0.980699	0.386483	0.644865
C149	C	0.959666	0.319472	0.000022
C150	C	1.459666	0.819472	0.500022
N151	N	1.012902	0.291963	0.000018
N152	N	1.512902	0.791963	0.500018
C153	C	0.623223	-0.116012	0.167677
C154	C	1.123223	0.383988	0.667677
N155	N	0.653395	-0.116531	0.233824
N156	N	1.153395	0.383469	0.733824
