data_functionalizedCrystal
_audit_creation_method	'MofGen! by Chris Wilmer'
_symmetry_space_group_name_H-M	'P1'
_symmetry_Int_Tables_number	1
_symmetry_cell_setting	triclinic
loop_
_symmetry_equiv_pos_as_xyz
  x,y,z
_cell_length_a	19.188933
_cell_length_b	19.188930
_cell_length_c	18.266242
_cell_angle_alpha	90.011475
_cell_angle_beta	89.992377
_cell_angle_gamma	96.854825
loop_
_atom_site_label
_atom_site_type_symbol
_atom_site_fract_x
_atom_site_fract_y
_atom_site_fract_z
O1	O	0.926148	-0.087175	-0.060865
O2	O	0.722837	-0.098908	-0.060873
O3	O	0.830360	0.008614	-0.060854
O4	O	0.818626	-0.194697	-0.060883
O5	O	0.830342	0.008620	0.060908
O6	O	0.722819	-0.098902	0.060889
O7	O	0.926130	-0.087170	0.060897
Zn8	Zn	0.824472	-0.093035	0.080226
Zn9	Zn	0.824496	-0.093042	-0.080201
O10	O	0.818608	-0.194692	0.060879
C11	C	0.696817	-0.098525	0.000008
C12	C	0.619313	-0.097384	0.000005
C13	C	0.066067	-0.089242	-0.066358
C14	C	0.138892	-0.090310	-0.066361
C15	C	0.175299	-0.090844	0.000011
C16	C	0.138878	-0.090292	0.066391
C17	C	0.066056	-0.089217	0.066392
N18	N	0.284311	-0.132260	0.049409
N19	N	0.353489	-0.133283	0.049403
C20	C	0.394707	-0.094082	0.000012
N21	N	0.364134	-0.053828	-0.049385
N22	N	0.294949	-0.052808	-0.049382
C23	C	0.254262	-0.092009	0.000017
C24	C	0.510084	-0.095787	-0.066367
C25	C	0.582911	-0.096851	-0.066368
C26	C	0.582894	-0.096840	0.066386
C27	C	0.510071	-0.095769	0.066385
C28	C	0.473669	-0.095246	0.000006
C29	C	0.829971	0.034628	0.000029
C30	C	0.828830	0.112132	0.000035
C31	C	0.952150	-0.087553	0.000015
C32	C	1.029655	-0.088694	0.000013
C33	C	0.818997	-0.220705	-0.000006
C34	C	0.820137	-0.298210	-0.000017
N35	N	0.824461	-0.093030	0.189713
C36	C	0.891921	0.157056	0.000041
C37	C	0.890849	0.229880	0.000029
C38	C	0.826683	0.257777	0.000026
C39	C	0.763584	0.212843	0.000016
C40	C	0.764658	0.140021	0.000021
N41	N	0.777630	0.365784	0.041462
N42	N	0.776614	0.434962	0.041460
C43	C	0.823445	0.477185	0.000011
N44	N	0.871340	0.447618	-0.041425
N45	N	0.872358	0.378433	-0.041419
C46	C	0.825512	0.336739	0.000021
C47	C	0.885378	0.601073	0.000004
C48	C	0.884304	0.673898	-0.000013
C49	C	0.757037	0.656860	-0.000019
C50	C	0.758113	0.584037	-0.000010
C51	C	0.822286	0.556148	0.000005
N52	N	0.824512	-0.093042	-0.189688
C53	C	0.872087	-0.045442	0.228030
C54	C	0.872092	-0.045439	0.304675
C55	C	0.824476	-0.093035	0.342999
C56	C	0.776841	-0.140626	0.304673
C57	C	0.776833	-0.140624	0.228030
N58	N	0.815400	-0.154843	0.463323
N59	N	0.815412	-0.154843	0.536131
C60	C	0.824496	-0.093045	0.573922
N61	N	0.833581	-0.031245	0.536154
N62	N	0.833573	-0.031245	0.463339
C63	C	0.824479	-0.093043	0.426106
C64	C	0.872130	-0.045450	0.695346
C65	C	0.872129	-0.045446	0.771992
C66	C	0.776882	-0.140640	0.771990
C67	C	0.776879	-0.140638	0.695345
C68	C	0.824506	-0.093044	0.657028
H69	H	0.168525	-0.090726	0.120432
C70	C	0.051660	-0.028870	0.179550
C71	C	0.026029	-0.088620	0.139355
H72	H	0.026950	-0.028506	0.224596
H73	H	0.045170	0.012001	0.152283
H74	H	0.100240	-0.029591	0.189042
H75	H	-0.022551	-0.087896	0.129858
H76	H	0.032513	-0.129501	0.166628
H77	H	0.711340	0.235562	0.000012
C78	C	0.735507	-0.261615	0.795560
C79	C	0.724539	-0.192959	0.814106
H80	H	0.703187	-0.293912	0.821561
H81	H	0.782073	-0.269079	0.808113
H82	H	0.728686	-0.268416	0.744428
H83	H	0.731365	-0.186156	0.865237
H84	H	0.677961	-0.185492	0.801559
C85	C	0.761434	-0.235696	0.609134
C86	C	0.724534	-0.192957	0.653222
H87	H	0.729115	-0.267994	0.583127
H88	H	0.790415	-0.260736	0.639022
H89	H	0.789788	-0.207342	0.575344
H90	H	0.696184	-0.221312	0.687015
H91	H	0.695541	-0.167916	0.623331
H92	H	0.713280	0.103444	0.000016
H93	H	0.738049	-0.179376	0.196831
C94	C	1.011067	0.625226	-0.000009
C95	C	0.955914	0.570412	0.000002
H96	H	1.054612	0.606297	-0.000017
H97	H	1.008002	0.653283	0.042448
H98	H	1.007997	0.653266	-0.042475
H99	H	0.958982	0.542375	0.042470
H100	H	0.958981	0.542343	-0.042460
C101	C	0.963487	0.321651	-0.062554
C102	C	0.960203	0.279272	0.000040
H103	H	1.006305	0.352139	-0.062546
H104	H	0.925121	0.348680	-0.062556
H105	H	0.961275	0.292874	-0.105010
H106	H	0.962410	0.308049	0.042497
H107	H	0.998580	0.252241	0.000049
H108	H	0.480423	-0.095326	0.120432
C109	C	0.073405	-0.089353	-0.197579
C110	C	0.026058	-0.088652	-0.139321
H111	H	0.048703	-0.088982	-0.242622
H112	H	0.096352	-0.130478	-0.194825
H113	H	0.107262	-0.049066	-0.194804
H114	H	-0.007797	-0.128942	-0.142093
H115	H	0.003099	-0.047522	-0.142076
C116	C	0.436224	-0.034584	-0.143375
C117	C	0.470068	-0.095204	-0.139329
H118	H	0.411519	-0.034228	-0.188417
H119	H	0.470080	0.005697	-0.140614
H120	H	0.404113	-0.034117	-0.103842
H121	H	0.502183	-0.095668	-0.178859
H122	H	0.436209	-0.135495	-0.142097
C123	C	0.212768	-0.151544	-0.143362
C124	C	0.178931	-0.090918	-0.139319
H125	H	0.237489	-0.151917	-0.188401
H126	H	0.178907	-0.191821	-0.140608
H127	H	0.244864	-0.152003	-0.103825
H128	H	0.146831	-0.090462	-0.178853
H129	H	0.212796	-0.050631	-0.142080
H130	H	0.612537	-0.097273	0.120428
C131	C	0.575605	-0.096769	-0.197587
C132	C	0.622938	-0.097452	-0.139329
H133	H	0.600318	-0.097145	-0.242630
H134	H	0.552650	-0.055648	-0.194826
H135	H	0.541752	-0.137060	-0.194820
H136	H	0.656788	-0.057159	-0.142093
H137	H	0.645905	-0.138578	-0.142092
H138	H	0.738070	-0.179379	0.335881
C139	C	1.000737	0.149149	-0.062544
C140	C	0.962459	0.126402	0.000048
H141	H	1.044282	0.130220	-0.062541
H142	H	1.009123	0.198943	-0.062539
H143	H	0.974769	0.133700	-0.105001
H144	H	0.988425	0.141856	0.042506
H145	H	0.954075	0.076597	0.000050
C146	C	0.956945	0.765650	-0.062612
C147	C	0.953661	0.723280	-0.000012
H148	H	0.999767	0.796132	-0.062613
H149	H	0.918583	0.792684	-0.062615
H150	H	0.954726	0.736866	-0.105064
H151	H	0.955875	0.752063	0.042440
H152	H	0.992034	0.696243	-0.000002
H153	H	0.704792	0.679573	-0.000025
H154	H	0.910909	-0.006694	0.664147
C155	C	0.966290	0.048632	0.764292
C156	C	0.924488	0.006864	0.814114
H157	H	0.998618	0.080922	0.790298
H158	H	0.937309	0.073681	0.734413
H159	H	0.991303	0.019618	0.734383
H160	H	0.899470	0.035877	0.844019
H161	H	0.953472	-0.018187	0.844005
C162	C	0.632212	0.574513	-0.000005
C163	C	0.688761	0.534652	-0.000003
H164	H	0.589395	0.544023	0.000002
H165	H	0.634444	0.603258	-0.042466
H166	H	0.634441	0.603284	0.042456
H167	H	0.686535	0.505884	-0.042467
H168	H	0.686528	0.505895	0.042463
H169	H	0.910867	-0.006687	0.196834
H170	H	0.910876	-0.006686	0.335878
