data_functionalizedCrystal
_audit_creation_method	'MofGen! by Chris Wilmer'
_symmetry_space_group_name_H-M	'P1'
_symmetry_Int_Tables_number	1
_symmetry_cell_setting	triclinic
loop_
_symmetry_equiv_pos_as_xyz
  x,y,z
_cell_length_a	21.295418
_cell_length_b	29.839131
_cell_length_c	29.839126
_cell_angle_alpha	89.970347
_cell_angle_beta	89.954791
_cell_angle_gamma	90.051038
loop_
_atom_site_label
_atom_site_type_symbol
_atom_site_fract_x
_atom_site_fract_y
_atom_site_fract_z
Zn1	Zn	0.962344	-0.178708	-0.254215
Zn2	Zn	0.962235	-0.253825	-0.179075
Zn3	Zn	0.857065	-0.178731	-0.179072
Zn4	Zn	0.857028	-0.253832	-0.254151
O5	O	0.909668	-0.216274	-0.216628
O6	O	1.050419	-0.188660	-0.244275
O7	O	0.948254	-0.243871	-0.116207
O8	O	0.871091	-0.115861	-0.189065
O9	O	1.050339	-0.243848	-0.189070
O10	O	0.948440	-0.115844	-0.244273
O11	O	0.870986	-0.188699	-0.116205
O12	O	0.768971	-0.188706	-0.189003
O13	O	0.871029	-0.243860	-0.317026
O14	O	0.768944	-0.243882	-0.244163
O15	O	0.948404	-0.188666	-0.317073
O16	O	0.948218	-0.316693	-0.189008
O17	O	0.870923	-0.316698	-0.244166
C18	C	0.746116	-0.216298	-0.216576
C19	C	0.676148	-0.216319	-0.216565
C20	C	0.643284	-0.245087	-0.245244
C21	C	0.577542	-0.245076	-0.245264
C22	C	0.544666	-0.216301	-0.216597
C23	C	0.577538	-0.187527	-0.187916
C24	C	0.643279	-0.187536	-0.187900
N25	N	0.441389	-0.212786	-0.177304
N26	N	0.378937	-0.212780	-0.177321
C27	C	0.346591	-0.216272	-0.216645
N28	N	0.379056	-0.219779	-0.255952
N29	N	0.441513	-0.219787	-0.255935
C30	C	0.473381	-0.216288	-0.216612
C31	C	0.242442	-0.245030	-0.245348
C32	C	0.176698	-0.245016	-0.245369
C33	C	0.176695	-0.187470	-0.188017
C34	C	0.242438	-0.187482	-0.188000
C35	C	0.275307	-0.216264	-0.216665
C36	C	0.909572	-0.332997	-0.216590
C37	C	0.909589	-0.382931	-0.216589
C38	C	0.949935	-0.692531	-0.245415
C39	C	0.950003	-0.880204	-0.245442
O40	O	0.984213	-0.904431	-0.269923
N41	N	0.909775	-0.903716	-0.216678
C42	C	0.869524	-0.880307	-0.187907
O43	O	0.835305	-0.904612	-0.163445
C44	C	0.869453	-0.692635	-0.187882
C45	C	0.909688	-0.669125	-0.216645
C46	C	0.990166	-0.669021	-0.274176
C47	C	0.990151	-0.622105	-0.274168
C48	C	0.949905	-0.598700	-0.245398
C49	C	0.909673	-0.622210	-0.216637
C50	C	0.829200	-0.669227	-0.159114
C51	C	0.829184	-0.622306	-0.159111
C52	C	0.869419	-0.598796	-0.187874
C53	C	0.869412	-0.551889	-0.187858
N54	N	0.909640	-0.528376	-0.216622
C55	C	0.949886	-0.551782	-0.245392
C56	C	0.869565	-0.978838	-0.187921
C57	C	0.869584	-1.025756	-0.187926
C58	C	0.950062	-1.025649	-0.245463
C59	C	0.950046	-0.978730	-0.245455
C60	C	0.909793	-0.955325	-0.216685
C61	C	0.949852	-0.453256	-0.245371
C62	C	0.949835	-0.406336	-0.245359
C63	C	0.869355	-0.406447	-0.187824
C64	C	0.869374	-0.453363	-0.187835
C65	C	0.909624	-0.476766	-0.216612
O66	O	0.835215	-0.527632	-0.163393
O67	O	0.984091	-0.527469	-0.269858
C68	C	0.949950	-0.739446	-0.245424
C69	C	0.909718	-0.762956	-0.216663
C70	C	0.869472	-0.739551	-0.187893
C71	C	0.909737	-0.809874	-0.216668
C72	C	0.949983	-0.833279	-0.245438
C73	C	0.990211	-0.809767	-0.274203
C74	C	0.990196	-0.762851	-0.274194
C75	C	0.829244	-0.763063	-0.159129
C76	C	0.829263	-0.809978	-0.159139
C77	C	0.869509	-0.833384	-0.187909
C78	C	1.073858	-0.216251	-0.216680
C79	C	1.143827	-0.216241	-0.216702
C80	C	0.909725	-0.216261	-0.333806
C81	C	0.909749	-0.216256	-0.383741
C82	C	0.909782	-0.099096	-0.216676
C83	C	0.909830	-0.049161	-0.216696
C84	C	0.949974	-0.244924	-0.740332
C85	C	0.949975	-0.244955	-0.552659
O86	O	0.984169	-0.269400	-0.528398
N87	N	0.909746	-0.216234	-0.529186
C88	C	0.869511	-0.187505	-0.552634
O89	O	0.835289	-0.163080	-0.528363
C90	C	0.869507	-0.187477	-0.740306
C91	C	0.909743	-0.216196	-0.763777
C92	C	0.990206	-0.273641	-0.763803
C93	C	0.990208	-0.273631	-0.810718
C94	C	0.949977	-0.244904	-0.834163
C95	C	0.909745	-0.216186	-0.810693
C96	C	0.829269	-0.158751	-0.763754
C97	C	0.829271	-0.158747	-0.810675
C98	C	0.869507	-0.187466	-0.834145
C99	C	0.869516	-0.187449	-0.881053
N100	N	0.909745	-0.216170	-0.904526
C101	C	0.949976	-0.244897	-0.881081
C102	C	0.869516	-0.187522	-0.454104
C103	C	0.869518	-0.187528	-0.407186
C104	C	0.949981	-0.244979	-0.407214
C105	C	0.949983	-0.244969	-0.454133
C106	C	0.909745	-0.216243	-0.477577
C107	C	0.949977	-0.244874	-0.979607
C108	C	0.949977	-0.244861	-1.026527
C109	C	0.869511	-0.187412	-1.026494
C110	C	0.869513	-0.187424	-0.979579
C111	C	0.909748	-0.216159	-0.956136
O112	O	0.835334	-0.163020	-0.905343
O113	O	0.984183	-0.269326	-0.905361
C114	C	0.949972	-0.244933	-0.693417
C115	C	0.909740	-0.216216	-0.669946
C116	C	0.869509	-0.187488	-0.693391
C117	C	0.909741	-0.216222	-0.623028
C118	C	0.949972	-0.244950	-0.599583
C119	C	0.990201	-0.273671	-0.623056
C120	C	0.990203	-0.273661	-0.669972
C121	C	0.829280	-0.158768	-0.669918
C122	C	0.829282	-0.158779	-0.623002
C123	C	0.869513	-0.187507	-0.599558
C124	C	0.909648	-0.216254	-0.099906
C125	C	0.909746	-0.216133	-0.049971
H126	H	0.670037	-0.164108	-0.164546
H127	H	0.550778	-0.268502	-0.268619
H128	H	0.269205	-0.268465	-0.268691
O129	O	1.029143	-0.599223	-0.302135
C130	C	0.993275	-0.572105	-0.331125
H131	H	0.945581	-0.565118	-0.315234
H132	H	1.018904	-0.539090	-0.337172
H133	H	0.986335	-0.590176	-0.364410
O134	O	0.830341	-0.159634	-0.476822
C135	C	0.767595	-0.169472	-0.465319
H136	H	0.766283	-0.186754	-0.431249
H137	H	0.739400	-0.137054	-0.463699
H138	H	0.746362	-0.192563	-0.491705
O139	O	0.144869	-0.273007	-0.273243
C140	C	0.187981	-0.298404	-0.298544
H141	H	0.234811	-0.299937	-0.280128
H142	H	0.168939	-0.333805	-0.303267
H143	H	0.195053	-0.282007	-0.332697
H144	H	0.149929	-0.164039	-0.164678
O145	O	0.545579	-0.159641	-0.160019
C146	C	0.507459	-0.185173	-0.130968
H147	H	0.527214	-0.220555	-0.128121
H148	H	0.506686	-0.168876	-0.096426
H149	H	0.457653	-0.186734	-0.144865
O150	O	0.274268	-0.159524	-0.160096
C151	C	0.231157	-0.134115	-0.134806
H152	H	0.184264	-0.152508	-0.133225
H153	H	0.250103	-0.129274	-0.099414
H154	H	0.224243	-0.100018	-0.151326
O155	O	0.790117	-0.832744	-0.131182
C156	C	0.754604	-0.802019	-0.105782
H157	H	0.752411	-0.768564	-0.124177
H158	H	0.705011	-0.815613	-0.100951
H159	H	0.777673	-0.797035	-0.071680
H160	H	0.982740	-0.268369	-0.388117
H161	H	0.982601	-0.387196	-0.268781
O162	O	1.029210	-0.740037	-0.302201
C163	C	1.015434	-0.751497	-0.346964
H164	H	0.965146	-0.764431	-0.349186
H165	H	1.020835	-0.720627	-0.369164
H166	H	1.049180	-0.778700	-0.358738
H167	H	0.982744	-0.268248	-1.045634
O168	O	0.830552	-0.956056	-0.159948
C169	C	0.866399	-0.928914	-0.130952
H170	H	0.914088	-0.921830	-0.146840
H171	H	0.840745	-0.895950	-0.124899
H172	H	0.873350	-0.947015	-0.097670
H173	H	1.022967	-0.297047	-0.689078
H174	H	0.982623	-0.472305	-0.268808
H175	H	1.022939	-0.688072	-0.297607
H176	H	0.796517	-0.135375	-0.689002
O177	O	0.790081	-0.740311	-0.131242
C178	C	0.749401	-0.713177	-0.156771
H179	H	0.745492	-0.727289	-0.192155
H180	H	0.700970	-0.712701	-0.140475
H181	H	0.768847	-0.677601	-0.158325
H182	H	0.982744	-0.268270	-0.960526
H183	H	1.022970	-0.297019	-0.829824
H184	H	0.982809	-0.959591	-0.268876
O185	O	0.989065	-1.048409	-0.273460
C186	C	0.953206	-1.075567	-0.302434
H187	H	0.903622	-1.061463	-0.305158
H188	H	0.975943	-1.076063	-0.337030
H189	H	0.951057	-1.111135	-0.288543
O190	O	1.029351	-0.301563	-0.741102
C191	C	1.064842	-0.326912	-0.771888
H192	H	1.067026	-0.308502	-0.805339
H193	H	1.114440	-0.331696	-0.758367
H194	H	1.041762	-0.361036	-0.776853
H195	H	0.836827	-1.044894	-0.164500
H196	H	0.796404	-0.603252	-0.135684
H197	H	0.836616	-0.472506	-0.164410
H198	H	0.982746	-0.268356	-0.473239
H199	H	0.796504	-0.135353	-0.829760
O200	O	0.790052	-0.691988	-0.131160
C201	C	0.754540	-0.661260	-0.105765
H202	H	0.752348	-0.627806	-0.124163
H203	H	0.704946	-0.674852	-0.100933
H204	H	0.777607	-0.656273	-0.071663
O205	O	0.830406	-0.159689	-0.384340
C206	C	0.789713	-0.185277	-0.357177
H207	H	0.811884	-0.219319	-0.350145
H208	H	0.781288	-0.166983	-0.324188
H209	H	0.743061	-0.190221	-0.375234
O210	O	1.029190	-0.301625	-0.600257
C211	C	0.993315	-0.330640	-0.573081
H212	H	0.943737	-0.333420	-0.587197
H213	H	1.016047	-0.365211	-0.572543
H214	H	0.991153	-0.316753	-0.537528
H215	H	0.796503	-0.135365	-0.744652
O216	O	0.830280	-0.383637	-0.159922
C217	C	0.838909	-0.337186	-0.166079
H218	H	0.859506	-0.330743	-0.200766
H219	H	0.791754	-0.319392	-0.162993
H220	H	0.872441	-0.323861	-0.139459
O221	O	1.029215	-0.832529	-0.302199
C222	C	0.993355	-0.859685	-0.331174
H223	H	0.943773	-0.845578	-0.333901
H224	H	1.016096	-0.860183	-0.365769
H225	H	0.991201	-0.895252	-0.317282
O226	O	0.830370	-0.159512	-0.956846
C227	C	0.794875	-0.134146	-0.987603
H228	H	0.792689	-0.152538	-1.021042
H229	H	0.745279	-0.129370	-0.974025
H230	H	0.817954	-0.100019	-0.992611
H231	H	0.836758	-0.164022	-1.045592
O232	O	0.790135	-0.130864	-0.600275
C233	C	0.754640	-0.105502	-0.631035
H234	H	0.752454	-0.123898	-0.664472
H235	H	0.705043	-0.100724	-0.617459
H236	H	0.777719	-0.071375	-0.636047
H237	H	0.670042	-0.268524	-0.268585
