data_functionalizedCrystal
_audit_creation_method	'MofGen! by Chris Wilmer'
_symmetry_space_group_name_H-M	'P1'
_symmetry_Int_Tables_number	1
_symmetry_cell_setting	triclinic
loop_
_symmetry_equiv_pos_as_xyz
  x,y,z
_cell_length_a	18.215407
_cell_length_b	19.121063
_cell_length_c	18.215399
_cell_angle_alpha	87.590157
_cell_angle_beta	90.016899
_cell_angle_gamma	92.466335
loop_
_atom_site_label
_atom_site_type_symbol
_atom_site_fract_x
_atom_site_fract_y
_atom_site_fract_z
Zn1	Zn	1.112557	-0.279668	0.428541
Zn2	Zn	1.612557	0.220332	0.928541
Zn3	Zn	1.107209	-0.397123	0.310718
Zn4	Zn	1.607209	0.102877	0.810718
Zn5	Zn	0.989489	-0.279685	0.305496
Zn6	Zn	1.489489	0.220315	0.805496
Zn7	Zn	0.984201	-0.397078	0.433747
Zn8	Zn	1.484201	0.102922	0.933747
O9	O	1.048364	-0.338389	0.369626
O10	O	1.548364	0.161611	0.869626
O11	O	1.214831	-0.295261	0.412919
O12	O	1.714831	0.204739	0.912919
O13	O	1.091568	-0.381571	0.207042
O14	O	1.591568	0.118429	0.707042
O15	O	1.010265	-0.181399	0.317454
O16	O	1.510265	0.318601	0.817454
O17	O	1.210902	-0.381554	0.326354
O18	O	1.710902	0.118446	0.826354
O19	O	1.100682	-0.181386	0.407855
O20	O	1.600682	0.318614	0.907855
O21	O	1.005079	-0.295290	0.203205
O22	O	1.505079	0.204710	0.703205
O23	O	0.885803	-0.295246	0.322502
O24	O	1.385803	0.204754	0.822502
O25	O	1.001253	-0.381477	0.536040
O26	O	1.501253	0.118523	1.036040
O27	O	0.881919	-0.381494	0.416727
O28	O	1.381919	0.118506	0.916727
O29	O	1.095555	-0.295217	0.532215
O30	O	1.595555	0.204783	1.032215
O31	O	1.086441	-0.495402	0.331402
O32	O	1.586441	0.004598	0.831402
O33	O	0.996067	-0.495368	0.421791
O34	O	1.496067	0.004632	0.921791
C35	C	0.857159	-0.338367	0.369613
C36	C	1.357159	0.161633	0.869613
C37	C	0.775359	-0.338375	0.369626
C38	C	1.275359	0.161625	0.869626
C39	C	0.508294	-0.383372	0.418628
C40	C	1.008294	0.116628	0.918628
C41	C	0.585153	-0.383366	0.418624
C42	C	1.085153	0.116634	0.918624
C43	C	0.589174	-0.293421	0.320637
C44	C	1.089174	0.206579	0.820637
C45	C	0.512316	-0.293431	0.320638
C46	C	1.012316	0.206569	0.820638
C47	C	0.471878	-0.338406	0.369637
C48	C	0.971878	0.161594	0.869637
C49	C	0.625595	-0.338390	0.369633
C50	C	1.125595	0.161610	0.869633
C51	C	0.708929	-0.338383	0.369628
C52	C	1.208929	0.161617	0.869628
C53	C	0.388539	-0.338414	0.369641
C54	C	0.888539	0.161586	0.869641
C55	C	1.040120	-0.520869	0.377744
C56	C	1.540120	-0.020869	0.877744
C57	C	1.036661	-0.598935	0.381242
C58	C	1.536661	-0.098935	0.881242
C59	C	1.082125	-0.635604	0.335863
C60	C	1.582125	-0.135604	0.835863
C61	C	1.078876	-0.708956	0.339157
C62	C	1.578876	-0.208956	0.839157
C63	C	1.030158	-0.745636	0.387826
C64	C	1.530158	-0.245636	0.887826
C65	C	0.984692	-0.708961	0.433210
C66	C	1.484692	-0.208961	0.933210
C67	C	0.987946	-0.635611	0.429919
C68	C	1.487946	-0.135611	0.929919
C69	C	1.017983	-0.967105	0.400118
C70	C	1.517983	-0.467105	0.900118
C71	C	1.014731	-1.040460	0.403404
C72	C	1.514731	-0.540460	0.903404
C73	C	1.108916	-1.040450	0.309352
C74	C	1.608916	-0.540450	0.809352
C75	C	1.112162	-0.967098	0.306062
C76	C	1.612162	-0.467098	0.806062
C77	C	1.066699	-0.930430	0.351448
C78	C	1.566699	-0.430430	0.851448
C79	C	1.026834	-0.820613	0.391193
C80	C	1.526834	-0.320613	0.891193
C81	C	1.070027	-0.855455	0.348085
C82	C	1.570027	-0.355455	0.848085
C83	C	1.240316	-0.338411	0.369638
C84	C	1.740316	0.161589	0.869638
C85	C	1.322114	-0.338420	0.369644
C86	C	1.822114	0.161580	0.869644
C87	C	1.048411	-0.338340	0.561576
C88	C	1.548411	0.161660	1.061576
C89	C	1.048431	-0.338320	0.643374
C90	C	1.548431	0.161680	1.143374
C91	C	1.056660	-0.155196	0.361492
C92	C	1.556660	0.344804	0.861492
C93	C	1.060195	-0.077130	0.358025
C94	C	1.560195	0.422870	0.858025
C95	C	1.048362	-0.338386	0.178419
C96	C	1.548362	0.161614	0.678419
C97	C	1.048493	-0.338209	0.096613
C98	C	1.548493	0.161791	0.596613
C99	C	1.097553	-0.293362	0.829576
C100	C	1.597553	0.206638	1.329576
C101	C	1.097563	-0.293341	0.906434
C102	C	1.597563	0.206659	1.406434
C103	C	0.999366	-0.383169	0.910406
C104	C	1.499366	0.116831	1.410406
C105	C	0.999353	-0.383185	0.833549
C106	C	1.499353	0.116815	1.333549
C107	C	1.048451	-0.338283	0.793136
C108	C	1.548451	0.161717	1.293136
C109	C	1.048473	-0.338246	0.946851
C110	C	1.548473	0.161754	1.446851
C111	C	1.048483	-0.338224	1.030184
C112	C	1.548483	0.161776	1.530184
C113	C	1.048440	-0.338304	0.709798
C114	C	1.548440	0.161696	1.209798
H115	H	0.614800	-0.419982	0.458516
H116	H	1.114800	0.080018	0.958516
F117	F	1.149805	-0.245571	0.786569
F118	F	1.649805	0.254429	1.286569
F119	F	1.133972	-0.596573	0.284058
F120	F	1.633972	-0.096573	0.784058
F121	F	0.465260	-0.431239	0.470775
F122	F	0.965260	0.068761	0.970775
F123	F	0.947118	-0.430957	0.953422
F124	F	1.447118	0.069043	1.453422
H125	H	0.980963	-0.937256	0.437072
H126	H	1.480963	-0.437256	0.937072
H127	H	0.622108	-0.256804	0.280745
H128	H	1.122108	0.243196	0.780745
H129	H	0.482666	-0.256814	0.280741
H130	H	0.982666	0.243186	0.780741
F131	F	1.127267	-0.747979	0.290861
F132	F	1.627267	-0.247979	0.790861
F133	F	0.939559	-0.596585	0.478219
F134	F	1.439559	-0.096585	0.978219
H135	H	0.975068	-1.070323	0.443049
H136	H	1.475068	-0.570323	0.943049
H137	H	0.959363	-0.419765	0.803879
H138	H	1.459363	0.080235	1.303879
H139	H	1.151831	-0.937235	0.266432
H140	H	1.651831	-0.437235	0.766432
F141	F	1.121877	-0.816416	0.296293
F142	F	1.621877	-0.316416	0.796293
H143	H	0.945029	-0.738832	0.472841
H144	H	1.445029	-0.238832	0.972841
H145	H	1.137545	-0.256761	0.936100
H146	H	1.637545	0.243239	1.436100
F147	F	0.974986	-0.859657	0.442988
F148	F	1.474986	-0.359657	0.942988
F149	F	1.157300	-1.079480	0.261055
F150	F	1.657300	-0.579480	0.761055
