data_functionalizedCrystal
_audit_creation_method	'MofGen! by Chris Wilmer'
_symmetry_space_group_name_H-M	'P1'
_symmetry_Int_Tables_number	1
_symmetry_cell_setting	triclinic
loop_
_symmetry_equiv_pos_as_xyz
  x,y,z
_cell_length_a	13.897449
_cell_length_b	18.215405
_cell_length_c	13.897441
_cell_angle_alpha	90.033850
_cell_angle_beta	89.981404
_cell_angle_gamma	89.973835
loop_
_atom_site_label
_atom_site_type_symbol
_atom_site_fract_x
_atom_site_fract_y
_atom_site_fract_z
Zn1	Zn	1.474634	0.292943	-0.545353
Zn2	Zn	1.474514	0.416021	-0.384042
Zn3	Zn	1.313329	0.292976	-0.384071
Zn4	Zn	1.313285	0.415975	-0.545295
O5	O	1.393940	0.354479	-0.464690
O6	O	1.609600	0.309275	-0.523967
O7	O	1.453101	0.399732	-0.249064
O8	O	1.334796	0.189987	-0.405502
O9	O	1.609511	0.399700	-0.405453
O10	O	1.453306	0.189963	-0.523995
O11	O	1.334679	0.309331	-0.249086
O12	O	1.178342	0.309286	-0.405446
O13	O	1.334720	0.399621	-0.680284
O14	O	1.178309	0.399653	-0.523896
O15	O	1.453262	0.309230	-0.680327
O16	O	1.453057	0.518999	-0.405397
O17	O	1.334603	0.518965	-0.523868
C18	C	1.393839	0.545685	-0.464644
C19	C	1.393883	0.627484	-0.464656
C20	C	1.143326	0.354469	-0.464668
C21	C	1.036112	0.354482	-0.464682
C22	C	1.393999	0.354417	-0.716283
C23	C	1.394025	0.354390	-0.823497
C24	C	0.839817	0.354485	-0.464707
C25	C	0.949050	0.354481	-0.464690
C26	C	1.645533	0.354489	-0.464713
C27	C	1.752747	0.354493	-0.464723
C28	C	1.394069	0.162526	-0.464758
C29	C	1.394124	0.080727	-0.464787
C30	C	1.455707	0.815671	-0.403082
C31	C	1.455750	0.892530	-0.403105
C32	C	1.332297	0.892534	-0.526368
C33	C	1.332259	0.815677	-0.526349
C34	C	1.393963	0.777247	-0.464700
C35	C	1.394044	0.930963	-0.464743
C36	C	1.394090	1.014297	-0.464769
C37	C	1.393918	0.693908	-0.464676
C38	C	1.394044	0.354370	-0.910567
C39	C	1.394072	0.354337	-1.019800
C40	C	1.393937	0.354487	-0.214076
C41	C	1.394099	0.354306	-0.106863
H42	H	1.505952	0.784383	-0.352885
H43	H	1.282059	0.923833	-0.576559
N44	N	1.265661	0.774224	-0.592809
H45	H	1.280604	0.787548	-0.661747
H46	H	1.196783	0.787665	-0.577684
N47	N	1.522348	0.933973	-0.336648
H48	H	1.561428	0.897963	-0.297594
H49	H	1.483127	0.965916	-0.291982
