data_functionalizedCrystal
_audit_creation_method	'MofGen! by Chris Wilmer'
_symmetry_space_group_name_H-M	'P1'
_symmetry_Int_Tables_number	1
_symmetry_cell_setting	triclinic
loop_
_symmetry_equiv_pos_as_xyz
  x,y,z
_cell_length_a	14.395555
_cell_length_b	14.809374
_cell_length_c	14.809374
_cell_angle_alpha	60.797835
_cell_angle_beta	90.002017
_cell_angle_gamma	67.425796
loop_
_atom_site_label
_atom_site_type_symbol
_atom_site_fract_x
_atom_site_fract_y
_atom_site_fract_z
Zr1	Zr	1.026088	0.955167	-0.203622
O2	O	0.912293	1.113092	-0.350786
O3	O	1.044862	0.777400	-0.145544
O4	O	1.082861	0.926546	-0.332082
O5	O	0.862646	0.993441	-0.031851
O6	O	1.235734	0.926541	-0.332074
O7	O	0.874294	0.963945	-0.164248
O8	O	1.167760	0.659746	0.001608
O9	O	0.930619	1.260237	-0.365533
O10	O	1.186420	0.857863	-0.136431
O11	O	1.063640	0.879880	-0.037630
O12	O	1.108379	1.055480	-0.257255
O13	O	0.985598	1.077497	-0.158454
Zr14	Zr	1.251324	1.002202	0.007549
Zr15	Zr	1.269902	0.955159	-0.203609
Zr16	Zr	1.007510	1.002210	0.007537
Zr17	Zr	1.055316	1.189847	-0.227141
Zr18	Zr	1.222097	0.767522	0.031069
O19	O	1.232551	1.179969	-0.050528
O20	O	1.258966	1.113080	-0.350769
O21	O	0.885878	1.179981	-0.050546
O22	O	1.365119	0.844277	0.154714
O23	O	1.391534	0.777388	-0.145526
O24	O	1.018447	0.844289	0.154697
O25	O	1.414766	0.963927	-0.164221
O26	O	1.194552	1.030823	0.136009
O27	O	1.041679	1.030828	0.136002
O28	O	1.403118	0.993424	-0.031824
O29	O	1.124419	1.260231	-0.365524
O30	O	1.152993	0.697138	0.169451
O31	O	1.346793	0.697132	0.169461
O32	O	1.361560	0.659739	0.001618
O33	O	0.915853	1.297630	-0.197690
O34	O	1.109652	1.297623	-0.197681
O35	O	1.169034	0.901889	0.061182
O36	O	1.291814	0.879872	-0.037619
O37	O	1.213773	1.077489	-0.158442
O38	O	1.090993	1.099506	-0.059641
C39	C	1.102147	0.685136	-0.068617
C40	C	1.089738	0.585508	-0.058632
C41	C	1.145114	0.530169	-0.103192
C42	C	1.132291	0.427199	-0.092874
C43	C	0.833732	0.978695	-0.098051
C44	C	0.730226	0.978698	-0.098057
C45	C	0.627085	1.086449	-0.163926
C46	C	0.592229	1.017888	-0.196966
C47	C	0.580660	1.047253	-0.065024
C48	C	0.696738	0.910124	-0.131150
C49	C	0.685163	0.939518	0.000841
C50	C	0.650367	0.870874	-0.032166
C51	C	1.443681	0.978674	-0.098021
C52	C	1.547186	0.978671	-0.098015
C53	C	1.161944	0.919841	-0.362163
C54	C	1.169831	0.899870	-0.451806
C55	C	1.175266	1.272233	-0.127456
C56	C	1.187674	1.371861	-0.137440
C57	C	1.134633	0.988998	-0.551708
C58	C	1.142784	0.968359	-0.644359
C59	C	1.115468	1.037528	0.166091
C60	C	1.107582	1.057499	0.255734
C61	C	1.407121	0.685126	-0.068601
C62	C	1.498218	0.585495	-0.058611
C63	C	1.078909	0.743979	0.195511
C64	C	1.058614	0.664323	0.295138
C65	C	1.383883	0.743969	0.195526
C66	C	1.467094	0.664309	0.295158
C67	C	0.893529	1.213400	-0.391598
C68	C	0.810319	1.293060	-0.491231
C69	C	0.870291	1.272243	-0.127471
C70	C	0.779194	1.371874	-0.137461
C71	C	1.198504	1.213390	-0.391583
C72	C	1.218799	1.293046	-0.491210
C73	C	1.485985	0.527216	-0.105508
C74	C	1.571575	0.433611	-0.096142
C75	C	1.669396	0.398280	-0.039873
C76	C	1.681628	0.456568	0.007024
C77	C	1.596041	0.550177	-0.002348
C78	C	1.104097	0.638405	0.393512
C79	C	1.085025	0.563574	0.487129
C80	C	1.020474	0.514655	0.482370
C81	C	0.974986	0.540579	0.383986
C82	C	0.994053	0.615416	0.290370
C83	C	1.570271	0.615407	0.290374
C84	C	1.648468	0.540569	0.383980
C85	C	1.623485	0.514628	0.482370
C86	C	1.520298	0.563538	0.487151
C87	C	1.442104	0.638381	0.393546
C88	C	0.707143	1.341973	-0.486447
C89	C	0.628950	1.416840	-0.580056
C90	C	0.653933	1.442786	-0.678446
C91	C	0.757119	1.393870	-0.683228
C92	C	0.835311	1.319011	-0.589621
C93	C	0.791429	1.430160	-0.090574
C94	C	0.705845	1.523787	-0.099966
C95	C	0.608024	1.559120	-0.156238
C96	C	0.595791	1.500828	-0.203131
C97	C	0.681376	1.407209	-0.193745
C98	C	1.283354	1.341943	-0.486417
C99	C	1.302443	1.416778	-0.580018
C100	C	1.256970	1.442722	-0.678411
C101	C	1.192411	1.393817	-0.683202
C102	C	1.173329	1.318977	-0.589601
H103	H	1.032839	0.556651	-0.012840
N104	N	1.330820	0.691117	0.398715
H105	H	1.326868	0.663317	0.475251
H106	H	1.288725	0.667531	0.367658
N107	N	1.597230	0.643366	0.184262
H108	H	1.674461	0.601024	0.195451
H109	H	1.574445	0.729051	0.137643
N110	N	0.738570	0.895716	0.111568
H111	H	0.805395	0.824272	0.136150
H112	H	0.692050	0.876591	0.161682
N113	N	0.680180	1.314015	-0.380337
H114	H	0.745362	1.259170	-0.321753
H115	H	0.631649	1.276998	-0.368654
N116	N	0.662315	0.750081	0.041633
H117	H	0.591864	0.750828	0.041718
H118	H	0.697761	0.720124	0.116020
N119	N	0.514295	1.124052	-0.028033
H120	H	0.504656	1.205433	-0.077862
H121	H	0.549216	1.095191	0.046183
N122	N	1.103685	1.266262	-0.594793
H123	H	1.042906	1.289837	-0.563793
H124	H	1.143790	1.179576	-0.552748
H125	H	0.777450	1.415005	-0.763348
H126	H	1.206002	0.808285	-0.434869
N127	N	0.515712	1.660082	-0.166343
H128	H	0.484714	1.722210	-0.243980
H129	H	0.538385	1.691542	-0.128039
N130	N	1.493360	0.535553	0.593275
H131	H	1.558558	0.480715	0.651840
H132	H	1.444849	0.498511	0.604968
N133	N	1.056918	0.388983	-0.032208
H134	H	1.003218	0.394722	-0.081177
H135	H	1.021801	0.440080	-0.003891
H136	H	1.071414	1.149091	-0.761213
H137	H	1.406344	0.555977	-0.151340
N138	N	1.220483	0.568388	-0.163855
H139	H	1.255675	0.517312	-0.192176
H140	H	1.274120	0.562657	-0.114831
N141	N	1.173710	0.691169	0.398663
H142	H	1.178896	0.742514	0.324437
H143	H	1.244811	0.627975	0.443086
H144	H	1.761286	0.427788	0.052837
N145	N	0.569592	1.523527	-0.779404
H146	H	0.500441	1.550568	-0.761434
H147	H	0.569136	1.481858	-0.816637
N148	N	0.668156	1.344346	-0.244310
H149	H	0.689974	1.260919	-0.187586
H150	H	0.712433	1.349147	-0.297859
N151	N	0.517663	1.469588	-0.574885
H152	H	0.513709	1.441777	-0.498348
H153	H	0.475559	1.446023	-0.605959
H154	H	1.355009	1.456591	-0.576097
H155	H	0.919320	1.279184	-0.593527
N156	N	0.762919	0.833365	-0.168262
H157	H	0.832875	0.833875	-0.168080
H158	H	0.728169	0.862703	-0.242702
N159	N	1.143362	1.421812	-0.789330
H160	H	1.166393	1.348644	-0.790080
H161	H	1.165266	1.476677	-0.847829
N162	N	1.558369	0.370756	-0.146729
H163	H	1.483409	0.407341	-0.183786
H164	H	1.580258	0.287333	-0.089959
N165	N	1.761704	0.297317	-0.029771
H166	H	1.739101	0.265764	-0.068020
H167	H	1.792659	0.235265	0.047888
N168	N	1.609242	0.613027	0.048241
H169	H	1.684199	0.576431	0.085308
H170	H	1.564904	0.608277	0.101733
H171	H	0.715825	1.571234	-0.061774
N172	N	1.263059	0.410055	-0.198099
H173	H	1.316761	0.404312	-0.149129
H174	H	1.224595	0.492457	-0.259390
N175	N	0.615414	1.207114	-0.237793
H176	H	0.581235	1.236562	-0.312476
H177	H	0.685887	1.206298	-0.236685
N178	N	1.759754	0.487823	0.378808
H179	H	1.763706	0.515608	0.302274
H180	H	1.788126	0.401136	0.420930
N181	N	1.707820	0.433897	0.583332
H182	H	1.758683	0.466485	0.580102
H183	H	1.744868	0.356256	0.591089
N184	N	1.134095	0.535619	0.593234
H185	H	1.177888	0.577957	0.582036
H186	H	1.178988	0.449933	0.639853
H187	H	0.551925	1.051001	-0.280585
H188	H	1.272516	1.503664	-0.754619
H189	H	0.871071	1.401402	-0.044745
H190	H	0.922428	0.500739	0.380127
N191	N	1.086734	1.110318	-0.574159
H192	H	1.087705	1.107865	-0.504789
H193	H	1.012948	1.152128	-0.616401
H194	H	1.004957	0.453721	0.558606
H195	H	1.178958	0.876768	-0.627415
N196	N	0.490277	1.538929	-0.263800
H197	H	0.463530	1.621338	-0.325118
H198	H	0.441184	1.533099	-0.214762
H199	H	1.320387	1.320833	-0.406309
H200	H	0.957016	0.636505	0.210274
