data_functionalizedCrystal
_audit_creation_method	'MofGen! by Chris Wilmer'
_symmetry_space_group_name_H-M	'P1'
_symmetry_Int_Tables_number	1
_symmetry_cell_setting	triclinic
loop_
_symmetry_equiv_pos_as_xyz
  x,y,z
_cell_length_a	10.540554
_cell_length_b	16.776229
_cell_length_c	17.699092
_cell_angle_alpha	90.001732
_cell_angle_beta	96.091172
_cell_angle_gamma	89.996389
loop_
_atom_site_label
_atom_site_type_symbol
_atom_site_fract_x
_atom_site_fract_y
_atom_site_fract_z
O1	O	-1.683933	0.066246	0.106709
O2	O	-1.314339	0.066255	0.116747
O3	O	-1.509573	0.066248	0.001607
O4	O	-1.488700	0.066253	0.221848
O5	O	-1.509551	-0.066328	0.001607
O6	O	-1.314317	-0.066321	0.116747
O7	O	-1.683911	-0.066331	0.106708
Zn8	Zn	-1.499111	-0.087375	0.111727
Zn9	Zn	-1.499140	0.087300	0.111728
O10	O	-1.488678	-0.066324	0.221848
C11	C	-1.267039	-0.000031	0.115992
C12	C	-1.126133	-0.000028	0.113733
C13	C	-1.090997	-0.000033	0.029660
C14	C	-0.944441	-0.000342	0.027282
C15	C	-0.916087	-0.075597	0.152101
C16	C	-1.062818	-0.075652	0.153896
C17	C	-1.062705	0.075117	0.155120
C18	C	-0.916431	0.076102	0.151226
C19	C	-0.731213	-0.000043	0.107454
C20	C	-0.872126	-0.000043	0.109683
N21	N	-1.499100	-0.206587	0.111727
C22	C	-1.575938	-0.248301	0.158077
C23	C	-1.575952	-0.331754	0.158074
C24	C	-1.499121	-0.373489	0.111724
C25	C	-1.422279	-0.331769	0.065369
C26	C	-1.422273	-0.248318	0.065368
C27	C	-1.422305	-0.668316	0.065370
C28	C	-1.422314	-0.751772	0.065376
C29	C	-1.575984	-0.751752	0.158076
C30	C	-1.575978	-0.668301	0.158075
C31	C	-1.499142	-0.626587	0.111717
C32	C	-1.499130	-0.536099	0.111719
C33	C	-1.499125	-0.463976	0.111725
C34	C	-1.508812	-0.000039	-0.026595
C35	C	-1.506563	-0.000035	-0.110627
N36	N	-1.499160	0.206511	0.111723
C37	C	-1.505521	0.072234	-0.150101
C38	C	-1.503400	0.072235	-0.229058
C39	C	-1.502329	-0.000034	-0.268540
C40	C	-1.503367	-0.072308	-0.229060
C41	C	-1.505479	-0.072308	-0.150104
C42	C	-1.494847	-0.072309	-0.547481
C43	C	-1.492738	-0.072303	-0.626443
C44	C	-1.492767	0.072234	-0.626435
C45	C	-1.494879	0.072234	-0.547479
C46	C	-1.495911	-0.000040	-0.508005
C47	C	-1.498208	-0.000040	-0.422391
C48	C	-1.500040	-0.000034	-0.354153
C49	C	-1.489438	-0.000035	0.250050
C50	C	-1.491687	-0.000034	0.334082
H51	H	-1.135024	-0.054135	-0.002083
O52	O	-1.650818	-0.792186	0.203061
C53	C	-1.779716	-0.771795	0.182825
H54	H	-1.785248	-0.711206	0.153502
H55	H	-1.826603	-0.818760	0.142494
C56	C	-1.842916	-0.842345	0.290830
C57	C	-1.849710	-0.767924	0.254820
H58	H	-1.886094	-0.839960	0.335238
H59	H	-1.756076	-0.856085	0.304461
H60	H	-1.881986	-0.881474	0.257213
H61	H	-1.810626	-0.728799	0.288433
H62	H	-1.936546	-0.754177	0.241195
H63	H	-1.638524	-0.365714	0.195816
O64	O	-1.495666	0.142469	-0.509164
C65	C	-1.385268	0.186416	-0.520529
H66	H	-1.307900	0.144107	-0.536652
H67	H	-1.408885	0.231459	-0.568179
C68	C	-1.432308	0.282693	-0.426994
C69	C	-1.337279	0.230728	-0.446790
H70	H	-1.402708	0.310030	-0.381510
H71	H	-1.506688	0.253087	-0.419339
H72	H	-1.451980	0.320222	-0.466709
H73	H	-1.317620	0.193195	-0.407080
H74	H	-1.262894	0.260329	-0.454437
H75	H	-1.502488	-0.131150	-0.261212
O76	O	-1.495710	-0.142567	-0.509223
C77	C	-1.385296	-0.186534	-0.520532
H78	H	-1.347110	-0.165975	-0.575192
H79	H	-1.309543	-0.176537	-0.470504
C80	C	-1.465502	-0.301088	-0.459495
C81	C	-1.418607	-0.275842	-0.526633
H82	H	-1.486046	-0.356177	-0.463254
H83	H	-1.539887	-0.271466	-0.451873
H84	H	-1.402366	-0.292750	-0.417811
H85	H	-1.481748	-0.284170	-0.568313
H86	H	-1.344232	-0.305467	-0.534262
O87	O	-1.491505	-0.142460	-0.664863
C88	C	-1.380374	-0.146774	-0.702543
H89	H	-1.343454	-0.084021	-0.711712
H90	H	-1.304222	-0.182425	-0.666529
C91	C	-1.457067	-0.265172	-0.768704
C92	C	-1.411728	-0.188097	-0.779972
H93	H	-1.476404	-0.290665	-0.816464
H94	H	-1.531936	-0.262268	-0.743316
H95	H	-1.393599	-0.294872	-0.738690
H96	H	-1.475201	-0.158396	-0.809977
H97	H	-1.336869	-0.190997	-0.805366
H98	H	-0.888401	0.131998	0.120356
H99	H	-1.084724	-0.078880	0.215528
O100	O	-1.347455	-0.627850	0.020432
C101	C	-1.218572	-0.648283	0.040660
H102	H	-1.206136	-0.671210	0.101629
H103	H	-1.189248	-0.696741	0.000824
C104	C	-1.149471	-0.546015	-0.040675
C105	C	-1.134195	-0.574168	0.034210
H106	H	-1.097421	-0.500300	-0.044657
H107	H	-1.236301	-0.532251	-0.054306
H108	H	-1.125036	-0.586404	-0.073863
H109	H	-1.158645	-0.533783	0.067395
H110	H	-1.047366	-0.587924	0.047846
H111	H	-1.502557	0.131083	-0.261195
O112	O	-0.858118	-0.078600	0.224448
C113	C	-0.776790	-0.012225	0.237834
H114	H	-0.749115	0.011257	0.181407
H115	H	-0.828306	0.036559	0.267448
C116	C	-0.689738	-0.066181	0.357981
C117	C	-0.655738	-0.037344	0.288676
H118	H	-0.615069	-0.081674	0.389346
H119	H	-0.744533	-0.110898	0.348964
H120	H	-0.732669	-0.025523	0.382650
H121	H	-0.612822	-0.078006	0.264005
H122	H	-0.600932	0.007365	0.297690
O123	O	-1.650420	-0.627726	0.203188
C124	C	-1.572862	-0.579444	0.254371
H125	H	-1.471840	-0.604599	0.261912
H126	H	-1.570788	-0.516199	0.230971
C127	C	-1.751486	-0.547259	0.322441
C128	C	-1.627411	-0.578159	0.331708
H129	H	-1.785136	-0.546463	0.370146
H130	H	-1.803740	-0.579785	0.287957
H131	H	-1.749741	-0.494558	0.302939
H132	H	-1.629160	-0.630863	0.351201
H133	H	-1.575158	-0.545642	0.366198
H134	H	-1.359746	-0.785751	0.027630
H135	H	-1.359728	-0.365757	0.027626
O136	O	-0.910306	0.064338	-0.012228
C137	C	-0.946708	0.134428	0.023786
H138	H	-1.027536	0.120282	0.059637
H139	H	-0.861627	0.158936	0.061884
C140	C	-0.892946	0.214369	-0.080802
C141	C	-0.992228	0.196995	-0.036774
H142	H	-0.921019	0.252965	-0.118157
H143	H	-0.868416	0.167149	-0.105064
H144	H	-0.822053	0.234787	-0.049045
H145	H	-1.063112	0.176568	-0.068530
H146	H	-1.016771	0.244213	-0.012519
O147	O	-0.880094	-0.142929	0.117270
C148	C	-0.936480	-0.144048	0.041389
H149	H	-1.025281	-0.104807	0.035865
H150	H	-0.865503	-0.120475	0.002481
C151	C	-0.864928	-0.278318	0.025302
C152	C	-0.974001	-0.230127	0.018520
H153	H	-0.888068	-0.331416	0.011193
H154	H	-0.826935	-0.277564	0.076424
H155	H	-0.805790	-0.258664	-0.007121
H156	H	-1.033129	-0.249776	0.050949
H157	H	-1.012005	-0.230887	-0.032597
H158	H	-0.916581	-0.054823	-0.005729
O159	O	-1.347554	-0.207706	0.020453
C160	C	-1.260777	-0.159453	0.066101
H161	H	-1.300099	-0.146945	0.122488
H162	H	-1.165333	-0.191620	0.077136
C163	C	-1.193502	-0.095550	-0.044364
C164	C	-1.241803	-0.080182	0.024888
H165	H	-1.181792	-0.046653	-0.069787
H166	H	-1.251961	-0.128061	-0.075119
H167	H	-1.113970	-0.122358	-0.035159
H168	H	-1.321340	-0.053383	0.015682
H169	H	-1.183356	-0.047664	0.055641
H170	H	-1.491921	0.131082	-0.658583
H171	H	-1.506400	0.131083	-0.117961
H172	H	-1.133563	0.054141	-0.002623
O173	O	-1.506531	-0.142581	-0.111876
C174	C	-1.505093	-0.206367	-0.163650
H175	H	-1.543781	-0.185188	-0.222845
H176	H	-1.403065	-0.228572	-0.164669
C177	C	-1.541567	-0.300674	-0.066160
C178	C	-1.589094	-0.274662	-0.138864
H179	H	-1.593377	-0.342803	-0.050870
H180	H	-1.542531	-0.257700	-0.031278
H181	H	-1.456544	-0.319172	-0.067019
H182	H	-1.674108	-0.256155	-0.138002
H183	H	-1.588146	-0.317634	-0.173745
O184	O	-1.088012	0.075904	0.228881
C185	C	-1.162606	0.008875	0.243080
H186	H	-1.215157	-0.013146	0.187372
H187	H	-1.098141	-0.040511	0.269527
C188	C	-1.195642	0.059164	0.366541
C189	C	-1.260194	0.032121	0.298120
H190	H	-1.255835	0.073501	0.400494
H191	H	-1.145382	0.104322	0.356976
H192	H	-1.141924	0.018005	0.388570
H193	H	-1.313898	0.073284	0.276088
H194	H	-1.310465	-0.013029	0.307682
H195	H	-1.105651	0.132405	0.128888
H196	H	-1.103502	-0.132348	0.125251
O197	O	-1.650690	-0.207886	0.203124
C198	C	-1.718489	-0.262604	0.244046
H199	H	-1.725998	-0.322091	0.212756
H200	H	-1.666015	-0.271482	0.303152
C201	C	-1.844067	-0.156964	0.289602
C202	C	-1.853299	-0.230025	0.251168
H203	H	-1.927222	-0.136867	0.293999
H204	H	-1.798387	-0.120099	0.262034
H205	H	-1.800333	-0.164372	0.338853
H206	H	-1.897018	-0.222615	0.201915
H207	H	-1.898990	-0.266889	0.278727
H208	H	-0.866287	0.080900	0.211364
