data_functionalizedCrystal
_audit_creation_method	'MofGen! by Chris Wilmer'
_symmetry_space_group_name_H-M	'P1'
_symmetry_Int_Tables_number	1
_symmetry_cell_setting	triclinic
loop_
_symmetry_equiv_pos_as_xyz
  x,y,z
_cell_length_a	10.723024
_cell_length_b	19.188930
_cell_length_c	9.798715
_cell_angle_alpha	89.991738
_cell_angle_beta	89.996609
_cell_angle_gamma	83.806325
loop_
_atom_site_label
_atom_site_type_symbol
_atom_site_fract_x
_atom_site_fract_y
_atom_site_fract_z
O1	O	1.655155	0.097922	-0.113499
O2	O	2.155155	0.597922	0.386501
O3	O	1.291808	0.107295	-0.113506
O4	O	1.791808	0.607295	0.386494
O5	O	1.483967	0.001021	-0.113476
O6	O	1.983967	0.501021	0.386524
O7	O	1.462996	0.204196	-0.113529
O8	O	1.962996	0.704196	0.386471
O9	O	1.483952	0.001021	0.113507
O10	O	1.983952	0.501021	0.613507
O11	O	1.291793	0.107295	0.113477
O12	O	1.791793	0.607295	0.613477
O13	O	1.655140	0.097922	0.113483
O14	O	2.155140	0.597922	0.613483
Zn15	Zn	1.473465	0.102608	0.149518
Zn16	Zn	1.973465	0.602608	0.649518
Zn17	Zn	1.473483	0.102609	-0.149541
Zn18	Zn	1.973483	0.602609	0.350459
O19	O	1.462982	0.204196	0.113453
O20	O	1.962982	0.704196	0.613453
C21	C	1.245315	0.106613	-0.000015
C22	C	1.745315	0.606613	0.499985
C23	C	1.106803	0.104572	-0.000016
C24	C	1.606803	0.604572	0.499984
C25	C	1.030586	0.164037	-0.000033
C26	C	1.530586	0.664037	0.499967
C27	C	0.887427	0.161930	-0.000034
C28	C	1.387427	0.661930	0.499966
C29	C	1.483280	-0.024995	0.000019
C30	C	1.983280	0.475005	0.500019
C31	C	1.481242	-0.102512	0.000031
C32	C	1.981242	0.397488	0.500031
C33	C	1.593994	-0.146704	0.000040
C34	C	2.093994	0.353296	0.500040
C35	C	1.592079	-0.219540	0.000018
C36	C	2.092079	0.280460	0.500018
C37	C	1.477405	-0.248182	0.000015
C38	C	1.977405	0.251818	0.500015
C39	C	1.364638	-0.203981	-0.000001
C40	C	1.864638	0.296019	0.499999
C41	C	1.366556	-0.131146	0.000007
C42	C	1.866556	0.368854	0.500007
N43	N	1.389745	-0.356756	0.077260
N44	N	1.889745	0.143244	0.577260
N45	N	1.387931	-0.425947	0.077255
N46	N	1.887931	0.074053	0.577255
C47	C	1.471618	-0.467628	-0.000013
C48	C	1.971618	0.032372	0.499987
N49	N	1.557208	-0.437506	-0.077259
N50	N	2.057208	0.062494	0.422741
N51	N	1.559026	-0.368310	-0.077248
N52	N	2.059026	0.131690	0.422752
C53	C	1.475312	-0.327158	0.000005
C54	C	1.975312	0.172842	0.500005
C55	C	1.582302	-0.590797	-0.000030
C56	C	2.082302	-0.090797	0.499970
C57	C	1.580382	-0.663634	-0.000061
C58	C	2.080382	-0.163634	0.499939
C59	C	1.352937	-0.648073	-0.000066
C60	C	1.852937	-0.148073	0.499934
C61	C	1.354860	-0.575238	-0.000049
C62	C	1.854860	-0.075238	0.499951
C63	C	1.469546	-0.546604	-0.000025
C64	C	1.969546	-0.046604	0.499975
C65	C	1.701633	0.098604	-0.000011
C66	C	2.201633	0.598604	0.499989
C67	C	1.840145	0.100645	-0.000019
C68	C	2.340145	0.600645	0.499981
C69	C	1.463668	0.230211	-0.000045
C70	C	1.963668	0.730211	0.499955
C71	C	1.465706	0.307729	-0.000066
C72	C	1.965706	0.807729	0.499934
N73	N	1.473461	0.102608	0.353618
N74	N	1.973461	0.602608	0.853618
N75	N	1.473497	0.102604	-0.353640
N76	N	1.973497	0.602604	0.146360
C77	C	1.554147	0.057789	0.421407
C78	C	2.054147	0.557789	0.921407
C79	C	1.554167	0.057787	0.578570
C80	C	2.054167	0.557787	1.078570
H81	H	0.905627	0.049735	-0.000013
H82	H	1.405627	0.549735	0.499987
N83	N	1.052854	0.035067	0.000014
N84	N	1.552854	0.535067	0.500014
H85	H	0.999522	0.031478	-0.084125
H86	H	1.499522	0.531478	0.415875
H87	H	1.123450	-0.004289	0.000079
H88	H	1.623450	0.495711	0.500079
N89	N	1.240954	-0.234870	0.000015
N90	N	1.740954	0.265130	0.500015
H91	H	1.169813	-0.195820	0.000013
H92	H	1.669813	0.304180	0.500013
H93	H	1.235206	-0.264746	-0.084129
H94	H	1.735206	0.235254	0.415871
H95	H	1.687380	-0.123395	0.000055
H96	H	2.187380	0.376605	0.500055
N97	N	1.084529	0.233544	-0.000063
N98	N	1.584529	0.733544	0.499937
H99	H	1.013997	0.272939	-0.000076
H100	H	1.513997	0.772939	0.499924
H101	H	1.137874	0.237070	0.084082
H102	H	1.637874	0.737070	0.584082
H103	H	1.274736	-0.095165	0.000000
H104	H	1.774736	0.404835	0.500000
H105	H	1.404419	0.140979	0.588072
H106	H	1.904419	0.640979	1.088072
N107	N	1.645680	0.006960	0.655778
N108	N	2.145680	0.506960	1.155778
H109	H	1.734275	0.015306	0.630959
H110	H	2.234275	0.515306	1.130959
H111	H	1.632614	0.014192	0.757080
H112	H	2.132614	0.514192	1.257080
N113	N	1.381967	0.153429	0.430851
N114	N	1.881967	0.653429	0.930851
H115	H	1.429701	0.184474	0.490122
H116	H	1.929701	0.684474	0.990122
H117	H	1.328139	0.183291	0.363935
H118	H	1.828139	0.683291	0.863935
N119	N	1.713694	-0.267216	0.000024
N120	N	2.213694	0.232784	0.500024
H121	H	1.786637	-0.238024	0.000038
H122	H	2.286637	0.261976	0.500038
H123	H	1.717834	-0.297780	0.084168
H124	H	2.217834	0.202220	0.584168
N125	N	0.800692	0.229367	-0.000065
N126	N	1.300692	0.729367	0.499935
H127	H	0.710718	0.218302	-0.000065
H128	H	1.210718	0.718302	0.499935
H129	H	0.816720	0.257461	0.084073
H130	H	1.316720	0.757461	0.584073
N131	N	1.705990	-0.559906	-0.000010
N132	N	2.205990	-0.059906	0.499990
H133	H	1.777131	-0.598957	-0.000019
H134	H	2.277131	-0.098957	0.499981
H135	H	1.711744	-0.530014	-0.084147
H136	H	2.211744	-0.030014	0.415853
H137	H	1.672202	-0.699615	-0.000061
H138	H	2.172202	-0.199615	0.499939
N139	N	1.229249	-0.678955	-0.000085
N140	N	1.729249	-0.178955	0.499915
H141	H	1.245141	-0.731801	-0.000093
H142	H	1.745141	-0.231801	0.499907
H143	H	1.179917	-0.662836	0.084059
H144	H	1.679917	-0.162836	0.584059
H145	H	1.263044	-0.539256	-0.000049
H146	H	1.763044	-0.039256	0.499951
N147	N	1.645605	0.006945	0.344180
N148	N	2.145605	0.506945	0.844180
H149	H	1.632614	0.014146	0.242855
H150	H	2.132614	0.514146	0.742855
H151	H	1.734181	0.015294	0.369045
H152	H	2.234181	0.515294	0.869045
