data_functionalizedCrystal
_audit_creation_method	'MofGen! by Chris Wilmer'
_symmetry_space_group_name_H-M	'P1'
_symmetry_Int_Tables_number	1
_symmetry_cell_setting	triclinic
loop_
_symmetry_equiv_pos_as_xyz
  x,y,z
_cell_length_a	14.044220
_cell_length_b	14.044202
_cell_length_c	9.730217
_cell_angle_alpha	90.001047
_cell_angle_beta	90.004421
_cell_angle_gamma	86.809211
loop_
_atom_site_label
_atom_site_type_symbol
_atom_site_fract_x
_atom_site_fract_y
_atom_site_fract_z
O1	O	0.230208	-1.277168	0.114227
O2	O	0.730208	-0.777168	0.614227
O3	O	0.221893	-1.000495	0.114245
O4	O	0.721893	-0.500495	0.614245
O5	O	0.087715	-1.134679	0.114222
O6	O	0.587715	-0.634679	0.614222
O7	O	0.364387	-1.142984	0.114249
O8	O	0.864387	-0.642984	0.614249
O9	O	0.087713	-1.134674	-0.114358
O10	O	0.587713	-0.634674	0.385642
O11	O	0.221892	-1.000491	-0.114336
O12	O	0.721892	-0.500491	0.385664
O13	O	0.230207	-1.277163	-0.114353
O14	O	0.730207	-0.777163	0.385647
Zn15	Zn	0.226049	-1.138826	-0.150636
Zn16	Zn	0.726049	-0.638826	0.349364
Zn17	Zn	0.226051	-1.138832	0.150528
Zn18	Zn	0.726051	-0.638832	0.650528
O19	O	0.364385	-1.142980	-0.114331
O20	O	0.864385	-0.642980	0.385669
C21	C	0.218256	-0.964871	-0.000043
C22	C	0.718256	-0.464871	0.499957
C23	C	0.207407	-0.858728	-0.000037
C24	C	0.707407	-0.358728	0.499963
C25	C	0.264506	-0.613270	-0.000045
C26	C	0.764506	-0.113270	0.499955
C27	C	0.187590	-0.664395	-0.000050
C28	C	0.687590	-0.164395	0.499950
C29	C	0.198619	-0.772532	-0.000043
C30	C	0.698619	-0.272532	0.499957
C31	C	0.253478	-0.505123	-0.000052
C32	C	0.753478	-0.005123	0.499948
C33	C	0.052092	-1.131041	-0.000068
C34	C	0.552092	-0.631041	0.499932
C35	C	-0.054051	-1.120196	-0.000069
C36	C	0.445949	-0.620196	0.499931
C37	C	-0.248389	-1.100370	-0.000048
C38	C	0.251611	-0.600370	0.499952
C39	C	-0.299517	-1.177284	-0.000049
C40	C	0.200483	-0.677284	0.499951
C41	C	-0.407653	-1.166253	-0.000037
C42	C	0.092347	-0.666253	0.499963
C43	C	-0.140243	-1.111400	-0.000060
C44	C	0.359757	-0.611400	0.499940
C45	C	0.400008	-1.146618	-0.000038
C46	C	0.900008	-0.646618	0.499962
C47	C	0.506151	-1.157462	-0.000028
C48	C	1.006151	-0.657462	0.499972
N49	N	0.226047	-1.138829	-0.356173
N50	N	0.726047	-0.638829	0.143827
C51	C	0.233842	-0.312788	-0.000062
C52	C	0.733842	0.187212	0.499938
C53	C	0.244684	-0.418931	-0.000057
C54	C	0.744684	0.081069	0.499943
C55	C	0.107274	-1.257704	-0.356183
C56	C	0.607274	-0.757704	0.143817
C57	C	0.047891	-1.317148	-0.428128
C58	C	0.547891	-0.817148	0.071872
C59	C	0.047891	-1.317158	-0.572008
C60	C	0.547891	-0.817158	-0.072008
C61	C	0.107279	-1.257715	-0.643946
C62	C	0.607279	-0.757715	-0.143946
C63	C	0.166662	-1.198271	-0.572001
C64	C	0.666662	-0.698271	-0.072001
C65	C	0.166658	-1.198270	-0.428118
C66	C	0.666658	-0.698270	0.071882
C67	C	0.285429	-1.079392	-0.571991
C68	C	0.785429	-0.579392	-0.071991
C69	C	0.285435	-1.079386	-0.428111
C70	C	0.785435	-0.579386	0.071889
C71	C	0.344817	-1.019949	-0.643929
C72	C	0.844817	-0.519949	-0.143929
C73	C	0.404207	-0.960509	-0.571984
C74	C	0.904207	-0.460509	-0.071984
C75	C	0.404205	-0.960502	-0.428095
C76	C	0.904205	-0.460502	0.071905
C77	C	0.344818	-1.019942	-0.356166
C78	C	0.844818	-0.519942	0.143834
N79	N	0.226046	-1.138836	0.356064
N80	N	0.726046	-0.638836	0.856064
H81	H	0.338633	-0.650711	-0.000033
H82	H	0.838633	-0.150711	0.499967
O83	O	0.107278	-1.257693	-0.200998
O84	O	0.607278	-0.757693	0.299002
H85	H	0.056003	-1.309007	-0.163063
H86	H	0.556003	-0.809007	0.336937
H87	H	0.452551	-0.912110	-0.630565
H88	H	0.952551	-0.412110	-0.130565
O89	O	-0.297974	-1.002174	-0.000045
O90	O	0.202026	-0.502174	0.499955
H91	H	-0.276969	-0.962852	-0.093211
H92	H	0.223031	-0.462852	0.406789
O93	O	0.089389	-0.614808	-0.000064
O94	O	0.589389	-0.114808	0.499936
H95	H	0.050065	-0.635819	0.093095
H96	H	0.550065	-0.135819	0.593095
O97	O	-0.249933	-1.275488	-0.000080
O98	O	0.250067	-0.775488	0.499920
H99	H	-0.171548	-1.268858	-0.000103
H100	H	0.328452	-0.768858	0.499897
H101	H	-0.000464	-1.365545	-0.369544
H102	H	0.499536	-0.865545	0.130456
H103	H	-0.000468	-1.365559	-0.630586
H104	H	0.499532	-0.865559	-0.130586
H105	H	0.344815	-1.019946	-0.239011
H106	H	0.844815	-0.519946	0.260989
O107	O	0.107283	-1.257721	-0.799131
O108	O	0.607283	-0.757721	-0.299131
H109	H	0.056016	-1.309044	-0.837073
H110	H	0.556016	-0.809044	-0.337073
O111	O	0.344829	-1.019960	-0.799114
O112	O	0.844829	-0.519960	-0.299114
H113	H	0.293570	-1.071290	-0.837059
H114	H	0.793570	-0.571290	-0.337059
H115	H	0.452558	-0.912092	-0.369525
H116	H	0.952558	-0.412092	0.130475
