data_functionalizedCrystal
_audit_creation_method	'MofGen! by Chris Wilmer'
_symmetry_space_group_name_H-M	'P1'
_symmetry_Int_Tables_number	1
_symmetry_cell_setting	triclinic
loop_
_symmetry_equiv_pos_as_xyz
  x,y,z
_cell_length_a	8.497374
_cell_length_b	8.497374
_cell_length_c	25.639242
_cell_angle_alpha	90.003377
_cell_angle_beta	90.012325
_cell_angle_gamma	90.005237
loop_
_atom_site_label
_atom_site_type_symbol
_atom_site_fract_x
_atom_site_fract_y
_atom_site_fract_z
Zn1	Zn	0.892552	0.628518	0.799311
Zn2	Zn	0.628818	0.892263	0.799307
Zn3	Zn	0.628731	0.628471	0.711902
Zn4	Zn	0.892501	0.892229	0.711890
O5	O	0.760651	0.760370	0.755602
O6	O	0.857626	0.663538	0.872476
O7	O	0.408044	0.857265	0.787716
O8	O	0.663713	0.407715	0.723504
O9	O	0.663861	0.857311	0.872473
O10	O	0.857541	0.407749	0.787723
O11	O	0.407980	0.663458	0.723500
O12	O	0.663663	0.663425	0.638735
O13	O	1.113270	0.857252	0.723483
O14	O	0.857453	0.857207	0.638726
O15	O	1.113308	0.663505	0.787711
O16	O	0.663811	1.113021	0.787704
O17	O	0.857538	1.112996	0.723479
C18	C	0.760544	0.760308	0.619760
C19	C	0.760535	0.760319	0.561646
C20	C	1.172131	0.760372	0.755599
C21	C	1.350775	0.760389	0.755600
C22	C	0.760673	1.170250	0.755596
C23	C	0.760648	1.348894	0.755610
C24	C	0.861462	0.861441	0.201287
C25	C	0.861487	0.861451	0.146683
O26	O	0.947207	0.947351	0.118449
N27	N	0.760754	0.760414	0.119363
C28	C	0.660000	0.659349	0.146651
O29	O	0.574322	0.573409	0.118400
C30	C	0.659985	0.659333	0.201255
C31	C	0.760713	0.760388	0.228571
C32	C	0.962183	0.962487	0.228603
C33	C	0.962156	0.962479	0.283204
C34	C	0.861407	0.861425	0.310488
C35	C	0.760686	0.760380	0.283171
C36	C	0.559240	0.558261	0.228541
C37	C	0.559234	0.558252	0.283149
C38	C	0.659963	0.659308	0.310465
C39	C	0.659909	0.659318	0.365056
N40	N	0.760642	0.760355	0.392375
C41	C	0.861391	0.861409	0.365091
C42	C	0.660043	0.659389	0.031981
C43	C	0.660050	0.659412	-0.022622
C44	C	0.861538	0.861513	-0.022587
C45	C	0.861523	0.861496	0.032017
C46	C	0.760776	0.760426	0.059300
C47	C	0.861325	0.861385	0.479756
C48	C	0.861284	0.861373	0.534362
C49	C	0.659802	0.659268	0.534322
C50	C	0.659836	0.659285	0.479721
C51	C	0.760611	0.760349	0.452440
O52	O	0.574237	0.573457	0.393324
O53	O	0.947070	0.947320	0.393349
C54	C	0.760759	0.760434	0.891975
C55	C	0.760805	0.760461	0.950089
H56	H	0.943389	0.943678	0.457550
H57	H	0.577992	0.577087	0.054191
O58	O	0.562213	0.561435	-0.049234
C59	C	0.583837	0.583081	-0.103281
H60	H	0.635363	0.704894	-0.110730
H61	H	0.667952	0.489615	-0.118777
C62	C	0.360944	0.418820	-0.122175
C63	C	0.424216	0.568439	-0.131324
H64	H	0.262485	0.409782	-0.139474
H65	H	0.346378	0.404232	-0.085763
H66	H	0.431055	0.340949	-0.135088
H67	H	0.354115	0.646306	-0.118405
H68	H	0.438767	0.583040	-0.167735
O69	O	0.561865	0.561329	0.560891
C70	C	0.459806	0.650982	0.592459
H71	H	0.515257	0.770631	0.600643
H72	H	0.342868	0.668116	0.571408
C73	C	0.363279	0.417190	0.634274
C74	C	0.431390	0.564140	0.644329
H75	H	0.345743	0.363620	0.666269
H76	H	0.432032	0.356787	0.613004
H77	H	0.265837	0.431489	0.616730
H78	H	0.528838	0.549839	0.661866
H79	H	0.362652	0.624539	0.665603
H80	H	0.943311	0.943670	0.556600
O81	O	1.060164	1.060684	0.309654
C82	C	1.149056	1.149890	0.273854
H83	H	1.154606	1.085279	0.234931
H84	H	1.091115	1.269617	0.268045
C85	C	1.310110	1.252239	0.342982
C86	C	1.316938	1.172876	0.295177
H87	H	1.413666	1.266425	0.356135
H88	H	1.250219	1.192144	0.367102
H89	H	1.261819	1.352003	0.338135
H90	H	1.365210	1.073107	0.300026
H91	H	1.376841	1.232955	0.271058
O92	O	0.959469	0.959819	-0.049015
C93	C	1.048414	1.048978	-0.013200
H94	H	0.983783	1.054348	0.025717
H95	H	1.168309	0.991388	-0.007383
C96	C	1.150297	1.210316	-0.082307
C97	C	1.070911	1.216922	-0.034509
H98	H	1.164182	1.313909	-0.095452
H99	H	1.090379	1.150244	-0.106437
H100	H	1.250201	1.162317	-0.077453
H101	H	0.971002	1.264902	-0.039365
H102	H	1.130813	1.277006	-0.010381
O103	O	1.060224	1.060438	0.202081
C104	C	1.162254	0.970823	0.170491
H105	H	1.172185	0.846574	0.186933
H106	H	1.113513	0.965345	0.129100
C107	C	1.313934	1.200775	0.149491
C108	C	1.326142	1.048175	0.169688
H109	H	1.415027	1.248492	0.148993
H110	H	1.245192	1.261153	0.170773
H111	H	1.273311	1.196190	0.115001
H112	H	1.366746	1.052764	0.204179
H113	H	1.394896	0.987800	0.148412
H114	H	0.943547	0.943782	0.054254
H115	H	0.477212	0.475975	0.206310
O116	O	0.561930	0.560985	0.453264
C117	C	0.472966	0.471828	0.489057
H118	H	0.537568	0.466472	0.527989
H119	H	0.353063	0.529411	0.494849
C120	C	0.371145	0.310467	0.419926
C121	C	0.450497	0.303877	0.467742
H122	H	0.357278	0.206869	0.406777
H123	H	0.431077	0.370537	0.395810
H124	H	0.271234	0.358459	0.424758
H125	H	0.550413	0.255904	0.462907
H126	H	0.390581	0.243796	0.491856
H127	H	0.477202	0.475938	0.305360
