data_functionalizedCrystal
_audit_creation_method	'MofGen! by Chris Wilmer'
_symmetry_space_group_name_H-M	'P1'
_symmetry_Int_Tables_number	1
_symmetry_cell_setting	triclinic
loop_
_symmetry_equiv_pos_as_xyz
  x,y,z
_cell_length_a	20.919309
_cell_length_b	20.919319
_cell_length_c	23.196402
_cell_angle_alpha	122.549618
_cell_angle_beta	90.001580
_cell_angle_gamma	65.126131
loop_
_atom_site_label
_atom_site_type_symbol
_atom_site_fract_x
_atom_site_fract_y
_atom_site_fract_z
Zr1	Zr	0.621933	0.749020	0.123563
O2	O	0.528313	0.875253	0.216724
O3	O	0.647122	0.617459	0.091648
O4	O	0.652184	0.751383	0.216760
O5	O	0.523252	0.741324	-0.003262
O6	O	0.753888	0.759308	0.220607
O7	O	0.523251	0.741329	0.091612
O8	O	0.744834	0.519743	-0.003196
O9	O	0.532306	0.980888	0.220541
O10	O	0.738007	0.679460	0.084962
O11	O	0.662106	0.673542	0.011289
O12	O	0.668066	0.831219	0.158592
O13	O	0.592165	0.825301	0.084919
Zr14	Zr	0.784141	0.761651	-0.021615
Zr15	Zr	0.784140	0.761660	0.129697
Zr16	Zr	0.621934	0.749012	-0.027749
Zr17	Zr	0.628302	0.917497	0.129651
Zr18	Zr	0.777772	0.593175	-0.027703
O19	O	0.758952	0.893212	0.010300
O20	O	0.758951	0.893225	0.225446
O21	O	0.528314	0.875240	0.001578
O22	O	0.877761	0.635419	-0.114776
O23	O	0.877760	0.635431	0.100370
O24	O	0.647123	0.617447	-0.123498
O25	O	0.882822	0.769348	0.105210
O26	O	0.753890	0.759289	-0.114812
O27	O	0.652186	0.751364	-0.118658
O28	O	0.882823	0.769343	0.010337
O29	O	0.661239	0.990935	0.225417
O30	O	0.744834	0.519737	-0.123469
O31	O	0.873768	0.529783	-0.118593
O32	O	0.873767	0.529790	0.001680
O33	O	0.532307	0.980882	0.100269
O34	O	0.661240	0.990928	0.105145
O35	O	0.738008	0.679452	-0.056644
O36	O	0.813909	0.685371	0.017029
O37	O	0.743967	0.837130	0.090660
O38	O	0.668067	0.831211	0.016986
C39	C	0.695070	0.544597	0.043358
C40	C	0.692367	0.473074	0.040774
C41	C	0.675339	0.068132	0.023953
C42	C	0.677842	0.135377	0.026425
C43	C	0.718709	0.172090	0.066123
C44	C	0.757082	0.141549	0.103345
C45	C	0.754583	0.074301	0.100869
C46	C	0.728240	0.375286	0.075520
C47	C	0.730734	0.442539	0.077995
C48	C	0.651496	0.436362	0.001074
C49	C	0.648997	0.369116	-0.001396
C50	C	0.687373	0.338578	0.035824
C51	C	0.721266	0.240827	0.068652
C52	C	0.684819	0.269838	0.033290
C53	C	0.500141	0.739526	0.043301
C54	C	0.431279	0.734160	0.040697
C55	C	0.362420	0.810853	0.077906
C56	C	0.297720	0.805806	0.075462
C57	C	0.301881	0.724065	0.035803
C58	C	0.370748	0.647365	-0.001407
C59	C	0.435446	0.652413	0.001042
C60	C	0.108360	0.704860	0.026490
C61	C	0.043654	0.699818	0.024042
C62	C	-0.029370	0.858260	0.100912
C63	C	0.035333	0.863301	0.103354
C64	C	0.104194	0.786601	0.066147
C65	C	0.235748	0.718904	0.033302
C66	C	0.170326	0.791763	0.068653
C67	C	0.905933	0.771146	0.058647
C68	C	0.974795	0.776512	0.061251
C69	C	0.703036	0.755347	0.240242
C70	C	0.703035	0.755350	0.304478
C71	C	0.711004	0.966075	0.058590
C72	C	0.713707	1.037598	0.061175
C73	C	0.666546	0.834550	0.805740
C74	C	0.666539	0.834554	0.745387
C75	C	0.703048	0.755338	0.676771
C76	C	0.739550	0.676110	0.668508
C77	C	0.739550	0.676108	0.728861
C78	C	0.767029	0.697455	0.553068
C79	C	0.767032	0.697461	0.492719
C80	C	0.703048	0.755341	0.490621
C81	C	0.639063	0.813230	0.548889
C82	C	0.639062	0.813228	0.609241
C83	C	0.703052	0.755331	0.611324
C84	C	0.666536	0.834567	0.433447
C85	C	0.666527	0.834567	0.373091
C86	C	0.739546	0.676122	0.296212
C87	C	0.739547	0.676124	0.356568
C88	C	0.703045	0.755349	0.425183
C89	C	0.703040	0.755328	0.861707
C90	C	0.703047	0.755333	0.797476
C91	C	0.897967	0.560407	0.051032
C92	C	0.964124	0.494250	0.051051
C93	C	0.695072	0.544586	-0.145910
C94	C	0.692368	0.473060	-0.212730
C95	C	0.897968	0.560397	-0.138236
C96	C	0.964126	0.494236	-0.202453
C97	C	0.508106	0.950275	0.240185
C98	C	0.441948	1.016436	0.304401
C99	C	0.508107	0.950264	0.050917
C100	C	0.441950	1.016421	0.050897
C101	C	0.711002	0.966085	0.247858
C102	C	0.713706	1.037612	0.314678
C103	C	0.955573	0.460097	0.086527
C104	C	1.017729	0.397944	0.086559
C105	C	1.088435	0.369942	0.051112
C106	C	1.096986	0.404101	0.015635
C107	C	1.034831	0.466257	0.015607
C108	C	0.730718	0.442556	-0.279576
C109	C	0.728176	0.375358	-0.342367
C110	C	0.687287	0.338662	-0.338310
C111	C	0.648932	0.369172	-0.271457
C112	C	0.651471	0.436373	-0.208668
C113	C	1.034820	0.466256	-0.194153
C114	C	1.096989	0.404101	-0.254484
C115	C	1.088462	0.369922	-0.323116
C116	C	1.017760	0.397908	-0.331415
C117	C	0.955593	0.460067	-0.271084
C118	C	0.371254	1.044424	0.296101
C119	C	0.309086	1.106600	0.356434
C120	C	0.317613	1.140782	0.425065
C121	C	0.388315	1.112792	0.433364
C122	C	0.450482	1.050621	0.373032
C123	C	0.450502	1.050582	0.015428
C124	C	0.388346	1.112753	0.015413
C125	C	0.317640	1.140758	0.050863
C126	C	0.309089	1.106595	0.086336
C127	C	0.371244	1.044430	0.086356
C128	C	0.754602	1.074287	0.310598
C129	C	0.757156	1.141486	0.373378
C130	C	0.718810	1.172013	0.440237
C131	C	0.677913	1.135331	0.444315
C132	C	0.675363	1.068129	0.381536
H133	H	0.651548	0.239941	0.000966
H134	H	1.154552	0.381322	-0.247715
C135	C	1.008311	0.360370	0.125579
C136	C	1.042219	0.372240	0.187154
C137	C	1.032799	0.334667	0.226172
C138	C	0.989470	0.285225	0.203615
C139	C	0.955559	0.273353	0.142037
C140	C	0.964980	0.310926	0.103018
H141	H	1.074296	0.408842	0.203855
H142	H	1.057902	0.343456	0.271756
H143	H	0.982497	0.257411	0.232498
H144	H	0.923483	0.236751	0.125336
H145	H	0.939876	0.302137	0.057434
H146	H	0.764015	0.472429	0.110324
H147	H	0.508043	1.027834	0.379799
H148	H	0.764015	0.472427	-0.282893
H149	H	0.395323	1.140558	-0.013476
C150	C	0.796787	0.040711	0.141813
C151	C	0.794045	-0.033262	0.139088
C152	C	0.836254	-0.066855	0.180030
C153	C	0.881207	-0.026475	0.223698
C154	C	0.883951	0.047503	0.226425
C155	C	0.841742	0.081096	0.185483
H156	H	0.760767	-0.063158	0.106760
H157	H	0.834223	-0.121619	0.178011
H158	H	0.912453	-0.051342	0.254006
H159	H	0.917229	0.077399	0.258753
H160	H	0.843774	0.135860	0.187502
H161	H	0.166941	0.858317	0.100945
H162	H	0.620253	0.461232	-0.029229
C163	C	0.397688	1.150394	0.508862
C164	C	0.329300	1.218772	0.575218
C165	C	0.338671	1.256372	0.650717
C166	C	0.416429	1.225593	0.659861
C167	C	0.484822	1.157211	0.593503
C168	C	0.475452	1.119611	0.518003
H169	H	0.271734	1.241560	0.568451
H170	H	0.288041	1.306993	0.699840
H171	H	0.423365	1.253427	0.715750
H172	H	0.542388	1.134424	0.600270
H173	H	0.526081	1.068990	0.468881
C174	C	0.361861	1.006832	0.220611
C175	C	0.430230	0.938444	0.154238
C176	C	0.420830	0.900860	0.078750
C177	C	0.343060	0.931662	0.069635
C178	C	0.274685	1.000054	0.136011
C179	C	0.284085	1.037638	0.211499
H180	H	0.487805	0.915639	0.160983
H181	H	0.471446	0.850232	0.029614
H182	H	0.336101	0.903840	0.013755
H183	H	0.217110	1.022859	0.129266
H184	H	0.233469	1.088266	0.260634
H185	H	1.154563	0.381292	-0.013225
C186	C	0.231320	1.137371	0.347293
C187	C	0.209289	1.181686	0.309250
C188	C	0.131526	1.212454	0.300107
C189	C	0.075795	1.198907	0.329008
C190	C	0.097824	1.154591	0.367054
C191	C	0.175587	1.123823	0.376196
H192	H	0.250546	1.191716	0.287854
H193	H	0.115219	1.245260	0.271943
H194	H	0.018230	1.221684	0.322240
H195	H	0.056567	1.144561	0.388450
H196	H	0.191895	1.091017	0.404360
C197	C	0.630384	0.027751	-0.019715
C198	C	0.627630	-0.046217	-0.022441
C199	C	0.582676	-0.086599	-0.066113
C200	C	0.540476	-0.053011	-0.107059
C201	C	0.543228	0.020961	-0.104334
C202	C	0.588183	0.061342	-0.060663
H203	H	0.658871	-0.071084	0.007871
H204	H	0.580638	-0.141358	-0.068129
H205	H	0.507198	-0.082904	-0.139387
H206	H	0.511988	0.045828	-0.134646
H207	H	0.590220	0.116102	-0.058646
H208	H	0.251511	1.129407	0.115199
H209	H	0.685226	0.283943	-0.389442
C210	C	0.568672	0.876900	0.546591
C211	C	0.498293	0.940569	0.610678
C212	C	0.427906	1.004238	0.608377
C213	C	0.427897	1.004237	0.541990
C214	C	0.498279	0.940566	0.477899
C215	C	0.568666	0.876897	0.480200
H216	H	0.498297	0.940572	0.659826
H217	H	0.375805	1.051372	0.655822
H218	H	0.375792	1.051369	0.540287
H219	H	0.498275	0.940563	0.428751
H220	H	0.620767	0.829763	0.432755
H221	H	1.139040	0.319329	0.051139
C222	C	0.635730	1.168923	0.517865
C223	C	0.677862	1.163009	0.570797
C224	C	0.635675	1.196609	0.644349
C225	C	0.551356	1.236124	0.664968
C226	C	0.509219	1.242040	0.612035
C227	C	0.551406	1.208439	0.538483
H228	H	0.740284	1.133756	0.555534
H229	H	0.666867	1.192229	0.683534
H230	H	0.520127	1.260997	0.719416
H231	H	0.446797	1.271293	0.627297
H232	H	0.520214	1.212819	0.499298
C233	C	1.008386	0.360292	-0.406913
C234	C	1.076774	0.291907	-0.473269
C235	C	1.067402	0.254280	-0.548770
C236	C	0.989644	0.285038	-0.557914
C237	C	0.921251	0.353427	-0.491556
C238	C	0.930622	0.391054	-0.416055
H239	H	1.134341	0.269135	-0.466502
H240	H	1.118032	0.203654	-0.597892
H241	H	0.982706	0.257184	-0.613804
H242	H	0.863684	0.376199	-0.498323
H243	H	0.879993	0.441680	-0.366933
H244	H	1.041804	0.494057	-0.013285
C245	C	0.770375	0.341801	-0.415898
C246	C	0.854692	0.302305	-0.436493
C247	C	0.896892	0.268750	-0.510022
C248	C	0.854775	0.274691	-0.562955
C249	C	0.770453	0.314188	-0.542361
C250	C	0.728253	0.347743	-0.468833
H251	H	0.885874	0.297906	-0.397308
H252	H	0.959313	0.239512	-0.525267
H253	H	0.886014	0.249852	-0.617385
H254	H	0.739271	0.318588	-0.581547
H255	H	0.665832	0.376982	-0.453588
H256	H	0.720892	1.226734	0.491350
H257	H	0.615641	0.339284	-0.268164
H258	H	0.364270	1.016618	0.115236
H259	H	0.646604	0.160230	-0.003889
H260	H	0.615720	0.339228	-0.033722
H261	H	0.819134	0.650313	0.554763
C262	C	0.609288	0.469917	-0.135138
C263	C	0.564318	0.429542	-0.130684
C264	C	0.522132	0.463082	-0.057156
C265	C	0.524916	0.536997	0.011919
C266	C	0.569888	0.577377	0.007467
C267	C	0.612075	0.543836	-0.066061
H268	H	0.562255	0.374821	-0.181819
H269	H	0.488841	0.433190	-0.053861
H270	H	0.493688	0.561826	0.066349
H271	H	0.571951	0.632097	0.058603
H272	H	0.645366	0.573728	-0.069356
H273	H	0.759486	0.350428	0.105827
H274	H	0.790361	0.171441	0.135664
C275	C	0.779706	0.588982	0.220740
C276	C	0.779708	0.588978	0.154352
C277	C	0.819867	0.501835	0.078876
C278	C	0.860024	0.414695	0.069787
C279	C	0.860023	0.414695	0.136178
C280	C	0.819864	0.501838	0.211654
H281	H	0.749981	0.653488	0.161078
H282	H	0.819868	0.501836	0.029729
H283	H	0.889752	0.350186	0.013915
H284	H	0.889750	0.350186	0.129452
H285	H	0.819863	0.501838	0.260801
C286	C	0.221978	0.890179	0.116378
C287	C	0.200743	0.956258	0.198211
C288	C	0.125003	1.040638	0.239124
C289	C	0.070498	1.058939	0.198203
C290	C	0.091732	0.992858	0.116365
C291	C	0.167472	0.908478	0.075452
H292	H	0.241092	0.942713	0.228507
H293	H	0.109284	1.089556	0.299706
H294	H	0.014431	1.121402	0.228490
H295	H	0.051383	1.006404	0.086069
H296	H	0.183191	0.859560	0.014870
H297	H	0.754540	0.270726	0.100976
H298	H	0.898032	0.482839	-0.277852
H299	H	0.267035	1.191378	0.050842
H300	H	0.359023	0.877416	0.110190
H301	H	1.139088	0.319309	-0.372235
H302	H	1.041778	0.494076	-0.138275
H303	H	0.031937	0.929863	0.135662
H304	H	-0.085442	0.920704	0.131205
H305	H	0.047050	0.633251	-0.008253
H306	H	0.164421	0.642406	-0.003797
H307	H	0.239129	0.652350	0.001009
H308	H	0.819134	0.650328	0.445282
H309	H	0.374132	0.580810	-0.033694
H310	H	0.266987	1.191404	0.474185
H311	H	0.491515	0.589961	-0.029264
H312	H	0.785828	1.049444	0.256164
H313	H	0.636821	0.899061	0.861606
H314	H	0.508069	1.027785	-0.013444
H315	H	0.636813	0.899063	0.752117
H316	H	0.586963	0.860362	0.656680
H317	H	0.636810	0.899076	0.489316
H318	H	0.636799	0.899077	0.379827
H319	H	0.790458	1.171346	0.370043
H320	H	0.769274	0.611612	0.612637
C321	C	0.779712	0.588981	0.347476
C322	C	0.863208	0.527788	0.309484
C323	C	0.903374	0.440639	0.300387
C324	C	0.860044	0.414683	0.329282
C325	C	0.776544	0.475877	0.367276
C326	C	0.736377	0.563026	0.376373
H327	H	0.895287	0.547001	0.288092
H328	H	0.965187	0.395340	0.272261
H329	H	0.889778	0.350170	0.322548
H330	H	0.744464	0.456664	0.388668
H331	H	0.674565	0.608325	0.404499
H332	H	0.769274	0.611599	0.722126
H333	H	0.898005	0.482897	0.115401
H334	H	0.642058	1.038274	0.384868
