data_functionalizedCrystal
_audit_creation_method	'MofGen! by Chris Wilmer'
_symmetry_space_group_name_H-M	'P1'
_symmetry_Int_Tables_number	1
_symmetry_cell_setting	triclinic
loop_
_symmetry_equiv_pos_as_xyz
  x,y,z
_cell_length_a	12.594516
_cell_length_b	19.077142
_cell_length_c	19.076919
_cell_angle_alpha	89.925643
_cell_angle_beta	92.277239
_cell_angle_gamma	92.288207
loop_
_atom_site_label
_atom_site_type_symbol
_atom_site_fract_x
_atom_site_fract_y
_atom_site_fract_z
Zn1	Zn	-0.514956	-1.058318	-0.440485
Zn2	Zn	-0.686095	-1.062974	-0.322990
Zn3	Zn	-0.500695	-0.945534	-0.318274
Zn4	Zn	-0.685450	-0.940795	-0.435738
O5	O	-0.596799	-1.001905	-0.379372
O6	O	-0.543896	-1.157267	-0.428860
O7	O	-0.655803	-1.051327	-0.224033
O8	O	-0.353644	-0.960530	-0.334499
O9	O	-0.669631	-1.160688	-0.342536
O10	O	-0.364121	-1.043391	-0.424287
O11	O	-0.519590	-0.965045	-0.220568
O12	O	-0.518965	-0.846573	-0.329896
O13	O	-0.668532	-0.952453	-0.534699
O14	O	-0.654704	-0.843092	-0.416196
O15	O	-0.543271	-1.038796	-0.538187
O16	O	-0.834952	-1.046732	-0.337932
O17	O	-0.834478	-0.956968	-0.420768
C18	C	-0.585217	-0.819336	-0.372019
C19	C	-0.580289	-0.741232	-0.368891
C20	C	-0.648745	-0.702747	-0.412282
C21	C	-0.644100	-0.629359	-0.409346
C22	C	-0.571005	-0.594458	-0.363014
C23	C	-0.502543	-0.632948	-0.319621
C24	C	-0.507182	-0.706334	-0.322561
C25	C	-0.549535	-0.375169	-0.349413
C26	C	-0.544902	-0.301777	-0.346474
C27	C	-0.686459	-0.298193	-0.436200
C28	C	-0.691097	-0.371581	-0.439134
C29	C	-0.622630	-0.410065	-0.395743
N30	N	-0.566259	-0.519444	-0.360010
N31	N	-0.627373	-0.485077	-0.398751
C32	C	-0.873337	-1.001859	-0.379363
C33	C	-0.991646	-1.001903	-0.379385
C34	C	-1.060678	-0.953077	-0.424407
C35	C	-1.126712	-0.938537	-0.359601
C36	C	-1.136416	-1.016508	-0.444205
C37	C	-1.056118	-0.987330	-0.314544
C38	C	-1.065820	-1.065329	-0.399193
C39	C	-1.131821	-1.050814	-0.334344
C40	C	-0.319184	-1.001970	-0.379397
C41	C	-0.200880	-1.001997	-0.379407
C42	C	-0.607420	-0.994577	-0.562652
C43	C	-0.611947	-0.991454	-0.640756
C44	C	-0.608420	-0.185188	-0.386745
C45	C	-0.613357	-0.263292	-0.389866
C46	C	-0.548859	-1.034939	-0.679266
C47	C	-0.553108	-1.031996	-0.752652
C48	C	-0.620450	-0.985571	-0.787526
C49	C	-0.683539	-0.942082	-0.749011
C50	C	-0.679285	-0.945021	-0.675626
C51	C	-0.640162	-0.971955	-1.006808
C52	C	-0.644414	-0.969020	-1.080198
C53	C	-0.513981	-1.058933	-1.083834
C54	C	-0.509737	-1.061872	-1.010448
C55	C	-0.572822	-1.018380	-0.971939
N56	N	-0.624796	-0.982563	-0.862539
N57	N	-0.568469	-1.021385	-0.896928
C58	C	-0.586144	-1.009246	-0.196806
C59	C	-0.581327	-1.012505	-0.118708
H60	H	-0.451433	-0.737668	-0.287231
O61	O	-1.168919	-1.100197	-0.288983
C62	C	-1.235704	-1.149715	-0.325934
H63	H	-1.215207	-1.149470	-0.383606
H64	H	-1.322192	-1.135550	-0.321086
C65	C	-1.244684	-1.223573	-0.224107
C66	C	-1.219504	-1.223276	-0.294939
H67	H	-1.234696	-1.268948	-0.204987
H68	H	-1.199693	-1.190210	-0.199211
H69	H	-1.316757	-1.211765	-0.220076
H70	H	-1.147429	-1.235074	-0.298968
H71	H	-1.264482	-1.256642	-0.319835
H72	H	-0.485367	-0.273363	-0.308749
O73	O	-1.033733	-1.129223	-0.419314
C74	C	-1.074761	-1.144374	-0.487699
H75	H	-1.093304	-1.093354	-0.515970
H76	H	-1.150660	-1.178678	-0.484673
C77	C	-0.969223	-1.246171	-0.493574
C78	C	-0.991991	-1.183506	-0.528299
H79	H	-0.918170	-1.270312	-0.518618
H80	H	-0.941585	-1.235966	-0.447501
H81	H	-1.032480	-1.274749	-0.491055
H82	H	-0.928738	-1.154926	-0.530810
H83	H	-1.019617	-1.193708	-0.574374
H84	H	-1.029441	-0.911718	-0.462419
H85	H	-1.171527	-1.028822	-0.499013
H86	H	-1.153649	-0.884942	-0.342864
O87	O	-0.709856	-0.923857	-1.113965
C88	C	-0.764645	-0.886112	-1.064242
H89	H	-0.717862	-0.885780	-1.011836
H90	H	-0.846662	-0.912135	-1.057465
C91	C	-0.834354	-0.810584	-1.154237
C92	C	-0.776891	-0.810172	-1.089873
H93	H	-0.841914	-0.763742	-1.170048
H94	H	-0.797446	-0.836015	-1.187737
H95	H	-0.902696	-0.832274	-1.148580
H96	H	-0.708547	-0.788491	-1.095532
H97	H	-0.813789	-0.784735	-1.056374
O98	O	-0.749101	-0.897022	-0.782811
C99	C	-0.855119	-0.913083	-0.765500
H100	H	-0.855949	-0.942227	-0.713306
H101	H	-0.895655	-0.947548	-0.808254
C102	C	-0.914028	-0.808904	-0.823446
C103	C	-0.915047	-0.844695	-0.759338
H104	H	-0.950997	-0.766720	-0.819647
H105	H	-0.842602	-0.798085	-0.835111
H106	H	-0.947806	-0.837633	-0.859068
H107	H	-0.881258	-0.815970	-0.723719
H108	H	-0.986469	-0.855508	-0.747666
O109	O	-1.014509	-0.972464	-0.249127
C110	C	-1.046229	-0.905837	-0.228274
H111	H	-1.122009	-0.892189	-0.259110
H112	H	-0.980534	-0.864845	-0.239036
C113	C	-0.974183	-0.923629	-0.111428
C114	C	-1.067262	-0.906869	-0.149298
H115	H	-0.987152	-0.924263	-0.062711
H116	H	-0.952808	-0.968515	-0.125477
H117	H	-0.919446	-0.889466	-0.120404
H118	H	-1.121993	-0.941036	-0.140328
H119	H	-1.088646	-0.861988	-0.135245
H120	H	-0.750621	-0.399992	-0.476860
O121	O	-0.701281	-0.929640	-0.969365
C122	C	-0.635335	-0.885985	-0.925082
H123	H	-0.552517	-0.880779	-0.947037
H124	H	-0.629814	-0.909941	-0.870343
C125	C	-0.784347	-0.819362	-0.894031
C126	C	-0.682631	-0.812963	-0.920999
H127	H	-0.813523	-0.774320	-0.891509
H128	H	-0.828777	-0.848775	-0.923863
H129	H	-0.779733	-0.839329	-0.848417
H130	H	-0.687249	-0.793005	-0.966615
H131	H	-0.638202	-0.783545	-0.891175
H132	H	-0.699845	-0.598027	-0.444679
H133	H	-0.493792	-0.406494	-0.314076
O134	O	-0.444214	-1.106858	-0.976505
C135	C	-0.370457	-1.068543	-0.932481
H136	H	-0.404014	-1.015736	-0.919323
H137	H	-0.292755	-1.059678	-0.960482
C138	C	-0.308302	-1.174854	-0.880502
C139	C	-0.349522	-1.109998	-0.864336
H140	H	-0.295384	-1.200426	-0.838468
H141	H	-0.357991	-1.200668	-0.910164
H142	H	-0.243556	-1.167458	-0.903837
H143	H	-0.414273	-1.117395	-0.841010
H144	H	-0.299843	-1.084186	-0.834669
H145	H	-0.501738	-1.067407	-0.784004
O146	O	-0.431627	-0.598938	-0.274636
C147	C	-0.442190	-0.525912	-0.281356
H148	H	-0.525082	-0.514964	-0.303872
H149	H	-0.380006	-0.503605	-0.318016
C150	C	-0.323945	-0.504509	-0.181106
C151	C	-0.425758	-0.491063	-0.208755
H152	H	-0.313805	-0.483011	-0.136324
H153	H	-0.316825	-0.553708	-0.176580
H154	H	-0.272137	-0.485920	-0.211663
H155	H	-0.477564	-0.509659	-0.178203
H156	H	-0.432887	-0.441866	-0.213275
H157	H	-0.742199	-0.266852	-0.471527
H158	H	-0.708270	-0.731158	-0.450008
H159	H	-0.494026	-1.072745	-0.650876
O160	O	-0.452541	-1.101142	-1.121163
C161	C	-0.344447	-1.086513	-1.102632
H162	H	-0.337443	-1.061635	-1.048261
H163	H	-0.308700	-1.048739	-1.142480
C164	C	-0.292723	-1.185721	-1.168789
C165	C	-0.284119	-1.155171	-1.102007
H166	H	-0.255507	-1.228071	-1.168406
H167	H	-0.365547	-1.195576	-1.181277
H168	H	-0.262935	-1.154236	-1.201989
H169	H	-0.313919	-1.186652	-1.068811
H170	H	-0.211298	-1.145322	-1.089514
O171	O	-0.740625	-0.902886	-0.638138
C172	C	-0.809459	-0.944582	-0.597310
H173	H	-0.774659	-0.998283	-0.588474
H174	H	-0.890467	-0.951150	-0.625892
C175	C	-0.864971	-0.842757	-0.536887
C176	C	-0.822224	-0.908712	-0.526031
H177	H	-0.872850	-0.820630	-0.492920
H178	H	-0.818599	-0.814665	-0.564396
H179	H	-0.932473	-0.848239	-0.560708
H180	H	-0.754718	-0.903228	-0.502219
H181	H	-0.868585	-0.936802	-0.498516
