data_functionalizedCrystal
_audit_creation_method	'MofGen! by Chris Wilmer'
_symmetry_space_group_name_H-M	'P1'
_symmetry_Int_Tables_number	1
_symmetry_cell_setting	triclinic
loop_
_symmetry_equiv_pos_as_xyz
  x,y,z
_cell_length_a	17.699083
_cell_length_b	9.565339
_cell_length_c	17.699083
_cell_angle_alpha	89.999342
_cell_angle_beta	96.716985
_cell_angle_gamma	89.997515
loop_
_atom_site_label
_atom_site_type_symbol
_atom_site_fract_x
_atom_site_fract_y
_atom_site_fract_z
O1	O	1.004075	0.116067	-0.095706
O2	O	1.504075	0.616067	0.404294
O3	O	0.783697	0.116113	-0.108158
O4	O	1.283697	0.616113	0.391842
O5	O	0.900112	0.116076	0.008257
O6	O	1.400112	0.616076	0.508257
O7	O	0.887660	0.116103	-0.212121
O8	O	1.387660	0.616103	0.287879
O9	O	0.900103	-0.116444	0.008250
O10	O	1.400103	0.383556	0.508250
O11	O	0.783688	-0.116407	-0.108166
O12	O	1.283688	0.383593	0.391834
O13	O	1.004066	-0.116453	-0.095713
O14	O	1.504066	0.383547	0.404287
Zn15	Zn	0.893876	-0.153348	-0.101940
Zn16	Zn	1.393876	0.346652	0.398060
Zn17	Zn	0.893888	0.153007	-0.101931
Zn18	Zn	1.393888	0.653007	0.398069
O19	O	0.887651	-0.116417	-0.212128
O20	O	1.387651	0.383583	0.287872
C21	C	0.755495	-0.000141	-0.107716
C22	C	1.255495	0.499859	0.392284
C23	C	0.671477	-0.000124	-0.106377
C24	C	1.171477	0.499876	0.393623
N25	N	0.893873	-0.362427	-0.101946
N26	N	1.393873	0.137573	0.398054
C27	C	0.622856	-0.000116	-0.174710
C28	C	1.122856	0.499884	0.325290
C29	C	0.543913	-0.000134	-0.173448
C30	C	1.043913	0.499866	0.326552
C31	C	0.513592	-0.000151	-0.103852
C32	C	1.013592	0.499849	0.396148
C33	C	0.562219	-0.000163	-0.035513
C34	C	1.062219	0.499837	0.464487
C35	C	0.641161	-0.000155	-0.036776
C36	C	1.141161	0.499845	0.463224
C37	C	0.243856	-0.000198	-0.030418
C38	C	0.743856	0.499802	0.469582
C39	C	0.164908	-0.000202	-0.029160
C40	C	0.664908	0.499798	0.470840
C41	C	0.146608	-0.000178	-0.167090
C42	C	0.646608	0.499822	0.332910
C43	C	0.225550	-0.000170	-0.168353
C44	C	0.725550	0.499830	0.331647
C45	C	0.274170	-0.000189	-0.100015
C46	C	0.774170	0.499811	0.399985
C47	C	0.359769	-0.000172	-0.101384
C48	C	0.859769	0.499828	0.398616
C49	C	0.427995	-0.000158	-0.102481
C50	C	0.927995	0.499842	0.397519
C51	C	0.840018	-0.453613	-0.155767
C52	C	1.340018	0.046387	0.344233
C53	C	0.908386	-0.546805	-0.170327
C54	C	1.408386	-0.046805	0.329673
C55	C	0.825535	-0.546791	-0.087392
C56	C	1.325535	-0.046791	0.412608
C57	C	0.962274	-0.453567	-0.116541
C58	C	1.462274	0.046433	0.383459
C59	C	0.879379	-0.453545	-0.033576
C60	C	1.379379	0.046455	0.466424
C61	C	0.947796	-0.546694	-0.048107
C62	C	1.447796	-0.046694	0.451893
C63	C	1.032268	-0.000196	-0.096156
C64	C	1.532268	0.499804	0.403844
C65	C	1.116286	-0.000204	-0.097494
C66	C	1.616286	0.499796	0.402506
C67	C	0.899662	-0.000184	0.036451
C68	C	1.399662	0.499816	0.536451
C69	C	0.898323	-0.000184	0.120469
C70	C	1.398323	0.499816	0.620469
N71	N	0.893896	0.362087	-0.101919
N72	N	1.393896	0.862087	0.398081
C73	C	0.888102	-0.000153	-0.240322
C74	C	1.388102	0.499847	0.259678
C75	C	0.889440	-0.000144	-0.324340
C76	C	1.389440	0.499856	0.175660
C77	C	0.966656	-0.000201	0.169090
C78	C	1.466656	0.499799	0.669090
C79	C	0.965394	-0.000188	0.248033
C80	C	1.465394	0.499812	0.748033
C81	C	0.895798	-0.000169	0.278354
C82	C	1.395798	0.499831	0.778354
C83	C	0.827459	-0.000149	0.229727
C84	C	1.327459	0.499851	0.729727
C85	C	0.828722	-0.000151	0.150785
C86	C	1.328722	0.499849	0.650785
C87	C	0.822364	-0.000136	0.548090
C88	C	1.322364	0.499864	1.048090
C89	C	0.821106	-0.000138	0.627038
C90	C	1.321106	0.499862	1.127038
C91	C	0.959036	-0.000173	0.645338
C92	C	1.459036	0.499827	1.145338
C93	C	0.960299	-0.000175	0.566396
C94	C	1.460299	0.499825	1.066396
C95	C	0.891961	-0.000148	0.517776
C96	C	1.391961	0.499852	1.017776
C97	C	0.893330	-0.000159	0.432177
C98	C	1.393330	0.499841	0.932177
C99	C	0.894427	-0.000168	0.363951
C100	C	1.394427	0.499832	0.863951
H101	H	0.647537	-0.000102	-0.231384
H102	H	1.147537	0.499898	0.268616
N103	N	0.752562	-0.000151	0.498430
N104	N	1.252562	0.499849	0.998430
N105	N	0.737877	-0.098166	0.452340
N106	N	1.237877	0.401834	0.952340
H107	H	0.688577	-0.098181	0.417263
H108	H	1.188577	0.401819	0.917263
N109	N	0.494241	-0.000118	-0.243245
N110	N	0.994241	0.499882	0.256755
N111	N	0.448135	0.097879	-0.257927
N112	N	0.948135	0.597879	0.242073
H113	H	0.413051	0.097882	-0.307222
H114	H	0.913051	0.597882	0.192778
H115	H	1.023330	-0.000225	0.144409
H116	H	1.523330	0.499775	0.644409
N117	N	0.863964	-0.402127	0.038926
N118	N	1.363964	0.097873	0.538926
N119	N	0.852392	-0.485912	0.090537
N120	N	1.352392	0.014088	0.590537
H121	H	0.841499	-0.449598	0.141743
H122	H	1.341499	0.050402	0.641743
N123	N	1.005003	-0.597685	0.008996
N124	N	1.505003	-0.097685	0.508996
N125	N	1.013963	-0.726351	0.018604
N126	N	1.513963	-0.226351	0.518604
H127	H	1.054368	-0.762371	0.058928
H128	H	1.554368	-0.262371	0.558928
N129	N	0.256519	-0.000187	-0.239445
N130	N	0.756519	0.499813	0.260555
N131	N	0.298529	-0.098203	-0.255537
N132	N	0.798529	0.401797	0.244463
H133	H	0.320400	-0.098224	-0.305747
H134	H	0.820400	0.401776	0.194253
H135	H	1.020089	-0.412789	-0.128909
H136	H	1.520089	0.087211	0.371091
H137	H	0.794517	-0.412744	-0.201323
H138	H	1.294517	0.087256	0.298677
H139	H	0.767734	-0.587745	-0.075094
H140	H	1.267734	-0.087745	0.424906
H141	H	0.283434	-0.000215	0.025228
H142	H	0.783434	0.499785	0.525228
H143	H	1.021038	-0.000204	0.287618
H144	H	1.521038	0.499796	0.787618
H145	H	0.920661	-0.587768	-0.228135
H146	H	1.420661	-0.087768	0.271865
H147	H	0.140225	-0.000217	0.027517
H148	H	0.640225	0.499783	0.527517
N149	N	0.096942	-0.000205	-0.236898
N150	N	0.596942	0.499795	0.263102
N151	N	0.099640	-0.098212	-0.283219
N152	N	0.599640	0.401788	0.216781
H153	H	0.064565	-0.098231	-0.332520
H154	H	0.564565	0.401769	0.167480
H155	H	1.016971	-0.000198	0.541714
H156	H	1.516971	0.499802	1.041714
N157	N	1.028851	-0.000172	0.694993
N158	N	1.528851	0.499828	1.194993
N159	N	1.090985	-0.000191	0.667909
N160	N	1.590985	0.499809	1.167909
H161	H	1.140291	-0.000194	0.702976
H162	H	1.640291	0.499806	1.202976
H163	H	0.764429	-0.000125	0.651721
H164	H	1.264429	0.499875	1.151721
N165	N	0.531238	-0.000194	0.035572
N166	N	1.031238	0.499806	0.535572
N167	N	0.460754	-0.000200	0.036692
N168	N	0.960754	0.499800	0.536692
H169	H	0.438873	-0.000219	0.086897
H170	H	0.938873	0.499781	0.586897
N171	N	0.756374	-0.000112	0.260708
N172	N	1.256374	0.499888	0.760708
N173	N	0.755254	-0.000110	0.331192
N174	N	1.255254	0.499890	0.831192
H175	H	0.705049	-0.000086	0.353073
H176	H	1.205049	0.499914	0.853073
N177	N	0.690818	-0.000178	0.033032
N178	N	1.190818	0.499822	0.533032
N179	N	0.663739	-0.000199	0.095167
N180	N	1.163739	0.499801	0.595167
H181	H	0.698808	-0.000225	0.144472
H182	H	1.198808	0.499775	0.644472
N183	N	0.758922	-0.000104	0.101115
N184	N	1.258922	0.499896	0.601115
N185	N	0.712613	0.097929	0.103804
N186	N	1.212613	0.597929	0.603804
H187	H	0.663315	0.097973	0.068724
H188	H	1.163315	0.597973	0.568724
