data_functionalizedCrystal
_audit_creation_method	'MofGen! by Chris Wilmer'
_symmetry_space_group_name_H-M	'P1'
_symmetry_Int_Tables_number	1
_symmetry_cell_setting	triclinic
loop_
_symmetry_equiv_pos_as_xyz
  x,y,z
_cell_length_a	19.077236
_cell_length_b	19.077068
_cell_length_c	19.076919
_cell_angle_alpha	94.470751
_cell_angle_beta	90.112677
_cell_angle_gamma	85.291395
loop_
_atom_site_label
_atom_site_type_symbol
_atom_site_fract_x
_atom_site_fract_y
_atom_site_fract_z
Zn1	Zn	-1.047584	-0.256314	-0.450390
Zn2	Zn	-0.714251	0.077019	-0.117057
Zn3	Zn	-0.380917	0.410352	0.216276
Zn4	Zn	-1.047497	-0.369471	-0.337231
Zn5	Zn	-0.714163	-0.036138	-0.003898
Zn6	Zn	-0.380830	0.297196	0.329435
Zn7	Zn	-0.934815	-0.255944	-0.328156
Zn8	Zn	-0.601482	0.077389	0.005177
Zn9	Zn	-0.268148	0.410723	0.338511
Zn10	Zn	-0.924923	-0.378891	-0.450332
Zn11	Zn	-0.591589	-0.045558	-0.116998
Zn12	Zn	-0.258256	0.287776	0.216335
O13	O	-0.988705	-0.315155	-0.391527
O14	O	-0.655371	0.018178	-0.058194
O15	O	-0.322038	0.351511	0.275139
O16	O	-1.146064	-0.267537	-0.439202
O17	O	-0.812731	0.065796	-0.105869
O18	O	-0.479398	0.399129	0.227465
O19	O	-1.036653	-0.350314	-0.237539
O20	O	-0.703320	-0.016981	0.095794
O21	O	-0.369986	0.316352	0.429127
O22	O	-0.953950	-0.157183	-0.340597
O23	O	-0.620617	0.176150	-0.007264
O24	O	-0.287284	0.509484	0.326070
O25	O	-1.146000	-0.350673	-0.356065
O26	O	-0.812667	-0.017340	-0.022731
O27	O	-0.479334	0.315993	0.310602
O28	O	-1.036801	-0.157455	-0.430402
O29	O	-0.703468	0.175878	-0.097069
O30	O	-0.370135	0.509212	0.236265
O31	O	-0.953866	-0.266906	-0.230872
O32	O	-0.620533	0.066427	0.102462
O33	O	-0.287199	0.399760	0.435795
O34	O	-0.835011	-0.276041	-0.340540
O35	O	-0.501677	0.057293	-0.007207
O36	O	-0.168344	0.390626	0.326126
O37	O	-0.937090	-0.366728	-0.548828
O38	O	-0.603757	-0.033395	-0.215494
O39	O	-0.270424	0.299938	0.117839
O40	O	-0.827743	-0.366369	-0.430302
O41	O	-0.494410	-0.033036	-0.096969
O42	O	-0.161076	0.300297	0.236365
O43	O	-1.027209	-0.276672	-0.548871
O44	O	-0.693876	0.056662	-0.215537
O45	O	-0.360542	0.389995	0.117796
O46	O	-1.027061	-0.469531	-0.356008
O47	O	-0.693727	-0.136198	-0.022675
O48	O	-0.360394	0.197136	0.310659
O49	O	-0.937006	-0.476452	-0.439102
O50	O	-0.603673	-0.143118	-0.105769
O51	O	-0.270339	0.190215	0.227565
C52	C	-0.805839	-0.322188	-0.384430
C53	C	-0.472506	0.011146	-0.051097
C54	C	-0.139172	0.344479	0.282236
C55	C	-0.727607	-0.325214	-0.381412
C56	C	-0.394273	0.008120	-0.048078
C57	C	-0.060940	0.341453	0.285255
C58	C	-0.980969	-0.498612	-0.398550
C59	C	-0.647635	-0.165278	-0.065216
C60	C	-0.314302	0.168055	0.268117
C61	C	-0.977723	-0.577094	-0.401580
C62	C	-0.644390	-0.243760	-0.068246
C63	C	-0.311056	0.089573	0.265087
C64	C	-1.172284	-0.308096	-0.398652
C65	C	-0.838951	0.025237	-0.065319
C66	C	-0.505618	0.358571	0.268014
C67	C	-1.250515	-0.305088	-0.401689
C68	C	-0.917182	0.028246	-0.068355
C69	C	-0.583848	0.361579	0.264978
C70	C	-0.981056	-0.322792	-0.575100
C71	C	-0.647723	0.010541	-0.241767
C72	C	-0.314389	0.343875	0.091567
C73	C	-0.977797	-0.326047	-0.653328
C74	C	-0.644463	0.007287	-0.319994
C75	C	-0.311130	0.340620	0.013339
C76	C	-0.690881	-0.283426	-0.423350
C77	C	-0.357548	0.049908	-0.090017
C78	C	-0.024215	0.383241	0.243317
C79	C	-0.617374	-0.286266	-0.420507
C80	C	-0.284041	0.047068	-0.087174
C81	C	0.049292	0.380401	0.246159
C82	C	-0.580594	-0.330898	-0.375730
C83	C	-0.247260	0.002436	-0.042396
C84	C	0.086073	0.335769	0.290937
C85	C	-0.617325	-0.372687	-0.333787
C86	C	-0.283991	-0.039354	-0.000453
C87	C	0.049342	0.293979	0.332880
C88	C	-0.690831	-0.369843	-0.336626
C89	C	-0.357497	-0.036510	-0.003293
C90	C	-0.024164	0.296823	0.330041
C91	C	-0.360752	-0.344033	-0.362585
C92	C	-0.027418	-0.010700	-0.029252
C93	C	0.305915	0.322633	0.304082
C94	C	-0.287240	-0.346876	-0.359750
C95	C	0.046093	-0.013542	-0.026417
C96	C	0.379426	0.319791	0.306916
C97	C	-0.287295	-0.260453	-0.446471
C98	C	0.046038	0.072881	-0.113137
C99	C	0.379371	0.406214	0.220196
C100	C	-0.360802	-0.257616	-0.449309
C101	C	-0.027469	0.075718	-0.115976
C102	C	0.305864	0.409051	0.217358
C103	C	-0.397527	-0.299403	-0.407363
C104	C	-0.064194	0.033931	-0.074030
C105	C	0.269140	0.367264	0.259303
N106	N	-0.505458	-0.333803	-0.372825
N107	N	-0.172124	-0.000470	-0.039491
N108	N	0.161209	0.332864	0.293842
N109	N	-0.472662	-0.296493	-0.410265
N110	N	-0.139329	0.036840	-0.076932
N111	N	0.194005	0.370174	0.256402
C112	C	-1.023118	-0.610338	-0.359779
C113	C	-0.689785	-0.277005	-0.026446
C114	C	-0.356451	0.056329	0.306887
C115	C	-1.020069	-0.684080	-0.362634
C116	C	-0.686736	-0.350747	-0.029300
C117	C	-0.353402	-0.017414	0.304033
C118	C	-0.971621	-0.724577	-0.407285
C119	C	-0.638288	-0.391244	-0.073952
C120	C	-0.304954	-0.057910	0.259382
C121	C	-0.926224	-0.691328	-0.449090
C122	C	-0.592891	-0.357994	-0.115757
C123	C	-0.259557	-0.024661	0.217576
C124	C	-0.929277	-0.617587	-0.446239
C125	C	-0.595943	-0.284253	-0.112906
C126	C	-0.262610	0.049080	0.220428
C127	C	-0.957462	-0.945508	-0.420451
C128	C	-0.624129	-0.612175	-0.087117
C129	C	-0.290795	-0.278842	0.246216
C130	C	-0.954411	-1.019254	-0.423297
C131	C	-0.621078	-0.685921	-0.089964
C132	C	-0.287745	-0.352588	0.243370
C133	C	-1.048258	-1.012002	-0.336841
C134	C	-0.714924	-0.678669	-0.003508
C135	C	-0.381591	-0.345335	0.329826
C136	C	-1.051303	-0.938260	-0.333991
C137	C	-0.717970	-0.604927	-0.000657
C138	C	-0.384637	-0.271593	0.332676
C139	C	-1.005909	-0.905017	-0.375798
C140	C	-0.672575	-0.571684	-0.042465
C141	C	-0.339242	-0.238350	0.290868
N142	N	-0.968502	-0.799954	-0.410202
N143	N	-0.635168	-0.466620	-0.076869
N144	N	-0.301835	-0.133287	0.256465
N145	N	-1.009032	-0.829642	-0.372885
N146	N	-0.675699	-0.496308	-0.039551
N147	N	-0.342365	-0.162975	0.293782
C148	C	-0.996489	-0.130982	-0.384494
C149	C	-0.663156	0.202351	-0.051160
C150	C	-0.329822	0.535684	0.282173
C151	C	-0.999806	-0.052499	-0.381497
C152	C	-0.666473	0.280835	-0.048163
C153	C	-0.333140	0.614168	0.285170
C154	C	-1.023183	-0.280690	-0.690103
C155	C	-0.689850	0.052643	-0.356770
C156	C	-0.356516	0.385977	-0.023436
C157	C	-1.020112	-0.283745	-0.763606
C158	C	-0.686779	0.049588	-0.430272
C159	C	-0.353445	0.382921	-0.096939
C160	C	-0.971657	-0.332161	-0.800332
C161	C	-0.638324	0.001172	-0.466999
C162	C	-0.304991	0.334505	-0.133666
C163	C	-0.926266	-0.377520	-0.763552
C164	C	-0.592933	-0.044187	-0.430219
C165	C	-0.259600	0.289147	-0.096885
C166	C	-0.929334	-0.374461	-0.690050
C167	C	-0.596001	-0.041127	-0.356717
C168	C	-0.262668	0.292206	-0.023384
C169	C	-0.957447	-0.346336	-1.020156
C170	C	-0.624114	-0.013003	-0.686823
C171	C	-0.290780	0.320331	-0.353490
C172	C	-0.954384	-0.349393	-1.093664
C173	C	-0.621050	-0.016060	-0.760330
C174	C	-0.287717	0.317273	-0.426997
C175	C	-1.048229	-0.255618	-1.093712
C176	C	-0.714896	0.077716	-0.760379
C177	C	-0.381562	0.411049	-0.427045
C178	C	-1.051296	-0.252565	-1.020209
C179	C	-0.717962	0.080768	-0.686876
C180	C	-0.384629	0.414101	-0.353542
C181	C	-1.005902	-0.297921	-0.983435
C182	C	-0.672569	0.035412	-0.650102
C183	C	-0.339235	0.368745	-0.316768
N184	N	-0.968519	-0.335287	-0.875464
N185	N	-0.635185	-0.001954	-0.542131
N186	N	-0.301852	0.331379	-0.208798
N187	N	-1.009038	-0.294792	-0.908304
N188	N	-0.675704	0.038542	-0.574971
N189	N	-0.342371	0.371875	-0.241638
C190	C	-0.996366	-0.307495	-0.208668
C191	C	-0.663033	0.025838	0.124665
C192	C	-0.329699	0.359171	0.457998
C193	C	-0.999770	-0.304037	-0.130439
C194	C	-0.666437	0.029296	0.202895
C195	C	-0.333103	0.362630	0.536228
H196	H	-0.720822	-0.247083	-0.459815
H197	H	-0.387489	0.086250	-0.126482
H198	H	-0.054156	0.419583	0.206852
Br199	Br	-1.117060	-0.186858	-0.970371
Br200	Br	-0.783727	0.146476	-0.637038
Br201	Br	-0.450393	0.479809	-0.303704
Br202	Br	-0.567535	-0.229551	-0.477427
Br203	Br	-0.234201	0.103782	-0.144094
Br204	Br	0.099132	0.437116	0.189240
Br205	Br	-0.410713	-0.197049	-0.510088
Br206	Br	-0.077380	0.136285	-0.176755
Br207	Br	0.255953	0.469618	0.156578
H208	H	-1.062642	-0.241266	-0.660206
H209	H	-0.729309	0.092067	-0.326872
H210	H	-0.395975	0.425400	0.006461
H211	H	-1.085185	-0.218691	-1.123662
H212	H	-0.751852	0.114643	-0.790328
H213	H	-0.418518	0.447976	-0.456995
Br214	Br	-0.867671	-0.572468	-0.502975
Br215	Br	-0.534338	-0.239135	-0.169642
Br216	Br	-0.201004	0.094199	0.163691
Br217	Br	-1.081742	-0.222219	-0.813515
Br218	Br	-0.748409	0.111115	-0.480182
Br219	Br	-0.415075	0.444448	-0.146848
H220	H	-0.720732	-0.403871	-0.302475
H221	H	-0.387398	-0.070538	0.030859
H222	H	-0.054065	0.262796	0.364192
H223	H	-1.085216	-1.039077	-0.302805
H224	H	-0.751883	-0.705743	0.030529
H225	H	-0.418549	-0.372410	0.363862
H226	H	-0.914967	-1.052225	-0.459670
H227	H	-0.581634	-0.718892	-0.126337
H228	H	-0.248300	-0.385559	0.206996
Br229	Br	-0.895855	-0.900402	-0.477190
Br230	Br	-0.562522	-0.567069	-0.143857
Br231	Br	-0.229189	-0.233735	0.189476
Br232	Br	-0.860502	-0.443224	-0.813394
Br233	Br	-0.527168	-0.109891	-0.480061
Br234	Br	-0.193835	0.223442	-0.146727
H235	H	-0.914924	-0.388821	-1.123564
H236	H	-0.581591	-0.055488	-0.790231
H237	H	-0.248257	0.277845	-0.456898
Br238	Br	-0.237451	-0.203745	-0.503393
Br239	Br	0.095882	0.129589	-0.170060
Br240	Br	0.429215	0.462922	0.163273
H241	H	-0.886779	-0.724306	-0.485450
H242	H	-0.553446	-0.390973	-0.152116
H243	H	-0.220113	-0.057639	0.181217
H244	H	-0.920494	-0.383278	-0.990225
H245	H	-0.587161	-0.049945	-0.656891
H246	H	-0.253828	0.283389	-0.323558
Br247	Br	-1.081684	-0.729195	-0.305906
Br248	Br	-0.748350	-0.395862	0.027427
Br249	Br	-0.415017	-0.062529	0.360760
Br250	Br	-0.237322	-0.407473	-0.298997
Br251	Br	0.096011	-0.074139	0.034336
Br252	Br	0.429344	0.259194	0.367670
Br253	Br	-1.117065	-0.883305	-0.273399
Br254	Br	-0.783732	-0.549972	0.059934
Br255	Br	-0.450399	-0.216638	0.393267
H256	H	-0.892369	-0.411388	-0.660108
H257	H	-0.559036	-0.078055	-0.326775
H258	H	-0.225702	0.255279	0.006558
Br259	Br	-0.567410	-0.433254	-0.273010
Br260	Br	-0.234076	-0.099921	0.060323
Br261	Br	0.099257	0.233412	0.393657
Br262	Br	-0.410585	-0.400725	-0.305639
Br263	Br	-0.077251	-0.067392	0.027694
Br264	Br	0.256082	0.265942	0.361028
H265	H	-1.062567	-0.577370	-0.323416
H266	H	-0.729233	-0.244037	0.009917
H267	H	-0.395900	0.089296	0.343251
