data_functionalizedCrystal
_audit_creation_method	'MofGen! by Chris Wilmer'
_symmetry_space_group_name_H-M	'P1'
_symmetry_Int_Tables_number	1
_symmetry_cell_setting	triclinic
loop_
_symmetry_equiv_pos_as_xyz
  x,y,z
_cell_length_a	23.532355
_cell_length_b	27.732048
_cell_length_c	22.010155
_cell_angle_alpha	89.999275
_cell_angle_beta	89.997414
_cell_angle_gamma	82.735077
loop_
_atom_site_label
_atom_site_type_symbol
_atom_site_fract_x
_atom_site_fract_y
_atom_site_fract_z
O1	O	0.755158	0.058552	-0.050449
O2	O	0.589272	0.067069	-0.050469
O3	O	0.677367	-0.007579	-0.050447
O4	O	0.667063	0.133200	-0.050471
O5	O	0.677351	-0.007568	0.050603
O6	O	0.589256	0.067080	0.050581
O7	O	0.755142	0.058564	0.050601
Cu8	Cu	0.672198	0.062823	0.059818
Cu9	Cu	0.672216	0.062810	-0.059686
O10	O	0.667047	0.133212	0.050579
C11	C	0.568048	0.066862	0.000053
C12	C	0.504831	0.066222	0.000046
C13	C	0.112817	0.062206	0.055155
C14	C	0.053419	0.061597	0.055157
O15	O	0.022693	0.061271	0.102002
N16	N	0.023720	0.061289	0.000075
C17	C	0.053422	0.061585	-0.055013
O18	O	0.022707	0.061267	-0.101865
C19	C	0.112820	0.062191	-0.055015
C20	C	0.142515	0.062504	0.000071
C21	C	0.142512	0.062519	0.110236
C22	C	0.201906	0.063129	0.110234
C23	C	0.231604	0.063426	0.055150
C24	C	0.201909	0.063114	0.000068
C25	C	0.142522	0.062483	-0.110103
C26	C	0.201924	0.063088	-0.110100
C27	C	0.231619	0.063401	-0.055014
C28	C	0.291001	0.064021	-0.055019
N29	N	0.320701	0.064329	0.000064
C30	C	0.291002	0.064031	0.055148
C31	C	-0.071316	0.060313	-0.055005
C32	C	-0.130713	0.059711	-0.055004
C33	C	-0.130713	0.059722	0.055167
C34	C	-0.071315	0.060328	0.055165
C35	C	-0.041617	0.060621	0.000077
C36	C	0.415733	0.065312	0.055138
C37	C	0.475132	0.065924	0.055130
C38	C	0.475127	0.065911	-0.055040
C39	C	0.415733	0.065301	-0.055033
C40	C	0.386038	0.065001	0.000061
O41	O	0.321765	0.064345	-0.101840
O42	O	0.321726	0.064343	0.101991
C43	C	0.677143	-0.025580	0.000080
C44	C	0.676491	-0.079236	0.000085
C45	C	0.724449	-0.417985	0.000059
C46	C	0.722033	-0.619648	0.000051
O47	O	0.765887	-0.650843	0.000029
N48	N	0.669796	-0.638844	0.000045
C49	C	0.618160	-0.607621	0.000037
O50	O	0.573674	-0.628575	0.000026
C51	C	0.620577	-0.405959	0.000042
C52	C	0.672817	-0.386766	0.000054
C53	C	0.776685	-0.398792	0.000071
C54	C	0.777289	-0.348379	0.000076
C55	C	0.725657	-0.317160	0.000070
C56	C	0.673421	-0.336353	0.000059
C57	C	0.568942	-0.374736	0.000030
C58	C	0.569551	-0.324318	0.000029
C59	C	0.621791	-0.305125	0.000041
C60	C	0.622392	-0.254721	0.000059
N61	N	0.674629	-0.235525	0.000065
C62	C	0.726261	-0.266744	0.000070
C63	C	0.616895	-0.713496	0.000036
C64	C	0.616290	-0.763912	0.000036
C65	C	0.720163	-0.775936	0.000048
C66	C	0.720767	-0.725520	0.000053
C67	C	0.669131	-0.694301	0.000042
C68	C	0.727525	-0.160873	0.000083
C69	C	0.728124	-0.110456	0.000091
C70	C	0.624251	-0.098436	0.000075
C71	C	0.623652	-0.148849	0.000070
C72	C	0.675293	-0.180067	0.000072
O73	O	0.578561	-0.223497	0.000073
O74	O	0.770740	-0.245780	0.000068
C75	C	0.723846	-0.468398	0.000054
C76	C	0.671610	-0.487591	0.000043
C77	C	0.619978	-0.456372	0.000037
C78	C	0.671006	-0.538007	0.000043
C79	C	0.722638	-0.569226	0.000048
C80	C	0.774875	-0.550030	0.000054
C81	C	0.775478	-0.499617	0.000060
C82	C	0.567741	-0.475568	0.000031
C83	C	0.567142	-0.525981	0.000026
C84	C	0.618774	-0.557200	0.000032
C85	C	0.776366	0.058771	0.000077
C86	C	0.839583	0.059411	0.000080
C87	C	0.667271	0.151213	0.000051
C88	C	0.667923	0.204869	0.000042
N89	N	0.672188	0.062832	0.143870
N90	N	0.672230	0.062797	-0.143738
C91	C	0.711227	0.029760	0.563660
C92	C	0.711230	0.029757	0.627267
O93	O	0.744399	0.001645	0.660167
N94	N	0.672216	0.062800	0.659078
C95	C	0.633194	0.095844	0.627277
O96	O	0.600009	0.123949	0.660175
C97	C	0.633189	0.095845	0.563670
C98	C	0.672209	0.062804	0.531863
C99	C	0.750243	-0.003279	0.531853
C100	C	0.750241	-0.003275	0.468249
C101	C	0.711223	0.029768	0.436453
C102	C	0.672206	0.062808	0.468260
C103	C	0.594164	0.128887	0.531871
C104	C	0.594162	0.128885	0.468260
C105	C	0.633182	0.095843	0.436453
C106	C	0.633186	0.095855	0.372861
N107	N	0.672199	0.062812	0.341051
C108	C	0.711218	0.029769	0.372847
C109	C	0.633206	0.095840	0.760855
C110	C	0.633213	0.095842	0.824460
C111	C	0.711249	0.029754	0.824446
C112	C	0.711244	0.029754	0.760840
C113	C	0.672220	0.062797	0.729044
C114	C	0.711211	0.029780	0.239275
C115	C	0.711207	0.029789	0.175667
C116	C	0.633170	0.095875	0.175686
C117	C	0.633175	0.095869	0.239289
C118	C	0.672198	0.062817	0.271083
O119	O	0.600032	0.123952	0.339921
O120	O	0.744392	0.001665	0.339941
H121	H	-0.154904	0.059479	0.100019
H122	H	0.818733	-0.424206	0.000073
Br123	Br	0.764203	-0.015091	0.867612
H124	H	0.816915	-0.575458	0.000062
Br125	Br	0.242198	0.063551	0.184997
Br126	Br	0.580265	0.140694	0.867619
H127	H	0.525695	-0.450153	0.000025
Br128	Br	0.545390	-0.789952	0.000034
H129	H	0.782017	-0.030189	0.557736
Br130	Br	0.552754	-0.174898	0.000068
H131	H	0.762204	-0.801363	0.000053
H132	H	0.226101	0.063328	-0.154960
Br133	Br	0.580226	0.140718	0.282454
H134	H	0.742984	0.002882	0.149771
H135	H	0.499307	0.066181	0.099990
Br136	Br	0.375443	0.064903	0.129909
Br137	Br	0.764171	-0.015076	0.282413
Br138	Br	0.546810	-0.671134	0.000020
H139	H	0.743017	0.002849	0.734946
H140	H	0.782013	-0.030181	0.442356
H141	H	-0.047141	0.060556	-0.099867
Br142	Br	0.580243	0.140691	0.717710
Br143	Br	0.102218	0.062117	0.185004
Br144	Br	-0.031021	0.060752	0.129927
Br145	Br	-0.171009	0.059298	-0.129766
H146	H	0.562382	0.155792	0.442376
Br147	Br	0.580219	0.140719	0.132524
Br148	Br	0.554182	-0.056058	0.000067
Br149	Br	0.799026	-0.084412	0.000107
H150	H	0.118355	0.062228	-0.154960
Br151	Br	0.375429	0.064886	-0.129793
H152	H	0.499318	0.066155	-0.099888
Br153	Br	0.797610	-0.203233	0.000084
H154	H	0.562390	0.155792	0.557759
Br155	Br	0.848190	-0.322340	0.000075
H156	H	0.763306	-0.709897	0.000062
H157	H	0.526402	-0.390354	0.000016
H158	H	0.527501	-0.298901	0.000020
Br159	Br	0.846379	-0.473578	0.000072
H160	H	0.524599	-0.541602	0.000022
