data_functionalizedCrystal
_audit_creation_method	'MofGen! by Chris Wilmer'
_symmetry_space_group_name_H-M	'P1'
_symmetry_Int_Tables_number	1
_symmetry_cell_setting	triclinic
loop_
_symmetry_equiv_pos_as_xyz
  x,y,z
_cell_length_a	8.634740
_cell_length_b	10.868271
_cell_length_c	8.597304
_cell_angle_alpha	97.705004
_cell_angle_beta	92.879752
_cell_angle_gamma	90.003825
loop_
_atom_site_label
_atom_site_type_symbol
_atom_site_fract_x
_atom_site_fract_y
_atom_site_fract_z
O1	O	2.053795	0.156687	0.512869
O2	O	1.604194	0.152130	0.469863
O3	O	1.837842	0.130327	0.264236
O4	O	1.820147	0.178490	0.718496
O5	O	1.837822	-0.074318	0.264224
O6	O	1.604175	-0.052516	0.469851
O7	O	2.053775	-0.047959	0.512857
Zn8	Zn	1.828972	-0.082729	0.491352
Zn9	Zn	1.828998	0.186901	0.491368
O10	O	1.820128	-0.026156	0.718483
C11	C	1.546587	0.048775	0.460114
C12	C	1.374966	0.045696	0.431066
N13	N	1.828965	-0.266744	0.491341
C14	C	1.828989	-0.517748	0.491363
C15	C	1.828971	-0.378071	0.491355
C16	C	2.111382	0.055400	0.522605
C17	C	2.283003	0.058486	0.551654
C18	C	1.835931	0.021777	0.205471
C19	C	1.830249	0.003222	0.030384
N20	N	1.829016	0.370915	0.491368
C21	C	1.822038	0.082397	0.777249
C22	C	1.827721	0.100960	0.952335
H23	H	1.335566	0.071777	0.677117
Cl24	Cl	1.293814	0.025154	0.237344
Cl25	Cl	1.831092	0.252087	0.055967
H26	H	1.828047	-0.094666	-0.036749
