data_functionalizedCrystal
_audit_creation_method	'MofGen! by Chris Wilmer'
_symmetry_space_group_name_H-M	'P1'
_symmetry_Int_Tables_number	1
_symmetry_cell_setting	triclinic
loop_
_symmetry_equiv_pos_as_xyz
  x,y,z
_cell_length_a	27.732025
_cell_length_b	27.732048
_cell_length_c	26.210047
_cell_angle_alpha	90.003465
_cell_angle_beta	90.019000
_cell_angle_gamma	97.361939
loop_
_atom_site_label
_atom_site_type_symbol
_atom_site_fract_x
_atom_site_fract_y
_atom_site_fract_z
O1	O	0.057511	-0.640926	-0.042348
O2	O	0.390844	-0.307593	0.290985
O3	O	0.724177	0.025740	0.624319
O4	O	0.066256	-0.500132	-0.042361
O5	O	0.399590	-0.166799	0.290972
O6	O	0.732923	0.166534	0.624306
O7	O	-0.008514	-0.574908	-0.042370
O8	O	0.324819	-0.241575	0.290964
O9	O	0.658153	0.091759	0.624297
O10	O	0.132281	-0.566151	-0.042339
O11	O	0.465614	-0.232818	0.290994
O12	O	0.798948	0.100516	0.624327
O13	O	-0.008502	-0.574893	0.042488
O14	O	0.324831	-0.241560	0.375822
O15	O	0.658164	0.091773	0.709155
O16	O	0.066268	-0.500118	0.042497
O17	O	0.399601	-0.166785	0.375830
O18	O	0.732935	0.166549	0.709164
O19	O	0.057522	-0.640912	0.042510
O20	O	0.390856	-0.307579	0.375843
O21	O	0.724189	0.025755	0.709177
Cu22	Cu	0.061896	-0.570514	0.050252
Cu23	Cu	0.395230	-0.237180	0.383585
Cu24	Cu	0.728563	0.096153	0.716918
Cu25	Cu	0.061882	-0.570531	-0.050103
Cu26	Cu	0.395216	-0.237197	0.283231
Cu27	Cu	0.728549	0.096136	0.616564
O28	O	0.132293	-0.566137	0.042519
O29	O	0.465626	-0.232803	0.375852
O30	O	0.798959	0.100530	0.709185
C31	C	0.066079	-0.482118	0.000066
C32	C	0.399412	-0.148785	0.333399
C33	C	0.732745	0.184548	0.666733
C34	C	0.065526	-0.428463	0.000060
C35	C	0.398859	-0.095130	0.333393
C36	C	0.732192	0.238203	0.666727
N37	N	0.061906	-0.570505	0.120836
N38	N	0.395239	-0.237172	0.454169
N39	N	0.728572	0.096161	0.787502
C40	C	-0.026515	-0.574719	0.000054
C41	C	0.306818	-0.241385	0.333388
C42	C	0.640151	0.091948	0.666721
C43	C	-0.080171	-0.574170	0.000039
C44	C	0.253163	-0.240837	0.333372
C45	C	0.586496	0.092497	0.666706
C46	C	-0.463343	-0.570281	-0.046188
C47	C	-0.130009	-0.236948	0.287146
C48	C	0.203324	0.096385	0.620479
C49	C	-0.261683	-0.572334	-0.046204
C50	C	0.071650	-0.239000	0.287129
C51	C	0.404983	0.094333	0.620463
O52	O	-0.235621	-0.572625	-0.085544
O53	O	0.097712	-0.239292	0.247789
O54	O	0.431045	0.094042	0.581122
N55	N	-0.236456	-0.572582	0.000051
N56	N	0.096878	-0.239249	0.333384
N57	N	0.430211	0.094084	0.666718
C58	C	-0.261646	-0.572321	0.046313
C59	C	0.071687	-0.238988	0.379646
C60	C	0.405020	0.094345	0.712980
O61	O	-0.235562	-0.572585	0.085655
O62	O	0.097771	-0.239252	0.418988
O63	O	0.431104	0.094082	0.752322
C64	C	-0.463305	-0.570272	0.046329
C65	C	-0.129972	-0.236939	0.379662
C66	C	0.203361	0.096394	0.712995
C67	C	-0.488530	-0.570019	0.000071
C68	C	-0.155196	-0.236685	0.333404
C69	C	0.178137	0.096648	0.666738
C70	C	-0.488567	-0.570028	-0.092442
C71	C	-0.155234	-0.236695	0.240892
C72	C	0.178100	0.096639	0.574225
C73	C	-0.538979	-0.569512	-0.092437
C74	C	-0.205645	-0.236179	0.240896
C75	C	0.127688	0.097154	0.574229
C76	C	-0.564166	-0.569250	-0.046179
C77	C	-0.230832	-0.235916	0.287155
C78	C	0.102501	0.097417	0.620488
C79	C	-0.538941	-0.569503	0.000075
C80	C	-0.205608	-0.236169	0.333409
C81	C	0.127725	0.097164	0.666742
C82	C	-0.488496	-0.570014	0.092590
C83	C	-0.155162	-0.236681	0.425924
C84	C	0.178171	0.096652	0.759257
C85	C	-0.538914	-0.569503	0.092590
C86	C	-0.205581	-0.236170	0.425923
C87	C	0.127753	0.097163	0.759257
C88	C	-0.564138	-0.569250	0.046332
C89	C	-0.230805	-0.235916	0.379666
C90	C	0.102528	0.097417	0.712999
C91	C	-0.614540	-0.568724	0.046339
C92	C	-0.281206	-0.235391	0.379672
C93	C	0.052127	0.097942	0.713005
N94	N	-0.639767	-0.568476	0.000084
N95	N	-0.306434	-0.235142	0.333417
N96	N	0.026899	0.098191	0.666750
C97	C	-0.614580	-0.568738	-0.046175
C98	C	-0.281247	-0.235405	0.287159
C99	C	0.052086	0.097928	0.620492
C100	C	-0.155772	-0.573396	0.046301
C101	C	0.177561	-0.240063	0.379635
C102	C	0.510894	0.093271	0.712968
C103	C	-0.105358	-0.573907	0.046298
C104	C	0.227975	-0.240574	0.379631
C105	C	0.561309	0.092759	0.712964
C106	C	-0.105398	-0.573921	-0.046219
C107	C	0.227935	-0.240587	0.287114
C108	C	0.561268	0.092746	0.620447
C109	C	-0.155813	-0.573406	-0.046215
C110	C	0.177520	-0.240073	0.287118
C111	C	0.510853	0.093261	0.620452
C112	C	-0.181000	-0.573147	0.000047
C113	C	0.152333	-0.239814	0.333380
C114	C	0.485667	0.093519	0.666713
C115	C	-0.720448	-0.567655	-0.046162
C116	C	-0.387115	-0.234321	0.287172
C117	C	-0.053781	0.099012	0.620505
C118	C	-0.770864	-0.567137	-0.046153
C119	C	-0.437530	-0.233804	0.287180
C120	C	-0.104197	0.099530	0.620513
C121	C	-0.770819	-0.567126	0.046364
C122	C	-0.437486	-0.233793	0.379697
C123	C	-0.104152	0.099540	0.713030
C124	C	-0.720408	-0.567641	0.046355
C125	C	-0.387074	-0.234308	0.379689
C126	C	-0.053741	0.099025	0.713022
C127	C	-0.695223	-0.567907	0.000088
C128	C	-0.361890	-0.234574	0.333422
C129	C	-0.028557	0.098759	0.666755
O130	O	-0.640634	-0.568438	0.085658
O131	O	-0.307300	-0.235105	0.418992
O132	O	0.026033	0.098229	0.752325
O133	O	-0.640675	-0.568485	-0.085511
O134	O	-0.307341	-0.235152	0.247822
O135	O	0.025992	0.098181	0.581156
C136	C	-0.412931	-0.570797	-0.046192
C137	C	-0.079598	-0.237464	0.287141
C138	C	0.253735	0.095870	0.620474
C139	C	-0.387707	-0.571050	0.000062
C140	C	-0.054373	-0.237717	0.333395
C141	C	0.278960	0.095617	0.666729
C142	C	-0.412894	-0.570787	0.046320
C143	C	-0.079561	-0.237454	0.379654
C144	C	0.253773	0.095879	0.712987
C145	C	-0.337292	-0.571561	0.000058
C146	C	-0.003959	-0.238228	0.333391
C147	C	0.329374	0.095105	0.666725
C148	C	-0.312105	-0.571824	-0.046201
C149	C	0.021228	-0.238491	0.287133
C150	C	0.354562	0.094843	0.620466
C151	C	-0.337333	-0.571575	-0.092455
C152	C	-0.003999	-0.238242	0.240878
C153	C	0.329334	0.095091	0.574211
C154	C	-0.387744	-0.571060	-0.092451
C155	C	-0.054411	-0.237726	0.240883
C156	C	0.278923	0.095607	0.574216
C157	C	-0.387666	-0.571036	0.092575
C158	C	-0.054333	-0.237703	0.425909
C159	C	0.279000	0.095631	0.759242
C160	C	-0.337255	-0.571551	0.092567
C161	C	-0.003921	-0.238218	0.425900
C162	C	0.329412	0.095115	0.759234
C163	C	-0.312068	-0.571814	0.046308
C164	C	0.021266	-0.238481	0.379642
C165	C	0.354599	0.094853	0.712975
C166	C	0.150294	-0.566326	0.000094
C167	C	0.483627	-0.232993	0.333427
C168	C	0.816961	0.100341	0.666760
C169	C	0.203949	-0.566874	0.000105
C170	C	0.537283	-0.233541	0.333439
C171	C	0.870616	0.099792	0.666772
C172	C	0.057700	-0.658926	0.000082
C173	C	0.391033	-0.325593	0.333415
C174	C	0.724367	0.007740	0.666749
C175	C	0.058253	-0.712581	0.000085
C176	C	0.391586	-0.379248	0.333418
C177	C	0.724920	-0.045914	0.666751
C178	C	0.106230	-0.089645	0.000091
C179	C	0.439563	0.243688	0.333424
C180	C	0.772897	0.577022	0.666758
C181	C	0.104179	0.112014	0.000095
C182	C	0.437512	0.445348	0.333428
C183	C	0.770846	0.778681	0.666762
O184	O	0.141400	0.143273	0.000125
O185	O	0.474733	0.476606	0.333458
O186	O	0.808067	0.809940	0.666792
N187	N	0.059843	0.131135	0.000085
N188	N	0.393177	0.464468	0.333418
N189	N	0.726510	0.797801	0.666751
C190	C	0.016017	0.099836	0.000076
C191	C	0.349350	0.433170	0.333410
C192	C	0.682684	0.766503	0.666743
O193	O	-0.021740	0.120726	0.000073
O194	O	0.311593	0.454060	0.333406
O195	O	0.644927	0.787393	0.666740
C196	C	0.018069	-0.101822	0.000076
C197	C	0.351402	0.231511	0.333409
C198	C	0.684735	0.564845	0.666743
C199	C	0.062407	-0.120939	0.000081
C200	C	0.395741	0.212394	0.333415
C201	C	0.729074	0.545727	0.666748
C202	C	0.150565	-0.108763	0.000097
C203	C	0.483898	0.224571	0.333430
C204	C	0.817232	0.557904	0.666763
C205	C	0.151077	-0.159175	0.000093
C206	C	0.484411	0.174159	0.333426
C207	C	0.817744	0.507492	0.666760
C208	C	0.107255	-0.190469	0.000083
C209	C	0.440588	0.142865	0.333417
C210	C	0.773921	0.476198	0.666750
C211	C	0.062920	-0.171351	0.000077
C212	C	0.396253	0.161982	0.333411
C213	C	0.729586	0.495316	0.666744
C214	C	-0.025757	-0.133119	0.000072
C215	C	0.307576	0.200214	0.333405
C216	C	0.640910	0.533547	0.666738
C217	C	-0.025240	-0.183537	0.000073
C218	C	0.308093	0.149797	0.333406
C219	C	0.641427	0.483130	0.666739
C220	C	0.019099	-0.202654	0.000078
C221	C	0.352432	0.130680	0.333411
C222	C	0.685765	0.464013	0.666745
C223	C	0.019609	-0.253057	0.000064
C224	C	0.352942	0.080276	0.333397
C225	C	0.686276	0.413609	0.666731
N226	N	0.063945	-0.272177	0.000074
N227	N	0.397278	0.061156	0.333408
N228	N	0.730611	0.394489	0.666741
C229	C	0.107768	-0.240883	0.000084
C230	C	0.441101	0.092450	0.333417
C231	C	0.774434	0.425783	0.666751
C232	C	0.014943	0.205710	0.000076
C233	C	0.348277	0.539044	0.333409
C234	C	0.681610	0.872377	0.666742
C235	C	0.014430	0.256125	0.000075
C236	C	0.347764	0.589458	0.333408
C237	C	0.681097	0.922791	0.666742
C238	C	0.102592	0.268299	0.000094
C239	C	0.435926	0.601633	0.333428
C240	C	0.769259	0.934966	0.666761
C241	C	0.103105	0.217884	0.000092
C242	C	0.436438	0.551217	0.333425
C243	C	0.769771	0.884551	0.666758
C244	C	0.059279	0.186590	0.000086
C245	C	0.392612	0.519924	0.333419
C246	C	0.725946	0.853257	0.666753
C247	C	0.108840	-0.346752	0.000076
C248	C	0.442173	-0.013419	0.333409
C249	C	0.775507	0.319914	0.666742
C250	C	0.109348	-0.397169	0.000070
C251	C	0.442682	-0.063836	0.333403
C252	C	0.776015	0.269497	0.666736
C253	C	0.021187	-0.409339	0.000053
C254	C	0.354520	-0.076006	0.333386
C255	C	0.687853	0.257327	0.666720
C256	C	0.020678	-0.358927	0.000056
C257	C	0.354011	-0.025594	0.333389
C258	C	0.687345	0.307740	0.666723
C259	C	0.064509	-0.327634	0.000069
C260	C	0.397842	0.005699	0.333403
C261	C	0.731175	0.339033	0.666736
O262	O	-0.017592	-0.284344	0.000040
O263	O	0.315741	0.048989	0.333373
O264	O	0.649075	0.382322	0.666706
O265	O	0.145519	-0.261783	0.000099
O266	O	0.478853	0.071551	0.333432
O267	O	0.812186	0.404884	0.666766
C268	C	0.105718	-0.039233	0.000095
C269	C	0.439051	0.294100	0.333428
C270	C	0.772384	0.627434	0.666761
C271	C	0.061383	-0.020115	0.000089
C272	C	0.394716	0.313218	0.333422
C273	C	0.728049	0.646551	0.666756
C274	C	0.017560	-0.051410	0.000079
C275	C	0.350893	0.281924	0.333413
C276	C	0.684227	0.615257	0.666746
C277	C	0.060870	0.030299	0.000088
C278	C	0.394203	0.363632	0.333421
C279	C	0.727536	0.696966	0.666755
C280	C	0.104692	0.061593	0.000098
C281	C	0.438026	0.394927	0.333431
C282	C	0.771359	0.728260	0.666764
C283	C	0.149028	0.042473	0.000108
C284	C	0.482361	0.375806	0.333441
C285	C	0.815695	0.709140	0.666775
C286	C	0.149540	-0.007939	0.000104
C287	C	0.482874	0.325394	0.333438
C288	C	0.816207	0.658728	0.666771
C289	C	-0.026776	-0.032289	0.000069
C290	C	0.306558	0.301044	0.333402
C291	C	0.639891	0.634377	0.666735
C292	C	-0.027284	0.018123	0.000072
C293	C	0.306049	0.351456	0.333405
C294	C	0.639382	0.684790	0.666739
C295	C	0.016538	0.049417	0.000082
C296	C	0.349872	0.382751	0.333415
C297	C	0.683205	0.716084	0.666748
N298	N	0.061869	-0.570543	-0.120687
N299	N	0.395202	-0.237210	0.212647
N300	N	0.728536	0.096124	0.545980
C301	C	0.028782	-0.603638	0.473346
C302	C	0.362115	-0.270305	0.806679
C303	C	0.695448	0.063029	1.140013
C304	C	0.028775	-0.603649	0.687005
C305	C	0.362108	-0.270315	1.020338
C306	C	0.695441	0.063018	1.353671
O307	O	0.000614	-0.631801	0.714623
O308	O	0.333947	-0.298467	1.047957
O309	O	0.667280	0.034866	1.381290
N310	N	0.061872	-0.570533	0.713730
N311	N	0.395205	-0.237200	1.047063
N312	N	0.728538	0.096133	1.380396
C313	C	0.094971	-0.537411	0.687037
C314	C	0.428304	-0.204078	1.020370
C315	C	0.761637	0.129256	1.353703
O316	O	0.123118	-0.509241	0.714671
O317	O	0.456452	-0.175908	1.048004
O318	O	0.789785	0.157425	1.381337
C319	C	0.094975	-0.537398	0.473379
C320	C	0.428308	-0.204065	0.806712
C321	C	0.761641	0.129268	1.140046
C322	C	0.061879	-0.570519	0.446657
C323	C	0.395212	-0.237186	0.779990
C324	C	0.728546	0.096148	1.113323
C325	C	-0.004312	-0.636756	0.446624
C326	C	0.329021	-0.303422	0.779957
C327	C	0.662355	0.029911	1.113290
C328	C	-0.004308	-0.636754	0.393212
C329	C	0.329025	-0.303421	0.726545
C330	C	0.662358	0.029912	1.059879
C331	C	0.028789	-0.603635	0.366523
C332	C	0.362122	-0.270302	0.699856
C333	C	0.695456	0.063031	1.033190
C334	C	0.061883	-0.570518	0.393245
C335	C	0.395216	-0.237184	0.726579
C336	C	0.728549	0.096149	1.059912
C337	C	0.128071	-0.504274	0.446687
C338	C	0.461404	-0.170941	0.780021
C339	C	0.794738	0.162393	1.113354
C340	C	0.128068	-0.504273	0.393269
C341	C	0.461402	-0.170940	0.726603
C342	C	0.794735	0.162394	1.059936
C343	C	0.094972	-0.537394	0.366547
C344	C	0.428306	-0.204060	0.699880
C345	C	0.761639	0.129273	1.033214
C346	C	0.094984	-0.537398	0.313145
C347	C	0.428317	-0.204064	0.646478
C348	C	0.761650	0.129269	0.979811
N349	N	0.061887	-0.570513	0.286420
N350	N	0.395220	-0.237180	0.619753
N351	N	0.728553	0.096154	0.953086
C352	C	0.028789	-0.603632	0.313109
C353	C	0.362123	-0.270298	0.646442
C354	C	0.695456	0.063035	0.979776
C355	C	0.094967	-0.537421	0.799210
C356	C	0.428300	-0.204087	1.132543
C357	C	0.761634	0.129246	1.465877
C358	C	0.094967	-0.537424	0.852624
C359	C	0.428300	-0.204091	1.185958
C360	C	0.761633	0.129242	1.519291
C361	C	0.028770	-0.603661	0.852588
C362	C	0.362103	-0.270328	1.185922
C363	C	0.695436	0.063005	1.519255
C364	C	0.028773	-0.603660	0.799173
C365	C	0.362106	-0.270326	1.132507
C366	C	0.695440	0.063007	1.465840
C367	C	0.061870	-0.570536	0.772485
C368	C	0.395203	-0.237202	1.105818
C369	C	0.728537	0.096131	1.439152
C370	C	0.028800	-0.603627	0.200941
C371	C	0.362134	-0.270294	0.534274
C372	C	0.695467	0.063040	0.867608
C373	C	0.028808	-0.603624	0.147525
C374	C	0.362142	-0.270291	0.480858
C375	C	0.695475	0.063043	0.814191
C376	C	0.095003	-0.537385	0.147565
C377	C	0.428336	-0.204052	0.480899
C378	C	0.761670	0.129281	0.814232
C379	C	0.094997	-0.537390	0.200977
C380	C	0.428330	-0.204056	0.534310
C381	C	0.761664	0.129277	0.867644
C382	C	0.061891	-0.570512	0.227663
C383	C	0.395225	-0.237179	0.560997
C384	C	0.728558	0.096154	0.894330
O385	O	0.123126	-0.509257	0.285493
O386	O	0.456460	-0.175924	0.618827
O387	O	0.789793	0.157410	0.952160
O388	O	0.000639	-0.631790	0.285466
O389	O	0.333972	-0.298457	0.618799
O390	O	0.667306	0.034877	0.952132
C391	C	0.028778	-0.603639	0.526757
C392	C	0.362111	-0.270306	0.860091
C393	C	0.695444	0.063027	1.193424
C394	C	0.061871	-0.570522	0.553480
C395	C	0.395205	-0.237188	0.886813
C396	C	0.728538	0.096145	1.220146
C397	C	0.094969	-0.537403	0.526791
C398	C	0.428302	-0.204069	0.860124
C399	C	0.761635	0.129264	1.193457
C400	C	0.061871	-0.570525	0.606894
C401	C	0.395204	-0.237192	0.940227
C402	C	0.728538	0.096141	1.273561
C403	C	0.028774	-0.603644	0.633583
C404	C	0.362107	-0.270311	0.966916
C405	C	0.695440	0.063023	1.300250
C406	C	-0.004323	-0.636759	0.606858
C407	C	0.329010	-0.303426	0.940191
C408	C	0.662343	0.029907	1.273525
C409	C	-0.004320	-0.636758	0.553446
C410	C	0.329014	-0.303425	0.886780
C411	C	0.662347	0.029909	1.220113
C412	C	0.128066	-0.504287	0.553516
C413	C	0.461399	-0.170954	0.886849
C414	C	0.794732	0.162379	1.220182
C415	C	0.128060	-0.504292	0.606927
C416	C	0.461393	-0.170958	0.940261
C417	C	0.794726	0.162375	1.273594
C418	C	0.094962	-0.537411	0.633616
C419	C	0.428296	-0.204077	0.966950
C420	C	0.761629	0.129256	1.300283
H421	H	-0.791399	-0.566929	-0.083823
H422	H	-0.458065	-0.233595	0.249510
H423	H	-0.124732	0.099738	0.582843
H424	H	-0.021675	0.271685	0.000063
H425	H	0.311659	0.605018	0.333396
H426	H	0.644992	0.938352	0.666729
O427	O	-0.080874	-0.574089	-0.091131
O428	O	0.252459	-0.240756	0.242202
O429	O	0.585792	0.092578	0.575536
C430	C	-0.045952	-0.532487	-0.093895
C431	C	0.287381	-0.199154	0.239438
C432	C	0.620714	0.134180	0.572772
H433	H	-0.036451	-0.518614	-0.053728
H434	H	0.296883	-0.185281	0.279605
H435	H	0.630216	0.148053	0.612939
H436	H	-0.011809	-0.542245	-0.113492
H437	H	0.321525	-0.208912	0.219841
H438	H	0.654858	0.124421	0.553174
H439	H	-0.061358	-0.502962	-0.116699
H440	H	0.271976	-0.169629	0.216635
H441	H	0.605309	0.163705	0.549968
O442	O	-0.463955	-0.570331	0.137492
O443	O	-0.130622	-0.236998	0.470825
O444	O	0.202712	0.096335	0.804159
C445	C	-0.440591	-0.612516	0.140260
C446	C	-0.107258	-0.279183	0.473593
C447	C	0.226075	0.054150	0.806927
H448	H	-0.434979	-0.626554	0.100096
H449	H	-0.101646	-0.293221	0.433429
H450	H	0.231688	0.040113	0.766762
H451	H	-0.403833	-0.603462	0.159841
H452	H	-0.070500	-0.270129	0.493174
H453	H	0.262834	0.063204	0.826508
H454	H	-0.464068	-0.641644	0.163082
H455	H	-0.130734	-0.308311	0.496415
H456	H	0.202599	0.025023	0.829748
O457	O	-0.696060	-0.567888	-0.091150
O458	O	-0.362727	-0.234555	0.242183
O459	O	-0.029393	0.098778	0.575516
C460	C	-0.729144	-0.567566	-0.131969
C461	C	-0.395811	-0.234232	0.201364
C462	C	-0.062477	0.099101	0.534698
H463	H	-0.762959	-0.551890	-0.118397
H464	H	-0.429625	-0.218556	0.214936
H465	H	-0.096292	0.114777	0.548269
H466	H	-0.711353	-0.544239	-0.164324
H467	H	-0.378020	-0.210906	0.169009
H468	H	-0.044686	0.122428	0.502343
H469	H	-0.739873	-0.606306	-0.146193
H470	H	-0.406540	-0.272973	0.187141
H471	H	-0.073206	0.060361	0.520474
O472	O	-0.003450	-0.635812	0.878463
O473	O	0.329884	-0.302479	1.211796
O474	O	0.663217	0.030855	1.545129
C475	C	-0.051247	-0.628304	0.865407
C476	C	0.282086	-0.294970	1.198740
C477	C	0.615419	0.038363	1.532073
H478	H	-0.051059	-0.609674	0.826624
H479	H	0.282274	-0.276340	1.159958
H480	H	0.615608	0.056993	1.493291
H481	H	-0.075309	-0.664815	0.863573
H482	H	0.258024	-0.331481	1.196906
H483	H	0.591357	0.001852	1.530239
H484	H	-0.066024	-0.604352	0.895464
H485	H	0.267309	-0.271019	1.228798
H486	H	0.600643	0.062315	1.562131
H487	H	-0.316816	-0.571786	-0.130121
H488	H	0.016517	-0.238452	0.203213
H489	H	0.349851	0.094881	0.536546
H490	H	-0.014493	-0.434828	0.000043
H491	H	0.318841	-0.101495	0.333376
H492	H	0.652174	0.231839	0.666710
H493	H	0.121921	-0.510459	0.874378
H494	H	0.455255	-0.177126	1.207711
H495	H	0.788588	0.156207	1.541045
H496	H	0.155019	-0.477298	0.371542
H497	H	0.488353	-0.143965	0.704876
H498	H	0.821686	0.189369	1.038209
O499	O	0.127169	-0.505226	0.773368
O500	O	0.460502	-0.171892	1.106701
O501	O	0.793836	0.161441	1.440035
C502	C	0.156369	-0.475995	0.808416
C503	C	0.489703	-0.142662	1.141750
C504	C	0.823036	0.190672	1.475083
H505	H	0.156772	-0.495816	0.846487
H506	H	0.490106	-0.162482	1.179820
H507	H	0.823439	0.170851	1.513154
H508	H	0.195028	-0.468327	0.793004
H509	H	0.528361	-0.134994	1.126338
H510	H	0.861694	0.198340	1.459671
H511	H	0.140922	-0.440207	0.814098
H512	H	0.474255	-0.106874	1.147432
H513	H	0.807589	0.226460	1.480765
H514	H	-0.020747	0.180235	0.000071
H515	H	0.312586	0.513568	0.333405
H516	H	0.645920	0.846901	0.666738
O517	O	-0.036512	-0.668865	0.472567
O518	O	0.296821	-0.335532	0.805900
O519	O	0.630155	-0.002198	1.139234
C520	C	-0.066156	-0.643218	0.503469
C521	C	0.267177	-0.309884	0.836802
C522	C	0.600511	0.023449	1.170135
H523	H	-0.066712	-0.605100	0.487385
H524	H	0.266622	-0.271767	0.820718
H525	H	0.599955	0.061566	1.154051
H526	H	-0.104713	-0.663235	0.504050
H527	H	0.228620	-0.329902	0.837383
H528	H	0.561954	0.003432	1.170716
H529	H	-0.051015	-0.640579	0.543958
H530	H	0.282318	-0.307245	0.877291
H531	H	0.615651	0.026088	1.210625
O532	O	0.160287	-0.472163	0.527619
O533	O	0.493621	-0.138830	0.860952
O534	O	0.826954	0.194504	1.194285
C535	C	0.208081	-0.479656	0.540708
C536	C	0.541415	-0.146322	0.874041
C537	C	0.874748	0.187011	1.207375
H538	H	0.208044	-0.518356	0.555384
H539	H	0.541377	-0.185023	0.888718
H540	H	0.874710	0.148311	1.222051
H541	H	0.232389	-0.473909	0.505597
H542	H	0.565723	-0.140575	0.838930
H543	H	0.899056	0.192758	1.172263
H544	H	0.222459	-0.452762	0.571727
H545	H	0.555792	-0.119428	0.905060
H546	H	0.889126	0.213905	1.238393
O547	O	0.160165	-0.472050	0.632859
O548	O	0.493498	-0.138716	0.966192
O549	O	0.826831	0.194617	1.299526
C550	C	0.152638	-0.424264	0.619791
C551	C	0.485971	-0.090931	0.953124
C552	C	0.819305	0.242403	1.286458
H553	H	0.113936	-0.424328	0.605093
H554	H	0.447270	-0.090995	0.938426
H555	H	0.780603	0.242338	1.271759
H556	H	0.158362	-0.399959	0.654919
H557	H	0.491695	-0.066625	0.988252
H558	H	0.825029	0.266708	1.321585
H559	H	0.179529	-0.409864	0.588796
H560	H	0.512862	-0.076530	0.922129
H561	H	0.846195	0.256803	1.255462
H562	H	0.155020	-0.477304	0.468437
H563	H	0.488354	-0.143971	0.801770
H564	H	0.821687	0.189363	1.135104
H565	H	-0.060929	-0.209014	0.000069
H566	H	0.272404	0.124319	0.333402
H567	H	0.605737	0.457652	0.666735
H568	H	-0.408169	-0.570824	0.130245
H569	H	-0.074835	-0.237490	0.463579
H570	H	0.258498	0.095843	0.796912
O571	O	0.127164	-0.505170	0.226859
O572	O	0.460497	-0.171837	0.560192
O573	O	0.793830	0.161496	0.893526
C574	C	0.156385	-0.475948	0.191846
C575	C	0.489719	-0.142614	0.525179
C576	C	0.823052	0.190719	0.858512
H577	H	0.136575	-0.475559	0.153760
H578	H	0.469908	-0.142226	0.487093
H579	H	0.803242	0.191107	0.820426
H580	H	0.164018	-0.437288	0.207280
H581	H	0.497351	-0.103955	0.540613
H582	H	0.830685	0.229379	0.873946
H583	H	0.192191	-0.491364	0.186185
H584	H	0.525525	-0.158031	0.519518
H585	H	0.858858	0.175302	0.852852
H586	H	-0.061862	-0.117563	0.000068
H587	H	0.271471	0.215770	0.333401
H588	H	0.604805	0.549103	0.666734
O589	O	0.145207	0.298635	0.000084
O590	O	0.478540	0.631968	0.333418
O591	O	0.811873	0.965301	0.666751
C592	C	0.184454	0.270956	0.000110
C593	C	0.517787	0.604289	0.333444
C594	C	0.851120	0.937623	0.666777
H595	H	0.171903	0.233232	-0.015961
H596	H	0.505236	0.566566	0.317372
H597	H	0.838569	0.899899	0.650706
H598	H	0.215133	0.289785	-0.024514
H599	H	0.548467	0.623118	0.308820
H600	H	0.881800	0.956451	0.642153
H601	H	0.198062	0.267469	0.040826
H602	H	0.531395	0.600803	0.374159
H603	H	0.864729	0.934136	0.707493
H604	H	-0.559512	-0.569309	-0.130105
H605	H	-0.226179	-0.235976	0.203228
H606	H	0.107154	0.097357	0.536562
O607	O	0.193151	-0.078388	0.000013
O608	O	0.526485	0.254945	0.333347
O609	O	0.859818	0.588279	0.666680
C610	C	0.220085	-0.087025	-0.043926
C611	C	0.553418	0.246308	0.289408
C612	C	0.886751	0.579641	0.622741
H613	H	0.194423	-0.104446	-0.074645
H614	H	0.527756	0.228888	0.258689
H615	H	0.861089	0.562221	0.592022
H616	H	0.239747	-0.051115	-0.058678
H617	H	0.573080	0.282218	0.274655
H618	H	0.906413	0.615552	0.607988
H619	H	0.247863	-0.112498	-0.033985
H620	H	0.581196	0.220835	0.299349
H621	H	0.914529	0.554168	0.632682
H622	H	-0.063393	0.033683	0.000064
H623	H	0.269940	0.367016	0.333397
H624	H	0.603274	0.700349	0.666730
H625	H	-0.031271	-0.663728	0.628597
H626	H	0.302062	-0.330394	0.961930
H627	H	0.635396	0.002939	1.295264
H628	H	-0.084823	-0.574105	0.083965
H629	H	0.248510	-0.240771	0.417299
H630	H	0.581843	0.092562	0.750632
H631	H	0.001823	-0.630629	0.777419
H632	H	0.335156	-0.297296	1.110752
H633	H	0.668490	0.036038	1.444086
O634	O	-0.003437	-0.635750	0.121622
O635	O	0.329896	-0.302417	0.454956
O636	O	0.663230	0.030916	0.788289
C637	C	-0.051215	-0.628228	0.134713
C638	C	0.282119	-0.294895	0.468046
C639	C	0.615452	0.038439	0.801379
H640	H	-0.051148	-0.589518	0.149377
H641	H	0.282186	-0.256185	0.482710
H642	H	0.615519	0.077148	0.816044
H643	H	-0.075550	-0.633981	0.099605
H644	H	0.257783	-0.300648	0.432938
H645	H	0.591117	0.032686	0.766272
H646	H	-0.065581	-0.655102	0.165741
H647	H	0.267752	-0.321768	0.499074
H648	H	0.601086	0.011565	0.832407
H649	H	-0.176275	-0.573186	0.083976
H650	H	0.157058	-0.239852	0.417309
H651	H	0.490392	0.093481	0.750642
H652	H	-0.408277	-0.570853	-0.130119
H653	H	-0.074944	-0.237520	0.203215
H654	H	0.258389	0.095814	0.536548
O655	O	0.194138	-0.177760	0.000005
O656	O	0.527472	0.155574	0.333338
O657	O	0.860805	0.488907	0.666671
C658	C	0.197066	-0.206564	-0.043941
C659	C	0.530399	0.126769	0.289393
C660	C	0.863732	0.460102	0.622726
H661	H	0.171884	-0.194836	-0.074658
H662	H	0.505217	0.138498	0.258675
H663	H	0.838550	0.471831	0.592008
H664	H	0.236054	-0.201738	-0.058690
H665	H	0.569387	0.131596	0.274643
H666	H	0.902721	0.464929	0.607976
H667	H	0.185628	-0.246410	-0.034009
H668	H	0.518961	0.086923	0.299324
H669	H	0.852295	0.420256	0.632657
O670	O	-0.069392	-0.062616	0.000035
O671	O	0.263942	0.270717	0.333368
O672	O	0.597275	0.604050	0.666702
C673	C	-0.108628	-0.034924	0.000040
C674	C	0.224705	0.298410	0.333373
C675	C	0.558038	0.631743	0.666707
H676	H	-0.096066	0.002798	-0.016018
H677	H	0.237267	0.336131	0.317315
H678	H	0.570600	0.669464	0.650649
H679	H	-0.139314	-0.053743	-0.024607
H680	H	0.194020	0.279591	0.308727
H681	H	0.527353	0.612924	0.642060
H682	H	-0.122233	-0.031433	0.040748
H683	H	0.211101	0.301900	0.374081
H684	H	0.544434	0.635234	0.707414
H685	H	-0.015426	-0.343361	0.000044
H686	H	0.317907	-0.010028	0.333378
H687	H	0.651241	0.323306	0.666711
O688	O	0.192654	-0.026425	0.000135
O689	O	0.525987	0.306908	0.333469
O690	O	0.859321	0.640242	0.666802
C691	C	0.231217	0.012015	0.000132
C692	C	0.564551	0.345348	0.333465
C693	C	0.897884	0.678681	0.666799
H694	H	0.217925	0.046165	0.016195
H695	H	0.551258	0.379498	0.349528
H696	H	0.884591	0.712831	0.682862
H697	H	0.262200	0.001714	0.024775
H698	H	0.595534	0.335047	0.358109
H699	H	0.928867	0.668381	0.691442
H700	H	0.244711	0.019248	-0.040576
H701	H	0.578044	0.352582	0.292758
H702	H	0.911377	0.685915	0.626091
O703	O	-0.563302	-0.569230	0.137576
O704	O	-0.229968	-0.235897	0.470909
O705	O	0.103365	0.097437	0.804243
C706	C	-0.530225	-0.569576	0.178398
C707	C	-0.196891	-0.236243	0.511732
C708	C	0.136442	0.097090	0.845065
H709	H	-0.492179	-0.554636	0.164832
H710	H	-0.158845	-0.221302	0.498165
H711	H	0.174488	0.112031	0.831498
H712	H	-0.541532	-0.545948	0.210754
H713	H	-0.208198	-0.212615	0.544087
H714	H	0.125135	0.120719	0.877420
H715	H	-0.530217	-0.608424	0.192620
H716	H	-0.196884	-0.275091	0.525954
H717	H	0.136450	0.058242	0.859287
H718	H	0.001842	-0.630598	0.222663
H719	H	0.335175	-0.297264	0.555996
H720	H	0.668509	0.036069	0.889330
H721	H	0.144531	-0.321279	0.000088
H722	H	0.477864	0.012054	0.333421
H723	H	0.811198	0.345388	0.666755
O724	O	0.152464	-0.415658	0.000099
O725	O	0.485797	-0.082325	0.333432
O726	O	0.819130	0.251009	0.666766
C727	C	0.191031	-0.377222	0.000097
C728	C	0.524364	-0.043889	0.333430
C729	C	0.857698	0.289444	0.666764
H730	H	0.177743	-0.343071	0.016162
H731	H	0.511076	-0.009738	0.349496
H732	H	0.844409	0.323596	0.682829
H733	H	0.222013	-0.387528	0.024739
H734	H	0.555346	-0.054195	0.358073
H735	H	0.888680	0.279139	0.691406
H736	H	0.204525	-0.369988	-0.040610
H737	H	0.537858	-0.036655	0.292723
H738	H	0.871191	0.296679	0.626056
O739	O	-0.464177	-0.570259	-0.137427
O740	O	-0.130843	-0.236926	0.195907
O741	O	0.202490	0.096407	0.529240
C742	C	-0.497263	-0.569939	-0.178244
C743	C	-0.163929	-0.236606	0.155089
C744	C	0.169404	0.096728	0.488423
H745	H	-0.531079	-0.554267	-0.164671
H746	H	-0.197745	-0.220934	0.168663
H747	H	0.135588	0.112400	0.501996
H748	H	-0.479475	-0.546611	-0.210600
H749	H	-0.146141	-0.213277	0.122734
H750	H	0.187192	0.120056	0.456067
H751	H	-0.507988	-0.608680	-0.192468
H752	H	-0.174655	-0.275347	0.140865
H753	H	0.158678	0.057987	0.474199
H754	H	-0.176347	-0.573198	-0.083882
H755	H	0.156986	-0.239865	0.249451
H756	H	0.490319	0.093468	0.582784
O757	O	-0.695977	-0.567890	0.091334
O758	O	-0.362643	-0.234557	0.424668
O759	O	-0.029310	0.098777	0.758001
C760	C	-0.729018	-0.567524	0.132164
C761	C	-0.395684	-0.234191	0.465497
C762	C	-0.062351	0.099143	0.798830
H763	H	-0.767074	-0.582477	0.118611
H764	H	-0.433741	-0.249144	0.451945
H765	H	-0.100408	0.084189	0.785278
H766	H	-0.717678	-0.591132	0.164526
H767	H	-0.384345	-0.257798	0.497859
H768	H	-0.051012	0.075535	0.831192
H769	H	-0.729018	-0.528669	0.146370
H770	H	-0.395685	-0.195335	0.479704
H771	H	-0.062351	0.137998	0.813037
O772	O	-0.036518	-0.668948	0.527571
O773	O	0.296815	-0.335615	0.860905
O774	O	0.630148	-0.002281	1.194238
C775	C	-0.065719	-0.698184	0.562591
C776	C	0.267614	-0.364850	0.895924
C777	C	0.600947	-0.031517	1.229257
H778	H	-0.066125	-0.678368	0.600666
H779	H	0.267208	-0.345034	0.933999
H780	H	0.600542	-0.011701	1.267333
H781	H	-0.104377	-0.705852	0.547148
H782	H	0.228956	-0.372518	0.880481
H783	H	0.562290	-0.039185	1.213815
H784	H	-0.050271	-0.733972	0.568275
H785	H	0.283063	-0.400638	0.901609
H786	H	0.616396	-0.067305	1.234942
O787	O	-0.795337	-0.566810	0.091264
O788	O	-0.462004	-0.233477	0.424597
O789	O	-0.128670	0.099857	0.757930
C790	C	-0.818706	-0.524630	0.094042
C791	C	-0.485373	-0.191296	0.427375
C792	C	-0.152040	0.142037	0.760708
H793	H	-0.824339	-0.510588	0.053881
H794	H	-0.491006	-0.177255	0.387214
H795	H	-0.157672	0.156078	0.720547
H796	H	-0.855455	-0.533692	0.113613
H797	H	-0.522122	-0.200358	0.446946
H798	H	-0.188788	0.132975	0.780280
H799	H	-0.795224	-0.495502	0.116877
H800	H	-0.461890	-0.162168	0.450210
H801	H	-0.128557	0.171165	0.783544
H802	H	-0.031259	-0.663723	0.371458
H803	H	0.302074	-0.330389	0.704791
H804	H	0.635408	0.002944	1.038125
H805	H	-0.316721	-0.571753	0.130238
H806	H	0.016613	-0.238420	0.463572
H807	H	0.349946	0.094913	0.796905
H808	H	0.139209	0.202323	0.000099
H809	H	0.472542	0.535656	0.333432
H810	H	0.805876	0.868989	0.666765
H811	H	0.184710	0.067962	0.000114
H812	H	0.518043	0.401295	0.333447
H813	H	0.851377	0.734628	0.666781
H814	H	0.121952	-0.510422	0.125827
H815	H	0.455285	-0.177088	0.459160
H816	H	0.788619	0.156245	0.792493
