data_functionalizedCrystal
_audit_creation_method	'MofGen! by Chris Wilmer'
_symmetry_space_group_name_H-M	'P1'
_symmetry_Int_Tables_number	1
_symmetry_cell_setting	triclinic
loop_
_symmetry_equiv_pos_as_xyz
  x,y,z
_cell_length_a	19.188930
_cell_length_b	19.188925
_cell_length_c	10.868271
_cell_angle_alpha	89.995220
_cell_angle_beta	89.981803
_cell_angle_gamma	83.143665
loop_
_atom_site_label
_atom_site_type_symbol
_atom_site_fract_x
_atom_site_fract_y
_atom_site_fract_z
O1	O	0.926143	0.087168	-0.102717
O2	O	0.722831	0.098903	-0.102632
O3	O	0.830356	-0.008621	-0.102670
O4	O	0.818618	0.194691	-0.102679
O5	O	0.830347	-0.008625	0.101975
O6	O	0.722823	0.098898	0.102012
O7	O	0.926134	0.087164	0.101928
Zn8	Zn	0.824477	0.093031	0.134462
Zn9	Zn	0.824489	0.093036	-0.135166
O10	O	0.818609	0.194687	0.101966
C11	C	0.829972	-0.034634	-0.000348
C12	C	0.828833	-0.112138	-0.000350
C13	C	0.696816	0.098520	-0.000299
C14	C	0.619311	0.097380	-0.000267
C15	C	0.884297	-0.673909	-0.000405
C16	C	0.885374	-0.601085	-0.000394
C17	C	0.822282	-0.556151	-0.000368
C18	C	0.758108	-0.584045	-0.000321
C19	C	0.757033	-0.656867	-0.000320
N20	N	0.776608	-0.435469	-0.070005
N21	N	0.777634	-0.366292	-0.070009
C22	C	0.825516	-0.336742	-0.000370
N23	N	0.872344	-0.378984	0.069257
N24	N	0.871321	-0.448168	0.069256
C25	C	0.823440	-0.477187	-0.000369
C26	C	0.890852	-0.229893	-0.000397
C27	C	0.891926	-0.157068	-0.000378
C28	C	0.764659	-0.140029	-0.000318
C29	C	0.763587	-0.212852	-0.000324
C30	C	0.826685	-0.257780	-0.000369
C31	C	0.574386	0.160471	-0.000289
C32	C	0.501563	0.159399	-0.000302
C33	C	0.473667	0.095233	-0.000318
C34	C	0.518602	0.032134	-0.000289
C35	C	0.591424	0.033207	-0.000264
N36	N	0.365691	0.046187	-0.070015
N37	N	0.296512	0.045172	-0.070042
C38	C	0.254259	0.091995	-0.000394
N39	N	0.283795	0.139882	0.069268
N40	N	0.352980	0.140900	0.069290
C41	C	0.394705	0.094062	-0.000346
C42	C	0.130369	0.153928	-0.000429
C43	C	0.057544	0.152854	-0.000434
C44	C	0.074586	0.025586	-0.000434
C45	C	0.147409	0.026663	-0.000416
C46	C	0.175296	0.090835	-0.000419
C47	C	0.952149	0.087546	-0.000408
C48	C	1.029654	0.088687	-0.000448
C49	C	0.818993	0.220700	-0.000359
C50	C	0.820132	0.298205	-0.000365
N51	N	0.824474	0.093026	0.318476
N52	N	0.824497	0.093035	-0.319180
C53	C	0.824485	0.093035	0.569482
C54	C	0.824477	0.093032	0.429804
H55	H	0.935677	-0.710485	-0.000435
H56	H	0.183988	-0.024713	-0.000404
H57	H	0.628003	-0.018171	-0.000246
O58	O	0.954582	-0.570994	-0.000455
H59	H	0.998277	-0.614470	-0.000496
O60	O	0.604461	0.229685	-0.000283
H61	H	0.662647	0.219835	-0.000271
O62	O	0.690056	-0.535586	-0.000295
H63	H	0.701583	-0.480263	-0.000315
H64	H	0.711337	-0.235557	-0.000301
O65	O	0.687823	-0.686948	-0.000274
H66	H	0.684291	-0.719719	-0.083677
O67	O	0.958903	-0.278359	-0.000422
H68	H	1.003704	-0.246730	-0.000424
H69	H	0.495885	-0.020111	-0.000319
O70	O	0.044503	-0.043621	-0.000445
H71	H	0.062537	-0.073923	0.082978
H72	H	0.944179	-0.134365	-0.000403
H73	H	0.464977	0.210777	-0.000317
H74	H	0.713288	-0.103444	-0.000286
H75	H	0.153076	0.206181	-0.000413
H76	H	0.020966	0.204232	-0.000445
