data_functionalizedCrystal
_audit_creation_method	'MofGen! by Chris Wilmer'
_symmetry_space_group_name_H-M	'P1'
_symmetry_Int_Tables_number	1
_symmetry_cell_setting	triclinic
loop_
_symmetry_equiv_pos_as_xyz
  x,y,z
_cell_length_a	16.625546
_cell_length_b	12.759401
_cell_length_c	12.759393
_cell_angle_alpha	89.981433
_cell_angle_beta	89.963806
_cell_angle_gamma	90.021512
loop_
_atom_site_label
_atom_site_type_symbol
_atom_site_fract_x
_atom_site_fract_y
_atom_site_fract_z
Zn1	Zn	-0.320975	1.606199	-0.593950
Zn2	Zn	-0.455831	1.606069	-0.418255
Zn3	Zn	-0.321014	1.430501	-0.418289
Zn4	Zn	-0.455767	1.430465	-0.593897
O5	O	-0.388397	1.518308	-0.506098
O6	O	-0.338874	1.753202	-0.570651
O7	O	-0.437991	1.582740	-0.271239
O8	O	-0.208177	1.453876	-0.441627
O9	O	-0.437953	1.753107	-0.441570
O10	O	-0.208147	1.582961	-0.570684
O11	O	-0.338942	1.453751	-0.271263
O12	O	-0.338879	1.283475	-0.441575
O13	O	-0.437843	1.453816	-0.740925
O14	O	-0.437881	1.283449	-0.570594
O15	O	-0.338811	1.582927	-0.740964
O16	O	-0.568655	1.582706	-0.441519
O17	O	-0.568608	1.453691	-0.570561
C18	C	-0.388378	1.245341	-0.506083
C19	C	-0.388389	1.128564	-0.506102
C20	C	-0.336896	1.073745	-0.573419
C21	C	-0.336912	0.964021	-0.573425
C22	C	-0.439920	0.963945	-0.438795
C23	C	-0.439900	1.073668	-0.438784
C24	C	-0.277428	1.073788	-0.651150
C25	C	-0.277443	0.964064	-0.651156
C26	C	-0.597888	1.518209	-0.506054
C27	C	-0.687509	1.518263	-0.506070
C28	C	-1.015684	1.518446	-0.506179
C29	C	-0.924376	1.518392	-0.506152
C30	C	-0.851599	1.518353	-0.506124
C31	C	-0.760285	1.518301	-0.506098
C32	C	-0.178088	1.518437	-0.506165
C33	C	-0.088467	1.518492	-0.506193
C34	C	-0.388315	1.518382	-0.780131
C35	C	-0.388281	1.518413	-0.896908
C36	C	-0.388416	1.792342	-0.506113
C37	C	-0.388425	1.909118	-0.506119
C38	C	-0.336710	1.585650	-0.951792
C39	C	-0.336681	1.585675	-1.061516
C40	C	-0.439800	1.451223	-1.061462
C41	C	-0.439824	1.451194	-0.951740
C42	C	-0.277178	1.663279	-0.951823
C43	C	-0.277149	1.663304	-1.061548
C44	C	-0.388420	1.518296	-0.233130
C45	C	-0.388227	1.518468	-0.116354
H46	H	-0.214954	1.103566	-0.629502
N47	N	-0.299318	1.771077	-1.100989
H48	H	-0.349686	1.766383	-1.144954
H49	H	-0.253842	1.799848	-1.144942
N50	N	-0.495424	1.132797	-0.366161
H51	H	-0.528057	1.081368	-0.323519
H52	H	-0.532774	1.178337	-0.408822
H53	H	-0.214734	1.641521	-0.922074
H54	H	-0.481858	0.919235	-0.383987
H55	H	-0.299862	1.107849	-0.728385
N56	N	-0.495444	1.378653	-0.892565
H57	H	-0.532834	1.421294	-0.847024
H58	H	-0.462623	1.329986	-0.847120
N59	N	-0.198843	0.918972	-0.612739
H60	H	-0.160851	0.977887	-0.594175
H61	H	-0.174134	0.874421	-0.669692
N62	N	-0.495398	1.378738	-1.120607
H63	H	-0.528073	1.336140	-1.069186
H64	H	-0.462562	1.330149	-1.166141
H65	H	-0.294247	0.934316	-0.732490
H66	H	-0.299565	1.740546	-0.917785
N67	N	-0.198561	1.624760	-1.106670
H68	H	-0.160609	1.606121	-1.047769
H69	H	-0.173789	1.681679	-1.151263
