data_functionalizedCrystal
_audit_creation_method	'MofGen! by Chris Wilmer'
_symmetry_space_group_name_H-M	'P1'
_symmetry_Int_Tables_number	1
_symmetry_cell_setting	triclinic
loop_
_symmetry_equiv_pos_as_xyz
  x,y,z
_cell_length_a	19.077399
_cell_length_b	25.639239
_cell_length_c	19.076919
_cell_angle_alpha	87.731593
_cell_angle_beta	85.520477
_cell_angle_gamma	92.338270
loop_
_atom_site_label
_atom_site_type_symbol
_atom_site_fract_x
_atom_site_fract_y
_atom_site_fract_z
Zn1	Zn	1.061614	-0.187089	0.355385
Zn2	Zn	1.066241	-0.270867	0.237501
Zn3	Zn	0.948469	-0.187103	0.242240
Zn4	Zn	0.943667	-0.278155	0.360070
O5	O	1.004998	-0.230803	0.298799
O6	O	1.160877	-0.195146	0.335805
O7	O	1.054564	-0.256712	0.139483
O8	O	0.963551	-0.113935	0.257272
O9	O	1.164277	-0.256698	0.249196
O10	O	1.046678	-0.113924	0.340399
O11	O	0.968038	-0.195171	0.142964
O12	O	0.849183	-0.202237	0.261814
O13	O	0.955367	-0.269119	0.458095
O14	O	0.845655	-0.269132	0.348383
O15	O	1.042022	-0.202213	0.454654
O16	O	1.049908	-0.345000	0.253738
O17	O	0.959854	-0.350355	0.343788
C18	C	0.821840	-0.236478	0.306121
C19	C	0.743484	-0.238918	0.309270
C20	C	0.708485	-0.205188	0.265752
C21	C	0.634861	-0.207485	0.268710
C22	C	0.596237	-0.243511	0.315191
C23	C	0.631241	-0.277245	0.358712
C24	C	0.704864	-0.274950	0.355749
C25	C	0.375853	-0.254119	0.328874
C26	C	0.302225	-0.256411	0.331835
C27	C	0.305851	-0.186651	0.241833
C28	C	0.379475	-0.184357	0.238877
C29	C	0.414472	-0.218093	0.282395
N30	N	0.520981	-0.245860	0.318218
N31	N	0.489727	-0.215747	0.279364
C32	C	1.004881	-0.366649	0.298772
C33	C	1.004894	-0.424763	0.298781
C34	C	1.052004	-0.782321	0.251982
C35	C	1.052031	-0.836925	0.251990
O36	O	1.091964	-0.862780	0.212170
N37	N	1.005120	-0.867040	0.298841
C38	C	0.958184	-0.842549	0.345691
O39	O	0.918285	-0.873178	0.385542
C40	C	0.958161	-0.787946	0.345685
C41	C	1.005070	-0.757834	0.298827
C42	C	1.098910	-0.752209	0.205128
C43	C	1.098882	-0.697609	0.205119
C44	C	1.051948	-0.673121	0.251964
C45	C	1.005042	-0.703234	0.298818
C46	C	0.911229	-0.763456	0.392538
C47	C	0.911210	-0.708849	0.392529
C48	C	0.958119	-0.678736	0.345671
C49	C	0.958080	-0.624146	0.345654
N50	N	1.004991	-0.594031	0.298803
C51	C	1.051925	-0.618519	0.251958
C52	C	0.958237	-0.957218	0.345700
C53	C	0.958256	-1.011820	0.345702
C54	C	1.052104	-1.006192	0.252002
C55	C	1.052081	-0.951590	0.251997
C56	C	1.005147	-0.927103	0.298849
C57	C	1.051862	-0.503855	0.251943
C58	C	1.051828	-0.449250	0.251936
C59	C	0.957983	-0.454883	0.345638
C60	C	0.958014	-0.509482	0.345642
C61	C	1.004959	-0.533967	0.298792
O62	O	0.918170	-0.598255	0.385456
O63	O	1.091823	-0.587883	0.212120
C64	C	1.188871	-0.225108	0.291449
C65	C	1.267226	-0.222680	0.288317
C66	C	0.997643	-0.236477	0.482668
C67	C	0.994509	-0.238895	0.561022
C68	C	1.005134	-0.094428	0.298841
C69	C	1.005192	-0.036312	0.298859
C70	C	1.012365	-0.225113	0.115644
C71	C	1.015636	-0.222544	0.037285
C72	C	1.038151	-0.205198	0.596042
C73	C	1.035197	-0.207468	0.669664
C74	C	0.988605	-0.243438	0.708265
C75	C	0.944958	-0.277136	0.673239
C76	C	0.947909	-0.274863	0.599619
C77	C	0.974939	-0.253969	0.928639
C78	C	0.971994	-0.256240	1.002265
C79	C	1.062232	-0.186572	0.998685
C80	C	1.065181	-0.184304	0.925063
C81	C	1.021532	-0.218000	0.890044
N82	N	0.985586	-0.245760	0.783518
N83	N	1.024548	-0.215675	0.814792
H84	H	0.606368	-0.180022	0.233269
Cl85	Cl	0.582685	-0.322542	0.417135
Cl86	Cl	1.123758	-0.139083	0.876542
H87	H	0.733359	-0.302416	0.391186
H88	H	0.404339	-0.281589	0.364309
Cl89	Cl	1.110804	-0.411398	0.193024
Cl90	Cl	1.157921	-0.782983	0.146229
Cl91	Cl	0.428025	-0.139061	0.180448
Cl92	Cl	1.111055	-0.913740	0.193088
Cl93	Cl	0.899223	-0.926441	0.404600
H94	H	0.739927	-0.175848	0.227907
Cl95	Cl	0.898987	-0.424088	0.404529
Cl96	Cl	1.110879	-0.534627	0.193043
Cl97	Cl	1.157867	-0.659761	0.146218
Cl98	Cl	0.899274	-1.049669	0.404605
H99	H	1.076093	-0.175909	0.564619
H100	H	1.090322	-1.026140	0.213861
H101	H	1.070737	-0.180030	0.698174
Cl102	Cl	1.117099	-0.144211	1.042712
Cl103	Cl	0.253670	-0.301702	0.390275
Cl104	Cl	0.913412	-0.301460	1.050791
H105	H	0.939407	-0.281414	0.900135
Cl106	Cl	0.886382	-0.322354	0.721766
Cl107	Cl	0.261849	-0.144245	0.187127
H108	H	0.912363	-0.302298	0.571107
Cl109	Cl	0.852261	-0.801298	0.451458
H110	H	0.872992	-0.688915	0.430684
H111	H	0.919819	-0.534001	0.383800
