data_functionalizedCrystal
_audit_creation_method	'MofGen! by Chris Wilmer'
_symmetry_space_group_name_H-M	'P1'
_symmetry_Int_Tables_number	1
_symmetry_cell_setting	triclinic
loop_
_symmetry_equiv_pos_as_xyz
  x,y,z
_cell_length_a	11.792241
_cell_length_b	19.188924
_cell_length_c	10.868271
_cell_angle_alpha	89.992800
_cell_angle_beta	89.999893
_cell_angle_gamma	83.667690
loop_
_atom_site_label
_atom_site_type_symbol
_atom_site_fract_x
_atom_site_fract_y
_atom_site_fract_z
O1	O	1.505472	0.095695	-0.102209
O2	O	1.174983	0.105558	-0.102238
O3	O	1.349769	-0.000975	-0.102208
O4	O	1.330686	0.202229	-0.102239
O5	O	1.349755	-0.000980	0.102436
O6	O	1.174969	0.105554	0.102406
O7	O	1.505458	0.095691	0.102436
Zn8	Zn	1.340211	0.100622	0.134913
Zn9	Zn	1.340230	0.100627	-0.134715
O10	O	1.330672	0.202224	0.102406
C11	C	1.132694	0.104936	0.000081
C12	C	1.006708	0.103082	0.000070
C13	C	1.349145	-0.026992	0.000115
C14	C	1.347294	-0.104507	0.000118
C15	C	0.776047	0.099672	0.000106
C16	C	0.904404	0.101567	0.000086
C17	C	1.346438	-0.140909	-0.111434
C18	C	1.344682	-0.213741	-0.111443
C19	C	1.343806	-0.250172	0.000106
C20	C	1.344656	-0.213761	0.111673
C21	C	1.346400	-0.140929	0.111679
N22	N	1.405648	-0.369486	0.083134
N23	N	1.403994	-0.438674	0.083121
C24	C	1.338549	-0.469610	0.000093
N25	N	1.274835	-0.428747	-0.082939
N26	N	1.276495	-0.359553	-0.082929
C27	C	1.341914	-0.329146	0.000111
C28	C	1.335788	-0.584985	-0.111477
C29	C	1.334025	-0.657819	-0.111482
C30	C	1.334010	-0.657838	0.111637
C31	C	1.335761	-0.585005	0.111639
C32	C	1.336655	-0.548583	0.000078
C33	C	1.547747	0.096313	0.000114
C34	C	1.673733	0.098167	0.000117
C35	C	1.331296	0.228241	0.000080
C36	C	1.333147	0.305756	0.000068
N37	N	1.340207	0.100618	0.318927
N38	N	1.340243	0.100626	-0.318729
C39	C	1.340224	0.100626	0.569933
C40	C	1.340211	0.100623	0.430255
H41	H	1.347163	-0.111259	-0.202275
H42	H	1.333322	-0.687455	-0.202325
H43	H	1.343978	-0.243385	-0.202285
C44	C	1.336758	-0.544918	-0.234185
H45	H	1.335979	-0.577030	-0.300626
H46	H	1.403610	-0.521583	-0.238817
H47	H	1.271263	-0.511429	-0.238824
H48	H	1.336468	-0.555367	0.202477
C49	C	1.333037	-0.697901	0.234340
H50	H	1.331879	-0.746492	0.218361
H51	H	1.267149	-0.680891	0.280166
H52	H	1.399496	-0.691048	0.280186
C53	C	1.343695	-0.253831	0.234373
H54	H	1.342545	-0.302422	0.218393
H55	H	1.277808	-0.236826	0.280205
H56	H	1.410154	-0.246973	0.280215
H57	H	1.347092	-0.111291	0.202521
