data_functionalizedCrystal
_audit_creation_method	'MofGen! by Chris Wilmer'
_symmetry_space_group_name_H-M	'P1'
_symmetry_Int_Tables_number	1
_symmetry_cell_setting	triclinic
loop_
_symmetry_equiv_pos_as_xyz
  x,y,z
_cell_length_a	18.101398
_cell_length_b	12.594516
_cell_length_c	18.101389
_cell_angle_alpha	90.012519
_cell_angle_beta	90.024327
_cell_angle_gamma	90.011320
loop_
_atom_site_label
_atom_site_type_symbol
_atom_site_fract_x
_atom_site_fract_y
_atom_site_fract_z
Zn1	Zn	1.132198	-0.423988	0.418869
Zn2	Zn	1.132127	-0.601956	0.295040
Zn3	Zn	1.008357	-0.423977	0.295030
Zn4	Zn	1.008341	-0.601910	0.418829
O5	O	1.070256	-0.512958	0.356942
O6	O	1.235822	-0.447620	0.402464
O7	O	1.115686	-0.578361	0.191406
O8	O	1.024822	-0.275033	0.311470
O9	O	1.235769	-0.578372	0.311488
O10	O	1.115808	-0.275041	0.402454
O11	O	1.024753	-0.447601	0.191399
O12	O	0.904722	-0.447557	0.311431
O13	O	1.024794	-0.578294	0.522467
O14	O	0.904710	-0.578283	0.402386
O15	O	1.115791	-0.447575	0.522497
O16	O	1.115669	-0.750896	0.311449
O17	O	1.024724	-0.750862	0.402395
C18	C	0.877845	-0.512915	0.356904
C19	C	0.795531	-0.512922	0.356905
C20	C	1.070207	-0.789499	0.356935
C21	C	1.070254	-0.907804	0.356957
C22	C	0.496440	-0.512988	0.356967
C23	C	0.527748	-0.430327	0.300020
C24	C	0.613367	-0.430549	0.299777
C25	C	0.644823	-0.512954	0.356936
C26	C	0.613725	-0.625071	0.335619
C27	C	0.528080	-0.624611	0.335223
C28	C	0.528050	-0.484507	0.435364
C29	C	0.613700	-0.482010	0.434936
C30	C	0.728682	-0.512942	0.356920
C31	C	0.412581	-0.513008	0.356981
C32	C	1.020784	-0.977078	0.406388
C33	C	1.002743	-1.047918	0.338810
C34	C	1.088363	-1.047763	0.424546
C35	C	1.052177	-0.977086	0.289343
C36	C	1.137829	-0.976925	0.375124
C37	C	1.119813	-1.047733	0.307500
C38	C	1.263418	-0.513002	0.356981
C39	C	1.345732	-0.513021	0.356998
C40	C	1.070299	-0.512931	0.550104
C41	C	1.070317	-0.512919	0.632418
C42	C	1.070325	-0.235337	0.356966
C43	C	1.070354	-0.117032	0.356976
C44	C	1.070256	-0.512908	0.164532
C45	C	1.070381	-0.512619	0.082218
C46	C	1.070360	-0.512720	0.931509
C47	C	1.012909	-0.594703	0.900166
C48	C	1.013065	-0.595083	0.814547
C49	C	1.070338	-0.512819	0.783127
C50	C	1.148369	-0.543275	0.814235
C51	C	1.148049	-0.543813	0.899880
C52	C	1.050458	-0.400099	0.899926
C53	C	1.048722	-0.400749	0.814275
C54	C	1.070330	-0.512873	0.699267
C55	C	1.070373	-0.512668	1.015369
H56	H	0.634392	-0.347409	0.313138
H57	H	1.161691	-1.078562	0.265658
C58	C	1.214948	-0.934759	0.395904
C59	C	1.277847	-1.013061	0.413569
C60	C	1.354967	-0.970892	0.434359
C61	C	1.369187	-0.850421	0.437485
C62	C	1.306286	-0.772111	0.419821
C63	C	1.229167	-0.814280	0.399030
H64	H	1.267322	-1.102248	0.411255
H65	H	1.401530	-1.028863	0.447436
H66	H	1.426276	-0.819205	0.452876
H67	H	1.316812	-0.682924	0.422134
H68	H	1.182604	-0.756309	0.385954
C69	C	0.971147	-0.369712	0.786807
C70	C	0.927610	-0.445738	0.736333
C71	C	0.850034	-0.414705	0.708861
C72	C	0.815996	-0.307646	0.731865
C73	C	0.859533	-0.231613	0.782343
C74	C	0.937109	-0.262646	0.809814
H75	H	0.952807	-0.524996	0.719301
H76	H	0.817805	-0.470990	0.671494
H77	H	0.758569	-0.284674	0.711529
H78	H	0.834336	-0.152356	0.799374
H79	H	0.969338	-0.206361	0.847181
C80	C	0.934503	-0.569211	0.927967
C81	C	0.898958	-0.461207	0.909919
C82	C	0.820551	-0.435709	0.937728
C83	C	0.777688	-0.518215	0.983585
C84	C	0.813233	-0.626227	1.001635
C85	C	0.891640	-0.651725	0.973827
H86	H	0.930688	-0.400124	0.875971
H87	H	0.794239	-0.355751	0.924365
H88	H	0.719646	-0.499340	1.004170
H89	H	0.781503	-0.687309	1.035583
H90	H	0.917953	-0.731682	0.987189
H91	H	1.103640	-1.078808	0.481697
C92	C	0.499941	-0.317663	0.317864
C93	C	0.448462	-0.299334	0.384361
C94	C	0.420651	-0.186666	0.402208
C95	C	0.444317	-0.092325	0.353557
C96	C	0.495799	-0.110651	0.287055
C97	C	0.523610	-0.223319	0.269209
H98	H	0.430940	-0.369173	0.420379
H99	H	0.382540	-0.173101	0.451437
H100	H	0.423729	-0.008921	0.366768
H101	H	0.513321	-0.040812	0.251037
H102	H	0.561720	-0.236885	0.219980
H103	H	0.635115	-0.537830	0.479639
H104	H	0.955202	-0.576024	0.793513
H105	H	0.978875	-0.946053	0.448129
H106	H	1.164918	-0.626141	0.919869
C107	C	0.925602	-1.090045	0.318054
C108	C	0.891046	-1.060617	0.243052
C109	C	0.813903	-1.102736	0.222302
C110	C	0.771315	-1.174285	0.276553
C111	C	0.805871	-1.203717	0.351559
C112	C	0.883014	-1.161597	0.372310
H113	H	0.922572	-1.007649	0.202888
H114	H	0.788322	-1.080948	0.166777
H115	H	0.714209	-1.205465	0.261192
H116	H	0.774345	-1.256685	0.391723
H117	H	0.908595	-1.183386	0.427834
H118	H	1.026206	-0.678562	0.794071
C119	C	1.207756	-0.465153	0.786742
C120	C	1.288863	-0.479611	0.810387
C121	C	1.348249	-0.401488	0.782892
C122	C	1.326529	-0.308908	0.731754
C123	C	1.245418	-0.294446	0.708106
C124	C	1.186032	-0.372569	0.735600
H125	H	1.304945	-0.548148	0.848245
H126	H	1.408293	-0.412195	0.800398
H127	H	1.370490	-0.251077	0.711401
H128	H	1.229336	-0.225909	0.670248
H129	H	1.125989	-0.361862	0.718095
C130	C	1.171555	-0.653316	0.785285
C131	C	1.119828	-0.715631	0.733459
C132	C	1.143009	-0.825675	0.704512
C133	C	1.217918	-0.873403	0.727389
C134	C	1.269650	-0.811087	0.779217
C135	C	1.246469	-0.701043	0.808165
H136	H	1.064372	-0.680301	0.716522
H137	H	1.104713	-0.871806	0.666145
H138	H	1.235078	-0.954864	0.705960
H139	H	1.325106	-0.846418	0.796155
H140	H	1.284765	-0.654913	0.846532
C141	C	0.501044	-0.657234	0.257799
C142	C	0.452282	-0.756509	0.248285
C143	C	0.425251	-0.789130	0.170858
C144	C	0.446981	-0.722475	0.102945
C145	C	0.495745	-0.623194	0.112457
C146	C	0.522777	-0.590573	0.189884
H147	H	0.436194	-0.805857	0.298559
H148	H	0.389152	-0.862624	0.163816
H149	H	0.426970	-0.746623	0.045629
H150	H	0.511833	-0.573846	0.062182
H151	H	0.558876	-0.517078	0.196925
H152	H	1.036835	-0.946169	0.232176
C153	C	0.641158	-0.370553	0.456662
C154	C	0.585192	-0.281062	0.471711
C155	C	0.612654	-0.169604	0.493437
C156	C	0.696082	-0.147638	0.500113
C157	C	0.752053	-0.237131	0.485063
C158	C	0.724591	-0.348589	0.463337
H159	H	0.523429	-0.297320	0.466769
H160	H	0.571220	-0.103356	0.504577
H161	H	0.716411	-0.065130	0.516195
H162	H	0.813816	-0.220873	0.490005
H163	H	0.766025	-0.414837	0.452197
C164	C	1.030480	-0.706792	0.929249
C165	C	1.096710	-0.724132	0.981285
C166	C	1.114283	-0.836220	1.010370
C167	C	1.065626	-0.930969	0.987418
C168	C	0.999392	-0.913632	0.935380
C169	C	0.981819	-0.801544	0.906295
H170	H	1.132733	-0.653990	0.998277
H171	H	1.163314	-0.849053	1.048892
H172	H	1.078635	-1.013943	1.008949
H173	H	0.963370	-0.983774	0.918387
H174	H	0.932788	-0.788711	0.867772
H175	H	0.506463	-0.404176	0.454747
H176	H	0.507804	-0.544714	0.477795
H177	H	1.192306	-0.486693	0.920616
C178	C	1.101125	-0.313847	0.785383
C179	C	1.070203	-0.220543	0.739932
C180	C	1.122614	-0.133645	0.711040
C181	C	1.205946	-0.140051	0.727599
C182	C	1.236872	-0.233359	0.773053
C183	C	1.184461	-0.320257	0.801945
H184	H	1.008512	-0.215797	0.727672
H185	H	1.099720	-0.064572	0.677392
H186	H	1.244743	-0.075725	0.706211
H187	H	1.298563	-0.238105	0.785313
H188	H	1.207355	-0.389330	0.835593
H189	H	0.506202	-0.448941	0.242266
C190	C	0.641254	-0.710509	0.389892
C191	C	0.724666	-0.730964	0.398686
C192	C	0.752197	-0.816399	0.452960
C193	C	0.696316	-0.881380	0.498440
C194	C	0.612899	-0.860927	0.489648
C195	C	0.585368	-0.775491	0.435374
H196	H	0.766037	-0.682859	0.365018
H197	H	0.813948	-0.831539	0.459468
H198	H	0.716696	-0.944624	0.538617
H199	H	0.571528	-0.909031	0.523317
H200	H	0.523617	-0.760351	0.428866
H201	H	0.994546	-0.372353	0.921510
H202	H	1.092302	-0.339017	0.920197
H203	H	0.633824	-0.449376	0.241685
H204	H	0.635144	-0.649646	0.278926
C205	C	0.500091	-0.710638	0.388801
C206	C	0.520919	-0.827783	0.376164
C207	C	0.492933	-0.913814	0.429734
C208	C	0.444118	-0.882699	0.495941
C209	C	0.423288	-0.765548	0.508580
C210	C	0.451274	-0.679517	0.455010
H211	H	0.557057	-0.850821	0.327152
H212	H	0.508353	-1.000537	0.420378
H213	H	0.423401	-0.946384	0.535596
H214	H	0.387150	-0.742509	0.557592
H215	H	0.435854	-0.592794	0.464366
