data_functionalizedCrystal
_audit_creation_method	'MofGen! by Chris Wilmer'
_symmetry_space_group_name_H-M	'P1'
_symmetry_Int_Tables_number	1
_symmetry_cell_setting	triclinic
loop_
_symmetry_equiv_pos_as_xyz
  x,y,z
_cell_length_a	12.827893
_cell_length_b	16.120507
_cell_length_c	12.827885
_cell_angle_alpha	92.861764
_cell_angle_beta	90.019272
_cell_angle_gamma	87.066230
loop_
_atom_site_label
_atom_site_type_symbol
_atom_site_fract_x
_atom_site_fract_y
_atom_site_fract_z
Zn1	Zn	1.576443	0.331868	0.611880
Zn2	Zn	2.076443	0.831868	1.111880
Zn3	Zn	1.567419	0.471303	0.445976
Zn4	Zn	2.067419	0.971303	0.945976
Zn5	Zn	1.401682	0.331908	0.437156
Zn6	Zn	1.901682	0.831908	0.937156
Zn7	Zn	1.392755	0.471241	0.620672
Zn8	Zn	1.892755	0.971241	1.120672
O9	O	1.484575	0.401580	0.528921
O10	O	1.984575	0.901580	1.028921
O11	O	1.721481	0.350373	0.589884
O12	O	2.221481	0.850373	1.089884
O13	O	1.545392	0.452855	0.298573
O14	O	2.045392	0.952855	0.798573
O15	O	1.432377	0.215237	0.452962
O16	O	1.932377	0.715237	0.952962
O17	O	1.714851	0.452816	0.467995
O18	O	2.214851	0.952816	0.967995
O19	O	1.560773	0.215207	0.581331
O20	O	2.060773	0.715207	1.081331
O21	O	1.423626	0.350442	0.292092
O22	O	1.923626	0.850442	0.792092
O23	O	1.254262	0.350382	0.461488
O24	O	1.754262	0.850382	0.961488
O25	O	1.417163	0.452710	0.765739
O26	O	1.917163	0.952710	1.265739
O27	O	1.247704	0.452750	0.596317
O28	O	1.747704	0.952750	1.096317
O29	O	1.552117	0.350313	0.759279
O30	O	2.052117	0.850313	1.259279
O31	O	1.536736	0.587961	0.476521
O32	O	2.036736	1.087961	0.976521
O33	O	1.408412	0.587915	0.604870
O34	O	1.908412	1.087915	1.104870
C35	C	1.213066	0.401564	0.528900
C36	C	1.713066	0.901564	1.028900
C37	C	1.096912	0.401577	0.528917
C38	C	1.596912	0.901577	1.028917
C39	C	1.041904	0.452311	0.595542
C40	C	1.541904	0.952311	1.095542
C41	C	0.921853	0.452326	0.595561
C42	C	1.421853	0.952326	1.095561
C43	C	1.470655	0.618188	0.542629
C44	C	1.970655	1.118188	1.042629
C45	C	1.464795	0.710854	0.548529
C46	C	1.964795	1.210854	1.048529
C47	C	1.515066	0.921799	0.498479
C48	C	2.015066	1.421799	0.998479
C49	C	1.454117	0.880511	0.559311
C50	C	1.954117	1.380511	1.059311
C51	C	1.460060	0.786105	0.553310
C52	C	1.960060	1.286105	1.053310
C53	C	1.509124	1.016213	0.504478
C54	C	2.009124	1.516213	1.004478
C55	C	1.757144	0.401597	0.528943
C56	C	2.257144	0.901597	1.028943
C57	C	1.873296	0.401604	0.528952
C58	C	2.373296	0.901604	1.028952
C59	C	1.484651	0.401500	0.801486
C60	C	1.984651	0.901500	1.301486
C61	C	1.484683	0.401466	0.917637
C62	C	1.984683	0.901466	1.417637
C63	C	1.498537	1.184126	0.515166
C64	C	1.998537	1.684126	1.015166
C65	C	1.504384	1.091460	0.509264
C66	C	2.004384	1.591460	1.009264
C67	C	1.484563	0.401600	0.257412
C68	C	1.984563	0.901600	0.757412
C69	C	1.484748	0.401399	0.141247
C70	C	1.984748	0.901399	0.641247
C71	C	1.551471	0.350787	0.966225
C72	C	2.051471	0.850787	1.466225
C73	C	1.551506	0.350750	1.086273
C74	C	2.051506	0.850750	1.586273
H75	H	1.083688	0.495732	0.652571
H76	H	1.583688	0.995732	1.152571
H77	H	1.608620	0.307422	0.918947
H78	H	2.108620	0.807422	1.418947
H79	H	1.427569	0.444793	1.099458
H80	H	1.927569	0.944793	1.599458
H81	H	0.874560	0.495763	0.652598
H82	H	1.374560	0.995763	1.152598
H83	H	1.608688	0.307365	1.128070
H84	H	2.108688	0.807365	1.628070
H85	H	1.055128	0.358150	0.471896
H86	H	1.555128	0.858150	0.971896
Cl87	Cl	0.946300	0.334542	0.440873
Cl88	Cl	1.446300	0.834542	0.940873
Cl89	Cl	1.366658	0.935398	0.646673
Cl90	Cl	1.866658	1.435398	1.146673
Cl91	Cl	1.602512	0.866911	0.411115
Cl92	Cl	2.102512	1.366911	0.911115
H93	H	1.427524	0.444822	0.964914
H94	H	1.927524	0.944822	1.464914
