data_functionalizedCrystal
_audit_creation_method	'MofGen! by Chris Wilmer'
_symmetry_space_group_name_H-M	'P1'
_symmetry_Int_Tables_number	1
_symmetry_cell_setting	triclinic
loop_
_symmetry_equiv_pos_as_xyz
  x,y,z
_cell_length_a	12.759401
_cell_length_b	21.295417
_cell_length_c	12.759393
_cell_angle_alpha	89.961877
_cell_angle_beta	89.980387
_cell_angle_gamma	90.029933
loop_
_atom_site_label
_atom_site_type_symbol
_atom_site_fract_x
_atom_site_fract_y
_atom_site_fract_z
Zn1	Zn	1.606146	-0.250568	-0.593965
Zn2	Zn	1.605994	-0.355852	-0.418265
Zn3	Zn	1.430448	-0.250601	-0.418301
Zn4	Zn	1.430390	-0.355804	-0.593903
O5	O	1.518245	-0.303206	-0.506108
O6	O	1.753147	-0.264541	-0.570669
O7	O	1.582668	-0.341925	-0.271248
O8	O	1.453842	-0.162507	-0.441644
O9	O	1.753035	-0.341892	-0.441583
O10	O	1.582927	-0.162483	-0.570704
O11	O	1.453695	-0.264597	-0.271275
O12	O	1.283419	-0.264550	-0.441584
O13	O	1.453744	-0.341810	-0.740932
O14	O	1.283377	-0.341842	-0.570598
O15	O	1.582871	-0.264494	-0.740978
O16	O	1.582613	-0.443935	-0.441523
O17	O	1.453597	-0.443900	-0.570563
C18	C	1.518111	-0.466758	-0.506055
C19	C	1.518150	-0.536726	-0.506067
C20	C	1.245277	-0.303195	-0.506089
C21	C	1.128501	-0.303205	-0.506105
C22	C	1.073584	-0.343418	-0.438798
C23	C	0.963860	-0.343429	-0.438817
C24	C	0.963979	-0.263009	-0.573451
C25	C	1.073701	-0.263002	-0.573438
C26	C	1.128384	-0.383621	-0.371466
C27	C	1.073468	-0.423837	-0.304153
C28	C	0.963744	-0.423847	-0.304171
C29	C	0.908936	-0.383643	-0.371502
C30	C	1.585325	-0.569523	-0.573317
C31	C	1.585363	-0.635265	-0.573343
C32	C	1.518235	-0.668209	-0.506101
C33	C	1.451046	-0.635404	-0.438846
C34	C	1.451003	-0.569663	-0.438830
N35	N	1.510296	-0.771478	-0.414154
N36	N	1.510342	-0.833929	-0.414173
C37	C	1.518357	-0.866283	-0.506148
N38	N	1.526345	-0.833827	-0.598106
N39	N	1.526304	-0.771369	-0.598086
C40	C	1.518273	-0.739494	-0.506111
C41	C	1.585577	-0.970366	-0.573431
C42	C	1.585607	-1.036109	-0.573459
C43	C	1.451296	-1.036247	-0.438953
C44	C	1.451260	-0.970504	-0.438935
C45	C	1.518407	-0.937568	-0.506172
C46	C	1.792278	-0.303218	-0.506129
C47	C	1.909054	-0.303223	-0.506137
C48	C	1.518318	-0.303143	-0.780142
C49	C	1.518350	-0.303116	-0.896918
C50	C	1.518408	-0.139016	-0.506185
C51	C	1.518477	-0.069048	-0.506217
C52	C	1.585595	-0.262853	-0.951806
C53	C	1.585620	-0.262831	-1.061530
C54	C	1.451151	-0.343338	-1.061470
C55	C	1.451122	-0.343357	-0.951748
C56	C	1.652823	-0.222612	-0.896977
C57	C	1.720075	-0.182347	-0.951864
C58	C	1.720100	-0.182324	-1.061589
C59	C	1.652873	-0.222567	-1.116425
C60	C	1.518232	-0.303224	-0.233141
C61	C	1.518404	-0.303074	-0.116365
H62	H	1.217727	-0.383616	-0.371441
N63	N	1.652909	-0.222552	-1.228506
N64	N	1.674834	-0.271648	-1.277452
H65	H	1.674864	-0.271640	-1.356608
H66	H	1.396632	-1.063068	-0.384210
H67	H	1.396348	-0.376133	-0.907057
H68	H	1.640249	-0.943548	-0.628183
H69	H	1.774802	-0.149579	-0.907209
N70	N	1.382636	-0.937009	-0.370232
N71	N	1.322700	-0.966427	-0.310202
H72	H	1.274227	-0.942772	-0.261679
H73	H	1.639997	-0.542708	-0.628068
H74	H	1.640309	-1.062811	-0.628226
N75	N	1.788772	-0.141185	-1.117657
N76	N	1.781861	-0.083101	-1.105433
H77	H	1.830365	-0.054046	-1.145030
N78	N	1.129463	-0.464905	-0.235397
N79	N	1.227428	-0.464892	-0.235390
H80	H	1.266975	-0.493898	-0.186831
N81	N	0.907663	-0.464935	-0.235422
N82	N	0.956608	-0.500828	-0.175317
H83	H	0.917004	-0.529846	-0.126758
N84	N	1.382490	-0.384437	-1.117497
N85	N	1.382527	-0.384414	-1.215462
H86	H	1.334035	-0.413441	-1.255032
N87	N	0.796855	-0.383668	-0.371519
N88	N	0.747832	-0.419579	-0.311424
H89	H	0.668676	-0.419596	-0.311432
N90	N	0.907981	-0.221949	-0.642219
N91	N	0.810016	-0.221962	-0.642221
H92	H	0.770467	-0.192962	-0.690788
N93	N	1.652803	-0.222620	-0.784898
N94	N	1.630893	-0.173523	-0.735951
H95	H	1.630880	-0.173529	-0.656795
N96	N	1.653976	-0.668785	-0.642035
N97	N	1.617006	-0.705460	-0.708959
H98	H	1.665464	-0.729133	-0.757473
N99	N	1.129787	-0.221922	-0.642195
N100	N	1.080850	-0.186025	-0.702299
H101	H	1.120460	-0.157012	-0.750862
H102	H	1.396388	-0.662230	-0.384100
H103	H	1.396299	-0.542959	-0.384066
