data_functionalizedCrystal
_audit_creation_method	'MofGen! by Chris Wilmer'
_symmetry_space_group_name_H-M	'P1'
_symmetry_Int_Tables_number	1
_symmetry_cell_setting	triclinic
loop_
_symmetry_equiv_pos_as_xyz
  x,y,z
_cell_length_a	21.295419
_cell_length_b	21.295417
_cell_length_c	19.805399
_cell_angle_alpha	89.970204
_cell_angle_beta	89.981377
_cell_angle_gamma	90.044503
loop_
_atom_site_label
_atom_site_type_symbol
_atom_site_fract_x
_atom_site_fract_y
_atom_site_fract_z
Zn1	Zn	0.962322	-0.250375	-0.382692
Zn2	Zn	0.962237	-0.355644	-0.269500
Zn3	Zn	0.857056	-0.250420	-0.269519
Zn4	Zn	0.857016	-0.355638	-0.382648
O5	O	0.909658	-0.303019	-0.326090
O6	O	1.050400	-0.264323	-0.367687
O7	O	0.948266	-0.341707	-0.174785
O8	O	0.871073	-0.162324	-0.284558
O9	O	1.050338	-0.341664	-0.284525
O10	O	0.948411	-0.162292	-0.367706
O11	O	0.870990	-0.264399	-0.174800
O12	O	0.768962	-0.264393	-0.284515
O13	O	0.871004	-0.341653	-0.477371
O14	O	0.768932	-0.341696	-0.367631
O15	O	0.948372	-0.264317	-0.477403
O16	O	0.948227	-0.443733	-0.284483
O17	O	0.870922	-0.443728	-0.367612
C18	C	0.746106	-0.303049	-0.326071
C19	C	0.676138	-0.303077	-0.326079
C20	C	0.643327	-0.262872	-0.369448
C21	C	0.577584	-0.262855	-0.369451
C22	C	0.544656	-0.303055	-0.326091
C23	C	0.577475	-0.343263	-0.282713
C24	C	0.643217	-0.343274	-0.282707
N25	N	0.441382	-0.358133	-0.320802
N26	N	0.378930	-0.358120	-0.320812
C27	C	0.346581	-0.303022	-0.326106
N28	N	0.379043	-0.247936	-0.331403
N29	N	0.441500	-0.247949	-0.331397
C30	C	0.473370	-0.303047	-0.326092
C31	C	0.242484	-0.262795	-0.369480
C32	C	0.176740	-0.262777	-0.369478
C33	C	0.176633	-0.343191	-0.282744
C34	C	0.242375	-0.343203	-0.282743
C35	C	0.275297	-0.303006	-0.326115
C36	C	0.909578	-0.466571	-0.326055
C37	C	0.909601	-0.536539	-0.326063
C38	C	0.949848	-0.569331	-0.369390
C39	C	0.949870	-0.635074	-0.369406
C40	C	0.909652	-0.668021	-0.326085
C41	C	0.869397	-0.635221	-0.282755
C42	C	0.869372	-0.569480	-0.282745
N43	N	0.904898	-0.771284	-0.266849
N44	N	0.904926	-0.833735	-0.266861
C45	C	0.909726	-0.866096	-0.326115
N46	N	0.914508	-0.833646	-0.385358
N47	N	0.914484	-0.771189	-0.385345
C48	C	0.909675	-0.739307	-0.326092
C49	C	0.949999	-0.970174	-0.369463
C50	C	0.950017	-1.035918	-0.369481
C51	C	0.869547	-1.036064	-0.282824
C52	C	0.869526	-0.970321	-0.282812
C53	C	0.909755	-0.937380	-0.326131
C54	C	1.073848	-0.302989	-0.326109
C55	C	1.143816	-0.302977	-0.326117
C56	C	0.909693	-0.302979	-0.502632
C57	C	0.909708	-0.302963	-0.577864
C58	C	0.909756	-0.138829	-0.326139
C59	C	0.909797	-0.068861	-0.326160
C60	C	0.949995	-0.262692	-0.613227
C61	C	0.950001	-0.262674	-0.683915
C62	C	0.909724	-0.302930	-0.719240
C63	C	0.869433	-0.343202	-0.683873
C64	C	0.869424	-0.343217	-0.613186
C65	C	0.869469	-0.343144	-0.968947
C66	C	0.869482	-0.343127	-1.039639
C67	C	0.950046	-0.262600	-1.039676
C68	C	0.950037	-0.262615	-0.968988
C69	C	0.909744	-0.302885	-0.933628
C70	C	0.909737	-0.302903	-0.856979
C71	C	0.909734	-0.302915	-0.795887
C72	C	0.909659	-0.303013	-0.150234
C73	C	0.909766	-0.302853	-0.075002
H74	H	0.670128	-0.230140	-0.404764
H75	H	0.550864	-0.230112	-0.404766
C76	C	0.476650	-0.378958	-0.244221
C77	C	0.541283	-0.387454	-0.235054
H78	H	0.454308	-0.406243	-0.214798
H79	H	0.465914	-0.336654	-0.234398
H80	H	0.465893	-0.388225	-0.289684
H81	H	0.552040	-0.378182	-0.189592
H82	H	0.552023	-0.429767	-0.244872
H83	H	0.982808	-0.229882	-0.712704
C84	C	0.183454	-0.183305	-0.455221
C85	C	0.140671	-0.218580	-0.417154
H86	H	0.161185	-0.156023	-0.484657
H87	H	0.209108	-0.159194	-0.425780
H88	H	0.209079	-0.210778	-0.481051
H89	H	0.115049	-0.191107	-0.391320
H90	H	0.115007	-0.242693	-0.446599
H91	H	0.269290	-0.230060	-0.404792
H92	H	0.836796	-1.062889	-0.247555
H93	H	0.836650	-0.662051	-0.247484
H94	H	0.669931	-0.376015	-0.247389
C95	C	0.075812	-0.378884	-0.244248
C96	C	0.140445	-0.387382	-0.235084
H97	H	0.053471	-0.406169	-0.214825
H98	H	0.065078	-0.336580	-0.234422
H99	H	0.065053	-0.388149	-0.289710
H100	H	0.151205	-0.378113	-0.189623
H101	H	0.151184	-0.429695	-0.244905
H102	H	0.982852	-0.229808	-1.068475
H103	H	0.836681	-0.375910	-1.068398
H104	H	0.269091	-0.375945	-0.247429
C105	C	1.029394	-0.575796	-0.455043
C106	C	0.994064	-0.533124	-0.417009
H107	H	1.056687	-0.553440	-0.484444
H108	H	1.053496	-0.601425	-0.425579
H109	H	1.001957	-0.601455	-0.480910
H110	H	1.021501	-0.507468	-0.391139
H111	H	0.969959	-0.507483	-0.446477
C112	C	0.980750	-0.156019	-0.947272
C113	C	0.994308	-0.218358	-0.930164
H114	H	1.008079	-0.128695	-0.923302
H115	H	0.986522	-0.150256	-0.994427
H116	H	0.938457	-0.146829	-0.935678
H117	H	1.036600	-0.227550	-0.941763
H118	H	0.988541	-0.224125	-0.882999
C119	C	0.958594	-0.708948	-0.460465
C120	C	0.994111	-0.671134	-0.417032
H121	H	0.985906	-0.731207	-0.489868
H122	H	0.934645	-0.737968	-0.434663
H123	H	0.931150	-0.683310	-0.486327
H124	H	1.021551	-0.696773	-0.391165
H125	H	1.018070	-0.642111	-0.442836
C126	C	0.789793	-0.422801	-0.676731
C127	C	0.825158	-0.387453	-0.722700
H128	H	0.762458	-0.450118	-0.700702
H129	H	0.817201	-0.446879	-0.649159
H130	H	0.765728	-0.395377	-0.649164
H131	H	0.849227	-0.414877	-0.750264
H132	H	0.797747	-0.363373	-0.750284
C133	C	0.789834	-0.576229	-0.197091
C134	C	0.825133	-0.533430	-0.235113
H135	H	0.762527	-0.553971	-0.167681
H136	H	0.765748	-0.601876	-0.226562
H137	H	0.817290	-0.601858	-0.171234
H138	H	0.797677	-0.507804	-0.260974
H139	H	0.849221	-0.507772	-0.205638
C140	C	0.789821	-0.422727	-0.976020
C141	C	0.825172	-0.387400	-0.930084
H142	H	0.762473	-0.450049	-0.952024
H143	H	0.765777	-0.395294	-1.003601
H144	H	0.817242	-0.446804	-1.003581
H145	H	0.797751	-0.363319	-0.902526
H146	H	0.849218	-0.414836	-0.902491
H147	H	0.836612	-0.376003	-0.584395
H148	H	0.982754	-0.943352	-0.404738
H149	H	0.982791	-1.062616	-0.404765
C150	C	0.789997	-0.977071	-0.197152
C151	C	0.825293	-0.934271	-0.235177
H152	H	0.762691	-0.954814	-0.167741
H153	H	0.765910	-1.002719	-0.226622
H154	H	0.817456	-1.002699	-0.171298
H155	H	0.797834	-0.908646	-0.261036
H156	H	0.849381	-0.908613	-0.205704
H157	H	0.982795	-0.229912	-0.584470
