data_functionalizedCrystal
_audit_creation_method	'MofGen! by Chris Wilmer'
_symmetry_space_group_name_H-M	'P1'
_symmetry_Int_Tables_number	1
_symmetry_cell_setting	triclinic
loop_
_symmetry_equiv_pos_as_xyz
  x,y,z
_cell_length_a	13.262390
_cell_length_b	19.188924
_cell_length_c	12.376457
_cell_angle_alpha	101.235232
_cell_angle_beta	63.168449
_cell_angle_gamma	83.812011
loop_
_atom_site_label
_atom_site_type_symbol
_atom_site_fract_x
_atom_site_fract_y
_atom_site_fract_z
O1	O	1.512328	0.014816	-0.558985
O2	O	1.185081	0.039301	-0.458374
O3	O	1.358149	-0.074964	-0.511570
O4	O	1.339260	0.129080	-0.505789
O5	O	1.314898	-0.046435	-0.310264
O6	O	1.141829	0.067830	-0.257067
O7	O	1.469077	0.043345	-0.357679
Zn8	Zn	1.298586	0.060117	-0.275411
Zn9	Zn	1.355572	0.022529	-0.540641
O10	O	1.296008	0.157609	-0.304483
C11	C	1.121588	0.054817	-0.344849
C12	C	0.996838	0.058537	-0.306494
C13	C	0.739506	0.006806	-0.637326
C14	C	0.856716	0.003307	-0.673364
C15	C	0.891753	0.017114	-0.581649
C16	C	0.809567	0.034421	-0.453891
C17	C	0.692346	0.037915	-0.417849
C18	C	0.844593	0.048223	-0.362173
C19	C	0.762407	0.065529	-0.234414
C20	C	0.645199	0.069023	-0.198379
C21	C	0.610162	0.055216	-0.290093
C22	C	0.961814	0.044729	-0.398214
C23	C	0.914654	0.075838	-0.178738
C24	C	0.797444	0.079337	-0.142700
C25	C	1.335913	-0.086687	-0.410728
C26	C	1.334079	-0.164119	-0.410161
C27	C	1.356800	-0.216036	-0.519631
C28	C	1.355064	-0.288793	-0.519105
C29	C	1.330628	-0.309631	-0.409112
C30	C	1.307898	-0.257703	-0.299626
C31	C	1.309623	-0.184947	-0.300151
N32	N	1.374322	-0.420106	-0.346271
N33	N	1.372687	-0.489223	-0.345781
C34	C	1.325425	-0.528839	-0.407523
N35	N	1.279878	-0.496732	-0.469797
N36	N	1.281519	-0.427611	-0.470292
C37	C	1.328753	-0.388521	-0.408530
C38	C	1.346263	-0.659647	-0.516430
C39	C	1.344519	-0.732404	-0.515898
C40	C	1.297363	-0.701313	-0.296418
C41	C	1.299097	-0.628558	-0.296950
C42	C	1.323553	-0.607730	-0.406961
C43	C	1.532570	0.027828	-0.471207
C44	C	1.657322	0.024107	-0.509570
C45	C	1.318246	0.169331	-0.405328
C46	C	1.320081	0.246763	-0.405902
N47	N	1.259703	0.085769	-0.094402
N48	N	1.394464	-0.003130	-0.721654
C49	C	1.484724	-0.062690	0.191418
C50	C	1.511932	-0.080644	0.064716
C51	C	1.448877	-0.039043	0.024930
C52	C	1.358609	0.020516	0.111860
C53	C	1.331405	0.038475	0.238573
C54	C	1.295557	0.062123	0.072085
C55	C	1.205290	0.121682	0.159015
C56	C	1.178089	0.139638	0.285715
C57	C	1.241144	0.098036	0.325501
C58	C	1.322762	0.044164	-0.054629
C59	C	1.169443	0.145330	-0.007474
C60	C	1.142235	0.163283	0.119229
H61	H	0.987192	0.014265	-0.611000
H62	H	1.396258	-0.004329	-0.125397
H63	H	0.578287	0.083102	-0.094350
H64	H	1.291116	-0.142674	-0.211003
Br65	Br	0.968246	-0.020184	-0.846743
Br66	Br	0.691959	-0.011973	-0.761782
Br67	Br	1.570304	-0.119137	0.245411
H68	H	0.943179	0.087080	-0.104056
H69	H	1.118099	0.179207	-0.039866
Br70	Br	1.375345	-0.802864	-0.664473
Br71	Br	1.379446	-0.631376	-0.665724
H72	H	0.514722	0.058066	-0.260757
H73	H	1.373560	-0.331070	-0.608249
Br74	Br	1.264188	-0.729584	-0.147134
H75	H	1.280604	-0.586286	-0.207811
H76	H	1.068737	0.211778	0.190022
H77	H	1.218989	0.112652	0.428673
Br78	Br	1.055601	0.220476	0.403689
Br79	Br	1.485801	-0.063409	-0.147027
Br80	Br	1.274720	-0.285980	-0.150342
Br81	Br	1.073337	0.021241	-0.571595
Br82	Br	1.389985	-0.187773	-0.668928
Br83	Br	0.685895	0.102825	0.030683
H84	H	1.585428	-0.129136	-0.006058
