data_functionalizedCrystal
_audit_creation_method	'MofGen! by Chris Wilmer'
_symmetry_space_group_name_H-M	'P1'
_symmetry_Int_Tables_number	1
_symmetry_cell_setting	triclinic
loop_
_symmetry_equiv_pos_as_xyz
  x,y,z
_cell_length_a	27.731994
_cell_length_b	27.732064
_cell_length_c	16.053802
_cell_angle_alpha	92.548353
_cell_angle_beta	87.446826
_cell_angle_gamma	82.634978
loop_
_atom_site_label
_atom_site_type_symbol
_atom_site_fract_x
_atom_site_fract_y
_atom_site_fract_z
O1	O	0.642998	0.055345	-0.069303
O2	O	0.502203	0.064117	-0.069330
O3	O	0.576969	-0.010666	-0.069319
O4	O	0.568232	0.130128	-0.069314
O5	O	0.572854	-0.006567	0.069539
O6	O	0.498087	0.068216	0.069528
O7	O	0.638883	0.059444	0.069555
Zn8	Zn	0.567832	0.064481	0.091588
Zn9	Zn	0.573254	0.059080	-0.091363
O10	O	0.564117	0.134227	0.069544
C11	C	0.574727	-0.026624	0.000107
C12	C	0.574171	-0.080278	0.000100
C13	C	0.482138	0.065986	0.000096
C14	C	0.428482	0.065444	0.000085
C15	C	0.526203	-0.457342	0.000087
C16	C	0.528250	-0.255682	0.000087
O17	O	0.491029	-0.224423	0.000046
N18	N	0.572585	-0.236563	0.000095
C19	C	0.616412	-0.267862	0.000098
O20	O	0.654169	-0.246974	0.000096
C21	C	0.614365	-0.469522	0.000093
C22	C	0.570027	-0.488637	0.000093
C23	C	0.481869	-0.476458	0.000086
C24	C	0.481357	-0.526870	0.000091
C25	C	0.525181	-0.558166	0.000097
C26	C	0.569515	-0.539049	0.000097
C27	C	0.658192	-0.500820	0.000090
C28	C	0.657676	-0.551238	0.000086
C29	C	0.613338	-0.570354	0.000086
C30	C	0.612828	-0.620757	0.000108
N31	N	0.568492	-0.639876	0.000099
C32	C	0.524669	-0.608580	0.000094
C33	C	0.617483	-0.161988	0.000102
C34	C	0.617995	-0.111574	0.000105
C35	C	0.529832	-0.099397	0.000092
C36	C	0.529321	-0.149812	0.000095
C37	C	0.573148	-0.181107	0.000094
C38	C	0.523599	-0.714449	0.000105
C39	C	0.523091	-0.764866	0.000113
C40	C	0.611253	-0.777039	0.000121
C41	C	0.611761	-0.726626	0.000117
C42	C	0.567930	-0.695332	0.000106
O43	O	0.650029	-0.652044	0.000139
O44	O	0.486918	-0.629479	0.000077
C45	C	0.526714	-0.406930	0.000083
C46	C	0.571049	-0.387814	0.000083
C47	C	0.614873	-0.419109	0.000089
C48	C	0.571561	-0.337399	0.000086
C49	C	0.527737	-0.306104	0.000081
C50	C	0.483402	-0.325223	0.000072
C51	C	0.482891	-0.375635	0.000077
C52	C	0.659208	-0.399990	0.000097
C53	C	0.659716	-0.349578	0.000093
C54	C	0.615892	-0.318282	0.000088
C55	C	0.093519	0.064263	0.075809
C56	C	-0.108140	0.062202	0.075818
O57	O	-0.136120	0.063815	0.140191
N58	N	-0.131111	0.059711	0.000127
C59	C	-0.103665	0.057733	-0.075573
O60	O	-0.127830	0.055562	-0.139953
C61	C	0.097993	0.059791	-0.075581
C62	C	0.120962	0.062286	0.000115
C63	C	0.116487	0.066758	0.151499
C64	C	0.166899	0.067276	0.151496
C65	C	0.194341	0.065299	0.075803
C66	C	0.171373	0.062804	0.000112
C67	C	0.125440	0.057809	-0.151280
C68	C	0.175857	0.058322	-0.151275
C69	C	0.198825	0.060818	-0.075578
C70	C	0.249227	0.061345	-0.075584
N71	N	0.272199	0.063836	0.000107
C72	C	0.244756	0.065813	0.075801
C73	C	-0.209538	0.056654	-0.075563
C74	C	-0.259953	0.056140	-0.075561
C75	C	-0.264424	0.060608	0.075830
C76	C	-0.214009	0.061125	0.075828
C77	C	-0.186567	0.059144	0.000129
C78	C	0.350623	0.066901	0.075789
C79	C	0.401039	0.067421	0.075779
C80	C	0.405506	0.062950	-0.075612
C81	C	0.355095	0.062432	-0.075603
C82	C	0.327654	0.064407	0.000104
O83	O	0.277238	0.059728	-0.139923
O84	O	0.268931	0.067973	0.140171
C85	C	0.043108	0.063745	0.075812
C86	C	0.020139	0.061251	0.000122
C87	C	0.047582	0.059273	-0.075572
C88	C	-0.030275	0.060737	0.000124
C89	C	-0.057718	0.062714	0.075817
C90	C	-0.034747	0.065205	0.151509
C91	C	0.015665	0.065722	0.151506
C92	C	0.024610	0.056783	-0.151263
C93	C	-0.025801	0.056266	-0.151254
C94	C	-0.053244	0.058243	-0.075561
C95	C	0.658948	0.057574	0.000128
C96	C	0.712604	0.058117	0.000133
C97	C	0.566359	0.150184	0.000116
C98	C	0.566915	0.203839	0.000118
N99	N	0.564135	0.068167	0.216448
N100	N	0.576955	0.055390	-0.216223
C101	C	0.595960	0.036358	0.260147
C102	C	0.593378	0.038940	0.347553
C103	C	0.558974	0.073335	0.391259
C104	C	0.527146	0.105146	0.347555
C105	C	0.529725	0.102560	0.260150
C106	C	0.547706	0.084615	0.652667
C107	C	0.545130	0.087199	0.740078
C108	C	0.611362	0.020993	0.740071
C109	C	0.613940	0.018413	0.652664
C110	C	0.582111	0.050221	0.608967
N111	N	0.556335	0.075977	0.480603
N112	N	0.584747	0.047577	0.519625
H113	H	0.486984	-0.780427	0.000117
H114	H	0.336392	0.060408	-0.137241
C115	C	0.659457	-0.811473	0.000126
N116	N	0.695764	-0.837411	0.000123
H117	H	0.046949	0.055171	-0.212904
H118	H	0.637276	-0.004905	0.775657
H119	H	0.503810	0.128462	0.224571
C120	C	0.666770	-0.090552	0.000116
N121	N	0.703509	-0.074721	0.000119
C122	C	0.435196	-0.290788	0.000063
N123	N	0.398890	-0.264850	0.000050
C124	C	0.100187	0.055055	-0.234553
N125	N	0.081168	0.052978	-0.297280
H126	H	0.198199	0.056709	-0.212920
C127	C	0.651785	-0.019427	0.604594
N128	N	0.680291	-0.047928	0.568387
H129	H	0.694895	-0.425467	0.000101
C130	C	0.628377	0.003936	0.395618
N131	N	0.654735	-0.022435	0.431819
H132	H	0.653174	-0.187465	0.000102
C133	C	0.507279	0.125036	0.788153
N134	N	0.478772	0.153534	0.824364
C135	C	0.481626	-0.064962	0.000079
N136	N	0.445320	-0.039025	0.000063
H137	H	0.499131	0.133149	0.383145
H138	H	0.695824	-0.334019	0.000100
C139	C	-0.064943	0.067378	0.234772
N140	N	-0.087689	0.069012	0.297482
C141	C	0.475382	-0.680033	0.000098
N142	N	0.439065	-0.654110	0.000099
C143	C	0.426301	0.070164	0.159054
N144	N	0.445327	0.072228	0.221776
H145	H	0.445253	-0.542429	0.000084
C146	C	0.512754	0.119669	0.604612
N147	N	0.486449	0.146095	0.568414
C148	C	0.633807	-0.001480	0.212078
N149	N	0.662314	-0.029982	0.175875
H150	H	0.693366	-0.576717	0.000081
C151	C	0.433655	-0.442040	0.000080
N152	N	0.397337	-0.416119	0.000081
H153	H	-0.044498	0.054237	-0.212900
C154	C	0.706968	-0.479805	0.000085
N155	N	0.743710	-0.463977	0.000080
H156	H	0.493217	-0.165372	0.000099
H157	H	-0.195312	0.063158	0.137466
C158	C	0.660535	-0.705598	0.000122
N159	N	0.697273	-0.689763	0.000116
C160	C	0.435703	0.060772	-0.158871
N161	N	0.458450	0.059127	-0.221582
C162	C	0.320445	0.069077	0.159070
N163	N	0.297715	0.070721	0.221798
C164	C	0.192158	0.070015	0.234769
N165	N	0.211180	0.072074	0.297495
H166	H	0.446786	-0.391194	0.000078
C167	C	0.086307	0.068940	0.234776
N168	N	0.063577	0.070590	0.297505
H169	H	-0.286777	0.062219	0.137463
H170	H	0.034361	0.067755	0.213146
H171	H	-0.187199	0.055040	-0.137209
C172	C	-0.285213	0.053398	-0.158833
N173	N	-0.304236	0.051330	-0.221557
