data_functionalizedCrystal
_audit_creation_method	'MofGen! by Chris Wilmer'
_symmetry_space_group_name_H-M	'P1'
_symmetry_Int_Tables_number	1
_symmetry_cell_setting	triclinic
loop_
_symmetry_equiv_pos_as_xyz
  x,y,z
_cell_length_a	19.188930
_cell_length_b	10.654541
_cell_length_c	18.266242
_cell_angle_alpha	90.004251
_cell_angle_beta	90.019504
_cell_angle_gamma	83.814354
loop_
_atom_site_label
_atom_site_type_symbol
_atom_site_fract_x
_atom_site_fract_y
_atom_site_fract_z
O1	O	-0.927171	-0.156779	-0.061116
O2	O	-0.723997	-0.177885	-0.061066
O3	O	-0.830256	0.015506	-0.061088
O4	O	-0.820912	-0.350170	-0.061094
O5	O	-0.830245	0.015511	0.060674
O6	O	-0.723986	-0.177880	0.060696
O7	O	-0.927159	-0.156775	0.060646
Zn8	Zn	-0.825570	-0.167327	0.080003
Zn9	Zn	-0.825586	-0.167333	-0.080423
O10	O	-0.820900	-0.350166	0.060668
C11	C	-0.697976	-0.177199	-0.000179
C12	C	-0.620458	-0.175147	-0.000159
C13	C	-0.829565	0.062292	-0.000207
C14	C	-0.827513	0.201692	-0.000208
C15	C	-0.953180	-0.157461	-0.000243
C16	C	-1.030698	-0.159512	-0.000267
C17	C	-0.576276	-0.288623	-0.000173
C18	C	-0.503439	-0.286695	-0.000181
C19	C	-0.474788	-0.171286	-0.000190
C20	C	-0.518981	-0.057795	-0.000172
C21	C	-0.591815	-0.059726	-0.000157
N22	N	-0.366236	-0.083071	-0.041659
N23	N	-0.297045	-0.081245	-0.041675
C24	C	-0.255342	-0.165462	-0.000235
N25	N	-0.285441	-0.251593	0.041213
N26	N	-0.354638	-0.253423	0.041226
C27	C	-0.395812	-0.169180	-0.000206
C28	C	-0.132181	-0.276855	-0.000256
C29	C	-0.059344	-0.274923	-0.000259
C30	C	-0.074887	-0.046020	-0.000258
C31	C	-0.147723	-0.047955	-0.000247
C32	C	-0.176365	-0.163376	-0.000250
C33	C	-0.821592	-0.396952	-0.000215
C34	C	-0.823643	-0.536352	-0.000219
N35	N	-0.825565	-0.167322	0.189490
C36	C	-0.954574	0.232352	-0.000230
C37	C	-1.017138	0.313170	-0.000239
C38	C	-1.015206	0.444147	-0.000241
C39	C	-0.950703	0.494307	-0.000236
C40	C	-0.888139	0.413489	-0.000226
C41	C	-0.890078	0.282511	-0.000222
C42	C	-0.761079	0.382830	-0.000210
C43	C	-0.763010	0.251852	-0.000202
C44	C	-0.696577	0.432990	-0.000204
C45	C	-0.634011	0.352172	-0.000190
C46	C	-0.635946	0.221187	-0.000187
C47	C	-0.700446	0.171034	-0.000193
N48	N	-0.825597	-0.167328	-0.189910
C49	C	-0.872649	-0.081717	0.771758
C50	C	-0.872650	-0.081720	0.695113
C51	C	-0.825586	-0.167321	0.656803
C52	C	-0.778530	-0.252948	0.695144
C53	C	-0.778535	-0.252951	0.771787
N54	N	-0.763880	-0.183596	0.536491
N55	N	-0.763878	-0.183585	0.463683
C56	C	-0.825569	-0.167319	0.425880
N57	N	-0.887265	-0.151039	0.463636
N58	N	-0.887267	-0.151043	0.536451
C59	C	-0.825576	-0.167328	0.573696
C60	C	-0.872627	-0.081707	0.304441
C61	C	-0.872629	-0.081719	0.227795
C62	C	-0.778502	-0.252940	0.227827
C63	C	-0.778507	-0.252934	0.304472
C64	C	-0.825568	-0.167311	0.342775
H65	H	-0.599591	-0.382608	-0.000176
H66	H	-0.051560	0.047949	-0.000311
O67	O	-0.732813	-0.335980	0.190509
C68	C	-0.742913	-0.317650	0.114641
H69	H	-0.768519	-0.217688	0.104165
H70	H	-0.690110	-0.331872	0.085531
H71	H	-0.778276	-0.388567	0.092877
O72	O	-0.460482	-0.396898	-0.000069
C73	C	-0.417838	-0.402626	0.062971
H74	H	-0.444172	-0.338273	0.107060
H75	H	-0.410125	-0.503831	0.084129
H76	H	-0.364735	-0.370408	0.048702
H77	H	-0.910949	-0.011991	0.335628
O78	O	-0.732727	-0.336136	0.341599
C79	C	-0.691198	-0.411715	0.291353
H80	H	-0.690157	-0.360230	0.236722
H81	H	-0.635538	-0.431125	0.313521
H82	H	-0.714317	-0.504902	0.283187
O83	O	-0.571317	0.400747	-0.000089
C84	C	-0.533134	0.359467	0.062989
H85	H	-0.552597	0.268733	0.084020
H86	H	-0.475083	0.340962	0.048814
H87	H	-0.540845	0.435323	0.107140
O88	O	-0.491119	0.054281	-0.000313
C89	C	-0.449474	0.062231	-0.063376
H90	H	-0.467039	-0.003297	-0.107448
H91	H	-0.455531	0.163475	-0.084542
H92	H	-0.392179	0.032947	-0.049134
H93	H	-0.183697	0.044449	-0.000240
O94	O	-0.016353	-0.385079	-0.000372
C95	C	0.026200	-0.390815	-0.063450
H96	H	0.030356	-0.291155	-0.084467
H97	H	0.080712	-0.437902	-0.049280
H98	H	0.001941	-0.448027	-0.107609
O99	O	-0.918460	0.001247	0.657854
C100	C	-0.961840	-0.065856	0.613509
H101	H	-0.963454	-0.164900	0.636599
H102	H	-1.017098	-0.014425	0.612651
H103	H	-0.940049	-0.072504	0.555418
O104	O	-0.160126	-0.388859	-0.000277
C105	C	-0.233887	-0.366232	-0.000246
H106	H	-0.250524	-0.268143	-0.023302
H107	H	-0.256623	-0.440067	-0.035586
H108	H	-0.254159	-0.372189	0.058174
H109	H	-0.584998	0.155391	-0.000183
O110	O	-0.702236	0.043783	-0.000287
C111	C	-0.668065	-0.008391	-0.063353
H112	H	-0.629857	0.058131	-0.084376
H113	H	-0.638125	-0.103552	-0.049166
H114	H	-0.708580	-0.021944	-0.107515
H115	H	-0.956154	0.125705	-0.000219
H116	H	-1.069655	0.272315	-0.000237
O117	O	-1.076044	0.522481	-0.000219
C118	C	-1.133391	0.450131	-0.000246
H119	H	-1.116146	0.352274	0.022810
H120	H	-1.177257	0.498707	0.035096
H121	H	-1.153141	0.440910	-0.058665
H122	H	-0.695008	0.539640	-0.000210
H123	H	-0.949136	0.600957	-0.000246
H124	H	-0.627789	0.032682	-0.000146
H125	H	-0.910971	-0.012001	0.802941
H126	H	-0.740211	-0.322647	0.663948
O127	O	-0.732755	-0.336158	0.808913
C128	C	-0.691228	-0.411742	0.758669
H129	H	-0.690189	-0.360263	0.704036
H130	H	-0.635567	-0.431149	0.780835
H131	H	-0.714347	-0.504930	0.750507
H132	H	-0.910948	-0.012008	0.196585
