data_functionalizedCrystal
_audit_creation_method	'MofGen! by Chris Wilmer'
_symmetry_space_group_name_H-M	'P1'
_symmetry_Int_Tables_number	1
_symmetry_cell_setting	triclinic
loop_
_symmetry_equiv_pos_as_xyz
  x,y,z
_cell_length_a	12.759401
_cell_length_b	25.639239
_cell_length_c	12.759393
_cell_angle_alpha	89.962948
_cell_angle_beta	89.981504
_cell_angle_gamma	90.038847
loop_
_atom_site_label
_atom_site_type_symbol
_atom_site_fract_x
_atom_site_fract_y
_atom_site_fract_z
Zn1	Zn	1.606080	-0.208118	-0.593941
Zn2	Zn	1.605901	-0.295564	-0.418245
Zn3	Zn	1.430382	-0.208145	-0.418281
Zn4	Zn	1.430297	-0.295524	-0.593886
O5	O	1.518165	-0.251838	-0.506088
O6	O	1.753078	-0.219723	-0.570643
O7	O	1.582579	-0.283996	-0.271228
O8	O	1.453799	-0.134976	-0.441621
O9	O	1.752946	-0.283970	-0.441559
O10	O	1.582884	-0.134956	-0.570678
O11	O	1.453626	-0.219770	-0.271255
O12	O	1.283350	-0.219731	-0.441567
O13	O	1.453655	-0.283901	-0.740914
O14	O	1.283288	-0.283928	-0.570584
O15	O	1.582802	-0.219684	-0.740955
O16	O	1.582496	-0.368724	-0.441505
O17	O	1.453481	-0.368695	-0.570549
C18	C	1.245198	-0.251828	-0.506074
C19	C	1.128421	-0.251837	-0.506093
C20	C	1.073554	-0.285318	-0.573160
C21	C	0.963830	-0.285324	-0.573172
C22	C	0.963850	-0.218368	-0.439039
C23	C	1.073572	-0.218359	-0.439033
C24	C	1.128404	-0.318796	-0.640220
C25	C	1.073536	-0.352280	-0.707292
C26	C	0.963812	-0.352286	-0.707303
C27	C	0.908955	-0.318809	-0.640242
C28	C	1.517989	-0.387680	-0.506040
C29	C	1.518009	-0.445795	-0.506055
C30	C	1.585519	-0.806160	-0.439010
C31	C	1.585560	-0.860765	-0.439024
O32	O	1.642775	-0.889004	-0.381967
N33	N	1.518350	-0.888077	-0.506158
C34	C	1.451103	-0.860782	-0.573289
O35	O	1.393940	-0.889027	-0.630394
C36	C	1.451068	-0.806179	-0.573280
C37	C	1.518275	-0.778869	-0.506134
C38	C	1.652721	-0.778851	-0.371870
C39	C	1.652678	-0.724250	-0.371855
C40	C	1.585434	-0.696959	-0.438980
C41	C	1.518232	-0.724269	-0.506119
C42	C	1.383827	-0.778885	-0.640416
C43	C	1.383799	-0.724278	-0.640401
C44	C	1.451005	-0.696968	-0.573256
C45	C	1.450946	-0.642377	-0.573228
N46	N	1.518155	-0.615065	-0.506094
C47	C	1.585399	-0.642356	-0.438970
C48	C	1.451182	-0.975453	-0.573306
C49	C	1.451210	-1.030055	-0.573311
C50	C	1.585669	-1.030034	-0.439046
C51	C	1.585634	-0.975430	-0.439037
C52	C	1.518391	-0.948140	-0.506172
C53	C	1.585305	-0.527691	-0.438943
C54	C	1.585253	-0.473086	-0.438930
C55	C	1.450799	-0.473111	-0.573198
C56	C	1.450846	-0.527712	-0.573207
C57	C	1.518108	-0.555000	-0.506076
O58	O	1.393762	-0.614103	-0.630258
O59	O	1.642562	-0.614104	-0.381885
C60	C	1.792198	-0.251848	-0.506103
C61	C	1.908975	-0.251852	-0.506109
C62	C	1.518239	-0.251785	-0.780122
C63	C	1.518270	-0.251763	-0.896898
C64	C	1.518371	-0.115465	-0.506159
C65	C	1.518459	-0.057351	-0.506190
C66	C	1.585526	-0.218322	-0.951783
C67	C	1.585551	-0.218303	-1.061507
C68	C	1.451061	-0.285170	-1.061452
C69	C	1.451032	-0.285186	-0.951730
C70	C	1.652765	-0.184898	-0.896952
C71	C	1.720027	-0.151455	-0.951837
C72	C	1.720052	-0.151436	-1.061561
C73	C	1.652815	-0.184860	-1.116400
C74	C	1.518152	-0.251853	-0.233121
C75	C	1.518325	-0.251728	-0.116345
H76	H	1.118208	-0.379532	-0.761897
C77	C	0.903510	-0.181548	-0.365268
C78	C	0.782820	-0.181560	-0.365268
C79	C	0.722482	-0.144742	-0.291492
C80	C	0.782834	-0.107912	-0.217717
C81	C	0.903531	-0.107899	-0.217714
C82	C	0.963869	-0.144718	-0.291489
H83	H	0.738138	-0.208824	-0.419884
H84	H	0.633134	-0.144751	-0.291495
H85	H	0.738169	-0.080657	-0.163103
H86	H	0.948213	-0.080635	-0.163098
H87	H	1.053217	-0.144708	-0.291487
C88	C	0.903457	-0.389115	-0.781083
C89	C	0.963793	-0.425937	-0.854844
C90	C	0.903440	-0.462769	-0.928622
C91	C	0.782750	-0.462779	-0.928640
C92	C	0.722406	-0.425955	-0.854877
C93	C	0.782760	-0.389124	-0.781099
H94	H	1.053141	-0.425931	-0.854833
H95	H	0.948111	-0.490028	-0.983227
H96	H	0.738073	-0.490044	-0.983256
H97	H	0.633058	-0.425961	-0.854888
H98	H	0.738089	-0.361865	-0.726494
C99	C	1.377118	-0.321941	-1.121775
C100	C	1.385604	-0.381381	-1.106645
C101	C	1.311666	-0.418154	-1.166969
C102	C	1.229242	-0.395488	-1.242422
C103	C	1.220752	-0.336045	-1.257556
C104	C	1.294691	-0.299272	-1.197232
H105	H	1.446622	-0.398162	-1.050787
H106	H	1.317950	-0.462158	-1.155766
H107	H	1.174508	-0.422710	-1.287077
H108	H	1.159734	-0.319264	-1.313414
H109	H	1.288406	-0.255268	-1.208435
C110	C	1.133928	-0.181529	-0.365256
C111	C	1.209310	-0.204126	-0.282685
C112	C	1.269664	-0.167292	-0.208910
C113	C	1.254636	-0.107862	-0.217707
C114	C	1.179251	-0.085261	-0.300282
C115	C	1.118897	-0.122095	-0.374057
H116	H	1.220437	-0.248123	-0.276170
H117	H	1.325469	-0.184023	-0.147783
H118	H	1.299314	-0.080595	-0.163095
H119	H	1.168124	-0.041265	-0.306797
H120	H	1.063092	-0.105365	-0.435184
H121	H	1.774763	-0.124238	-0.907179
C122	C	1.659284	-0.557703	-0.365092
C123	C	1.650756	-0.550239	-0.245650
C124	C	1.724728	-0.580251	-0.171794
C125	C	1.807229	-0.617728	-0.217381
C126	C	1.815761	-0.625193	-0.336830
C127	C	1.741789	-0.595181	-0.410686
H128	H	1.589681	-0.522495	-0.211898
H129	H	1.718412	-0.574724	-0.083370
H130	H	1.861987	-0.639944	-0.162709
H131	H	1.876836	-0.652937	-0.370582
H132	H	1.748105	-0.600708	-0.499110
H133	H	1.707485	-0.801065	-0.317210
H134	H	1.639981	-0.450852	-0.384249
H135	H	0.819611	-0.318813	-0.640266
C136	C	1.659569	-0.945392	-0.365183
C137	C	1.651066	-0.952951	-0.245742
C138	C	1.725006	-0.922916	-0.171887
C139	C	1.807448	-0.885323	-0.217474
C140	C	1.815954	-0.877763	-0.336922
C141	C	1.742014	-0.907797	-0.410776
H142	H	1.590034	-0.980781	-0.211990
H143	H	1.718709	-0.928513	-0.083464
H144	H	1.862183	-0.863089	-0.162802
H145	H	1.876986	-0.849932	-0.370673
H146	H	1.748311	-0.902201	-0.499200
C147	C	1.377274	-1.060092	-0.647164
C148	C	1.303310	-1.030065	-0.720995
C149	C	1.229376	-1.060099	-0.794856
C150	C	1.229406	-1.120161	-0.794886
C151	C	1.303372	-1.150191	-0.721052
C152	C	1.377306	-1.120157	-0.647191
H153	H	1.303286	-0.985601	-0.720975
H154	H	1.174622	-1.037868	-0.849513
H155	H	1.174675	-1.142394	-0.849563
H156	H	1.303397	-1.194655	-0.721072
H157	H	1.432061	-1.142387	-0.592534
H158	H	1.707407	-0.702018	-0.317183
H159	H	1.652828	-0.184836	-1.205745
H160	H	1.640427	-1.052264	-0.384394
H161	H	1.396416	-0.953236	-0.627972
C162	C	1.309901	-0.808913	-0.714287
C163	C	1.190466	-0.801460	-0.705625
C164	C	1.116536	-0.831486	-0.779504
C165	C	1.162042	-0.868965	-0.862046
C166	C	1.281483	-0.876420	-0.870712
C167	C	1.355413	-0.846394	-0.796832
H168	H	1.156774	-0.773714	-0.644519
H169	H	1.028117	-0.825967	-0.773088
H170	H	1.107315	-0.891192	-0.916735
H171	H	1.315175	-0.904166	-0.931817
H172	H	1.443832	-0.851913	-0.803248
C173	C	1.377063	-0.321973	-0.891337
C174	C	1.257634	-0.317704	-0.906401
C175	C	1.183665	-0.354489	-0.846002
C176	C	1.229124	-0.395544	-0.770538
C177	C	1.348558	-0.399814	-0.755471
C178	C	1.422528	-0.363029	-0.815870
H179	H	1.223977	-0.287312	-0.962266
H180	H	1.095251	-0.351328	-0.857156
H181	H	1.174367	-0.422774	-0.725827
H182	H	1.382215	-0.430207	-0.699605
H183	H	1.510942	-0.366190	-0.804716
H184	H	1.396125	-0.549949	-0.627886
C185	C	1.309824	-0.694259	-0.714248
C186	C	1.190399	-0.701835	-0.705574
C187	C	1.116423	-0.671817	-0.779417
C188	C	1.161873	-0.634223	-0.861934
C189	C	1.281304	-0.626646	-0.870611
C190	C	1.355280	-0.656664	-0.796769
H191	H	1.156749	-0.729665	-0.644487
H192	H	1.028012	-0.677426	-0.772992
H193	H	1.107111	-0.612002	-0.916596
H194	H	1.314954	-0.598816	-0.931698
H195	H	1.443691	-0.651055	-0.803193
H196	H	1.217746	-0.318795	-0.640216
H197	H	1.396046	-0.450883	-0.627847
H198	H	1.652754	-0.184911	-0.807609
H199	H	1.774813	-0.124201	-1.106245
