data_functionalizedCrystal
_audit_creation_method	'MofGen! by Chris Wilmer'
_symmetry_space_group_name_H-M	'P1'
_symmetry_Int_Tables_number	1
_symmetry_cell_setting	triclinic
loop_
_symmetry_equiv_pos_as_xyz
  x,y,z
_cell_length_a	13.262402
_cell_length_b	13.339070
_cell_length_c	11.804365
_cell_angle_alpha	105.112168
_cell_angle_beta	93.583660
_cell_angle_gamma	99.431904
loop_
_atom_site_label
_atom_site_type_symbol
_atom_site_fract_x
_atom_site_fract_y
_atom_site_fract_z
O1	O	1.378769	0.207921	0.347569
O2	O	1.091846	0.203639	0.254631
O3	O	1.202377	0.056178	0.290437
O4	O	1.268237	0.355383	0.311763
O5	O	1.173267	0.094957	0.479063
O6	O	1.062735	0.242418	0.443257
O7	O	1.349659	0.246700	0.536195
Cu8	Cu	1.203539	0.248100	0.506949
Cu9	Cu	1.237965	0.202240	0.283877
O10	O	1.239127	0.394162	0.500389
C11	C	1.039817	0.219701	0.336806
C12	C	0.928155	0.209772	0.300637
C13	C	1.176698	0.037088	0.381145
C14	C	1.143538	-0.077571	0.370399
C15	C	0.891564	0.183967	0.180821
C16	C	0.786653	0.174649	0.146841
C17	C	0.718322	0.191127	0.232673
C18	C	0.754913	0.216925	0.352490
C19	C	0.859835	0.226252	0.386474
C20	C	0.686594	0.233412	0.438326
C21	C	0.723184	0.259210	0.558143
C22	C	0.828096	0.268535	0.592121
C23	C	0.896426	0.252057	0.506290
C24	C	0.581671	0.224085	0.404342
C25	C	0.549943	0.266370	0.609995
C26	C	0.654853	0.275688	0.643975
C27	C	1.401377	-0.424046	0.453918
C28	C	1.432535	-0.316317	0.464021
C29	C	1.360288	-0.256626	0.440616
C30	C	1.256879	-0.304673	0.407107
C31	C	1.225717	-0.412410	0.397011
C32	C	1.184627	-0.244990	0.383710
C33	C	1.081218	-0.293037	0.350200
C34	C	1.050061	-0.400764	0.340105
C35	C	1.122308	-0.460456	0.363510
C36	C	1.215790	-0.137252	0.393805
C37	C	1.040129	-0.125617	0.336899
C38	C	1.008971	-0.233345	0.326795
C39	C	1.401688	0.230638	0.454018
C40	C	1.513351	0.240565	0.490179
C41	C	1.264807	0.413251	0.409679
C42	C	1.297969	0.527909	0.420417
N43	N	1.179333	0.280356	0.663848
N44	N	1.262177	0.169976	0.126980
C45	C	1.320301	0.092498	1.083463
C46	C	1.338610	0.068093	0.964732
C47	C	1.298792	0.121156	0.889506
C48	C	1.240662	0.198630	0.933021
C49	C	1.222357	0.223044	1.051765
C50	C	1.200849	0.251702	0.857808
C51	C	1.142718	0.329176	0.901323
C52	C	1.124416	0.353586	1.020055
C53	C	1.164234	0.300522	1.095282
C54	C	1.219153	0.227288	0.739063
C55	C	1.121210	0.357834	0.707365
C56	C	1.102900	0.382239	0.826096
H57	H	0.551891	0.203081	0.306786
O58	O	1.533026	-0.269823	0.496533
C59	C	1.703955	-0.292723	0.551991
C60	C	1.590180	-0.345517	0.515152
H61	H	1.750193	-0.353893	0.567079
H62	H	1.735187	-0.258835	0.479207
H63	H	1.710701	-0.226326	0.637047
H64	H	1.583345	-0.411955	0.430123
H65	H	1.559000	-0.379332	0.588008
H66	H	0.981298	-0.077014	0.317846
H67	H	1.299986	-0.098143	0.421089
O68	O	0.750946	0.149641	0.030514
C69	C	0.603373	0.116479	-0.112982
C70	C	0.643677	0.144833	0.018808
H71	H	0.516639	0.112561	-0.122489
H72	H	0.642249	0.179391	-0.153649
H73	H	0.621396	0.036413	-0.160382
H74	H	0.625664	0.224873	0.066308
H75	H	0.604803	0.081856	0.059386
H76	H	1.313703	0.101281	0.792831
O77	O	0.949577	-0.447281	0.307502
C78	C	0.778623	-0.424353	0.252198
C79	C	0.892391	-0.371547	0.289082
H80	H	0.732352	-0.363141	0.237319
H81	H	0.771771	-0.490697	0.167074
H82	H	0.747509	-0.458306	0.324987
H83	H	0.923578	-0.337531	0.216373
H84	H	0.899175	-0.305254	0.374238
O85	O	1.395053	-0.007223	0.922642
C86	C	1.490318	-0.134085	0.966637
C87	C	1.426392	-0.048824	1.014452
H88	H	1.515693	-0.167728	1.040846
H89	H	1.441668	-0.200205	0.892556
H90	H	1.560985	-0.097383	0.931116
H91	H	1.355720	-0.085430	1.050035
H92	H	1.475116	0.017285	1.088480
O93	O	0.690581	0.300793	0.760314
C94	C	0.838146	0.333832	0.903791
C95	C	0.797825	0.305421	0.772000
H96	H	0.924853	0.337561	0.913281
H97	H	0.820264	0.413948	0.951254
H98	H	0.799146	0.270940	0.944405
H99	H	0.836800	0.368242	0.731283
H100	H	0.815691	0.225275	0.724623
O101	O	0.957927	0.168145	0.097425
C102	C	1.030106	0.223347	-0.063771
C103	C	0.954925	0.241392	0.030645
H104	H	1.027688	0.282541	-0.117804
H105	H	1.111407	0.234506	-0.018952
H106	H	1.006825	0.139572	-0.124510
H107	H	0.978111	0.325159	0.091412
H108	H	0.873643	0.230164	-0.014252
H109	H	1.385663	-0.168908	0.448845
H110	H	1.149323	0.320390	1.191962
H111	H	1.266483	0.164209	0.703645
H112	H	0.494307	0.279791	0.679887
H113	H	0.632900	0.183539	0.204999
H114	H	1.352722	0.049307	1.144721
H115	H	0.857885	0.289552	0.689685
H116	H	0.981854	0.259636	0.533950
O117	O	1.471538	-0.482115	0.476441
C118	C	1.553328	-0.630641	0.400380
C119	C	1.473851	-0.564953	0.374700
H120	H	1.555208	-0.697644	0.318148
H121	H	1.632629	-0.577868	0.425995
H122	H	1.530932	-0.665084	0.476052
H123	H	1.496151	-0.530500	0.299012
H124	H	1.394571	-0.617774	0.349154
H125	H	1.096945	-0.548179	0.355281
H126	H	1.077092	0.416677	1.055487
O127	O	1.046498	0.457505	0.868578
C128	C	0.974844	0.552914	1.037441
C129	C	1.038755	0.467673	0.989490
H130	H	0.968545	0.561147	1.135198
H131	H	1.013974	0.631716	1.025691
H132	H	0.894630	0.528929	0.986897
H133	H	1.118977	0.491558	1.040001
H134	H	0.999544	0.388892	1.001220
O135	O	1.082654	0.409546	0.634399
C136	C	1.078389	0.577255	0.594928
C137	C	1.122140	0.518824	0.677651
H138	H	1.110279	0.665619	0.629879
H139	H	1.101477	0.546586	0.502581
H140	H	0.990951	0.562817	0.591123
H141	H	1.209580	0.533237	0.681556
H142	H	1.098971	0.549503	0.769955
O143	O	0.908541	-0.280017	0.294046
C144	C	0.763941	-0.323076	0.144627
C145	C	0.877687	-0.270204	0.181557
H146	H	0.738954	-0.315141	0.053688
H147	H	0.754038	-0.410349	0.141340
H148	H	0.714597	-0.282811	0.211566
H149	H	0.927102	-0.310382	0.114655
H150	H	0.887508	-0.182928	0.184880
