data_functionalizedCrystal
_audit_creation_method	'MofGen! by Chris Wilmer'
_symmetry_space_group_name_H-M	'P1'
_symmetry_Int_Tables_number	1
_symmetry_cell_setting	triclinic
loop_
_symmetry_equiv_pos_as_xyz
  x,y,z
_cell_length_a	16.109295
_cell_length_b	9.730217
_cell_length_c	16.109301
_cell_angle_alpha	90.004672
_cell_angle_beta	96.539666
_cell_angle_gamma	90.001520
loop_
_atom_site_label
_atom_site_type_symbol
_atom_site_fract_x
_atom_site_fract_y
_atom_site_fract_z
O1	O	-1.103131	0.114201	0.106843
O2	O	-0.861069	0.114225	0.120148
O3	O	-0.988750	0.114198	-0.007536
O4	O	-0.975450	0.114227	0.234527
O5	O	-0.988746	-0.114382	-0.007537
O6	O	-0.861065	-0.114355	0.120147
O7	O	-1.103127	-0.114379	0.106842
Zn8	Zn	-0.982095	-0.150659	0.113494
Zn9	Zn	-0.982101	0.150505	0.113496
O10	O	-0.975446	-0.114353	0.234526
C11	C	-0.830092	-0.000063	0.119609
C12	C	-0.737796	-0.000054	0.117996
N13	N	-0.982098	-0.356196	0.113493
C14	C	-0.515523	-0.000060	0.190008
C15	C	-0.428803	-0.000068	0.188486
C16	C	-0.448677	-0.000081	0.036996
C17	C	-0.535396	-0.000082	0.038520
C18	C	-0.568816	-0.000065	0.115028
C19	C	-0.395377	-0.000072	0.111982
C20	C	-0.301351	-0.000081	0.110331
C21	C	-0.662849	-0.000058	0.116679
C22	C	-1.095205	-0.356210	0.000462
C23	C	-1.151765	-0.428157	-0.056051
C24	C	-1.151773	-0.572037	-0.056052
C25	C	-1.095215	-0.643973	0.000465
C26	C	-1.038655	-0.572026	0.056978
C27	C	-1.038655	-0.428143	0.056974
C28	C	-0.925545	-0.572012	0.170004
C29	C	-0.925539	-0.428132	0.170010
C30	C	-0.868987	-0.643948	0.226521
C31	C	-0.812430	-0.572001	0.283039
C32	C	-0.812425	-0.428112	0.283038
C33	C	-0.868980	-0.356185	0.226523
C34	C	-0.134104	-0.000088	0.107386
C35	C	-0.226397	-0.000083	0.109014
C36	C	-0.988209	-0.000093	-0.038511
C37	C	-0.986594	-0.000094	-0.130806
N38	N	-0.982105	0.356041	0.113491
C39	C	-1.058602	-0.000080	-0.353080
C40	C	-1.057078	-0.000068	-0.439800
C41	C	-0.905588	-0.000059	-0.419923
C42	C	-0.907113	-0.000060	-0.333204
C43	C	-0.983622	-0.000078	-0.299785
C44	C	-0.980573	-0.000065	-0.473225
C45	C	-0.978920	-0.000052	-0.567251
C46	C	-0.985276	-0.000088	-0.205754
C47	C	-0.975987	-0.000059	0.265501
C48	C	-0.977602	-0.000048	0.357796
H49	H	-0.385414	-0.000067	0.249542
H50	H	-0.542731	-0.000056	0.252306
H51	H	-0.843297	-0.000047	-0.447144
O52	O	-0.868990	-0.799133	0.226522
H53	H	-0.882253	-0.837050	0.288643
O54	O	-0.592887	-0.000091	-0.042355
H55	H	-0.555080	-0.000084	-0.095812
H56	H	-1.120900	-0.000091	-0.325874
O57	O	-1.137950	-0.000091	-0.497282
H58	H	-1.174571	0.093060	-0.485392
O59	O	-0.412632	-0.000090	-0.045521
H60	H	-0.343377	-0.000075	-0.033986
O61	O	-0.826240	-0.000074	-0.275712
H62	H	-0.772782	-0.000087	-0.313517
H63	H	-1.095211	-0.239056	0.000463
H64	H	-1.197825	-0.630616	-0.102073
O65	O	-1.212744	-0.350574	-0.117031
H66	H	-1.203236	-0.238438	-0.107544
O67	O	-1.095219	-0.799158	0.000468
H68	H	-1.144052	-0.837102	-0.048321
O69	O	-0.751438	-0.649578	0.344000
H70	H	-0.711048	-0.715144	0.308991
H71	H	-0.766364	-0.369541	0.329055
H72	H	-0.868984	-0.239031	0.226520
