data_functionalizedCrystal
_audit_creation_method	'MofGen! by Chris Wilmer'
_symmetry_space_group_name_H-M	'P1'
_symmetry_Int_Tables_number	1
_symmetry_cell_setting	triclinic
loop_
_symmetry_equiv_pos_as_xyz
  x,y,z
_cell_length_a	13.448316
_cell_length_b	14.971475
_cell_length_c	14.971486
_cell_angle_alpha	83.611904
_cell_angle_beta	90.006811
_cell_angle_gamma	90.005879
loop_
_atom_site_label
_atom_site_type_symbol
_atom_site_fract_x
_atom_site_fract_y
_atom_site_fract_z
O1	O	-0.082672	-1.186953	-0.116518
O2	O	0.417328	-0.686953	0.383482
O3	O	-0.082679	-0.926552	-0.130487
O4	O	0.417321	-0.426552	0.369513
O5	O	-0.082668	-1.063732	0.006697
O6	O	0.417332	-0.563732	0.506697
O7	O	-0.082683	-1.049773	-0.253703
O8	O	0.417317	-0.549773	0.246297
O9	O	0.082716	-1.063715	0.006706
O10	O	0.582716	-0.563715	0.506706
O11	O	0.082705	-0.926535	-0.130479
O12	O	0.582705	-0.426535	0.369521
O13	O	0.082712	-1.186936	-0.116510
O14	O	0.582712	-0.686936	0.383490
Cu15	Cu	0.097809	-1.056734	-0.123494
Cu16	Cu	0.597809	-0.556734	0.376506
Cu17	Cu	-0.097776	-1.056754	-0.123504
Cu18	Cu	0.402224	-0.556754	0.376496
O19	O	0.082701	-1.049756	-0.253695
O20	O	0.582701	-0.549756	0.246305
C21	C	0.000013	-0.893218	-0.129860
C22	C	0.500013	-0.393218	0.370140
C23	C	0.000010	-0.793921	-0.127993
C24	C	0.500010	-0.293921	0.372007
N25	N	0.235374	-1.056726	-0.123486
N26	N	0.735374	-0.556726	0.376514
C27	C	0.090162	-0.747267	-0.127109
C28	C	0.590162	-0.247267	0.372891
C29	C	0.090162	-0.653968	-0.125341
C30	C	0.590162	-0.153968	0.374659
C31	C	0.000010	-0.607324	-0.124463
C32	C	0.500010	-0.107324	0.375537
C33	C	-0.090148	-0.653985	-0.125344
C34	C	0.409852	-0.153985	0.374656
C35	C	-0.090148	-0.747283	-0.127106
C36	C	0.409852	-0.247283	0.372894
C37	C	-0.090143	-0.459523	-0.121674
C38	C	0.409857	0.040477	0.378326
C39	C	-0.090144	-0.366218	-0.119914
C40	C	0.409856	0.133782	0.380086
C41	C	0.090167	-0.366207	-0.119909
C42	C	0.590167	0.133793	0.380091
C43	C	0.090168	-0.459505	-0.121671
C44	C	0.590168	0.040495	0.378329
C45	C	0.000009	-0.506160	-0.122554
C46	C	0.500009	-0.006160	0.377446
N47	N	-0.235340	-1.056769	-0.123504
N48	N	0.264660	-0.556769	0.376496
C49	C	0.287419	-1.117488	-0.062766
C50	C	0.787419	-0.617488	0.437234
C51	C	0.391522	-1.117494	-0.062765
C52	C	0.891522	-0.617494	0.437235
C53	C	0.443578	-1.056741	-0.123490
C54	C	0.943578	-0.556741	0.376510
C55	C	0.391526	-0.995972	-0.184213
C56	C	0.891526	-0.495972	0.315787
C57	C	0.287425	-0.995963	-0.184209
C58	C	0.787425	-0.495963	0.315791
C59	C	0.608506	-0.995997	-0.184219
C60	C	1.108506	-0.495997	0.315781
C61	C	0.712615	-0.996007	-0.184225
C62	C	1.212615	-0.496007	0.315775
C63	C	0.712603	-1.117528	-0.062775
C64	C	1.212603	-0.617528	0.437225
C65	C	0.608502	-1.117519	-0.062771
C66	C	1.108502	-0.617519	0.437229
C67	C	0.556457	-1.056751	-0.123496
C68	C	1.056457	-0.556751	0.376504
C69	C	0.000024	-1.063099	0.040026
C70	C	0.500024	-0.563099	0.540026
C71	C	0.000023	-1.061228	0.139323
C72	C	0.500023	-0.561228	0.639323
C73	C	0.000017	-0.220269	-0.117144
C74	C	0.500017	0.279731	0.382856
C75	C	0.000008	-0.319564	-0.119030
C76	C	0.500008	0.180436	0.380970
C77	C	0.000007	-1.050389	-0.287024
C78	C	0.500007	-0.550389	0.212976
C79	C	0.000002	-1.052260	-0.386321
C80	C	0.500002	-0.552260	0.113679
C81	C	0.000025	-1.141818	0.196552
C82	C	0.500025	-0.641818	0.696552
C83	C	0.000015	-1.140055	0.289851
C84	C	0.500015	-0.640055	0.789851
C85	C	0.000010	-1.057701	0.325920
C86	C	0.500010	-0.557701	0.825920
C87	C	0.000004	-0.977106	0.268685
C88	C	0.500004	-0.477106	0.768685
C89	C	0.000007	-0.978870	0.175387
C90	C	0.500007	-0.478870	0.675387
C91	C	0.000000	-0.973434	0.463147
C92	C	0.500000	-0.473434	0.963147
C93	C	-0.000001	-0.971670	0.556451
C94	C	0.499999	-0.471670	1.056451
C95	C	0.000009	-1.134620	0.577611
C96	C	0.500009	-0.634620	1.077611
C97	C	0.000012	-1.136384	0.484314
C98	C	0.500012	-0.636384	0.984314
C99	C	0.000008	-1.055788	0.427084
C100	C	0.500008	-0.555788	0.927084
H101	H	0.163574	-0.785236	-0.127832
H102	H	0.663574	-0.285236	0.372168
C103	C	0.000006	-0.890215	0.112435
C104	C	0.500006	-0.390215	0.612435
N105	N	0.000003	-0.823437	0.065021
N106	N	0.500003	-0.323437	0.565021
C107	C	0.189336	-0.602650	-0.124390
C108	C	0.689336	-0.102650	0.375610
N109	N	0.264039	-0.563997	-0.123680
N110	N	0.764039	-0.063997	0.376320
C111	C	0.189343	-0.314887	-0.118931
C112	C	0.689343	0.185113	0.381069
N113	N	0.264040	-0.276228	-0.118197
N114	N	0.764040	0.223772	0.381803
C115	C	0.551242	-1.184350	0.004029
C116	C	1.051242	-0.684350	0.504029
N117	N	0.508114	-1.234686	0.054347
N118	N	1.008114	-0.734686	0.554347
H119	H	-0.163560	-0.497506	-0.122393
H120	H	0.336440	0.002494	0.377607
H121	H	0.245050	-0.946483	-0.233652
H122	H	0.745050	-0.446483	0.266348
H123	H	0.566134	-0.946510	-0.233665
H124	H	1.066134	-0.446510	0.266335
H125	H	-0.163558	-0.785268	-0.127828
H126	H	0.336442	-0.285268	0.372172
H127	H	-0.163553	-0.328243	-0.119199
H128	H	0.336447	0.171757	0.380801
H129	H	-0.163551	-0.616001	-0.124623
H130	H	0.336449	-0.116001	0.375377
H131	H	0.433916	-0.946501	-0.233653
H132	H	0.933916	-0.446501	0.266347
H133	H	0.000036	-1.208880	0.167192
H134	H	0.500036	-0.708880	0.667192
H135	H	0.163578	-0.497479	-0.122391
H136	H	0.663578	0.002521	0.377609
C137	C	0.000023	-1.226977	0.444640
C138	C	0.500023	-0.726977	0.944640
N139	N	0.000028	-1.295213	0.414758
N140	N	0.500028	-0.795213	0.914758
H141	H	0.000020	-1.205679	0.336444
H142	H	0.500020	-0.705679	0.836444
C143	C	0.000005	-1.223277	0.640565
C144	C	0.500005	-0.723277	1.140565
N145	N	0.000005	-1.290050	0.687986
N146	N	0.500005	-0.790050	1.187986
H147	H	0.000011	-0.904610	0.585815
H148	H	0.500011	-0.404610	1.085815
C149	C	0.230166	-1.184322	0.004038
C150	C	0.730166	-0.684322	0.504038
N151	N	0.187047	-1.234661	0.054360
N152	N	0.687047	-0.734661	0.554360
C153	C	0.769855	-1.184370	0.004026
C154	C	1.269855	-0.684370	0.504026
N155	N	0.812981	-1.234715	0.054337
N156	N	1.312981	-0.734715	0.554337
H157	H	-0.000005	-0.907804	0.416552
H158	H	0.499995	-0.407804	0.916552
H159	H	-0.000007	-0.910052	0.298059
H160	H	0.499993	-0.410052	0.798059
H161	H	0.433897	-1.166970	-0.013321
H162	H	0.933897	-0.666970	0.486679
C163	C	0.769875	-0.929170	-0.251020
C164	C	1.269875	-0.429170	0.248980
N165	N	0.813003	-0.878826	-0.301329
N166	N	1.313003	-0.378826	0.198671
