data_functionalizedCrystal
_audit_creation_method	'MofGen! by Chris Wilmer'
_symmetry_space_group_name_H-M	'P1'
_symmetry_Int_Tables_number	1
_symmetry_cell_setting	triclinic
loop_
_symmetry_equiv_pos_as_xyz
  x,y,z
_cell_length_a	14.971486
_cell_length_b	11.792241
_cell_length_c	14.048226
_cell_angle_alpha	89.993434
_cell_angle_beta	89.998499
_cell_angle_gamma	83.903772
loop_
_atom_site_label
_atom_site_type_symbol
_atom_site_fract_x
_atom_site_fract_y
_atom_site_fract_z
O1	O	1.187540	0.147909	-0.079051
O2	O	0.927210	0.165622	-0.079077
O3	O	1.063692	-0.008446	-0.079057
O4	O	1.051058	0.321977	-0.079072
O5	O	1.063676	-0.008456	0.079264
O6	O	0.927194	0.165611	0.079244
O7	O	1.187523	0.147899	0.079270
Zn8	Zn	1.057356	0.156753	0.104394
Zn9	Zn	1.057378	0.156767	-0.104201
O10	O	1.051041	0.321966	0.079250
C11	C	0.893874	0.164824	0.000080
C12	C	0.794568	0.162451	0.000070
C13	C	0.737752	0.264710	0.000067
C14	C	0.644444	0.262473	0.000081
C15	C	0.607953	0.157975	0.000092
C16	C	0.664776	0.055707	0.000098
C17	C	0.758082	0.057946	0.000091
C18	C	0.470294	0.051049	0.000111
C19	C	0.376981	0.048810	0.000117
C20	C	0.356656	0.255577	0.000102
C21	C	0.449963	0.257815	0.000095
C22	C	0.506779	0.155547	0.000099
C23	C	1.062891	-0.050737	0.000103
C24	C	1.060515	-0.176735	0.000102
C25	C	1.056147	-0.407419	0.000086
C26	C	1.058574	-0.279050	0.000095
C27	C	1.220859	0.148696	0.000110
C28	C	1.320166	0.151070	0.000114
C29	C	1.051843	0.364257	0.000087
C30	C	1.054218	0.490256	0.000082
N31	N	1.057347	0.156744	0.246754
N32	N	1.057393	0.156768	-0.246562
C33	C	1.117801	0.079698	0.296582
C34	C	1.117807	0.079698	0.396239
C35	C	1.057363	0.156749	0.446068
C36	C	0.996903	0.233797	0.396234
C37	C	0.996894	0.233792	0.296578
C38	C	0.996929	0.233806	0.603948
C39	C	0.996940	0.233813	0.703611
C40	C	1.117843	0.079712	0.703609
C41	C	1.117833	0.079706	0.603953
C42	C	1.057374	0.156757	0.554126
H43	H	0.516553	-0.032229	0.000116
C44	C	0.877401	0.386099	0.693608
C45	C	0.930483	0.318486	0.758385
H46	H	0.836366	0.438363	0.727426
H47	H	0.914811	0.427024	0.654735
H48	H	0.845013	0.338762	0.654743
H49	H	0.962876	0.365823	0.797246
H50	H	0.893067	0.277559	0.797275
H51	H	0.347274	-0.036282	0.000127
C52	C	0.571641	-0.066757	-0.081279
C53	C	0.624668	-0.059161	0.000107
H54	H	0.546887	-0.137678	-0.081276
H55	H	0.524453	-0.006183	-0.081272
H56	H	0.607627	-0.061582	-0.136483
H57	H	0.588679	-0.064328	0.055313
H58	H	0.671862	-0.119753	0.000110
C59	C	0.633725	0.467074	0.000053
C60	C	0.581992	0.374881	0.000073
H61	H	0.595168	0.536472	0.000043
H62	H	0.670543	0.463647	0.055255
H63	H	0.670539	0.463636	-0.055166
H64	H	0.545182	0.378314	0.055296
H65	H	0.545158	0.378310	-0.055135
C66	C	1.136405	-0.074778	0.184582
C67	C	1.184221	-0.005053	0.241837
H68	H	1.177405	-0.127114	0.150792
H69	H	1.098966	-0.115622	0.223489
H70	H	1.100427	-0.028883	0.140625
H71	H	1.220194	-0.050948	0.285800
H72	H	1.221676	0.035794	0.202928
H73	H	1.167070	0.016974	0.744184
C74	C	0.875314	0.258173	0.508330
C75	C	0.930463	0.318491	0.451008
H76	H	0.834302	0.310464	0.542148
H77	H	0.842910	0.210870	0.469466
H78	H	0.911332	0.212291	0.552263
H79	H	0.894445	0.364367	0.407070
H80	H	0.962869	0.365814	0.489876
H81	H	0.310391	0.338847	0.000103
C82	C	0.804144	-0.117592	-0.081297
C83	C	0.820541	-0.054459	0.000087
H84	H	0.842708	-0.186984	-0.081298
H85	H	0.743360	-0.133881	-0.081285
H86	H	0.815258	-0.074730	-0.136504
H87	H	0.809420	-0.097318	0.055293
H88	H	0.881339	-0.038173	0.000083
H89	H	0.947665	0.296528	0.256010
H90	H	0.767455	0.349805	0.000058
H91	H	0.947694	0.296545	0.563382
H92	H	0.479670	0.342907	0.000077
C93	C	1.136505	-0.074737	0.508314
C94	C	1.184266	-0.004993	0.451002
H95	H	1.177538	-0.127028	0.542114
H96	H	1.100518	-0.028857	0.552253
H97	H	1.099078	-0.115641	0.469436
H98	H	1.221688	0.035918	0.489880
H99	H	1.220268	-0.050878	0.407058
H100	H	1.167055	0.016971	0.563383
