data_functionalizedCrystal
_audit_creation_method	'MofGen! by Chris Wilmer'
_symmetry_space_group_name_H-M	'P1'
_symmetry_Int_Tables_number	1
_symmetry_cell_setting	triclinic
loop_
_symmetry_equiv_pos_as_xyz
  x,y,z
_cell_length_a	16.109317
_cell_length_b	16.109301
_cell_length_c	14.586319
_cell_angle_alpha	89.994786
_cell_angle_beta	89.998916
_cell_angle_gamma	96.535152
loop_
_atom_site_label
_atom_site_type_symbol
_atom_site_fract_x
_atom_site_fract_y
_atom_site_fract_z
O1	O	-1.103122	0.106931	-0.076146
O2	O	-0.861062	0.120216	-0.076169
O3	O	-0.988742	-0.007457	-0.076147
O4	O	-0.975443	0.234604	-0.076167
O5	O	-0.988733	-0.007459	0.076333
O6	O	-0.861053	0.120214	0.076312
O7	O	-1.103113	0.106929	0.076335
Cu8	Cu	-0.982083	0.113572	0.090246
Cu9	Cu	-0.982093	0.113574	-0.090080
O10	O	-0.975434	0.234603	0.076313
C11	C	-0.830083	0.119675	0.000068
C12	C	-0.737788	0.118054	0.000060
C13	C	-0.438719	0.112821	-0.083047
C14	C	-0.525441	0.114338	-0.083051
C15	C	-0.525450	0.114325	0.083192
C16	C	-0.438731	0.112802	0.083195
C17	C	-0.395367	0.112054	0.000073
C18	C	-0.568808	0.115095	0.000066
C19	C	-0.662835	0.116740	0.000062
C20	C	-0.301335	0.110408	0.000076
C21	C	-0.988199	-0.038433	0.000093
C22	C	-0.986584	-0.130728	0.000095
C23	C	-1.058591	-0.352996	0.000087
C24	C	-1.057067	-0.439717	0.000079
C25	C	-0.905579	-0.419851	0.000068
C26	C	-0.907104	-0.333132	0.000069
C27	C	-0.983612	-0.299707	0.000083
C28	C	-0.980563	-0.473147	0.000075
C29	C	-0.978910	-0.567173	0.000066
C30	C	-0.985266	-0.205675	0.000090
C31	C	-0.134092	0.107472	0.000091
C32	C	-0.226387	0.109095	0.000079
C33	C	-0.975977	0.265578	0.000071
C34	C	-0.977592	0.357874	0.000063
N35	N	-0.982081	0.113570	0.217078
N36	N	-0.982101	0.113570	-0.216912
C37	C	-1.038636	0.057055	0.452094
C38	C	-1.038639	0.057053	0.548075
C39	C	-0.925540	0.170087	0.548065
C40	C	-0.925534	0.170084	0.452086
C41	C	-0.982087	0.113569	0.404103
C42	C	-0.982095	0.113570	0.596063
C43	C	-0.982097	0.113568	0.700131
C44	C	-0.982084	0.113570	0.300029
H45	H	-0.560734	0.114962	-0.150736
H46	H	-0.843289	-0.447077	0.000059
H47	H	-1.084685	0.011033	0.587147
H48	H	-0.403433	0.112177	0.150885
H49	H	-0.879496	0.216101	0.587143
H50	H	-0.846044	-0.289742	0.000064
O51	O	-1.093613	0.002251	0.405421
C52	C	-1.144880	0.046758	0.349846
H53	H	-1.146323	0.112320	0.378759
H54	H	-1.118822	0.051124	0.277121
C55	C	-1.232357	-0.079613	0.312812
C56	C	-1.234136	0.000910	0.348328
H57	H	-1.287414	-0.107895	0.311871
H58	H	-1.197817	-0.109599	0.350250
H59	H	-1.210639	-0.075963	0.252210
H60	H	-1.255844	-0.002741	0.408932
H61	H	-1.268682	0.030894	0.310899
O62	O	-0.396729	0.112056	-0.163870
C63	C	-0.453591	0.113079	-0.237234
H64	H	-0.518856	0.087855	-0.212866
H65	H	-0.454075	0.179903	-0.262792
C66	C	-0.346726	0.088982	-0.345692
C67	C	-0.426885	0.057995	-0.315765
H68	H	-0.330252	0.055008	-0.394136
H69	H	-0.308416	0.088296	-0.296266
H70	H	-0.347140	0.144668	-0.366984
H71	H	-0.426468	0.002315	-0.294463
H72	H	-0.465195	0.058671	-0.365189
O73	O	-0.567697	0.115099	0.163850
C74	C	-0.653537	0.116589	0.146027
H75	H	-0.661928	0.143107	0.074590
H76	H	-0.686889	0.050362	0.149969
C77	C	-0.680611	0.139291	0.305469
C78	C	-0.690916	0.171866	0.217733
H79	H	-0.703670	0.173384	0.349703
H80	H	-0.622779	0.138283	0.317479
H81	H	-0.708404	0.084102	0.308741
H82	H	-0.663114	0.227049	0.214458
H83	H	-0.748743	0.172884	0.205724
H84	H	-1.120889	-0.325785	0.000097
H85	H	-1.118122	-0.483101	0.000080
O86	O	-0.870568	0.225067	0.405603
C87	C	-0.820645	0.274940	0.468533
H88	H	-0.854731	0.275897	0.536950
H89	H	-0.758895	0.247922	0.478748
C90	C	-0.761614	0.363446	0.347026
C91	C	-0.803483	0.364628	0.431054
H92	H	-0.751024	0.418769	0.323907
H93	H	-0.795246	0.329844	0.304628
H94	H	-0.710161	0.340927	0.355550
H95	H	-0.854940	0.387136	0.422527
H96	H	-0.769860	0.398236	0.473450
