data_functionalizedCrystal
_audit_creation_method	'MofGen! by Chris Wilmer'
_symmetry_space_group_name_H-M	'P1'
_symmetry_Int_Tables_number	1
_symmetry_cell_setting	triclinic
loop_
_symmetry_equiv_pos_as_xyz
  x,y,z
_cell_length_a	11.792241
_cell_length_b	14.853567
_cell_length_c	13.930277
_cell_angle_alpha	89.995755
_cell_angle_beta	89.999552
_cell_angle_gamma	96.085827
loop_
_atom_site_label
_atom_site_type_symbol
_atom_site_fract_x
_atom_site_fract_y
_atom_site_fract_z
O1	O	-0.148181	1.196945	-0.079754
O2	O	-0.165833	0.934554	-0.079769
O3	O	0.008203	1.072117	-0.079767
O4	O	-0.322217	1.059382	-0.079756
O5	O	0.008206	1.072098	0.079895
O6	O	-0.165829	0.934535	0.079893
O7	O	-0.148177	1.196926	0.079908
Zn8	Zn	-0.157003	1.065728	0.105250
Zn9	Zn	-0.157008	1.065753	-0.105111
O10	O	-0.322213	1.059363	0.079906
C11	C	-0.165032	0.900953	0.000060
C12	C	-0.162635	0.800860	0.000054
C13	C	-0.049122	0.387884	0.000071
C14	C	-0.255880	0.367408	0.000077
C15	C	-0.258134	0.461451	0.000074
C16	C	-0.155880	0.518715	0.000068
C17	C	-0.051372	0.481936	0.000065
C18	C	-0.362640	0.498237	0.000067
C19	C	-0.364898	0.592285	0.000063
C20	C	-0.262642	0.649550	0.000064
C21	C	-0.158131	0.612766	0.000062
C22	C	-0.055877	0.670030	0.000057
C23	C	0.048637	0.633248	0.000062
C24	C	0.050883	0.539201	0.000066
C25	C	-0.264889	0.743596	0.000059
C26	C	-0.058127	0.764081	0.000051
C27	C	-0.364501	1.060173	0.000076
C28	C	-0.490500	1.062567	0.000081
C29	C	-0.721185	1.066970	0.000057
C30	C	-0.592815	1.064524	0.000070
C31	C	0.050491	1.071308	0.000061
C32	C	0.176489	1.068913	0.000050
C33	C	-0.148979	1.230527	0.000077
C34	C	-0.151376	1.330621	0.000077
N35	N	-0.156999	1.065717	0.248816
N36	N	-0.157003	1.065771	-0.248677
C37	C	-0.234041	1.004838	0.701085
C38	C	-0.079966	1.126693	0.701056
C39	C	-0.079963	1.126682	0.600560
C40	C	-0.157000	1.065749	0.550322
C41	C	-0.234042	1.004827	0.600580
C42	C	-0.002930	1.187610	0.550295
C43	C	-0.002925	1.187602	0.449793
C44	C	-0.079958	1.126664	0.399553
C45	C	-0.157001	1.065738	0.449817
C46	C	-0.234039	1.004805	0.399579
C47	C	-0.311078	0.943875	0.449841
C48	C	-0.311075	0.943889	0.550340
C49	C	-0.079961	1.126650	0.299054
C50	C	-0.234040	1.004794	0.299074
H51	H	-0.445889	0.451606	0.000062
H52	H	-0.017242	1.176263	0.258136
O53	O	-0.377602	0.783266	0.000053
H54	H	-0.361991	0.858282	0.000044
H55	H	-0.373808	0.894266	0.408925
O56	O	-0.394175	0.878184	0.604547
H57	H	-0.381241	0.888440	0.682870
O58	O	0.080181	1.253304	0.395588
H59	H	0.032314	1.297353	0.349789
H60	H	0.131891	0.679884	0.000050
O61	O	0.163601	0.499532	0.000067
H62	H	0.147985	0.424516	0.000061
H63	H	0.025142	0.810700	0.000050
O64	O	-0.477614	0.631957	0.000081
H65	H	-0.548338	0.576337	0.000097
H66	H	0.035970	0.357932	0.000079
H67	H	-0.296770	0.955172	0.258176
O68	O	-0.366166	0.305653	0.000093
H69	H	-0.347044	0.234077	0.000105
O70	O	-0.317138	0.939125	0.755285
H71	H	-0.304205	0.949369	0.833609
H72	H	-0.017250	1.176308	0.741963
O73	O	0.080155	1.253330	0.604475
H74	H	0.067220	1.243092	0.682802
