data_functionalizedCrystal
_audit_creation_method	'MofGen! by Chris Wilmer'
_symmetry_space_group_name_H-M	'P1'
_symmetry_Int_Tables_number	1
_symmetry_cell_setting	triclinic
loop_
_symmetry_equiv_pos_as_xyz
  x,y,z
_cell_length_a	16.959455
_cell_length_b	16.959454
_cell_length_c	16.959455
_cell_angle_alpha	90.010582
_cell_angle_beta	90.001568
_cell_angle_gamma	90.017022
loop_
_atom_site_label
_atom_site_type_symbol
_atom_site_fract_x
_atom_site_fract_y
_atom_site_fract_z
Zn1	Zn	1.208284	-0.314856	0.446928
Zn2	Zn	1.708284	0.185144	0.946928
Zn3	Zn	1.208236	-0.447012	0.314758
Zn4	Zn	1.708236	0.052988	0.814758
Zn5	Zn	1.076142	-0.314844	0.314766
Zn6	Zn	1.576142	0.185156	0.814766
Zn7	Zn	1.076077	-0.446990	0.446896
Zn8	Zn	1.576077	0.053010	0.946896
O9	O	1.142185	-0.380925	0.380837
O10	O	1.642185	0.119075	0.880837
O11	O	1.318889	-0.332401	0.429405
O12	O	1.818889	0.167599	0.929405
O13	O	1.190721	-0.429483	0.204148
O14	O	1.690721	0.070517	0.704148
O15	O	1.093718	-0.204235	0.332314
O16	O	1.593718	0.295765	0.832314
O17	O	1.318853	-0.429495	0.332301
O18	O	1.818853	0.070505	0.832301
O19	O	1.190803	-0.204244	0.429413
O20	O	1.690803	0.295756	0.929413
O21	O	1.093672	-0.332380	0.204154
O22	O	1.593672	0.167620	0.704154
O23	O	0.965523	-0.332359	0.332283
O24	O	1.465523	0.167641	0.832283
O25	O	1.093608	-0.429458	0.557511
O26	O	1.593608	0.070542	1.057511
O27	O	0.965475	-0.429446	0.429359
O28	O	1.465475	0.070554	0.929359
O29	O	1.190740	-0.332380	0.557535
O30	O	1.690740	0.167620	1.057535
O31	O	1.190658	-0.557620	0.332270
O32	O	1.690658	-0.057620	0.832270
O33	O	1.093561	-0.557603	0.429351
O34	O	1.593561	-0.057603	0.929351
C35	C	0.936819	-0.380899	0.380819
C36	C	1.436819	0.119101	0.880819
C37	C	0.848962	-0.380907	0.380830
C38	C	1.348962	0.119093	0.880830
C39	C	0.477487	-0.330331	0.330395
C40	C	0.977487	0.169669	0.830395
C41	C	0.477486	-0.431585	0.431324
C42	C	0.977486	0.068415	0.931324
C43	C	0.560032	-0.431574	0.431319
C44	C	1.060032	0.068426	0.931319
C45	C	0.601309	-0.380941	0.380851
C46	C	1.101309	0.119059	0.880851
C47	C	0.560040	-0.330320	0.330387
C48	C	1.060040	0.169680	0.830387
C49	C	0.601307	-0.482200	0.481776
C50	C	1.101307	0.017800	0.981776
C51	C	0.683858	-0.482191	0.481773
C52	C	1.183858	0.017809	0.981773
C53	C	0.725137	-0.431554	0.431308
C54	C	1.225137	0.068446	0.931308
C55	C	0.683863	-0.380930	0.380843
C56	C	1.183863	0.119070	0.880843
C57	C	0.725140	-0.330297	0.330374
C58	C	1.225140	0.169703	0.830374
C59	C	0.683867	-0.279668	0.279913
C60	C	1.183867	0.220332	0.779913
C61	C	0.601319	-0.279682	0.279922
C62	C	1.101319	0.220318	0.779922
C63	C	0.807685	-0.431540	0.431298
C64	C	1.307685	0.068460	0.931298
C65	C	0.807693	-0.330286	0.330366
C66	C	1.307693	0.169714	0.830366
C67	C	1.142119	-0.586292	0.380824
C68	C	1.642119	-0.086292	0.880824
C69	C	1.142163	-0.674148	0.380844
C70	C	1.642163	-0.174148	0.880844
C71	C	1.091700	-1.045645	0.431382
C72	C	1.591700	-0.545645	0.931382
C73	C	1.192890	-1.045602	0.330373
C74	C	1.692890	-0.545602	0.830373
C75	C	1.192862	-0.963056	0.330365
C76	C	1.692862	-0.463056	0.830365
C77	C	1.142252	-0.921801	0.380866
C78	C	1.642252	-0.421801	0.880866
C79	C	1.091669	-0.963092	0.431375
C80	C	1.591669	-0.463092	0.931375
C81	C	1.243438	-0.921759	0.279852
C82	C	1.743438	-0.421759	0.779852
C83	C	1.243412	-0.839208	0.279842
C84	C	1.743412	-0.339208	0.779842
C85	C	1.192805	-0.797952	0.330348
C86	C	1.692805	-0.297952	0.830348
C87	C	1.142221	-0.839248	0.380859
C88	C	1.642221	-0.339248	0.880859
C89	C	1.091611	-0.797992	0.431360
C90	C	1.591611	-0.297992	0.931360
C91	C	1.041030	-0.839287	0.481875
C92	C	1.541030	-0.339287	0.981875
C93	C	1.041062	-0.921835	0.481880
C94	C	1.541062	-0.421835	0.981880
C95	C	1.192773	-0.715403	0.330343
C96	C	1.692773	-0.215403	0.830343
C97	C	1.091580	-0.715439	0.431353
C98	C	1.591580	-0.215439	0.931353
C99	C	1.348353	-0.380952	0.380856
C100	C	1.848353	0.119048	0.880856
C101	C	1.436210	-0.380964	0.380864
C102	C	1.936210	0.119036	0.880864
C103	C	1.142172	-0.380918	0.587005
C104	C	1.642172	0.119082	1.087005
C105	C	1.142166	-0.380915	0.674862
C106	C	1.642166	0.119085	1.174862
C107	C	1.142273	-0.174757	0.380868
C108	C	1.642273	0.325243	0.880868
C109	C	1.142310	-0.086901	0.380881
C110	C	1.642310	0.413099	0.880881
C111	C	1.091606	-0.431480	1.046328
C112	C	1.591606	0.068520	1.546328
C113	C	1.192750	-0.330392	1.046347
C114	C	1.692750	0.169608	1.546347
C115	C	1.192748	-0.330386	0.963801
C116	C	1.692748	0.169614	1.463801
C117	C	1.142174	-0.380928	0.922515
C118	C	1.642174	0.119072	1.422515
C119	C	1.091603	-0.431477	0.963774
C120	C	1.591603	0.068523	1.463774
C121	C	1.243323	-0.279844	0.922536
C122	C	1.743323	0.220156	1.422536
C123	C	1.243323	-0.279836	0.839985
C124	C	1.743323	0.220164	1.339985
C125	C	1.192745	-0.330375	0.798697
C126	C	1.692745	0.169625	1.298697
C127	C	1.142172	-0.380925	0.839961
C128	C	1.642172	0.119075	1.339961
C129	C	1.091598	-0.431467	0.798675
C130	C	1.591598	0.068533	1.298675
C131	C	1.041020	-0.482014	0.839938
C132	C	1.541020	0.017986	1.339938
C133	C	1.041025	-0.482016	0.922486
C134	C	1.541025	0.017984	1.422486
C135	C	1.192740	-0.330373	0.716148
C136	C	1.692740	0.169627	1.216148
C137	C	1.091596	-0.431464	0.716121
C138	C	1.591596	0.068536	1.216121
C139	C	1.142187	-0.380946	1.175471
C140	C	1.642187	0.119054	1.675471
C141	C	1.142179	-0.380938	1.087614
C142	C	1.642179	0.119062	1.587614
H143	H	0.717486	-0.238447	0.238818
H144	H	1.217486	0.261553	0.738818
H145	H	1.050370	-0.681854	0.472480
H146	H	1.550370	-0.181854	0.972480
H147	H	1.284598	-0.805592	0.238711
H148	H	1.784598	-0.305592	0.738711
H149	H	1.284502	-0.238700	0.956157
H150	H	1.784502	0.261300	1.456157
H151	H	0.999850	-0.523171	0.956090
H152	H	1.499850	-0.023171	1.456090
H153	H	0.999819	-0.805687	0.522990
H154	H	1.499819	-0.305687	1.022990
C155	C	0.384662	-0.442727	0.537629
C156	C	0.884662	0.057273	1.037629
C157	C	0.432113	-0.487234	0.486798
C158	C	0.932113	0.012766	0.986798
H159	H	0.356652	-0.477084	0.571881
H160	H	0.856652	0.022916	1.071881
H161	H	0.348277	-0.412589	0.507572
H162	H	0.848277	0.087411	1.007572
H163	H	0.416883	-0.408332	0.567917
H164	H	0.916883	0.091668	1.067917
H165	H	0.399891	-0.521625	0.456506
H166	H	0.899891	-0.021625	0.956506
H167	H	0.468503	-0.517386	0.516858
H168	H	0.968503	-0.017386	1.016858
H169	H	1.284637	-0.955355	0.238731
H170	H	1.784637	-0.455355	0.738731
H171	H	0.999847	-0.523169	0.806312
H172	H	1.499847	-0.023169	1.306312
C173	C	0.934225	-0.476485	0.476094
C174	C	1.434225	0.023515	0.976094
C175	C	0.853052	-0.487187	0.486757
C176	C	1.353052	0.012813	0.986757
H177	H	0.962231	-0.510846	0.510332
H178	H	1.462231	-0.010846	1.010332
H179	H	0.947758	-0.423400	0.487759
H180	H	1.447758	0.076600	0.987759
H181	H	0.947738	-0.487967	0.422961
H182	H	1.447738	0.012033	0.922961
H183	H	0.839539	-0.475700	0.539889
H184	H	1.339539	0.024300	1.039889
H185	H	0.839515	-0.540285	0.475098
H186	H	1.339515	-0.040285	0.975098
C187	C	1.046691	-0.476375	1.172855
C188	C	1.546691	0.023625	1.672855
C189	C	1.036014	-0.487042	1.091679
C190	C	1.536014	0.012958	1.591679
H191	H	1.012373	-0.510681	1.200851
H192	H	1.512373	-0.010681	1.700851
H193	H	1.035143	-0.423272	1.186390
H194	H	1.535143	0.076728	1.686390
H195	H	1.099796	-0.487952	1.186376
H196	H	1.599796	0.012048	1.686376
H197	H	0.982910	-0.475459	1.078157
H198	H	1.482910	0.024541	1.578157
H199	H	1.047557	-0.540157	1.078139
H200	H	1.547557	-0.040157	1.578139
C201	C	1.288206	-0.234914	0.713456
C202	C	1.788206	0.265086	1.213456
C203	C	1.298895	-0.224256	0.794631
C204	C	1.798895	0.275744	1.294631
H205	H	1.322512	-0.200598	0.685458
H206	H	1.822512	0.299402	1.185458
H207	H	1.235102	-0.223353	0.699947
H208	H	1.735102	0.276647	1.199947
H209	H	1.299769	-0.288020	0.699912
H210	H	1.799769	0.211980	1.199912
H211	H	1.287326	-0.171152	0.808177
H212	H	1.787326	0.328848	1.308177
H213	H	1.352011	-0.235811	0.808146
H214	H	1.852011	0.264189	1.308146
C215	C	0.996170	-1.048394	0.526728
C216	C	1.496170	-0.548394	1.026728
C217	C	0.985460	-0.967227	0.537394
C218	C	1.485460	-0.467227	1.037394
H219	H	0.961837	-1.076418	0.560995
H220	H	1.461837	-0.576418	1.060995
H221	H	1.049265	-1.061882	0.538350
H222	H	1.549265	-0.561882	1.038350
H223	H	0.984656	-1.061931	0.473605
H224	H	1.484656	-0.561931	0.973605
H225	H	0.996979	-0.953690	0.590516
H226	H	1.496979	-0.453690	1.090516
H227	H	0.932352	-0.953734	0.525777
H228	H	1.432352	-0.453734	1.025777
H229	H	1.233951	-0.681785	0.289211
H230	H	1.733951	-0.181785	0.789211
C231	C	0.452067	-0.291620	0.196618
C232	C	0.952067	0.208380	0.696618
C233	C	0.432127	-0.274681	0.274928
C234	C	0.932127	0.225319	0.774928
H235	H	0.424066	-0.257260	0.162377
H236	H	0.924066	0.242740	0.662377
H237	H	0.438520	-0.344705	0.184966
H238	H	0.938520	0.155295	0.684966
H239	H	0.507140	-0.284370	0.189401
H240	H	1.007140	0.215630	0.689401
H241	H	0.377055	-0.281937	0.282147
H242	H	0.877055	0.218063	0.782147
H243	H	0.445668	-0.221584	0.286584
H244	H	0.945668	0.278416	0.786584
H245	H	0.567693	-0.523428	0.522859
H246	H	1.067693	-0.023428	1.022859
H247	H	1.233929	-0.289248	1.079967
H248	H	1.733929	0.210752	1.579967
H249	H	0.841295	-0.289049	0.289273
H250	H	1.341295	0.210951	0.789273
C251	C	0.675556	-0.582275	0.581545
C252	C	1.175556	-0.082275	1.081545
C253	C	0.729221	-0.537833	0.537246
C254	C	1.229221	-0.037833	1.037246
H255	H	0.703564	-0.616621	0.615796
H256	H	1.203564	-0.116621	1.115796
H257	H	0.643356	-0.612464	0.547057
H258	H	1.143356	-0.112464	1.047057
H259	H	0.643363	-0.547878	0.611835
H260	H	1.143363	-0.047878	1.111835
H261	H	0.761410	-0.572230	0.506950
H262	H	1.261410	-0.072230	1.006950
H263	H	0.761434	-0.507642	0.571738
H264	H	1.261434	-0.007642	1.071738
H265	H	0.567708	-0.238464	0.238838
H266	H	1.067708	0.261536	0.738838
H267	H	1.233922	-0.289220	0.682556
H268	H	1.733922	0.210780	1.182556
H269	H	1.050521	-1.079271	0.472513
H270	H	1.550521	-0.579271	0.972513
C271	C	0.985260	-0.442438	0.623290
C272	C	1.485260	0.057562	1.123290
C273	C	1.036001	-0.487025	0.670746
C274	C	1.536001	0.012975	1.170746
H275	H	0.950936	-0.476741	0.595283
H276	H	1.450936	0.023259	1.095283
H277	H	1.015377	-0.412347	0.586901
H278	H	1.515377	0.087653	1.086901
H279	H	0.955044	-0.407996	0.655506
H280	H	1.455044	0.092004	1.155506
H281	H	1.066222	-0.521463	0.638529
H282	H	1.566222	-0.021463	1.138529
H283	H	1.005881	-0.517129	0.707139
H284	H	1.505881	-0.017129	1.207139
C285	C	1.237813	-1.172124	0.285486
C286	C	1.737813	-0.672124	0.785486
C287	C	1.248484	-1.090948	0.274829
C288	C	1.748484	-0.590948	0.774829
H289	H	1.272131	-1.200119	0.251187
H290	H	1.772131	-0.700119	0.751187
H291	H	1.184714	-1.185665	0.273900
H292	H	1.684714	-0.685665	0.773900
H293	H	1.249371	-1.185641	0.338597
H294	H	1.749371	-0.685641	0.838597
H295	H	1.236920	-1.077430	0.221719
H296	H	1.736920	-0.577430	0.721719
H297	H	1.301595	-1.077401	0.286410
H298	H	1.801595	-0.577401	0.786410
