data_functionalizedCrystal
_audit_creation_method	'MofGen! by Chris Wilmer'
_symmetry_space_group_name_H-M	'P1'
_symmetry_Int_Tables_number	1
_symmetry_cell_setting	triclinic
loop_
_symmetry_equiv_pos_as_xyz
  x,y,z
_cell_length_a	23.532361
_cell_length_b	23.532407
_cell_length_c	22.010155
_cell_angle_alpha	89.990798
_cell_angle_beta	89.988583
_cell_angle_gamma	82.839173
loop_
_atom_site_label
_atom_site_type_symbol
_atom_site_fract_x
_atom_site_fract_y
_atom_site_fract_z
O1	O	0.755286	0.069007	-0.050470
O2	O	1.255286	0.569007	0.449530
O3	O	0.589419	0.079038	-0.050486
O4	O	1.089419	0.579038	0.449514
O5	O	0.677354	-0.008910	-0.050466
O6	O	1.177354	0.491090	0.449534
O7	O	0.667351	0.156955	-0.050490
O8	O	1.167351	0.656955	0.449510
O9	O	0.677328	-0.008910	0.050584
O10	O	1.177328	0.491090	0.550584
O11	O	0.589393	0.079038	0.050565
O12	O	1.089393	0.579038	0.550565
O13	O	0.755260	0.069007	0.050580
O14	O	1.255260	0.569007	0.550580
Cu15	Cu	0.672324	0.074023	0.059799
Cu16	Cu	1.172324	0.574023	0.559799
Cu17	Cu	0.672355	0.074023	-0.059705
Cu18	Cu	1.172355	0.574023	0.440295
O19	O	0.667324	0.156955	0.050561
O20	O	1.167324	0.656955	0.550561
C21	C	0.568189	0.078787	0.000038
C22	C	1.068189	0.578787	0.500038
C23	C	0.504971	0.078032	0.000032
C24	C	1.004971	0.578032	0.500032
C25	C	0.677086	-0.030126	0.000060
C26	C	1.177086	0.469874	0.500060
C27	C	0.676320	-0.093343	0.000065
C28	C	1.176320	0.406657	0.500065
C29	C	0.231741	0.074728	-0.055046
C30	C	0.731741	0.574728	0.444954
C31	C	0.291141	0.075443	-0.055048
C32	C	0.791141	0.575443	0.444952
O33	O	0.321879	0.075793	-0.101892
O34	O	0.821879	0.575793	0.398108
N35	N	0.320832	0.075804	0.000035
N36	N	0.820832	0.575804	0.500035
C37	C	0.291122	0.075445	0.055123
C38	C	0.791122	0.575445	0.555123
O39	O	0.321831	0.075817	0.101975
O40	O	0.821831	0.575817	0.601975
C41	C	0.231724	0.074726	0.055124
C42	C	0.731724	0.574726	0.555124
C43	C	0.202035	0.074370	0.000037
C44	C	0.702035	0.574370	0.500037
C45	C	0.202052	0.074372	-0.110128
C46	C	0.702052	0.574372	0.389872
C47	C	0.142657	0.073658	-0.110126
C48	C	0.642657	0.573658	0.389874
C49	C	0.112950	0.073301	-0.055043
C50	C	0.612950	0.573301	0.444957
C51	C	0.142639	0.073657	0.000039
C52	C	0.642639	0.573657	0.500039
C53	C	0.202015	0.074362	0.110211
C54	C	0.702015	0.574362	0.610211
C55	C	0.142612	0.073642	0.110207
C56	C	0.642612	0.573642	0.610207
C57	C	0.112923	0.073287	0.055121
C58	C	0.612923	0.573287	0.555121
C59	C	0.053536	0.072585	0.055125
C60	C	0.553536	0.572585	0.555125
N61	N	0.023845	0.072224	0.000042
N62	N	0.523845	0.572224	0.500042
C63	C	0.053552	0.072582	-0.055042
C64	C	0.553552	0.572582	0.444958
C65	C	0.415862	0.076954	0.055117
C66	C	0.915862	0.576954	0.555117
C67	C	0.475258	0.077677	0.055116
C68	C	0.975258	0.577677	0.555116
C69	C	0.475274	0.077674	-0.055055
C70	C	0.975274	0.577674	0.444945
C71	C	0.415876	0.076955	-0.055054
C72	C	0.915876	0.576955	0.444946
C73	C	0.386171	0.076593	0.000034
C74	C	0.886171	0.576593	0.500034
C75	C	-0.071184	0.071083	-0.055034
C76	C	0.428816	0.571083	0.444966
C77	C	-0.130585	0.070372	-0.055027
C78	C	0.369415	0.570372	0.444973
C79	C	-0.130595	0.070371	0.055144
C80	C	0.369405	0.570371	0.555144
C81	C	-0.071199	0.071086	0.055137
C82	C	0.428801	0.571086	0.555137
C83	C	-0.041495	0.071440	0.000044
C84	C	0.458505	0.571440	0.500044
O85	O	0.022761	0.072232	0.101945
O86	O	0.522761	0.572232	0.601945
O87	O	0.022836	0.072202	-0.101886
O88	O	0.522836	0.572202	0.398114
C89	C	0.723555	-0.492454	0.000036
C90	C	1.223555	0.007546	0.500036
C91	C	0.722844	-0.551854	0.000031
C92	C	1.222844	-0.051854	0.500031
O93	O	0.766630	-0.588606	0.000013
O94	O	1.266630	-0.088606	0.500013
N95	N	0.670566	-0.574471	0.000027
N96	N	1.170566	-0.074471	0.500027
C97	C	0.618997	-0.537685	0.000021
C98	C	1.118997	-0.037685	0.500021
O99	O	0.574465	-0.562377	0.000016
O100	O	1.074465	-0.062377	0.500016
C101	C	0.619709	-0.478286	0.000021
C102	C	1.119709	0.021714	0.500021
C103	C	0.671990	-0.455672	0.000032
C104	C	1.171990	0.044328	0.500032
C105	C	0.775832	-0.469839	0.000046
C106	C	1.275832	0.030161	0.500046
C107	C	0.776543	-0.410443	0.000052
C108	C	1.276543	0.089557	0.500052
C109	C	0.724977	-0.373662	0.000048
C110	C	1.224977	0.126338	0.500048
C111	C	0.672701	-0.396276	0.000038
C112	C	1.172701	0.103724	0.500038
C113	C	0.568140	-0.441501	0.000011
C114	C	1.068140	0.058499	0.500011
C115	C	0.568857	-0.382099	0.000011
C116	C	1.068857	0.117901	0.500011
C117	C	0.621137	-0.359485	0.000021
C118	C	1.121137	0.140515	0.500021
C119	C	0.621847	-0.300099	0.000039
C120	C	1.121847	0.199901	0.500039
N121	N	0.674124	-0.277481	0.000044
N122	N	1.174124	0.222519	0.500044
C123	C	0.725690	-0.314263	0.000048
C124	C	1.225690	0.185737	0.500048
C125	C	0.617505	-0.662427	0.000019
C126	C	1.117505	-0.162427	0.500019
C127	C	0.616793	-0.721825	0.000023
C128	C	1.116793	-0.221825	0.500023
C129	C	0.720640	-0.735990	0.000032
C130	C	1.220640	-0.235990	0.500032
C131	C	0.721352	-0.676591	0.000033
C132	C	1.221352	-0.176591	0.500033
C133	C	0.669783	-0.639810	0.000024
C134	C	1.169783	-0.139810	0.500024
C135	C	0.727179	-0.189526	0.000061
C136	C	1.227179	0.310474	0.500061
C137	C	0.727886	-0.130124	0.000069
C138	C	1.227886	0.369876	0.500069
C139	C	0.624039	-0.115965	0.000057
C140	C	1.124039	0.384035	0.500057
C141	C	0.623332	-0.175361	0.000051
C142	C	1.123332	0.324639	0.500051
C143	C	0.674907	-0.212141	0.000051
C144	C	1.174907	0.287859	0.500051
O145	O	0.578083	-0.263312	0.000055
O146	O	1.078083	0.236688	0.500055
O147	O	0.770214	-0.289562	0.000045
O148	O	1.270214	0.210438	0.500045
C149	C	0.776489	0.069258	0.000055
C150	C	1.276489	0.569258	0.500055
C151	C	0.839708	0.070014	0.000057
C152	C	1.339708	0.570014	0.500057
C153	C	0.667592	0.178171	0.000033
C154	C	1.167592	0.678171	0.500033
C155	C	0.668358	0.241388	0.000024
C156	C	1.168358	0.741388	0.500024
N157	N	0.672306	0.074022	0.143851
N158	N	1.172306	0.574022	0.643851
N159	N	0.672377	0.074018	-0.143757
N160	N	1.172377	0.574018	0.356243
C161	C	0.706701	0.108377	0.563629
C162	C	1.206701	0.608377	1.063629
C163	C	0.706708	0.108376	0.627237
C164	C	1.206708	0.608376	1.127237
O165	O	0.735932	0.137582	0.660127
O166	O	1.235932	0.637582	1.160127
N167	N	0.672366	0.074016	0.659059
N168	N	1.172366	0.574016	1.159059
C169	C	0.638020	0.039651	0.627269
C170	C	1.138020	0.539651	1.127269
O171	O	0.608810	0.010425	0.660177
O172	O	1.108810	0.510425	1.160177
C173	C	0.638016	0.039650	0.563663
C174	C	1.138016	0.539650	1.063663
C175	C	0.672356	0.074016	0.531845
C176	C	1.172356	0.574016	1.031845
C177	C	0.741039	0.142741	0.531811
C178	C	1.241039	0.642741	1.031811
C179	C	0.741031	0.142743	0.468208
C180	C	1.241031	0.642743	0.968208
C181	C	0.706686	0.108382	0.436423
C182	C	1.206686	0.608382	0.936423
C183	C	0.672348	0.074018	0.468241
C184	C	1.172348	0.574018	0.968241
C185	C	0.603673	0.005282	0.531875
C186	C	1.103673	0.505282	1.031875
C187	C	0.603673	0.005284	0.468264
C188	C	1.103673	0.505284	0.968264
C189	C	0.638013	0.039650	0.436446
C190	C	1.138013	0.539650	0.936446
C191	C	0.637996	0.039659	0.372853
C192	C	1.137996	0.539659	0.872853
N193	N	0.672338	0.074019	0.341032
N194	N	1.172338	0.574019	0.841032
C195	C	0.706683	0.108380	0.372816
C196	C	1.206683	0.608380	0.872816
C197	C	0.638030	0.039656	0.760847
C198	C	1.138030	0.539656	1.260847
C199	C	0.638030	0.039659	0.824452
C200	C	1.138030	0.539659	1.324452
C201	C	0.706719	0.108384	0.824416
C202	C	1.206719	0.608384	1.324416
C203	C	0.706716	0.108382	0.760809
C204	C	1.206716	0.608382	1.260809
C205	C	0.672372	0.074015	0.729025
C206	C	1.172372	0.574015	1.229025
C207	C	0.706664	0.108383	0.239245
C208	C	1.206664	0.608383	0.739245
C209	C	0.706651	0.108383	0.175636
C210	C	1.206651	0.608383	0.675636
C211	C	0.637964	0.039657	0.175679
C212	C	1.137964	0.539657	0.675679
C213	C	0.637974	0.039658	0.239282
C214	C	1.137974	0.539658	0.739282
C215	C	0.672329	0.074023	0.271064
C216	C	1.172329	0.574023	0.771064
O217	O	0.608789	0.010466	0.339923
O218	O	1.108789	0.510466	0.839923
O219	O	0.735893	0.137596	0.339901
O220	O	1.235893	0.637596	0.839901
H221	H	-0.047006	0.071372	-0.099896
H222	H	0.452994	0.571372	0.400104
H223	H	-0.154793	0.070082	0.099991
H224	H	0.345207	0.570082	0.599991
H225	H	0.499472	0.077965	-0.099907
H226	H	0.999472	0.577965	0.400093
H227	H	0.575706	-0.022703	0.442389
H228	H	1.075706	0.477297	0.942389
H229	H	0.610057	0.011672	0.734973
H230	H	1.110057	0.511672	1.234973
O231	O	0.743772	0.145437	0.858706
O232	O	1.243772	0.645437	1.358706
H233	H	0.716300	0.176184	0.887696
H234	H	1.216300	0.676184	1.387696
H235	H	0.391707	0.076666	-0.099910
H236	H	0.891707	0.576666	0.400090
H237	H	0.526862	-0.352154	0.000003
H238	H	1.026862	0.147846	0.500003
H239	H	0.580761	-0.193774	0.000060
H240	H	1.080761	0.306226	0.500060
O241	O	0.507272	0.078070	0.114533
O242	O	1.007272	0.578070	0.614533
H243	H	0.553568	0.078632	0.105285
H244	H	1.053568	0.578632	0.605285
H245	H	0.770461	-0.111716	0.000079
H246	H	1.270461	0.388284	0.500079
H247	H	0.762627	-0.765949	0.000033
H248	H	1.262627	-0.265949	0.500033
H249	H	0.734615	0.136371	0.149732
H250	H	1.234615	0.636371	0.649732
O251	O	0.743718	0.145443	0.273520
O252	O	1.243718	0.645443	0.773520
H253	H	0.716248	0.176193	0.302508
H254	H	1.216248	0.676193	0.802508
H255	H	0.610000	0.011683	0.149788
H256	H	1.110000	0.511683	0.649788
O257	O	0.600937	0.002595	0.273607
O258	O	1.100937	0.502595	0.773607
H259	H	0.577055	-0.021300	0.240816
H260	H	1.077055	0.478700	0.740816
O261	O	0.600997	0.002581	0.858759
O262	O	1.100997	0.502581	1.358759
H263	H	0.555406	0.015200	0.846558
H264	H	1.055406	0.515200	1.346558
O265	O	-0.162606	0.069970	-0.114443
O266	O	0.337394	0.569970	0.385557
H267	H	-0.131964	0.070326	-0.152745
H268	H	0.368036	0.570326	0.347255
H269	H	0.226177	0.074649	0.155068
H270	H	0.726177	0.574649	0.655068
H271	H	0.575509	-0.632483	0.000017
H272	H	1.075509	-0.132483	0.500017
H273	H	0.118429	0.073352	0.155067
H274	H	0.618429	0.573352	0.655067
H275	H	0.817825	-0.499782	0.000047
H276	H	1.317825	0.000218	0.500047
O277	O	0.511751	-0.465884	-0.000003
O278	O	1.011751	0.034116	0.499997
H279	H	0.476020	-0.430320	-0.000013
H280	H	0.976020	0.069680	0.499987
O281	O	0.560405	-0.746214	0.000020
O282	O	1.060405	-0.246214	0.500020
H283	H	0.524671	-0.710653	0.000014
H284	H	1.024671	-0.210653	0.500014
O285	O	0.110652	0.073248	-0.169547
O286	O	0.610652	0.573248	0.330453
H287	H	0.116763	0.112197	-0.195983
H288	H	0.616763	0.612197	0.304017
H289	H	0.582056	-0.086007	0.000055
H290	H	1.082056	0.413993	0.500055
O291	O	0.778071	0.179807	0.433892
O292	O	1.278071	0.679807	0.933892
H293	H	0.801955	0.203693	0.466688
H294	H	1.301955	0.703693	0.966688
O295	O	0.383821	0.076575	0.114536
O296	O	0.883821	0.576575	0.614536
H297	H	0.414450	0.076954	0.152833
H298	H	0.914450	0.576954	0.652833
O299	O	0.778082	0.179807	0.566088
O300	O	1.278082	0.679807	1.066088
H301	H	0.801951	0.203701	0.533267
H302	H	1.301951	0.703701	1.033267
O303	O	0.777739	-0.652201	0.000033
O304	O	1.277739	-0.152201	0.500033
H305	H	0.813473	-0.687762	0.000031
H306	H	1.313473	-0.187762	0.500031
H307	H	-0.047027	0.071386	0.099993
H308	H	0.452973	0.571386	0.599993
O309	O	0.782804	-0.229192	0.000070
O310	O	1.282804	0.270808	0.500070
H311	H	0.819270	-0.203479	0.000085
H312	H	1.319270	0.296521	0.500085
H313	H	0.734678	0.136367	0.734907
H314	H	1.234678	0.636367	1.234907
O315	O	0.566663	-0.031813	0.566185
O316	O	1.066663	0.468187	1.066185
H317	H	0.542799	-0.055717	0.533387
H318	H	1.042799	0.444283	1.033387
H319	H	0.819115	-0.392037	0.000058
H320	H	1.319115	0.107963	0.500058
H321	H	0.226234	0.074662	-0.154986
H322	H	0.726234	0.574662	0.345014
