data_functionalizedCrystal
_audit_creation_method	'MofGen! by Chris Wilmer'
_symmetry_space_group_name_H-M	'P1'
_symmetry_Int_Tables_number	1
_symmetry_cell_setting	triclinic
loop_
_symmetry_equiv_pos_as_xyz
  x,y,z
_cell_length_a	12.759401
_cell_length_b	18.215405
_cell_length_c	18.215399
_cell_angle_alpha	89.969449
_cell_angle_beta	89.982118
_cell_angle_gamma	90.026410
loop_
_atom_site_label
_atom_site_type_symbol
_atom_site_fract_x
_atom_site_fract_y
_atom_site_fract_z
Zn1	Zn	1.606160	-0.292962	-0.416064
Zn2	Zn	2.106160	0.207038	0.083936
Zn3	Zn	1.606030	-0.416033	-0.292992
Zn4	Zn	2.106030	0.083967	0.207008
Zn5	Zn	1.430468	-0.292988	-0.293016
Zn6	Zn	1.930468	0.207012	0.206984
Zn7	Zn	1.430420	-0.415995	-0.416021
Zn8	Zn	1.930420	0.084005	0.083979
O9	O	1.518269	-0.354494	-0.354524
O10	O	2.018269	0.145506	0.145476
O11	O	1.753164	-0.309293	-0.399747
O12	O	2.253164	0.190707	0.100253
O13	O	1.582707	-0.399738	-0.190011
O14	O	2.082707	0.100262	0.309989
O15	O	1.453849	-0.190001	-0.309366
O16	O	1.953849	0.309999	0.190634
O17	O	1.753068	-0.399713	-0.309326
O18	O	2.253068	0.100287	0.190674
O19	O	1.582930	-0.189981	-0.399769
O20	O	2.082930	0.310019	0.100231
O21	O	1.453723	-0.309338	-0.190028
O22	O	1.953723	0.190662	0.309972
O23	O	1.283441	-0.309300	-0.309325
O24	O	1.783441	0.190700	0.190675
O25	O	1.453766	-0.399647	-0.519011
O26	O	1.953766	0.100353	-0.019011
O27	O	1.283405	-0.399672	-0.399696
O28	O	1.783405	0.100328	0.100304
O29	O	1.582882	-0.309255	-0.519043
O30	O	2.082882	0.190745	-0.019043
O31	O	1.582659	-0.519012	-0.309285
O32	O	2.082659	-0.019012	0.190715
O33	O	1.453640	-0.518984	-0.399674
O34	O	1.953640	-0.018984	0.100326
C35	C	1.245302	-0.354485	-0.354509
C36	C	1.745302	0.145515	0.145491
C37	C	1.128525	-0.354499	-0.354520
C38	C	1.628525	0.145501	0.145480
C39	C	1.073672	-0.401628	-0.401503
C40	C	1.573672	0.098372	0.098497
C41	C	0.963948	-0.401631	-0.401517
C42	C	1.463948	0.098369	0.098483
C43	C	0.963940	-0.307375	-0.307560
C44	C	1.463940	0.192625	0.192440
C45	C	1.073662	-0.307369	-0.307550
C46	C	1.573662	0.192631	0.192450
C47	C	1.518159	-0.545701	-0.354488
C48	C	2.018159	-0.045701	0.145512
C49	C	1.518207	-0.627500	-0.354498
C50	C	2.018207	-0.127500	0.145502
C51	C	1.585546	-0.815684	-0.307519
C52	C	2.085546	-0.315684	0.192481
C53	C	1.585593	-0.892543	-0.307536
C54	C	2.085593	-0.392543	0.192464
C55	C	1.451128	-0.892553	-0.401581
C56	C	1.951128	-0.392553	0.098419
C57	C	1.451087	-0.815696	-0.401567
C58	C	1.951087	-0.315696	0.098433
C59	C	1.518294	-0.777263	-0.354531
C60	C	2.018294	-0.277263	0.145469
C61	C	1.518382	-0.930979	-0.354564
C62	C	2.018382	-0.430979	0.145436
C63	C	1.518433	-1.014313	-0.354583
C64	C	2.018433	-0.514313	0.145417
C65	C	1.518245	-0.693924	-0.354512
C66	C	2.018245	-0.193924	0.145488
C67	C	1.792303	-0.354504	-0.354539
C68	C	2.292303	0.145496	0.145461
C69	C	1.909079	-0.354508	-0.354545
C70	C	2.409079	0.145492	0.145455
C71	C	1.518333	-0.354444	-0.546477
C72	C	2.018333	0.145556	-0.046477
C73	C	1.518361	-0.354422	-0.628275
C74	C	2.018361	0.145578	-0.128275
C75	C	1.518409	-0.162542	-0.354575
C76	C	2.018409	0.337458	0.145425
C77	C	1.518469	-0.080743	-0.354597
C78	C	2.018469	0.419257	0.145403
C79	C	1.585616	-0.307311	-0.816487
C80	C	2.085616	0.192689	-0.316487
C81	C	1.585628	-0.307290	-0.893346
C82	C	2.085628	0.192710	-0.393346
C83	C	1.451180	-0.401419	-0.893302
C84	C	1.951180	0.098581	-0.393302
C85	C	1.451163	-0.401436	-0.816444
C86	C	1.951163	0.098564	-0.316444
C87	C	1.518387	-0.354383	-0.778039
C88	C	2.018387	0.145617	-0.278039
C89	C	1.518416	-0.354345	-0.931755
C90	C	2.018416	0.145655	-0.431755
C91	C	1.518430	-0.354322	-1.015089
C92	C	2.018430	0.145678	-0.515089
C93	C	1.518373	-0.354405	-0.694700
C94	C	2.018373	0.145595	-0.194700
C95	C	1.518266	-0.354492	-0.163317
C96	C	2.018266	0.145508	0.336683
C97	C	1.518442	-0.354306	-0.081519
C98	C	2.018442	0.145694	0.418481
H99	H	0.919257	-0.269004	-0.269318
H100	H	1.419257	0.230996	0.230682
H101	H	1.396410	-0.439768	-0.785139
H102	H	1.896410	0.060232	-0.285139
O103	O	1.127116	-0.261610	-0.261976
O104	O	1.627116	0.238390	0.238024
C105	C	1.296150	-0.219864	-0.220293
C106	C	1.796150	0.280136	0.279707
C107	C	1.235745	-0.271709	-0.271949
C108	C	1.735745	0.228291	0.228051
H109	H	1.383987	-0.228021	-0.228328
H110	H	1.883987	0.271979	0.271672
H111	H	1.274698	-0.160524	-0.233329
H112	H	1.774698	0.339476	0.266671
H113	H	1.274472	-0.232702	-0.160938
H114	H	1.774472	0.267298	0.339062
H115	H	1.257390	-0.258937	-0.331322
H116	H	1.757390	0.241063	0.168678
H117	H	1.257202	-0.331033	-0.258851
H118	H	1.757202	0.168967	0.241149
H119	H	1.640271	-0.784394	-0.269221
H120	H	2.140271	-0.284394	0.230779
H121	H	1.396409	-0.923854	-0.439875
H122	H	1.896409	-0.423854	0.060125
H123	H	1.640351	-0.268996	-0.785220
H124	H	2.140351	0.231004	-0.285220
H125	H	1.118339	-0.440003	-0.439750
H126	H	1.618339	0.059997	0.060250
O127	O	1.385656	-0.778483	-0.447261
O128	O	1.885656	-0.278483	0.052739
C129	C	1.252336	-0.786597	-0.540575
C130	C	1.752336	-0.286597	-0.040575
C131	C	1.326356	-0.828832	-0.488853
C132	C	1.826356	-0.328832	0.011147
H133	H	1.204389	-0.827286	-0.574227
H134	H	1.704389	-0.327286	-0.074227
H135	H	1.197343	-0.750689	-0.506781
H136	H	1.697343	-0.250689	-0.006781
H137	H	1.300541	-0.750540	-0.579047
H138	H	1.800541	-0.250540	-0.079047
H139	H	1.278236	-0.864929	-0.450371
H140	H	1.778236	-0.364929	0.049629
H141	H	1.381353	-0.864693	-0.522693
H142	H	1.881353	-0.364693	-0.022693
H143	H	1.640357	-0.923821	-0.269255
H144	H	2.140357	-0.423821	0.230745
O145	O	1.651036	-0.261542	-0.930580
O146	O	2.151036	0.238458	-0.430580
C147	C	1.784347	-0.168152	-0.922508
C148	C	2.284347	0.331848	-0.422508
C149	C	1.710342	-0.219939	-0.880249
C150	C	2.210342	0.280061	-0.380249
H151	H	1.832299	-0.134492	-0.881834
H152	H	2.332299	0.365508	-0.381834
H153	H	1.839335	-0.201896	-0.958468
H154	H	2.339335	0.298104	-0.458468
H155	H	1.736129	-0.129691	-0.958515
H156	H	2.236129	0.370309	-0.458515
H157	H	1.758475	-0.258410	-0.844203
H158	H	2.258475	0.241590	-0.344203
H159	H	1.655351	-0.186149	-0.844335
H160	H	2.155351	0.313851	-0.344335
O161	O	1.386039	-0.447206	-0.930644
O162	O	1.886039	0.052794	-0.430644
C163	C	1.371858	-0.546517	-1.017420
C164	C	1.871858	-0.046517	-0.517420
C165	C	1.445748	-0.494718	-0.975164
C166	C	1.945748	0.005282	-0.475164
H167	H	1.420102	-0.584933	-1.053436
H168	H	1.920102	-0.084933	-0.553436
H169	H	1.323820	-0.580217	-0.976769
H170	H	1.823820	-0.080217	-0.476769
H171	H	1.316934	-0.512705	-1.053375
H172	H	1.816934	-0.012705	-0.553375
H173	H	1.500736	-0.528473	-0.939208
H174	H	2.000736	-0.028473	-0.439208
H175	H	1.493713	-0.461016	-1.015854
H176	H	1.993713	0.038984	-0.515854
O177	O	0.910827	-0.447482	-0.447178
O178	O	1.410827	0.052518	0.052822
C179	C	0.922422	-0.540941	-0.540398
C180	C	1.422422	-0.040941	-0.040398
C181	C	0.982711	-0.489063	-0.488709
C182	C	1.482711	0.010937	0.011291
H183	H	0.980513	-0.574562	-0.574001
H184	H	1.480513	-0.074562	-0.074001
H185	H	0.871035	-0.579428	-0.506581
H186	H	1.371035	-0.079428	-0.006581
H187	H	0.871071	-0.507195	-0.578917
H188	H	1.371071	-0.007195	-0.078917
H189	H	1.034119	-0.522750	-0.450180
H190	H	1.534119	-0.022750	0.049820
H191	H	1.034031	-0.450574	-0.522572
H192	H	1.534031	0.049426	-0.022572
