data_functionalizedCrystal
_audit_creation_method	'MofGen! by Chris Wilmer'
_symmetry_space_group_name_H-M	'P1'
_symmetry_Int_Tables_number	1
_symmetry_cell_setting	triclinic
loop_
_symmetry_equiv_pos_as_xyz
  x,y,z
_cell_length_a	12.759401
_cell_length_b	17.640280
_cell_length_c	12.759393
_cell_angle_alpha	101.231878
_cell_angle_beta	90.018567
_cell_angle_gamma	78.799979
loop_
_atom_site_label
_atom_site_type_symbol
_atom_site_fract_x
_atom_site_fract_y
_atom_site_fract_z
Zn1	Zn	1.690822	-0.314645	0.509510
Zn2	Zn	1.726246	-0.446842	0.298339
Zn3	Zn	1.515134	-0.314684	0.333839
Zn4	Zn	1.550626	-0.446779	0.473998
O5	O	1.620707	-0.380738	0.403922
O6	O	1.842545	-0.332192	0.481504
O7	O	1.698214	-0.429354	0.156016
O8	O	1.508761	-0.204071	0.386861
O9	O	1.868571	-0.429317	0.326357
O10	O	1.637838	-0.204043	0.515926
O11	O	1.543111	-0.332258	0.182097
O12	O	1.372818	-0.332196	0.352426
O13	O	1.569251	-0.429208	0.625741
O14	O	1.398894	-0.429246	0.455400
O15	O	1.672252	-0.332130	0.651832
O16	O	1.732629	-0.557441	0.291922
O17	O	1.603601	-0.557395	0.420977
C18	C	1.347735	-0.380719	0.403912
C19	C	1.230961	-0.380730	0.403928
C20	C	1.162566	-0.330253	0.484791
C21	C	1.052846	-0.330268	0.484794
C22	C	1.079928	-0.431245	0.323065
C23	C	1.189645	-0.431225	0.323059
C24	C	1.203882	-0.279758	0.565660
C25	C	1.135486	-0.229277	0.646530
C26	C	1.025766	-0.229292	0.646533
C27	C	0.984442	-0.279788	0.565665
C28	C	1.675839	-0.586097	0.348767
C29	C	1.699520	-0.673951	0.325206
C30	C	1.441231	-0.962907	0.583289
C31	C	1.463486	-1.045459	0.561117
C32	C	1.597926	-1.045442	0.426868
C33	C	1.575686	-0.962889	0.449032
C34	C	1.497337	-0.921628	0.527243
C35	C	1.631792	-0.921609	0.392986
C36	C	1.609550	-0.839063	0.415145
C37	C	1.531202	-0.797796	0.493350
C38	C	1.475095	-0.839081	0.549402
C39	C	1.710135	-0.962872	0.314770
C40	C	1.766241	-0.921592	0.258724
C41	C	1.744005	-0.839044	0.280888
C42	C	1.665657	-0.797777	0.359093
C43	C	1.800112	-0.797759	0.224836
C44	C	1.777870	-0.715212	0.246995
C45	C	1.643415	-0.715231	0.381252
C46	C	1.894745	-0.380757	0.403932
C47	C	2.011524	-0.380765	0.403936
C48	C	1.620759	-0.380658	0.677977
C49	C	1.620781	-0.380624	0.794762
C50	C	1.565389	-0.174576	0.459315
C51	C	1.541815	-0.086722	0.482920
C52	C	1.620700	-0.380760	0.130948
C53	C	1.620822	-0.380571	0.014223
C54	C	1.674422	-0.330070	0.863213
C55	C	1.674439	-0.330042	0.972945
C56	C	1.567174	-0.431127	0.945764
C57	C	1.567151	-0.431151	0.836035
C58	C	1.728053	-0.279543	0.821940
C59	C	1.781699	-0.228986	0.890392
C60	C	1.781716	-0.228958	1.000124
C61	C	1.728087	-0.279486	1.041404
H62	H	1.293220	-0.279740	0.565667
H63	H	1.417804	-1.079066	0.606775
C64	C	1.355029	-0.917516	0.669312
N65	N	1.290095	-0.883326	0.734093
H66	H	1.046273	-0.472358	0.257228
H67	H	1.523511	-0.472264	0.979384
C68	C	1.886282	-0.843157	0.138796
N69	N	1.951185	-0.877351	0.073987
C70	C	1.684103	-1.090839	0.340834
N71	N	1.749015	-1.125031	0.276032
C72	C	1.264884	-0.486756	0.234108
N73	N	1.321555	-0.528582	0.167107
C74	C	1.180944	-0.173730	0.735476
N75	N	1.215181	-0.131891	0.802471
H76	H	0.970078	-0.188182	0.712375
C77	C	1.852419	-0.966989	0.172690
N78	N	1.917330	-1.001180	0.107889
H79	H	1.825353	-0.187843	0.856775
C80	C	0.863745	-0.279800	0.565670
N81	N	0.772838	-0.279811	0.565679
C82	C	1.508150	-0.486767	0.760734
N83	N	1.463708	-0.528657	0.704017
H84	H	1.728245	-1.030086	0.296734
C85	C	1.557212	-0.669839	0.467275
N86	N	1.492279	-0.635650	0.532056
C87	C	1.840722	-0.173342	1.075418
N88	N	1.885173	-0.131453	1.132128
C89	C	1.388892	-0.793689	0.635425
N90	N	1.323959	-0.759500	0.700206
C91	C	1.728103	-0.279448	1.162115
N92	N	1.728120	-0.279421	1.253032
H93	H	1.513086	-0.730581	0.511383
H94	H	1.823556	-0.681602	0.201355
H95	H	1.728047	-0.279563	0.732592
