data_functionalizedCrystal
_audit_creation_method	'MofGen! by Chris Wilmer'
_symmetry_space_group_name_H-M	'P1'
_symmetry_Int_Tables_number	1
_symmetry_cell_setting	triclinic
loop_
_symmetry_equiv_pos_as_xyz
  x,y,z
_cell_length_a	8.497374
_cell_length_b	13.032831
_cell_length_c	13.032721
_cell_angle_alpha	89.097115
_cell_angle_beta	97.169095
_cell_angle_gamma	97.172717
loop_
_atom_site_label
_atom_site_type_symbol
_atom_site_fract_x
_atom_site_fract_y
_atom_site_fract_z
Zn1	Zn	1.299749	1.519982	0.609635
Zn2	Zn	1.064703	1.498071	0.781567
Zn3	Zn	0.998870	1.348061	0.587743
Zn4	Zn	1.291326	1.326132	0.759681
O5	O	1.163662	1.423062	0.684657
O6	O	1.299646	1.660983	0.650764
O7	O	0.835209	1.478179	0.755853
O8	O	1.014756	1.389213	0.446737
O9	O	1.126959	1.644885	0.777081
O10	O	1.235810	1.515523	0.462821
O11	O	0.786842	1.367967	0.613452
O12	O	1.006589	1.201245	0.592230
O13	O	1.513205	1.351839	0.739780
O14	O	1.221455	1.185134	0.718552
O15	O	1.519393	1.494260	0.629542
O16	O	1.118792	1.456916	0.922574
O17	O	1.285291	1.330593	0.906494
C18	C	1.105965	1.155876	0.650641
C19	C	1.081324	1.041569	0.636114
C20	C	1.208312	1.389026	0.951852
C21	C	1.227486	1.374559	1.066171
C22	C	1.176523	0.982652	0.692239
C23	C	1.151057	0.864510	0.677225
C24	C	1.575141	1.423054	0.684657
C25	C	1.753788	1.423055	0.684668
C26	C	1.221586	1.691291	0.718806
C27	C	1.246269	1.805594	0.733358
C28	C	1.118879	1.457259	0.416421
C29	C	1.099795	1.471831	0.302116
C30	C	1.153738	1.430666	1.125067
C31	C	1.173554	1.415716	1.243222
H32	H	1.276884	1.019674	0.751400
H33	H	1.251375	1.356612	1.280269
H34	H	1.050699	0.827493	0.618052
O35	O	1.320431	1.304033	1.110199
C36	C	1.385120	1.254747	1.032495
H37	H	1.386966	1.306493	0.961204
H38	H	1.512198	1.239801	1.062193
H39	H	1.308511	1.178096	1.011256
O40	O	0.961402	0.997525	0.565593
C41	C	0.813444	1.020825	0.591230
H42	H	0.833390	1.093815	0.640608
H43	H	0.731232	1.033845	0.517388
H44	H	0.756068	0.953660	0.636422
O45	O	1.006751	1.542208	1.257868
C46	C	0.881842	1.491518	1.188333
H47	H	0.859925	1.406443	1.210538
H48	H	0.768305	1.528945	1.191749
H49	H	0.916290	1.498177	1.106486
O50	O	1.366088	0.849873	0.803819
C51	C	1.471684	0.919439	0.753208
H52	H	1.406625	0.945350	0.677232
H53	H	1.515910	0.989690	0.804656
H54	H	1.577904	0.879533	0.736813
O55	O	1.060701	1.501037	1.080809
C56	C	0.935798	1.450344	1.011273
H57	H	0.913878	1.365271	1.033482
H58	H	0.822260	1.487773	1.014681
H59	H	0.970254	1.456998	0.929428
