data_functionalizedCrystal
_audit_creation_method	'MofGen! by Chris Wilmer'
_symmetry_space_group_name_H-M	'P1'
_symmetry_Int_Tables_number	1
_symmetry_cell_setting	triclinic
loop_
_symmetry_equiv_pos_as_xyz
  x,y,z
_cell_length_a	16.625548
_cell_length_b	16.959454
_cell_length_c	16.959447
_cell_angle_alpha	90.026818
_cell_angle_beta	89.981950
_cell_angle_gamma	89.978857
loop_
_atom_site_label
_atom_site_type_symbol
_atom_site_fract_x
_atom_site_fract_y
_atom_site_fract_z
Zn1	Zn	1.232674	0.314643	-0.446952
Zn2	Zn	1.732674	0.814643	0.053048
Zn3	Zn	1.232589	0.446835	-0.314781
Zn4	Zn	1.732589	0.946835	0.185219
Zn5	Zn	1.097842	0.314677	-0.314787
Zn6	Zn	1.597842	0.814677	0.185213
Zn7	Zn	1.097812	0.446786	-0.446917
Zn8	Zn	1.597812	0.946786	0.053083
O9	O	1.165229	0.380735	-0.380859
O10	O	1.665229	0.880735	0.119141
O11	O	1.345495	0.332185	-0.429431
O12	O	1.845495	0.832185	0.070569
O13	O	1.214691	0.429340	-0.204171
O14	O	1.714691	0.929340	0.295829
O15	O	1.115776	0.204062	-0.332335
O16	O	1.615776	0.704062	0.167665
O17	O	1.345432	0.429306	-0.332326
O18	O	1.845432	0.929306	0.167674
O19	O	1.214836	0.204036	-0.429436
O20	O	1.714836	0.704036	0.070564
O21	O	1.115693	0.332244	-0.204175
O22	O	1.615693	0.832244	0.295825
O23	O	0.985005	0.332195	-0.332302
O24	O	1.485005	0.832195	0.167698
O25	O	1.115725	0.429221	-0.557533
O26	O	1.615725	0.929221	-0.057533
O27	O	0.984983	0.429255	-0.429378
O28	O	1.484983	0.929255	0.070622
O29	O	1.214807	0.332137	-0.557558
O30	O	1.714807	0.832137	-0.057558
O31	O	1.214662	0.557440	-0.332293
O32	O	1.714662	1.057440	0.167707
O33	O	1.115642	0.557403	-0.429373
O34	O	1.615642	1.057403	0.070627
C35	C	0.955738	0.380724	-0.380837
C36	C	1.455738	0.880724	0.119163
C37	C	0.866117	0.380738	-0.380847
C38	C	1.366117	0.880738	0.119153
C39	C	1.165161	0.586102	-0.380846
C40	C	1.665161	1.086102	0.119154
C41	C	1.165206	0.673958	-0.380867
C42	C	1.665206	1.173958	0.119133
C43	C	1.165272	0.380670	-0.587028
C44	C	1.665272	0.880670	-0.087028
C45	C	1.165291	0.380642	-0.674884
C46	C	1.665291	0.880642	-0.174884
C47	C	0.537941	0.380743	-0.380880
C48	C	1.037941	0.880743	0.119120
C49	C	0.629250	0.380740	-0.380868
C50	C	1.129250	0.880740	0.119132
C51	C	0.702026	0.380741	-0.380863
C52	C	1.202026	0.880741	0.119137
C53	C	0.793341	0.380737	-0.380852
C54	C	1.293341	0.880737	0.119148
C55	C	1.375538	0.380747	-0.380882
C56	C	1.875538	0.880747	0.119118
C57	C	1.465159	0.380752	-0.380892
C58	C	1.965159	0.880752	0.119108
C59	C	1.165319	0.174567	-0.380890
C60	C	1.665319	0.674567	0.119110
C61	C	1.165357	0.086710	-0.380903
C62	C	1.665357	0.586710	0.119097
C63	C	1.113744	1.045445	-0.431403
C64	C	1.613744	1.545445	0.068597
C65	C	1.216938	1.045423	-0.330396
C66	C	1.716938	1.545423	0.169604
C67	C	1.216910	0.962877	-0.330389
C68	C	1.716910	1.462877	0.169611
C69	C	1.165297	0.921611	-0.380889
C70	C	1.665297	1.421611	0.119111
C71	C	1.113713	0.962891	-0.431396
C72	C	1.613713	1.462891	0.068604
C73	C	1.268488	0.921591	-0.279876
C74	C	1.768488	1.421591	0.220124
C75	C	1.268462	0.839040	-0.279867
C76	C	1.768462	1.339040	0.220133
C77	C	1.216852	0.797772	-0.330371
C78	C	1.716852	1.297772	0.169629
C79	C	1.165266	0.839058	-0.380881
C80	C	1.665266	1.339058	0.119119
C81	C	1.113653	0.797792	-0.431381
C82	C	1.613653	1.297792	0.068619
C83	C	1.062070	0.839075	-0.481896
C84	C	1.562070	1.339075	0.018104
C85	C	1.062103	0.921624	-0.481901
C86	C	1.562103	1.421624	0.018099
C87	C	1.216819	0.715224	-0.330367
C88	C	1.716819	1.215224	0.169633
C89	C	1.113621	0.715238	-0.431374
C90	C	1.613621	1.215238	0.068626
C91	C	1.113818	0.330005	-1.046368
C92	C	1.613818	0.830005	-0.546368
C93	C	1.216905	0.431112	-1.046352
C94	C	1.716905	0.931112	-0.546352
C95	C	1.216891	0.431130	-0.963806
C96	C	1.716891	0.931130	-0.463806
C97	C	1.165339	0.380586	-0.922537
C98	C	1.665339	0.880586	-0.422537
C99	C	1.113801	0.330023	-0.963815
C100	C	1.613801	0.830023	-0.463815
C101	C	1.268423	0.481698	-0.922522
C102	C	1.768423	0.981698	-0.422522
C103	C	1.268410	0.481719	-0.839971
C104	C	1.768410	0.981719	-0.339971
C105	C	1.216861	0.431170	-0.798701
C106	C	1.716861	0.931170	-0.298701
C107	C	1.165322	0.380605	-0.839984
C108	C	1.665322	0.880605	-0.339984
C109	C	1.113769	0.330060	-0.798715
C110	C	1.613769	0.830060	-0.298715
C111	C	1.062233	0.279490	-0.839996
C112	C	1.562233	0.779490	-0.339996
C113	C	1.062252	0.279475	-0.922545
C114	C	1.562252	0.779475	-0.422545
C115	C	1.216843	0.431186	-0.716153
C116	C	1.716843	0.931186	-0.216153
C117	C	1.113752	0.330079	-0.716162
C118	C	1.613752	0.830079	-0.216162
C119	C	1.165232	0.380744	-0.175493
C120	C	1.665232	0.880744	0.324507
C121	C	1.165370	0.380549	-0.087637
C122	C	1.665370	0.880549	0.412363
H123	H	1.071595	0.681644	-0.472500
H124	H	1.571595	1.181644	0.027500
H125	H	1.310385	0.522857	-0.956129
H126	H	1.810385	1.022857	-0.456129
H127	H	1.310503	0.955195	-0.238756
H128	H	1.810503	1.455195	0.261244
Cl129	Cl	1.048904	1.097341	-0.494908
Cl130	Cl	1.548904	1.597341	0.005092
H131	H	1.071775	0.288915	-0.682567
H132	H	1.571775	0.788915	-0.182567
H133	H	1.310374	0.522897	-0.806367
H134	H	1.810374	1.022897	-0.306367
Cl135	Cl	0.997184	0.787189	-0.545375
Cl136	Cl	1.497184	1.287189	-0.045375
Cl137	Cl	0.997466	0.215910	-0.974445
Cl138	Cl	1.497466	0.715910	-0.474445
H139	H	1.258954	1.079026	-0.289276
H140	H	1.758954	1.579026	0.210724
Cl141	Cl	1.333314	0.787148	-0.216371
Cl142	Cl	1.833314	1.287148	0.283629
H143	H	1.020106	0.955244	-0.523026
H144	H	1.520106	1.455244	-0.023026
H145	H	1.020256	0.238341	-0.806385
H146	H	1.520256	0.738341	-0.306385
H147	H	1.258813	0.681615	-0.289235
H148	H	1.758813	1.181615	0.210765
Cl149	Cl	1.049036	0.266432	-1.098262
Cl150	Cl	1.549036	0.766432	-0.598262
Cl151	Cl	1.281703	0.494656	-1.098233
Cl152	Cl	1.781703	0.994656	-0.598233
H153	H	1.258808	0.472354	-0.682546
H154	H	1.758808	0.972354	-0.182546
