data_functionalizedCrystal
_audit_creation_method	'MofGen! by Chris Wilmer'
_symmetry_space_group_name_H-M	'P1'
_symmetry_Int_Tables_number	1
_symmetry_cell_setting	triclinic
loop_
_symmetry_equiv_pos_as_xyz
  x,y,z
_cell_length_a	19.121102
_cell_length_b	18.215405
_cell_length_c	18.215399
_cell_angle_alpha	90.030551
_cell_angle_beta	87.541604
_cell_angle_gamma	92.420928
loop_
_atom_site_label
_atom_site_type_symbol
_atom_site_fract_x
_atom_site_fract_y
_atom_site_fract_z
Zn1	Zn	1.073728	0.341065	-0.464034
Zn2	Zn	1.073640	0.464132	-0.340958
Zn3	Zn	0.956277	0.335830	-0.335738
Zn4	Zn	0.956244	0.458834	-0.458742
O5	O	1.014972	0.399965	-0.399868
O6	O	1.172001	0.361798	-0.452107
O7	O	1.058049	0.447139	-0.237280
O8	O	0.971907	0.233542	-0.352787
O9	O	1.171936	0.452215	-0.361683
O10	O	1.058198	0.237388	-0.447045
O11	O	0.971822	0.352875	-0.233445
O12	O	0.857988	0.347738	-0.347656
O13	O	0.971852	0.443186	-0.562430
O14	O	0.857964	0.438109	-0.438027
O15	O	1.058166	0.356661	-0.566317
O16	O	1.058017	0.566412	-0.356553
O17	O	0.971767	0.562519	-0.443088
C18	C	0.832492	0.391781	-0.391701
C19	C	0.754426	0.388298	-0.388225
C20	C	1.014898	0.591168	-0.399829
C21	C	1.014931	0.672969	-0.399840
C22	C	1.015015	0.399916	-0.591823
C23	C	1.015033	0.399896	-0.673623
C24	C	0.717756	0.433783	-0.433569
C25	C	0.644405	0.430501	-0.430306
C26	C	0.607725	0.381735	-0.381695
C27	C	0.644400	0.336244	-0.336349
C28	C	0.717750	0.339524	-0.339616
C29	C	0.386256	0.369472	-0.369483
C30	C	0.312901	0.366197	-0.366218
C31	C	0.312911	0.460453	-0.460176
C32	C	0.386262	0.463731	-0.463436
C33	C	0.422931	0.418238	-0.418093
C34	C	0.532748	0.378380	-0.378356
C35	C	0.497906	0.421590	-0.421435
C36	C	1.198165	0.408182	-0.408068
C37	C	1.276231	0.411683	-0.411562
C38	C	1.015066	0.208016	-0.399924
C39	C	1.015106	0.126219	-0.399948
C40	C	1.059947	0.863170	-0.354873
C41	C	1.059978	0.940030	-0.354892
C42	C	0.970088	0.936013	-0.444921
C43	C	0.970060	0.859154	-0.444905
C44	C	1.014989	0.822735	-0.399877
C45	C	1.015048	0.976453	-0.399912
C46	C	1.015081	1.059788	-0.399933
C47	C	1.014956	0.739394	-0.399856
C48	C	1.059993	0.354799	-0.863843
C49	C	1.060002	0.354778	-0.940702
C50	C	0.970123	0.444881	-0.936643
C51	C	0.970111	0.444897	-0.859785
C52	C	1.015051	0.399858	-0.823387
C53	C	1.015070	0.399820	-0.977104
C54	C	1.015079	0.399798	-1.060438
C55	C	1.015041	0.399879	-0.740048
C56	C	1.014970	0.399963	-0.208662
C57	C	1.015088	0.399782	-0.126869
H58	H	0.747616	0.473496	-0.473151
N59	N	0.924210	0.490936	-0.818454
N60	N	0.948893	0.538946	-0.776657
H61	H	0.916475	0.571457	-0.747466
H62	H	0.416122	0.503443	-0.503018
N63	N	0.606959	0.476964	-0.476633
N64	N	0.639717	0.520503	-0.520031
H65	H	0.613272	0.553319	-0.552754
H66	H	0.933507	0.965675	-0.481580
N67	N	1.105900	0.308789	-0.826675
N68	N	1.146023	0.268560	-0.862809
H69	H	1.178445	0.236063	-0.836561
H70	H	0.933536	0.481552	-0.966287
N71	N	0.275444	0.506916	-0.506484
N72	N	0.209954	0.503986	-0.503562
H73	H	0.183492	0.536801	-0.536269
N74	N	0.275440	0.316369	-0.316566
N75	N	0.283654	0.248835	-0.321945
H76	H	0.257197	0.213645	-0.286880
N77	N	0.423694	0.323003	-0.323158
N78	N	0.390933	0.279471	-0.279756
H79	H	0.417376	0.246651	-0.247034
N80	N	1.105901	0.308742	-0.982026
N81	N	1.101272	0.240629	-0.973253
H82	H	1.133689	0.208112	-1.002438
N83	N	0.606923	0.286430	-0.286703
N84	N	0.541433	0.283508	-0.283791
H85	H	0.514965	0.248326	-0.248727
H86	H	0.527774	0.461291	-0.461017
N87	N	0.755198	0.293049	-0.293300
N88	N	0.722442	0.249508	-0.249903
H89	H	0.748889	0.216679	-0.217194
N90	N	0.495278	0.328563	-0.328709
N91	N	0.454376	0.279873	-0.352870
H92	H	0.427910	0.244688	-0.317808
H93	H	1.096531	0.833519	-0.318209
N94	N	1.105889	0.981331	-0.308907
N95	N	1.081219	1.023168	-0.260893
H96	H	1.113645	1.052337	-0.228414
H97	H	0.933450	0.826230	-0.481556
