data_functionalizedCrystal
_audit_creation_method	'MofGen! by Chris Wilmer'
_symmetry_space_group_name_H-M	'P1'
_symmetry_Int_Tables_number	1
_symmetry_cell_setting	triclinic
loop_
_symmetry_equiv_pos_as_xyz
  x,y,z
_cell_length_a	14.853569
_cell_length_b	19.188924
_cell_length_c	13.930277
_cell_angle_alpha	89.993371
_cell_angle_beta	89.994756
_cell_angle_gamma	83.388765
loop_
_atom_site_label
_atom_site_type_symbol
_atom_site_fract_x
_atom_site_fract_y
_atom_site_fract_z
O1	O	1.195858	0.091160	-0.079791
O2	O	1.695858	0.591160	0.420209
O3	O	0.933338	0.102018	-0.079804
O4	O	1.433338	0.602018	0.420196
O5	O	1.072177	-0.005041	-0.079786
O6	O	1.572177	0.494959	0.420214
O7	O	1.057019	0.198220	-0.079809
O8	O	1.557019	0.698220	0.420191
O9	O	1.072158	-0.005044	0.079876
O10	O	1.572158	0.494956	0.579876
O11	O	0.933319	0.102016	0.079858
O12	O	1.433319	0.602016	0.579858
O13	O	1.195839	0.091158	0.079870
O14	O	1.695839	0.591158	0.579870
Zn15	Zn	1.064575	0.096587	0.105214
Zn16	Zn	1.564575	0.596587	0.605214
Zn17	Zn	1.064601	0.096590	-0.105147
Zn18	Zn	1.564601	0.596590	0.394853
O19	O	1.057000	0.198218	0.079853
O20	O	1.557000	0.698218	0.579853
C21	C	0.899742	0.101525	0.000026
C22	C	1.399742	0.601525	0.500026
C23	C	0.799667	0.100050	0.000022
C24	C	1.299667	0.600050	0.500022
C25	C	1.071677	-0.031055	0.000046
C26	C	1.571677	0.468945	0.500046
C27	C	1.070207	-0.108565	0.000048
C28	C	1.570207	0.391435	0.500048
C29	C	0.763650	0.035762	0.000026
C30	C	1.263650	0.535762	0.500026
C31	C	0.741649	0.162952	0.000022
C32	C	1.241649	0.662952	0.500022
C33	C	0.647623	0.161569	0.000023
C34	C	1.147623	0.661569	0.500023
C35	C	0.611606	0.097281	0.000027
C36	C	1.111606	0.597281	0.500027
C37	C	0.669615	0.034377	0.000030
C38	C	1.169615	0.534377	0.500030
C39	C	0.589606	0.224471	0.000030
C40	C	1.089606	0.724471	0.500030
C41	C	0.495574	0.223090	0.000033
C42	C	0.995574	0.723090	0.500033
C43	C	0.459555	0.158802	0.000030
C44	C	0.959555	0.658802	0.500030
C45	C	0.517571	0.095895	0.000031
C46	C	1.017571	0.595895	0.500031
C47	C	0.481554	0.031608	0.000035
C48	C	0.981554	0.531608	0.500035
C49	C	0.539568	-0.031300	0.000030
C50	C	1.039568	0.468700	0.500030
C51	C	0.633596	-0.029912	0.000027
C52	C	1.133596	0.470088	0.500027
C53	C	0.365527	0.157414	0.000033
C54	C	0.865527	0.657414	0.500033
C55	C	0.387519	0.030222	0.000039
C56	C	0.887519	0.530222	0.500039
C57	C	1.069531	-0.144965	-0.086983
C58	C	1.569531	0.355035	0.413017
C59	C	1.068137	-0.217792	-0.086991
C60	C	1.568137	0.282208	0.413009
C61	C	1.067436	-0.254219	0.000039
C62	C	1.567436	0.245781	0.500039
C63	C	1.068107	-0.217809	0.087082
C64	C	1.568107	0.282191	0.587082
C65	C	1.069492	-0.144983	0.087087
C66	C	1.569492	0.355017	0.587087
N67	N	1.116557	-0.373719	0.064815
N68	N	1.616557	0.126281	0.564815
N69	N	1.115242	-0.442901	0.064804
N70	N	1.615242	0.057099	0.564804
C71	C	1.063260	-0.473642	0.000029
C72	C	1.563260	0.026358	0.500029
N73	N	1.012653	-0.432587	-0.064750
N74	N	1.512653	0.067413	0.435250
N75	N	1.013972	-0.363398	-0.064742
N76	N	1.513972	0.136602	0.435258
C77	C	1.065934	-0.333187	0.000043
C78	C	1.565934	0.166813	0.500043
C79	C	1.061071	-0.589009	-0.087017
C80	C	1.561071	-0.089009	0.412983
C81	C	1.059671	-0.661837	-0.087020
C82	C	1.559671	-0.161837	0.412980
C83	C	1.059651	-0.661854	0.087055
C84	C	1.559651	-0.161854	0.587055
C85	C	1.061042	-0.589027	0.087056
C86	C	1.561042	-0.089027	0.587056
C87	C	1.061756	-0.552609	0.000018
C88	C	1.561756	-0.052609	0.500018
C89	C	1.229434	0.091651	0.000039
C90	C	1.729434	0.591651	0.500039
C91	C	1.329509	0.093126	0.000037
C92	C	1.829509	0.593126	0.500037
C93	C	1.057499	0.224232	0.000019
C94	C	1.557499	0.724232	0.500019
C95	C	1.058969	0.301741	0.000010
C96	C	1.558969	0.801741	0.500010
N97	N	1.064565	0.096584	0.248780
N98	N	1.564565	0.596584	0.748780
N99	N	1.064619	0.096587	-0.248713
N100	N	1.564619	0.596587	0.251287
C101	C	1.003121	0.143977	0.701042
C102	C	1.503121	0.643977	1.201042
C103	C	1.126106	0.049197	0.701027
C104	C	1.626106	0.549197	1.201027
C105	C	1.126095	0.049195	0.600531
C106	C	1.626095	0.549195	1.100531
C107	C	1.064597	0.096585	0.550286
C108	C	1.564597	0.596585	1.050286
C109	C	1.003110	0.143978	0.600537
C110	C	1.503110	0.643978	1.100537
C111	C	1.187587	0.001808	0.550273
C112	C	1.687587	0.501808	1.050273
C113	C	1.187580	0.001804	0.449771
C114	C	1.687580	0.501804	0.949771
C115	C	1.126077	0.049192	0.399524
C116	C	1.626077	0.549192	0.899524
C117	C	1.064586	0.096586	0.449781
C118	C	1.564586	0.596586	0.949781
C119	C	1.003088	0.143976	0.399536
C120	C	1.503088	0.643976	0.899536
C121	C	0.941593	0.191367	0.449791
C122	C	1.441593	0.691367	0.949791
C123	C	0.941607	0.191365	0.550290
C124	C	1.441607	0.691365	1.050290
C125	C	1.126063	0.049194	0.299025
C126	C	1.626063	0.549194	0.799025
C127	C	1.003077	0.143977	0.299031
C128	C	1.503077	0.643977	0.799031
H129	H	0.358202	-0.022129	0.000038
H130	H	0.858202	0.477871	0.500038
H131	H	0.810889	-0.015455	0.000018
H132	H	1.310889	0.484545	0.500018
H133	H	1.176136	0.010612	0.258112
H134	H	1.676136	0.510612	0.758112
H135	H	0.448346	0.274314	0.000035
H136	H	0.948346	0.774314	0.500035
H137	H	0.318296	0.208632	0.000045
H138	H	0.818296	0.708632	0.500045
F139	F	1.070287	-0.106210	-0.179618
F140	F	1.570287	0.393790	0.320382
H141	H	0.770980	0.215292	0.000025
H142	H	1.270980	0.715292	0.500025
F143	F	0.695344	-0.096856	0.000029
F144	F	1.195344	0.403144	0.500029
H145	H	0.618939	0.276811	0.000033
H146	H	1.118939	0.776811	0.500033
H147	H	1.237652	-0.036784	0.408859
H148	H	1.737652	0.463216	0.908859
F149	F	0.937672	0.194410	0.754524
F150	F	1.437672	0.694410	1.254524
F151	F	1.067416	-0.256539	-0.179626
F152	F	1.567416	0.243461	0.320374
H153	H	1.067534	-0.247472	0.157942
H154	H	1.567534	0.252528	0.657942
F155	F	1.061826	-0.550248	-0.179649
F156	F	1.561826	-0.050248	0.320351
F157	F	0.501225	-0.099717	0.000042
F158	F	1.001225	0.400283	0.500042
F159	F	1.061761	-0.550285	0.179689
F160	F	1.561761	-0.050285	0.679689
F161	F	1.070210	-0.106242	0.179722
F162	F	1.570210	0.393758	0.679722
H163	H	1.059116	-0.691473	-0.157895
H164	H	1.559116	-0.191473	0.342105
F165	F	1.191559	-0.001233	0.754501
F166	F	1.691559	0.498767	1.254501
H167	H	1.059074	-0.691511	0.157916
H168	H	1.559074	-0.191511	0.657916
F169	F	0.937617	0.194414	0.245564
F170	F	1.437617	0.694414	0.745564
H171	H	0.891524	0.229956	0.408870
H172	H	1.391524	0.729956	0.908870
H173	H	0.891540	0.229950	0.591214
H174	H	1.391540	0.729950	1.091214
H175	H	1.237662	-0.036773	0.591186
H176	H	1.737662	0.463227	1.091186
