data_functionalizedCrystal
_audit_creation_method	'MofGen! by Chris Wilmer'
_symmetry_space_group_name_H-M	'P1'
_symmetry_Int_Tables_number	1
_symmetry_cell_setting	triclinic
loop_
_symmetry_equiv_pos_as_xyz
  x,y,z
_cell_length_a	19.188930
_cell_length_b	15.995350
_cell_length_c	14.472311
_cell_angle_alpha	90.006054
_cell_angle_beta	90.018994
_cell_angle_gamma	83.318578
loop_
_atom_site_label
_atom_site_type_symbol
_atom_site_fract_x
_atom_site_fract_y
_atom_site_fract_z
O1	O	-0.926411	-0.104538	-0.077134
O2	O	-0.426411	0.395462	0.422866
O3	O	-0.723136	-0.118610	-0.077070
O4	O	-0.223136	0.381390	0.422930
O5	O	-0.830330	0.010334	-0.077103
O6	O	-0.330330	0.510334	0.422897
O7	O	-0.819217	-0.233482	-0.077101
O8	O	-0.319217	0.266518	0.422899
O9	O	-0.830321	0.010347	0.076579
O10	O	-0.330321	0.510347	0.576579
O11	O	-0.723126	-0.118597	0.076612
O12	O	-0.223126	0.381403	0.576612
O13	O	-0.926402	-0.104525	0.076548
O14	O	-0.426402	0.395475	0.576548
Cu15	Cu	-0.824763	-0.111560	0.090613
Cu16	Cu	-0.324763	0.388440	0.590613
Cu17	Cu	-0.824774	-0.111575	-0.091134
Cu18	Cu	-0.324774	0.388425	0.408866
O19	O	-0.819207	-0.233469	0.076581
O20	O	-0.319207	0.266531	0.576581
C21	C	-0.697119	-0.118148	-0.000221
C22	C	-0.197119	0.381852	0.499779
C23	C	-0.619611	-0.116780	-0.000196
C24	C	-0.119611	0.383220	0.499804
C25	C	-0.952419	-0.104987	-0.000303
C26	C	-0.452419	0.395013	0.499697
C27	C	-1.029927	-0.106355	-0.000333
C28	C	-0.529927	0.393645	0.499667
C29	C	-0.574880	-0.192440	-0.000210
C30	C	-0.074880	0.307560	0.499790
C31	C	-0.502052	-0.191155	-0.000220
C32	C	-0.002052	0.308845	0.499780
C33	C	-0.473960	-0.114205	-0.000235
C34	C	0.026040	0.385795	0.499765
C35	C	-0.518701	-0.038535	-0.000216
C36	C	-0.018701	0.461465	0.499784
C37	C	-0.591526	-0.039823	-0.000197
C38	C	-0.091526	0.460177	0.499803
N39	N	-0.365833	-0.055391	-0.052577
N40	N	0.134167	0.444609	0.447423
N41	N	-0.296652	-0.054174	-0.052598
N42	N	0.203348	0.445826	0.447402
C43	C	-0.254541	-0.110322	-0.000292
C44	C	0.245459	0.389678	0.499708
N45	N	-0.284225	-0.167747	0.052024
N46	N	0.215775	0.332253	0.552024
N47	N	-0.353413	-0.168967	0.052040
N48	N	0.146587	0.331033	0.552040
C49	C	-0.394994	-0.112801	-0.000256
C50	C	0.105006	0.387199	0.499744
C51	C	-0.130842	-0.184594	-0.000315
C52	C	0.369158	0.315406	0.499685
C53	C	-0.058014	-0.183306	-0.000320
C54	C	0.441986	0.316694	0.499680
C55	C	-0.074664	-0.030684	-0.000325
C56	C	0.425336	0.469316	0.499675
C57	C	-0.147491	-0.031974	-0.000311
C58	C	0.352509	0.468026	0.499689
C59	C	-0.175575	-0.108932	-0.000311
C60	C	0.324425	0.391068	0.499689
C61	C	-0.829866	0.041533	-0.000263
C62	C	-0.329866	0.541533	0.499737
C63	C	-0.828489	0.134479	-0.000268
C64	C	-0.328489	0.634479	0.499732
C65	C	-0.819671	-0.264669	-0.000260
C66	C	-0.319671	0.235331	0.499740
C67	C	-0.821049	-0.357614	-0.000261
C68	C	-0.321049	0.142386	0.499739
N69	N	-0.824760	-0.111549	0.218444
N70	N	-0.324760	0.388451	0.718444
C71	C	-0.823542	0.472208	-0.000263
C72	C	-0.323542	0.972208	0.499737
C73	C	-0.747200	0.424494	-0.000584
C74	C	-0.247200	0.924494	0.499416
C75	C	-0.748578	0.327809	-0.000238
C76	C	-0.248578	0.827809	0.499762
C77	C	-0.825995	0.304657	-0.000266
C78	C	-0.325995	0.804657	0.499734
C79	C	-0.863645	0.345879	0.087480
C80	C	-0.363645	0.845879	0.587480
C81	C	-0.861727	0.442508	0.087554
C82	C	-0.361727	0.942508	0.587554
C83	C	-0.863315	0.442858	-0.087211
C84	C	-0.363315	0.942858	0.412789
C85	C	-0.863297	0.345912	-0.088371
C86	C	-0.363297	0.845912	0.411629
C87	C	-0.827386	0.209964	-0.000265
C88	C	-0.327386	0.709964	0.499735
C89	C	-0.822153	0.566901	-0.000259
C90	C	-0.322153	1.066901	0.499741
N91	N	-0.824783	-0.111579	-0.218965
N92	N	-0.324783	0.388421	0.281035
C93	C	-0.824768	-0.111560	0.406944
C94	C	-0.324768	0.388440	0.906944
C95	C	-0.882139	-0.042588	0.446128
C96	C	-0.382139	0.457412	0.946128
C97	C	-0.882347	-0.042770	0.553216
C98	C	-0.382347	0.457230	1.053216
C99	C	-0.824775	-0.111569	0.592535
C100	C	-0.324775	0.388431	1.092535
C101	C	-0.840385	-0.198984	0.553636
C102	C	-0.340385	0.301016	1.053636
C103	C	-0.840793	-0.198574	0.446514
C104	C	-0.340793	0.301426	0.946514
C105	C	-0.751615	-0.093904	0.446458
C106	C	-0.251615	0.406096	0.946458
C107	C	-0.752110	-0.091923	0.553586
C108	C	-0.252110	0.408077	1.053586
C109	C	-0.824778	-0.111579	0.697423
C110	C	-0.324778	0.388421	1.197423
C111	C	-0.824766	-0.111555	0.302056
C112	C	-0.324766	0.388445	0.802056
H113	H	-0.597741	-0.255105	-0.000212
H114	H	-0.097741	0.244895	0.499788
F115	F	-0.454437	-0.271686	-0.000233
F116	F	0.045563	0.228314	0.499767
F117	F	-0.829456	0.308667	0.172857
F118	F	-0.329456	0.808667	0.672857
F119	F	-0.160734	-0.266497	-0.000308
F120	F	0.339266	0.233503	0.499692
H121	H	-0.495823	0.024118	-0.000241
H122	H	0.004177	0.524118	0.499759
H123	H	-0.716691	0.442909	-0.063507
H124	H	-0.216691	0.942909	0.436493
F125	F	-0.937089	0.326099	-0.095330
F126	F	-0.437089	0.826099	0.404670
F127	F	-0.707386	0.450247	0.081004
F128	F	-0.207386	0.950247	0.581004
F129	F	-0.827595	0.309770	-0.173229
F130	F	-0.327595	0.809770	0.326771
F131	F	-0.731912	-0.012359	0.411169
F132	F	-0.231912	0.487641	0.911169
H133	H	-0.718983	0.299274	-0.063137
H134	H	-0.218983	0.799274	0.436863
H135	H	-0.838359	0.463300	-0.153719
H136	H	-0.338359	0.963300	0.346281
H137	H	-0.936639	-0.054060	0.578819
H138	H	-0.436639	0.445940	1.078819
F139	F	-0.010407	-0.263838	-0.000330
F140	F	0.489593	0.236162	0.499670
F141	F	-0.910512	-0.218897	0.413823
F142	F	-0.410512	0.281103	0.913823
F143	F	-0.639135	0.040709	-0.000182
F144	F	-0.139135	0.540709	0.499818
H145	H	-0.936123	-0.053706	0.419173
H146	H	-0.436123	0.446294	0.919173
H147	H	-0.051792	0.031970	-0.000394
H148	H	0.448208	0.531970	0.499606
H149	H	-0.183912	0.029637	-0.000305
H150	H	0.316088	0.529637	0.499695
H151	H	-0.718776	0.299841	0.062787
H152	H	-0.218776	0.799841	0.562787
F153	F	-0.936885	0.484641	-0.088011
F154	F	-0.436885	0.984641	0.411989
F155	F	-0.787205	-0.267694	0.586920
F156	F	-0.287205	0.232306	1.086920
H157	H	-0.800465	-0.251321	0.420593
H158	H	-0.300465	0.248679	0.920593
F159	F	-0.693721	-0.153329	0.588563
F160	F	-0.193721	0.346671	1.088563
H161	H	-0.893116	-0.214913	0.580441
H162	H	-0.393116	0.285087	1.080441
F163	F	-0.825829	0.466307	0.173312
F164	F	-0.325829	0.966307	0.673312
H165	H	-0.873096	0.022208	0.579517
H166	H	-0.373096	0.522208	1.079517
H167	H	-0.917776	0.474962	0.091516
H168	H	-0.417776	0.974962	0.591516
F169	F	-0.870248	0.042631	0.412478
F170	F	-0.370248	0.542631	0.912478
F171	F	-0.736608	-0.007879	0.586836
F172	F	-0.236608	0.492121	1.086836
F173	F	-0.695815	-0.159646	0.413338
F174	F	-0.195815	0.340354	0.913338
F175	F	-0.937987	0.327690	0.091723
F176	F	-0.437987	0.827690	0.591723
