data_functionalizedCrystal
_audit_creation_method	'MofGen! by Chris Wilmer'
_symmetry_space_group_name_H-M	'P1'
_symmetry_Int_Tables_number	1
_symmetry_cell_setting	triclinic
loop_
_symmetry_equiv_pos_as_xyz
  x,y,z
_cell_length_a	12.827893
_cell_length_b	12.594516
_cell_length_c	12.827885
_cell_angle_alpha	89.971756
_cell_angle_beta	89.980538
_cell_angle_gamma	90.016023
loop_
_atom_site_label
_atom_site_type_symbol
_atom_site_fract_x
_atom_site_fract_y
_atom_site_fract_z
Zn1	Zn	1.597667	-0.423689	-0.590861
Zn2	Zn	1.931000	-0.090356	-0.257528
Zn3	Zn	2.264333	0.242977	0.075805
Zn4	Zn	1.597558	-0.601706	-0.416127
Zn5	Zn	1.930892	-0.268373	-0.082793
Zn6	Zn	2.264225	0.064961	0.250540
Zn7	Zn	1.422908	-0.423742	-0.416135
Zn8	Zn	1.756241	-0.090408	-0.082802
Zn9	Zn	2.089574	0.242925	0.250532
Zn10	Zn	1.422891	-0.601626	-0.590827
Zn11	Zn	1.756225	-0.268293	-0.257493
Zn12	Zn	2.089558	0.065040	0.075840
O13	O	1.510256	-0.512691	-0.503487
O14	O	1.843589	-0.179358	-0.170154
O15	O	2.176923	0.153976	0.163179
O16	O	1.743888	-0.447315	-0.567693
O17	O	2.077222	-0.113982	-0.234360
O18	O	2.410555	0.219352	0.098973
O19	O	1.574352	-0.578154	-0.269892
O20	O	1.907685	-0.244821	0.063442
O21	O	2.241019	0.088513	0.396775
O22	O	1.446142	-0.274789	-0.439330
O23	O	1.779475	0.058544	-0.105997
O24	O	2.112809	0.391878	0.227336
O25	O	1.743809	-0.578103	-0.439317
O26	O	2.077142	-0.244770	-0.105983
O27	O	2.410475	0.088563	0.227350
O28	O	1.574537	-0.274751	-0.567701
O29	O	1.907870	0.058583	-0.234368
O30	O	2.241203	0.391916	0.098965
O31	O	1.446037	-0.447404	-0.269898
O32	O	1.779370	-0.114071	0.063436
O33	O	2.112703	0.219262	0.396769
O34	O	1.276669	-0.447327	-0.439297
O35	O	1.610003	-0.113994	-0.105964
O36	O	1.943336	0.219340	0.227370
O37	O	1.446114	-0.577967	-0.737067
O38	O	1.779448	-0.244634	-0.403734
O39	O	2.112781	0.088699	-0.070401
O40	O	1.276658	-0.578018	-0.567642
O41	O	1.609991	-0.244685	-0.234309
O42	O	1.943324	0.088649	0.099024
O43	O	1.574521	-0.447238	-0.737093
O44	O	1.907854	-0.113904	-0.403759
O45	O	2.241188	0.219429	-0.070426
O46	O	1.574336	-0.750641	-0.439283
O47	O	1.907670	-0.417308	-0.105950
O48	O	2.241003	-0.083975	0.227383
O49	O	1.446009	-0.750583	-0.567635
O50	O	1.779343	-0.417249	-0.234301
O51	O	2.112676	-0.083916	0.099032
C52	C	1.238746	-0.512670	-0.503468
C53	C	1.572079	-0.179337	-0.170134
C54	C	1.905413	0.153996	0.163199
C55	C	1.122593	-0.512687	-0.503484
C56	C	1.455926	-0.179354	-0.170150
C57	C	1.789260	0.153979	0.163183
C58	C	1.510188	-0.789232	-0.503477
C59	C	1.843521	-0.455899	-0.170144
C60	C	2.176854	-0.122565	0.163189
C61	C	1.510254	-0.907537	-0.503508
C62	C	1.843587	-0.574204	-0.170174
C63	C	2.176921	-0.240871	0.163159
C64	C	1.070830	-0.577458	-0.566895
C65	C	1.404163	-0.244125	-0.233562
C66	C	1.737497	0.089208	0.099771
C67	C	0.950780	-0.577477	-0.566914
C68	C	1.284113	-0.244144	-0.233580
C69	C	1.617446	0.089190	0.099753
C70	C	1.440450	-0.976797	-0.573269
C71	C	1.773783	-0.643464	-0.239936
C72	C	2.107117	-0.310131	0.093398
C73	C	1.414988	-1.047666	-0.477914
C74	C	1.748321	-0.714333	-0.144580
C75	C	2.081654	-0.380999	0.188753
C76	C	1.535811	-1.047467	-0.598879
C77	C	1.869145	-0.714134	-0.265546
C78	C	2.202478	-0.380801	0.067787
C79	C	1.484741	-0.976848	-0.408102
C80	C	1.818074	-0.643515	-0.074769
C81	C	2.151408	-0.310181	0.258565
C82	C	1.605609	-0.976643	-0.529132
C83	C	1.938942	-0.643310	-0.195799
C84	C	2.272276	-0.309976	0.137535
C85	C	1.580183	-1.047480	-0.433711
C86	C	1.913516	-0.714147	-0.100378
C87	C	2.246850	-0.380813	0.232956
C88	C	1.782826	-0.512712	-0.503508
C89	C	2.116159	-0.179379	-0.170175
C90	C	2.449493	0.153954	0.163159
C91	C	1.898979	-0.512721	-0.503517
C92	C	2.232313	-0.179388	-0.170183
C93	C	2.565646	0.153945	0.163150
C94	C	1.510328	-0.512588	-0.776058
C95	C	1.843661	-0.179254	-0.442724
C96	C	2.176995	0.154079	-0.109391
C97	C	1.510359	-0.512544	-0.892211
C98	C	1.843692	-0.179210	-0.558878
C99	C	2.177025	0.154123	-0.225544
C100	C	1.510353	-0.235070	-0.503521
C101	C	1.843687	0.098263	-0.170187
C102	C	2.177020	0.431597	0.163146
C103	C	1.510395	-0.116765	-0.503535
C104	C	1.843728	0.216569	-0.170201
C105	C	2.177061	0.549902	0.163132
C106	C	1.446839	-0.577207	-0.943983
C107	C	1.780173	-0.243873	-0.610650
C108	C	2.113506	0.089460	-0.277317
C109	C	1.446870	-0.577163	-1.064034
C110	C	1.780203	-0.243829	-0.730700
C111	C	2.113536	0.089504	-0.397367
C112	C	1.510244	-0.512717	-0.231978
C113	C	1.843578	-0.179383	0.101356
C114	C	2.176911	0.153950	0.434689
C115	C	1.510416	-0.512461	-0.115825
C116	C	1.843749	-0.179128	0.217508
C117	C	2.177083	0.154206	0.550842
H118	H	1.115391	-0.632893	-0.621174
H119	H	1.448724	-0.299560	-0.287841
H120	H	1.782057	0.033773	0.045492
H121	H	1.557371	-1.078488	-0.679523
H122	H	1.890704	-0.745155	-0.346190
H123	H	2.224038	-0.411822	-0.012856
H124	H	1.463088	-0.945955	-0.327436
H125	H	1.796422	-0.612622	0.005897
H126	H	2.129755	-0.279289	0.339230
Br127	Br	1.280685	-1.099657	-0.441793
Br128	Br	1.614018	-0.766324	-0.108460
Br129	Br	1.947352	-0.432991	0.224873
H130	H	0.943488	-0.457269	-0.449221
H131	H	1.276821	-0.123936	-0.115888
H132	H	1.610154	0.209397	0.217445
H133	H	1.564795	-0.457093	-1.071309
H134	H	1.898129	-0.123760	-0.737975
H135	H	2.231462	0.209574	-0.404642
H136	H	1.639274	-1.078320	-0.374660
H137	H	1.972607	-0.744987	-0.041326
H138	H	2.305941	-0.411653	0.292007
H139	H	1.564766	-0.457155	-0.936764
H140	H	1.898099	-0.123821	-0.603430
H141	H	2.231432	0.209512	-0.270097
H142	H	1.686165	-0.945426	-0.550829
H143	H	2.019499	-0.612093	-0.217495
H144	H	2.352832	-0.278759	0.115838
Br145	Br	1.356216	-0.669430	-1.138234
Br146	Br	1.689549	-0.336097	-0.804901
Br147	Br	2.022883	-0.002763	-0.471567
Br148	Br	0.876593	-0.669917	-0.657396
Br149	Br	1.209926	-0.336584	-0.324062
Br150	Br	1.543259	-0.003251	0.009271
H151	H	1.381314	-0.945760	-0.632178
H152	H	1.714647	-0.612427	-0.298845
H153	H	2.047980	-0.279094	0.034489
Br154	Br	1.048334	-0.420271	-0.413024
Br155	Br	1.381667	-0.086937	-0.079691
Br156	Br	1.715000	0.246396	0.253642
H157	H	1.392440	-0.632603	-0.899430
H158	H	1.725773	-0.299270	-0.566097
H159	H	2.059106	0.034064	-0.232764
