data_functionalizedCrystal
_audit_creation_method	'MofGen! by Chris Wilmer'
_symmetry_space_group_name_H-M	'P1'
_symmetry_Int_Tables_number	1
_symmetry_cell_setting	triclinic
loop_
_symmetry_equiv_pos_as_xyz
  x,y,z
_cell_length_a	29.999520
_cell_length_b	29.998686
_cell_length_c	29.995014
_cell_angle_alpha	60.005185
_cell_angle_beta	60.010401
_cell_angle_gamma	59.993433
loop_
_atom_site_label
_atom_site_type_symbol
_atom_site_fract_x
_atom_site_fract_y
_atom_site_fract_z
O1	O	0.061772	-0.651300	0.544623
O2	O	0.023267	-0.507084	0.438819
O3	O	0.114589	-0.598332	0.438743
O4	O	-0.029550	-0.560051	0.544699
O5	O	0.144886	-0.568039	0.468961
O6	O	0.053564	-0.476791	0.469038
O7	O	0.092069	-0.621007	0.574841
Zn8	Zn	0.077627	-0.544089	0.526737
Zn9	Zn	0.037709	-0.584002	0.486923
O10	O	0.000748	-0.529758	0.574918
N11	N	0.104871	-0.516854	0.553912
N12	N	0.010470	-0.611242	0.459748
C13	C	0.143162	-0.478782	0.827124
C14	C	0.378203	-0.478734	0.591892
C15	C	0.143005	-0.478752	0.591997
C16	C	0.142986	-0.243586	0.592008
C17	C	0.180857	-0.357087	0.629814
C18	C	0.180866	-0.440920	0.629807
C19	C	0.201840	-0.419964	0.650755
C20	C	0.293272	-0.404201	0.602606
C21	C	0.350426	-0.423248	0.583534
C22	C	0.350451	-0.515727	0.618798
C23	C	0.293297	-0.496678	0.637872
C24	C	0.194628	-0.328499	0.573626
C25	C	0.175551	-0.271340	0.554591
C26	C	0.128936	-0.271362	0.647935
C27	C	0.148014	-0.328521	0.666970
C28	C	0.124672	-0.427119	0.643641
C29	C	0.105611	-0.446170	0.624592
C30	C	0.198934	-0.492820	0.577889
C31	C	0.217998	-0.473770	0.596931
C32	C	0.124740	-0.427136	0.742229
C33	C	0.105728	-0.446202	0.799386
C34	C	0.199085	-0.492863	0.799337
C35	C	0.218096	-0.473798	0.742178
C36	C	0.180923	-0.440933	0.713626
C37	C	0.264710	-0.440915	0.629773
C38	C	0.121509	-0.499370	0.889991
C39	C	0.441068	-0.498953	0.570621
C40	C	0.121297	-0.499349	0.571429
C41	C	0.121653	-0.180715	0.571802
C42	C	-0.111071	-0.648912	0.421584
C43	C	-0.027286	-0.649018	0.421777
C44	C	-0.048200	-0.669944	0.400740
C45	C	-0.064036	-0.761340	0.448814
C46	C	-0.045033	-0.818500	0.467893
C47	C	0.047447	-0.818609	0.432797
C48	C	0.028444	-0.761451	0.413717
C49	C	-0.139731	-0.662677	0.477755
C50	C	-0.196885	-0.643554	0.496701
C51	C	-0.196717	-0.596907	0.403303
C52	C	-0.139562	-0.616030	0.384357
C53	C	-0.041053	-0.592827	0.407952
C54	C	-0.022041	-0.573809	0.427083
C55	C	0.024504	-0.667167	0.473848
C56	C	0.005492	-0.686188	0.454725
C57	C	-0.040886	-0.592836	0.309259
C58	C	-0.021740	-0.573821	0.252102
C59	C	0.024886	-0.667185	0.252163
C60	C	0.005743	-0.686199	0.309322
C61	C	-0.027145	-0.649023	0.337868
C62	C	-0.027299	-0.732818	0.421728
N63	N	0.492511	-0.516826	0.553742
O64	O	0.679283	-0.525926	0.419277
O65	O	0.679465	-0.632059	0.563349
O66	O	0.679393	-0.631817	0.471975
O67	O	0.679355	-0.526168	0.510650
O68	O	0.588593	-0.601610	0.502313
O69	O	0.588665	-0.601852	0.593686
O70	O	0.588483	-0.495720	0.449614
Zn71	Zn	0.574158	-0.543990	0.526467
Zn72	Zn	0.693790	-0.583788	0.486496
O73	O	0.588555	-0.495962	0.540987
N74	N	0.775436	-0.610952	0.459215
N75	N	0.104844	-0.129269	0.553931
O76	O	-0.029548	0.057600	0.544709
O77	O	0.114530	0.057617	0.438578
O78	O	0.023130	0.057594	0.438850
O79	O	0.061852	0.057623	0.544437
O80	O	0.053431	-0.033213	0.469115
O81	O	0.144831	-0.033190	0.468843
O82	O	0.000753	-0.033207	0.574974
Zn83	Zn	0.077603	-0.047616	0.526714
Zn84	Zn	0.037680	0.072026	0.486838
O85	O	0.092153	-0.033184	0.574702
N86	N	0.010432	0.153679	0.459622
N87	N	0.105130	-0.516904	0.941437
O88	O	0.095923	-0.651280	1.128292
O89	O	-0.010184	-0.507155	1.128318
O90	O	-0.009938	-0.598539	1.128284
O91	O	0.095677	-0.559897	1.128326
O92	O	0.020315	-0.568257	1.037481
O93	O	0.020068	-0.476874	1.037515
O94	O	0.126176	-0.620999	1.037489
Zn95	Zn	0.077925	-0.544128	1.023085
Zn96	Zn	0.038066	-0.584026	1.142722
O97	O	0.125929	-0.529616	1.037523
N98	N	0.010860	-0.611256	1.224371
C99	C	0.034807	-0.473765	0.439352
C100	C	0.147897	-0.586765	0.439257
C101	C	0.080529	-0.654326	0.574308
C102	C	-0.032561	-0.541326	0.574403
C103	C	0.634087	-0.631571	0.596668
C104	C	0.633999	-0.631272	0.483513
C105	C	0.633858	-0.496206	0.416295
C106	C	0.633949	-0.496507	0.529449
C107	C	0.147793	0.012327	0.439058
C108	C	0.034644	0.012187	0.439432
C109	C	-0.032548	0.012195	0.574457
C110	C	0.080639	0.012222	0.574120
C111	C	-0.009670	-0.473857	1.082920
C112	C	-0.009359	-0.587018	1.082860
C113	C	0.125662	-0.654297	1.082887
C114	C	0.125358	-0.541129	1.082927
H115	H	0.094465	-0.400370	0.718985
H116	H	-0.073925	0.012190	0.607776
H117	H	0.189085	0.012584	0.405656
O118	O	0.197322	-0.596578	0.399627
C119	C	0.287217	-0.661281	0.374369
C120	C	0.231273	-0.650237	0.419302
H121	H	0.314679	-0.704668	0.390256
H122	H	0.306898	-0.631035	0.362432
H123	H	0.281475	-0.656325	0.337137
H124	H	0.236968	-0.655201	0.456563
H125	H	0.211612	-0.680481	0.431193
O126	O	0.056745	-0.703277	0.224414
C127	C	0.067033	-0.735926	0.159813
C128	C	0.030894	-0.695028	0.191214
H129	H	0.046152	-0.729264	0.132955
H130	H	0.073550	-0.779362	0.190058
H131	H	0.108178	-0.729405	0.133151
H132	H	-0.010270	-0.701499	0.217878
H133	H	0.024423	-0.651607	0.160940
O134	O	0.024681	0.012138	0.399930
C135	C	-0.040205	0.012115	0.374986
C136	C	-0.028994	0.012169	0.419771
H137	H	-0.083604	0.012152	0.391008
H138	H	-0.010008	-0.025904	0.363070
H139	H	-0.035311	0.050102	0.337708
H140	H	-0.033895	-0.025792	0.457079
H141	H	-0.059189	0.050213	0.431641
H142	H	0.026581	-0.432337	0.406123
O143	O	0.051005	-0.432740	0.638102
C144	C	-0.039552	-0.384446	0.686423
C145	C	0.022272	-0.399622	0.671173
H146	H	-0.062800	-0.357659	0.713153
H147	H	-0.050808	-0.423222	0.709723
H148	H	-0.050815	-0.361192	0.647644
H149	H	0.033581	-0.422863	0.709923
H150	H	0.033496	-0.360826	0.647851
H151	H	0.088756	-0.695753	0.607538
H152	H	-0.073962	-0.533167	0.607674
H153	H	0.633799	-0.462884	0.374920
H154	H	0.634015	-0.664461	0.475235
O155	O	0.634170	-0.671271	0.646053
C156	C	0.634215	-0.696644	0.735992
C157	C	0.634134	-0.651641	0.680085
H158	H	0.634174	-0.680786	0.763525
H159	H	0.672244	-0.733868	0.730262
H160	H	0.596245	-0.708587	0.755589
H161	H	0.672078	-0.639652	0.660457
H162	H	0.596080	-0.614446	0.685850
O163	O	0.633910	-0.456963	0.539416
C164	C	0.633985	-0.431999	0.604263
C165	C	0.634016	-0.476826	0.593052
H166	H	0.634081	-0.448045	0.647623
H167	H	0.595947	-0.394748	0.599451
H168	H	0.671946	-0.420027	0.573993
H169	H	0.596080	-0.488844	0.623312
H170	H	0.672078	-0.514047	0.597845
H171	H	0.088930	0.012231	0.607291
H172	H	-0.042983	-0.432464	1.082928
H173	H	-0.042525	-0.595273	1.082811
O174	O	0.165389	-0.703673	1.082804
C175	C	0.223137	-0.769412	1.035720
C176	C	0.178136	-0.713490	1.035754
H177	H	0.233465	-0.777361	0.997679
H178	H	0.208140	-0.802778	1.073686
H179	H	0.261154	-0.769478	1.035756
H180	H	0.140104	-0.713370	1.035699
H181	H	0.193178	-0.680148	0.997792
O182	O	0.235122	-0.524766	0.827153
C183	C	0.247217	-0.574841	0.915180
C184	C	0.206343	-0.538705	0.883746
H185	H	0.223965	-0.586131	0.960941
H186	H	0.273961	-0.551575	0.903971
H187	H	0.273989	-0.613606	0.903893
H188	H	0.179534	-0.499934	0.895017
H189	H	0.179637	-0.562012	0.894958
O190	O	0.164892	-0.531171	1.082910
C191	C	0.189851	-0.466321	1.082964
C192	C	0.145034	-0.477521	1.082971
H193	H	0.173808	-0.422950	1.083025
H194	H	0.227110	-0.471167	1.044952
H195	H	0.201803	-0.496576	1.120953
H196	H	0.133036	-0.447277	1.045008
H197	H	0.107804	-0.472694	1.121009
H198	H	0.059977	-0.434960	0.822668
O199	O	0.378309	-0.569876	0.626595
C200	C	0.466372	-0.640209	0.612870
C201	C	0.434891	-0.578872	0.603991
H202	H	0.512124	-0.647503	0.594610
H203	H	0.455162	-0.654423	0.592130
H204	H	0.455129	-0.664118	0.658485
H205	H	0.446117	-0.554920	0.558389
H206	H	0.446104	-0.564701	0.624767
H207	H	0.263847	-0.485039	0.718893
H208	H	0.229173	-0.519573	0.551126
O209	O	0.272603	-0.487229	0.583450
C210	C	0.363160	-0.535445	0.535052
C211	C	0.301336	-0.520264	0.550297
H212	H	0.386408	-0.562147	0.508236
H213	H	0.374491	-0.558754	0.573795
H214	H	0.374349	-0.496634	0.511806
H215	H	0.290102	-0.559047	0.573529
H216	H	0.290038	-0.496934	0.511534
O217	O	0.265635	-0.532414	0.664229
C218	C	0.271694	-0.626156	0.697219
C219	C	0.303088	-0.585743	0.667348
H220	H	0.301960	-0.669281	0.699760
H221	H	0.244929	-0.614722	0.673864
H222	H	0.244943	-0.624382	0.740184
H223	H	0.329868	-0.587495	0.624383
H224	H	0.329818	-0.597189	0.690744
O225	O	0.378089	-0.387508	0.557132
C226	C	0.372035	-0.293776	0.524192
C227	C	0.340638	-0.334191	0.554090
H228	H	0.341770	-0.250661	0.521733
H229	H	0.398757	-0.295479	0.481199
H230	H	0.398828	-0.305278	0.547546
H231	H	0.313815	-0.322716	0.530781
H232	H	0.313950	-0.332481	0.597085
O233	O	0.088654	-0.395142	0.675515
C234	C	0.055964	-0.308125	0.685700
C235	C	0.096793	-0.344287	0.649555
H236	H	0.062522	-0.266998	0.664720
H237	H	0.062578	-0.329033	0.726803
H238	H	0.012532	-0.301562	0.692321
H239	H	0.140241	-0.350863	0.642890
H240	H	0.090131	-0.323362	0.608474
O241	O	0.226503	-0.356166	0.537461
C242	C	0.270739	-0.350111	0.442865
C243	C	0.234628	-0.318712	0.483764
H244	H	0.277329	-0.319844	0.399442
H245	H	0.249806	-0.376860	0.449421
H246	H	0.311853	-0.376882	0.449458
H247	H	0.193508	-0.291911	0.477195
H248	H	0.255604	-0.291998	0.477197
O249	O	0.265444	-0.350054	0.594836
C250	C	0.200956	-0.280893	0.636959
C251	C	0.232428	-0.342231	0.645837
H252	H	0.174264	-0.274546	0.678186
H253	H	0.174139	-0.264781	0.611872
H254	H	0.231202	-0.257935	0.614241
H255	H	0.202221	-0.365233	0.668569
H256	H	0.259253	-0.358300	0.670901
H257	H	0.186762	-0.248063	0.508836
H258	H	0.102202	-0.248101	0.678192
H259	H	-0.032937	-0.528066	0.228816
O260	O	0.134607	-0.356210	0.721572
C261	C	0.086330	-0.350202	0.812151
C262	C	0.101483	-0.318777	0.750331
H263	H	0.059537	-0.319952	0.835420
H264	H	0.125111	-0.376945	0.823415
H265	H	0.063091	-0.376982	0.823384
H266	H	0.124708	-0.291968	0.739054
H267	H	0.062682	-0.292070	0.739100
H268	H	-0.067667	-0.562559	0.332499
H269	H	-0.067739	-0.562558	0.381123
O270	O	0.019122	-0.740800	0.337027
C271	C	0.067412	-0.831397	0.331052
C272	C	0.052292	-0.769577	0.299610
H273	H	0.094241	-0.854681	0.300815
H274	H	0.028619	-0.842623	0.357725
H275	H	0.090600	-0.842651	0.357900
H276	H	0.029118	-0.758278	0.272733
H277	H	0.091105	-0.758384	0.272972
H278	H	0.051198	-0.697438	0.500669
O279	O	-0.035333	-0.519222	0.413558
C280	C	-0.030831	-0.433667	0.341068
C281	C	-0.015741	-0.495479	0.356313
H282	H	-0.015007	-0.414451	0.294786
H283	H	-0.011589	-0.426437	0.360358
H284	H	-0.077109	-0.414347	0.356780
H285	H	0.030529	-0.514840	0.340605
H286	H	-0.035022	-0.502672	0.337031
O287	O	0.018935	-0.740789	0.468179
C288	C	0.067083	-0.831385	0.516606
C289	C	0.051908	-0.769566	0.501403
H290	H	0.093735	-0.854669	0.543480
H291	H	0.090439	-0.842692	0.477849
H292	H	0.028270	-0.842560	0.539778
H293	H	0.090693	-0.758346	0.478245
H294	H	0.028531	-0.758293	0.540180
H295	H	-0.219915	-0.570138	0.372989
H296	H	0.058362	-0.738230	0.391661
H297	H	0.092838	-0.841923	0.426277
H298	H	-0.074948	-0.841721	0.489940
H299	H	-0.116534	-0.689457	0.508068
O300	O	-0.118172	-0.733546	0.456507
C301	C	-0.196935	-0.715990	0.439568
C302	C	-0.135623	-0.747497	0.430815
H303	H	-0.211065	-0.727266	0.418811
H304	H	-0.204226	-0.670232	0.421249
H305	H	-0.220914	-0.727175	0.485165
H306	H	-0.111604	-0.736358	0.385229
H307	H	-0.128374	-0.793247	0.449169
O308	O	-0.224706	-0.657019	0.551274
C309	C	-0.242325	-0.729439	0.636878
C310	C	-0.210794	-0.714263	0.575082
H311	H	-0.231080	-0.775722	0.656147
H312	H	-0.288075	-0.710168	0.644054
H313	H	-0.231135	-0.713659	0.656186
H314	H	-0.221938	-0.730041	0.555732
H315	H	-0.165052	-0.733527	0.567944
O316	O	-0.111804	-0.602632	0.329771
C317	C	-0.117665	-0.554324	0.239129
C318	C	-0.149169	-0.569466	0.300931
H319	H	-0.147861	-0.527498	0.215794
H320	H	-0.090926	-0.593112	0.227879
H321	H	-0.090879	-0.531121	0.227963
H322	H	-0.175984	-0.592654	0.312142
H323	H	-0.175873	-0.530658	0.312148
