data_functionalizedCrystal
_audit_creation_method	'MofGen! by Chris Wilmer'
_symmetry_space_group_name_H-M	'P1'
_symmetry_Int_Tables_number	1
_symmetry_cell_setting	triclinic
loop_
_symmetry_equiv_pos_as_xyz
  x,y,z
_cell_length_a	14.519731
_cell_length_b	14.519731
_cell_length_c	9.730223
_cell_angle_alpha	89.997677
_cell_angle_beta	89.999699
_cell_angle_gamma	83.688853
loop_
_atom_site_label
_atom_site_type_symbol
_atom_site_fract_x
_atom_site_fract_y
_atom_site_fract_z
O1	O	1.223859	0.120980	-0.114296
O2	O	0.955386	0.135195	-0.114298
O3	O	1.096731	-0.006149	-0.114285
O4	O	1.082515	0.262324	-0.114310
O5	O	1.096729	-0.006145	0.114295
O6	O	0.955385	0.135199	0.114281
O7	O	1.223858	0.120983	0.114284
Zn8	Zn	1.089621	0.128092	0.150575
Zn9	Zn	1.089623	0.128087	-0.150589
O10	O	1.082513	0.262328	0.114270
C11	C	0.921026	0.134531	-0.000009
C12	C	0.818645	0.132535	-0.000009
C13	C	0.735501	0.130913	-0.000015
C14	C	0.631192	0.128887	-0.000015
C15	C	0.548053	0.127278	-0.000015
C16	C	0.443738	0.125252	-0.000018
C17	C	1.096064	-0.040507	0.000006
C18	C	1.094068	-0.142887	0.000006
C19	C	1.092446	-0.226031	0.000003
C20	C	1.090419	-0.330340	-0.000007
C21	C	1.088811	-0.413479	-0.000016
C22	C	1.086785	-0.517795	-0.000024
C23	C	1.258218	0.121648	-0.000009
C24	C	1.360598	0.123643	-0.000017
C25	C	1.083180	0.296685	-0.000023
C26	C	1.085176	0.399066	-0.000033
N27	N	1.089626	0.128094	0.356111
N28	N	1.089625	0.128077	-0.356126
C29	C	1.152229	0.065528	0.428043
C30	C	1.152227	0.065517	0.571926
C31	C	1.027015	0.190646	0.571932
C32	C	1.027014	0.190652	0.428052
C33	C	1.224522	-0.006712	0.428041
C34	C	1.224520	-0.006723	0.571924
H35	H	0.976029	0.241591	0.369486
H36	H	1.209271	-0.077490	0.388993
Br37	Br	1.187942	-0.118104	0.646312
Br38	Br	1.335856	0.029963	0.353644
Br39	Br	1.342460	0.018777	0.637023
H40	H	0.976037	0.241579	0.630522
