data_functionalizedCrystal
_audit_creation_method	'MofGen! by Chris Wilmer'
_symmetry_space_group_name_H-M	'P1'
_symmetry_Int_Tables_number	1
_symmetry_cell_setting	triclinic
loop_
_symmetry_equiv_pos_as_xyz
  x,y,z
_cell_length_a	11.026607
_cell_length_b	11.026607
_cell_length_c	10.065875
_cell_angle_alpha	79.268236
_cell_angle_beta	79.303208
_cell_angle_gamma	71.413983
loop_
_atom_site_label
_atom_site_type_symbol
_atom_site_fract_x
_atom_site_fract_y
_atom_site_fract_z
O1	O	1.741282	-0.518969	-0.113460
O2	O	1.374703	-0.458205	-0.113469
O3	O	1.527611	-0.305298	-0.113460
O4	O	1.588375	-0.671877	-0.113469
O5	O	1.498486	-0.334605	0.113527
O6	O	1.345579	-0.487512	0.113518
O7	O	1.712158	-0.548277	0.113527
Zn8	Zn	1.524244	-0.522547	0.149562
Zn9	Zn	1.562617	-0.483934	-0.149504
O10	O	1.559251	-0.701184	0.113518
C11	C	1.312482	-0.461648	0.000024
C12	C	1.170468	-0.428231	0.000020
C13	C	1.774380	-0.544833	0.000031
C14	C	1.916395	-0.578249	0.000026
C15	C	1.501839	-0.272291	0.000031
C16	C	1.468423	-0.130277	0.000026
C17	C	1.970044	-0.485979	0.000026
C18	C	2.116823	-0.520514	0.000020
C19	C	1.585023	-0.734190	0.000024
C20	C	1.618440	-0.876203	0.000020
N21	N	1.498065	-0.548901	0.353666
C22	C	1.560692	-0.076627	0.000026
C23	C	1.526157	0.070152	0.000020
N24	N	1.588804	-0.457572	-0.353608
C25	C	1.553499	-0.493094	0.421448
C26	C	1.533362	-0.513388	0.578614
H27	H	1.907307	-0.381420	0.000051
C28	C	1.835337	0.080189	-0.116661
C29	C	1.759609	0.039129	0.000024
H30	H	1.922485	0.027913	-0.116660
H31	H	1.830643	0.167708	-0.116652
H32	H	1.804251	0.072772	-0.195808
H33	H	1.790690	0.046555	0.079172
H34	H	1.764310	-0.048412	0.000027
H35	H	1.363861	-0.067542	0.000014
H36	H	2.179552	-0.625084	0.000023
C37	C	1.960117	-0.795236	0.116704
C38	C	2.001075	-0.719408	0.000019
H39	H	2.012402	-0.882381	0.116700
H40	H	1.872601	-0.790551	0.116695
H41	H	1.967594	-0.764212	0.195851
H42	H	1.993590	-0.750426	-0.079129
H43	H	2.088613	-0.724099	0.000016
C44	C	1.323702	-0.546213	0.622920
C45	C	1.449158	-0.598172	0.657332
H46	H	1.271719	-0.598551	0.671526
H47	H	1.326197	-0.543710	0.527641
H48	H	1.288100	-0.461145	0.646277
H49	H	1.484764	-0.683238	0.633965
H50	H	1.446668	-0.600690	0.752633
C51	C	1.747646	-0.150354	0.116705
C52	C	1.701856	-0.161295	0.000024
H53	H	1.834800	-0.202615	0.116694
H54	H	1.696268	-0.178207	0.195846
H55	H	1.742943	-0.062818	0.116691
H56	H	1.706550	-0.248830	0.000043
H57	H	1.753249	-0.133448	-0.079138
C58	C	1.375122	0.247230	-0.116675
C59	C	1.384991	0.154826	0.000013
H60	H	1.287975	0.299508	-0.116673
H61	H	1.402143	0.204963	-0.195812
H62	H	1.428543	0.299899	-0.116662
H63	H	1.331577	0.102150	-0.000005
H64	H	1.357954	0.197095	0.079170
H65	H	1.615860	-0.430284	0.363127
C66	C	1.956785	-0.280168	0.000015
C67	C	2.085800	-0.287061	0.000016
H68	H	1.904519	-0.193015	0.000001
H69	H	1.929011	-0.331606	0.079169
H70	H	1.949327	-0.311189	-0.079143
H71	H	2.093260	-0.256049	0.079179
H72	H	2.113582	-0.235604	-0.079147
H73	H	1.651169	-0.394759	0.588075
H74	H	1.435692	-0.611699	0.411988
