data_functionalizedCrystal
_audit_creation_method	'MofGen! by Chris Wilmer'
_symmetry_space_group_name_H-M	'P1'
_symmetry_Int_Tables_number	1
_symmetry_cell_setting	triclinic
loop_
_symmetry_equiv_pos_as_xyz
  x,y,z
_cell_length_a	16.109318
_cell_length_b	17.038272
_cell_length_c	15.186229
_cell_angle_alpha	89.995962
_cell_angle_beta	90.000224
_cell_angle_gamma	87.290060
loop_
_atom_site_label
_atom_site_type_symbol
_atom_site_fract_x
_atom_site_fract_y
_atom_site_fract_z
O1	O	1.110263	0.100560	-0.073156
O2	O	1.610263	0.600560	0.426844
O3	O	0.869090	0.113052	-0.073174
O4	O	1.369090	0.613052	0.426826
O5	O	0.988243	-0.007009	-0.073158
O6	O	1.488243	0.492991	0.426842
O7	O	0.991110	0.220621	-0.073172
O8	O	1.491110	0.720621	0.426828
O9	O	0.988235	-0.007011	0.073299
O10	O	1.488235	0.492989	0.573299
O11	O	0.869082	0.113050	0.073284
O12	O	1.369082	0.613050	0.573284
O13	O	1.110255	0.100558	0.073301
O14	O	1.610255	0.600558	0.573301
Zn15	Zn	0.989667	0.106804	0.096546
Zn16	Zn	1.489667	0.606804	0.596546
Zn17	Zn	0.989678	0.106806	-0.096418
Zn18	Zn	1.489678	0.606806	0.403582
O19	O	0.991102	0.220620	0.073286
O20	O	1.491102	0.720620	0.573286
C21	C	0.838075	0.112543	0.000053
C22	C	1.338075	0.612543	0.500053
C23	C	0.745673	0.111019	0.000046
C24	C	1.245673	0.611019	0.500046
C25	C	0.985632	-0.036139	0.000070
C26	C	1.485632	0.463861	0.500070
C27	C	0.977853	-0.122932	0.000070
C28	C	1.477853	0.377068	0.500070
C29	C	0.446254	0.106097	-0.079772
C30	C	0.946254	0.606097	0.420228
C31	C	0.533077	0.107524	-0.079778
C32	C	1.033077	0.607524	0.420222
C33	C	0.533085	0.107511	0.079898
C34	C	1.033085	0.607511	0.579898
C35	C	0.446264	0.106079	0.079903
C36	C	0.946264	0.606079	0.579903
C37	C	0.402851	0.105375	0.000065
C38	C	0.902851	0.605375	0.500065
C39	C	0.576494	0.108235	0.000055
C40	C	1.076494	0.608235	0.500055
C41	C	0.670631	0.109782	0.000050
C42	C	1.170631	0.609782	0.500050
C43	C	0.308708	0.103827	0.000070
C44	C	0.808708	0.603827	0.500070
C45	C	1.049273	-0.173043	0.000076
C46	C	1.549273	0.326957	0.500076
C47	C	1.041959	-0.254593	0.000067
C48	C	1.541959	0.245407	0.500067
C49	C	0.963224	-0.286032	0.000058
C50	C	1.463224	0.213968	0.500058
C51	C	0.891798	-0.235915	0.000049
C52	C	1.391798	0.264085	0.500049
C53	C	0.899113	-0.154366	0.000052
C54	C	1.399113	0.345634	0.500052
C55	C	0.937381	-0.531791	0.000044
C56	C	1.437381	-0.031791	0.500044
C57	C	0.930072	-0.613347	0.000044
C58	C	1.430072	-0.113347	0.500044
C59	C	1.080234	-0.632020	0.000060
C60	C	1.580234	-0.132020	0.500060
C61	C	1.087542	-0.550468	0.000068
C62	C	1.587542	-0.050468	0.500068
C63	C	1.016116	-0.500358	0.000055
C64	C	1.516116	-0.000358	0.500055
C65	C	0.955746	-0.369390	0.000052
C66	C	1.455746	0.130610	0.500052
C67	C	1.023595	-0.417002	0.000055
C68	C	1.523595	0.082998	0.500055
C69	C	1.141270	0.101067	0.000073
C70	C	1.641270	0.601067	0.500073
C71	C	1.233672	0.102592	0.000074
C72	C	1.733672	0.602592	0.500074
C73	C	0.993713	0.249749	0.000055
C74	C	1.493713	0.749749	0.500055
C75	C	1.001492	0.336542	0.000050
C76	C	1.501492	0.836542	0.500050
N77	N	0.989665	0.106802	0.228238
N78	N	1.489665	0.606802	0.728238
N79	N	0.989686	0.106802	-0.228111
N80	N	1.489686	0.606802	0.271889
C81	C	1.042447	0.053657	0.453968
C82	C	1.542447	0.553657	0.953968
C83	C	1.042449	0.053655	0.546158
C84	C	1.542449	0.553655	1.046158
C85	C	0.936899	0.159950	0.546153
C86	C	1.436899	0.659950	1.046153
C87	C	0.936893	0.159948	0.453965
C88	C	1.436893	0.659948	0.953965
C89	C	0.989671	0.106802	0.407875
C90	C	1.489671	0.606802	0.907875
C91	C	0.989680	0.106802	0.592253
C92	C	1.489680	0.606802	1.092253
C93	C	0.989682	0.106801	0.692209
C94	C	1.489682	0.606801	1.192209
C95	C	0.989668	0.106802	0.307913
C96	C	1.489668	0.606802	0.807913
H97	H	0.410909	0.105523	-0.144781
H98	H	0.910909	0.605523	0.355219
H99	H	0.568412	0.108110	-0.144789
H100	H	1.068412	0.608110	0.355211
H101	H	0.568443	0.108085	0.144899
H102	H	1.068443	0.608085	0.644899
H103	H	0.410925	0.105490	0.144920
H104	H	0.910925	0.605490	0.644920
H105	H	0.893929	0.203221	0.583689
H106	H	1.393929	0.703221	1.083689
H107	H	0.893913	0.203225	0.416433
H108	H	1.393913	0.703225	0.916433
H109	H	1.151656	-0.524877	0.000075
H110	H	1.651656	-0.024877	0.500075
H111	H	1.113388	-0.147452	0.000088
H112	H	1.613388	0.352548	0.500088
H113	H	1.100117	-0.295391	0.000074
H114	H	1.600117	0.204609	0.500074
H115	H	1.138384	-0.672828	0.000070
H116	H	1.638384	-0.172828	0.500070
H117	H	0.865953	-0.638941	0.000051
H118	H	1.365953	-0.138941	0.500051
H119	H	0.827690	-0.261519	0.000037
H120	H	1.327690	0.238481	0.500037
H121	H	0.879221	-0.491001	0.000033
H122	H	1.379221	0.008999	0.500033
H123	H	0.840955	-0.113566	0.000047
H124	H	1.340955	0.386434	0.500047
H125	H	1.087701	-0.391401	0.000042
H126	H	1.587701	0.108599	0.500042
H127	H	0.891639	-0.394997	0.000047
H128	H	1.391639	0.105003	0.500047
H129	H	1.085421	0.010381	0.416444
H130	H	1.585421	0.510381	0.916444
H131	H	1.085422	0.010378	0.583685
H132	H	1.585422	0.510378	1.083685
