data_functionalizedCrystal
_audit_creation_method	'MofGen! by Chris Wilmer'
_symmetry_space_group_name_H-M	'P1'
_symmetry_Int_Tables_number	1
_symmetry_cell_setting	triclinic
loop_
_symmetry_equiv_pos_as_xyz
  x,y,z
_cell_length_a	15.944551
_cell_length_b	27.732048
_cell_length_c	14.421503
_cell_angle_alpha	89.999321
_cell_angle_beta	89.996859
_cell_angle_gamma	83.070697
loop_
_atom_site_label
_atom_site_type_symbol
_atom_site_fract_x
_atom_site_fract_y
_atom_site_fract_z
O1	O	1.113714	0.062334	-0.077025
O2	O	0.869064	0.070020	-0.077050
O3	O	0.998987	-0.004187	-0.077019
O4	O	0.983791	0.136540	-0.077056
O5	O	0.998966	-0.004176	0.077204
O6	O	0.869042	0.070031	0.077174
O7	O	1.113693	0.062345	0.077198
Cu8	Cu	0.991366	0.066189	0.091268
Cu9	Cu	0.991391	0.066176	-0.091119
O10	O	0.983769	0.136552	0.077168
C11	C	0.837763	0.069706	0.000059
C12	C	0.744530	0.068749	0.000051
C13	C	0.998658	-0.022190	0.000095
C14	C	0.997697	-0.075849	0.000103
C15	C	0.530305	0.020466	0.000081
C16	C	0.469002	0.042882	-0.075965
C17	C	0.573827	0.067019	0.000062
C18	C	0.469003	0.042904	0.076087
C19	C	0.408936	0.065344	0.000077
C20	C	0.513752	0.089447	-0.076047
C21	C	0.513759	0.089463	0.076074
C22	C	0.452474	0.111912	0.000009
C23	C	0.668816	0.067983	0.000053
C24	C	0.313947	0.064384	0.000080
C25	C	1.068426	-0.414358	0.000062
C26	C	1.064862	-0.616033	0.000049
O27	O	1.129539	-0.647008	0.000015
N28	N	0.987823	-0.635490	0.000042
C29	C	0.911669	-0.604525	0.000032
O30	O	0.846061	-0.625703	0.000017
C31	C	0.915234	-0.402851	0.000039
C32	C	0.992278	-0.383397	0.000055
C33	C	1.145464	-0.394903	0.000077
C34	C	1.146354	-0.344487	0.000086
C35	C	1.070206	-0.313526	0.000079
C36	C	0.993168	-0.332981	0.000064
C37	C	0.839081	-0.371887	0.000023
C38	C	0.839979	-0.321466	0.000022
C39	C	0.917024	-0.302012	0.000038
C40	C	0.917911	-0.251604	0.000065
N41	N	0.994950	-0.232147	0.000072
C42	C	1.071098	-0.263108	0.000079
C43	C	0.909803	-0.710408	0.000031
C44	C	0.908912	-0.760826	0.000031
C45	C	1.062105	-0.772330	0.000045
C46	C	1.062995	-0.721911	0.000052
C47	C	0.986842	-0.690950	0.000038
C48	C	1.072961	-0.157231	0.000097
C49	C	1.073845	-0.106810	0.000109
C50	C	0.920652	-0.095310	0.000090
C51	C	0.919768	-0.145727	0.000083
C52	C	0.995930	-0.176686	0.000083
O53	O	0.853269	-0.220600	0.000089
O54	O	1.136697	-0.241921	0.000074
C55	C	1.067536	-0.464774	0.000054
C56	C	0.990498	-0.484228	0.000039
C57	C	0.914350	-0.453268	0.000032
C58	C	0.989607	-0.534647	0.000039
C59	C	1.065754	-0.565608	0.000045
C60	C	1.142794	-0.546150	0.000052
C61	C	1.143684	-0.495734	0.000061
C62	C	0.837311	-0.472725	0.000025
C63	C	0.836427	-0.523141	0.000018
C64	C	0.912575	-0.554102	0.000024
C65	C	1.144993	0.062658	0.000087
C66	C	1.238227	0.063615	0.000090
C67	C	0.984099	0.154554	0.000051
C68	C	0.985059	0.208213	0.000038
N69	N	0.991354	0.066198	0.219549
N70	N	0.991409	0.066163	-0.219401
C71	C	0.931267	0.100495	0.469189
C72	C	1.007044	0.109880	0.530996
C73	C	0.991374	0.066186	0.408710
C74	C	0.915616	0.056813	0.530997
C75	C	0.991387	0.066176	0.591432
C76	C	1.067190	0.075592	0.469157
C77	C	0.975712	0.022507	0.469153
C78	C	1.051545	0.031872	0.530932
C79	C	0.991366	0.066193	0.303449
C80	C	0.991405	0.066169	0.696691
H81	H	0.449158	0.023187	-0.140246
C82	C	0.746513	-0.573163	0.079271
C83	C	0.751732	-0.544521	-0.000000
H84	H	0.694225	-0.586358	0.079254
H85	H	0.791726	-0.598819	0.079269
H86	H	0.750036	-0.553732	0.133052
H87	H	0.748215	-0.563953	-0.053782
H88	H	0.706506	-0.518862	-0.000007
H89	H	0.533624	0.109141	0.140358
H90	H	1.125732	-0.706075	0.000065
H91	H	0.449165	0.023210	0.140376
H92	H	1.136586	-0.090973	0.000125
C93	C	0.430619	0.188672	0.078807
C94	C	0.407019	0.164120	-0.000058
H95	H	0.402559	0.220903	0.078758
H96	H	0.415313	0.172218	0.132855
H97	H	0.489991	0.189554	0.078284
H98	H	0.347648	0.163235	0.000469
H99	H	0.422320	0.180578	-0.054119
C100	C	1.128746	-0.854729	0.000030
C101	C	1.145809	-0.806369	0.000039
H102	H	1.180420	-0.875743	0.000014
H103	H	1.097136	-0.860625	0.053811
H104	H	1.097122	-0.860616	-0.053752
H105	H	1.177428	-0.800480	0.053825
H106	H	1.177432	-0.800470	-0.053747
H107	H	0.564143	-0.018169	-0.000003
H108	H	1.102436	0.002852	0.557872
C109	C	0.775509	0.039945	0.492812
C110	C	0.829124	0.046109	0.567664
H111	H	0.722114	0.033336	0.515448
H112	H	0.768468	0.068755	0.456591
H113	H	0.799579	0.013557	0.455641
H114	H	0.805056	0.072499	0.604831
H115	H	0.836163	0.017295	0.603900
C116	C	0.628069	0.116632	-0.162180
C117	C	0.540392	0.115998	-0.162940
H118	H	0.644516	0.133019	-0.215827
H119	H	0.643737	0.133061	-0.108260
H120	H	0.655415	0.084243	-0.161953
H121	H	0.513047	0.148387	-0.163160
H122	H	0.524716	0.099570	-0.216874
C123	C	1.224477	-0.163524	0.000126
C124	C	1.156679	-0.191256	0.000106
H125	H	1.276158	-0.184530	0.000141
H126	H	1.221644	-0.143620	-0.053651
H127	H	1.221613	-0.143618	0.053911
H128	H	1.159538	-0.211159	-0.053684
H129	H	1.159513	-0.211168	0.053888
H130	H	0.776344	-0.387718	0.000004
H131	H	1.209091	-0.328652	0.000095
C132	C	1.296972	-0.401196	0.000109
C133	C	1.229176	-0.428930	0.000093
H134	H	1.348655	-0.422202	0.000130
H135	H	1.294139	-0.381295	-0.053673
H136	H	1.294105	-0.381287	0.053890
H137	H	1.232039	-0.448836	-0.053693
H138	H	1.232010	-0.448839	0.053879
C139	C	0.757579	-0.744378	0.000009
C140	C	0.824222	-0.782206	0.000021
H141	H	0.705295	-0.757577	-0.000008
H142	H	0.761107	-0.724955	0.053788
H143	H	0.761134	-0.724952	-0.053774
H144	H	0.820671	-0.801631	0.053807
H145	H	0.820693	-0.801638	-0.053765
C146	C	0.884762	-0.021542	0.377649
C147	C	0.957782	-0.027336	0.432440
H148	H	0.873691	-0.052313	0.354978
H149	H	0.838282	-0.007642	0.413897
H150	H	0.892802	-0.000748	0.326901
H151	H	0.949741	-0.048127	0.483191
H152	H	1.004274	-0.041243	0.396189
C153	C	1.170220	0.131943	0.464696
C154	C	1.153710	0.086361	0.432683
H155	H	1.223636	0.138593	0.442190
H156	H	1.127509	0.156166	0.443047
H157	H	1.170727	0.131979	0.530563
H158	H	1.153197	0.086326	0.366815
H159	H	1.196433	0.062131	0.454327
C160	C	0.768433	-0.129288	0.000059
C161	C	0.835081	-0.167114	0.000064
H162	H	0.716151	-0.142491	0.000033
H163	H	0.771954	-0.109870	0.053846
H164	H	0.771988	-0.109857	-0.053716
H165	H	0.831531	-0.186544	0.053843
H166	H	0.831559	-0.186540	-0.053729
C167	C	0.821916	-0.647041	-0.079262
C168	C	0.826086	-0.676381	0.000020
H169	H	0.770229	-0.626039	-0.079267
H170	H	0.867911	-0.628233	-0.079252
H171	H	0.824766	-0.666955	-0.133036
H172	H	0.823242	-0.656467	0.053795
H173	H	0.780078	-0.695190	0.000018
H174	H	0.858655	-0.070093	0.000088
C175	C	0.688463	-0.315163	-0.000003
C176	C	0.756267	-0.287435	0.000010
H177	H	0.636784	-0.294153	-0.000003
H178	H	0.691314	-0.335065	-0.053783
H179	H	0.691300	-0.335071	0.053780
H180	H	0.753433	-0.267530	-0.053776
H181	H	0.753414	-0.267525	0.053796
C182	C	1.209433	-0.628549	0.000040
C183	C	1.226497	-0.580189	0.000053
H184	H	1.261106	-0.649564	0.000030
H185	H	1.177817	-0.634446	0.053816
H186	H	1.177815	-0.634437	-0.053747
H187	H	1.258110	-0.574301	0.053843
H188	H	1.258127	-0.574291	-0.053729
H189	H	1.206421	-0.479900	0.000073
H190	H	0.775301	-0.447521	0.000017
C191	C	0.879341	0.185398	0.463796
C192	C	0.862720	0.139692	0.432576
H193	H	0.837029	0.209597	0.441186
H194	H	0.879203	0.185856	0.529652
H195	H	0.933061	0.191743	0.441709
H196	H	0.809003	0.133346	0.454668
H197	H	0.862850	0.139234	0.366706
C198	C	1.025512	0.159055	0.664765
C199	C	1.024941	0.159737	0.567681
H200	H	1.036560	0.189835	0.687409
H201	H	0.972107	0.152165	0.686837
H202	H	1.068267	0.134708	0.685888
H203	H	0.982182	0.184082	0.546557
H204	H	1.078354	0.166633	0.545600
