data_functionalizedCrystal
_audit_creation_method	'MofGen! by Chris Wilmer'
_symmetry_space_group_name_H-M	'P1'
_symmetry_Int_Tables_number	1
_symmetry_cell_setting	triclinic
loop_
_symmetry_equiv_pos_as_xyz
  x,y,z
_cell_length_a	16.109301
_cell_length_b	23.532407
_cell_length_c	15.186229
_cell_angle_alpha	89.991614
_cell_angle_beta	89.999362
_cell_angle_gamma	83.155079
loop_
_atom_site_label
_atom_site_type_symbol
_atom_site_fract_x
_atom_site_fract_y
_atom_site_fract_z
O1	O	1.102555	0.073202	-0.073182
O2	O	0.860421	0.082312	-0.073197
O3	O	0.988790	-0.005148	-0.073173
O4	O	0.974187	0.160662	-0.073206
O5	O	0.988781	-0.005149	0.073284
O6	O	0.860413	0.082311	0.073260
O7	O	1.102547	0.073201	0.073275
Zn8	Zn	0.981478	0.077755	0.096521
Zn9	Zn	0.981490	0.077757	-0.096443
O10	O	0.974178	0.160660	0.073251
C11	C	0.829445	0.081942	0.000030
C12	C	0.737159	0.080836	0.000025
C13	C	0.514498	0.130160	0.000025
C14	C	0.427786	0.129116	0.000031
C15	C	0.448476	0.025348	0.000048
C16	C	0.535187	0.026393	0.000048
C17	C	0.568195	0.078801	0.000032
C18	C	0.394773	0.076712	0.000038
C19	C	0.300755	0.075580	0.000044
C20	C	0.662218	0.079933	0.000028
C21	C	0.988414	-0.026366	0.000058
C22	C	0.987296	-0.089587	0.000064
C23	C	1.056249	-0.488436	0.000021
C24	C	1.055210	-0.547840	0.000014
O25	O	1.119130	-0.584349	-0.000015
N26	N	0.978895	-0.570748	0.000010
C27	C	0.903614	-0.534248	0.000003
O28	O	0.838607	-0.559187	-0.000002
C29	C	0.904654	-0.474845	0.000004
C30	C	0.980973	-0.451941	0.000017
C31	C	1.132562	-0.465531	0.000033
C32	C	1.133601	-0.406131	0.000041
C33	C	1.058325	-0.369636	0.000037
C34	C	0.982012	-0.392541	0.000025
C35	C	0.829373	-0.438346	-0.000009
C36	C	0.830419	-0.378940	-0.000009
C37	C	0.906739	-0.356036	0.000004
C38	C	0.907774	-0.296645	0.000030
N39	N	0.984089	-0.273738	0.000034
C40	C	1.059365	-0.310233	0.000038
C41	C	0.901437	-0.658998	0.000001
C42	C	0.900396	-0.718400	0.000007
C43	C	1.051993	-0.731988	0.000016
C44	C	1.053032	-0.672585	0.000016
C45	C	0.977752	-0.636091	0.000005
C46	C	1.061539	-0.185488	0.000056
C47	C	1.062571	-0.126082	0.000068
C48	C	0.910975	-0.112499	0.000055
C49	C	0.909943	-0.171900	0.000047
C50	C	0.985232	-0.208394	0.000045
O51	O	0.843888	-0.260102	0.000055
O52	O	1.124361	-0.285285	0.000031
C53	C	1.133523	0.073570	0.000046
C54	C	1.225809	0.074677	0.000046
C55	C	0.974554	0.181878	0.000018
C56	C	0.975672	0.245100	0.000006
N57	N	0.981477	0.077754	0.228214
N58	N	0.981498	0.077754	-0.228136
C59	C	1.038337	0.039040	0.453947
C60	C	1.038340	0.039039	0.546137
C61	C	0.924631	0.116470	0.546124
C62	C	0.924625	0.116468	0.453936
C63	C	0.981483	0.077754	0.407850
C64	C	0.981492	0.077754	0.592228
C65	C	0.981494	0.077753	0.692184
C66	C	0.981480	0.077754	0.307888
H67	H	0.578910	-0.015433	0.000057
H68	H	1.084633	0.007515	0.416426
C69	C	1.145523	-0.101326	0.000033
C70	C	1.211220	-0.146006	0.000008
C71	C	1.287644	-0.123225	-0.000038
H72	H	1.149199	-0.078452	0.051095
H73	H	1.149128	-0.078445	-0.051058
H74	H	1.207617	-0.168878	0.051093
H75	H	1.207572	-0.168885	-0.051050
H76	H	1.291249	-0.100344	-0.051129
H77	H	1.291311	-0.100351	0.051024
H78	H	1.332229	-0.153537	-0.000064
C79	C	1.216379	-0.381158	0.000084
C80	C	1.201195	-0.321324	0.000105
C81	C	1.277433	-0.298304	0.000151
H82	H	1.247409	-0.393622	-0.050977
H83	H	1.247360	-0.393661	0.051176
H84	H	1.170226	-0.308826	-0.050982
H85	H	1.170177	-0.308844	0.051162
H86	H	1.308415	-0.310807	0.051243
H87	H	1.308458	-0.310772	-0.050911
H88	H	1.267142	-0.257705	0.000173
C89	C	1.214388	-0.505054	0.000086
C90	C	1.281432	-0.472268	0.000118
C91	C	1.356827	-0.508652	0.000187
H92	H	1.217268	-0.528520	-0.050970
H93	H	1.217179	-0.528504	0.051182
H94	H	1.278642	-0.448828	-0.050972
H95	H	1.278579	-0.448803	0.051171
H96	H	1.359618	-0.532102	0.051283
H97	H	1.359699	-0.532117	-0.050870
H98	H	1.402325	-0.486412	0.000217
C99	C	1.099977	-0.002968	0.596344
C100	C	1.087801	0.005306	0.686943
C101	C	1.144559	-0.033387	0.733221
H102	H	1.155447	0.003191	0.581337
H103	H	1.091257	-0.040991	0.581295
H104	H	1.096528	0.043320	0.701986
H105	H	1.032342	-0.000858	0.701976
H106	H	1.135839	-0.071410	0.718172
H107	H	1.200026	-0.027225	0.718207
H108	H	1.136300	-0.027782	0.794697
C109	C	0.550176	0.187116	0.000061
C110	C	0.484586	0.231871	0.000081
C111	C	0.517417	0.284347	0.000129
H112	H	0.583558	0.189766	-0.050998
H113	H	0.583547	0.189709	0.051155
H114	H	0.451229	0.229279	-0.051008
H115	H	0.451198	0.229240	0.051136
H116	H	0.550788	0.286940	0.051222
H117	H	0.550799	0.286991	-0.050931
H118	H	0.472920	0.314720	0.000150
C119	C	0.369390	0.184836	-0.000120
C120	C	0.318989	0.187262	-0.075457
C121	C	0.265178	0.238581	-0.075620
H122	H	0.401366	0.216242	-0.000175
H123	H	0.335085	0.186592	0.050927
H124	H	0.353290	0.185512	-0.126491
H125	H	0.286995	0.155868	-0.075418
H126	H	0.230873	0.240337	-0.024573
H127	H	0.297161	0.269983	-0.075673
H128	H	0.230969	0.240231	-0.126731
C129	C	1.135833	-0.647642	-0.000116
C130	C	1.140858	-0.613920	-0.075456
C131	C	1.217120	-0.590930	-0.075604
H132	H	1.180584	-0.677830	-0.000158
H133	H	1.139398	-0.624723	0.050929
H134	H	1.137301	-0.636838	-0.126488
H135	H	1.096126	-0.583723	-0.075430
H136	H	1.220685	-0.568011	-0.024559
H137	H	1.261864	-0.621122	-0.075643
H138	H	1.220536	-0.568043	-0.126717
C139	C	0.819722	-0.619350	-0.000179
C140	C	0.815873	-0.584851	-0.075537
C141	C	0.740607	-0.548330	-0.075740
H142	H	0.816890	-0.595846	0.050835
H143	H	0.774105	-0.641485	-0.000228
H144	H	0.861478	-0.562718	-0.075480
H145	H	0.818691	-0.608340	-0.126564
H146	H	0.694989	-0.570465	-0.075789
H147	H	0.737781	-0.524830	-0.024723
H148	H	0.737982	-0.524921	-0.126874
H149	H	1.113286	-0.761714	0.000015
C150	C	0.817448	-0.743153	-0.000042
C151	C	0.751754	-0.698471	-0.000065
C152	C	0.675328	-0.721249	-0.000128
H153	H	0.813765	-0.766042	0.051013
H154	H	0.813846	-0.766019	-0.051139
H155	H	0.755354	-0.675614	0.051027
H156	H	0.755409	-0.675578	-0.051117
H157	H	0.671726	-0.744115	-0.051225
H158	H	0.671654	-0.744137	0.050929
H159	H	0.630745	-0.690936	-0.000151
H160	H	0.767225	-0.456984	-0.000025
H161	H	0.421590	-0.017320	0.000066
C162	C	0.748593	-0.339412	0.000024
C163	C	0.681541	-0.372191	0.000034
C164	C	0.606152	-0.335800	0.000078
H165	H	0.745732	-0.315937	-0.051033
H166	H	0.745793	-0.315971	0.051120
H167	H	0.684340	-0.395622	-0.051057
H168	H	0.684374	-0.395665	0.051087
H169	H	0.603352	-0.312359	0.051173
H170	H	0.603300	-0.312327	-0.050980
H171	H	0.560649	-0.358035	0.000092
H172	H	0.847797	-0.190549	0.000061
H173	H	0.878340	0.147991	0.583657
C174	C	0.829277	-0.072840	-0.000135
C175	C	0.825457	-0.038344	-0.075495
C176	C	0.750206	-0.001807	-0.075713
H177	H	0.826448	-0.049335	0.050878
H178	H	0.783647	-0.094965	-0.000191
H179	H	0.871075	-0.016222	-0.075431
H180	H	0.828273	-0.061833	-0.126520
H181	H	0.704576	-0.023931	-0.075770
H182	H	0.747383	0.021694	-0.024697
H183	H	0.747600	0.021600	-0.126848
C184	C	0.862856	0.158567	0.404040
C185	C	0.813083	0.192486	0.464130
C186	C	0.756182	0.231275	0.418198
H187	H	0.828338	0.138138	0.368084
H188	H	0.892544	0.182310	0.368086
H189	H	0.783398	0.168746	0.500069
H190	H	0.847578	0.212927	0.500088
H191	H	0.785869	0.255018	0.382244
H192	H	0.721669	0.210841	0.382243
H193	H	0.722409	0.254296	0.458961
H194	H	1.122847	-0.215195	0.000051
