data_functionalizedCrystal
_audit_creation_method	'MofGen! by Chris Wilmer'
_symmetry_space_group_name_H-M	'P1'
_symmetry_Int_Tables_number	1
_symmetry_cell_setting	triclinic
loop_
_symmetry_equiv_pos_as_xyz
  x,y,z
_cell_length_a	17.077404
_cell_length_b	13.031981
_cell_length_c	17.077396
_cell_angle_alpha	97.212086
_cell_angle_beta	90.019501
_cell_angle_gamma	97.191813
loop_
_atom_site_label
_atom_site_type_symbol
_atom_site_fract_x
_atom_site_fract_y
_atom_site_fract_z
Zn1	Zn	1.160414	-0.416106	0.404120
Zn2	Zn	1.660414	0.083894	0.904120
Zn3	Zn	1.143670	-0.590901	0.256168
Zn4	Zn	1.643670	-0.090901	0.756168
Zn5	Zn	1.029143	-0.416143	0.272865
Zn6	Zn	1.529143	0.083857	0.772865
Zn7	Zn	1.012468	-0.590839	0.387397
Zn8	Zn	1.512468	-0.090839	0.887397
O9	O	1.086424	-0.503497	0.330138
O10	O	1.586424	-0.003497	0.830138
O11	O	1.268039	-0.439303	0.384505
O12	O	1.768039	0.060697	0.884505
O13	O	1.128448	-0.567761	0.148532
O14	O	1.628448	-0.067761	0.648532
O15	O	1.060542	-0.269874	0.304262
O16	O	1.560542	0.230126	0.804262
O17	O	1.255737	-0.567725	0.275805
O18	O	1.755737	-0.067725	0.775805
O19	O	1.156987	-0.269847	0.400695
O20	O	1.656987	0.230153	0.900695
O21	O	1.044306	-0.439366	0.160799
O22	O	1.544306	0.060634	0.660799
O23	O	0.917085	-0.439306	0.288047
O24	O	1.417085	0.060694	0.788047
O25	O	1.032123	-0.567619	0.499467
O26	O	1.532123	-0.067619	0.999467
O27	O	0.904834	-0.567655	0.372194
O28	O	1.404834	-0.067655	0.872194
O29	O	1.140818	-0.439243	0.511753
O30	O	1.640818	0.060757	1.011753
O31	O	1.112279	-0.737157	0.259590
O32	O	1.612279	-0.237157	0.759590
O33	O	1.015886	-0.737111	0.356003
O34	O	1.515886	-0.237111	0.856003
C35	C	0.882478	-0.503478	0.330118
C36	C	1.382478	-0.003478	0.830118
C37	C	0.795226	-0.503495	0.330125
C38	C	1.295226	-0.003495	0.830125
C39	C	1.060478	-0.775059	0.304187
C40	C	1.560478	-0.275059	0.804187
C41	C	1.049450	-0.891234	0.293112
C42	C	1.549450	-0.391234	0.793112
C43	C	0.747868	-0.570428	0.373851
C44	C	1.247868	-0.070428	0.873851
C45	C	0.665887	-0.570430	0.373863
C46	C	1.165887	-0.070430	0.873863
C47	C	0.631266	-0.503504	0.330145
C48	C	1.131266	-0.003504	0.830145
C49	C	0.678631	-0.436565	0.286419
C50	C	1.178631	0.063435	0.786419
C51	C	0.760610	-0.436558	0.286411
C52	C	1.260610	0.063442	0.786411
C53	C	0.507759	-0.436585	0.286436
C54	C	1.007759	0.063415	0.786436
C55	C	0.425773	-0.436593	0.286442
C56	C	0.925773	0.063407	0.786442
C57	C	0.413036	-0.570457	0.373887
C58	C	0.913036	-0.070457	0.873887
C59	C	0.495015	-0.570450	0.373880
C60	C	0.995015	-0.070450	0.873880
C61	C	0.542374	-0.503512	0.330152
C62	C	1.042374	-0.003512	0.830152
C63	C	1.092221	-0.942932	0.335934
C64	C	1.592221	-0.442932	0.835934
C65	C	1.080824	-1.063005	0.324488
C66	C	1.580824	-0.563005	0.824488
C67	C	1.291166	-0.503517	0.330158
C68	C	1.791166	-0.003517	0.830158
C69	C	1.378415	-0.503525	0.330167
C70	C	1.878415	-0.003525	0.830167
C71	C	1.086479	-0.503420	0.534889
C72	C	1.586479	-0.003420	1.034889
C73	C	1.086502	-0.503387	0.622142
C74	C	1.586502	-0.003387	1.122142
C75	C	1.112492	-0.230875	0.356207
C76	C	1.612492	0.269125	0.856207
C77	C	1.123601	-0.114700	0.367316
C78	C	1.623601	0.385300	0.867316
C79	C	1.086421	-0.503499	0.126190
C80	C	1.586421	-0.003499	0.626190
C81	C	1.086578	-0.503237	0.038965
C82	C	1.586578	-0.003237	0.538965
C83	C	1.143102	-0.436537	0.669532
C84	C	1.643102	0.063463	1.169532
C85	C	1.143115	-0.436502	0.751516
C86	C	1.643115	0.063498	1.251516
C87	C	1.086530	-0.503324	0.786108
C88	C	1.586530	-0.003324	1.286108
C89	C	1.029924	-0.570178	0.738712
C90	C	1.529924	-0.070178	1.238712
C91	C	1.029909	-0.570207	0.656731
C92	C	1.529909	-0.070207	1.156731
C93	C	1.029962	-0.570115	0.909589
C94	C	1.529962	-0.070115	1.409589
C95	C	1.029978	-0.570088	0.991576
C96	C	1.529978	-0.070088	1.491576
C97	C	1.143168	-0.436410	1.004373
C98	C	1.643168	0.063590	1.504373
C99	C	1.143152	-0.436439	0.922392
C100	C	1.643152	0.063561	1.422392
C101	C	1.086547	-0.503294	0.875002
C102	C	1.586547	-0.003294	1.375002
H103	H	0.776050	-0.624930	0.409448
H104	H	1.276050	-0.124930	0.909448
N105	N	0.558843	-0.364397	0.239269
N106	N	1.058843	0.135603	0.739269
H107	H	0.597492	-0.316010	0.275848
H108	H	1.097492	0.183990	0.775848
H109	H	0.524418	-0.322072	0.211575
H110	H	1.024418	0.177928	0.711575
H111	H	1.189206	-0.382067	0.790097
H112	H	1.689206	0.117933	1.290097
H113	H	0.627331	-0.624934	0.409467
H114	H	1.127331	-0.124934	0.909467
H115	H	1.189257	-0.381972	1.042963
H116	H	1.689257	0.118028	1.542963
H117	H	0.523201	-0.624953	0.409474
H118	H	1.023201	-0.124953	0.909474
H119	H	0.374472	-0.624958	0.409495
H120	H	0.874472	-0.124958	0.909495
H121	H	0.983901	-0.624498	1.019738
H122	H	1.483901	-0.124498	1.519738
N123	N	1.151897	-0.883814	0.395727
N124	N	1.651897	-0.383814	0.895727
H125	H	1.192561	-0.838503	0.368150
H126	H	1.692561	-0.338503	0.868150
H127	H	1.178817	-0.934871	0.422718
H128	H	1.678817	-0.434871	0.922718
H129	H	0.650436	-0.382069	0.250827
H130	H	1.150436	0.117931	0.750827
H131	H	1.004390	-0.935867	0.247980
H132	H	1.504390	-0.435867	0.747980
H133	H	1.189232	-0.382032	0.894229
H134	H	1.689232	0.117968	1.394229
H135	H	0.983850	-0.624582	0.766884
H136	H	1.483850	-0.124582	1.266884
H137	H	1.035762	-1.107634	0.279353
H138	H	1.535762	-0.607634	0.779353
H139	H	0.983812	-0.624633	0.618148
H140	H	1.483812	-0.124633	1.118148
H141	H	0.397588	-0.382084	0.250853
H142	H	0.897588	0.117916	0.750853
N143	N	1.204138	-0.364470	0.632224
N144	N	1.704138	0.135530	1.132224
H145	H	1.239994	-0.322114	0.674688
H146	H	1.739994	0.177886	1.174688
H147	H	1.176805	-0.316108	0.602828
H148	H	1.676805	0.183892	1.102828
N149	N	0.811694	-0.364360	0.239257
N150	N	1.311694	0.135640	0.739257
H151	H	0.777324	-0.321964	0.211563
H152	H	1.277324	0.178036	0.711563
H153	H	0.841638	-0.406835	0.198815
H154	H	1.341638	0.093165	0.698815
N155	N	1.183283	-1.055592	0.427112
N156	N	1.683283	-0.555592	0.927112
H157	H	1.223949	-1.010283	0.399535
H158	H	1.723949	-0.510283	0.899535
H159	H	1.210201	-1.106655	0.454100
H160	H	1.710201	-0.606655	0.954100
H161	H	0.983857	-0.624540	0.871007
H162	H	1.483857	-0.124540	1.371007
