data_functionalizedCrystal
_audit_creation_method	'MofGen! by Chris Wilmer'
_symmetry_space_group_name_H-M	'P1'
_symmetry_Int_Tables_number	1
_symmetry_cell_setting	triclinic
loop_
_symmetry_equiv_pos_as_xyz
  x,y,z
_cell_length_a	21.295417
_cell_length_b	16.959455
_cell_length_c	16.959447
_cell_angle_alpha	90.023545
_cell_angle_beta	90.031627
_cell_angle_gamma	90.027526
loop_
_atom_site_label
_atom_site_type_symbol
_atom_site_fract_x
_atom_site_fract_y
_atom_site_fract_z
Zn1	Zn	-0.250669	1.208351	0.447010
Zn2	Zn	0.249331	1.708351	0.947010
Zn3	Zn	-0.355939	1.208242	0.314820
Zn4	Zn	0.144061	1.708242	0.814820
Zn5	Zn	-0.250682	1.076172	0.314833
Zn6	Zn	0.249318	1.576172	0.814833
Zn7	Zn	-0.355899	1.076120	0.446944
Zn8	Zn	0.144101	1.576120	0.946944
O9	O	-0.303297	1.142222	0.380902
O10	O	0.196703	1.642222	0.880902
O11	O	-0.264645	1.318948	0.429496
O12	O	0.235355	1.818948	0.929496
O13	O	-0.341999	1.190699	0.204211
O14	O	0.158001	1.690699	0.704211
O15	O	-0.162591	1.093774	0.332399
O16	O	0.337409	1.593774	0.832399
O17	O	-0.341986	1.318868	0.332377
O18	O	0.158014	1.818868	0.832377
O19	O	-0.162581	1.190885	0.429509
O20	O	0.337419	1.690885	0.929509
O21	O	-0.264667	1.093668	0.204220
O22	O	0.235333	1.593668	0.704220
O23	O	-0.264628	0.965555	0.332336
O24	O	0.235372	1.465555	0.832336
O25	O	-0.341917	1.093685	0.557564
O26	O	0.158083	1.593685	1.057564
O27	O	-0.341930	0.965516	0.429398
O28	O	0.158070	1.465516	0.929398
O29	O	-0.264605	1.190834	0.557612
O30	O	0.235395	1.690834	1.057612
O31	O	-0.444023	1.190649	0.332313
O32	O	0.055977	1.690649	0.832313
O33	O	-0.443994	1.093579	0.429385
O34	O	0.056006	1.593579	0.929385
C35	C	-0.303277	0.936855	0.380862
C36	C	0.196723	1.436855	0.880862
C37	C	-0.303283	0.848999	0.380864
C38	C	0.196717	1.348999	0.880864
C39	C	-0.343529	0.477471	0.330306
C40	C	0.156471	0.977471	0.830306
C41	C	-0.263118	0.477575	0.431594
C42	C	0.236882	0.977575	0.931594
C43	C	-0.263107	0.560121	0.431574
C44	C	0.236893	1.060121	0.931574
C45	C	-0.303309	0.601346	0.380921
C46	C	0.196691	1.101346	0.880921
C47	C	-0.343521	0.560024	0.330287
C48	C	0.156479	1.060024	0.830287
C49	C	-0.222900	0.601449	0.482213
C50	C	0.277100	1.101449	0.982213
C51	C	-0.222889	0.684000	0.482197
C52	C	0.277111	1.184000	0.982197
C53	C	-0.263088	0.725226	0.431539
C54	C	0.236912	1.225226	0.931539
C55	C	-0.303301	0.683899	0.380902
C56	C	0.196699	1.183899	0.880902
C57	C	-0.343503	0.725124	0.330248
C58	C	0.156497	1.225124	0.830248
C59	C	-0.383714	0.683799	0.279607
C60	C	0.116286	1.183799	0.779607
C61	C	-0.383720	0.601250	0.279629
C62	C	0.116280	1.101250	0.779629
C63	C	-0.263081	0.807774	0.431517
C64	C	0.236919	1.307774	0.931517
C65	C	-0.343495	0.807677	0.330229
C66	C	0.156505	1.307677	0.830229
C67	C	-0.466849	1.142118	0.380858
C68	C	0.033151	1.642118	0.880858
C69	C	-0.536817	1.142146	0.380866
C70	C	-0.036817	1.642146	0.880866
C71	C	-0.569678	1.192735	0.330372
C72	C	-0.069678	1.692735	0.830372
C73	C	-0.635421	1.192772	0.330390
C74	C	-0.135421	1.692772	0.830390
C75	C	-0.668299	1.142206	0.380893
C76	C	-0.168299	1.642206	0.880893
C77	C	-0.635430	1.091613	0.431396
C78	C	-0.135430	1.591613	0.931396
C79	C	-0.569689	1.091583	0.431382
C80	C	-0.069689	1.591583	0.931382
N81	N	-0.771562	1.073059	0.386905
N82	N	-0.271562	1.573059	0.886905
N83	N	-0.834014	1.073090	0.386914
N84	N	-0.334014	1.573090	0.886914
C85	C	-0.866374	1.142294	0.380938
C86	C	-0.366374	1.642294	0.880938
N87	N	-0.833924	1.211468	0.374939
N88	N	-0.333924	1.711468	0.874939
N89	N	-0.771467	1.211437	0.374926
N90	N	-0.271467	1.711437	0.874926
C91	C	-0.739585	1.142233	0.380914
C92	C	-0.239585	1.642233	0.880914
C93	C	-0.970521	1.192928	0.330462
C94	C	-0.470521	1.692928	0.830462
C95	C	-1.036265	1.192966	0.330485
C96	C	-0.536265	1.692966	0.830485
C97	C	-1.036273	1.091801	0.431487
C98	C	-0.536273	1.591801	0.931487
C99	C	-0.970531	1.091769	0.431467
C100	C	-0.470531	1.591769	0.931467
C101	C	-0.937658	1.142332	0.380951
C102	C	-0.437658	1.642332	0.880951
C103	C	-0.139107	1.142347	0.380963
C104	C	0.360893	1.642347	0.880963
C105	C	-0.069139	1.142401	0.380989
C106	C	0.430861	1.642401	0.880989
C107	C	-0.303318	1.348390	0.380942
C108	C	0.196682	1.848390	0.880942
C109	C	-0.303327	1.436246	0.380959
C110	C	0.196673	1.936246	0.880959
C111	C	-0.303255	1.142266	0.587070
C112	C	0.196745	1.642266	1.087070
C113	C	-0.303238	1.142285	0.674927
C114	C	0.196762	1.642285	1.174927
C115	C	-0.303294	1.142223	0.175535
C116	C	0.196706	1.642223	0.675535
C117	C	-0.303134	1.142357	0.087679
C118	C	0.196866	1.642357	0.587679
C119	C	-0.343483	1.091713	0.716177
C120	C	0.156517	1.591713	1.216177
C121	C	-0.262972	1.192869	0.716230
C122	C	0.237028	1.692869	1.216230
C123	C	-0.262951	1.192886	0.798776
C124	C	0.237049	1.692886	1.298776
C125	C	-0.303196	1.142314	0.840026
C126	C	0.196804	1.642314	1.340026
C127	C	-0.343462	1.091727	0.798731
C128	C	0.156538	1.591727	1.298731
C129	C	-0.222682	1.243467	0.840077
C130	C	0.277318	1.743467	1.340077
C131	C	-0.222659	1.243485	0.922628
C132	C	0.277341	1.743485	1.422628
C133	C	-0.262908	1.192917	0.963880
C134	C	0.237092	1.692917	1.463880
C135	C	-0.303175	1.142328	0.922580
C136	C	0.196825	1.642328	1.422580
C137	C	-0.343420	1.091756	0.963830
C138	C	0.156580	1.591756	1.463830
C139	C	-0.383692	1.041170	0.922531
C140	C	0.116308	1.541170	1.422531
C141	C	-0.383710	1.041158	0.839983
C142	C	0.116290	1.541158	1.339983
C143	C	-0.262889	1.192929	1.046429
C144	C	0.237111	1.692929	1.546429
C145	C	-0.343400	1.091769	1.046384
C146	C	0.156600	1.591769	1.546384
H147	H	-0.190174	0.567878	0.523458
H148	H	0.309826	1.067878	1.023458
C149	C	-0.934359	1.248559	0.274904
C150	C	-0.434359	1.748559	0.774904
N151	N	-0.907124	1.290463	0.233061
N152	N	-0.407124	1.790463	0.733061
C153	C	-0.178651	0.729450	0.537895
C154	C	0.321349	1.229450	1.037895
N155	N	-0.145327	0.763683	0.579844
N156	N	0.354673	1.263683	1.079844
C157	C	-0.218853	0.853228	0.487220
C158	C	0.281147	1.353228	0.987220
N159	N	-0.185536	0.887463	0.529177
N160	N	0.314464	1.387463	1.029177
H161	H	-1.063019	1.234167	0.289369
H162	H	-0.563019	1.734167	0.789369
H163	H	-0.416456	0.999991	0.956128
H164	H	0.083544	1.499991	1.456128
C165	C	-0.427952	0.555787	0.223932
C166	C	0.072048	1.055787	0.723932
N167	N	-0.461268	0.521540	0.181985
N168	N	0.038732	1.021540	0.681985
H169	H	-0.230096	1.234109	1.080051
H170	H	0.269904	1.734109	1.580051
H171	H	-1.063042	1.050632	0.472610
H172	H	-0.563042	1.550632	0.972610
C173	C	-0.387777	1.036069	0.670749
C174	C	0.112223	1.536069	1.170749
N175	N	-0.421139	0.994156	0.636530
N176	N	0.078861	1.494156	1.136530
H177	H	-0.376266	0.443820	0.289073
H178	H	0.123734	0.943820	0.789073
H179	H	-0.189869	1.284676	0.956247
H180	H	0.310131	1.784676	1.456247
C181	C	-0.218702	1.248491	0.670851
C182	C	0.281298	1.748491	1.170851
N183	N	-0.185356	1.290388	0.636669
N184	N	0.314644	1.790388	1.136669
H185	H	-0.943773	1.050572	0.472580
H186	H	-0.443773	1.550572	0.972580
C187	C	-0.218889	0.432226	0.487297
C188	C	0.281111	0.932226	0.987297
N189	N	-0.185568	0.398065	0.529249
N190	N	0.314432	0.898065	1.029249
C191	C	-0.427999	0.985512	0.794548
C192	C	0.072001	1.485512	1.294548
N193	N	-0.461354	0.943595	0.760323
N194	N	0.038646	1.443595	1.260323
H195	H	-0.376231	0.841236	0.288978
H196	H	0.123769	1.341236	0.788978
H197	H	-0.416449	0.717374	0.238369
H198	H	0.083551	1.217374	0.738369
C199	C	-0.671598	1.035988	0.486946
C200	C	-0.171598	1.535988	0.986946
N201	N	-0.698840	0.994089	0.528789
N202	N	-0.198840	1.494089	1.028789
C203	C	-0.178411	1.299086	0.794697
C204	C	0.321589	1.799086	1.294697
N205	N	-0.145065	1.340980	0.760512
N206	N	0.354935	1.840980	1.260512
H207	H	-0.542916	1.233908	0.289241
H208	H	-0.042916	1.733908	0.789241
H209	H	-0.662181	1.233970	0.289273
H210	H	-0.162181	1.733970	0.789273
H211	H	-0.542933	1.050387	0.472501
H212	H	-0.042933	1.550387	0.972501
C213	C	-0.387673	1.036135	1.091753
C214	C	0.112327	1.536135	1.591753
N215	N	-0.421019	0.994230	1.125924
N216	N	0.078981	1.494230	1.625924
