data_functionalizedCrystal
_audit_creation_method	'MofGen! by Chris Wilmer'
_symmetry_space_group_name_H-M	'P1'
_symmetry_Int_Tables_number	1
_symmetry_cell_setting	triclinic
loop_
_symmetry_equiv_pos_as_xyz
  x,y,z
_cell_length_a	16.959455
_cell_length_b	16.959453
_cell_length_c	16.959447
_cell_angle_alpha	90.029791
_cell_angle_beta	90.018348
_cell_angle_gamma	90.019416
loop_
_atom_site_label
_atom_site_type_symbol
_atom_site_fract_x
_atom_site_fract_y
_atom_site_fract_z
Zn1	Zn	1.208413	-0.314688	0.446913
Zn2	Zn	1.208327	-0.446877	0.314732
Zn3	Zn	1.076233	-0.314716	0.314749
Zn4	Zn	1.076206	-0.446827	0.446870
O5	O	1.142295	-0.380777	0.380816
O6	O	1.319012	-0.332233	0.429389
O7	O	1.190780	-0.429379	0.204124
O8	O	1.093814	-0.204101	0.332306
O9	O	1.318949	-0.429352	0.332277
O10	O	1.190926	-0.204081	0.429406
O11	O	1.093731	-0.332280	0.204136
O12	O	0.965618	-0.332231	0.332265
O13	O	1.093768	-0.429266	0.557487
O14	O	0.965599	-0.429293	0.429333
O15	O	1.190900	-0.332184	0.557518
O16	O	1.190754	-0.557482	0.332236
O17	O	1.093685	-0.557445	0.429317
C18	C	0.936928	-0.380760	0.380797
C19	C	0.849072	-0.380771	0.380807
C20	C	0.807763	-0.431265	0.330173
C21	C	0.807827	-0.330284	0.431447
C22	C	0.725281	-0.330290	0.431456
C23	C	0.683972	-0.380784	0.380823
C24	C	0.725210	-0.431271	0.330179
C25	C	0.684038	-0.279799	0.482093
C26	C	0.601487	-0.279802	0.482104
C27	C	0.560176	-0.330300	0.431474
C28	C	0.601419	-0.380790	0.380829
C29	C	0.560110	-0.431283	0.330195
C30	C	0.601351	-0.481778	0.279554
C31	C	0.683899	-0.481769	0.279549
C32	C	0.477628	-0.330309	0.431478
C33	C	0.477557	-0.431290	0.330201
C34	C	1.142229	-0.586143	0.380787
C35	C	1.142273	-0.674000	0.380801
C36	C	1.192926	-1.045406	0.431471
C37	C	1.091884	-1.045544	0.330278
C38	C	1.091855	-0.962999	0.330260
C39	C	1.142361	-0.921653	0.380849
C40	C	1.192896	-0.962853	0.431456
C41	C	1.041315	-0.921792	0.279659
C42	C	1.041283	-0.839241	0.279640
C43	C	1.091794	-0.797894	0.330225
C44	C	1.142332	-0.839099	0.380834
C45	C	1.192837	-0.797753	0.431423
C46	C	1.243380	-0.838957	0.482029
C47	C	1.243407	-0.921506	0.482042
C48	C	1.091767	-0.715346	0.330212
C49	C	1.192808	-0.715200	0.431408
C50	C	1.348463	-0.380795	0.380836
C51	C	1.436319	-0.380802	0.380845
C52	C	1.142341	-0.380716	0.586984
C53	C	1.142360	-0.380690	0.674841
C54	C	1.142382	-0.174609	0.380862
C55	C	1.142420	-0.086752	0.380882
C56	C	1.142294	-0.380781	0.175450
C57	C	1.142428	-0.380584	0.087594
C58	C	1.192899	-0.431232	0.716110
C59	C	1.091835	-0.330129	0.716125
C60	C	1.091848	-0.330105	0.798671
C61	C	1.142387	-0.380647	0.839941
C62	C	1.192913	-0.431212	0.798664
C63	C	1.041318	-0.279547	0.839954
C64	C	1.041329	-0.279523	0.922505
C65	C	1.091873	-0.330061	0.963776
C66	C	1.142401	-0.380627	0.922494
C67	C	1.192940	-0.431169	0.963763
C68	C	1.243472	-0.481732	0.922483
C69	C	1.243456	-0.481750	0.839934
C70	C	1.091889	-0.330042	1.046324
C71	C	1.192953	-0.431149	1.046317
H72	H	0.444053	-0.289191	0.472704
O73	O	1.037329	-0.275614	0.671620
H74	H	1.045812	-0.284119	0.607284
H75	H	0.841345	-0.472378	0.288944
H76	H	0.717677	-0.238687	0.523313
H77	H	1.284596	-0.522916	0.806317
O78	O	1.247400	-0.485769	0.671595
H79	H	1.238901	-0.477298	0.607260
O80	O	0.986814	-0.225033	0.795447
H81	H	0.995304	-0.233534	0.731111
H82	H	1.050612	-0.681801	0.289014
O83	O	0.852375	-0.275822	0.486055
H84	H	0.916705	-0.284301	0.477544
H85	H	1.000194	-0.955462	0.238475
H86	H	1.284619	-0.522885	0.956095
O87	O	0.557006	-0.225349	0.536724
H88	H	0.599600	-0.190240	0.571934
H89	H	1.233939	-0.681541	0.472602
H90	H	1.234112	-0.472303	1.079912
H91	H	1.000130	-0.805698	0.238434
H92	H	0.443929	-0.472411	0.288972
O93	O	0.986839	-0.224982	0.967029
H94	H	0.951700	-0.189836	0.924462
H95	H	0.567707	-0.522886	0.238325
O96	O	0.728383	-0.536214	0.224922
H97	H	0.766007	-0.576463	0.260223
H98	H	1.284499	-0.805284	0.523222
H99	H	1.284555	-0.955061	0.523243
O100	O	1.247431	-1.089838	0.486060
H101	H	1.238965	-1.154187	0.477580
O102	O	1.037422	-1.090132	0.275705
H103	H	1.045939	-1.154456	0.284211
O104	O	1.037396	-0.275512	1.090851
H105	H	1.002253	-0.240370	1.048286
