data_functionalizedCrystal
_audit_creation_method	'MofGen! by Chris Wilmer'
_symmetry_space_group_name_H-M	'P1'
_symmetry_Int_Tables_number	1
_symmetry_cell_setting	triclinic
loop_
_symmetry_equiv_pos_as_xyz
  x,y,z
_cell_length_a	15.944551
_cell_length_b	15.944551
_cell_length_c	15.021413
_cell_angle_alpha	89.999557
_cell_angle_beta	89.988701
_cell_angle_gamma	83.498738
loop_
_atom_site_label
_atom_site_type_symbol
_atom_site_fract_x
_atom_site_fract_y
_atom_site_fract_z
O1	O	-1.114511	-0.108326	-0.073941
O2	O	-0.869961	-0.121682	-0.073964
O3	O	-0.998914	0.007271	-0.073944
O4	O	-0.985558	-0.237279	-0.073961
O5	O	-0.998929	0.007263	0.074121
O6	O	-0.869976	-0.121690	0.074101
O7	O	-1.114526	-0.108334	0.074123
Zn8	Zn	-0.992254	-0.115013	0.097620
Zn9	Zn	-0.992234	-0.115003	-0.097461
O10	O	-0.985573	-0.237287	0.074103
C11	C	-0.838675	-0.121132	0.000066
C12	C	-0.745429	-0.119470	0.000057
C13	C	-0.998367	0.038561	0.000089
C14	C	-0.996705	0.131807	0.000089
C15	C	-1.145813	-0.108885	0.000092
C16	C	-1.239059	-0.110547	0.000094
C17	C	-0.530572	-0.035565	0.000081
C18	C	-0.469545	-0.074524	-0.072926
C19	C	-0.574703	-0.116462	0.000068
C20	C	-0.469582	-0.074551	0.073054
C21	C	-0.409790	-0.113551	0.000083
C22	C	-0.514904	-0.155443	-0.072998
C23	C	-0.514947	-0.155459	0.073047
C24	C	-0.453937	-0.194476	0.000023
C25	C	-0.669705	-0.118137	0.000059
C26	C	-0.314789	-0.111883	0.000085
C27	C	-0.986120	-0.268577	0.000069
C28	C	-0.987782	-0.361823	0.000063
C29	C	-0.912801	0.346663	0.000069
C30	C	-0.951771	0.407677	0.073077
C31	C	-0.993698	0.302533	0.000082
C32	C	-0.951775	0.407668	-0.072903
C33	C	-0.990787	0.467445	0.000071
C34	C	-1.032690	0.362318	0.073150
C35	C	-1.032683	0.362303	-0.072895
C36	C	-1.071711	0.423298	0.000131
C37	C	-0.995372	0.207530	0.000089
C38	C	-0.989119	0.562446	0.000070
N39	N	-0.992273	-0.115020	0.230758
N40	N	-0.992221	-0.114990	-0.230598
C41	C	-1.051913	-0.055379	0.470426
C42	C	-0.976013	-0.039061	0.529750
C43	C	-0.992254	-0.115010	0.412365
C44	C	-1.068135	-0.131277	0.529783
C45	C	-0.992242	-0.114997	0.587789
C46	C	-0.916316	-0.098655	0.470382
C47	C	-1.008487	-0.190904	0.470410
C48	C	-0.932533	-0.174619	0.529706
C49	C	-0.992262	-0.115014	0.311307
C50	C	-0.992225	-0.114993	0.688844
H51	H	-0.563905	0.031573	-0.000005
O52	O	-1.073618	0.338531	0.146804
C53	C	-1.157116	0.378591	0.146992
H54	H	-1.176733	0.397180	0.076077
H55	H	-1.160889	0.437525	0.190438
C56	C	-1.192638	0.294801	0.271404
C57	C	-1.216734	0.317625	0.184304
H58	H	-1.229413	0.257196	0.294423
H59	H	-1.136383	0.267813	0.271280
H60	H	-1.195782	0.343918	0.307598
H61	H	-1.213579	0.268510	0.148109
H62	H	-1.272990	0.344603	0.184423
O63	O	-1.151933	0.462745	0.000066
C64	C	-1.194741	0.438569	-0.076232
H65	H	-1.163208	0.375276	-0.101433
H66	H	-1.192290	0.488363	-0.130348
C67	C	-1.326140	0.508131	-0.021479
C68	C	-1.287415	0.430390	-0.052427
H69	H	-1.383306	0.503090	-0.006798
H70	H	-1.297299	0.524422	0.029923
H71	H	-1.324089	0.549619	-0.066581
H72	H	-1.289457	0.388907	-0.007322
H73	H	-1.316258	0.414092	-0.103821
H74	H	-0.845652	0.313356	0.000136
O75	O	-1.024955	-0.267490	0.439432
C76	C	-1.037231	-0.320997	0.511871
H77	H	-1.056916	-0.281202	0.573017
H78	H	-0.975914	-0.362731	0.526500
C79	C	-1.082701	-0.425704	0.413540
C80	C	-1.106886	-0.376827	0.488639
H81	H	-1.125664	-0.460146	0.399209
H82	H	-1.074427	-0.389658	0.364736
H83	H	-1.031602	-0.460475	0.425741
H84	H	-1.157977	-0.342049	0.476434
H85	H	-1.115169	-0.412869	0.537440
O86	O	-0.539005	-0.196371	0.146582
C87	C	-0.578384	-0.267279	0.120408
H88	H	-0.556631	-0.287374	0.050526
H89	H	-0.649801	-0.250406	0.120673
C90	C	-0.581026	-0.315704	0.271687
C91	C	-0.554304	-0.340389	0.185860
H92	H	-0.566177	-0.360801	0.312063
H93	H	-0.554499	-0.267930	0.289322
H94	H	-0.640540	-0.301642	0.271895
H95	H	-0.494791	-0.354440	0.185650
H96	H	-0.580821	-0.388167	0.168226
H97	H	-0.449428	-0.040304	-0.134642
H98	H	-1.066863	0.342176	-0.134615
O99	O	-1.144664	-0.147653	0.561043
C100	C	-1.143382	-0.148199	0.654894
H101	H	-1.091943	-0.109784	0.679610
H102	H	-1.129938	-0.215968	0.679677
C103	C	-1.292805	-0.156325	0.660189
C104	C	-1.229632	-0.109137	0.690546
H105	H	-1.346009	-0.132233	0.682182
H106	H	-1.293669	-0.155960	0.596960
H107	H	-1.281590	-0.212796	0.680844
H108	H	-1.240841	-0.052670	0.669881
H109	H	-1.228771	-0.109491	0.753773
H110	H	-0.449502	-0.040323	0.134773
H111	H	-0.917561	0.427782	0.134794
H112	H	-0.917542	0.427748	-0.134630
O113	O	-1.111949	0.004919	0.439406
C114	C	-1.094511	0.084839	0.469661
H115	H	-1.024527	0.082476	0.486290
H116	H	-1.133549	0.102839	0.531776
C117	C	-1.203224	0.153916	0.375918
C118	C	-1.117266	0.151016	0.396335
H119	H	-1.217263	0.194739	0.330690
H120	H	-1.214974	0.100073	0.355537
H121	H	-1.235744	0.168914	0.427687
H122	H	-1.084747	0.136008	0.344570
H123	H	-1.105510	0.204858	0.416706
O124	O	-0.959645	0.037570	0.560704
C125	C	-0.948888	0.091540	0.488246
H126	H	-0.982018	0.068615	0.427124
H127	H	-0.878696	0.091214	0.473580
C128	C	-0.946509	0.210059	0.586546
C129	C	-0.987207	0.181906	0.511476
H130	H	-0.970142	0.265802	0.600876
H131	H	-0.953753	0.173699	0.635363
H132	H	-0.888018	0.209780	0.574314
H133	H	-1.045694	0.182176	0.523713
H134	H	-0.979974	0.218269	0.462661
O135	O	-0.839793	-0.082126	0.439243
C136	C	-0.840725	-0.082326	0.345387
H137	H	-0.908583	-0.069116	0.320837
H138	H	-0.812057	-0.146632	0.319981
C139	C	-0.705461	-0.029744	0.340502
C140	C	-0.788805	-0.013513	0.310348
H141	H	-0.673431	0.012699	0.318887
H142	H	-0.704830	-0.029613	0.403735
H143	H	-0.681582	-0.083334	0.319328
H144	H	-0.812685	0.040071	0.331532
H145	H	-0.789438	-0.013634	0.247118
H146	H	-0.882021	-0.225045	0.555571
H147	H	-0.420779	-0.261683	-0.000023
O148	O	-0.538882	-0.196168	-0.146689
C149	C	-0.627180	-0.197229	-0.145813
H150	H	-0.657382	-0.143311	-0.102545
H151	H	-0.642937	-0.259947	-0.117593
C152	C	-0.624452	-0.252722	-0.294569
C153	C	-0.661548	-0.186494	-0.241432
H154	H	-0.645652	-0.246105	-0.353551
H155	H	-0.564963	-0.252011	-0.295158
H156	H	-0.637586	-0.304981	-0.271042
H157	H	-0.648405	-0.134238	-0.264953
H158	H	-0.721035	-0.187197	-0.240849
