data_functionalizedCrystal
_audit_creation_method	'MofGen! by Chris Wilmer'
_symmetry_space_group_name_H-M	'P1'
_symmetry_Int_Tables_number	1
_symmetry_cell_setting	triclinic
loop_
_symmetry_equiv_pos_as_xyz
  x,y,z
_cell_length_a	16.992701
_cell_length_b	16.974813
_cell_length_c	15.186229
_cell_angle_alpha	86.341696
_cell_angle_beta	89.996535
_cell_angle_gamma	87.023742
loop_
_atom_site_label
_atom_site_type_symbol
_atom_site_fract_x
_atom_site_fract_y
_atom_site_fract_z
O1	O	1.040210	0.167638	-0.085179
O2	O	1.373543	0.500972	0.248154
O3	O	1.706876	0.834305	0.581488
O4	O	0.811926	0.165801	-0.085048
O5	O	1.145260	0.499135	0.248285
O6	O	1.478593	0.832468	0.581618
O7	O	0.932432	0.052019	-0.076936
O8	O	1.265765	0.385352	0.256398
O9	O	1.599099	0.718685	0.589731
O10	O	0.919704	0.281421	-0.093292
O11	O	1.253037	0.614755	0.240042
O12	O	1.586371	0.948088	0.573375
O13	O	0.932424	0.052016	0.069522
O14	O	1.265757	0.385350	0.402855
O15	O	1.599090	0.718683	0.736188
O16	O	0.811918	0.165799	0.061409
O17	O	1.145251	0.499132	0.394742
O18	O	1.478585	0.832466	0.728076
O19	O	1.040202	0.167636	0.061278
O20	O	1.373535	0.500970	0.394612
O21	O	1.706868	0.834303	0.727945
Zn22	Zn	0.926059	0.166717	0.084597
Zn23	Zn	1.259392	0.500051	0.417930
Zn24	Zn	1.592725	0.833384	0.751264
Zn25	Zn	0.926069	0.166720	-0.108367
Zn26	Zn	1.259402	0.500054	0.224966
Zn27	Zn	1.592736	0.833387	0.558300
O28	O	0.919696	0.281419	0.053166
O29	O	1.253029	0.614752	0.386499
O30	O	1.586362	0.948086	0.719832
C31	C	0.782712	0.163434	-0.011651
C32	C	1.116045	0.496768	0.321682
C33	C	1.449379	0.830101	0.655015
C34	C	0.695676	0.156376	-0.011148
C35	C	1.029009	0.489709	0.322185
C36	C	1.362342	0.823042	0.655518
C37	C	0.206767	0.108947	-0.007770
C38	C	0.540100	0.442280	0.325563
C39	C	0.873434	0.775613	0.658897
C40	C	0.288546	0.115585	-0.008238
C41	C	0.621880	0.448919	0.325095
C42	C	0.955213	0.782252	0.658429
C43	C	0.320009	0.190340	-0.013572
C44	C	0.653342	0.523673	0.319762
C45	C	0.986676	0.857007	0.653095
C46	C	0.269688	0.258460	-0.018429
C47	C	0.603021	0.591794	0.314904
C48	C	0.936354	0.925127	0.648238
C49	C	0.187910	0.251821	-0.017955
C50	C	0.521243	0.585154	0.315379
C51	C	0.854577	0.918488	0.648712
C52	C	0.563576	0.217857	-0.015531
C53	C	0.896910	0.551190	0.317802
C54	C	1.230243	0.884523	0.651135
C55	C	0.645361	0.224491	-0.016008
C56	C	0.978694	0.557824	0.317326
C57	C	1.312027	0.891158	0.650659
C58	C	0.664214	0.081615	-0.005815
C59	C	0.997547	0.414949	0.327518
C60	C	1.330880	0.748282	0.660852
C61	C	0.582434	0.074982	-0.005346
C62	C	0.915767	0.408316	0.327987
C63	C	1.249100	0.741649	0.661320
C64	C	0.532119	0.143103	-0.010199
C65	C	0.865453	0.476436	0.323134
C66	C	1.198786	0.809769	0.656468
N67	N	0.403600	0.197127	-0.014053
N68	N	0.736934	0.530461	0.319280
N69	N	1.070267	0.863794	0.652614
N70	N	0.448530	0.136315	-0.009711
N71	N	0.781863	0.469648	0.323622
N72	N	1.115196	0.802981	0.656955
C73	C	0.931944	0.022528	-0.001606
C74	C	1.265277	0.355862	0.331727
C75	C	1.598610	0.689195	0.665060
C76	C	0.930492	-0.065340	0.004653
C77	C	1.263825	0.267993	0.337986
C78	C	1.597158	0.601327	0.671320
C79	C	0.929816	-0.106615	-0.072240
C80	C	1.263149	0.226718	0.261094
C81	C	1.596482	0.560052	0.594427
C82	C	0.928446	-0.189177	-0.066356
C83	C	1.261779	0.144157	0.266978
C84	C	1.595113	0.477490	0.600311
C85	C	0.927758	-0.230462	0.016422
C86	C	1.261092	0.102871	0.349755
C87	C	1.594425	0.436205	0.683089
C88	C	0.928432	-0.189181	0.093320
C89	C	1.261765	0.144152	0.426654
C90	C	1.595099	0.477486	0.759987
C91	C	0.929796	-0.106621	0.087435
C92	C	1.263129	0.226713	0.420769
C93	C	1.596463	0.560046	0.754102
C94	C	0.923674	-0.477381	0.042583
C95	C	1.257007	-0.144048	0.375916
C96	C	1.590340	0.189286	0.709250
C97	C	0.922312	-0.559947	0.048462
C98	C	1.255645	-0.226614	0.381795
C99	C	1.588979	0.106719	0.715129
C100	C	0.922325	-0.559937	-0.111215
C101	C	1.255658	-0.226604	0.222119
C102	C	1.588991	0.106730	0.555452
C103	C	0.923693	-0.477376	-0.117092
C104	C	1.257027	-0.144042	0.216241
C105	C	1.590360	0.189291	0.549574
C106	C	0.924363	-0.436102	-0.040194
C107	C	1.257696	-0.102768	0.293139
C108	C	1.591030	0.230565	0.626473
N109	N	0.926361	-0.314853	0.022438
N110	N	1.259694	0.018480	0.355772
N111	N	1.593028	0.351814	0.689105
N112	N	0.925755	-0.351711	-0.046211
N113	N	1.259088	-0.018378	0.287122
N114	N	1.592421	0.314955	0.620455
C115	C	1.069416	0.170003	-0.012121
C116	C	1.402749	0.503337	0.321213
C117	C	1.736082	0.836670	0.654546
C118	C	1.156452	0.177062	-0.012629
C119	C	1.489785	0.510395	0.320704
C120	C	1.823119	0.843729	0.654037
C121	C	0.920184	0.310909	-0.022166
C122	C	1.253517	0.644242	0.311168
C123	C	1.586851	0.977576	0.644501
C124	C	0.921636	0.398778	-0.028431
C125	C	1.254969	0.732111	0.304903
C126	C	1.588303	1.065444	0.638236
N127	N	0.926057	0.166715	0.216290
N128	N	1.259390	0.500049	0.549623
N129	N	1.592724	0.833382	0.882956
N130	N	0.926077	0.166717	-0.240059
N131	N	1.259410	0.500050	0.093274
N132	N	1.592744	0.833383	0.426607
C133	C	0.979435	0.116351	0.445604
C134	C	1.312768	0.449685	0.778937
C135	C	1.646102	0.783018	1.112270
C136	C	0.979438	0.116350	0.537793
C137	C	1.312771	0.449683	0.871127
C138	C	1.646104	0.783016	1.204460
C139	C	0.872693	0.217082	0.530620
C140	C	1.206026	0.550416	0.863954
C141	C	1.539360	0.883749	1.197287
C142	C	0.872688	0.217080	0.438432
C143	C	1.206021	0.550413	0.771766
C144	C	1.539354	0.883746	1.105099
C145	C	0.926063	0.166715	0.395926
C146	C	1.259396	0.500049	0.729260
C147	C	1.592730	0.833382	1.062593
C148	C	0.926071	0.166716	0.580304
C149	C	1.259404	0.500050	0.913637
C150	C	1.592738	0.833383	1.246971
C151	C	0.926073	0.166715	0.680260
C152	C	1.259407	0.500048	1.013594
C153	C	1.592740	0.833382	1.346927
C154	C	0.926060	0.166715	0.295964
C155	C	1.259393	0.500049	0.629297
C156	C	1.592727	0.833382	0.962631
H157	H	0.329510	0.060118	-0.004277
H158	H	0.662844	0.393452	0.329056
H159	H	0.996177	0.726785	0.662390
H160	H	0.295311	0.319327	-0.022767
H161	H	0.628644	0.652661	0.310567
H162	H	0.961977	0.985994	0.643900
Cl163	Cl	0.805599	0.280398	0.584060
Cl164	Cl	1.138932	0.613731	0.917394
Cl165	Cl	1.472265	0.947065	1.250727
Cl166	Cl	0.921452	-0.611848	0.152533
Cl167	Cl	1.254786	-0.278515	0.485867
Cl168	Cl	1.588119	0.054818	0.819200
Cl169	Cl	0.927558	-0.241082	0.197384
Cl170	Cl	1.260891	0.092251	0.530718
Cl171	Cl	1.594225	0.425585	0.864051
Cl172	Cl	0.805582	0.280395	0.375975
Cl173	Cl	1.138916	0.613728	0.709309
Cl174	Cl	1.472249	0.947062	1.042642
H175	H	0.181157	0.048074	-0.003432
H176	H	0.514490	0.381407	0.329901
H177	H	0.847824	0.714740	0.663235
Cl178	Cl	0.924503	-0.425504	0.139256
Cl179	Cl	1.257836	-0.092170	0.472590
Cl180	Cl	1.591170	0.241163	0.805923
Cl181	Cl	0.542887	-0.018999	0.001328
Cl182	Cl	0.876220	0.314335	0.334661
Cl183	Cl	1.209554	0.647668	0.667994
Cl184	Cl	1.046533	0.053033	0.392172
Cl185	Cl	1.379866	0.386366	0.725505
Cl186	Cl	1.713199	0.719700	1.058838
Cl187	Cl	1.046535	0.053031	0.600243
Cl188	Cl	1.379868	0.386364	0.933576
Cl189	Cl	1.713202	0.719698	1.266909
Cl190	Cl	0.727470	-0.004016	0.000292
Cl191	Cl	1.060803	0.329317	0.333625
Cl192	Cl	1.394136	0.662651	0.666959
H193	H	0.670974	0.285368	-0.020339
H194	H	1.004307	0.618701	0.312995
H195	H	1.337640	0.952035	0.646328
H196	H	0.522620	0.273325	-0.019487
H197	H	0.855953	0.606659	0.313846
H198	H	1.189286	0.939992	0.647180
H199	H	0.146943	0.307288	-0.021909
H200	H	0.480277	0.640621	0.311425
H201	H	0.813610	0.973955	0.644758
H202	H	0.927899	-0.222779	-0.128970
H203	H	1.261232	0.110554	0.204363
H204	H	1.594566	0.443887	0.537697
Cl205	Cl	0.930685	-0.054722	-0.176309
Cl206	Cl	1.264019	0.278611	0.157025
Cl207	Cl	1.597352	0.611945	0.490358
H208	H	0.921778	-0.593551	-0.173821
H209	H	1.255111	-0.260218	0.159512
H210	H	1.588445	0.073115	0.492846
Cl211	Cl	0.924560	-0.425480	-0.221160
Cl212	Cl	1.257893	-0.092147	0.112173
Cl213	Cl	1.591227	0.241187	0.445507
H214	H	0.930335	-0.073015	0.150050
H215	H	1.263669	0.260319	0.483383
H216	H	1.597002	0.593652	0.816716
