data_functionalizedCrystal
_audit_creation_method	'MofGen! by Chris Wilmer'
_symmetry_space_group_name_H-M	'P1'
_symmetry_Int_Tables_number	1
_symmetry_cell_setting	triclinic
loop_
_symmetry_equiv_pos_as_xyz
  x,y,z
_cell_length_a	12.594517
_cell_length_b	12.594509
_cell_length_c	18.215405
_cell_angle_alpha	89.965356
_cell_angle_beta	90.024317
_cell_angle_gamma	89.977786
loop_
_atom_site_label
_atom_site_type_symbol
_atom_site_fract_x
_atom_site_fract_y
_atom_site_fract_z
Zn1	Zn	1.627202	-0.601838	-0.292973
Zn2	Zn	1.960535	-0.268504	0.040360
Zn3	Zn	2.293868	0.064829	0.373693
Zn4	Zn	1.627065	-0.423839	-0.416053
Zn5	Zn	1.960398	-0.090506	-0.082720
Zn6	Zn	2.293732	0.242827	0.250613
Zn7	Zn	1.449206	-0.423864	-0.293004
Zn8	Zn	1.782539	-0.090531	0.040329
Zn9	Zn	2.115872	0.242803	0.373663
Zn10	Zn	1.449160	-0.601767	-0.416001
Zn11	Zn	1.782494	-0.268433	-0.082668
Zn12	Zn	2.115827	0.064900	0.250665
O13	O	1.538158	-0.512827	-0.354508
O14	O	1.871491	-0.179494	-0.021175
O15	O	2.204825	0.153840	0.312159
O16	O	1.776129	-0.578245	-0.309309
O17	O	2.109463	-0.244912	0.024024
O18	O	2.442796	0.088421	0.357358
O19	O	1.603433	-0.274897	-0.399765
O20	O	1.936767	0.058437	-0.066432
O21	O	2.270100	0.391770	0.266902
O22	O	1.472893	-0.447513	-0.190016
O23	O	1.806227	-0.114179	0.143318
O24	O	2.139560	0.219154	0.476651
O25	O	1.776029	-0.447471	-0.399735
O26	O	2.109362	-0.114137	-0.066402
O27	O	2.442696	0.219196	0.266931
O28	O	1.603666	-0.578269	-0.189993
O29	O	1.937000	-0.244936	0.143340
O30	O	2.270333	0.088397	0.476674
O31	O	1.472761	-0.274915	-0.309361
O32	O	1.806094	0.058419	0.023972
O33	O	2.139427	0.391752	0.357305
O34	O	1.300254	-0.447444	-0.309311
O35	O	1.633587	-0.114110	0.024022
O36	O	1.966920	0.219223	0.357356
O37	O	1.472816	-0.750722	-0.399647
O38	O	1.806149	-0.417389	-0.066314
O39	O	2.139483	-0.084055	0.267020
O40	O	1.300221	-0.578148	-0.399677
O41	O	1.633554	-0.244815	-0.066343
O42	O	1.966887	0.088519	0.266990
O43	O	1.603622	-0.750774	-0.309259
O44	O	1.936956	-0.417441	0.024075
O45	O	2.270289	-0.084108	0.357408
O46	O	1.603389	-0.447402	-0.519031
O47	O	1.936723	-0.114068	-0.185697
O48	O	2.270056	0.219265	0.147636
O49	O	1.472684	-0.578124	-0.518993
O50	O	1.806017	-0.244791	-0.185659
O51	O	2.139350	0.088543	0.147674
C52	C	1.261617	-0.512791	-0.354492
C53	C	1.594950	-0.179458	-0.021159
C54	C	1.928284	0.153875	0.312175
C55	C	1.143312	-0.512801	-0.354503
C56	C	1.476645	-0.179468	-0.021170
C57	C	1.809978	0.153865	0.312164
C58	C	1.538229	-0.790448	-0.354444
C59	C	1.871563	-0.457115	-0.021110
C60	C	2.204896	-0.123781	0.312223
C61	C	1.538260	-0.908753	-0.354416
C62	C	1.871593	-0.575420	-0.021083
C63	C	2.204926	-0.242087	0.312251
C64	C	1.003282	-0.441874	-0.305299
C65	C	1.336616	-0.108540	0.028034
C66	C	1.669949	0.224793	0.361368
C67	C	1.074145	-0.539003	-0.287368
C68	C	1.407478	-0.205669	0.045965
C69	C	1.740812	0.127664	0.379298
C70	C	1.074021	-0.415683	-0.372401
C71	C	1.407354	-0.082349	-0.039067
C72	C	1.740687	0.250984	0.294266
C73	C	1.003389	-0.610060	-0.336566
C74	C	1.336722	-0.276726	-0.003233
C75	C	1.670055	0.056607	0.330100
C76	C	1.003258	-0.486674	-0.421630
C77	C	1.336592	-0.153341	-0.088297
C78	C	1.669925	0.179992	0.245037
C79	C	1.074089	-0.583870	-0.403725
C80	C	1.407422	-0.250537	-0.070391
C81	C	1.740756	0.082797	0.262942
C82	C	1.467137	-0.977978	-0.403550
C83	C	1.800470	-0.644645	-0.070217
C84	C	2.133803	-0.311312	0.263116
C85	C	1.564253	-1.048767	-0.421532
C86	C	1.897587	-0.715434	-0.088199
C87	C	2.230920	-0.382101	0.245135
C88	C	1.441219	-1.048764	-0.336390
C89	C	1.774552	-0.715430	-0.003056
C90	C	2.107886	-0.382097	0.330277
C91	C	1.635427	-0.977984	-0.372433
C92	C	1.968760	-0.644651	-0.039100
C93	C	2.302094	-0.311318	0.294233
C94	C	1.512327	-0.977974	-0.287260
C95	C	1.845661	-0.644641	0.046074
C96	C	2.178994	-0.311308	0.379407
C97	C	1.609511	-1.048731	-0.305216
C98	C	1.942844	-0.715398	0.028117
C99	C	2.276178	-0.382065	0.361451
C100	C	1.815779	-0.512863	-0.354525
C101	C	2.149112	-0.179530	-0.021191
C102	C	2.482446	0.153803	0.312142
C103	C	1.934084	-0.512879	-0.354532
C104	C	2.267418	-0.179545	-0.021198
C105	C	2.600751	0.153788	0.312135
C106	C	1.538046	-0.512776	-0.545714
C107	C	1.871379	-0.179442	-0.212381
C108	C	2.204712	0.153891	0.120952
C109	C	1.538095	-0.512789	-0.627513
C110	C	1.871428	-0.179456	-0.294180
C111	C	2.204762	0.153877	0.039154
C112	C	1.538148	-0.236286	-0.354519
C113	C	1.871482	0.097047	-0.021186
C114	C	2.204815	0.430381	0.312148
C115	C	1.538324	-0.117981	-0.354339
C116	C	1.871658	0.215352	-0.021006
C117	C	2.204991	0.548686	0.312327
C118	C	1.606313	-0.444847	-0.815702
C119	C	1.939647	-0.111514	-0.482369
C120	C	2.272980	0.221819	-0.149036
C121	C	1.606361	-0.444873	-0.892561
C122	C	1.939694	-0.111540	-0.559228
C123	C	2.273028	0.221793	-0.225895
C124	C	1.470139	-0.580883	-0.892561
C125	C	1.803472	-0.247549	-0.559228
C126	C	2.136806	0.085784	-0.225895
C127	C	1.470098	-0.580862	-0.815704
C128	C	1.803431	-0.247528	-0.482371
C129	C	2.136764	0.085805	-0.149037
C130	C	1.538183	-0.512838	-0.777277
C131	C	1.871517	-0.179505	-0.443943
C132	C	2.204850	0.153829	-0.110610
C133	C	1.538272	-0.512885	-0.930993
C134	C	1.871606	-0.179552	-0.597659
C135	C	2.204939	0.153782	-0.264326
C136	C	1.538323	-0.512913	-1.014326
C137	C	1.871657	-0.179580	-0.680993
C138	C	2.204990	0.153753	-0.347660
C139	C	1.538134	-0.512811	-0.693938
C140	C	1.871467	-0.179477	-0.360604
C141	C	2.204800	0.153856	-0.027271
C142	C	1.538300	-0.512902	-0.162555
C143	C	1.871633	-0.179568	0.170778
C144	C	2.204967	0.153765	0.504112
C145	C	1.538360	-0.512933	-0.080756
C146	C	1.871694	-0.179600	0.252577
C147	C	2.205027	0.153733	0.585911
H148	H	0.972196	-0.381934	-0.263645
H149	H	1.305529	-0.048601	0.069688
H150	H	1.638862	0.284733	0.403021
Cl151	Cl	1.122208	-0.573192	-0.199741
Cl152	Cl	1.455541	-0.239858	0.133592
Cl153	Cl	1.788874	0.093475	0.466925
Cl154	Cl	1.692017	-0.359398	-0.940865
Cl155	Cl	2.025351	-0.026065	-0.607531
Cl156	Cl	2.358684	0.307268	-0.274198
H157	H	1.586222	-1.079863	-0.478292
H158	H	1.919555	-0.746530	-0.144959
H159	H	2.252889	-0.413197	0.188375
Cl160	Cl	1.384547	-0.666390	-0.940875
Cl161	Cl	1.717881	-0.333057	-0.607542
Cl162	Cl	2.051214	0.000277	-0.274209
Cl163	Cl	1.384447	-0.666348	-0.767394
Cl164	Cl	1.717780	-0.333015	-0.434060
Cl165	Cl	2.051113	0.000318	-0.100727
H166	H	0.972491	-0.692248	-0.321374
H167	H	1.305824	-0.358915	0.011959
H168	H	1.639158	-0.025581	0.345292
Cl169	Cl	0.955142	-0.452449	-0.509231
Cl170	Cl	1.288476	-0.119116	-0.175898
Cl171	Cl	1.621809	0.214218	0.157436
Cl172	Cl	1.121788	-0.676628	-0.467988
Cl173	Cl	1.455121	-0.343295	-0.134655
Cl174	Cl	1.788455	-0.009961	0.198678
H175	H	1.490330	-0.946855	-0.230516
H176	H	1.823663	-0.613521	0.102817
H177	H	2.156997	-0.280188	0.436151
Cl178	Cl	1.121928	-0.288828	-0.395755
Cl179	Cl	1.455262	0.044505	-0.062421
Cl180	Cl	1.788595	0.377838	0.270912
H181	H	1.669755	-1.079601	-0.263632
H182	H	2.003088	-0.746268	0.069701
H183	H	2.336421	-0.412935	0.403035
H184	H	1.407037	-0.946913	-0.445166
H185	H	1.740370	-0.613580	-0.111833
H186	H	2.073704	-0.280246	0.221501
H187	H	1.717544	-0.947024	-0.387712
H188	H	2.050877	-0.613691	-0.054379
H189	H	2.384211	-0.280357	0.278954
H190	H	1.359126	-1.079855	-0.321175
H191	H	1.692459	-0.746522	0.012158
H192	H	2.025793	-0.413188	0.345492
H193	H	1.661754	-0.389460	-0.784417
H194	H	1.995088	-0.056127	-0.451083
H195	H	2.328421	0.277207	-0.117750
