data_functionalizedCrystal
_audit_creation_method	'MofGen! by Chris Wilmer'
_symmetry_space_group_name_H-M	'P1'
_symmetry_Int_Tables_number	1
_symmetry_cell_setting	triclinic
loop_
_symmetry_equiv_pos_as_xyz
  x,y,z
_cell_length_a	13.032721
_cell_length_b	11.169417
_cell_length_c	11.169409
_cell_angle_alpha	89.980176
_cell_angle_beta	97.146003
_cell_angle_gamma	97.204996
loop_
_atom_site_label
_atom_site_type_symbol
_atom_site_fract_x
_atom_site_fract_y
_atom_site_fract_z
Zn1	Zn	-0.415926	1.774209	-0.739163
Zn2	Zn	-0.082592	2.107543	-0.405830
Zn3	Zn	0.250741	2.440876	-0.072497
Zn4	Zn	-0.590714	1.748568	-0.563955
Zn5	Zn	-0.257380	2.081901	-0.230622
Zn6	Zn	0.075953	2.415234	0.102711
Zn7	Zn	-0.415989	1.573486	-0.538507
Zn8	Zn	-0.082656	1.906819	-0.205174
Zn9	Zn	0.250677	2.240152	0.128160
Zn10	Zn	-0.590629	1.547984	-0.764588
Zn11	Zn	-0.257295	1.881318	-0.431254
Zn12	Zn	0.076038	2.214651	-0.097921
O13	O	-0.503314	1.661062	-0.651553
O14	O	-0.169981	1.994395	-0.318220
O15	O	0.163352	2.327728	0.015113
O16	O	-0.439121	1.938756	-0.715931
O17	O	-0.105787	2.272090	-0.382598
O18	O	0.227546	2.605423	-0.049265
O19	O	-0.567598	1.725284	-0.392639
O20	O	-0.234265	2.058618	-0.059305
O21	O	0.099068	2.391951	0.274028
O22	O	-0.269744	1.621516	-0.543834
O23	O	0.063589	1.954849	-0.210501
O24	O	0.396922	2.288182	0.122833
O25	O	-0.567537	1.919918	-0.587207
O26	O	-0.234203	2.253251	-0.253874
O27	O	0.099130	2.586584	0.079460
O28	O	-0.269697	1.768986	-0.691255
O29	O	0.063636	2.102320	-0.357922
O30	O	0.396969	2.435653	-0.024589
O31	O	-0.439229	1.596652	-0.373942
O32	O	-0.105896	1.929986	-0.040609
O33	O	0.227438	2.263319	0.292725
O34	O	-0.439147	1.402155	-0.568487
O35	O	-0.105813	1.735488	-0.235154
O36	O	0.227520	2.068821	0.098180
O37	O	-0.567392	1.578052	-0.929156
O38	O	-0.234058	1.911385	-0.595822
O39	O	0.099275	2.244719	-0.262489
O40	O	-0.567453	1.383419	-0.734588
O41	O	-0.234120	1.716752	-0.401254
O42	O	0.099213	2.050085	-0.067921
O43	O	-0.439038	1.744259	-0.910477
O44	O	-0.105705	2.077592	-0.577143
O45	O	0.227629	2.410925	-0.243810
O46	O	-0.736939	1.700556	-0.611860
O47	O	-0.403606	2.033890	-0.278527
O48	O	-0.070272	2.367223	0.054807
O49	O	-0.736877	1.553189	-0.759264
O50	O	-0.403543	1.886522	-0.425930
O51	O	-0.070210	2.219855	-0.092597
C52	C	-0.503298	1.349239	-0.651535
C53	C	-0.169965	1.682573	-0.318202
C54	C	0.163368	2.015906	0.015131
C55	C	-0.503317	1.215837	-0.651560
C56	C	-0.169984	1.549170	-0.318227
C57	C	0.163350	1.882503	0.015107
C58	C	-0.774825	1.621355	-0.691108
C59	C	-0.441492	1.954689	-0.357775
C60	C	-0.108159	2.288022	-0.024442
C61	C	-0.890979	1.604479	-0.708070
C62	C	-0.557646	1.937812	-0.374737
C63	C	-0.224312	2.271145	-0.041404
C64	C	-0.942760	1.669934	-0.642755
C65	C	-0.609427	2.003267	-0.309421
C66	C	-0.276093	2.336600	0.023912
C67	C	-1.062811	1.652492	-0.660284
C68	C	-0.729478	1.985826	-0.326951
C69	C	-0.396144	2.319159	0.006383
C70	C	-0.230743	1.700956	-0.611870
C71	C	0.102590	2.034289	-0.278537
C72	C	0.435924	2.367623	0.054797
C73	C	-0.114589	1.717956	-0.594959
C74	C	0.218744	2.051290	-0.261626
C75	C	0.552077	2.384623	0.071707
C76	C	-0.503198	1.661171	-0.964579
C77	C	-0.169865	1.994504	-0.631246
C78	C	0.163468	2.327838	-0.297912
C79	C	-0.503149	1.661217	-1.097972
C80	C	-0.169815	1.994551	-0.764638
C81	C	0.163518	2.327884	-0.431305
C82	C	-0.503331	1.974102	-0.651572
C83	C	-0.169998	2.307435	-0.318239
C84	C	0.163336	2.640768	0.015095
C85	C	-0.503338	2.107501	-0.651580
C86	C	-0.170005	2.440834	-0.318246
C87	C	0.163329	2.774167	0.015087
C88	C	-0.503355	1.661033	-0.339734
C89	C	-0.170021	1.994366	-0.006401
C90	C	0.163312	2.327700	0.326932
C91	C	-0.503110	1.661262	-0.206299
C92	C	-0.169776	1.994595	0.127034
C93	C	0.163557	2.327929	0.460367
H94	H	-0.898217	1.738890	-0.573862
H95	H	-0.564884	2.072223	-0.240528
H96	H	-0.231551	2.405556	0.092805
C97	C	-1.096524	1.589063	-0.868354
C98	C	-0.763190	1.922396	-0.535021
C99	C	-0.429857	2.255729	-0.201688
C100	C	-1.122931	1.559406	-0.753304
C101	C	-0.789598	1.892739	-0.419970
C102	C	-0.456265	2.226072	-0.086637
H103	H	-1.133646	1.531599	-0.925779
H104	H	-0.800313	1.864933	-0.592445
H105	H	-0.466980	2.198266	-0.259112
H106	H	-1.023744	1.588563	-0.868769
H107	H	-0.690411	1.921896	-0.535436
H108	H	-0.357077	2.255229	-0.202102
H109	H	-1.114289	1.667134	-0.888548
H110	H	-0.780956	2.000467	-0.555215
H111	H	-0.447623	2.333800	-0.221881
H112	H	-1.105159	1.481338	-0.733106
H113	H	-0.771825	1.814671	-0.399773
H114	H	-0.438492	2.148004	-0.066440
H115	H	-1.195727	1.559893	-0.752886
H116	H	-0.862394	1.893227	-0.419553
H117	H	-0.529061	2.226560	-0.086220
H118	H	-1.070049	1.786917	-0.526062
H119	H	-0.736716	2.120250	-0.192729
H120	H	-0.403383	2.453584	0.140605
H121	H	-0.935524	1.535533	-0.776972
H122	H	-0.602191	1.868866	-0.443638
H123	H	-0.268857	2.202199	-0.110305
