data_functionalizedCrystal
_audit_creation_method	'MofGen! by Chris Wilmer'
_symmetry_space_group_name_H-M	'P1'
_symmetry_Int_Tables_number	1
_symmetry_cell_setting	triclinic
loop_
_symmetry_equiv_pos_as_xyz
  x,y,z
_cell_length_a	12.759401
_cell_length_b	12.759400
_cell_length_c	19.805399
_cell_angle_alpha	90.020600
_cell_angle_beta	90.016038
_cell_angle_gamma	90.014267
loop_
_atom_site_label
_atom_site_type_symbol
_atom_site_fract_x
_atom_site_fract_y
_atom_site_fract_z
Zn1	Zn	1.606227	-0.418291	0.382689
Zn2	Zn	1.606132	-0.593984	0.269514
Zn3	Zn	1.430538	-0.418320	0.269520
Zn4	Zn	1.430519	-0.593929	0.382668
O5	O	1.518354	-0.506131	0.326098
O6	O	1.753235	-0.441609	0.367682
O7	O	1.582807	-0.570718	0.174798
O8	O	1.453891	-0.271295	0.284543
O9	O	1.753165	-0.570690	0.284533
O10	O	1.582969	-0.271274	0.367688
O11	O	1.453799	-0.441658	0.174803
O12	O	1.283514	-0.441604	0.284523
O13	O	1.453858	-0.570594	0.477387
O14	O	1.283500	-0.570622	0.367652
O15	O	1.582950	-0.441554	0.477403
O16	O	1.582788	-0.740998	0.284513
O17	O	1.453766	-0.740957	0.367647
C18	C	1.245386	-0.506111	0.326087
C19	C	1.128610	-0.506128	0.326098
C20	C	0.964054	-0.439050	0.369466
C21	C	1.073778	-0.439035	0.369460
C22	C	1.073711	-0.573246	0.282744
C23	C	0.963989	-0.573265	0.282754
C24	C	0.909229	-0.371946	0.412826
C25	C	0.964119	-0.304828	0.456182
C26	C	1.073843	-0.304814	0.456176
C27	C	1.128677	-0.371917	0.412814
C28	C	1.518293	-0.779098	0.326092
C29	C	1.518364	-0.895875	0.326112
C30	C	1.451167	-0.950754	0.369365
C31	C	1.451223	-1.060478	0.369372
C32	C	1.585680	-1.060435	0.282869
C33	C	1.585619	-0.950713	0.282860
C34	C	1.383912	-0.895916	0.412617
C35	C	1.316712	-0.950795	0.455875
C36	C	1.316767	-1.060519	0.455881
C37	C	1.384024	-1.115364	0.412630
C38	C	1.792387	-0.506152	0.326109
C39	C	1.909164	-0.506161	0.326114
C40	C	1.518413	-0.506065	0.502641
C41	C	1.518438	-0.506037	0.577873
C42	C	1.518443	-0.232098	0.326119
C43	C	1.518481	-0.115321	0.326127
C44	C	1.518356	-0.506121	0.150242
C45	C	1.518534	-0.505853	0.075010
C46	C	1.585657	-0.438842	0.613226
C47	C	1.585668	-0.438812	0.683914
C48	C	1.518464	-0.505982	0.719248
C49	C	1.451237	-0.573179	0.683890
C50	C	1.451221	-0.573204	0.613203
C51	C	1.451296	-0.573081	0.968964
C52	C	1.451319	-0.573054	1.039656
C53	C	1.585743	-0.438689	1.039675
C54	C	1.585728	-0.438714	0.968988
C55	C	1.518497	-0.505907	0.933636
C56	C	1.518485	-0.505938	0.856987
C57	C	1.518481	-0.505957	0.795895
H58	H	1.118533	-0.250170	0.491482
H59	H	1.384061	-1.204709	0.412637
Cl60	Cl	1.232283	-1.129507	0.510257
H61	H	1.640439	-1.105098	0.247657
H62	H	1.118365	-0.627878	0.247441
H63	H	0.919467	-0.250201	0.491488
H64	H	1.218022	-0.371892	0.412808
Cl65	Cl	1.670259	-0.354212	1.084122
Cl66	Cl	1.670085	-0.881717	0.228477
H67	H	1.640387	-0.384148	0.584462
H68	H	1.640408	-0.384098	0.712696
H69	H	0.919296	-0.627915	0.247454
H70	H	1.640456	-0.384020	0.940222
H71	H	1.396588	-0.627754	1.068423
H72	H	1.396568	-0.627809	0.940188
H73	H	1.396514	-0.627867	0.712665
H74	H	0.819886	-0.371945	0.412833
Cl75	Cl	1.366710	-0.657677	0.568759
H76	H	1.383862	-0.806574	0.412618
Cl77	Cl	1.232158	-0.881849	0.510239
