data_functionalizedCrystal
_audit_creation_method	'MofGen! by Chris Wilmer'
_symmetry_space_group_name_H-M	'P1'
_symmetry_Int_Tables_number	1
_symmetry_cell_setting	triclinic
loop_
_symmetry_equiv_pos_as_xyz
  x,y,z
_cell_length_a	13.635800
_cell_length_b	19.551136
_cell_length_c	19.551833
_cell_angle_alpha	83.647517
_cell_angle_beta	101.663477
_cell_angle_gamma	78.349158
loop_
_atom_site_label
_atom_site_type_symbol
_atom_site_fract_x
_atom_site_fract_y
_atom_site_fract_z
V1	V	1.998606	-0.097410	0.218205
O2	O	1.997306	0.003927	0.213697
O3	O	1.969982	-0.192423	0.217053
O4	O	1.970008	-0.096243	0.313216
O5	O	1.997280	-0.092919	0.116868
V6	V	2.241563	-0.085250	0.206043
O7	O	2.126612	-0.124085	0.244883
O8	O	2.338656	-0.058576	0.179364
O9	O	2.158584	0.009763	0.207194
O10	O	2.301562	-0.186588	0.210550
O11	O	2.301588	-0.089741	0.307379
O12	O	2.158558	-0.086418	0.111031
V13	V	2.498606	-0.097410	0.218205
O14	O	2.497306	0.003927	0.213697
O15	O	2.469982	-0.192423	0.217053
O16	O	2.470008	-0.096243	0.313216
O17	O	2.497280	-0.092919	0.116868
V18	V	2.741563	-0.085250	0.206043
O19	O	2.626612	-0.124085	0.244883
O20	O	2.838656	-0.058576	0.179364
O21	O	2.658584	0.009763	0.207194
O22	O	2.801562	-0.186588	0.210550
O23	O	2.801588	-0.089741	0.307379
O24	O	2.658558	-0.086418	0.111031
C25	C	1.891548	-0.215575	0.213698
C26	C	1.908759	-0.293252	0.213390
C27	C	1.900200	-0.319526	0.149212
C28	C	1.916407	-0.392509	0.148901
C29	C	1.941154	-0.439215	0.212770
C30	C	1.949719	-0.412933	0.276957
C31	C	1.933522	-0.339952	0.277266
C32	C	1.921266	-0.560382	0.259081
C33	C	1.937457	-0.633362	0.258768
C34	C	1.991119	-0.664316	0.211818
C35	C	2.028573	-0.622279	0.165168
C36	C	2.012375	-0.549298	0.165478
C37	C	1.958721	-0.518353	0.212442
C38	C	2.000134	-0.769727	0.147298
C39	C	2.016349	-0.842712	0.146990
C40	C	2.049652	-0.863135	0.275047
C41	C	2.033447	-0.790151	0.275354
C42	C	2.008684	-0.743451	0.211477
C43	C	1.891581	-0.092886	0.336363
C44	C	1.908811	-0.092560	0.414037
C45	C	2.068689	0.032911	0.210547
C46	C	2.041097	0.110587	0.210860
C47	C	2.068656	-0.089776	0.087881
C48	C	2.041046	-0.090099	0.010205
C49	C	2.391548	-0.215575	0.213698
C50	C	2.408759	-0.293252	0.213390
C51	C	2.391581	-0.092886	0.336363
C52	C	2.408811	-0.092560	0.414037
C53	C	2.007629	-0.095915	0.454097
C54	C	2.023819	-0.095608	0.527080
C55	C	1.941188	-0.091962	0.560004
C56	C	1.842355	-0.088603	0.519934
C57	C	1.826166	-0.088902	0.446951
C58	C	1.908018	-0.129955	0.679451
C59	C	1.924211	-0.129661	0.752433
C60	C	1.991115	-0.091036	0.785107
C61	C	2.041843	-0.052715	0.744791
C62	C	2.025654	-0.053015	0.671808
C63	C	1.958732	-0.091637	0.639141
C64	C	2.107494	-0.094057	0.904303
C65	C	2.123679	-0.093747	0.977287
C66	C	1.942214	-0.086748	0.970141
C67	C	1.926030	-0.087052	0.897158
C68	C	2.008674	-0.090710	0.864244
C69	C	2.568689	0.032911	0.210547
C70	C	2.541097	0.110587	0.210860
C71	C	2.568656	-0.089776	0.087881
C72	C	2.541046	-0.090099	0.010205
C73	C	2.507576	-0.333304	0.216749
C74	C	2.523764	-0.406291	0.216470
C75	C	2.441132	-0.439224	0.212827
C76	C	2.342307	-0.399167	0.209470
C77	C	2.326122	-0.326182	0.209754
C78	C	2.507635	-0.095903	0.454088
C79	C	2.523837	-0.095588	0.527071
C80	C	2.441213	-0.091934	0.560002
C81	C	2.342380	-0.088589	0.519945
C82	C	2.326179	-0.088900	0.446963
C83	C	2.614773	0.150639	0.207503
C84	C	2.588857	0.223626	0.207785
C85	C	2.489266	0.256558	0.211430
C86	C	2.415584	0.216501	0.214785
C87	C	2.441499	0.143517	0.214498
C88	C	2.441439	-0.093744	-0.022708
C89	C	2.415478	-0.094039	-0.095692
C90	C	2.489129	-0.090693	-0.135762
C91	C	2.588744	-0.087045	-0.102845
C92	C	2.614700	-0.086746	-0.029862
H93	H	1.880044	-0.281507	0.097199
H94	H	2.334496	0.243327	0.217752
Cl95	Cl	1.905642	-0.425549	0.068214
Cl96	Cl	2.461496	-0.530979	0.212468
Cl97	Cl	2.201934	-0.084707	0.396624
H98	H	2.604238	-0.438896	0.219202
Cl99	Cl	2.201882	-0.275837	0.205524
H100	H	2.574924	-0.098880	0.427286
Cl101	Cl	2.290248	-0.098631	-0.137058
H102	H	2.454419	-0.091683	0.619429
H103	H	2.275113	-0.085615	0.546769
H104	H	2.275033	-0.425992	0.206504
H105	H	2.468178	0.315988	0.211663
H106	H	2.695871	0.123835	0.204536
H107	H	2.042874	-0.515074	0.127495
Cl108	Cl	2.348863	0.093174	0.218721
H109	H	2.574870	-0.306499	0.219711
Cl110	Cl	2.681501	0.273968	0.203569
Cl111	Cl	2.348830	-0.097949	0.027650
Cl112	Cl	2.648091	-0.099799	0.577413
H113	H	2.467983	-0.090946	-0.195187
H114	H	2.648702	-0.084319	-0.135481
Cl115	Cl	1.890341	-0.686197	0.317396
H116	H	2.072260	-0.647479	0.126932
Cl117	Cl	1.969011	-0.711016	0.066999
Cl118	Cl	2.005601	-0.875743	0.066302
H119	H	2.695813	-0.083781	-0.003069
H120	H	2.040410	-0.768759	0.327614
Cl121	Cl	2.080772	-0.921844	0.355341
H122	H	1.877568	-0.535186	0.297316
Cl123	Cl	2.111525	-0.100509	0.412722
H124	H	1.969871	-0.450966	0.328959
H125	H	1.882910	-0.160868	0.785254
H126	H	1.940496	-0.318561	0.329529
H127	H	2.104292	-0.098344	0.559703
H128	H	2.066957	-0.021812	0.638986
H129	H	2.174787	-0.097033	0.877503
Cl130	Cl	2.125959	-0.004159	0.785859
H131	H	2.204149	-0.096473	1.009902
H132	H	1.874932	-0.083773	0.996946
H133	H	1.845564	-0.084328	0.864542
H134	H	1.853526	-0.161404	0.652853
H135	H	1.775077	-0.085632	0.546745
Cl136	Cl	1.701928	-0.084689	0.396589
