data_functionalizedCrystal
_audit_creation_method	'MofGen! by Chris Wilmer'
_symmetry_space_group_name_H-M	'P1'
_symmetry_Int_Tables_number	1
_symmetry_cell_setting	triclinic
loop_
_symmetry_equiv_pos_as_xyz
  x,y,z
_cell_length_a	16.959455
_cell_length_b	16.959453
_cell_length_c	16.959434
_cell_angle_alpha	89.910094
_cell_angle_beta	89.934817
_cell_angle_gamma	90.017008
loop_
_atom_site_label
_atom_site_type_symbol
_atom_site_fract_x
_atom_site_fract_y
_atom_site_fract_z
Zn1	Zn	1.208734	-0.314270	-0.447033
Zn2	Zn	1.208553	-0.446598	-0.314853
Zn3	Zn	1.076459	-0.314430	-0.314857
Zn4	Zn	1.076527	-0.446403	-0.446978
O5	O	1.142568	-0.380425	-0.380930
O6	O	1.319321	-0.331837	-0.429521
O7	O	1.190927	-0.429214	-0.204242
O8	O	1.094053	-0.203798	-0.332415
O9	O	1.319188	-0.429058	-0.332408
O10	O	1.191235	-0.203680	-0.429525
O11	O	1.093877	-0.332111	-0.204245
O12	O	0.965857	-0.331923	-0.332361
O13	O	1.094169	-0.428727	-0.557596
O14	O	0.965907	-0.428882	-0.429430
O15	O	1.191301	-0.331649	-0.557637
O16	O	1.190993	-0.557183	-0.332354
O17	O	1.093994	-0.557040	-0.429426
C18	C	0.937202	-0.380399	-0.380890
C19	C	0.849346	-0.380407	-0.380892
C20	C	1.142503	-0.585792	-0.380901
C21	C	1.142547	-0.673648	-0.380915
C22	C	0.477790	-0.430998	-0.330338
C23	C	0.477950	-0.329918	-0.431619
C24	C	0.560496	-0.329905	-0.431599
C25	C	0.601693	-0.380440	-0.380949
C26	C	0.560344	-0.430988	-0.330319
C27	C	0.601851	-0.279363	-0.482235
C28	C	0.684402	-0.279349	-0.482218
C29	C	0.725600	-0.329881	-0.431564
C30	C	0.684246	-0.380430	-0.380930
C31	C	0.725443	-0.430965	-0.330280
C32	C	0.684091	-0.481512	-0.279642
C33	C	0.601542	-0.481520	-0.279664
C34	C	0.808149	-0.329872	-0.431542
C35	C	0.807997	-0.430956	-0.330261
C36	C	1.193236	-1.045003	-0.431591
C37	C	1.092122	-1.045244	-0.330387
C38	C	1.092093	-0.962698	-0.330369
C39	C	1.142635	-0.921301	-0.380963
C40	C	1.193206	-0.962450	-0.431576
C41	C	1.041516	-0.921542	-0.279763
C42	C	1.041484	-0.838992	-0.279743
C43	C	1.092031	-0.797593	-0.330334
C44	C	1.142605	-0.838747	-0.380948
C45	C	1.193148	-0.797351	-0.431543
C46	C	1.243726	-0.838503	-0.482153
C47	C	1.243753	-0.921052	-0.482167
C48	C	1.092004	-0.715045	-0.330321
C49	C	1.193118	-0.714797	-0.431528
C50	C	1.348737	-0.380452	-0.380971
C51	C	1.436593	-0.380463	-0.380988
C52	C	1.142763	-0.380148	-0.587099
C53	C	1.142845	-0.380030	-0.674956
C54	C	1.142656	-0.174257	-0.380976
C55	C	1.142694	-0.086400	-0.380996
C56	C	1.142420	-0.380644	-0.175563
C57	C	1.142491	-0.380540	-0.087707
C58	C	1.092319	-0.431396	-0.046190
C59	C	1.192733	-0.329583	-0.046671
C60	C	1.192804	-0.329479	0.035875
C61	C	1.142633	-0.380335	0.077392
C62	C	1.092390	-0.431295	0.036364
C63	C	1.243052	-0.278525	0.076909
C64	C	1.243125	-0.278420	0.159460
C65	C	1.192949	-0.329273	0.200979
C66	C	1.142704	-0.380234	0.159945
C67	C	1.092532	-0.431091	0.201463
C68	C	1.042282	-0.482049	0.160431
C69	C	1.042214	-0.482148	0.077883
C70	C	1.193017	-0.329174	0.283527
C71	C	1.092603	-0.430990	0.284016
H72	H	0.841533	-0.472106	-0.289013
C73	C	0.729418	-0.537098	-0.223928
N74	N	0.763562	-0.578962	-0.181964
H75	H	1.001306	-0.523638	0.044467
H76	H	1.233585	-0.288182	-0.080479
C77	C	1.037407	-0.486936	0.329678
N78	N	0.995834	-0.529074	0.364071
H79	H	1.001436	-0.523459	0.194245
C80	C	1.298392	-0.222357	0.204587
N81	N	1.340016	-0.180127	0.238578
H82	H	1.000365	-0.955254	-0.238574
C83	C	0.432631	-0.274320	-0.487318
N84	N	0.398493	-0.232435	-0.529267
H85	H	0.567866	-0.522672	-0.238437
H86	H	1.233932	-0.287686	0.316931
H87	H	1.283903	-0.237126	0.043100
H88	H	1.284875	-0.804789	-0.523351
C89	C	1.036373	-0.669781	-0.274652
N90	N	0.994470	-0.635689	-0.232716
H91	H	0.841814	-0.288720	-0.472772
C92	C	1.248870	-1.090271	-0.487260
N93	N	1.290773	-1.124368	-0.529191
C94	C	1.037041	-0.487442	-0.091325
N95	N	0.995404	-0.529654	-0.125321
H96	H	1.284931	-0.954566	-0.523371
C97	C	0.432302	-0.486596	-0.274639
N98	N	0.398040	-0.528474	-0.232686
H99	H	0.568302	-0.238225	-0.523476
C100	C	0.729882	-0.223739	-0.537913
N101	N	0.764138	-0.181850	-0.579859
H102	H	1.234279	-0.681097	-0.472725
H103	H	1.050969	-1.078954	-0.289199
C104	C	0.985840	-0.793731	-0.224078
N105	N	0.943927	-0.759640	-0.182152
