data_functionalizedCrystal
_audit_creation_method	'MofGen! by Chris Wilmer'
_symmetry_space_group_name_H-M	'P1'
_symmetry_Int_Tables_number	1
_symmetry_cell_setting	triclinic
loop_
_symmetry_equiv_pos_as_xyz
  x,y,z
_cell_length_a	19.288864
_cell_length_b	15.944551
_cell_length_c	17.766277
_cell_angle_alpha	89.992686
_cell_angle_beta	89.976791
_cell_angle_gamma	83.317492
loop_
_atom_site_label
_atom_site_type_symbol
_atom_site_fract_x
_atom_site_fract_y
_atom_site_fract_z
O1	O	0.921629	0.104784	-0.062837
O2	O	1.254962	0.438117	0.270496
O3	O	1.588296	0.771450	0.603829
O4	O	0.719406	0.118919	-0.062786
O5	O	1.052739	0.452252	0.270547
O6	O	1.386072	0.785585	0.603881
O7	O	0.826040	-0.010445	-0.062806
O8	O	1.159373	0.322888	0.270527
O9	O	1.492706	0.656222	0.603860
O10	O	0.814995	0.234147	-0.062817
O11	O	1.148328	0.567481	0.270516
O12	O	1.481662	0.900814	0.603850
O13	O	0.826021	-0.010451	0.062382
O14	O	1.159354	0.322882	0.395716
O15	O	1.492688	0.656215	0.729049
O16	O	0.719387	0.118912	0.062403
O17	O	1.052720	0.452246	0.395736
O18	O	1.386054	0.785579	0.729069
O19	O	0.921610	0.104777	0.062351
O20	O	1.254944	0.438110	0.395685
O21	O	1.588277	0.771444	0.729018
Cu22	Cu	0.820497	0.111844	0.073808
Cu23	Cu	1.153830	0.445177	0.407141
Cu24	Cu	1.487164	0.778511	0.740474
Cu25	Cu	0.820519	0.111852	-0.074242
Cu26	Cu	1.153852	0.445185	0.259091
Cu27	Cu	1.487186	0.778518	0.592424
O28	O	0.814976	0.234141	0.062372
O29	O	1.148310	0.567474	0.395705
O30	O	1.481643	0.900807	0.729038
C31	C	0.693519	0.118461	-0.000185
C32	C	1.026852	0.451794	0.333148
C33	C	1.360185	0.785127	0.666482
C34	C	0.616411	0.117095	-0.000165
C35	C	0.949745	0.450429	0.333168
C36	C	1.283078	0.783762	0.666501
C37	C	0.571915	0.193000	-0.000181
C38	C	0.905248	0.526333	0.333153
C39	C	1.238582	0.859667	0.666486
C40	C	0.499465	0.191717	-0.000189
C41	C	0.832798	0.525051	0.333145
C42	C	1.166131	0.858384	0.666478
C43	C	0.471514	0.114526	-0.000197
C44	C	0.804847	0.447859	0.333136
C45	C	1.138180	0.781192	0.666470
C46	C	0.516020	0.038611	-0.000178
C47	C	0.849353	0.371944	0.333156
C48	C	1.182687	0.705278	0.666489
C49	C	0.588469	0.039896	-0.000162
C50	C	0.921802	0.373229	0.333172
C51	C	1.255135	0.706562	0.666505
C52	C	0.363099	0.053847	-0.044079
C53	C	0.696432	0.387180	0.289255
C54	C	1.029765	0.720513	0.622588
C55	C	0.290651	0.052565	-0.044099
C56	C	0.623984	0.385898	0.289234
C57	C	0.957317	0.719232	0.622568
C58	C	0.248058	0.110560	-0.000242
C59	C	0.581391	0.443893	0.333091
C60	C	0.914724	0.777226	0.666424
C61	C	0.277920	0.169850	0.043625
C62	C	0.611253	0.503184	0.376959
C63	C	0.944587	0.836517	0.710292
C64	C	0.350369	0.171135	0.043641
C65	C	0.683702	0.504468	0.376974
C66	C	1.017036	0.837802	0.710308
C67	C	0.392956	0.113124	-0.000214
C68	C	0.726289	0.446457	0.333120
C69	C	1.059623	0.779791	0.666453
C70	C	0.125002	0.185079	-0.000265
C71	C	0.458335	0.518412	0.333068
C72	C	0.791668	0.851745	0.666401
C73	C	0.052550	0.183793	-0.000269
C74	C	0.385884	0.517126	0.333064
C75	C	0.719217	0.850460	0.666398
C76	C	0.069107	0.030684	-0.000265
C77	C	0.402441	0.364018	0.333068
C78	C	0.735774	0.697351	0.666401
C79	C	0.141557	0.031972	-0.000254
C80	C	0.474890	0.365306	0.333079
C81	C	0.808224	0.698639	0.666412
C82	C	0.169500	0.109172	-0.000258
C83	C	0.502833	0.442505	0.333076
C84	C	0.836166	0.775839	0.666409
C85	C	0.825572	-0.041740	-0.000212
C86	C	1.158905	0.291593	0.333122
C87	C	1.492238	0.624926	0.666455
C88	C	0.824197	-0.134981	-0.000211
C89	C	1.157530	0.198352	0.333122
C90	C	1.490864	0.531686	0.666456
C91	C	0.754815	-0.349571	-0.000204
C92	C	1.088148	-0.016237	0.333130
C93	C	1.421481	0.317096	0.666463
C94	C	0.787024	-0.410715	0.061514
C95	C	1.120358	-0.077382	0.394847
C96	C	1.453691	0.255952	0.728180
C97	C	0.821710	-0.305697	-0.000216
C98	C	1.155044	0.027636	0.333117
C99	C	1.488377	0.360969	0.666451
C100	C	0.787059	-0.410692	-0.061912
C101	C	1.120392	-0.077359	0.271421
C102	C	1.453725	0.255974	0.604754
C103	C	0.819303	-0.470601	-0.000224
C104	C	1.152637	-0.137267	0.333109
C105	C	1.485970	0.196066	0.666442
C106	C	0.853938	-0.365614	0.061552
C107	C	1.187272	-0.032281	0.394886
C108	C	1.520605	0.301053	0.728219
C109	C	0.853963	-0.365585	-0.061929
C110	C	1.187297	-0.032251	0.271404
C111	C	1.520630	0.301082	0.604737
C112	C	0.886222	-0.426712	-0.000197
C113	C	1.219555	-0.093378	0.333136
C114	C	1.552888	0.239955	0.666470
C115	C	0.823095	-0.210700	-0.000211
C116	C	1.156428	0.122633	0.333123
C117	C	1.489762	0.455966	0.666456
C118	C	0.817924	-0.565597	-0.000224
C119	C	1.151257	-0.232263	0.333109
C120	C	1.484591	0.101070	0.666442
C121	C	0.947497	0.105235	-0.000251
C122	C	1.280831	0.438569	0.333082
C123	C	1.614164	0.771902	0.666415
C124	C	1.024605	0.106600	-0.000276
C125	C	1.357938	0.439934	0.333057
C126	C	1.691271	0.773267	0.666391
C127	C	0.815444	0.265436	-0.000225
C128	C	1.148778	0.598770	0.333109
C129	C	1.482111	0.932103	0.666442
C130	C	0.816819	0.358677	-0.000230
C131	C	1.150152	0.692010	0.333103
C132	C	1.483485	1.025344	0.666436
N133	N	0.820486	0.111838	0.177938
N134	N	1.153820	0.445171	0.511271
N135	N	1.487153	0.778505	0.844605
N136	N	0.820535	0.111851	-0.178373
N137	N	1.153868	0.445184	0.154961
N138	N	1.487202	0.778518	0.488294
C139	C	0.867719	0.054584	0.217316
C140	C	1.201053	0.387917	0.550649
C141	C	1.534386	0.721251	0.883983
C142	C	0.867723	0.054580	0.296118
C143	C	1.201057	0.387913	0.629451
C144	C	1.534390	0.721247	0.962784
C145	C	0.820501	0.111845	0.335539
C146	C	1.153834	0.445178	0.668872
C147	C	1.487168	0.778511	1.002205
C148	C	0.773259	0.169103	0.296151
C149	C	1.106593	0.502437	0.629484
C150	C	1.439926	0.835770	0.962818
C151	C	0.773252	0.169100	0.217351
C152	C	1.106585	0.502433	0.550684
C153	C	1.439919	0.835767	0.884017
C154	C	0.811404	0.188378	0.460375
C155	C	1.144737	0.521711	0.793708
C156	C	1.478070	0.855045	1.127041
C157	C	0.811416	0.188382	0.539173
C158	C	1.144749	0.521716	0.872507
C159	C	1.478083	0.855049	1.205840
C160	C	0.820520	0.111855	0.578585
C161	C	1.153853	0.445188	0.911918
C162	C	1.487186	0.778522	1.245252
C163	C	0.829626	0.035319	0.539188
C164	C	1.162959	0.368653	0.872521
C165	C	1.496292	0.701986	1.205854
C166	C	0.829618	0.035316	0.460387
C167	C	1.162952	0.368649	0.793721
C168	C	1.496285	0.701983	1.127054
C169	C	0.820503	0.111854	0.420984
C170	C	1.153837	0.445188	0.754318
C171	C	1.487170	0.778521	1.087651
C172	C	0.867759	0.054592	0.703409
C173	C	1.201093	0.387925	1.036742
C174	C	1.534426	0.721258	1.370075
C175	C	0.867759	0.054587	0.782212
C176	C	1.201092	0.387920	1.115545
C177	C	1.534425	0.721253	1.448879
C178	C	0.773298	0.169117	0.782244
C179	C	1.106631	0.502451	1.115577
C180	C	1.439965	0.835784	1.448910
C181	C	0.773295	0.169115	0.703442
C182	C	1.106629	0.502448	1.036775
C183	C	1.439962	0.835782	1.370109
C184	C	0.820530	0.111853	0.664029
C185	C	1.153863	0.445186	0.997363
C186	C	1.487197	0.778520	1.330696
H187	H	0.016321	0.245606	-0.000277
H188	H	0.349655	0.578940	0.333056
H189	H	0.682988	0.912273	0.666390
H190	H	0.882241	-0.345560	-0.114123
H191	H	1.215574	-0.012227	0.219210
H192	H	1.548908	0.321106	0.552543
F193	F	0.486272	-0.043542	-0.000183
F194	F	0.819605	0.289791	0.333151
F195	F	1.152938	0.623125	0.666484
H196	H	0.758764	-0.430657	-0.114093
H197	H	1.092097	-0.097324	0.219240
H198	H	1.425430	0.236009	0.552574
F199	F	0.682238	-0.305756	-0.000109
F200	F	1.015571	0.027577	0.333225
F201	F	1.348905	0.360910	0.666558
H202	H	0.941797	-0.460084	-0.000176
H203	H	1.275130	-0.126751	0.333157
H204	H	1.608463	0.206582	0.666491
F205	F	0.917987	-0.006361	0.175372
F206	F	1.251320	0.326972	0.508705
F207	F	1.584654	0.660305	0.842038
H208	H	0.046351	-0.032167	-0.000319
H209	H	0.379684	0.301167	0.333015
H210	H	0.713017	0.634500	0.666348
H211	H	0.397773	0.006619	-0.079797
H212	H	0.731106	0.339952	0.253537
H213	H	1.064439	0.673285	0.586870
H214	H	0.177787	-0.029838	-0.000246
H215	H	0.511121	0.303496	0.333087
H216	H	0.844454	0.636829	0.666421
H217	H	0.906187	0.007955	0.328185
H218	H	1.239520	0.341288	0.661518
H219	H	1.572854	0.674622	0.994852
H220	H	0.882201	-0.345735	0.113786
H221	H	1.215534	-0.012402	0.447120
H222	H	1.548867	0.320932	0.780453
F223	F	0.918029	-0.006358	0.824123
F224	F	1.251362	0.326975	1.157456
F225	F	1.584695	0.660308	1.490789
H226	H	0.594661	0.255862	-0.000185
H227	H	0.927994	0.589195	0.333148
H228	H	1.261328	0.922529	0.666482
H229	H	0.734846	0.215740	0.814340
H230	H	1.068179	0.549074	1.147673
H231	H	1.401513	0.882407	1.481006
H232	H	0.758722	-0.430717	0.113705
H233	H	1.092056	-0.097384	0.447038
H234	H	1.425389	0.235949	0.780371
H235	H	0.837031	-0.027001	0.428314
H236	H	1.170364	0.306332	0.761647
H237	H	1.503698	0.639665	1.094980
F238	F	0.839320	-0.046133	0.581126
F239	F	1.172653	0.287200	0.914459
F240	F	1.505986	0.620533	1.247792
F241	F	0.918027	-0.006355	0.661462
F242	F	1.251361	0.326979	0.994795
F243	F	1.584694	0.660312	1.328129
H244	H	0.266342	0.004291	-0.079822
H245	H	0.599676	0.337624	0.253512
H246	H	0.933009	0.670957	0.586845
F247	F	0.723027	0.230057	0.661530
F248	F	1.056360	0.563390	0.994863
F249	F	1.389693	0.896723	1.328197
H250	H	0.734788	0.215724	0.185289
H251	H	1.068122	0.549057	0.518622
H252	H	1.401455	0.882391	0.851955
H253	H	0.624699	-0.021917	-0.000150
H254	H	0.958032	0.311416	0.333184
H255	H	1.291365	0.644750	0.666517
F256	F	0.801729	0.269837	0.581095
F257	F	1.135063	0.603170	0.914429
F258	F	1.468396	0.936504	1.247762
F259	F	0.801764	0.269837	0.418438
F260	F	1.135098	0.603170	0.751771
F261	F	1.468431	0.936503	1.085104
H262	H	0.463229	0.253530	-0.000199
H263	H	0.796562	0.586863	0.333134
H264	H	1.129895	0.920197	0.666468
F265	F	0.382148	0.234232	0.090329
F266	F	0.715482	0.567565	0.423662
F267	F	1.048815	0.900899	0.756995
H268	H	0.147754	0.247939	-0.000257
H269	H	0.481087	0.581273	0.333076
H270	H	0.814420	0.914606	0.666409
F271	F	0.723000	0.230046	0.338106
F272	F	1.056333	0.563379	0.671439
F273	F	1.389666	0.896713	1.004773
H274	H	0.243242	0.217075	0.079338
H275	H	0.576575	0.550408	0.412672
H276	H	0.909909	0.883741	0.746005
