data_functionalizedCrystal
_audit_creation_method	'MofGen! by Chris Wilmer'
_symmetry_space_group_name_H-M	'P1'
_symmetry_Int_Tables_number	1
_symmetry_cell_setting	triclinic
loop_
_symmetry_equiv_pos_as_xyz
  x,y,z
_cell_length_a	10.723024
_cell_length_b	19.188930
_cell_length_c	9.798715
_cell_angle_alpha	89.991738
_cell_angle_beta	89.996609
_cell_angle_gamma	83.806325
loop_
_atom_site_label
_atom_site_type_symbol
_atom_site_fract_x
_atom_site_fract_y
_atom_site_fract_z
O1	O	1.655155	0.097922	-0.113499
O2	O	2.155155	0.597922	0.386501
O3	O	1.291808	0.107295	-0.113506
O4	O	1.791808	0.607295	0.386494
O5	O	1.483967	0.001021	-0.113476
O6	O	1.983967	0.501021	0.386524
O7	O	1.462996	0.204196	-0.113529
O8	O	1.962996	0.704196	0.386471
O9	O	1.483952	0.001021	0.113507
O10	O	1.983952	0.501021	0.613507
O11	O	1.291793	0.107295	0.113477
O12	O	1.791793	0.607295	0.613477
O13	O	1.655140	0.097922	0.113483
O14	O	2.155140	0.597922	0.613483
Zn15	Zn	1.473465	0.102608	0.149518
Zn16	Zn	1.973465	0.602608	0.649518
Zn17	Zn	1.473483	0.102609	-0.149541
Zn18	Zn	1.973483	0.602609	0.350459
O19	O	1.462982	0.204196	0.113453
O20	O	1.962982	0.704196	0.613453
C21	C	1.245315	0.106613	-0.000015
C22	C	1.745315	0.606613	0.499985
C23	C	1.106803	0.104572	-0.000016
C24	C	1.606803	0.604572	0.499984
C25	C	1.483280	-0.024995	0.000019
C26	C	1.983280	0.475005	0.500019
C27	C	1.481242	-0.102512	0.000031
C28	C	1.981242	0.397488	0.500031
C29	C	1.030586	0.164037	-0.000033
C30	C	1.530586	0.664037	0.499967
C31	C	0.887427	0.161930	-0.000034
C32	C	1.387427	0.661930	0.499966
C33	C	1.593994	-0.146704	0.000040
C34	C	2.093994	0.353296	0.500040
C35	C	1.592079	-0.219540	0.000018
C36	C	2.092079	0.280460	0.500018
C37	C	1.477405	-0.248182	0.000015
C38	C	1.977405	0.251818	0.500015
C39	C	1.364638	-0.203981	-0.000001
C40	C	1.864638	0.296019	0.499999
C41	C	1.366556	-0.131146	0.000007
C42	C	1.866556	0.368854	0.500007
N43	N	1.389745	-0.356756	0.077260
N44	N	1.889745	0.143244	0.577260
N45	N	1.387931	-0.425947	0.077255
N46	N	1.887931	0.074053	0.577255
C47	C	1.471618	-0.467628	-0.000013
C48	C	1.971618	0.032372	0.499987
N49	N	1.557208	-0.437506	-0.077259
N50	N	2.057208	0.062494	0.422741
N51	N	1.559026	-0.368310	-0.077248
N52	N	2.059026	0.131690	0.422752
C53	C	1.475312	-0.327158	0.000005
C54	C	1.975312	0.172842	0.500005
C55	C	1.582302	-0.590797	-0.000030
C56	C	2.082302	-0.090797	0.499970
C57	C	1.580382	-0.663634	-0.000061
C58	C	2.080382	-0.163634	0.499939
C59	C	1.352937	-0.648073	-0.000066
C60	C	1.852937	-0.148073	0.499934
C61	C	1.354860	-0.575238	-0.000049
C62	C	1.854860	-0.075238	0.499951
C63	C	1.469546	-0.546604	-0.000025
C64	C	1.969546	-0.046604	0.499975
C65	C	1.701633	0.098604	-0.000011
C66	C	2.201633	0.598604	0.499989
C67	C	1.840145	0.100645	-0.000019
C68	C	2.340145	0.600645	0.499981
C69	C	1.463668	0.230211	-0.000045
C70	C	1.963668	0.730211	0.499955
C71	C	1.465706	0.307729	-0.000066
C72	C	1.965706	0.807729	0.499934
N73	N	1.473461	0.102608	0.353618
N74	N	1.973461	0.602608	0.853618
N75	N	1.473497	0.102604	-0.353640
N76	N	1.973497	0.602604	0.146360
C77	C	1.554147	0.057789	0.421407
C78	C	2.054147	0.557789	0.921407
C79	C	1.554167	0.057787	0.578570
C80	C	2.054167	0.557787	1.078570
H81	H	1.071319	0.216508	-0.000039
H82	H	1.571319	0.716508	0.499961
Cl83	Cl	1.366820	0.161845	0.443640
Cl84	Cl	1.866820	0.661845	0.943640
H85	H	0.821937	0.212836	-0.000054
H86	H	1.321937	0.712836	0.499946
H87	H	1.274736	-0.095165	0.000000
H88	H	1.774736	0.404835	0.500000
H89	H	1.066070	0.052101	-0.000037
H90	H	1.566070	0.552101	0.499963
Cl91	Cl	0.941242	0.022041	-0.000007
Cl92	Cl	1.441242	0.522041	0.499993
Cl93	Cl	1.738170	-0.110711	0.000032
Cl94	Cl	2.238170	0.389289	0.500032
Cl95	Cl	1.733836	-0.275105	0.000027
Cl96	Cl	2.233836	0.224895	0.500027
H97	H	1.271269	-0.227305	-0.000007
H98	H	1.771269	0.272695	0.499993
H99	H	1.675686	-0.567482	-0.000017
H100	H	2.175686	-0.067482	0.499983
H101	H	1.672202	-0.699615	-0.000061
H102	H	2.172202	-0.199615	0.499939
Cl103	Cl	1.660832	-0.001454	0.668569
Cl104	Cl	2.160832	0.498546	1.168569
H105	H	1.404419	0.140979	0.588072
H106	H	1.904419	0.640979	1.088072
H107	H	1.259567	-0.671393	-0.000075
H108	H	1.759567	-0.171393	0.499925
Cl109	Cl	1.213105	-0.519680	-0.000054
Cl110	Cl	1.713105	-0.019680	0.499946
Cl111	Cl	1.660501	-0.001610	0.331386
Cl112	Cl	2.160501	0.498390	0.831386
