data_functionalizedCrystal
_audit_creation_method	'MofGen! by Chris Wilmer'
_symmetry_space_group_name_H-M	'P1'
_symmetry_Int_Tables_number	1
_symmetry_cell_setting	triclinic
loop_
_symmetry_equiv_pos_as_xyz
  x,y,z
_cell_length_a	14.044191
_cell_length_b	14.044220
_cell_length_c	10.065875
_cell_angle_alpha	99.572841
_cell_angle_beta	80.426843
_cell_angle_gamma	93.190327
loop_
_atom_site_label
_atom_site_type_symbol
_atom_site_fract_x
_atom_site_fract_y
_atom_site_fract_z
O1	O	1.289977	0.217384	-0.113432
O2	O	1.789977	0.717384	0.386568
O3	O	1.013307	0.209070	-0.113449
O4	O	1.513307	0.709070	0.386551
O5	O	1.147488	0.074893	-0.113428
O6	O	1.647488	0.574893	0.386572
O7	O	1.155796	0.351561	-0.113454
O8	O	1.655796	0.851561	0.386546
O9	O	1.121852	0.100532	0.113557
O10	O	1.621852	0.600532	0.613557
O11	O	0.987671	0.234709	0.113535
O12	O	1.487671	0.734709	0.613535
O13	O	1.264341	0.243023	0.113552
O14	O	1.764341	0.743023	0.613552
Zn15	Zn	1.121936	0.242937	0.149582
Zn16	Zn	1.621936	0.742937	0.649582
Zn17	Zn	1.155712	0.209156	-0.149480
Zn18	Zn	1.655712	0.709156	0.350520
O19	O	1.130160	0.377200	0.113531
O20	O	1.630160	0.877200	0.613531
C21	C	0.964867	0.218252	0.000041
C22	C	1.464867	0.718252	0.500041
C23	C	0.858725	0.207404	0.000035
C24	C	1.358725	0.707404	0.500035
C25	C	0.613265	0.264506	0.000043
C26	C	1.113265	0.764506	0.500043
C27	C	0.664390	0.187590	0.000048
C28	C	1.164390	0.687590	0.500048
C29	C	0.772528	0.198617	0.000041
C30	C	1.272528	0.698617	0.500041
C31	C	0.505118	0.253480	0.000050
C32	C	1.005118	0.753480	0.500050
C33	C	1.131034	0.052090	0.000065
C34	C	1.631034	0.552090	0.500065
C35	C	1.120189	-0.054053	0.000066
C36	C	1.620189	0.445947	0.500066
C37	C	1.100365	-0.248393	0.000045
C38	C	1.600365	0.251607	0.500045
C39	C	1.177280	-0.299521	0.000046
C40	C	1.677280	0.200479	0.500046
C41	C	1.166249	-0.407659	0.000034
C42	C	1.666249	0.092341	0.500034
C43	C	1.111394	-0.140246	0.000057
C44	C	1.611394	0.359754	0.500057
C45	C	1.312781	0.233840	0.000059
C46	C	1.812781	0.733840	0.500059
C47	C	1.418925	0.244687	0.000056
C48	C	1.918925	0.744687	0.500056
C49	C	1.146614	0.400002	0.000035
C50	C	1.646614	0.900002	0.500035
C51	C	1.157460	0.506144	0.000025
C52	C	1.657460	1.006144	0.500025
N53	N	1.098891	0.265991	0.353684
N54	N	1.598891	0.765991	0.853684
N55	N	1.178764	0.186095	-0.353581
N56	N	1.678764	0.686095	0.146419
C57	C	1.129967	0.234915	0.578632
C58	C	1.629967	0.734915	1.078632
C59	C	1.147695	0.217164	0.421467
C60	C	1.647695	0.717164	0.921467
H61	H	0.626957	0.113448	-0.000041
H62	H	1.126957	0.613448	0.499959
H63	H	1.233662	0.131153	0.588101
H64	H	1.733662	0.631153	1.088101
H65	H	1.026238	-0.285833	0.000037
H66	H	1.526238	0.214167	0.500037
H67	H	1.075062	0.289850	0.636947
H68	H	1.575062	0.789850	1.136947
H69	H	0.650708	0.338631	0.000032
H70	H	1.150708	0.838631	0.500032
C71	C	1.277424	-0.248944	0.000082
C72	C	1.777424	0.251056	0.500082
H73	H	1.271797	-0.181842	0.000105
H74	H	1.771797	0.318158	0.500105
H75	H	1.320079	-0.275815	-0.079062
H76	H	1.820079	0.224185	0.420938
H77	H	1.302169	-0.257956	0.079257
H78	H	1.802169	0.242044	0.579257
C79	C	1.024720	0.340214	0.432446
C80	C	1.524720	0.840214	0.932446
H81	H	1.022538	0.342415	0.527746
H82	H	1.522538	0.842415	1.027746
H83	H	0.962738	0.321841	0.409110
H84	H	1.462738	0.821841	0.909110
H85	H	1.043141	0.402187	0.409087
H86	H	1.543141	0.902187	0.909087
C87	C	1.221878	0.142954	0.342703
C88	C	1.721878	0.642954	0.842703
H89	H	1.224071	0.140768	0.247404
H90	H	1.724071	0.640768	0.747404
H91	H	1.203481	0.080980	0.366053
H92	H	1.703481	0.580980	0.866053
H93	H	1.283860	0.161350	0.366043
H94	H	1.783860	0.661350	0.866043
