data_functionalizedCrystal
_audit_creation_method	'MofGen! by Chris Wilmer'
_symmetry_space_group_name_H-M	'P1'
_symmetry_Int_Tables_number	1
_symmetry_cell_setting	triclinic
loop_
_symmetry_equiv_pos_as_xyz
  x,y,z
_cell_length_a	6.817900
_cell_length_b	11.102188
_cell_length_c	17.110486
_cell_angle_alpha	95.184548
_cell_angle_beta	99.060439
_cell_angle_gamma	108.603875
loop_
_atom_site_label
_atom_site_type_symbol
_atom_site_fract_x
_atom_site_fract_y
_atom_site_fract_z
V1	V	-4.002954	-0.175460	-0.246720
O2	O	-3.964064	0.008821	-0.242024
O3	O	-3.980464	-0.348283	-0.245033
O4	O	-3.932386	-0.172591	-0.354323
O5	O	-4.012475	-0.168088	-0.131977
V6	V	-4.486097	-0.153438	-0.232996
O7	O	-4.265046	-0.223767	-0.276826
O8	O	-4.674203	-0.105131	-0.202891
O9	O	-4.285381	0.019384	-0.234683
O10	O	-4.642385	-0.337720	-0.237693
O11	O	-4.593974	-0.160811	-0.347740
O12	O	-4.333459	-0.156308	-0.125393
C13	C	-3.832486	-0.390419	-0.241141
C14	C	-3.895237	-0.531702	-0.240478
C15	C	-3.771156	-0.166304	-0.380551
C16	C	-3.794913	-0.165101	-0.468517
C17	C	-3.896436	-0.580040	-0.167703
C18	C	-3.955419	-0.712792	-0.167084
C19	C	-4.011994	-0.748859	-0.312022
C20	C	-3.953026	-0.616110	-0.312640
C21	C	-4.119180	-0.876700	-0.081714
C22	C	-4.120345	-0.925040	-0.008934
C23	C	-3.959060	-0.861880	0.057385
C24	C	-3.796562	-0.750380	0.050927
C25	C	-3.795383	-0.702047	-0.021853
C26	C	-3.956712	-0.765206	-0.088170
C27	C	-3.789245	-0.452197	-0.398005
C28	C	-3.788051	-0.403861	-0.470786
C29	C	-3.949325	-0.467020	-0.537111
C30	C	-4.111798	-0.578525	-0.530661
C31	C	-4.112992	-0.626861	-0.457880
C32	C	-3.951718	-0.563693	-0.391555
C33	C	-3.988312	-0.170879	-0.513875
C34	C	-4.010623	-0.169748	-0.596528
C35	C	-3.839536	-0.162848	-0.633823
C36	C	-3.646120	-0.157066	-0.588458
C37	C	-3.623807	-0.158188	-0.505806
C38	C	-3.897784	-0.159135	-0.883178
C39	C	-3.920114	-0.158018	-0.965837
C40	C	-4.284615	-0.170697	-0.973900
C41	C	-4.262289	-0.171826	-0.891246
C42	C	-4.068873	-0.166037	-0.845889
C43	C	-3.862339	-0.161696	-0.718308
C44	C	-4.046068	-0.167180	-0.761404
C45	C	-4.096703	0.061513	-0.238573
C46	C	-4.013189	0.202796	-0.239241
C47	C	-4.158033	-0.162599	-0.099161
C48	C	-4.113513	-0.163795	-0.011194
H49	H	-3.663074	-0.611270	-0.027112
H50	H	-4.250538	-0.928127	-0.135708
H51	H	-3.740317	-0.154467	-0.846261
H52	H	-3.780782	-0.152395	-0.996199
O53	O	-4.212492	-0.174060	-0.725287
C54	C	-4.569588	-0.295891	-0.717583
C55	C	-4.381294	-0.288239	-0.758573
H56	H	-4.706096	-0.388211	-0.744467
H57	H	-4.621669	-0.209526	-0.727171
H58	H	-4.520324	-0.295635	-0.650715
H59	H	-4.430400	-0.288534	-0.825452
H60	H	-4.329253	-0.374600	-0.748920
H61	H	-3.506816	-0.151441	-0.618829
H62	H	-3.960014	-0.901248	0.116643
O63	O	-4.270864	-0.735068	-0.451484
C64	C	-4.557239	-0.829362	-0.385119
C65	C	-4.378502	-0.706735	-0.392267
H66	H	-4.644342	-0.806492	-0.337256
H67	H	-4.487575	-0.906150	-0.367817
H68	H	-4.672221	-0.866215	-0.445044
H69	H	-4.263457	-0.669769	-0.332366
H70	H	-4.448315	-0.630028	-0.409609
O71	O	-4.268738	-0.639902	-0.595002
C72	C	-4.642124	-0.712709	-0.649486
C73	C	-4.464611	-0.643202	-0.576553
H74	H	-4.800525	-0.715377	-0.634601
H75	H	-4.643961	-0.815100	-0.665268
H76	H	-4.613268	-0.659021	-0.702611
H77	H	-4.493345	-0.696783	-0.523382
H78	H	-4.462821	-0.540807	-0.560840
H79	H	-4.252666	-1.015825	-0.003682
H80	H	-4.059049	-0.817599	-0.370773
H81	H	-3.466308	-0.153452	-0.468873
H82	H	-3.723046	-0.156083	-0.748683
O83	O	-3.948273	-0.419893	-0.607758
C84	C	-3.954663	-0.240963	-0.676793
C85	C	-3.955900	-0.294179	-0.596742
H86	H	-3.960783	-0.139306	-0.667910
H87	H	-4.097891	-0.305171	-0.723103
H88	H	-3.804231	-0.238990	-0.698619
H89	H	-4.106234	-0.296154	-0.574843
H90	H	-3.812571	-0.229955	-0.550482
O91	O	-3.840701	-0.498108	-0.097597
C92	C	-3.947537	-0.432860	0.022354
C93	C	-4.010931	-0.525704	-0.057027
H94	H	-4.085117	-0.455155	0.055185
H95	H	-3.905289	-0.329654	0.009455
H96	H	-3.805192	-0.445093	0.061216
H97	H	-4.153315	-0.513585	-0.095928
H98	H	-4.053044	-0.628873	-0.044070
H99	H	-3.655731	-0.313075	-0.476037
O100	O	-3.640088	-0.689159	0.115438
C101	C	-3.498350	-0.686261	0.254078
C102	C	-3.675710	-0.755710	0.181086
H103	H	-3.527065	-0.740055	0.307167
H104	H	-3.496663	-0.583917	0.269922
H105	H	-3.339919	-0.683443	0.239157
H106	H	-3.834232	-0.758626	0.195948
H107	H	-3.677210	-0.858017	0.165260
H108	H	-3.657914	-0.400759	-0.344000
O109	O	-4.472458	-0.176477	-1.018065
C110	C	-4.761696	-0.293207	-1.126773
C111	C	-4.548954	-0.286805	-1.076831
H112	H	-4.823629	-0.382413	-1.174286
H113	H	-4.738952	-0.203718	-1.157057
H114	H	-4.880082	-0.298266	-1.085902
H115	H	-4.430460	-0.281787	-1.117647
H116	H	-4.571867	-0.376292	-1.046538
H117	H	-4.168102	-0.174446	-0.633454
H118	H	-4.127638	-0.176506	-0.483517
H119	H	-4.401610	-0.177443	-0.860887
