data_functionalizedCrystal
_audit_creation_method	'MofGen! by Chris Wilmer'
_symmetry_space_group_name_H-M	'P1'
_symmetry_Int_Tables_number	1
_symmetry_cell_setting	triclinic
loop_
_symmetry_equiv_pos_as_xyz
  x,y,z
_cell_length_a	14.908571
_cell_length_b	21.295417
_cell_length_c	14.908308
_cell_angle_alpha	93.261727
_cell_angle_beta	90.175053
_cell_angle_gamma	86.725606
loop_
_atom_site_label
_atom_site_type_symbol
_atom_site_fract_x
_atom_site_fract_y
_atom_site_fract_z
Zn1	Zn	1.345222	-0.328502	-0.587537
Zn2	Zn	1.353780	-0.428069	-0.437164
Zn3	Zn	1.203540	-0.316412	-0.428537
Zn4	Zn	1.194808	-0.427321	-0.578816
O5	O	1.274337	-0.375076	-0.508014
O6	O	1.472182	-0.347083	-0.574851
O7	O	1.341086	-0.408510	-0.310196
O8	O	1.222407	-0.229931	-0.449668
O9	O	1.478469	-0.420234	-0.464372
O10	O	1.326500	-0.238814	-0.566485
O11	O	1.230705	-0.326476	-0.303857
O12	O	1.076557	-0.325751	-0.441211
O13	O	1.207525	-0.418959	-0.705797
O14	O	1.070141	-0.407236	-0.551621
O15	O	1.318033	-0.346358	-0.712205
O16	O	1.332619	-0.516054	-0.455915
O17	O	1.215823	-0.515505	-0.559986
C18	C	1.040724	-0.365101	-0.494534
C19	C	0.940782	-0.360849	-0.488788
C20	C	0.746357	-0.437829	-0.592807
C21	C	0.652453	-0.433836	-0.587412
C22	C	0.659066	-0.348869	-0.472608
C23	C	0.752971	-0.352861	-0.478003
C24	C	0.796613	-0.397344	-0.538104
C25	C	0.890520	-0.401339	-0.543494
C26	C	0.897131	-0.316368	-0.428695
C27	C	0.803226	-0.312376	-0.423300
C28	C	1.274225	-0.538621	-0.507961
C29	C	1.274258	-0.608591	-0.507974
C30	C	1.328424	-0.646026	-0.568840
C31	C	1.328454	-0.711771	-0.568864
C32	C	1.274329	-0.740078	-0.508007
C33	C	1.220152	-0.702634	-0.447136
C34	C	1.220117	-0.636891	-0.447120
N35	N	1.272081	-0.840068	-0.428926
N36	N	1.272120	-0.902521	-0.428945
C37	C	1.274432	-0.938158	-0.508053
N38	N	1.276721	-0.908983	-0.587146
N39	N	1.276686	-0.846523	-0.587127
C40	C	1.274361	-0.811365	-0.508018
C41	C	1.328634	-1.046881	-0.568950
C42	C	1.328658	-1.112627	-0.568975
C43	C	1.220361	-1.103489	-0.447240
C44	C	1.220332	-1.037745	-0.447222
C45	C	1.274473	-1.009445	-0.508076
C46	C	1.508863	-0.385091	-0.521547
C47	C	1.608804	-0.389358	-0.527313
C48	C	1.260850	-0.383924	-0.742538
C49	C	1.255103	-0.387694	-0.842478
C50	C	1.274473	-0.210894	-0.508087
C51	C	1.274531	-0.140930	-0.508118
C52	C	1.359373	-0.319165	-1.036950
C53	C	1.353975	-0.322705	-1.130853
C54	C	1.238907	-0.398313	-1.124188
C55	C	1.244304	-0.394772	-1.030285
C56	C	1.304540	-0.355197	-0.986670
C57	C	1.309941	-0.351661	-0.892765
C58	C	1.194869	-0.427264	-0.886102
C59	C	1.189471	-0.430805	-0.980005
C60	C	1.287824	-0.366219	-0.274405
C61	C	1.293745	-0.362279	-0.174475
H62	H	1.372507	-0.622986	-0.618393
H63	H	0.938060	-0.283403	-0.384150
H64	H	1.372555	-0.742256	-0.618438
O65	O	1.167524	-0.730200	-0.388141
C66	C	1.106476	-0.767691	-0.435941
H67	H	1.134220	-0.781422	-0.505935
H68	H	1.096588	-0.812045	-0.398624
H69	H	1.039255	-0.739923	-0.441917
O70	O	1.381319	-1.019360	-0.627947
C71	C	1.442347	-0.981849	-0.580152
H72	H	1.452045	-0.999246	-0.509669
H73	H	1.509641	-0.985232	-0.616725
H74	H	1.414707	-0.930737	-0.575416
O75	O	0.603771	-0.473230	-0.640587
C76	C	0.662431	-0.513332	-0.694806
H77	H	0.731477	-0.516931	-0.661815
H78	H	0.634731	-0.562141	-0.702717
H79	H	0.668518	-0.493353	-0.763726
H80	H	1.176007	-0.606410	-0.397555
H81	H	1.140427	-0.463024	-1.015529
H82	H	0.926052	-0.437559	-0.592429
O83	O	0.760969	-0.269115	-0.364899
C84	C	0.825468	-0.234251	-0.317754
H85	H	0.890299	-0.236344	-0.358434
H86	H	0.798904	-0.183134	-0.306725
H87	H	0.839356	-0.255080	-0.249982
O88	O	1.381364	-1.148901	-0.628135
C89	C	1.429124	-1.109821	-0.681851
H90	H	1.434355	-1.061711	-0.645193
H91	H	1.499417	-1.132154	-0.695581
H92	H	1.392224	-1.103998	-0.748214
O93	O	1.167725	-1.131048	-0.388247
C94	C	1.106672	-1.168532	-0.436053
H95	H	1.134419	-1.182265	-0.506046
H96	H	1.096774	-1.212886	-0.398738
H97	H	1.039457	-1.140759	-0.442032
H98	H	1.176228	-1.007263	-0.397656
H99	H	1.150222	-0.456606	-0.845154
H100	H	0.781892	-0.474051	-0.641738
H101	H	1.358990	-0.319438	-0.857255
O102	O	0.616521	-0.305696	-0.414284
C103	C	0.522861	-0.310833	-0.421293
H104	H	0.508328	-0.360013	-0.449840
H105	H	0.491005	-0.302398	-0.351918
H106	H	0.493512	-0.274242	-0.467785
O107	O	1.417906	-0.280674	-0.994717
C108	C	1.465169	-0.249645	-1.059235
H109	H	1.424496	-0.248415	-1.124050
H110	H	1.476363	-0.199437	-1.032674
H111	H	1.532864	-0.275990	-1.073150
O112	O	1.407110	-0.287632	-1.179727
C113	C	1.352825	-0.246852	-1.231124
H114	H	1.283637	-0.238878	-1.198744
H115	H	1.385318	-0.199836	-1.234081
H116	H	1.345626	-0.268864	-1.302106
H117	H	1.189865	-0.430532	-1.159716
