data_functionalizedCrystal
_audit_creation_method	'MofGen! by Chris Wilmer'
_symmetry_space_group_name_H-M	'P1'
_symmetry_Int_Tables_number	1
_symmetry_cell_setting	triclinic
loop_
_symmetry_equiv_pos_as_xyz
  x,y,z
_cell_length_a	18.101398
_cell_length_b	12.759400
_cell_length_c	12.759393
_cell_angle_alpha	90.031564
_cell_angle_beta	90.027486
_cell_angle_gamma	90.012415
loop_
_atom_site_label
_atom_site_type_symbol
_atom_site_fract_x
_atom_site_fract_y
_atom_site_fract_z
Zn1	Zn	1.132225	-0.418268	0.594233
Zn2	Zn	1.132151	-0.593987	0.418553
Zn3	Zn	1.008378	-0.418315	0.418545
Zn4	Zn	1.008370	-0.593898	0.594167
O5	O	1.070281	-0.506117	0.506375
O6	O	1.235848	-0.441594	0.570960
O7	O	1.115704	-0.570740	0.271531
O8	O	1.024841	-0.271288	0.441875
O9	O	1.235794	-0.570694	0.441889
O10	O	1.115831	-0.271253	0.570952
O11	O	1.024769	-0.441675	0.271525
O12	O	0.904744	-0.441590	0.441811
O13	O	1.024828	-0.570544	0.741197
O14	O	0.904739	-0.570590	0.570840
O15	O	1.115823	-0.441509	0.741246
O16	O	1.115697	-0.740996	0.441825
O17	O	1.024756	-0.740931	0.570848
C18	C	1.070237	-0.779084	0.506353
C19	C	1.070286	-0.895861	0.506379
C20	C	0.877871	-0.506086	0.506318
C21	C	0.795557	-0.506098	0.506318
C22	C	1.117692	-0.950722	0.439271
C23	C	1.117737	-1.060446	0.439303
C24	C	1.022965	-1.060439	0.573554
C25	C	1.022924	-0.950716	0.573526
C26	C	1.165054	-0.895867	0.372123
C27	C	1.212462	-0.950728	0.305009
C28	C	1.212508	-1.060452	0.305041
C29	C	1.165145	-1.115315	0.372188
C30	C	0.644848	-0.506120	0.506365
C31	C	0.613473	-0.424840	0.425319
C32	C	0.527855	-0.424534	0.425585
C33	C	0.496466	-0.506141	0.506410
C34	C	0.527603	-0.476573	0.617257
C35	C	0.613248	-0.475971	0.616762
C36	C	0.613266	-0.617177	0.477543
C37	C	0.527614	-0.616592	0.475127
C38	C	0.412606	-0.506155	0.506442
C39	C	0.728708	-0.506103	0.506341
C40	C	1.263443	-0.506149	0.506433
C41	C	1.345757	-0.506162	0.506457
C42	C	1.070333	-0.506011	0.780408
C43	C	1.070355	-0.505966	0.897185
C44	C	1.070345	-0.232084	0.506420
C45	C	1.070373	-0.115307	0.506439
C46	C	1.070272	-0.506147	0.233407
C47	C	1.070393	-0.505896	0.116631
C48	C	1.117743	-0.438771	0.952074
C49	C	1.117761	-0.438733	1.061798
C50	C	1.023000	-0.573094	1.061735
C51	C	1.022980	-0.573126	0.952013
C52	C	1.165119	-0.371611	0.897247
C53	C	1.212511	-0.304411	0.952136
C54	C	1.212529	-0.304373	1.061860
C55	C	1.165154	-0.371535	1.116695
H56	H	1.251029	-0.906052	0.250346
H57	H	1.165191	-1.204659	0.372217
H58	H	0.984430	-0.627773	1.106390
H59	H	0.984381	-0.627826	0.907321
H60	H	1.251116	-1.105116	0.250401
H61	H	0.506241	-0.680362	0.529815
N62	N	0.641813	-0.652953	0.372260
H63	H	0.697511	-0.657131	0.374408
H64	H	0.626144	-0.601309	0.316569
H65	H	0.633237	-0.394804	0.641125
H66	H	0.984404	-1.105117	0.628221
N67	N	0.971799	-0.891536	0.645910
H68	H	0.941798	-0.942934	0.688447
H69	H	0.937526	-0.846079	0.603085
H70	H	0.634008	-0.532621	0.679238
H71	H	1.165020	-0.806524	0.372086
N72	N	0.641964	-0.316441	0.450358
H73	H	0.675110	-0.319757	0.513968
H74	H	0.598909	-0.268336	0.465157
H75	H	0.506799	-0.442983	0.343408
H76	H	0.634015	-0.443078	0.342868
H77	H	0.507377	-0.342247	0.444721
N78	N	0.640147	-0.697387	0.555725
H79	H	0.695906	-0.700000	0.554477
H80	H	0.619632	-0.768534	0.536771
N81	N	0.500683	-0.552595	0.699467
H82	H	0.467965	-0.607062	0.665566
H83	H	0.471675	-0.513353	0.754526
N84	N	0.499213	-0.370251	0.650109
H85	H	0.466189	-0.341086	0.593360
H86	H	0.542315	-0.321313	0.661684
N87	N	0.500659	-0.646145	0.367068
H88	H	0.468402	-0.588237	0.338489
H89	H	0.471159	-0.713203	0.371303
N90	N	1.165169	-0.371482	1.235040
H91	H	1.215971	-0.390793	1.261485
H92	H	1.127938	-0.424216	1.261364
H93	H	1.165111	-0.371637	0.807904
H94	H	1.251077	-0.249725	0.907482
N95	N	1.263628	-0.231881	1.121065
H96	H	1.293632	-0.189340	1.069679
H97	H	1.297898	-0.274631	1.166597
