data_functionalizedCrystal
_audit_creation_method	'MofGen! by Chris Wilmer'
_symmetry_space_group_name_H-M	'P1'
_symmetry_Int_Tables_number	1
_symmetry_cell_setting	triclinic
loop_
_symmetry_equiv_pos_as_xyz
  x,y,z
_cell_length_a	17.019372
_cell_length_b	16.098678
_cell_length_c	16.992695
_cell_angle_alpha	87.081856
_cell_angle_beta	92.978293
_cell_angle_gamma	83.409482
loop_
_atom_site_label
_atom_site_type_symbol
_atom_site_fract_x
_atom_site_fract_y
_atom_site_fract_z
O1	O	1.053258	-0.006214	-0.099545
O2	O	1.553258	0.493786	0.400455
O3	O	0.823614	0.010242	-0.113122
O4	O	1.323614	0.510242	0.386878
O5	O	0.937516	0.002073	0.007805
O6	O	1.437516	0.502073	0.507805
O7	O	0.939356	0.001955	-0.220472
O8	O	1.439356	0.501955	0.279528
O9	O	0.944134	-0.136912	0.014846
O10	O	1.444134	0.363088	0.514846
O11	O	0.830233	-0.128742	-0.106081
O12	O	1.330233	0.371258	0.393919
O13	O	1.059876	-0.145199	-0.092504
O14	O	1.559876	0.354801	0.407496
Zn15	Zn	0.946105	-0.159038	-0.098175
Zn16	Zn	1.446105	0.340962	0.401825
Zn17	Zn	0.937385	0.024081	-0.107451
Zn18	Zn	1.437385	0.524081	0.392549
O19	O	0.945975	-0.137030	-0.213431
O20	O	1.445975	0.362970	0.286569
C21	C	0.797403	-0.057135	-0.109226
C22	C	1.297403	0.442865	0.390774
C23	C	0.709442	-0.050831	-0.108099
C24	C	1.209442	0.449169	0.391901
N25	N	0.952062	-0.284012	-0.091844
N26	N	1.452062	0.215988	0.408156
C27	C	0.211771	-0.011325	-0.101894
C28	C	0.711771	0.488675	0.398106
C29	C	0.294420	-0.017259	-0.102953
C30	C	0.794420	0.482741	0.397047
C31	C	0.339344	-0.095987	-0.099650
C32	C	0.839344	0.404013	0.400350
C33	C	0.301616	-0.168786	-0.095280
C34	C	0.801616	0.331214	0.404720
C35	C	0.218968	-0.162851	-0.094216
C36	C	0.718968	0.337149	0.405784
C37	C	0.589066	-0.117696	-0.102666
C38	C	1.089066	0.382304	0.397334
C39	C	0.671719	-0.123625	-0.103732
C40	C	1.171719	0.376375	0.396268
C41	C	0.664518	0.027903	-0.111403
C42	C	1.164518	0.527903	0.388597
C43	C	0.581869	0.033831	-0.110344
C44	C	1.081869	0.533831	0.389656
C45	C	0.544148	-0.038968	-0.105970
C46	C	1.044148	0.461032	0.394030
C47	C	0.423825	-0.102054	-0.100734
C48	C	0.923825	0.397946	0.399266
C49	C	0.459669	-0.032900	-0.104880
C50	C	0.959669	0.467100	0.395120
C51	C	0.903707	-0.324149	-0.143151
C52	C	1.403707	0.175851	0.356849
C53	C	0.907897	-0.411637	-0.138718
C54	C	1.407897	0.088363	0.361282
C55	C	0.960439	-0.458985	-0.082974
C56	C	1.460439	0.041015	0.417026
C57	C	1.008800	-0.418842	-0.031664
C58	C	1.508800	0.081158	0.468336
C59	C	1.004613	-0.331356	-0.036101
C60	C	1.504613	0.168644	0.463899
C61	C	0.975608	-0.723317	-0.066903
C62	C	1.475608	-0.223317	0.433097
C63	C	0.979789	-0.810808	-0.062469
C64	C	1.479789	-0.310808	0.437531
C65	C	0.878887	-0.803597	-0.169524
C66	C	1.378887	-0.303597	0.330476
C67	C	0.874701	-0.716110	-0.173953
C68	C	1.374701	-0.216110	0.326047
C69	C	0.923065	-0.675974	-0.122646
C70	C	1.423065	-0.175974	0.377354
C71	C	0.964722	-0.548412	-0.078440
C72	C	1.464722	-0.048412	0.421560
C73	C	0.918786	-0.586550	-0.127184
C74	C	1.418786	-0.086550	0.372816
C75	C	1.086087	-0.077820	-0.096400
C76	C	1.586087	0.422180	0.403600
C77	C	1.174048	-0.084118	-0.097527
C78	C	1.674048	0.415882	0.402473
C79	C	0.938456	-0.067249	0.040527
C80	C	1.438456	0.432751	0.540527
C81	C	0.931389	-0.066743	0.127537
C82	C	1.431389	0.433257	0.627537
N83	N	0.931434	0.149054	-0.113776
N84	N	1.431434	0.649054	0.386224
C85	C	0.945034	-0.067706	-0.246153
C86	C	1.445034	0.432294	0.253847
C87	C	0.952101	-0.068207	-0.333164
C88	C	1.452101	0.431793	0.166836
C89	C	0.999577	-0.071630	0.178103
C90	C	1.499577	0.428370	0.678103
C91	C	0.992931	-0.071146	0.259858
C92	C	1.492931	0.428854	0.759858
C93	C	0.918098	-0.065780	0.291045
C94	C	1.418098	0.434220	0.791045
C95	C	0.849906	-0.060890	0.240472
C96	C	1.349906	0.439110	0.740472
C97	C	0.856551	-0.061368	0.158719
C98	C	1.356551	0.438632	0.658719
C99	C	0.890554	-0.063795	0.534511
C100	C	1.390554	0.436205	1.034511
C101	C	0.883913	-0.063320	0.616270
C102	C	1.383913	0.436680	1.116270
C103	C	1.026940	-0.073574	0.635650
C104	C	1.526940	0.426426	1.135650
C105	C	1.033579	-0.074057	0.553895
C106	C	1.533579	0.425943	1.053895
C107	C	0.965386	-0.069162	0.503329
C108	C	1.465386	0.430838	1.003329
N109	N	0.911304	-0.065288	0.374611
N110	N	1.411304	0.434712	0.874611
N111	N	0.972181	-0.069648	0.419764
N112	N	1.472181	0.430352	0.919764
H113	H	0.325131	0.042018	-0.106504
H114	H	0.825131	0.542018	0.393496
H115	H	0.822973	-0.058964	0.641660
H116	H	1.322973	0.441036	1.141660
H117	H	0.839512	-0.836284	-0.211297
H118	H	1.339512	-0.336284	0.288703
H119	H	0.708294	-0.187738	-0.101048
H120	H	1.208294	0.312262	0.398952
O121	O	0.467559	-0.178482	-0.097432
O122	O	0.967559	0.321518	0.402568
C123	C	0.520242	-0.186798	-0.029919
C124	C	1.020242	0.313202	0.470081
H125	H	0.531048	-0.122021	-0.010768
H126	H	1.031048	0.377979	0.489232
H127	H	0.578835	-0.222948	-0.044315
H128	H	1.078835	0.277052	0.455685
H129	H	0.493445	-0.222149	0.019917
H130	H	0.993445	0.277851	0.519917
O131	O	0.824236	-0.059083	0.485512
O132	O	1.324236	0.440917	0.985512
C133	C	0.756764	-0.054231	0.530573
C134	C	1.256764	0.445769	1.030573
H135	H	0.774251	-0.081703	0.593025
H136	H	1.274251	0.418297	1.093025
H137	H	0.710592	-0.091140	0.502225
H138	H	1.210592	0.408860	1.002225
H139	H	0.730890	0.014073	0.532905
H140	H	1.230890	0.514073	1.032905
O141	O	0.701245	0.098556	-0.115749
O142	O	1.201245	0.598556	0.384251
C143	C	0.744145	0.100013	-0.184492
C144	C	1.244145	0.600013	0.315508
H145	H	0.758091	0.033460	-0.203958
H146	H	1.258091	0.533460	0.296042
H147	H	0.801791	0.127828	-0.171593
H148	H	1.301791	0.627828	0.328407
H149	H	0.707243	0.139929	-0.233510
H150	H	1.207243	0.639929	0.266490
H151	H	1.014986	-0.690645	-0.025126
H152	H	1.514986	-0.190645	0.474874
H153	H	1.082458	-0.077557	0.676829
H154	H	1.582458	0.422443	1.176829
O155	O	0.867835	-0.540603	-0.181438
O156	O	1.367835	-0.040603	0.318562
C157	C	0.886608	-0.563259	-0.257900
C158	C	1.386608	-0.063259	0.242100
H159	H	0.951147	-0.591841	-0.256806
H160	H	1.451147	-0.091841	0.243194
H161	H	0.877239	-0.505249	-0.300192
H162	H	1.377239	-0.005249	0.199808
H163	H	0.846618	-0.611006	-0.278533
H164	H	1.346618	-0.111006	0.221467
H165	H	0.175199	0.052784	-0.104589
H166	H	0.675199	0.552784	0.395411
O167	O	1.015703	-0.594317	-0.024180
O168	O	1.515703	-0.094317	0.475820
C169	C	0.996884	-0.571690	0.052278
C170	C	1.496884	-0.071690	0.552278
H171	H	0.963354	-0.505986	0.048833
H172	H	1.463354	-0.005986	0.548833
H173	H	1.053785	-0.572788	0.090992
H174	H	1.553785	-0.072788	0.590992
H175	H	0.958296	-0.618000	0.078835
H176	H	1.458296	-0.118000	0.578835
O177	O	0.777174	-0.055784	0.270676
O178	O	1.277174	0.444216	0.770676
C179	C	0.738726	-0.124773	0.248468
C180	C	1.238726	0.375227	0.748468
H181	H	0.765029	-0.150575	0.193084
H182	H	1.265029	0.349425	0.693084
H183	H	0.672763	-0.103909	0.235981
H184	H	1.172763	0.396091	0.735981
H185	H	0.747296	-0.175619	0.298380
H186	H	1.247296	0.324381	0.798380
O187	O	1.072329	-0.076807	0.147940
O188	O	1.572329	0.423193	0.647940
C189	C	1.131088	-0.081035	0.210107
C190	C	1.631088	0.418965	0.710107
H191	H	1.104130	-0.052882	0.264207
H192	H	1.604130	0.447118	0.764207
H193	H	1.181099	-0.044403	0.191219
H194	H	1.681099	0.455597	0.691219
H195	H	1.155548	-0.149237	0.225164
H196	H	1.655548	0.350763	0.725164
H197	H	1.048457	-0.075127	0.301026
H198	H	1.548457	0.424873	0.801026
O199	O	0.790331	-0.056477	0.109557
O200	O	1.290331	0.443523	0.609557
C201	C	0.786482	0.015525	0.058025
C202	C	1.286482	0.515525	0.558025
H203	H	0.822665	0.063070	0.085612
H204	H	1.322665	0.563070	0.585612
H205	H	0.722159	0.044216	0.047299
H206	H	1.222159	0.544216	0.547299
H207	H	0.811506	-0.002487	-0.000505
H208	H	1.311506	0.497513	0.499495
H209	H	0.338200	-0.232888	-0.092586
H210	H	0.838200	0.267112	0.407414
H211	H	1.022578	-0.849356	-0.017072
H212	H	1.522578	-0.349356	0.482928
H213	H	1.043991	-0.298677	0.005678
H214	H	1.543991	0.201323	0.505678
O215	O	0.416110	0.043621	-0.108200
O216	O	0.916110	0.543621	0.391800
C217	C	0.429420	0.088591	-0.178695
C218	C	0.929420	0.588591	0.321305
H219	H	0.488895	0.062860	-0.201008
H220	H	0.988895	0.562860	0.298992
H221	H	0.429998	0.157623	-0.166978
H222	H	0.929998	0.657623	0.333022
H223	H	0.380133	0.081655	-0.225101
H224	H	0.880133	0.581655	0.274899
H225	H	1.094516	-0.078426	0.528509
H226	H	1.594516	0.421574	1.028509
O227	O	0.852754	-0.278202	-0.197408
O228	O	1.352754	0.221798	0.302592
C229	C	0.871538	-0.300865	-0.273865
C230	C	1.371538	0.199135	0.226135
H231	H	0.936080	-0.329440	-0.272762
H232	H	1.436080	0.170560	0.227238
H233	H	0.862168	-0.242859	-0.316163
H234	H	1.362168	0.257141	0.183837
H235	H	0.831557	-0.348620	-0.294496
H236	H	1.331557	0.151380	0.205504
O237	O	0.538354	0.110374	-0.113512
O238	O	1.038354	0.610374	0.386488
C239	C	0.589372	0.173353	-0.117609
C240	C	1.089372	0.673353	0.382391
H241	H	0.651052	0.146786	-0.092433
H242	H	1.151052	0.646786	0.407567
H243	H	0.565599	0.227858	-0.081920
H244	H	1.065599	0.727858	0.418080
H245	H	0.592720	0.196343	-0.181786
H246	H	1.092720	0.696343	0.318214
H247	H	0.558365	-0.176974	-0.099093
H248	H	1.058365	0.323026	0.400907
H249	H	0.188255	-0.222128	-0.090668
H250	H	0.688255	0.277872	0.409332
H251	H	0.868523	-0.444316	-0.180497
H252	H	1.368523	0.055684	0.319503
H253	H	0.831917	-0.677560	-0.219344
H254	H	1.331917	-0.177560	0.280656
O255	O	1.059790	-0.464742	0.022591
O256	O	1.559790	0.035258	0.522591
C257	C	1.040978	-0.442106	0.099049
C258	C	1.540978	0.057894	0.599049
H259	H	1.007443	-0.376405	0.095599
H260	H	1.507443	0.123595	0.595599
H261	H	1.097882	-0.443194	0.137756
H262	H	1.597882	0.056806	0.637756
H263	H	1.002397	-0.488416	0.125618
H264	H	1.502397	0.011584	0.625618
