data_functionalizedCrystal
_audit_creation_method	'MofGen! by Chris Wilmer'
_symmetry_space_group_name_H-M	'P1'
_symmetry_Int_Tables_number	1
_symmetry_cell_setting	triclinic
loop_
_symmetry_equiv_pos_as_xyz
  x,y,z
_cell_length_a	19.188930
_cell_length_b	10.654541
_cell_length_c	9.730217
_cell_angle_alpha	90.000068
_cell_angle_beta	89.991643
_cell_angle_gamma	96.185645
loop_
_atom_site_label
_atom_site_type_symbol
_atom_site_fract_x
_atom_site_fract_y
_atom_site_fract_z
O1	O	0.098053	-1.665764	-0.114265
O2	O	0.107397	-1.300087	-0.114279
O3	O	0.001138	-1.493478	-0.114245
O4	O	0.204312	-1.472373	-0.114299
O5	O	0.001137	-1.493472	0.114335
O6	O	0.107396	-1.300081	0.114301
O7	O	0.098052	-1.665758	0.114315
Zn8	Zn	0.102724	-1.482918	0.150600
Zn9	Zn	0.102725	-1.482926	-0.150564
O10	O	0.204311	-1.472367	0.114281
C11	C	0.106711	-1.253300	0.000010
C12	C	0.104659	-1.113900	0.000006
C13	C	-0.024878	-1.492792	0.000049
C14	C	-0.102396	-1.490740	0.000061
C15	C	0.098738	-1.712544	0.000023
C16	C	0.100790	-1.851944	0.000018
C17	C	-0.146578	-1.604215	0.000072
C18	C	-0.219414	-1.602288	0.000050
C19	C	-0.248065	-1.486878	0.000044
C20	C	-0.203873	-1.373388	0.000026
C21	C	-0.131038	-1.375319	0.000034
N22	N	-0.356647	-1.398660	0.077831
N23	N	-0.425838	-1.396833	0.077826
C24	C	-0.467512	-1.481054	0.000016
N25	N	-0.437383	-1.567190	-0.077771
N26	N	-0.368186	-1.569020	-0.077760
C27	C	-0.327041	-1.484772	0.000034
C28	C	-0.590672	-1.592448	0.000001
C29	C	-0.663510	-1.590515	-0.000029
C30	C	-0.647967	-1.361612	-0.000039
C31	C	-0.575131	-1.363548	-0.000023
C32	C	-0.546488	-1.478969	0.000004
C33	C	0.230327	-1.473053	-0.000016
C34	C	0.307845	-1.475105	-0.000037
N35	N	0.102723	-1.482922	0.356137
C36	C	0.231721	-1.083241	-0.000045
C37	C	0.294284	-1.002423	-0.000076
C38	C	0.292352	-0.871446	-0.000077
C39	C	0.227849	-0.821285	-0.000043
C40	C	0.165286	-0.902103	-0.000012
C41	C	0.167225	-1.033082	-0.000015
C42	C	0.038226	-0.932762	0.000049
C43	C	0.040156	-1.063740	0.000040
C44	C	-0.026277	-0.882602	0.000083
C45	C	-0.088842	-0.963421	0.000104
C46	C	-0.086908	-1.094405	0.000104
C47	C	-0.022408	-1.144558	0.000071
N48	N	0.102721	-1.482932	-0.356101
C49	C	0.008658	-1.654239	0.356157
C50	C	-0.038372	-1.739906	0.428108
C51	C	-0.038373	-1.739919	0.571987
C52	C	0.008661	-1.654253	0.643920
C53	C	0.055691	-1.568586	0.571970
C54	C	0.055688	-1.568585	0.428087
C55	C	0.149751	-1.397265	0.571949
C56	C	0.149756	-1.397257	0.428069
C57	C	0.196785	-1.311600	0.643882
C58	C	0.243819	-1.225937	0.571932
C59	C	0.243818	-1.225928	0.428043
C60	C	0.196786	-1.311590	0.356119
H61	H	-0.123262	-1.698200	0.000089
H62	H	-0.027846	-0.775953	0.000090
C63	C	0.403180	-1.016618	-0.117636
C64	C	0.365185	-1.057560	-0.000116
H65	H	0.446952	-1.050650	-0.117650
H66	H	0.377390	-1.044389	-0.197319
H67	H	0.410976	-0.927046	-0.117624
H68	H	0.357384	-1.147132	-0.000133
H69	H	0.390980	-1.029797	0.079588
H70	H	0.233300	-1.189888	-0.000075
C71	C	0.182077	-1.193387	0.850005
C72	C	0.196783	-1.311610	0.802037
H73	H	0.182073	-1.193399	0.947644
H74	H	0.216816	-1.130121	0.817454
H75	H	0.137360	-1.176475	0.817464
H76	H	0.241502	-1.328518	0.834570
H77	H	0.162042	-1.374896	0.834602
C78	C	-0.164732	-0.833906	-0.117358
C79	C	-0.159738	-0.908285	0.000139
H80	H	-0.208503	-0.799872	-0.117339
H81	H	-0.127752	-0.767040	-0.117356
H82	H	-0.161339	-0.884373	-0.197065
H83	H	-0.163126	-0.857815	0.079847
H84	H	-0.196729	-0.975160	0.000150
H85	H	-0.539157	-1.271143	-0.000024
H86	H	-0.227205	-1.279421	0.000018
C87	C	-0.310335	-1.732921	-0.117436
C88	C	-0.267992	-1.727028	0.000070
H89	H	-0.340320	-1.809934	-0.117423
H90	H	-0.337814	-1.663915	-0.117440
H91	H	-0.281585	-1.728933	-0.197137
H92	H	-0.296742	-1.731007	0.079772
H93	H	-0.240510	-1.796053	0.000086
C94	C	0.283677	-1.008318	0.616237
C95	C	0.295509	-1.131777	0.651005
H96	H	0.315586	-0.950189	0.665066
H97	H	0.290418	-0.996061	0.520265
H98	H	0.237004	-0.994970	0.639826
H99	H	0.342181	-1.145128	0.627407
H100	H	0.288775	-1.144038	0.746999
C101	C	0.023366	-1.772464	0.150046
C102	C	0.008661	-1.654236	0.198003
H103	H	0.023364	-1.772463	0.052407
H104	H	0.068077	-1.789374	0.182581
H105	H	-0.011378	-1.835733	0.182611
H106	H	0.043409	-1.590968	0.165446
H107	H	-0.036056	-1.637312	0.165453
H108	H	0.343297	-0.805642	-0.000093
H109	H	-0.020826	-1.251205	0.000054
C110	C	-0.212699	-1.111543	0.000157
C111	C	-0.155682	-1.183237	0.000131
H112	H	-0.255157	-1.166383	0.000164
H113	H	-0.210806	-1.059827	0.079866
H114	H	-0.210807	-1.059811	-0.079556
H115	H	-0.157570	-1.234962	0.079850
H116	H	-0.157575	-1.234975	-0.079586
C117	C	-0.158857	-1.814349	0.616338
C118	C	-0.090071	-1.834076	0.651087
H119	H	-0.190773	-1.872481	0.665167
H120	H	-0.166868	-1.730595	0.639926
H121	H	-0.165584	-1.826613	0.520353
H122	H	-0.083342	-1.821803	0.747070
H123	H	-0.082058	-1.917851	0.627508
C124	C	0.259665	-0.625310	-0.117549
C125	C	0.225725	-0.677313	-0.000034
H126	H	0.258348	-0.536428	-0.117544
H127	H	0.307026	-0.643615	-0.117558
H128	H	0.236630	-0.660606	-0.197244
H129	H	0.248763	-0.642024	0.079661
H130	H	0.178355	-0.658998	-0.000012
H131	H	-0.076668	-1.809652	0.369528
C132	C	-0.057262	-1.629311	0.850040
C133	C	0.008655	-1.654262	0.802075
H134	H	-0.057265	-1.629323	0.947679
H135	H	-0.067225	-1.549112	0.817500
H136	H	-0.091997	-1.692591	0.817486
H137	H	0.043390	-1.590976	0.834621
H138	H	0.018626	-1.734471	0.834629
H139	H	0.196784	-1.311595	0.238965
C140	C	-0.517756	-1.727401	-0.117481
C141	C	-0.559178	-1.719310	0.000011
H142	H	-0.498310	-1.805717	-0.117469
H143	H	-0.545837	-1.721898	-0.197183
H144	H	-0.481020	-1.660082	-0.117459
H145	H	-0.595917	-1.786623	-0.000017
H146	H	-0.531094	-1.724825	0.079733
H147	H	-0.699483	-1.682925	-0.000028
H148	H	0.282114	-1.156163	0.369469
H149	H	-0.095064	-1.282910	0.000026
H150	H	-0.671293	-1.267643	-0.000050
