data_functionalizedCrystal
_audit_creation_method	'MofGen! by Chris Wilmer'
_symmetry_space_group_name_H-M	'P1'
_symmetry_Int_Tables_number	1
_symmetry_cell_setting	triclinic
loop_
_symmetry_equiv_pos_as_xyz
  x,y,z
_cell_length_a	10.654556
_cell_length_b	10.654551
_cell_length_c	13.101018
_cell_angle_alpha	93.393175
_cell_angle_beta	86.606645
_cell_angle_gamma	84.486483
loop_
_atom_site_label
_atom_site_type_symbol
_atom_site_fract_x
_atom_site_fract_y
_atom_site_fract_z
O1	O	1.674690	0.169575	-0.085172
O2	O	2.174690	0.669575	0.414828
O3	O	1.309214	0.186371	-0.085182
O4	O	1.809214	0.686371	0.414818
O5	O	1.500354	-0.004766	-0.085174
O6	O	2.000354	0.495234	0.414826
O7	O	1.483550	0.360712	-0.085179
O8	O	1.983550	0.860712	0.414821
O9	O	1.486624	0.008960	0.085255
O10	O	1.986624	0.508960	0.585255
O11	O	1.295484	0.200097	0.085248
O12	O	1.795484	0.700097	0.585248
O13	O	1.660961	0.183300	0.085258
O14	O	2.160961	0.683300	0.585258
Zn15	Zn	1.476042	0.193878	0.112312
Zn16	Zn	1.976042	0.693878	0.612312
Zn17	Zn	1.494132	0.175794	-0.112236
Zn18	Zn	1.994132	0.675794	0.387764
O19	O	1.469820	0.374438	0.085251
O20	O	1.969820	0.874438	0.585251
C21	C	1.255551	0.191999	0.000032
C22	C	1.755551	0.691999	0.500032
C23	C	1.116109	0.188304	0.000028
C24	C	1.616109	0.688304	0.500028
C25	C	0.927047	0.175620	-0.092866
C26	C	1.427047	0.675620	0.407134
C27	C	1.058070	0.179083	-0.092872
C28	C	1.558070	0.679083	0.407128
C29	C	1.043119	0.194048	0.092940
C30	C	1.543119	0.694048	0.592940
C31	C	0.912100	0.190575	0.092945
C32	C	1.412100	0.690575	0.592945
C33	C	1.492255	-0.044701	0.000039
C34	C	1.992255	0.455299	0.500039
C35	C	1.488563	-0.184145	0.000034
C36	C	1.988563	0.315855	0.500034
C37	C	1.714623	0.177672	0.000042
C38	C	2.214623	0.677672	0.500042
C39	C	1.854066	0.181367	0.000039
C40	C	2.354066	0.681367	0.500039
C41	C	1.494314	-0.257130	-0.092868
C42	C	1.994314	0.242870	0.407132
C43	C	1.490834	-0.388151	-0.092869
C44	C	1.990834	0.111849	0.407131
C45	C	1.475857	-0.373188	0.092943
C46	C	1.975857	0.126812	0.592943
C47	C	1.479328	-0.242169	0.092943
C48	C	1.979328	0.257831	0.592943
C49	C	1.477919	0.414373	0.000035
C50	C	1.977919	0.914373	0.500035
C51	C	1.481612	0.553816	0.000033
C52	C	1.981612	1.053816	0.500033
N53	N	1.463706	0.206220	0.265561
N54	N	1.963706	0.706220	0.765561
N55	N	1.506479	0.163442	-0.265485
N56	N	2.006479	0.663442	0.234515
C57	C	1.523256	0.146646	0.525473
C58	C	2.023256	0.646646	1.025473
C59	C	1.446932	0.223011	0.474597
C60	C	1.946932	0.723011	0.974597
C61	C	1.456267	0.213666	0.358278
C62	C	1.956267	0.713666	0.858278
C63	C	1.513923	0.155990	0.641802
C64	C	2.013923	0.655990	1.141802
H65	H	1.117485	0.174401	-0.168525
H66	H	1.617485	0.674401	0.331475
H67	H	1.090386	0.201547	0.168581
H68	H	1.590386	0.701547	0.668581
H69	H	1.474637	-0.182740	0.168599
H70	H	1.974637	0.317260	0.668599
H71	H	1.595607	0.074255	0.481676
H72	H	2.095607	0.574255	0.981676
H73	H	1.495515	-0.447571	-0.168520
H74	H	1.995515	0.052429	0.331480
H75	H	1.468340	-0.420448	0.168585
H76	H	1.968340	0.079552	0.668585
C77	C	1.349195	0.320829	0.533769
C78	C	1.849195	0.820829	1.033769
N79	N	1.275589	0.394508	0.578342
N80	N	1.775589	0.894508	1.078342
H81	H	0.852677	0.195255	0.168604
H82	H	1.352677	0.695255	0.668604
C83	C	1.504459	-0.193307	-0.195070
C84	C	2.004459	0.306693	0.304930
N85	N	1.512095	-0.145238	-0.272052
N86	N	2.012095	0.354762	0.227948
C87	C	0.863217	0.165475	-0.195064
C88	C	1.363217	0.665475	0.304936
N89	N	0.815145	0.157828	-0.272044
N90	N	1.315145	0.657828	0.227956
