data_functionalizedCrystal
_audit_creation_method	'MofGen! by Chris Wilmer'
_symmetry_space_group_name_H-M	'P1'
_symmetry_Int_Tables_number	1
_symmetry_cell_setting	triclinic
loop_
_symmetry_equiv_pos_as_xyz
  x,y,z
_cell_length_a	16.109302
_cell_length_b	17.000371
_cell_length_c	14.586319
_cell_angle_alpha	89.995789
_cell_angle_beta	89.994552
_cell_angle_gamma	79.530514
loop_
_atom_site_label
_atom_site_type_symbol
_atom_site_fract_x
_atom_site_fract_y
_atom_site_fract_z
O1	O	1.095680	0.102312	-0.076282
O2	O	0.852691	0.115044	-0.076275
O3	O	0.989273	-0.007192	-0.076272
O4	O	0.959098	0.224548	-0.076284
O5	O	0.989264	-0.007194	0.076209
O6	O	0.852682	0.115042	0.076206
O7	O	1.095671	0.102310	0.076199
Cu8	Cu	0.974176	0.108676	0.090125
Cu9	Cu	0.974186	0.108678	-0.090201
O10	O	0.959089	0.224546	0.076197
C11	C	0.821749	0.114527	-0.000033
C12	C	0.729566	0.112981	-0.000030
C13	C	0.517481	0.109404	0.083078
C14	C	0.430867	0.107942	0.083075
C15	C	0.430887	0.107948	-0.083168
C16	C	0.517500	0.109404	-0.083164
C17	C	0.560794	0.110136	-0.000038
C18	C	0.387567	0.107218	-0.000045
C19	C	0.293657	0.105634	-0.000049
C20	C	0.654711	0.111719	-0.000034
C21	C	0.990889	-0.036847	-0.000032
C22	C	0.995709	-0.125207	-0.000033
C23	C	0.921542	-0.157214	-0.000035
C24	C	0.926076	-0.240238	-0.000032
C25	C	1.004776	-0.291254	-0.000035
C26	C	1.078949	-0.259242	-0.000030
C27	C	1.074414	-0.176220	-0.000026
C28	C	1.022291	-0.542404	-0.000042
C29	C	1.026820	-0.625432	-0.000049
C30	C	0.873946	-0.606422	-0.000049
C31	C	0.869419	-0.523398	-0.000050
C32	C	0.943591	-0.491394	-0.000041
C33	C	1.009412	-0.376118	-0.000035
C34	C	0.938954	-0.406531	-0.000034
C35	C	1.126613	0.102827	-0.000044
C36	C	1.218795	0.104374	-0.000053
C37	C	0.957472	0.254201	-0.000045
C38	C	0.952653	0.342561	-0.000050
N39	N	0.974175	0.108674	0.216957
N40	N	0.974194	0.108674	-0.217033
C41	C	1.034670	0.054566	0.451965
C42	C	1.034673	0.054564	0.547946
C43	C	0.913692	0.162784	0.547953
C44	C	0.913687	0.162782	0.451974
C45	C	0.974180	0.108674	0.403982
C46	C	0.974188	0.108674	0.595943
C47	C	0.974191	0.108673	0.700010
C48	C	0.974177	0.108674	0.299908
H49	H	0.395606	0.107346	0.150757
H50	H	0.857455	-0.115681	-0.000037
H51	H	1.073491	-0.417665	-0.000039
N52	N	0.851908	0.218046	0.596992
N53	N	0.851920	0.218042	0.682687
H54	H	0.808284	0.257073	0.717320
H55	H	0.552767	0.109998	-0.150851
H56	H	0.865681	-0.266293	-0.000041
H57	H	0.395627	0.107353	-0.150846
H58	H	0.864424	0.206843	0.412904
H59	H	1.083927	0.010507	0.412892
H60	H	0.552728	0.110000	0.150764
N61	N	0.789025	-0.471292	-0.000056
N62	N	0.738355	-0.474196	-0.064330
H63	H	0.681574	-0.437397	-0.064336
N64	N	0.798195	-0.639130	-0.000040
N65	N	0.783673	-0.683343	0.064236
H66	H	0.730172	-0.706445	0.064247
N67	N	1.107222	-0.677535	-0.000052
N68	N	1.173440	-0.648951	-0.000043
H69	H	1.230222	-0.685747	-0.000046
H70	H	1.083929	0.010504	0.587011
N71	N	1.098061	-0.509733	-0.000035
N72	N	1.168322	-0.555294	-0.000042
H73	H	1.221840	-0.532219	-0.000039
N74	N	1.159334	-0.311363	-0.000023
N75	N	1.163373	-0.385488	-0.000027
H76	H	1.220147	-0.422299	-0.000024
H77	H	1.134809	-0.150162	-0.000023
N78	N	0.858573	-0.354411	-0.000043
N79	N	0.839008	-0.305956	-0.064317
H80	H	0.782239	-0.269138	-0.064328
