data_functionalizedCrystal
_audit_creation_method	'MofGen! by Chris Wilmer'
_symmetry_space_group_name_H-M	'P1'
_symmetry_Int_Tables_number	1
_symmetry_cell_setting	triclinic
loop_
_symmetry_equiv_pos_as_xyz
  x,y,z
_cell_length_a	10.540539
_cell_length_b	14.519709
_cell_length_c	12.996460
_cell_angle_alpha	90.007090
_cell_angle_beta	90.003509
_cell_angle_gamma	84.102818
loop_
_atom_site_label
_atom_site_type_symbol
_atom_site_fract_x
_atom_site_fract_y
_atom_site_fract_z
O1	O	-1.684562	-0.129969	-0.085521
O2	O	-1.315024	-0.142215	-0.085534
O3	O	-1.509591	-0.001906	-0.085518
O4	O	-1.489995	-0.270278	-0.085537
O5	O	-1.509571	-0.001899	0.085616
O6	O	-1.315004	-0.142207	0.085600
O7	O	-1.684542	-0.129961	0.085613
Cu8	Cu	-1.499771	-0.136083	0.101232
Cu9	Cu	-1.499795	-0.136093	-0.101153
O10	O	-1.489975	-0.270270	0.085597
C11	C	-1.267720	-0.141293	0.000032
C12	C	-1.126800	-0.138545	0.000027
N13	N	-1.499763	-0.136076	0.243579
C14	C	-1.731846	-0.130884	0.000045
C15	C	-1.872766	-0.133631	0.000043
C16	C	-0.944448	-0.033266	0.000434
C17	C	-1.091038	-0.036051	0.000037
C18	C	-1.064636	-0.187874	-0.097699
C19	C	-0.918127	-0.184376	-0.097770
C20	C	-0.917594	-0.186452	0.096841
C21	C	-1.064567	-0.187396	0.098122
C22	C	-1.508668	0.032462	0.000049
C23	C	-1.505931	0.134858	0.000050
C24	C	-1.490899	-0.304639	0.000028
C25	C	-1.493635	-0.407035	0.000020
C26	C	-1.495856	0.509808	0.000023
C27	C	-1.498654	0.405485	0.000031
C28	C	-1.500893	0.322337	0.000037
C29	C	-1.503692	0.218007	0.000043
N30	N	-1.499813	-0.136093	-0.243500
C31	C	-1.499793	-0.136094	0.663394
C32	C	-1.499781	-0.136092	0.546589
C33	C	-1.499779	-0.136086	0.453490
C34	C	-1.499766	-0.136083	0.336678
H35	H	-1.134040	0.002763	0.070092
H36	H	-0.886378	-0.153279	0.170917
H37	H	-1.088029	-0.262121	0.104017
O38	O	-1.113669	-0.144483	0.184480
C39	C	-1.057147	-0.188931	0.272054
H40	H	-0.961012	-0.227083	0.250121
H41	H	-1.122110	-0.240537	0.303195
C42	C	-1.155585	-0.069375	0.382213
C43	C	-1.037505	-0.116227	0.355277
H44	H	-1.143474	-0.024529	0.433551
H45	H	-1.193669	-0.039431	0.323214
H46	H	-1.209709	-0.112389	0.408158
H47	H	-0.983389	-0.073215	0.329321
H48	H	-0.999411	-0.146163	0.414274
H49	H	-0.916268	0.007229	0.070519
H50	H	-0.914661	0.007051	-0.069255
H51	H	-0.869612	-0.260483	0.097496
H52	H	-1.133191	0.003030	-0.070132
H53	H	-1.086221	-0.263143	-0.101340
O54	O	-0.885053	-0.140979	-0.185009
C55	C	-0.921442	-0.190490	-0.271639
H56	H	-1.001578	-0.233680	-0.249353
H57	H	-0.836132	-0.238073	-0.300578
C58	C	-0.869755	-0.068903	-0.384653
C59	C	-0.968187	-0.121944	-0.357283
H60	H	-0.898585	-0.026622	-0.437485
H61	H	-0.845235	-0.035548	-0.326289
H62	H	-0.798672	-0.108565	-0.408762
H63	H	-1.039262	-0.082282	-0.333162
H64	H	-0.992721	-0.155291	-0.415645
O65	O	-0.859845	-0.272260	-0.103213
C66	C	-0.784044	-0.281968	-0.192704
H67	H	-0.758463	-0.211048	-0.218148
H68	H	-0.839375	-0.313823	-0.256635
C69	C	-0.692472	-0.432449	-0.138480
C70	C	-0.661044	-0.345344	-0.169726
H71	H	-0.616602	-0.471545	-0.124309
H72	H	-0.743544	-0.425911	-0.078190
H73	H	-0.738584	-0.458982	-0.191761
H74	H	-0.614948	-0.318808	-0.116441
H75	H	-0.609962	-0.351879	-0.230007
O76	O	-1.115992	-0.147140	-0.184490
C77	C	-1.173964	-0.213033	-0.243052
H78	H	-1.199016	-0.271524	-0.190735
H79	H	-1.105194	-0.242313	-0.305412
C80	C	-1.265577	-0.094604	-0.357711
C81	C	-1.296356	-0.166441	-0.293453
H82	H	-1.341071	-0.065865	-0.388806
H83	H	-1.226517	-0.050211	-0.318260
H84	H	-1.208267	-0.119015	-0.409670
H85	H	-1.353652	-0.142028	-0.241489
H86	H	-1.335429	-0.210829	-0.332897
