data_functionalizedCrystal
_audit_creation_method	'MofGen! by Chris Wilmer'
_symmetry_space_group_name_H-M	'P1'
_symmetry_Int_Tables_number	1
_symmetry_cell_setting	triclinic
loop_
_symmetry_equiv_pos_as_xyz
  x,y,z
_cell_length_a	27.732048
_cell_length_b	27.732048
_cell_length_c	9.130313
_cell_angle_alpha	89.990549
_cell_angle_beta	90.001977
_cell_angle_gamma	82.642655
loop_
_atom_site_label
_atom_site_type_symbol
_atom_site_fract_x
_atom_site_fract_y
_atom_site_fract_z
O1	O	0.640926	0.057517	-0.121626
O2	O	0.974260	0.390850	0.211707
O3	O	1.307593	0.724184	0.545040
O4	O	0.500133	0.066262	-0.121673
O5	O	0.833466	0.399596	0.211661
O6	O	1.166800	0.732929	0.544994
O7	O	0.574902	-0.008507	-0.121620
O8	O	0.908236	0.324826	0.211713
O9	O	1.241569	0.658160	0.545047
O10	O	0.566157	0.132286	-0.121679
O11	O	0.899490	0.465620	0.211655
O12	O	1.232824	0.798953	0.544988
O13	O	0.574897	-0.008509	0.121979
O14	O	0.908231	0.324824	0.455312
O15	O	1.241564	0.658157	0.788645
O16	O	0.500128	0.066260	0.121926
O17	O	0.833461	0.399594	0.455259
O18	O	1.166795	0.732927	0.788593
O19	O	0.640921	0.057515	0.121973
O20	O	0.974255	0.390848	0.455306
O21	O	1.307588	0.724181	0.788639
Cu22	Cu	0.570524	0.061887	0.144192
Cu23	Cu	0.903858	0.395221	0.477525
Cu24	Cu	1.237191	0.728554	0.810859
Cu25	Cu	0.570530	0.061890	-0.143892
Cu26	Cu	0.903864	0.395223	0.189441
Cu27	Cu	1.237197	0.728556	0.522775
O28	O	0.566152	0.132284	0.121920
O29	O	0.899485	0.465618	0.455253
O30	O	1.232819	0.798951	0.788587
C31	C	0.482124	0.066078	0.000121
C32	C	0.815457	0.399411	0.333454
C33	C	1.148790	0.732744	0.666788
C34	C	0.428469	0.065525	0.000105
C35	C	0.761802	0.398858	0.333438
C36	C	1.095135	0.732192	0.666771
C37	C	0.089654	0.106229	0.000151
C38	C	0.422987	0.439562	0.333484
C39	C	0.756320	0.772895	0.666818
C40	C	-0.112006	0.104178	0.000165
C41	C	0.221327	0.437511	0.333498
C42	C	0.554661	0.770844	0.666832
O43	O	-0.143262	0.141398	0.000213
O44	O	0.190072	0.474732	0.333546
O45	O	0.523405	0.808065	0.666880
N46	N	-0.131130	0.059843	0.000181
N47	N	0.202204	0.393176	0.333514
N48	N	0.535537	0.726509	0.666848
C49	C	-0.099835	0.016017	0.000203
C50	C	0.233498	0.349350	0.333536
C51	C	0.566832	0.682684	0.666870
O52	O	-0.120728	-0.021740	0.000232
O53	O	0.212605	0.311593	0.333565
O54	O	0.545938	0.644927	0.666898
C55	C	0.101824	0.018068	0.000199
C56	C	0.435157	0.351402	0.333533
C57	C	0.768490	0.684735	0.666866
C58	C	0.120944	0.062407	0.000169
C59	C	0.454278	0.395740	0.333502
C60	C	0.787611	0.729073	0.666835
C61	C	0.108775	0.150563	0.000122
C62	C	0.442108	0.483897	0.333455
C63	C	0.775442	0.817230	0.666789
C64	C	0.159187	0.151075	0.000111
C65	C	0.492520	0.484409	0.333444
C66	C	0.825853	0.817742	0.666777
C67	C	0.190477	0.107253	0.000128
C68	C	0.523811	0.440587	0.333461
C69	C	0.857144	0.773920	0.666795
C70	C	0.171356	0.062919	0.000157
C71	C	0.504690	0.396252	0.333491
C72	C	0.838023	0.729585	0.666824
C73	C	0.133117	-0.025757	0.000232
C74	C	0.466451	0.307577	0.333565
C75	C	0.799784	0.640910	0.666899
C76	C	0.183535	-0.025240	0.000235
C77	C	0.516868	0.308094	0.333568
C78	C	0.850201	0.641427	0.666901
C79	C	0.202655	0.019098	0.000204
C80	C	0.535989	0.352432	0.333537
C81	C	0.869322	0.685765	0.666871
C82	C	0.253059	0.019609	0.000163
C83	C	0.586392	0.352942	0.333497
C84	C	0.919725	0.686276	0.666830
N85	N	0.272183	0.063944	0.000148
N86	N	0.605516	0.397277	0.333481
N87	N	0.938849	0.730611	0.666814
C88	C	0.240892	0.107766	0.000130
C89	C	0.574225	0.441100	0.333463
C90	C	0.907559	0.774433	0.666797
C91	C	-0.205709	0.014943	0.000202
C92	C	0.127624	0.348276	0.333535
C93	C	0.460957	0.681610	0.666868
C94	C	-0.256124	0.014430	0.000200
C95	C	0.077210	0.347763	0.333533
C96	C	0.410543	0.681097	0.666867
C97	C	-0.268291	0.102591	0.000165
C98	C	0.065042	0.435924	0.333498
C99	C	0.398376	0.769258	0.666832
C100	C	-0.217876	0.103104	0.000156
C101	C	0.115458	0.436437	0.333490
C102	C	0.448791	0.769770	0.666823
C103	C	-0.186585	0.059278	0.000186
C104	C	0.146748	0.392612	0.333519
C105	C	0.480081	0.725945	0.666853
C106	C	0.346761	0.108839	0.000105
C107	C	0.680094	0.442172	0.333438
C108	C	1.013428	0.775505	0.666771
C109	C	0.397178	0.109347	0.000087
C110	C	0.730511	0.442681	0.333420
C111	C	1.063845	0.776014	0.666754
C112	C	0.409341	0.021186	0.000130
C113	C	0.742674	0.354520	0.333463
C114	C	1.076008	0.687853	0.666797
C115	C	0.358929	0.020678	0.000140
C116	C	0.692262	0.354011	0.333473
C117	C	1.025595	0.687344	0.666806
C118	C	0.327639	0.064508	0.000132
C119	C	0.660973	0.397841	0.333465
C120	C	0.994306	0.731175	0.666799
O121	O	0.284343	-0.017592	0.000132
O122	O	0.617676	0.315741	0.333465
O123	O	0.951009	0.649075	0.666799
O124	O	0.261794	0.145518	0.000133
O125	O	0.595128	0.478851	0.333467
O126	O	0.928461	0.812184	0.666800
C127	C	0.039242	0.105716	0.000163
C128	C	0.372575	0.439050	0.333496
C129	C	0.705908	0.772383	0.666829
C130	C	0.020120	0.061382	0.000192
C131	C	0.353454	0.394715	0.333525
C132	C	0.686787	0.728049	0.666858
C133	C	0.051411	0.017560	0.000209
C134	C	0.384744	0.350893	0.333543
C135	C	0.718078	0.684226	0.666876
C136	C	-0.030294	0.060869	0.000190
C137	C	0.303039	0.394202	0.333523
C138	C	0.636373	0.727536	0.666857
C139	C	-0.061585	0.104691	0.000172
C140	C	0.271749	0.438025	0.333506
C141	C	0.605082	0.771358	0.666839
C142	C	-0.042461	0.149026	0.000156
C143	C	0.290872	0.482360	0.333490
C144	C	0.624206	0.815693	0.666823
C145	C	0.007951	0.149539	0.000145
C146	C	0.341284	0.482872	0.333478
C147	C	0.674618	0.816205	0.666812
C148	C	0.032287	-0.026775	0.000225
C149	C	0.365621	0.306558	0.333558
C150	C	0.698954	0.639891	0.666892
C151	C	-0.018125	-0.027284	0.000235
C152	C	0.315208	0.306049	0.333568
C153	C	0.648541	0.639383	0.666902
C154	C	-0.049416	0.016538	0.000217
C155	C	0.283917	0.349871	0.333551
C156	C	0.617251	0.683205	0.666884
C157	C	0.574716	-0.026515	0.000183
C158	C	0.908050	0.306818	0.333517
C159	C	1.241383	0.640152	0.666850
C160	C	0.574164	-0.080170	0.000195
C161	C	0.907497	0.253163	0.333528
C162	C	1.240830	0.586497	0.666862
C163	C	0.614867	-0.418985	0.000133
C164	C	0.948201	-0.085652	0.333467
C165	C	1.281534	0.247682	0.666800
C166	C	0.612816	-0.620645	0.000112
C167	C	0.946150	-0.287311	0.333446
C168	C	1.279483	0.046022	0.666779
O169	O	0.650037	-0.651900	0.000060
O170	O	0.983370	-0.318567	0.333394
O171	O	1.316704	0.014766	0.666727
N172	N	0.568481	-0.639768	0.000099
N173	N	0.901814	-0.306435	0.333432
N174	N	1.235148	0.026898	0.666766
C175	C	0.524656	-0.608474	0.000081
C176	C	0.857989	-0.275140	0.333415
C177	C	1.191322	0.058193	0.666748
O178	O	0.486899	-0.629367	0.000055
O179	O	0.820232	-0.296033	0.333388
O180	O	1.153565	0.037300	0.666721
C181	C	0.526707	-0.406815	0.000092
C182	C	0.860040	-0.073482	0.333425
C183	C	1.193374	0.259852	0.666759
C184	C	0.571045	-0.387694	0.000120
C185	C	0.904378	-0.054361	0.333453
C186	C	1.237712	0.278972	0.666787
C187	C	0.659202	-0.399864	0.000160
C188	C	0.992535	-0.066530	0.333493
C189	C	1.325868	0.266803	0.666827
C190	C	0.659714	-0.349452	0.000173
C191	C	0.993047	-0.016118	0.333506
C192	C	1.326381	0.317215	0.666840
C193	C	0.615892	-0.318161	0.000160
C194	C	0.949225	0.015172	0.333493
C195	C	1.282559	0.348506	0.666827
C196	C	0.571557	-0.337282	0.000133
C197	C	0.904891	-0.003949	0.333467
C198	C	1.238224	0.329384	0.666800
C199	C	0.482882	-0.375521	0.000064
C200	C	0.816215	-0.042188	0.333397
C201	C	1.149549	0.291145	0.666731
C202	C	0.483399	-0.325104	0.000063
C203	C	0.816732	0.008229	0.333396
C204	C	1.150066	0.341563	0.666729
C205	C	0.527737	-0.305983	0.000091
C206	C	0.861070	0.027350	0.333424
C207	C	1.194404	0.360683	0.666758
C208	C	0.528247	-0.255580	0.000133
C209	C	0.861581	0.077754	0.333467
C210	C	1.194914	0.411087	0.666800
N211	N	0.572583	-0.236456	0.000147
N212	N	0.905916	0.096877	0.333480
N213	N	1.239249	0.430211	0.666813
C214	C	0.616405	-0.267747	0.000160
C215	C	0.949738	0.065587	0.333493
C216	C	1.283072	0.398920	0.666827
C217	C	0.523582	-0.714348	0.000079
C218	C	0.856915	-0.381014	0.333412
C219	C	1.190248	-0.047681	0.666745
C220	C	0.523069	-0.764762	0.000079
C221	C	0.856402	-0.431429	0.333412
C222	C	1.189735	-0.098096	0.666745
C223	C	0.611230	-0.776930	0.000107
C224	C	0.944563	-0.443596	0.333440
C225	C	1.277896	-0.110263	0.666774
C226	C	0.611742	-0.726514	0.000117
C227	C	0.945075	-0.393181	0.333451
C228	C	1.278409	-0.059848	0.666784
C229	C	0.567917	-0.695224	0.000092
C230	C	0.901250	-0.361891	0.333425
C231	C	1.234583	-0.028557	0.666759
C232	C	0.617477	-0.161878	0.000189
C233	C	0.950811	0.171456	0.333522
C234	C	1.284144	0.504789	0.666856
C235	C	0.617986	-0.111461	0.000208
C236	C	0.951319	0.221873	0.333542
C237	C	1.284652	0.555206	0.666875
C238	C	0.529825	-0.099298	0.000172
C239	C	0.863158	0.234036	0.333506
C240	C	1.196492	0.567369	0.666839
C241	C	0.529316	-0.149710	0.000161
C242	C	0.862650	0.183623	0.333494
C243	C	1.195983	0.516957	0.666828
C244	C	0.573147	-0.180999	0.000164
C245	C	0.906480	0.152334	0.333498
C246	C	1.239813	0.485667	0.666831
O247	O	0.491047	-0.224296	0.000169
O248	O	0.824380	0.109038	0.333502
O249	O	1.157713	0.442371	0.666835
O250	O	0.654156	-0.246844	0.000154
O251	O	0.987490	0.086489	0.333488
O252	O	1.320823	0.419823	0.666821
C253	C	0.614355	-0.469397	0.000120
C254	C	0.947688	-0.136064	0.333453
C255	C	1.281022	0.197270	0.666787
C256	C	0.570021	-0.488518	0.000094
C257	C	0.903354	-0.155185	0.333427
C258	C	1.236687	0.178148	0.666760
C259	C	0.526198	-0.457228	0.000080
C260	C	0.859532	-0.123894	0.333414
C261	C	1.192865	0.209439	0.666747
C262	C	0.569508	-0.538933	0.000094
C263	C	0.902841	-0.205599	0.333427
C264	C	1.236174	0.127734	0.666760
C265	C	0.613330	-0.570223	0.000107
C266	C	0.946663	-0.236890	0.333440
C267	C	1.279996	0.096443	0.666773
C268	C	0.657665	-0.551100	0.000120
C269	C	0.990998	-0.217766	0.333453
C270	C	1.324332	0.115567	0.666787
C271	C	0.658177	-0.500688	0.000133
C272	C	0.991511	-0.167354	0.333467
C273	C	1.324844	0.165979	0.666800
C274	C	0.481863	-0.476351	0.000067
C275	C	0.815197	-0.143018	0.333400
C276	C	1.148530	0.190315	0.666734
C277	C	0.481355	-0.526764	0.000056
C278	C	0.814688	-0.193430	0.333389
C279	C	1.148021	0.139903	0.666722
C280	C	0.525177	-0.558054	0.000069
C281	C	0.858510	-0.224721	0.333402
C282	C	1.191843	0.108612	0.666735
C283	C	0.658931	0.057699	0.000176
C284	C	0.992264	0.391033	0.333509
C285	C	1.325598	0.724366	0.666842
C286	C	0.712586	0.058252	0.000182
C287	C	1.045919	0.391586	0.333516
C288	C	1.379252	0.724919	0.666849
C289	C	0.566338	0.150292	0.000113
C290	C	0.899671	0.483626	0.333447
C291	C	1.233005	0.816959	0.666780
C292	C	0.566891	0.203947	0.000092
C293	C	0.900224	0.537280	0.333425
C294	C	1.233557	0.870614	0.666759
N295	N	0.570524	0.061885	0.346815
N296	N	0.903857	0.395219	0.680148
N297	N	1.237190	0.728552	1.013481
N298	N	0.570535	0.061888	-0.346515
N299	N	0.903868	0.395221	-0.013181
N300	N	1.237201	0.728555	0.320152
C301	C	0.603642	0.028791	0.423490
C302	C	0.936976	0.362124	0.756823
C303	C	1.270309	0.695458	1.090156
C304	C	0.603647	0.028791	0.576826
C305	C	0.936980	0.362124	0.910160
C306	C	1.270314	0.695458	1.243493
C307	C	0.537412	0.094984	0.576800
C308	C	0.870746	0.428317	0.910133
C309	C	1.204079	0.761651	1.243466
C310	C	0.537406	0.094981	0.423465
C311	C	0.870739	0.428315	0.756799
C312	C	1.204073	0.761648	1.090132
H313	H	0.209009	-0.060929	0.000260
H314	H	0.542343	0.272405	0.333593
H315	H	0.875676	0.605738	0.666927
F316	F	0.179530	0.198267	0.000085
F317	F	0.512863	0.531600	0.333418
F318	F	0.846197	0.864933	0.666752
H319	H	-0.033688	-0.063392	0.000248
H320	H	0.299645	0.269941	0.333582
H321	H	0.632979	0.603275	0.666915
F322	F	0.638888	-0.006434	0.341918
F323	F	0.972221	0.326900	0.675251
F324	F	1.305555	0.660233	1.008585
F325	F	0.502153	0.130204	0.341856
F326	F	0.835486	0.463538	0.675189
F327	F	1.168819	0.796871	1.008522
H328	H	0.630615	0.001842	0.639251
H329	H	0.963948	0.335175	0.972585
H330	H	1.297281	0.668509	1.305918
H331	H	0.412743	0.145454	0.000061
H332	H	0.746076	0.478787	0.333394
H333	H	1.079410	0.812121	0.666728
H334	H	0.694282	-0.485125	0.000156
H335	H	1.027615	-0.151791	0.333489
H336	H	1.360949	0.181542	0.666822
F337	F	0.065583	-0.073420	0.000247
F338	F	0.398917	0.259914	0.333580
F339	F	0.732250	0.593247	0.666913
H340	H	0.694889	-0.425336	0.000165
H341	H	1.028223	-0.092003	0.333499
H342	H	1.361556	0.241330	0.666832
H343	H	0.487892	-0.688875	0.000058
H344	H	0.821225	-0.355542	0.333392
H345	H	1.154558	-0.022208	0.666725
F346	F	0.435691	-0.395860	0.000028
F347	F	0.769024	-0.062526	0.333361
F348	F	1.102357	0.270807	0.666694
H349	H	0.510449	0.121931	0.639224
H350	H	0.843783	0.455264	0.972557
H351	H	1.177116	0.788597	1.305891
H352	H	0.083302	0.186251	0.000113
H353	H	0.416636	0.519584	0.333446
H354	H	0.749969	0.852917	0.666780
H355	H	0.321291	0.144530	0.000103
H356	H	0.654624	0.477863	0.333436
H357	H	0.987957	0.811196	0.666770
F358	F	-0.197531	0.150294	0.000126
F359	F	0.135803	0.483627	0.333460
F360	F	0.469136	0.816960	0.666793
H361	H	0.494146	-0.073812	0.000167
H362	H	0.827480	0.259522	0.333500
H363	H	1.160813	0.592855	0.666834
H364	H	0.653168	-0.187348	0.000186
H365	H	0.986501	0.145985	0.333519
H366	H	1.319835	0.479319	0.666853
H367	H	-0.293777	0.138273	0.000151
H368	H	0.039557	0.471606	0.333484
H369	H	0.372890	0.804939	0.666818
H370	H	-0.067947	0.184708	0.000136
H371	H	0.265386	0.518041	0.333469
H372	H	0.598720	0.851375	0.666803
F373	F	-0.276468	-0.032761	0.000200
F374	F	0.056866	0.300573	0.333533
F375	F	0.390199	0.633906	0.666867
H376	H	0.647846	-0.710950	0.000139
H377	H	0.981179	-0.377617	0.333472
H378	H	1.314513	-0.044283	0.666806
H379	H	0.117558	-0.061861	0.000258
H380	H	0.450892	0.271472	0.333591
H381	H	0.784225	0.604805	0.666925
F382	F	-0.172413	-0.031705	0.000232
F383	F	0.160920	0.301628	0.333565
F384	F	0.494254	0.634961	0.666899
F385	F	0.338578	-0.026511	0.000173
F386	F	0.671911	0.306822	0.333506
F387	F	1.005245	0.640155	0.666840
H388	H	0.023514	0.185643	0.000122
H389	H	0.356847	0.518977	0.333455
H390	H	0.690181	0.852310	0.666789
F391	F	0.442651	-0.025450	0.000151
F392	F	0.775985	0.307884	0.333484
F393	F	1.109318	0.641217	0.666817
F394	F	0.665178	-0.091114	0.000238
F395	F	0.998512	0.242219	0.333571
F396	F	1.331845	0.575552	0.666904
H397	H	0.447710	-0.299629	0.000040
H398	H	0.781043	0.033704	0.333373
H399	H	1.114377	0.367037	0.666707
H400	H	0.695819	-0.333889	0.000190
H401	H	1.029152	-0.000555	0.333523
H402	H	1.362485	0.332778	0.666857
H403	H	0.646911	-0.802415	0.000118
H404	H	0.980245	-0.469082	0.333452
H405	H	1.313578	-0.135749	0.666785
F406	F	0.482127	-0.170060	0.000157
F407	F	0.815461	0.163273	0.333491
F408	F	1.148794	0.496606	0.666824
F409	F	0.475878	-0.785106	0.000075
F410	F	0.809211	-0.451773	0.333408
F411	F	1.142545	-0.118439	0.666742
H412	H	0.445246	-0.542327	0.000045
H413	H	0.778580	-0.208993	0.333379
H414	H	1.111913	0.124340	0.666712
F415	F	0.704304	-0.584410	0.000142
F416	F	1.037637	-0.251077	0.333475
F417	F	1.370970	0.082256	0.666809
H418	H	0.446177	-0.450879	0.000053
H419	H	0.779510	-0.117545	0.333386
H420	H	1.112844	0.215788	0.666720
