data_functionalizedCrystal
_audit_creation_method	'MofGen! by Chris Wilmer'
_symmetry_space_group_name_H-M	'P1'
_symmetry_Int_Tables_number	1
_symmetry_cell_setting	triclinic
loop_
_symmetry_equiv_pos_as_xyz
  x,y,z
_cell_length_a	19.077409
_cell_length_b	21.295412
_cell_length_c	21.295417
_cell_angle_alpha	89.969332
_cell_angle_beta	92.332467
_cell_angle_gamma	92.268267
loop_
_atom_site_label
_atom_site_type_symbol
_atom_site_fract_x
_atom_site_fract_y
_atom_site_fract_z
Zn1	Zn	1.075969	-0.317387	-0.211929
Zn2	Zn	1.575969	0.182613	0.288071
Zn3	Zn	1.075862	-0.212117	-0.317201
Zn4	Zn	1.575862	0.287883	0.182799
Zn5	Zn	0.958265	-0.216347	-0.216179
Zn6	Zn	1.458265	0.283653	0.283821
Zn7	Zn	0.958229	-0.321560	-0.321399
Zn8	Zn	1.458229	0.178440	0.178601
O9	O	1.017081	-0.266853	-0.266677
O10	O	1.517081	0.233147	0.233323
O11	O	1.174445	-0.299906	-0.222358
O12	O	1.674445	0.200094	0.277642
O13	O	1.060233	-0.124589	-0.303823
O14	O	1.560233	0.375411	0.196177
O15	O	0.973939	-0.229774	-0.127524
O16	O	1.473939	0.270226	0.372476
O17	O	1.174366	-0.222564	-0.299701
O18	O	1.674366	0.277436	0.200299
O19	O	1.060415	-0.304008	-0.124401
O20	O	1.560415	0.195992	0.375599
O21	O	0.973835	-0.127697	-0.229602
O22	O	1.473835	0.372303	0.270398
O23	O	0.859770	-0.233820	-0.233672
O24	O	1.359770	0.266180	0.266328
O25	O	0.973877	-0.409095	-0.306855
O26	O	1.473877	0.090905	0.193145
O27	O	0.859744	-0.311120	-0.310976
O28	O	1.359744	0.188880	0.189024
O29	O	1.060380	-0.406029	-0.226428
O30	O	1.560380	0.093971	0.273572
O31	O	1.060198	-0.226611	-0.405850
O32	O	1.560198	0.273389	0.094150
O33	O	0.973773	-0.307018	-0.408933
O34	O	1.473773	0.192982	0.091067
C35	C	0.834220	-0.273382	-0.273241
C36	C	1.334220	0.226618	0.226759
C37	C	0.755991	-0.276190	-0.276065
C38	C	1.255991	0.223810	0.223935
C39	C	0.315646	-0.296362	-0.296265
C40	C	0.815646	0.203638	0.203735
C41	C	0.389150	-0.293711	-0.293617
C42	C	0.889150	0.206289	0.206383
C43	C	0.425893	-0.252207	-0.251980
C44	C	0.925893	0.247793	0.248020
C45	C	0.389128	-0.213346	-0.212993
C46	C	0.889128	0.286654	0.287007
C47	C	0.315625	-0.215994	-0.215644
C48	C	0.815625	0.284006	0.284356
C49	C	0.645723	-0.239977	-0.239729
C50	C	1.145723	0.260023	0.260271
C51	C	0.719231	-0.237334	-0.237079
C52	C	1.219231	0.262666	0.262921
C53	C	0.719248	-0.317699	-0.317705
C54	C	1.219248	0.182301	0.182295
C55	C	0.645743	-0.320345	-0.320350
C56	C	1.145743	0.179655	0.179650
C57	C	0.608985	-0.281482	-0.281365
C58	C	1.108985	0.218518	0.218635
N59	N	0.501026	-0.249498	-0.249271
N60	N	1.001026	0.250502	0.250729
N61	N	0.533853	-0.284188	-0.284078
N62	N	1.033853	0.215812	0.215922
C63	C	1.017136	-0.431041	-0.266636
C64	C	1.517136	0.068959	0.233364
C65	C	1.017160	-0.501008	-0.266618
C66	C	1.517160	-0.001008	0.233382
C67	C	0.972184	-0.535483	-0.227967
C68	C	1.472184	-0.035483	0.272033
C69	C	0.972182	-0.601226	-0.227955
C70	C	1.472182	-0.101226	0.272045
C71	C	1.017167	-0.632491	-0.266588
C72	C	1.517167	-0.132491	0.233412
C73	C	1.062146	-0.598008	-0.305247
C74	C	1.562146	-0.098008	0.194753
C75	C	1.062142	-0.532267	-0.305263
C76	C	1.562142	-0.032267	0.194737
N77	N	1.078778	-0.733523	-0.269180
N78	N	1.578778	-0.233523	0.230820
N79	N	1.078779	-0.795974	-0.269162
N80	N	1.578779	-0.295974	0.230838
C81	C	1.017180	-0.830565	-0.266546
C82	C	1.517180	-0.330565	0.233454
N83	N	0.955578	-0.800345	-0.263936
N84	N	1.455578	-0.300345	0.236064
N85	N	0.955578	-0.737888	-0.263951
N86	N	1.455578	-0.237888	0.236049
C87	C	1.017176	-0.703776	-0.266576
C88	C	1.517176	-0.203776	0.233424
C89	C	0.972198	-0.936325	-0.227879
C90	C	1.472198	-0.436325	0.272121
C91	C	0.972195	-1.002069	-0.227872
C92	C	1.472195	-0.502069	0.272128
C93	C	1.062165	-0.998850	-0.305161
C94	C	1.562165	-0.498850	0.194839
C95	C	1.062163	-0.933108	-0.305172
C96	C	1.562163	-0.433108	0.194828
C97	C	1.017180	-0.901849	-0.266528
C98	C	1.517180	-0.401849	0.233472
C99	C	1.200657	-0.260298	-0.260088
C100	C	1.700657	0.239702	0.239912
C101	C	1.278886	-0.257505	-0.257279
C102	C	1.778886	0.242495	0.242721
C103	C	1.016989	-0.266821	-0.430232
C104	C	1.516989	0.233179	0.069768
C105	C	1.017014	-0.266826	-0.500199
C106	C	1.517014	0.233174	-0.000199
C107	C	1.017067	-0.103302	-0.266671
C108	C	1.517067	0.396698	0.233329
C109	C	1.017180	-0.033330	-0.266506
C110	C	1.517180	0.466670	0.233494
C111	C	1.062055	-0.224998	-0.531438
C112	C	1.562055	0.275002	-0.031438
C113	C	1.062088	-0.225011	-0.597179
C114	C	1.562088	0.274989	-0.097179
C115	C	1.017067	-0.266846	-0.631680
C116	C	1.517067	0.233154	-0.131680
C117	C	0.972023	-0.308683	-0.600433
C118	C	1.472023	0.191317	-0.100433
C119	C	0.971996	-0.308673	-0.534693
C120	C	1.471996	0.191327	-0.034693
N121	N	0.955499	-0.273844	-0.737160
N122	N	1.455499	0.226156	-0.237160
N123	N	0.955526	-0.273849	-0.799610
N124	N	1.455526	0.226151	-0.299610
C125	C	1.017146	-0.266880	-0.829752
C126	C	1.517146	0.233120	-0.329752
N127	N	1.078739	-0.259892	-0.795083
N128	N	1.578739	0.240108	-0.295083
N129	N	1.078711	-0.259883	-0.732627
N130	N	1.578711	0.240117	-0.232627
C131	C	1.017092	-0.266862	-0.702964
C132	C	1.517092	0.233138	-0.202964
C133	C	1.062227	-0.225063	-0.932274
C134	C	1.562227	0.274937	-0.432274
C135	C	1.062261	-0.225080	-0.998017
C136	C	1.562261	0.274920	-0.498017
C137	C	0.972189	-0.308749	-1.001270
C138	C	1.472189	0.191251	-0.501270
C139	C	0.972162	-0.308735	-0.935529
C140	C	1.472162	0.191265	-0.435529
C141	C	1.017179	-0.266888	-0.901035
C142	C	1.517179	0.233112	-0.401035
C143	C	1.017193	-0.266898	-0.102483
C144	C	1.517193	0.233102	0.397517
C145	C	1.017241	-0.266917	-0.032513
C146	C	1.517241	0.233083	0.467487
H147	H	0.615832	-0.354141	-0.354257
H148	H	1.115832	0.145859	0.145743
H149	H	1.098944	-0.191020	-1.023450
H150	H	1.598944	0.308980	-0.523450
H151	H	1.098769	-0.190949	-0.622618
H152	H	1.598769	0.309051	-0.122618
H153	H	1.098886	-0.190991	-0.904188
H154	H	1.598886	0.309009	-0.404188
H155	H	0.935317	-0.342735	-0.509258
H156	H	1.435317	0.157265	-0.009258
O157	O	0.280032	-0.336766	-0.336675
O158	O	0.780032	0.163234	0.163325
C159	C	0.298034	-0.398883	-0.322342
C160	C	0.798034	0.101117	0.177658
H161	H	0.351415	-0.398310	-0.296222
H162	H	0.851415	0.101690	0.203778
H163	H	0.300547	-0.426934	-0.367720
H164	H	0.800547	0.073066	0.132280
H165	H	0.256697	-0.421635	-0.291497
H166	H	0.756697	0.078365	0.208503
O167	O	0.928191	-0.349294	-0.633878
O168	O	1.428191	0.150706	-0.133878
C169	C	0.858044	-0.337980	-0.620413
C170	C	1.358044	0.162020	-0.120413
H171	H	0.856580	-0.313825	-0.572751
H172	H	1.356580	0.186175	-0.072751
H173	H	0.826461	-0.384517	-0.619293
H174	H	1.326461	0.115483	-0.119293
H175	H	0.834370	-0.306451	-0.658305
H176	H	1.334370	0.193549	-0.158305
O177	O	1.105772	-0.628351	-0.342866
O178	O	1.605772	-0.128351	0.157134
C179	C	1.090358	-0.612806	-0.406163
C180	C	1.590358	-0.112806	0.093837
H181	H	1.034128	-0.596729	-0.411364
H182	H	1.534128	-0.096729	0.088636
H183	H	1.096403	-0.655817	-0.437033
H184	H	1.596403	-0.155817	0.062967
H185	H	1.128077	-0.573302	-0.421274
H186	H	1.628077	-0.073302	0.078726
H187	H	0.935536	-0.342815	-1.029360
H188	H	1.435536	0.157185	-0.529360
O189	O	0.424933	-0.331491	-0.331394
O190	O	0.924933	0.168509	0.168606
C191	C	0.467482	-0.370692	-0.294071
C192	C	0.967482	0.129308	0.205929
H193	H	0.478505	-0.348178	-0.245942
H194	H	0.978505	0.151822	0.254058
H195	H	0.519161	-0.377225	-0.317861
H196	H	1.019161	0.122775	0.182139
H197	H	0.439188	-0.418371	-0.288231
H198	H	0.939188	0.081629	0.211769
H199	H	1.098795	-1.024306	-0.336615
H200	H	1.598795	-0.524306	0.163385
H201	H	1.098788	-0.905038	-0.336645
H202	H	1.598788	-0.405038	0.163355
H203	H	0.749185	-0.349338	-0.349444
H204	H	1.249185	0.150662	0.150556
H205	H	0.615803	-0.208329	-0.207988
H206	H	1.115803	0.291671	0.292012
H207	H	0.749145	-0.203541	-0.203165
H208	H	1.249145	0.296459	0.296835
O209	O	0.928448	-0.505054	-0.190523
O210	O	1.428448	-0.005054	0.309477
C211	C	0.882949	-0.468644	-0.228005
C212	C	1.382949	0.031356	0.271995
H213	H	0.907738	-0.457898	-0.274821
H214	H	1.407738	0.042102	0.225179
H215	H	0.873526	-0.422759	-0.202712
H216	H	1.373526	0.077241	0.297288
H217	H	0.830791	-0.495834	-0.236789
H218	H	1.330791	0.004166	0.263211
O219	O	0.424927	-0.173084	-0.172563
O220	O	0.924927	0.326916	0.327437
C221	C	0.497686	-0.179068	-0.178590
C222	C	0.997686	0.320932	0.321410
H223	H	0.507750	-0.227246	-0.198910
H224	H	1.007750	0.272754	0.301090
H225	H	0.525638	-0.173882	-0.130424
H226	H	1.025638	0.326118	0.369576
H227	H	0.518504	-0.140916	-0.211310
H228	H	1.018504	0.359084	0.288690
O229	O	0.928334	-0.349383	-0.905280
O230	O	1.428334	0.150617	-0.405280
C231	C	0.888615	-0.386323	-0.949825
C232	C	1.388615	0.113677	-0.449825
H233	H	0.886214	-0.360632	-0.996795
H234	H	1.386214	0.139368	-0.496795
H235	H	0.833150	-0.394972	-0.932865
H236	H	1.333150	0.105028	-0.432865
H237	H	0.914362	-0.433233	-0.955835
H238	H	1.414362	0.066767	-0.455835
O239	O	1.105736	-0.498750	-0.342879
O240	O	1.605736	0.001250	0.157121
C241	C	1.065637	-0.462118	-0.384971
C242	C	1.565637	0.037882	0.115029
H243	H	1.010202	-0.483894	-0.390845
H244	H	1.510202	0.016106	0.109155
H245	H	1.091058	-0.460452	-0.432503
H246	H	1.591058	0.039548	0.067497
H247	H	1.063224	-0.412387	-0.365602
H248	H	1.563224	0.087613	0.134398
H249	H	0.935570	-0.910873	-0.196414
H250	H	1.435570	-0.410873	0.303586
O251	O	0.280023	-0.178225	-0.177710
O252	O	0.780023	0.321775	0.322290
C253	C	0.328213	-0.141014	-0.140401
C254	C	0.828213	0.358986	0.359599
H255	H	0.380628	-0.164914	-0.136364
H256	H	0.880628	0.335086	0.363636
H257	H	0.306992	-0.135155	-0.091561
H258	H	0.806992	0.364845	0.408439
H259	H	0.335986	-0.092882	-0.163109
H260	H	0.835986	0.407118	0.336891
H261	H	0.935558	-0.629300	-0.196477
H262	H	1.435558	-0.129300	0.303523
O263	O	0.928401	-1.035491	-0.190359
O264	O	1.428401	-0.535491	0.309641
C265	C	0.858245	-1.021916	-0.206645
C266	C	1.358245	-0.521916	0.293355
H267	H	0.856771	-0.974229	-0.230907
H268	H	1.356771	-0.474229	0.269093
H269	H	0.826720	-1.020796	-0.162344
H270	H	1.326720	-0.520796	0.337656
H271	H	0.834512	-1.059746	-0.239850
H272	H	1.334512	-0.559746	0.260150
O273	O	1.105858	-0.184334	-0.498026
O274	O	1.605858	0.315666	0.001974
C275	C	1.145609	-0.147408	-0.539702
C276	C	1.645609	0.352592	-0.039702
H277	H	1.148045	-0.173113	-0.586458
H278	H	1.648045	0.326887	-0.086458
H279	H	1.201060	-0.138753	-0.518676
H280	H	1.701060	0.361247	-0.018676
H281	H	1.119867	-0.100499	-0.547670
H282	H	1.619867	0.399501	-0.047670
