data_functionalizedCrystal
_audit_creation_method	'MofGen! by Chris Wilmer'
_symmetry_space_group_name_H-M	'P1'
_symmetry_Int_Tables_number	1
_symmetry_cell_setting	triclinic
loop_
_symmetry_equiv_pos_as_xyz
  x,y,z
_cell_length_a	16.625546
_cell_length_b	13.032951
_cell_length_c	13.032268
_cell_angle_alpha	89.114265
_cell_angle_beta	97.144614
_cell_angle_gamma	97.175817
loop_
_atom_site_label
_atom_site_type_symbol
_atom_site_fract_x
_atom_site_fract_y
_atom_site_fract_z
Zn1	Zn	-0.544578	-1.498424	-0.780818
Zn2	Zn	-0.294578	-1.248424	-0.530818
Zn3	Zn	-0.044578	-0.998424	-0.280818
Zn4	Zn	0.205422	-0.748424	-0.030818
Zn5	Zn	-0.664710	-1.520155	-0.608826
Zn6	Zn	-0.414710	-1.270155	-0.358826
Zn7	Zn	-0.164710	-1.020155	-0.108826
Zn8	Zn	0.085290	-0.770155	0.141174
Zn9	Zn	-0.510890	-1.348286	-0.587058
Zn10	Zn	-0.260890	-1.098286	-0.337058
Zn11	Zn	-0.010890	-0.848286	-0.087058
Zn12	Zn	0.239110	-0.598286	0.162942
Zn13	Zn	-0.660343	-1.326404	-0.758946
Zn14	Zn	-0.410343	-1.076404	-0.508946
Zn15	Zn	-0.160343	-0.826404	-0.258946
Zn16	Zn	0.089657	-0.576404	-0.008946
O17	O	-0.595130	-1.423317	-0.683912
O18	O	-0.345130	-1.173317	-0.433912
O19	O	-0.095130	-0.923317	-0.183912
O20	O	0.154870	-0.673317	0.066088
O21	O	-0.576440	-1.645225	-0.776266
O22	O	-0.326440	-1.395225	-0.526266
O23	O	-0.076440	-1.145225	-0.276266
O24	O	0.173560	-0.895225	-0.026266
O25	O	-0.632034	-1.515608	-0.462023
O26	O	-0.382034	-1.265608	-0.212023
O27	O	-0.132034	-1.015608	0.037977
O28	O	0.117966	-0.765608	0.287977
O29	O	-0.402537	-1.368265	-0.612805
O30	O	-0.152537	-1.118265	-0.362805
O31	O	0.097463	-0.868265	-0.112805
O32	O	0.347463	-0.618265	0.137195
O33	O	-0.664700	-1.661191	-0.649904
O34	O	-0.414700	-1.411191	-0.399904
O35	O	-0.164700	-1.161191	-0.149904
O36	O	0.085300	-0.911191	0.100096
O37	O	-0.427288	-1.478571	-0.755159
O38	O	-0.177288	-1.228571	-0.505159
O39	O	0.072712	-0.978571	-0.255159
O40	O	0.322712	-0.728571	-0.005159
O41	O	-0.519023	-1.389337	-0.446031
O42	O	-0.269023	-1.139337	-0.196031
O43	O	-0.019023	-0.889337	0.053969
O44	O	0.230977	-0.639337	0.303969
O45	O	-0.514789	-1.201465	-0.591596
O46	O	-0.264789	-0.951465	-0.341596
O47	O	-0.014789	-0.701465	-0.091596
O48	O	0.235211	-0.451465	0.158404
O49	O	-0.657257	-1.330971	-0.905762
O50	O	-0.407257	-1.080971	-0.655762
O51	O	-0.157257	-0.830971	-0.405762
O52	O	0.092743	-0.580971	-0.155762
O53	O	-0.624591	-1.185388	-0.717882
O54	O	-0.374591	-0.935388	-0.467882
O55	O	-0.124591	-0.685388	-0.217882
O56	O	0.125409	-0.435388	0.032118
O57	O	-0.572206	-1.457353	-0.921832
O58	O	-0.322206	-1.207353	-0.671832
O59	O	-0.072206	-0.957353	-0.421832
O60	O	0.177794	-0.707353	-0.171832
O61	O	-0.776952	-1.494391	-0.628696
O62	O	-0.526952	-1.244391	-0.378696
O63	O	-0.276952	-0.994391	-0.128696
O64	O	-0.026952	-0.744391	0.121304
O65	O	-0.773744	-1.352043	-0.738988
O66	O	-0.523744	-1.102043	-0.488988
O67	O	-0.273744	-0.852043	-0.238988
O68	O	-0.023744	-0.602043	0.011012
C69	C	-0.565561	-1.156110	-0.650004
C70	C	-0.315561	-0.906110	-0.400004
C71	C	-0.065561	-0.656110	-0.150004
C72	C	0.184439	-0.406110	0.099996
C73	C	-0.552933	-1.041794	-0.635523
C74	C	-0.302933	-0.791794	-0.385523
C75	C	-0.052933	-0.541794	-0.135523
C76	C	0.197067	-0.291794	0.114477
C77	C	-0.804607	-1.423225	-0.683857
C78	C	-0.554607	-1.173225	-0.433857
C79	C	-0.304607	-0.923225	-0.183857
C80	C	-0.054607	-0.673225	0.066143
C81	C	-0.894235	-1.423276	-0.683879
C82	C	-0.644235	-1.173276	-0.433879
C83	C	-0.394235	-0.923276	-0.183879
C84	C	-0.144235	-0.673276	0.066121
C85	C	-0.601702	-0.982914	-0.691456
C86	C	-0.351702	-0.732914	-0.441456
C87	C	-0.101702	-0.482914	-0.191456
C88	C	0.148298	-0.232914	0.058544
C89	C	-0.588651	-0.864763	-0.676490
C90	C	-0.338651	-0.614763	-0.426490
C91	C	-0.088651	-0.364763	-0.176490
C92	C	0.161349	-0.114763	0.073510
C93	C	-1.222439	-1.423442	-0.684009
C94	C	-0.972439	-1.173442	-0.434009
C95	C	-0.722439	-0.923442	-0.184009
C96	C	-0.472439	-0.673442	0.065991
C97	C	-1.131123	-1.423392	-0.683975
C98	C	-0.881123	-1.173392	-0.433975
C99	C	-0.631123	-0.923392	-0.183975
C100	C	-0.381123	-0.673392	0.066025
C101	C	-1.058340	-1.423358	-0.683944
C102	C	-0.808340	-1.173358	-0.433944
C103	C	-0.558340	-0.923358	-0.183944
C104	C	-0.308340	-0.673358	0.066056
C105	C	-0.967018	-1.423310	-0.683911
C106	C	-0.717018	-1.173310	-0.433911
C107	C	-0.467018	-0.923310	-0.183911
C108	C	-0.217018	-0.673310	0.066089
C109	C	-0.384841	-1.423435	-0.683994
C110	C	-0.134841	-1.173435	-0.433994
C111	C	0.115159	-0.923435	-0.183994
C112	C	0.365159	-0.673435	0.066006
C113	C	-0.295228	-1.423485	-0.684028
C114	C	-0.045228	-1.173485	-0.434028
C115	C	0.204772	-0.923485	-0.184028
C116	C	0.454772	-0.673485	0.065972
C117	C	-0.618002	-1.389297	-0.952156
C118	C	-0.368002	-1.139297	-0.702156
C119	C	-0.118002	-0.889297	-0.452156
C120	C	0.131998	-0.639297	-0.202156
C121	C	-0.627749	-1.374800	-1.066465
C122	C	-0.377749	-1.124800	-0.816465
C123	C	-0.127749	-0.874800	-0.566465
C124	C	0.122251	-0.624800	-0.316465
C125	C	-0.624805	-0.691569	-0.717946
C126	C	-0.374805	-0.441569	-0.467946
C127	C	-0.124805	-0.191569	-0.217946
C128	C	0.125195	0.058431	0.032054
C129	C	-0.637427	-0.805884	-0.732431
C130	C	-0.387427	-0.555884	-0.482431
C131	C	-0.137427	-0.305884	-0.232431
C132	C	0.112573	-0.055884	0.017569
C133	C	-0.590013	-1.430868	-1.125379
C134	C	-0.340013	-1.180868	-0.875379
C135	C	-0.090013	-0.930868	-0.625379
C136	C	0.159987	-0.680868	-0.375379
C137	C	-0.600085	-1.415885	-1.243524
C138	C	-0.350085	-1.165885	-0.993524
C139	C	-0.100085	-0.915885	-0.743524
C140	C	0.149915	-0.665885	-0.493524
C141	C	-0.572295	-1.457264	-0.416719
C142	C	-0.322295	-1.207264	-0.166719
C143	C	-0.072295	-0.957264	0.083281
C144	C	0.177705	-0.707264	0.333281
C145	C	-0.562344	-1.471961	-0.302436
C146	C	-0.312344	-1.221961	-0.052436
C147	C	-0.062344	-0.971961	0.197564
C148	C	0.187656	-0.721961	0.447564
H149	H	-0.653114	-1.019975	-0.750426
H150	H	-0.403114	-0.769975	-0.500426
H151	H	-0.153114	-0.519975	-0.250426
H152	H	0.096886	-0.269975	-0.000426
N153	N	-0.509659	-1.550238	-1.253408
N154	N	-0.259659	-1.300238	-1.003408
N155	N	-0.009659	-1.050238	-0.753408
N156	N	0.240341	-0.800238	-0.503408
H157	H	-0.509928	-1.549846	-1.175959
H158	H	-0.259928	-1.299846	-0.925959
H159	H	-0.009928	-1.049846	-0.675959
H160	H	0.240072	-0.799846	-0.425959
H161	H	-0.531920	-1.621326	-1.281446
H162	H	-0.281920	-1.371326	-1.031446
H163	H	-0.031920	-1.121326	-0.781446
H164	H	0.218080	-0.871326	-0.531446
H165	H	-0.667508	-1.315699	-1.103493
H166	H	-0.417508	-1.065699	-0.853493
H167	H	-0.167508	-0.815699	-0.603493
H168	H	0.082492	-0.565699	-0.353493
H169	H	-0.639847	-1.356781	-1.280547
H170	H	-0.389847	-1.106781	-1.030547
H171	H	-0.139847	-0.856781	-0.780547
H172	H	0.110153	-0.606781	-0.530547
H173	H	-0.537230	-0.827705	-0.617524
H174	H	-0.287230	-0.577705	-0.367524
H175	H	-0.037230	-0.327705	-0.117524
H176	H	0.212770	-0.077705	0.132476
H177	H	-0.688841	-0.842939	-0.791408
H178	H	-0.438841	-0.592939	-0.541408
H179	H	-0.188841	-0.342939	-0.291408
H180	H	0.061159	-0.092939	-0.041408
N181	N	-0.537357	-1.509165	-1.076337
N182	N	-0.287357	-1.259165	-0.826337
N183	N	-0.037357	-1.009165	-0.576337
N184	N	0.212643	-0.759165	-0.326337
H185	H	-0.491597	-1.473019	-1.026465
H186	H	-0.241597	-1.223019	-0.776465
H187	H	0.008403	-0.973019	-0.526465
H188	H	0.258403	-0.723019	-0.276465
H189	H	-0.571706	-1.562381	-1.037867
H190	H	-0.321706	-1.312381	-0.787867
H191	H	-0.071706	-1.062381	-0.537867
H192	H	0.178294	-0.812381	-0.287867
H193	H	-0.501516	-1.004732	-0.576560
H194	H	-0.251516	-0.754732	-0.326560
H195	H	-0.001516	-0.504732	-0.076560
H196	H	0.248484	-0.254732	0.173440
