data_functionalizedCrystal
_audit_creation_method	'MofGen! by Chris Wilmer'
_symmetry_space_group_name_H-M	'P1'
_symmetry_Int_Tables_number	1
_symmetry_cell_setting	triclinic
loop_
_symmetry_equiv_pos_as_xyz
  x,y,z
_cell_length_a	11.792241
_cell_length_b	8.559649
_cell_length_c	7.088929
_cell_angle_alpha	84.661815
_cell_angle_beta	96.256076
_cell_angle_gamma	76.986040
loop_
_atom_site_label
_atom_site_type_symbol
_atom_site_fract_x
_atom_site_fract_y
_atom_site_fract_z
O1	O	-1.473812	-0.235121	0.158796
O2	O	-0.973812	0.264879	0.658796
O3	O	-1.141403	-0.257679	0.158840
O4	O	-0.641403	0.242321	0.658840
O5	O	-1.336893	-0.014051	0.158812
O6	O	-0.836893	0.485949	0.658812
O7	O	-1.278322	-0.478749	0.158824
O8	O	-0.778322	0.021251	0.658824
O9	O	-1.363039	0.018558	-0.159167
O10	O	-0.863039	0.518558	0.340833
O11	O	-1.167549	-0.225070	-0.159139
O12	O	-0.667549	0.274930	0.340861
O13	O	-1.499958	-0.202512	-0.159183
O14	O	-0.999958	0.297488	0.340817
Cu15	Cu	-1.336141	-0.210813	-0.188195
Cu16	Cu	-0.836141	0.289187	0.311805
Cu17	Cu	-1.305220	-0.249378	0.187852
Cu18	Cu	-0.805220	0.250622	0.687852
O19	O	-1.304468	-0.446140	-0.159155
O20	O	-0.804468	0.053860	0.340845
C21	C	-1.112314	-0.239958	-0.000144
C22	C	-0.612314	0.260042	0.499856
C23	C	-0.986687	-0.235720	-0.000127
C24	C	-0.486687	0.264280	0.499873
C25	C	-1.354405	0.061745	-0.000174
C26	C	-0.854405	0.561745	0.499826
C27	C	-1.367616	0.239009	-0.000165
C28	C	-0.867616	0.739009	0.499835
C29	C	-1.529047	-0.220233	-0.000195
C30	C	-1.029047	0.279767	0.499805
C31	C	-1.654673	-0.224473	-0.000199
C32	C	-1.154673	0.275527	0.499801
C33	C	-0.756693	-0.227917	-0.000182
C34	C	-0.256693	0.272083	0.499818
C35	C	-0.884680	-0.232252	-0.000152
C36	C	-0.384680	0.267748	0.499848
C37	C	-1.286956	-0.521936	-0.000164
C38	C	-0.786956	-0.021936	0.499836
C39	C	-1.273744	-0.699202	-0.000161
C40	C	-0.773744	-0.199202	0.499839
N41	N	-1.357897	-0.183688	-0.452686
N42	N	-0.857897	0.316312	0.047314
N43	N	-1.283474	-0.276490	0.452343
N44	N	-0.783474	0.223510	0.952343
H45	H	-1.183268	0.218085	-0.000155
H46	H	-0.683268	0.718085	0.499845
C47	C	-1.462104	-0.053771	-0.563001
C48	C	-0.962104	0.446229	-0.063001
N49	N	-1.540593	0.044087	-0.646103
N50	N	-1.040593	0.544087	-0.146103
C51	C	-1.489857	0.350760	-0.000192
C52	C	-0.989857	0.850760	0.499808
N53	N	-1.581926	0.434931	-0.000209
N54	N	-1.081926	0.934931	0.499791
C55	C	-1.179261	-0.406413	-0.437333
C56	C	-0.679261	0.093587	0.062667
N57	N	-1.100769	-0.504267	-0.354236
N58	N	-0.600769	-0.004267	0.145764
