data_functionalizedCrystal
_audit_creation_method	'MofGen! by Chris Wilmer'
_symmetry_space_group_name_H-M	'P1'
_symmetry_Int_Tables_number	1
_symmetry_cell_setting	triclinic
loop_
_symmetry_equiv_pos_as_xyz
  x,y,z
_cell_length_a	15.297475
_cell_length_b	16.625546
_cell_length_c	15.298259
_cell_angle_alpha	80.285010
_cell_angle_beta	88.370891
_cell_angle_gamma	80.324704
loop_
_atom_site_label
_atom_site_type_symbol
_atom_site_fract_x
_atom_site_fract_y
_atom_site_fract_z
Zn1	Zn	1.253508	-0.402736	-0.726648
Zn2	Zn	1.278750	-0.564160	-0.580141
Zn3	Zn	1.132361	-0.410579	-0.554872
Zn4	Zn	1.106994	-0.518759	-0.701284
O5	O	1.192903	-0.474059	-0.640736
O6	O	1.379437	-0.439868	-0.728404
O7	O	1.280512	-0.566070	-0.454201
O8	O	1.148484	-0.296708	-0.577698
O9	O	1.397983	-0.558465	-0.620766
O10	O	1.237490	-0.290946	-0.703902
O11	O	1.172960	-0.453234	-0.435636
O12	O	1.006415	-0.409211	-0.553103
O13	O	1.105249	-0.481086	-0.827236
O14	O	0.987778	-0.488690	-0.660672
O15	O	1.212892	-0.395844	-0.845872
O16	O	1.255914	-0.670968	-0.596171
O17	O	1.129725	-0.637612	-0.685174
C18	C	0.965312	-0.444875	-0.601393
C19	C	0.867944	-0.432406	-0.584583
C20	C	0.554824	-0.563182	-0.760884
C21	C	0.646307	-0.574904	-0.776675
C22	C	0.701720	-0.539280	-0.728654
C23	C	0.665643	-0.491933	-0.664838
C24	C	0.574152	-0.480216	-0.649040
C25	C	0.721048	-0.456314	-0.616810
C26	C	0.684971	-0.408967	-0.552994
C27	C	0.593489	-0.397251	-0.537199
C28	C	0.538075	-0.432875	-0.585220
C29	C	0.812539	-0.468032	-0.632608
C30	C	0.831867	-0.385065	-0.520764
C31	C	0.740385	-0.373344	-0.504972
C32	C	1.192827	-0.683545	-0.640685
C33	C	1.192869	-0.773170	-0.640707
C34	C	1.193006	-1.101348	-0.640824
C35	C	1.192965	-1.010038	-0.640793
C36	C	1.192937	-0.937262	-0.640765
C37	C	1.192897	-0.845946	-0.640735
C38	C	1.421383	-0.503356	-0.680233
C39	C	1.518747	-0.515841	-0.697064
C40	C	1.153425	-0.432526	-0.869228
C41	C	1.136602	-0.414827	-0.966598
C42	C	1.193001	-0.263753	-0.640811
C43	C	1.193042	-0.174134	-0.640842
C44	C	1.313170	-0.599936	-1.279724
C45	C	1.328971	-0.616570	-1.188239
C46	C	1.280881	-0.566135	-1.132825
C47	C	1.216985	-0.499065	-1.168903
C48	C	1.201177	-0.482434	-1.260396
C49	C	1.168888	-0.448633	-1.113497
C50	C	1.104992	-0.381563	-1.149575
C51	C	1.089188	-0.364935	-1.241059
C52	C	1.137278	-0.415369	-1.296474
C53	C	1.184696	-0.465264	-1.022004
C54	C	1.072703	-0.347762	-1.002676
C55	C	1.056902	-0.331129	-1.094161
C56	C	1.232278	-0.515378	-0.413142
C57	C	1.249271	-0.532871	-0.315802
H58	H	0.463581	-0.423332	-0.572368
C59	C	0.851876	-0.519434	-0.701828
C60	C	0.943858	-0.522091	-0.705374
C61	C	0.980125	-0.569445	-0.769126
H62	H	0.826821	-0.495155	-0.758176
H63	H	0.839150	-0.574044	-0.686308
H64	H	0.956577	-0.467492	-0.720899
H65	H	0.968937	-0.546377	-0.649042
H66	H	0.967398	-0.624055	-0.753606
H67	H	0.955063	-0.545162	-0.825470
H68	H	1.042538	-0.571261	-0.771536
C69	C	1.019684	-0.292238	-1.280250
C70	C	0.954431	-0.321154	-1.323024
C71	C	0.890381	-0.254214	-1.359121
H72	H	1.046918	-0.254868	-1.321801
H73	H	0.993252	-0.264590	-1.234161
H74	H	0.980860	-0.348788	-1.369107
H75	H	0.927174	-0.358515	-1.281491
H76	H	0.863949	-0.226566	-1.313032
H77	H	0.917623	-0.216848	-1.400668
H78	H	0.846095	-0.273825	-1.388140
C79	C	0.987409	-0.258428	-1.133364
C80	C	0.922158	-0.287338	-1.176147
C81	C	0.858122	-0.220392	-1.212261
H82	H	1.014656	-0.221067	-1.174912
H83	H	0.960972	-0.230773	-1.087283
H84	H	0.948592	-0.314980	-1.222223
H85	H	0.894888	-0.324691	-1.134617
H86	H	0.831685	-0.192737	-1.166180
H87	H	0.885378	-0.183035	-1.253806
H88	H	0.813838	-0.239999	-1.241287
H89	H	0.509700	-0.592187	-0.799970
H90	H	1.380987	-0.671185	-1.158869
H91	H	1.033543	-0.306695	-0.957557
H92	H	0.776209	-0.548826	-0.741516
H93	H	0.675675	-0.613456	-0.828633
C94	C	0.554476	-0.345945	-0.467773
C95	C	0.591726	-0.381988	-0.384919
C96	C	0.555829	-0.334745	-0.320940
H97	H	0.492062	-0.344030	-0.465103
H98	H	0.567288	-0.291361	-0.483241
H99	H	0.578908	-0.436558	-0.369455
H100	H	0.654137	-0.383902	-0.387560
H101	H	0.568641	-0.280161	-0.336408
H102	H	0.493416	-0.332833	-0.318278
H103	H	0.581104	-0.359189	-0.264718
C104	C	0.701236	-0.321798	-0.435799
C105	C	0.720171	-0.241399	-0.458888
C106	C	0.684111	-0.193890	-0.395194
H107	H	0.726352	-0.346027	-0.379464
H108	H	0.638806	-0.319867	-0.433279
H109	H	0.782589	-0.243333	-0.461399
H110	H	0.695054	-0.217146	-0.515213
H111	H	0.621681	-0.191959	-0.392673
H112	H	0.709230	-0.218126	-0.338862
H113	H	0.696946	-0.139332	-0.410855
C114	C	1.253997	-0.538180	-0.982941
C115	C	1.231047	-0.611460	-1.001892
C116	C	1.294877	-0.678650	-0.965933
H117	H	1.256584	-0.540984	-0.920515
H118	H	1.310279	-0.531251	-1.008136
H119	H	1.174780	-0.618389	-0.976694
H120	H	1.228467	-0.608684	-1.064311
H121	H	1.351159	-0.671720	-0.991127
H122	H	1.297459	-0.681445	-0.903508
H123	H	1.279318	-0.728377	-0.978792
C124	C	1.365309	-0.654571	-1.340038
C125	C	1.337799	-0.625641	-1.427881
C126	C	1.385819	-0.675949	-1.483468
H127	H	1.355086	-0.709846	-1.322922
H128	H	1.426774	-0.653035	-1.335284
H129	H	1.276348	-0.627185	-1.432631
H130	H	1.348023	-0.570373	-1.445024
H131	H	1.447284	-0.674413	-1.478715
H132	H	1.375593	-0.731221	-1.466344
H133	H	1.367166	-0.656323	-1.543076
H134	H	0.876986	-0.356059	-0.481660
H135	H	1.293749	-0.579683	-1.058334
H136	H	1.124418	-0.401828	-1.370969
