data_functionalizedCrystal
_audit_creation_method	'MofGen! by Chris Wilmer'
_symmetry_space_group_name_H-M	'P1'
_symmetry_Int_Tables_number	1
_symmetry_cell_setting	triclinic
loop_
_symmetry_equiv_pos_as_xyz
  x,y,z
_cell_length_a	18.101398
_cell_length_b	19.121063
_cell_length_c	18.101390
_cell_angle_alpha	92.404924
_cell_angle_beta	89.975319
_cell_angle_gamma	92.464489
loop_
_atom_site_label
_atom_site_type_symbol
_atom_site_fract_x
_atom_site_fract_y
_atom_site_fract_z
Zn1	Zn	1.119561	-0.279674	-0.431399
Zn2	Zn	1.369561	-0.029674	-0.181399
Zn3	Zn	1.619561	0.220326	0.068601
Zn4	Zn	1.869561	0.470326	0.318601
Zn5	Zn	1.114180	-0.397138	-0.312833
Zn6	Zn	1.364180	-0.147138	-0.062833
Zn7	Zn	1.614180	0.102862	0.187167
Zn8	Zn	1.864180	0.352862	0.437167
Zn9	Zn	0.995718	-0.279696	-0.307561
Zn10	Zn	1.245718	-0.029696	-0.057561
Zn11	Zn	1.495718	0.220304	0.192439
Zn12	Zn	1.745718	0.470304	0.442439
Zn13	Zn	0.990397	-0.397078	-0.436619
Zn14	Zn	1.240397	-0.147078	-0.186619
Zn15	Zn	1.490397	0.102922	0.063381
Zn16	Zn	1.740397	0.352922	0.313381
O17	O	1.054964	-0.338397	-0.372103
O18	O	1.304964	-0.088397	-0.122103
O19	O	1.554964	0.161603	0.127897
O20	O	1.804964	0.411603	0.377897
O21	O	1.222480	-0.295271	-0.415693
O22	O	1.472480	-0.045271	-0.165693
O23	O	1.722480	0.204729	0.084307
O24	O	1.972480	0.454729	0.334307
O25	O	1.098441	-0.381594	-0.208503
O26	O	1.348441	-0.131594	0.041497
O27	O	1.598441	0.118406	0.291497
O28	O	1.848441	0.368406	0.541497
O29	O	1.016625	-0.181409	-0.319598
O30	O	1.266625	0.068591	-0.069598
O31	O	1.516625	0.318591	0.180402
O32	O	1.766625	0.568591	0.430402
O33	O	1.218526	-0.381572	-0.328583
O34	O	1.468526	-0.131572	-0.078583
O35	O	1.718526	0.118428	0.171417
O36	O	1.968526	0.368428	0.421417
O37	O	1.107612	-0.181393	-0.410581
O38	O	1.357612	0.068607	-0.160581
O39	O	1.607612	0.318607	0.089419
O40	O	1.857612	0.568607	0.339419
O41	O	1.011407	-0.295310	-0.204629
O42	O	1.261407	-0.045310	0.045371
O43	O	1.511407	0.204690	0.295371
O44	O	1.761407	0.454690	0.545371
O45	O	0.891380	-0.295252	-0.324660
O46	O	1.141380	-0.045252	-0.074660
O47	O	1.391380	0.204748	0.175340
O48	O	1.641380	0.454748	0.425340
O49	O	1.007556	-0.381470	-0.539558
O50	O	1.257556	-0.131470	-0.289558
O51	O	1.507556	0.118530	-0.039558
O52	O	1.757556	0.368530	0.210442
O53	O	0.887471	-0.381492	-0.419478
O54	O	1.137471	-0.131492	-0.169478
O55	O	1.387471	0.118508	0.080522
O56	O	1.637471	0.368508	0.330522
O57	O	1.102453	-0.295213	-0.535723
O58	O	1.352453	-0.045213	-0.285723
O59	O	1.602453	0.204787	-0.035723
O60	O	1.852453	0.454787	0.214277
O61	O	1.093281	-0.495414	-0.333645
O62	O	1.343281	-0.245414	-0.083645
O63	O	1.593281	0.004586	0.166355
O64	O	1.843281	0.254586	0.416355
O65	O	1.002339	-0.495370	-0.424590
O66	O	1.252339	-0.245370	-0.174590
O67	O	1.502339	0.004630	0.075410
O68	O	1.752339	0.254630	0.325410
C69	C	0.862555	-0.338368	-0.372063
C70	C	1.112555	-0.088368	-0.122063
C71	C	1.362555	0.161632	0.127937
C72	C	1.612555	0.411632	0.377937
C73	C	0.780241	-0.338373	-0.372065
C74	C	1.030241	-0.088373	-0.122065
C75	C	1.280241	0.161627	0.127935
C76	C	1.530241	0.411627	0.377935
C77	C	0.481148	-0.338417	-0.372129
C78	C	0.731148	-0.088417	-0.122129
C79	C	0.981148	0.161583	0.127871
C80	C	1.231148	0.411583	0.377871
C81	C	0.514920	-0.283886	-0.312739
C82	C	0.764920	-0.033886	-0.062739
C83	C	1.014920	0.216114	0.187261
C84	C	1.264920	0.466114	0.437261
C85	C	0.600532	-0.284032	-0.312502
C86	C	0.850532	-0.034032	-0.062502
C87	C	1.100532	0.215968	0.187498
C88	C	1.350532	0.465968	0.437498
C89	C	0.629531	-0.338394	-0.372097
C90	C	0.879531	-0.088394	-0.122097
C91	C	1.129531	0.161606	0.127903
C92	C	1.379531	0.411606	0.377903
C93	C	0.595090	-0.412381	-0.354095
C94	C	0.845090	-0.162381	-0.104095
C95	C	1.095090	0.087619	0.145905
C96	C	1.345090	0.337619	0.395905
C97	C	0.509458	-0.412078	-0.353686
C98	C	0.759458	-0.162078	-0.103686
C99	C	1.009458	0.087922	0.146314
C100	C	1.259458	0.337922	0.396314
C101	C	0.513608	-0.319604	-0.449683
C102	C	0.763608	-0.069604	-0.199683
C103	C	1.013608	0.180396	0.050317
C104	C	1.263608	0.430396	0.300317
C105	C	0.599333	-0.317957	-0.449182
C106	C	0.849333	-0.067957	-0.199182
C107	C	1.099333	0.182043	0.050818
C108	C	1.349333	0.432043	0.300818
C109	C	0.713391	-0.338386	-0.372080
C110	C	0.963391	-0.088386	-0.122080
C111	C	1.213391	0.161614	0.127920
C112	C	1.463391	0.411614	0.377920
C113	C	0.397288	-0.338430	-0.372144
C114	C	0.647288	-0.088430	-0.122144
C115	C	0.897288	0.161570	0.127856
C116	C	1.147288	0.411570	0.377856
C117	C	1.046669	-0.520876	-0.380272
C118	C	1.296669	-0.270876	-0.130272
C119	C	1.546669	-0.020876	0.119728
C120	C	1.796669	0.229124	0.369728
C121	C	1.043188	-0.598942	-0.383791
C122	C	1.293188	-0.348942	-0.133791
C123	C	1.543188	-0.098942	0.116209
C124	C	1.793188	0.151058	0.366209
C125	C	1.088938	-0.635616	-0.338133
C126	C	1.338938	-0.385616	-0.088133
C127	C	1.588938	-0.135616	0.161867
C128	C	1.838938	0.114384	0.411867
C129	C	1.085668	-0.708967	-0.341448
C130	C	1.335668	-0.458967	-0.091448
C131	C	1.585668	-0.208967	0.158552
C132	C	1.835668	0.041033	0.408552
C133	C	1.036644	-0.745642	-0.390416
C134	C	1.286644	-0.495642	-0.140416
C135	C	1.536644	-0.245642	0.109584
C136	C	1.786644	0.004358	0.359584
C137	C	0.990892	-0.708962	-0.436079
C138	C	1.240892	-0.458962	-0.186079
C139	C	1.490892	-0.208962	0.063921
C140	C	1.740892	0.041038	0.313921
C141	C	0.994166	-0.635612	-0.432768
C142	C	1.244166	-0.385612	-0.182768
C143	C	1.494166	-0.135612	0.067232
C144	C	1.744166	0.114388	0.317232
C145	C	1.024392	-0.967110	-0.402783
C146	C	1.274392	-0.717110	-0.152783
C147	C	1.524392	-0.467110	0.097217
C148	C	1.774392	-0.217110	0.347217
C149	C	1.021120	-1.040464	-0.406089
C150	C	1.271120	-0.790464	-0.156089
C151	C	1.521120	-0.540464	0.093911
C152	C	1.771120	-0.290464	0.343911
C153	C	1.115898	-1.040465	-0.311459
C154	C	1.365898	-0.790465	-0.061459
C155	C	1.615898	-0.540465	0.188541
C156	C	1.865898	-0.290465	0.438541
C157	C	1.119164	-0.967114	-0.308149
C158	C	1.369164	-0.717114	-0.058149
C159	C	1.619164	-0.467114	0.191851
C160	C	1.869164	-0.217114	0.441851
C161	C	1.073415	-0.930440	-0.353814
C162	C	1.323415	-0.680440	-0.103814
C163	C	1.573415	-0.430440	0.146186
C164	C	1.823415	-0.180440	0.396186
C165	C	1.033299	-0.820618	-0.393803
C166	C	1.283299	-0.570618	-0.143803
C167	C	1.533299	-0.320618	0.106197
C168	C	1.783299	-0.070618	0.356197
C169	C	1.076764	-0.855465	-0.350430
C170	C	1.326764	-0.605465	-0.100430
C171	C	1.576764	-0.355465	0.149570
C172	C	1.826764	-0.105465	0.399570
C173	C	1.248125	-0.338426	-0.372144
C174	C	1.498125	-0.088426	-0.122144
C175	C	1.748125	0.161574	0.127856
C176	C	1.998125	0.411574	0.377856
C177	C	1.330438	-0.338438	-0.372161
C178	C	1.580438	-0.088438	-0.122161
C179	C	1.830438	0.161562	0.127839
C180	C	2.080438	0.411562	0.377839
C181	C	1.055011	-0.338333	-0.565262
C182	C	1.305011	-0.088333	-0.315262
C183	C	1.555011	0.161667	-0.065262
C184	C	1.805011	0.411667	0.184738
C185	C	1.055031	-0.338305	-0.647575
C186	C	1.305031	-0.088305	-0.397575
C187	C	1.555031	0.161695	-0.147575
C188	C	1.805031	0.411695	0.102425
C189	C	1.063313	-0.155205	-0.363919
C190	C	1.313313	0.094795	-0.113919
C191	C	1.563313	0.344795	0.136081
C192	C	1.813313	0.594795	0.386081
C193	C	1.066870	-0.077139	-0.360432
C194	C	1.316870	0.172861	-0.110432
C195	C	1.566870	0.422861	0.139568
C196	C	1.816870	0.672861	0.389568
C197	C	1.055073	-0.338261	-0.946665
C198	C	1.305073	-0.088261	-0.696665
C199	C	1.555073	0.161739	-0.446665
C200	C	1.805073	0.411739	-0.196665
C201	C	1.114959	-0.284182	-0.912935
C202	C	1.364959	-0.034182	-0.662935
C203	C	1.614959	0.215818	-0.412935
C204	C	1.864959	0.465818	-0.162935
C205	C	1.114789	-0.283981	-0.827308
C206	C	1.364789	-0.033981	-0.577308
C207	C	1.614789	0.216019	-0.327308
C208	C	1.864789	0.466019	-0.077308
C209	C	1.055053	-0.338283	-0.798283
C210	C	1.305053	-0.088283	-0.548283
C211	C	1.555053	0.161717	-0.298283
C212	C	1.805053	0.411717	-0.048283
C213	C	0.977940	-0.318168	-0.828446
C214	C	1.227940	-0.068168	-0.578446
C215	C	1.477940	0.181832	-0.328446
C216	C	1.727940	0.431832	-0.078446
C217	C	0.978302	-0.317763	-0.914073
C218	C	1.228302	-0.067763	-0.664073
C219	C	1.478302	0.182237	-0.414073
C220	C	1.728302	0.432237	-0.164073
C221	C	1.071607	-0.412595	-0.918417
C222	C	1.321607	-0.162595	-0.668417
C223	C	1.571607	0.087405	-0.418417
C224	C	1.821607	0.337405	-0.168417
C225	C	1.073336	-0.412216	-0.832750
C226	C	1.323336	-0.162216	-0.582750
C227	C	1.573336	0.087784	-0.332750
C228	C	1.823336	0.337784	-0.082750
C229	C	1.055037	-0.338297	-0.714424
C230	C	1.305037	-0.088297	-0.464424
C231	C	1.555037	0.161703	-0.214424
C232	C	1.805037	0.411703	0.035576
C233	C	1.055084	-0.338246	-1.030523
C234	C	1.305084	-0.088246	-0.780523
C235	C	1.555084	0.161754	-0.530523
C236	C	1.805084	0.411754	-0.280523
C237	C	1.054963	-0.338410	-0.179693
C238	C	1.304963	-0.088410	0.070307
C239	C	1.554963	0.161590	0.320307
C240	C	1.804963	0.411590	0.570307
C241	C	1.055095	-0.338239	-0.097372
C242	C	1.305095	-0.088239	0.152628
C243	C	1.555095	0.161761	0.402628
C244	C	1.805095	0.411761	0.652628
H245	H	0.622122	-0.263511	-0.462816
H246	H	0.872122	-0.013511	-0.212816
H247	H	1.122122	0.236489	0.037184
H248	H	1.372122	0.486489	0.287184
F249	F	0.486020	-0.299946	-0.237972
F250	F	0.736020	-0.049946	0.012028
F251	F	0.986020	0.200054	0.262028
F252	F	1.236020	0.450054	0.512028
F253	F	1.164587	-1.079501	-0.262865
F254	F	1.414587	-0.829501	-0.012865
F255	F	1.664587	-0.579501	0.237135
F256	F	1.914587	-0.329501	0.487135
F257	F	0.981125	-0.859656	-0.445917
F258	F	1.231125	-0.609656	-0.195917
F259	F	1.481125	-0.359656	0.054083
F260	F	1.731125	-0.109656	0.304083
F261	F	0.482362	-0.432928	-0.279709
F262	F	0.732362	-0.182928	-0.029709
F263	F	0.982362	0.067072	0.220291
F264	F	1.232362	0.317072	0.470291
H265	H	0.932253	-0.356344	-0.809778
H266	H	1.182253	-0.106344	-0.559778
H267	H	1.432253	0.143656	-0.309778
H268	H	1.682253	0.393656	-0.059778
H269	H	0.491568	-0.359323	-0.493894
H270	H	0.741568	-0.109323	-0.243894
H271	H	0.991568	0.140677	0.006106
H272	H	1.241568	0.390677	0.256106
F273	F	1.014540	-0.465262	-0.947235
F274	F	1.264540	-0.215262	-0.697235
F275	F	1.514540	0.034738	-0.447235
F276	F	1.764540	0.284738	-0.197235
F277	F	1.171350	-0.928087	-0.256038
F278	F	1.421350	-0.678087	-0.006038
F279	F	1.671350	-0.428087	0.243962
F280	F	1.921350	-0.178087	0.493962
F281	F	0.958674	-0.247932	-0.797275
F282	F	1.208674	0.002068	-0.547275
F283	F	1.458674	0.252068	-0.297275
F284	F	1.708674	0.502068	-0.047275
F285	F	1.020118	-0.467714	-0.807250
F286	F	1.270118	-0.217714	-0.557250
F287	F	1.520118	0.032286	-0.307250
F288	F	1.770118	0.282286	-0.057250
F289	F	1.190094	-0.300440	-0.940603
F290	F	1.440094	-0.050440	-0.690603
F291	F	1.690094	0.199560	-0.440603
F292	F	1.940094	0.449560	-0.190603
F293	F	0.945474	-0.596581	-0.481365
F294	F	1.195474	-0.346581	-0.231365
F295	F	1.445474	-0.096581	0.018635
F296	F	1.695474	0.153419	0.268635
H297	H	0.619084	-0.354780	-0.495534
H298	H	0.869084	-0.104780	-0.245534
H299	H	1.119084	0.145220	0.004466
H300	H	1.369084	0.395220	0.254466
H301	H	1.104108	-0.228914	-0.804361
H302	H	1.354108	0.021086	-0.554361
H303	H	1.604108	0.271086	-0.304361
H304	H	1.854108	0.521086	-0.054361
F305	F	0.968931	-1.079495	-0.458203
F306	F	1.218931	-0.829495	-0.208203
F307	F	1.468931	-0.579495	0.041797
F308	F	1.718931	-0.329495	0.291797
H309	H	0.486850	-0.454084	-0.395237
H310	H	0.736850	-0.204084	-0.145237
H311	H	0.986850	0.045916	0.104763
H312	H	1.236850	0.295916	0.354763
H313	H	1.128855	-0.605761	-0.298255
H314	H	1.378855	-0.355761	-0.048255
H315	H	1.628855	-0.105761	0.201745
H316	H	1.878855	0.144239	0.451745
H317	H	0.950978	-0.738828	-0.475953
H318	H	1.200978	-0.488828	-0.225953
H319	H	1.450978	-0.238828	0.024047
H320	H	1.700978	0.011172	0.274047
H321	H	1.116682	-0.825603	-0.310563
H322	H	1.366682	-0.575603	-0.060563
H323	H	1.616682	-0.325603	0.189437
H324	H	1.866682	-0.075603	0.439437
F325	F	1.189668	-0.300438	-0.800592
F326	F	1.439668	-0.050438	-0.550592
F327	F	1.689668	0.199562	-0.300592
F328	F	1.939668	0.449562	-0.050592
H329	H	1.122922	-0.738825	-0.304268
H330	H	1.372922	-0.488825	-0.054268
H331	H	1.622922	-0.238825	0.195732
H332	H	1.872922	0.011175	0.445732
F333	F	1.101201	-0.212606	-0.937869
F334	F	1.351201	0.037394	-0.687869
F335	F	1.601201	0.287394	-0.437869
F336	F	1.851201	0.537394	-0.187869
F337	F	0.975700	-0.928088	-0.451384
F338	F	1.225700	-0.678088	-0.201384
F339	F	1.475700	-0.428088	0.048616
F340	F	1.725700	-0.178088	0.298616
F341	F	0.959444	-0.246748	-0.937014
F342	F	1.209444	0.003252	-0.687014
F343	F	1.459444	0.253252	-0.437014
F344	F	1.709444	0.503252	-0.187014
F345	F	0.626539	-0.300285	-0.237299
F346	F	0.876539	-0.050285	0.012701
F347	F	1.126539	0.199715	0.262701
F348	F	1.376539	0.449715	0.512701
F349	F	0.918225	-0.366998	-0.943348
F350	F	1.168225	-0.116998	-0.693348
F351	F	1.418225	0.133002	-0.443348
F352	F	1.668225	0.383002	-0.193348
H353	H	0.494417	-0.266592	-0.466691
H354	H	0.744417	-0.016592	-0.216691
H355	H	0.994417	0.233408	0.033309
H356	H	1.244417	0.483408	0.283309
H357	H	0.613581	-0.454100	-0.396144
H358	H	0.863581	-0.204100	-0.146144
H359	H	1.113581	0.045900	0.103856
H360	H	1.363581	0.295900	0.353856
H361	H	0.615775	-0.428611	-0.298129
H362	H	0.865775	-0.178611	-0.048129
H363	H	1.115775	0.071389	0.201871
H364	H	1.365775	0.321389	0.451871
F365	F	1.143617	-0.436508	-0.947737
F366	F	1.393617	-0.186508	-0.697737
F367	F	1.643617	0.063492	-0.447737
F368	F	1.893617	0.313492	-0.197737
H369	H	0.624037	-0.229168	-0.323405
H370	H	0.874037	0.020832	-0.073405
H371	H	1.124037	0.270832	0.176595
H372	H	1.374037	0.520832	0.426595
F373	F	0.491265	-0.211953	-0.326785
F374	F	0.741265	0.038047	-0.076785
F375	F	0.991265	0.288047	0.173215
F376	F	1.241265	0.538047	0.423215
F377	F	1.147492	-0.432041	-0.807107
F378	F	1.397492	-0.182041	-0.557107
F379	F	1.647492	0.067959	-0.307107
F380	F	1.897492	0.317959	-0.057107
