data_functionalizedCrystal
_audit_creation_method	'MofGen! by Chris Wilmer'
_symmetry_space_group_name_H-M	'P1'
_symmetry_Int_Tables_number	1
_symmetry_cell_setting	triclinic
loop_
_symmetry_equiv_pos_as_xyz
  x,y,z
_cell_length_a	16.625547
_cell_length_b	19.120786
_cell_length_c	16.625548
_cell_angle_alpha	92.454923
_cell_angle_beta	90.012490
_cell_angle_gamma	92.464876
loop_
_atom_site_label
_atom_site_type_symbol
_atom_site_fract_x
_atom_site_fract_y
_atom_site_fract_z
Zn1	Zn	1.218868	-0.279745	0.442280
Zn2	Zn	1.213044	-0.397173	0.301688
Zn3	Zn	1.084060	-0.279734	0.307451
Zn4	Zn	1.078244	-0.397165	0.436468
O5	O	1.148554	-0.338454	0.371972
O6	O	1.330928	-0.295329	0.423651
O7	O	1.195930	-0.381593	0.189620
O8	O	1.106814	-0.181446	0.330181
O9	O	1.326648	-0.381603	0.320358
O10	O	1.205857	-0.181454	0.429239
O11	O	1.101166	-0.295312	0.193854
O12	O	0.970456	-0.295304	0.324545
O13	O	1.096902	-0.381590	0.550072
O14	O	0.966184	-0.381580	0.419333
O15	O	1.200218	-0.295322	0.554342
O16	O	1.190291	-0.495461	0.314723
O17	O	1.091254	-0.495455	0.413745
C18	C	0.939064	-0.338440	0.371935
C19	C	0.849442	-0.338452	0.371937
C20	C	0.776660	-0.338453	0.371947
C21	C	0.685351	-0.338457	0.371967
C22	C	0.612574	-0.338463	0.371987
C23	C	0.521260	-0.338468	0.372006
C24	C	1.139531	-0.520943	0.362995
C25	C	1.135745	-0.599013	0.359182
C26	C	1.185495	-0.635634	0.409007
C27	C	1.181934	-0.708988	0.405425
C28	C	1.128627	-0.745721	0.352015
C29	C	1.078873	-0.709095	0.302188
C30	C	1.082430	-0.635742	0.305774
C31	C	1.115305	-0.967203	0.338608
C32	C	1.111754	-1.040562	0.335024
C33	C	1.214814	-1.040450	0.438263
C34	C	1.218370	-0.967096	0.441841
C35	C	1.168613	-0.930476	0.392018
C36	C	1.124988	-0.820701	0.348351
C37	C	1.172248	-0.855497	0.395686
C38	C	1.358862	-0.338468	0.372010
C39	C	1.448483	-0.338474	0.372026
C40	C	1.148561	-0.338456	0.582281
C41	C	1.148564	-0.338457	0.671902
C42	C	1.157634	-0.155252	0.381001
C43	C	1.161503	-0.077183	0.384849
C44	C	1.148530	-0.338463	1.000077
C45	C	1.148537	-0.338464	0.908769
C46	C	1.148547	-0.338461	0.835992
C47	C	1.148554	-0.338460	0.744678
C48	C	1.148539	-0.338466	1.162481
C49	C	1.148531	-0.338461	1.072860
H50	H	1.228906	-0.605731	0.452496
C51	C	1.277007	-0.926697	0.500601
C52	C	1.342789	-0.876234	0.468199
C53	C	1.401429	-0.835838	0.526959
C54	C	1.394286	-0.845906	0.618121
C55	C	1.328500	-0.896372	0.650528
C56	C	1.269861	-0.936767	0.591768
H57	H	1.348080	-0.868779	0.400711
H58	H	1.450128	-0.798480	0.502968
H59	H	1.437694	-0.816002	0.661619
H60	H	1.323210	-0.903826	0.718016
H61	H	1.221162	-0.974125	0.615759
C62	C	1.060578	-0.926933	0.283793
C63	C	1.066747	-0.937048	0.191645
C64	C	1.012018	-0.896776	0.136824
C65	C	0.951119	-0.846389	0.174152
C66	C	0.944948	-0.836271	0.266305
C67	C	0.999678	-0.876543	0.321126
H68	H	1.111830	-0.974349	0.164008
H69	H	1.016586	-0.904266	0.068606
H70	H	0.910606	-0.816577	0.133570
H71	H	0.899866	-0.798970	0.293941
H72	H	0.995109	-0.869054	0.389344
H73	H	1.035466	-0.739008	0.258703
H74	H	1.222451	-0.738802	0.445992
C75	C	1.269537	-1.080734	0.493074
C76	C	1.330425	-1.131128	0.455741
C77	C	1.385147	-1.171411	0.510557
C78	C	1.378982	-1.161300	0.602706
C79	C	1.318092	-1.110904	0.640044
C80	C	1.263369	-1.070620	0.585228
H81	H	1.334991	-1.138615	0.387523
H82	H	1.430222	-1.208718	0.482917
H83	H	1.419490	-1.191120	0.643285
H84	H	1.313525	-1.103417	0.708262
H85	H	1.218295	-1.033313	0.612868
H86	H	1.041918	-0.605926	0.265202
C87	C	1.230886	-0.815095	0.454435
C88	C	1.223757	-0.825151	0.545601
C89	C	1.282399	-0.784742	0.604347
C90	C	1.348170	-0.734276	0.571928
C91	C	1.355302	-0.724217	0.480758
C92	C	1.296660	-0.764626	0.422011
H93	H	1.175067	-0.862512	0.569604
H94	H	1.277119	-0.792188	0.671838
H95	H	1.391580	-0.704362	0.615415
H96	H	1.403992	-0.686857	0.456755
H97	H	1.301940	-0.757180	0.354521
C98	C	1.053117	-1.080974	0.276268
C99	C	1.060255	-1.070911	0.185104
C100	C	1.001626	-1.111325	0.126348
C101	C	0.935860	-1.161802	0.158756
C102	C	0.928719	-1.171867	0.249924
C103	C	0.987348	-1.131453	0.308680
H104	H	1.108941	-1.033543	0.161110
H105	H	1.006913	-1.103873	0.058859
H106	H	0.892460	-1.191718	0.115261
H107	H	0.880033	-1.209235	0.273918
H108	H	0.982061	-1.138904	0.376169
H109	H	1.081588	-0.850617	0.304861
