data_functionalizedCrystal
_audit_creation_method	'MofGen! by Chris Wilmer'
_symmetry_space_group_name_H-M	'P1'
_symmetry_Int_Tables_number	1
_symmetry_cell_setting	triclinic
loop_
_symmetry_equiv_pos_as_xyz
  x,y,z
_cell_length_a	12.827893
_cell_length_b	13.897447
_cell_length_c	12.827885
_cell_angle_alpha	89.968996
_cell_angle_beta	89.980728
_cell_angle_gamma	90.019501
loop_
_atom_site_label
_atom_site_type_symbol
_atom_site_fract_x
_atom_site_fract_y
_atom_site_fract_z
Zn1	Zn	1.597640	-0.383969	-0.590840
Zn2	Zn	2.097640	0.116031	-0.090840
Zn3	Zn	1.597521	-0.545295	-0.416096
Zn4	Zn	2.097521	-0.045295	0.083904
Zn5	Zn	1.422881	-0.384016	-0.416113
Zn6	Zn	1.922881	0.115984	0.083887
Zn7	Zn	1.422854	-0.545224	-0.590796
Zn8	Zn	1.922854	-0.045224	-0.090796
O9	O	1.510224	-0.464626	-0.503462
O10	O	2.010224	0.035374	-0.003462
O11	O	1.743860	-0.405380	-0.567671
O12	O	2.243860	0.094620	-0.067671
O13	O	1.574316	-0.523951	-0.269863
O14	O	2.074316	-0.023951	0.230137
O15	O	1.446124	-0.249028	-0.439317
O16	O	1.946124	0.250972	0.060683
O17	O	1.743773	-0.523905	-0.439288
O18	O	2.243773	-0.023905	0.060712
O19	O	1.574518	-0.248994	-0.567687
O20	O	2.074518	0.251006	-0.067687
O21	O	1.446009	-0.405460	-0.269875
O22	O	1.946009	0.094540	0.230125
O23	O	1.276641	-0.405390	-0.439274
O24	O	1.776641	0.094610	0.060726
O25	O	1.446077	-0.523783	-0.737038
O26	O	1.946077	-0.023783	-0.237038
O27	O	1.276621	-0.523829	-0.567613
O28	O	1.776621	-0.023829	-0.067613
O29	O	1.574492	-0.405310	-0.737070
O30	O	2.074492	0.094690	-0.237070
O31	O	1.574290	-0.680267	-0.439245
O32	O	2.074290	-0.180267	0.060755
O33	O	1.445963	-0.680215	-0.567597
O34	O	1.945963	-0.180215	-0.067597
C35	C	1.238714	-0.464607	-0.503442
C36	C	1.738714	0.035393	-0.003442
C37	C	1.122561	-0.464623	-0.503458
C38	C	1.622561	0.035377	-0.003458
C39	C	1.070794	-0.523321	-0.566866
C40	C	1.570794	-0.023321	-0.066866
C41	C	0.950743	-0.523338	-0.566884
C42	C	1.450743	-0.023338	-0.066884
C43	C	1.510139	-0.715240	-0.503437
C44	C	2.010139	-0.215240	-0.003437
C45	C	1.510198	-0.822454	-0.503462
C46	C	2.010198	-0.322454	-0.003462
C47	C	1.510249	-0.909524	-0.503486
C48	C	2.010249	-0.409524	-0.003486
C49	C	1.510322	-1.018756	-0.503513
C50	C	2.010322	-0.518756	-0.003513
C51	C	1.782794	-0.464645	-0.503482
C52	C	2.282794	0.035355	-0.003482
C53	C	1.898947	-0.464654	-0.503491
C54	C	2.398947	0.035346	-0.003491
C55	C	1.510295	-0.464533	-0.776032
C56	C	2.010295	0.035467	-0.276032
C57	C	1.510325	-0.464494	-0.892185
C58	C	2.010325	0.035506	-0.392185
C59	C	1.510338	-0.213033	-0.503509
C60	C	2.010338	0.286967	-0.003509
C61	C	1.510386	-0.105819	-0.503529
C62	C	2.010386	0.394181	-0.003529
C63	C	1.573876	-0.405858	-0.943986
C64	C	2.073876	0.094142	-0.443986
C65	C	1.573908	-0.405816	-1.064036
C66	C	2.073908	0.094184	-0.564036
C67	C	1.510213	-0.464649	-0.231952
C68	C	2.010213	0.035351	0.268048
C69	C	1.510385	-0.464416	-0.115799
C70	C	2.010385	0.035584	0.384201
H71	H	1.078004	-0.414377	-0.449190
H72	H	1.578004	0.085623	0.050810
C73	C	1.750810	-0.358923	-0.910203
C74	C	2.250810	0.141077	-0.410203
C75	C	1.647299	-0.338125	-0.883891
C76	C	2.147299	0.161875	-0.383891
H77	H	1.796138	-0.317101	-0.873110
H78	H	2.296138	0.182899	-0.373110
H79	H	1.766045	-0.423746	-0.892348
H80	H	2.266045	0.076254	-0.392348
H81	H	1.760449	-0.350010	-0.982998
H82	H	2.260449	0.149990	-0.482998
H83	H	1.637658	-0.347046	-0.811097
H84	H	2.137658	0.152954	-0.311097
H85	H	1.632059	-0.273287	-0.901738
H86	H	2.132059	0.226713	-0.401738
C87	C	1.633168	-0.351111	-1.231451
C88	C	2.133168	0.148889	-0.731451
C89	C	1.647357	-0.338038	-1.124164
C90	C	2.147357	0.161962	-0.624164
H91	H	1.678509	-0.309260	-1.268571
H92	H	2.178509	0.190740	-0.768571
H93	H	1.648430	-0.415922	-1.249272
H94	H	2.148430	0.084078	-0.749272
H95	H	1.562945	-0.337002	-1.249273
H96	H	2.062945	0.162998	-0.749273
H97	H	1.717578	-0.352154	-1.106341
H98	H	2.217578	0.147846	-0.606341
H99	H	1.632103	-0.273212	-1.106336
H100	H	2.132103	0.226788	-0.606336
C101	C	1.495892	-0.594101	-0.992906
C102	C	1.995892	-0.094101	-0.492906
C103	C	1.436933	-0.532191	-1.055672
C104	C	1.936933	-0.032191	-0.555672
H105	H	1.450544	-0.635938	-0.955776
H106	H	1.950544	-0.135938	-0.455776
H107	H	1.541366	-0.631020	-1.035486
H108	H	2.041366	-0.131020	-0.535486
H109	H	1.535739	-0.557330	-0.944877
H110	H	2.035739	-0.057330	-0.444877
H111	H	1.397091	-0.568963	-1.103706
H112	H	1.897091	-0.068963	-0.603706
H113	H	1.391441	-0.495269	-1.013088
H114	H	1.891441	0.004731	-0.513088
C115	C	1.193740	-0.536754	-0.707273
C116	C	1.693740	-0.036754	-0.207273
C117	C	1.130937	-0.591149	-0.640135
C118	C	1.630937	-0.091149	-0.140135
H119	H	1.230872	-0.578631	-0.752502
H120	H	1.730872	-0.078631	-0.252502
H121	H	1.151186	-0.494825	-0.747368
H122	H	1.651186	0.005175	-0.247368
H123	H	1.241768	-0.499926	-0.667477
H124	H	1.741768	0.000074	-0.167477
H125	H	1.082904	-0.627971	-0.679931
H126	H	1.582904	-0.127971	-0.179931
H127	H	1.173495	-0.633095	-0.600035
H128	H	1.673495	-0.133095	-0.100035
C129	C	0.783359	-0.578066	-0.626010
C130	C	1.283359	-0.078066	-0.126010
C131	C	0.890654	-0.591182	-0.640176
C132	C	1.390654	-0.091182	-0.140176
H133	H	0.746264	-0.619947	-0.671264
H134	H	1.246264	-0.119947	-0.171264
H135	H	0.765493	-0.592098	-0.555765
H136	H	1.265493	-0.092098	-0.055765
H137	H	0.765555	-0.513256	-0.641411
H138	H	1.265555	-0.013256	-0.141411
H139	H	0.908460	-0.655990	-0.624768
H140	H	1.408460	-0.155990	-0.124768
H141	H	0.908528	-0.577156	-0.710436
H142	H	1.408528	-0.077156	-0.210436
C143	C	1.021748	-0.451185	-0.363043
C144	C	1.521748	0.048815	0.136957
C145	C	0.959033	-0.396807	-0.430199
C146	C	1.459033	0.103193	0.069801
H147	H	1.058852	-0.409298	-0.317801
H148	H	1.558852	0.090702	0.182199
H149	H	0.979137	-0.493127	-0.322961
H150	H	1.479137	0.006873	0.177039
H151	H	1.069800	-0.487998	-0.402824
H152	H	1.569800	0.012002	0.097176
H153	H	0.910975	-0.359999	-0.390418
H154	H	1.410975	0.140001	0.109582
H155	H	1.001647	-0.354848	-0.470285
H156	H	1.501647	0.145152	0.029715
H157	H	1.455935	-0.514656	-0.936713
H158	H	1.955935	-0.014656	-0.436713
