data_functionalizedCrystal
_audit_creation_method	'MofGen! by Chris Wilmer'
_symmetry_space_group_name_H-M	'P1'
_symmetry_Int_Tables_number	1
_symmetry_cell_setting	triclinic
loop_
_symmetry_equiv_pos_as_xyz
  x,y,z
_cell_length_a	20.919309
_cell_length_b	19.851628
_cell_length_c	20.919309
_cell_angle_alpha	62.593885
_cell_angle_beta	90.173912
_cell_angle_gamma	57.435097
loop_
_atom_site_label
_atom_site_type_symbol
_atom_site_fract_x
_atom_site_fract_y
_atom_site_fract_z
Zr1	Zr	0.643978	0.679919	-0.056725
O2	O	0.541732	0.820464	-0.158951
O3	O	0.675334	0.539375	-0.025386
O4	O	0.680520	0.668965	-0.153746
O5	O	0.532442	0.699515	0.070660
O6	O	0.789984	0.660323	-0.149642
O7	O	0.536546	0.690874	-0.030591
O8	O	0.780708	0.428511	0.079970
O9	O	0.541718	0.931328	-0.158953
O10	O	0.770384	0.590734	-0.008959
O11	O	0.685629	0.603631	0.063540
O12	O	0.691735	0.756207	-0.087587
O13	O	0.606980	0.769105	-0.015087
Zr14	Zr	0.812015	0.679919	0.111304
Zr15	Zr	0.818561	0.666137	-0.050180
Zr16	Zr	0.637432	0.693701	0.104758
Zr17	Zr	0.643956	0.856734	-0.056728
Zr18	Zr	0.812037	0.503104	0.111307
O19	O	0.780659	0.820463	0.079965
O20	O	0.789967	0.800868	-0.149644
O21	O	0.532424	0.840060	0.070658
O22	O	0.914261	0.539374	0.213530
O23	O	0.923569	0.519778	-0.016079
O24	O	0.666026	0.558970	0.204223
O25	O	0.923551	0.660323	-0.016081
O26	O	0.775473	0.690873	0.208325
O27	O	0.666008	0.699515	0.204221
O28	O	0.919447	0.668964	0.085170
O29	O	0.680488	0.920373	-0.153750
O30	O	0.775504	0.439465	0.208329
O31	O	0.914274	0.428510	0.213532
O32	O	0.919478	0.417556	0.085174
O33	O	0.536515	0.942282	-0.030595
O34	O	0.675285	0.931327	-0.025392
O35	O	0.764258	0.603631	0.142166
O36	O	0.849013	0.590733	0.069666
O37	O	0.770364	0.756207	-0.008961
O38	O	0.685608	0.769104	0.063538
C39	C	0.728024	0.458750	0.027292
C40	C	0.728033	0.383688	0.027293
C41	C	0.509620	0.697158	0.019102
C42	C	0.435504	0.703009	0.016323
C43	C	0.774217	0.195320	-0.012245
C44	C	0.803625	0.098680	0.060014
C45	C	0.728009	0.246283	0.027292
C46	C	0.698615	0.209173	-0.044958
C47	C	0.727986	0.113559	0.027286
C48	C	0.757460	0.150586	0.099595
C49	C	0.652410	0.261132	-0.005430
C50	C	0.681796	0.164504	0.066870
C51	C	0.728024	0.322741	0.027296
C52	C	0.727972	0.037098	0.027290
C53	C	0.441737	0.619385	0.056056
C54	C	0.372096	0.624888	0.053443
C55	C	0.296222	0.714016	0.011092
C56	C	0.289991	0.797647	-0.028642
C57	C	0.359631	0.792143	-0.026025
C58	C	0.083898	0.734956	0.001139
C59	C	0.014255	0.740453	-0.001477
C60	C	0.096365	0.567693	0.080610
C61	C	0.166004	0.562197	0.083220
C62	C	0.159766	0.645828	0.043489
C63	C	0.225036	0.719644	0.008419
C64	C	0.230951	0.640201	0.046167
C65	C	0.946373	0.662680	0.035477
C66	C	1.020488	0.656829	0.038256
C67	C	0.736185	0.662680	-0.174702
C68	C	0.738964	0.656830	-0.243256
C69	C	0.727969	0.901088	0.027287
C70	C	0.727959	0.976150	0.027286
C71	C	0.699216	0.740454	-0.316506
C72	C	0.701838	0.734951	-0.380917
C73	C	0.744203	0.645822	-0.372077
C74	C	0.783955	0.562191	-0.298819
C75	C	0.781338	0.567695	-0.234410
C76	C	0.754164	0.624882	-0.564498
C77	C	0.756776	0.619384	-0.628915
C78	C	0.674660	0.792144	-0.711008
C79	C	0.672043	0.797640	-0.646594
C80	C	0.711798	0.714009	-0.573343
C81	C	0.746881	0.640195	-0.437914
C82	C	0.709124	0.719637	-0.507507
C83	C	0.719808	0.697158	0.229281
C84	C	0.717029	0.703008	0.297835
C85	C	0.946401	0.441511	0.035480
C86	C	1.020525	0.360598	0.038260
C87	C	0.719836	0.475989	0.229284
C88	C	0.717066	0.406777	0.297839
C89	C	0.938212	0.458750	0.237472
C90	C	1.009558	0.383687	0.308806
C91	C	0.517780	0.901088	-0.182893
C92	C	0.446435	0.976151	-0.254227
C93	C	0.509592	0.918327	0.019099
C94	C	0.435467	0.999241	0.016319
C95	C	0.736157	0.883849	-0.174705
C96	C	0.738927	0.953061	-0.243260
C97	C	1.014292	0.322599	-0.001483
C98	C	1.083933	0.246581	0.001114
C99	C	1.159808	0.208559	0.043458
C100	C	1.166040	0.246564	0.083202
C101	C	1.096399	0.322585	0.080601
C102	C	0.756808	0.374275	0.371082
C103	C	0.754203	0.309253	0.435503
C104	C	0.711859	0.276730	0.426679
C105	C	0.672111	0.309239	0.353429
C106	C	0.674713	0.374265	0.289010
C107	C	1.087311	0.341703	0.304461
C108	C	1.154355	0.271183	0.371481
C109	C	1.143643	0.242642	0.442845
C110	C	1.065882	0.284633	0.447188
C111	C	0.998840	0.355157	0.380169
C112	C	0.368682	1.018143	-0.249883
C113	C	0.301638	1.088686	-0.316902
C114	C	0.312350	1.117230	-0.388266
C115	C	0.390111	1.075235	-0.392609
C116	C	0.457153	1.004699	-0.325590
C117	C	0.441701	1.037246	0.056055
C118	C	0.372060	1.113281	0.053441
C119	C	0.296186	1.151306	0.011094
C120	C	0.289954	1.113298	-0.028647
C121	C	0.359594	1.037268	-0.026037
C122	C	0.781278	0.985563	-0.234412
C123	C	0.783896	1.050585	-0.298821
C124	C	0.744158	1.083109	-0.372076
C125	C	0.701805	1.050600	-0.380922
C126	C	0.699192	0.985574	-0.316515
H127	H	0.813346	0.209012	-0.045617
C128	C	0.631000	0.409999	0.208444
N129	N	0.598074	0.436909	0.147763
H130	H	1.078843	0.215647	-0.031251
C131	C	0.356879	0.986765	-0.171389
N132	N	0.347983	0.963140	-0.112269
H133	H	0.867549	0.029258	0.087692
H134	H	0.503475	1.006292	0.090543
H135	H	0.709747	0.223783	0.479140
H136	H	0.782382	0.126442	0.160725
C137	C	0.103217	0.475706	0.124318
N138	N	0.108380	0.406417	0.157243
C139	C	0.830555	0.464149	-0.289097
N140	N	0.865651	0.390301	-0.281772
C141	C	0.378933	1.155070	0.097168
N142	N	0.384112	1.186540	0.130106
C143	C	1.249509	0.204722	0.129785
N144	N	1.312380	0.173198	0.164876
H145	H	0.163252	0.792212	-0.026063
H146	H	0.637635	0.282749	0.346256
H147	H	0.239487	1.213215	0.008975
H148	H	0.642717	0.150856	0.100351
C149	C	0.830484	1.086338	-0.289073
N150	N	0.865573	1.113266	-0.281728
C151	C	0.630939	0.884131	-0.791587
N152	N	0.598010	0.953419	-0.852281
C153	C	1.236407	0.124927	0.046318
N154	N	1.294099	0.061933	0.048472
C155	C	1.239885	0.224996	0.366687
N156	N	1.304304	0.190208	0.363074
H157	H	0.228168	1.144269	-0.063125
H158	H	1.101485	0.353514	0.112969
H159	H	0.791290	0.400748	0.378281
H160	H	0.673766	0.233176	-0.106057
H161	H	0.238328	1.122868	-0.313352
C162	C	1.217400	0.165055	0.516562
N163	N	1.272957	0.106612	0.572083
C164	C	1.054112	0.253219	0.525696
N165	N	1.045250	0.229551	0.584830
C166	C	0.566073	0.354944	-0.042847
N167	N	0.501043	0.425610	-0.071037
C168	C	0.797939	0.273496	0.516071
N169	N	0.830885	0.246562	0.576754
C170	C	0.913312	0.401330	0.384961
N171	N	0.848893	0.436106	0.388575
H172	H	0.791274	0.546801	-0.621709
H173	H	0.354507	1.006327	-0.058393
C174	C	0.238593	1.194817	-0.461983
N175	N	0.183036	1.253251	-0.517504
C176	C	0.658130	1.086349	-0.461509
N177	N	0.625243	1.113268	-0.522209
C178	C	0.825003	0.949794	-0.153837
N179	N	0.857943	0.922851	-0.093149
C180	C	0.662527	0.817676	-0.517227
N181	N	0.627429	0.891519	-0.524544
C182	C	0.793473	0.542156	-0.428198
N183	N	0.828564	0.468314	-0.420882
C184	C	0.401880	1.106636	-0.471117
N185	N	0.410743	1.130284	-0.530251
H186	H	0.786536	0.556783	-0.504862
H187	H	0.520461	0.970508	-0.329136
H188	H	1.096048	0.364930	0.246360
C189	C	0.652587	0.949843	-0.326261
N190	N	0.617480	0.922935	-0.333607
H191	H	0.503513	0.546807	0.090546
H192	H	0.664713	0.813033	-0.323713
H193	H	0.377177	0.556792	0.085800
H194	H	0.746291	1.136057	-0.424514
H195	H	0.227780	0.489618	0.117692
H196	H	0.078809	0.803053	-0.031226
C197	C	0.206527	0.895690	-0.075232
N198	N	0.143662	0.969537	-0.110328
H199	H	0.354551	0.860240	-0.058371
C200	C	0.625444	0.895688	-0.656327
N201	N	0.590346	0.969539	-0.663658
C202	C	0.825061	0.475702	-0.153832
N203	N	0.857996	0.406409	-0.093141
C204	C	0.314413	0.542162	0.092749
N205	N	0.377283	0.468318	0.127829
H206	H	0.669473	0.803046	-0.440558
H207	H	-0.047526	0.813036	-0.035968
H208	H	0.952518	0.353555	-0.035974
