data_functionalizedCrystal
_audit_creation_method	'MofGen! by Chris Wilmer'
_symmetry_space_group_name_H-M	'P1'
_symmetry_Int_Tables_number	1
_symmetry_cell_setting	triclinic
loop_
_symmetry_equiv_pos_as_xyz
  x,y,z
_cell_length_a	10.723024
_cell_length_b	14.519709
_cell_length_c	9.798715
_cell_angle_alpha	89.995905
_cell_angle_beta	89.996609
_cell_angle_gamma	84.074007
loop_
_atom_site_label
_atom_site_type_symbol
_atom_site_fract_x
_atom_site_fract_y
_atom_site_fract_z
O1	O	1.655978	0.129347	-0.113485
O2	O	1.292710	0.141728	-0.113490
O3	O	1.483975	0.001349	-0.113475
O4	O	1.464712	0.269727	-0.113500
O5	O	1.483961	0.001348	0.113507
O6	O	1.292695	0.141728	0.113492
O7	O	1.655963	0.129347	0.113497
Zn8	Zn	1.474327	0.135537	0.149533
Zn9	Zn	1.474346	0.135538	-0.149526
O10	O	1.464698	0.269727	0.113482
C11	C	1.246211	0.140827	0.000000
C12	C	1.107682	0.138132	-0.000001
C13	C	1.031965	0.216681	-0.000009
C14	C	0.888788	0.213896	-0.000011
C15	C	1.483070	-0.033016	0.000016
C16	C	1.480380	-0.135411	0.000017
C17	C	1.470476	-0.510357	-0.000019
C18	C	1.473227	-0.406035	-0.000009
C19	C	1.475428	-0.322887	0.000000
C20	C	1.478179	-0.218559	0.000008
C21	C	1.702462	0.130248	0.000003
C22	C	1.840991	0.132944	-0.000004
C23	C	1.465603	0.304091	-0.000012
C24	C	1.468293	0.406486	-0.000022
N25	N	1.474323	0.135537	0.353632
N26	N	1.474359	0.135532	-0.353626
C27	C	1.554633	0.076335	0.421415
C28	C	1.554653	0.076332	0.578578
H29	H	1.066508	0.068822	-0.000030
C30	C	1.087579	0.310318	-0.000027
C31	C	1.173076	0.335058	0.117830
C32	C	1.228687	0.428698	0.117808
C33	C	1.198802	0.497598	-0.000071
C34	C	1.113301	0.472861	-0.117937
C35	C	1.057689	0.379221	-0.117915
H36	H	1.195202	0.284052	0.205100
H37	H	1.291981	0.447010	0.205061
H38	H	1.239969	0.566916	-0.000087
H39	H	1.091174	0.523867	-0.205206
H40	H	0.994395	0.360909	-0.205168
H41	H	1.623371	0.025649	0.363098
C42	C	0.928867	0.042091	0.000005
C43	C	0.923215	-0.027506	-0.117854
C44	C	1.011102	-0.118359	-0.117845
C45	C	1.104640	-0.139614	0.000024
C46	C	1.110295	-0.070015	0.117892
C47	C	1.022409	0.020837	0.117883
H48	H	0.853969	-0.011773	-0.205116
H49	H	1.006915	-0.169880	-0.205099
H50	H	1.169699	-0.206869	0.000031
H51	H	1.179541	-0.085748	0.205153
H52	H	1.026596	0.072359	0.205137
H53	H	1.405604	0.186222	0.588092
H54	H	1.405577	0.186216	0.411951
H55	H	0.823726	0.281141	-0.000024
C56	C	1.647545	0.007856	0.657314
C57	C	1.647472	0.007980	0.814470
C58	C	1.740367	-0.060499	0.893209
C59	C	1.833334	-0.129101	0.814792
C60	C	1.833410	-0.129228	0.657627
C61	C	1.740516	-0.060749	0.578888
H62	H	1.578649	0.058766	0.872528
H63	H	1.740310	-0.060405	1.009554
H64	H	1.902101	-0.179793	0.873079
H65	H	1.902234	-0.180014	0.599569
H66	H	1.740573	-0.060843	0.462543
