data_functionalizedCrystal
_audit_creation_method	'MofGen! by Chris Wilmer'
_symmetry_space_group_name_H-M	'P1'
_symmetry_Int_Tables_number	1
_symmetry_cell_setting	triclinic
loop_
_symmetry_equiv_pos_as_xyz
  x,y,z
_cell_length_a	12.759401
_cell_length_b	12.759394
_cell_length_c	12.759387
_cell_angle_alpha	90.031405
_cell_angle_beta	90.016426
_cell_angle_gamma	90.014998
loop_
_atom_site_label
_atom_site_type_symbol
_atom_site_fract_x
_atom_site_fract_y
_atom_site_fract_z
Zn1	Zn	1.606233	-0.418209	0.593976
Zn2	Zn	1.606133	-0.593925	0.418294
Zn3	Zn	1.430541	-0.418262	0.418316
Zn4	Zn	1.430523	-0.593847	0.593936
O5	O	1.518358	-0.506061	0.506130
O6	O	1.753241	-0.441529	0.570680
O7	O	1.582806	-0.570678	0.271276
O8	O	1.453896	-0.271233	0.441643
O9	O	1.753167	-0.570627	0.441607
O10	O	1.582976	-0.271195	0.570701
O11	O	1.453800	-0.441618	0.271292
O12	O	1.283518	-0.441543	0.441604
O13	O	1.453866	-0.570494	0.740962
O14	O	1.283505	-0.570545	0.570631
O15	O	1.582959	-0.441453	0.740992
O16	O	1.582789	-0.740936	0.441567
O17	O	1.453769	-0.740879	0.570610
C18	C	1.245390	-0.506042	0.506116
C19	C	1.128614	-0.506059	0.506135
C20	C	1.073772	-0.573338	0.573208
C21	C	0.964048	-0.573351	0.573220
C22	C	0.964017	-0.438803	0.439075
C23	C	1.073739	-0.438785	0.439070
C24	C	1.128647	-0.640611	0.640273
C25	C	1.073806	-0.707896	0.707351
C26	C	0.964081	-0.707909	0.707363
C27	C	0.909199	-0.640637	0.640296
C28	C	1.518295	-0.779028	0.506105
C29	C	1.518364	-0.895805	0.506129
C30	C	1.652813	-0.895812	0.371857
C31	C	1.720065	-0.950676	0.304734
C32	C	1.720127	-1.060397	0.304762
C33	C	1.652931	-1.115257	0.371924
C34	C	1.585679	-1.060393	0.439047
C35	C	1.585623	-0.950669	0.439009
C36	C	1.451237	-1.060387	0.573323
C37	C	1.451168	-0.950665	0.573291
C38	C	1.384041	-1.115247	0.640485
C39	C	1.316782	-1.060383	0.707605
C40	C	1.316723	-0.950655	0.707572
C41	C	1.383916	-0.895801	0.640414
C42	C	1.792391	-0.506081	0.506145
C43	C	1.909167	-0.506090	0.506152
C44	C	1.518421	-0.505959	0.780164
C45	C	1.518448	-0.505916	0.896941
C46	C	1.518450	-0.232027	0.506179
C47	C	1.518489	-0.115251	0.506200
C48	C	1.518355	-0.506086	0.233163
C49	C	1.518531	-0.505834	0.116387
C50	C	1.652857	-0.640233	1.116350
C51	C	1.720004	-0.707449	1.061470
C52	C	1.719969	-0.707489	0.951748
C53	C	1.652778	-0.640308	0.896904
C54	C	1.585630	-0.573092	0.951783
C55	C	1.585675	-0.573057	1.061507
C56	C	1.451301	-0.438700	0.951820
C57	C	1.451339	-0.438653	1.061542
C58	C	1.384110	-0.371519	0.896975
C59	C	1.316966	-0.304296	0.951855
C60	C	1.317004	-0.304258	1.061583
C61	C	1.384192	-0.371437	1.116421
H62	H	1.118392	-0.383993	0.384461
F63	F	1.383761	-1.232022	0.640165
H64	H	1.384234	-0.371408	1.205763
H65	H	1.384082	-0.371560	0.807634
F66	F	0.905603	-0.367215	0.367702
H67	H	1.262322	-0.249524	1.106260
H68	H	1.118498	-0.762659	0.761961
F69	F	0.792420	-0.640647	0.640320
F70	F	1.245425	-0.640605	0.640263
F71	F	1.791506	-0.778949	1.119847
H72	H	1.652756	-0.806470	0.371814
H73	H	1.774777	-0.905999	0.250053
F74	F	1.791708	-1.118789	0.233327
H75	H	1.652747	-0.640355	0.807562
H76	H	1.262259	-0.249607	0.907192
F77	F	1.384097	-0.779026	0.640614
H78	H	1.261962	-0.905990	0.762237
H79	H	0.919432	-0.762688	0.761988
F80	F	1.791429	-0.779033	0.893340
F81	F	1.245283	-1.118774	0.779081
F82	F	1.652652	-1.232032	0.371602
F83	F	1.652912	-0.640183	1.233125
