data_functionalizedCrystal
_audit_creation_method	'MofGen! by Chris Wilmer'
_symmetry_space_group_name_H-M	'P1'
_symmetry_Int_Tables_number	1
_symmetry_cell_setting	triclinic
loop_
_symmetry_equiv_pos_as_xyz
  x,y,z
_cell_length_a	27.732048
_cell_length_b	27.732048
_cell_length_c	26.210047
_cell_angle_alpha	89.999521
_cell_angle_beta	89.996535
_cell_angle_gamma	82.642655
loop_
_atom_site_label
_atom_site_type_symbol
_atom_site_fract_x
_atom_site_fract_y
_atom_site_fract_z
O1	O	0.640931	0.057510	-0.042369
O2	O	0.974264	0.390843	0.290965
O3	O	1.307598	0.724177	0.624298
O4	O	0.500138	0.066256	-0.042385
O5	O	0.833471	0.399589	0.290948
O6	O	1.166804	0.732922	0.624282
O7	O	0.574907	-0.008514	-0.042367
O8	O	0.908240	0.324819	0.290967
O9	O	1.241574	0.658153	0.624300
O10	O	0.566162	0.132279	-0.042387
O11	O	0.899495	0.465613	0.290946
O12	O	1.232828	0.798946	0.624280
O13	O	0.574893	-0.008502	0.042491
O14	O	0.908226	0.324831	0.375825
O15	O	1.241559	0.658164	0.709158
O16	O	0.500123	0.066267	0.042473
O17	O	0.833457	0.399601	0.375806
O18	O	1.166790	0.732934	0.709140
O19	O	0.640917	0.057522	0.042489
O20	O	0.974250	0.390855	0.375823
O21	O	1.307583	0.724188	0.709156
Cu22	Cu	0.570519	0.061896	0.050229
Cu23	Cu	0.903852	0.395229	0.383563
Cu24	Cu	1.237185	0.728562	0.716896
Cu25	Cu	0.570536	0.061882	-0.050125
Cu26	Cu	0.903869	0.395215	0.283208
Cu27	Cu	1.237202	0.728548	0.616542
O28	O	0.566147	0.132291	0.042471
O29	O	0.899481	0.465625	0.375804
O30	O	1.232814	0.798958	0.709138
C31	C	0.482124	0.066078	0.000042
C32	C	0.815457	0.399411	0.333376
C33	C	1.148790	0.732744	0.666709
C34	C	0.428469	0.065525	0.000036
C35	C	0.761802	0.398858	0.333370
C36	C	1.095135	0.732192	0.666703
C37	C	0.089654	0.106229	0.000053
C38	C	0.422987	0.439562	0.333386
C39	C	0.756320	0.772895	0.666719
C40	C	-0.112006	0.104178	0.000057
C41	C	0.221327	0.437511	0.333391
C42	C	0.554661	0.770844	0.666724
O43	O	-0.143262	0.141398	0.000074
O44	O	0.190072	0.474732	0.333408
O45	O	0.523405	0.808065	0.666741
N46	N	-0.131130	0.059843	0.000063
N47	N	0.202204	0.393176	0.333396
N48	N	0.535537	0.726509	0.666730
C49	C	-0.099835	0.016017	0.000071
C50	C	0.233498	0.349350	0.333404
C51	C	0.566832	0.682684	0.666737
O52	O	-0.120728	-0.021740	0.000081
O53	O	0.212605	0.311593	0.333414
O54	O	0.545938	0.644927	0.666747
C55	C	0.101824	0.018068	0.000069
C56	C	0.435157	0.351402	0.333403
C57	C	0.768490	0.684735	0.666736
C58	C	0.120944	0.062407	0.000059
C59	C	0.454278	0.395740	0.333392
C60	C	0.787611	0.729073	0.666725
C61	C	0.108775	0.150563	0.000043
C62	C	0.442108	0.483897	0.333376
C63	C	0.775442	0.817230	0.666709
C64	C	0.159187	0.151076	0.000039
C65	C	0.492520	0.484409	0.333372
C66	C	0.825853	0.817742	0.666705
C67	C	0.190477	0.107253	0.000045
C68	C	0.523811	0.440587	0.333378
C69	C	0.857144	0.773920	0.666711
C70	C	0.171356	0.062919	0.000055
C71	C	0.504690	0.396252	0.333388
C72	C	0.838023	0.729585	0.666721
C73	C	0.133117	-0.025757	0.000081
C74	C	0.466451	0.307577	0.333414
C75	C	0.799784	0.640910	0.666747
C76	C	0.183535	-0.025240	0.000082
C77	C	0.516868	0.308094	0.333415
C78	C	0.850201	0.641427	0.666748
C79	C	0.202655	0.019098	0.000071
C80	C	0.535989	0.352432	0.333404
C81	C	0.869322	0.685765	0.666738
C82	C	0.253059	0.019609	0.000057
C83	C	0.586392	0.352942	0.333390
C84	C	0.919725	0.686276	0.666724
N85	N	0.272183	0.063944	0.000051
N86	N	0.605516	0.397277	0.333385
N87	N	0.938849	0.730611	0.666718
C88	C	0.240892	0.107766	0.000045
C89	C	0.574225	0.441100	0.333379
C90	C	0.907559	0.774433	0.666712
C91	C	-0.205709	0.014943	0.000070
C92	C	0.127624	0.348276	0.333404
C93	C	0.460957	0.681610	0.666737
C94	C	-0.256124	0.014430	0.000070
C95	C	0.077210	0.347763	0.333403
C96	C	0.410543	0.681097	0.666736
C97	C	-0.268291	0.102591	0.000057
C98	C	0.065042	0.435924	0.333391
C99	C	0.398376	0.769258	0.666724
C100	C	-0.217876	0.103104	0.000054
C101	C	0.115458	0.436437	0.333388
C102	C	0.448791	0.769770	0.666721
C103	C	-0.186585	0.059278	0.000065
C104	C	0.146748	0.392612	0.333398
C105	C	0.480081	0.725945	0.666731
C106	C	0.346761	0.108839	0.000036
C107	C	0.680094	0.442172	0.333370
C108	C	1.013428	0.775505	0.666703
C109	C	0.397178	0.109347	0.000030
C110	C	0.730511	0.442681	0.333364
C111	C	1.063845	0.776014	0.666697
C112	C	0.409341	0.021186	0.000045
C113	C	0.742674	0.354520	0.333379
C114	C	1.076008	0.687853	0.666712
C115	C	0.358929	0.020678	0.000049
C116	C	0.692262	0.354011	0.333382
C117	C	1.025595	0.687344	0.666715
C118	C	0.327639	0.064508	0.000046
C119	C	0.660973	0.397841	0.333379
C120	C	0.994306	0.731175	0.666713
O121	O	0.284343	-0.017592	0.000046
O122	O	0.617676	0.315741	0.333379
O123	O	0.951009	0.649075	0.666713
O124	O	0.261794	0.145518	0.000047
O125	O	0.595128	0.478851	0.333380
O126	O	0.928461	0.812184	0.666713
C127	C	0.039242	0.105716	0.000057
C128	C	0.372575	0.439050	0.333390
C129	C	0.705908	0.772383	0.666723
C130	C	0.020120	0.061382	0.000067
C131	C	0.353454	0.394715	0.333400
C132	C	0.686787	0.728049	0.666733
C133	C	0.051411	0.017560	0.000073
C134	C	0.384744	0.350893	0.333406
C135	C	0.718078	0.684226	0.666740
C136	C	-0.030294	0.060869	0.000066
C137	C	0.303039	0.394202	0.333399
C138	C	0.636373	0.727536	0.666733
C139	C	-0.061585	0.104691	0.000060
C140	C	0.271749	0.438025	0.333393
C141	C	0.605082	0.771358	0.666727
C142	C	-0.042461	0.149026	0.000054
C143	C	0.290872	0.482360	0.333388
C144	C	0.624206	0.815693	0.666721
C145	C	0.007951	0.149539	0.000050
C146	C	0.341284	0.482872	0.333384
C147	C	0.674618	0.816205	0.666717
C148	C	0.032287	-0.026775	0.000078
C149	C	0.365621	0.306558	0.333412
C150	C	0.698954	0.639891	0.666745
C151	C	-0.018125	-0.027284	0.000082
C152	C	0.315208	0.306049	0.333415
C153	C	0.648541	0.639383	0.666749
C154	C	-0.049416	0.016538	0.000076
C155	C	0.283917	0.349871	0.333409
C156	C	0.617251	0.683205	0.666742
C157	C	0.574716	-0.026515	0.000064
C158	C	0.908050	0.306818	0.333397
C159	C	1.241383	0.640152	0.666731
C160	C	0.574164	-0.080170	0.000068
C161	C	0.907497	0.253163	0.333401
C162	C	1.240830	0.586497	0.666735
C163	C	0.614867	-0.418985	0.000046
C164	C	0.948201	-0.085652	0.333380
C165	C	1.281534	0.247682	0.666713
C166	C	0.612816	-0.620645	0.000039
C167	C	0.946150	-0.287311	0.333372
C168	C	1.279483	0.046022	0.666706
O169	O	0.650037	-0.651900	0.000021
O170	O	0.983370	-0.318567	0.333354
O171	O	1.316704	0.014766	0.666688
N172	N	0.568481	-0.639768	0.000034
N173	N	0.901814	-0.306435	0.333368
N174	N	1.235148	0.026898	0.666701
C175	C	0.524656	-0.608474	0.000028
C176	C	0.857989	-0.275140	0.333362
C177	C	1.191322	0.058193	0.666695
O178	O	0.486899	-0.629367	0.000019
O179	O	0.820232	-0.296033	0.333352
O180	O	1.153565	0.037300	0.666686
C181	C	0.526707	-0.406815	0.000032
C182	C	0.860040	-0.073482	0.333365
C183	C	1.193374	0.259852	0.666699
C184	C	0.571045	-0.387694	0.000042
C185	C	0.904378	-0.054361	0.333375
C186	C	1.237712	0.278972	0.666709
C187	C	0.659202	-0.399864	0.000056
C188	C	0.992535	-0.066530	0.333389
C189	C	1.325868	0.266803	0.666722
C190	C	0.659714	-0.349452	0.000060
C191	C	0.993047	-0.016118	0.333394
C192	C	1.326381	0.317215	0.666727
C193	C	0.615892	-0.318161	0.000056
C194	C	0.949225	0.015172	0.333389
C195	C	1.282559	0.348506	0.666722
C196	C	0.571557	-0.337282	0.000046
C197	C	0.904891	-0.003949	0.333380
C198	C	1.238224	0.329384	0.666713
C199	C	0.482882	-0.375521	0.000022
C200	C	0.816215	-0.042188	0.333356
C201	C	1.149549	0.291145	0.666689
C202	C	0.483399	-0.325104	0.000022
C203	C	0.816732	0.008229	0.333355
C204	C	1.150066	0.341563	0.666689
C205	C	0.527737	-0.305983	0.000032
C206	C	0.861070	0.027350	0.333365
C207	C	1.194404	0.360683	0.666698
C208	C	0.528247	-0.255580	0.000046
C209	C	0.861581	0.077754	0.333380
C210	C	1.194914	0.411087	0.666713
N211	N	0.572583	-0.236456	0.000051
N212	N	0.905916	0.096877	0.333384
N213	N	1.239249	0.430211	0.666718
C214	C	0.616405	-0.267747	0.000056
C215	C	0.949738	0.065587	0.333389
C216	C	1.283072	0.398920	0.666722
C217	C	0.523582	-0.714348	0.000027
C218	C	0.856915	-0.381014	0.333361
C219	C	1.190248	-0.047681	0.666694
C220	C	0.523069	-0.764762	0.000027
C221	C	0.856402	-0.431429	0.333361
C222	C	1.189735	-0.098096	0.666694
C223	C	0.611230	-0.776930	0.000037
C224	C	0.944563	-0.443596	0.333371
C225	C	1.277896	-0.110263	0.666704
C226	C	0.611742	-0.726514	0.000041
C227	C	0.945075	-0.393181	0.333374
C228	C	1.278409	-0.059848	0.666708
C229	C	0.567917	-0.695224	0.000032
C230	C	0.901250	-0.361891	0.333365
C231	C	1.234583	-0.028557	0.666699
C232	C	0.617477	-0.161878	0.000066
C233	C	0.950811	0.171456	0.333399
C234	C	1.284144	0.504789	0.666733
C235	C	0.617986	-0.111461	0.000073
C236	C	0.951319	0.221873	0.333406
C237	C	1.284652	0.555206	0.666739
C238	C	0.529825	-0.099298	0.000060
C239	C	0.863158	0.234036	0.333393
C240	C	1.196492	0.567369	0.666727
C241	C	0.529316	-0.149710	0.000056
C242	C	0.862650	0.183623	0.333389
C243	C	1.195983	0.516957	0.666723
C244	C	0.573147	-0.180999	0.000057
C245	C	0.906480	0.152334	0.333391
C246	C	1.239813	0.485667	0.666724
O247	O	0.491047	-0.224296	0.000059
O248	O	0.824380	0.109038	0.333392
O249	O	1.157713	0.442371	0.666725
O250	O	0.654156	-0.246844	0.000054
O251	O	0.987490	0.086489	0.333387
O252	O	1.320823	0.419823	0.666720
C253	C	0.614355	-0.469397	0.000042
C254	C	0.947688	-0.136064	0.333375
C255	C	1.281022	0.197270	0.666709
C256	C	0.570021	-0.488518	0.000033
C257	C	0.903354	-0.155185	0.333366
C258	C	1.236687	0.178148	0.666699
C259	C	0.526198	-0.457228	0.000028
C260	C	0.859532	-0.123894	0.333361
C261	C	1.192865	0.209439	0.666695
C262	C	0.569508	-0.538933	0.000033
C263	C	0.902841	-0.205599	0.333366
C264	C	1.236174	0.127734	0.666699
C265	C	0.613330	-0.570223	0.000037
C266	C	0.946663	-0.236890	0.333371
C267	C	1.279996	0.096443	0.666704
C268	C	0.657665	-0.551100	0.000042
C269	C	0.990998	-0.217766	0.333375
C270	C	1.324332	0.115567	0.666709
C271	C	0.658177	-0.500688	0.000046
C272	C	0.991511	-0.167354	0.333380
C273	C	1.324844	0.165979	0.666713
C274	C	0.481863	-0.476351	0.000023
C275	C	0.815197	-0.143018	0.333357
C276	C	1.148530	0.190315	0.666690
C277	C	0.481355	-0.526764	0.000019
C278	C	0.814688	-0.193430	0.333353
C279	C	1.148021	0.139903	0.666686
C280	C	0.525177	-0.558054	0.000024
C281	C	0.858510	-0.224721	0.333357
C282	C	1.191843	0.108612	0.666691
C283	C	0.658931	0.057699	0.000061
C284	C	0.992264	0.391033	0.333394
C285	C	1.325598	0.724366	0.666728
C286	C	0.712586	0.058252	0.000064
C287	C	1.045919	0.391586	0.333397
C288	C	1.379252	0.724919	0.666730
C289	C	0.566338	0.150292	0.000040
C290	C	0.899671	0.483626	0.333373
C291	C	1.233005	0.816959	0.666706
C292	C	0.566891	0.203947	0.000032
C293	C	0.900224	0.537280	0.333365
C294	C	1.233557	0.870614	0.666699
N295	N	0.570510	0.061905	0.120813
N296	N	0.903844	0.395238	0.454147
N297	N	1.237177	0.728572	0.787480
N298	N	0.570548	0.061868	-0.120709
N299	N	0.903881	0.395202	0.212624
N300	N	1.237215	0.728535	0.545958
C301	C	0.603640	0.028781	0.473336
C302	C	0.936974	0.362115	0.806669
C303	C	1.270307	0.695448	1.140002
C304	C	0.603651	0.028774	0.686994
C305	C	0.936984	0.362108	1.020327
C306	C	1.270318	0.695441	1.353661
O307	O	0.631801	0.000614	0.714623
O308	O	0.965134	0.333947	1.047956
O309	O	1.298467	0.667280	1.381290
N310	N	0.570538	0.061871	0.713707
N311	N	0.903872	0.395204	1.047041
N312	N	1.237205	0.728538	1.380374
C313	C	0.537419	0.094970	0.687003
C314	C	0.870752	0.428303	1.020336
C315	C	1.204085	0.761636	1.353669
O316	O	0.509251	0.123117	0.714626
O317	O	0.842585	0.456450	1.047960
O318	O	1.175918	0.789784	1.381293
C319	C	0.537406	0.094974	0.473345
C320	C	0.870739	0.428307	0.806678
C321	C	1.204073	0.761640	1.140012
C322	C	0.570524	0.061878	0.446635
C323	C	0.903857	0.395212	0.779968
C324	C	1.237191	0.728545	1.113301
C325	C	0.636755	-0.004312	0.446625
C326	C	0.970088	0.329021	0.779958
C327	C	1.303422	0.662355	1.113292
C328	C	0.636754	-0.004308	0.393214
C329	C	0.970087	0.329025	0.726547
C330	C	1.303421	0.662358	1.059880
C331	C	0.603638	0.028789	0.366513
C332	C	0.936971	0.362122	0.699846
C333	C	1.270304	0.695455	1.033179
C334	C	0.570523	0.061882	0.393223
C335	C	0.903856	0.395215	0.726556
C336	C	1.237189	0.728549	1.059890
C337	C	0.504284	0.128070	0.446641
C338	C	0.837618	0.461403	0.779975
C339	C	1.170951	0.794736	1.113308
C340	C	0.504283	0.128067	0.393223
C341	C	0.837617	0.461400	0.726557
C342	C	1.170950	0.794734	1.059890
C343	C	0.537401	0.094971	0.366513
C344	C	0.870735	0.428305	0.699846
C345	C	1.204068	0.761638	1.033180
C346	C	0.537405	0.094983	0.313111
C347	C	0.870739	0.428316	0.646444
C348	C	1.204072	0.761649	0.979777
N349	N	0.570518	0.061886	0.286397
N350	N	0.903851	0.395219	0.619731
N351	N	1.237185	0.728553	0.953064
C352	C	0.603634	0.028789	0.313098
C353	C	0.936967	0.362122	0.646432
C354	C	1.270301	0.695456	0.979765
C355	C	0.537428	0.094966	0.799176
C356	C	0.870762	0.428299	1.132509
C357	C	1.204095	0.761632	1.465843
C358	C	0.537432	0.094965	0.852590
C359	C	0.870765	0.428299	1.185923
C360	C	1.204099	0.761632	1.519257
C361	C	0.603664	0.028769	0.852578
C362	C	0.936997	0.362103	1.185911
C363	C	1.270330	0.695436	1.519245
C364	C	0.603662	0.028773	0.799163
C365	C	0.936995	0.362106	1.132496
C366	C	1.270329	0.695439	1.465829
C367	C	0.570541	0.061869	0.772463
C368	C	0.903874	0.395202	1.105796
C369	C	1.237207	0.728536	1.439129
C370	C	0.603629	0.028800	0.200931
C371	C	0.936963	0.362133	0.534264
C372	C	1.270296	0.695467	0.867597
C373	C	0.603626	0.028808	0.147514
C374	C	0.936960	0.362141	0.480848
C375	C	1.270293	0.695475	0.814181
C376	C	0.537393	0.095002	0.147531
C377	C	0.870726	0.428335	0.480865
C378	C	1.204060	0.761669	0.814198
C379	C	0.537397	0.094996	0.200943
C380	C	0.870731	0.428329	0.534276
C381	C	1.204064	0.761662	0.867609
C382	C	0.570517	0.061891	0.227641
C383	C	0.903851	0.395224	0.560974
C384	C	1.237184	0.728557	0.894308
O385	O	0.509267	0.123125	0.285449
O386	O	0.842600	0.456458	0.618782
O387	O	1.175933	0.789792	0.952116
O388	O	0.631790	0.000639	0.285466
O389	O	0.965123	0.333972	0.618799
O390	O	1.298457	0.667306	0.952132
C391	C	0.603641	0.028777	0.526747
C392	C	0.936975	0.362111	0.860080
C393	C	1.270308	0.695444	1.193414
C394	C	0.570527	0.061871	0.553457
C395	C	0.903860	0.395204	0.886791
C396	C	1.237193	0.728537	1.220124
C397	C	0.537410	0.094968	0.526756
C398	C	0.870744	0.428301	0.860090
C399	C	1.204077	0.761634	1.193423
C400	C	0.570530	0.061870	0.606872
C401	C	0.903864	0.395204	0.940205
C402	C	1.237197	0.728537	1.273538
C403	C	0.603646	0.028773	0.633573
C404	C	0.936980	0.362107	0.966906
C405	C	1.270313	0.695440	1.300239
C406	C	0.636759	-0.004323	0.606859
C407	C	0.970092	0.329010	0.940193
C408	C	1.303426	0.662343	1.273526
C409	C	0.636758	-0.004320	0.553448
C410	C	0.970091	0.329014	0.886781
C411	C	1.303424	0.662347	1.220115
C412	C	0.504298	0.128064	0.553470
C413	C	0.837631	0.461398	0.886803
C414	C	1.170965	0.794731	1.220136
C415	C	0.504302	0.128058	0.606881
C416	C	0.837635	0.461391	0.940214
C417	C	1.170969	0.794725	1.273548
C418	C	0.537418	0.094961	0.633582
C419	C	0.870752	0.428294	0.966915
C420	C	1.204085	0.761628	1.300249
H421	H	-0.033688	-0.063392	0.000086
H422	H	0.299645	0.269941	0.333420
H423	H	0.632979	0.603275	0.666753
H424	H	0.446777	-0.391080	0.000011
H425	H	0.780111	-0.057747	0.333345
H426	H	1.113444	0.275586	0.666678
H427	H	0.630597	0.001858	0.125768
H428	H	0.963930	0.335191	0.459102
H429	H	1.297263	0.668524	0.792435
F430	F	0.638910	-0.006452	0.770741
F431	F	0.972243	0.326881	1.104074
F432	F	1.305576	0.660214	1.437407
F433	F	0.435219	-0.443055	0.000017
F434	F	0.768552	-0.109722	0.333350
F435	F	1.101886	0.223611	0.666684
F436	F	0.442651	-0.025450	0.000053
F437	F	0.775985	0.307884	0.333386
F438	F	1.109318	0.641217	0.666719
F439	F	0.672006	-0.039545	0.525027
F440	F	1.005339	0.293789	0.858360
F441	F	1.338673	0.627122	1.191694
H442	H	0.447710	-0.299629	0.000014
H443	H	0.781043	0.033704	0.333347
H444	H	1.114377	0.367037	0.666681
H445	H	0.695819	-0.333889	0.000066
H446	H	1.029152	-0.000555	0.333400
H447	H	1.362485	0.332778	0.666733
H448	H	-0.202311	0.139207	0.000049
H449	H	0.131022	0.472541	0.333382
H450	H	0.464355	0.805874	0.666715
H451	H	0.663720	-0.031259	0.371469
H452	H	0.997053	0.302075	0.704802
H453	H	1.330387	0.635408	1.038136
F454	F	0.502175	0.130195	0.770765
F455	F	0.835508	0.463528	1.104098
F456	F	1.168842	0.796861	1.437432
H457	H	0.445246	-0.542327	0.000016
H458	H	0.778580	-0.208993	0.333349
H459	H	1.111913	0.124340	0.666682
H460	H	0.494146	-0.073812	0.000058
H461	H	0.827480	0.259522	0.333391
H462	H	1.160813	0.592855	0.666725
H463	H	0.663722	-0.031266	0.468360
H464	H	0.997056	0.302068	0.801694
H465	H	1.330389	0.635401	1.135027
H466	H	0.174750	0.187180	0.000030
H467	H	0.508083	0.520513	0.333363
H468	H	0.841417	0.853847	0.666696
F469	F	-0.276468	-0.032761	0.000070
F470	F	0.056866	0.300573	0.333403
F471	F	0.390199	0.633906	0.666736
H472	H	0.663725	-0.031271	0.628608
H473	H	0.997059	0.302063	0.961941
H474	H	1.330392	0.635396	1.295275
F475	F	0.638908	-0.006455	0.881005
F476	F	0.972242	0.326879	1.214338
F477	F	1.305575	0.660212	1.547671
F478	F	0.705848	-0.433159	0.000060
F479	F	1.039181	-0.099826	0.333394
F480	F	1.372514	0.233508	0.666727
H481	H	-0.067947	0.184708	0.000047
H482	H	0.265386	0.518041	0.333381
H483	H	0.598720	0.851375	0.666714
H484	H	0.486964	-0.780325	0.000028
H485	H	0.820297	-0.446992	0.333362
H486	H	1.153631	-0.113659	0.666695
F487	F	0.664126	-0.195171	0.000067
F488	F	0.997460	0.138162	0.333400
F489	F	1.330793	0.471496	0.666734
H490	H	0.654093	-0.095896	0.000082
H491	H	0.987426	0.237438	0.333415
H492	H	1.320759	0.570771	0.666749
H493	H	0.023514	0.185643	0.000042
H494	H	0.356847	0.518977	0.333376
H495	H	0.690181	0.852310	0.666709
F496	F	0.469049	0.163292	0.525058
F497	F	0.802383	0.496625	0.858392
F498	F	1.135716	0.829959	1.191725
H499	H	0.477317	0.155019	0.468381
H500	H	0.810650	0.488352	0.801715
H501	H	1.143983	0.821685	1.135048
F502	F	0.469053	0.163288	0.635303
F503	F	0.802387	0.496621	0.968636
F504	F	1.135720	0.829954	1.301970
F505	F	0.657869	-0.810240	0.000041
F506	F	0.991202	-0.476907	0.333374
F507	F	1.324535	-0.143573	0.666708
H508	H	-0.180236	-0.020747	0.000079
H509	H	0.153097	0.312586	0.333412
H510	H	0.486430	0.645920	0.666745
H511	H	0.630598	0.001842	0.222662
H512	H	0.963931	0.335175	0.555996
H513	H	1.297265	0.668509	0.889329
H514	H	0.412743	0.145454	0.000021
H515	H	0.746076	0.478787	0.333355
H516	H	1.079410	0.812121	0.666688
H517	H	0.321291	0.144530	0.000036
H518	H	0.654624	0.477863	0.333369
H519	H	0.987957	0.811196	0.666703
H520	H	0.510469	0.121920	0.874334
H521	H	0.843803	0.455253	1.207667
H522	H	1.177136	0.788587	1.541001
F523	F	0.469029	0.163293	0.364811
F524	F	0.802362	0.496626	0.698144
F525	F	1.135696	0.829960	1.031477
H526	H	0.487892	-0.688875	0.000020
H527	H	0.821225	-0.355542	0.333354
H528	H	1.154558	-0.022208	0.666687
F529	F	0.075480	0.197209	0.000036
F530	F	0.408813	0.530542	0.333369
F531	F	0.742146	0.863876	0.666703
F532	F	0.065583	-0.073420	0.000086
F533	F	0.398917	0.259914	0.333419
F534	F	0.732250	0.593247	0.666753
F535	F	0.502151	0.130226	0.119106
F536	F	0.835484	0.463559	0.452439
F537	F	1.168817	0.796892	0.785773
F538	F	-0.301601	0.149230	0.000052
F539	F	0.031732	0.482563	0.333385
F540	F	0.365065	0.815897	0.666718
F541	F	0.112779	-0.072948	0.000085
F542	F	0.446112	0.260385	0.333418
F543	F	0.779445	0.593719	0.666752
F544	F	0.482127	-0.170060	0.000055
F545	F	0.815461	0.163273	0.333388
F546	F	1.148794	0.496606	0.666721
H547	H	0.694282	-0.485125	0.000054
H548	H	1.027615	-0.151791	0.333388
H549	H	1.360949	0.181542	0.666721
F550	F	0.502154	0.130225	0.229369
F551	F	0.835487	0.463559	0.562702
F552	F	1.168821	0.796892	0.896036
H553	H	0.647846	-0.710950	0.000048
H554	H	0.981179	-0.377617	0.333382
H555	H	1.314513	-0.044283	0.666715
H556	H	0.209009	-0.060929	0.000091
H557	H	0.542343	0.272405	0.333424
H558	H	0.875676	0.605738	0.666757
F559	F	0.338578	-0.026511	0.000060
F560	F	0.671911	0.306822	0.333394
F561	F	1.005245	0.640155	0.666727
H562	H	0.693347	-0.576585	0.000048
H563	H	1.026680	-0.243252	0.333381
H564	H	1.360013	0.090081	0.666715
