data_functionalizedCrystal
_audit_creation_method	'MofGen! by Chris Wilmer'
_symmetry_space_group_name_H-M	'P1'
_symmetry_Int_Tables_number	1
_symmetry_cell_setting	triclinic
loop_
_symmetry_equiv_pos_as_xyz
  x,y,z
_cell_length_a	27.732048
_cell_length_b	13.596369
_cell_length_c	14.519709
_cell_angle_alpha	90.006934
_cell_angle_beta	96.838600
_cell_angle_gamma	90.000164
loop_
_atom_site_label
_atom_site_type_symbol
_atom_site_fract_x
_atom_site_fract_y
_atom_site_fract_z
O1	O	0.641452	-0.081667	-0.109733
O2	O	0.500738	-0.081697	-0.126418
O3	O	0.574826	-0.081672	0.016228
O4	O	0.567364	-0.081692	-0.252379
O5	O	0.574819	0.081911	0.016236
O6	O	0.500731	0.081886	-0.126410
O7	O	0.641445	0.081916	-0.109725
Zn8	Zn	0.571087	0.107873	-0.118067
Zn9	Zn	0.571096	-0.107654	-0.118076
O10	O	0.567357	0.081891	-0.252371
C11	C	0.482726	0.000091	-0.126064
C12	C	0.429066	0.000080	-0.125009
N13	N	0.571084	0.254965	-0.118059
N14	N	0.571103	-0.254746	-0.118076
C15	C	0.090622	0.000117	-0.202664
C16	C	-0.111056	0.000126	-0.198751
O17	O	-0.141972	0.000163	-0.269761
N18	N	-0.130584	0.000130	-0.114168
C19	C	-0.099689	0.000139	-0.030557
O20	O	-0.120926	0.000153	0.041476
C21	C	0.101988	0.000137	-0.034471
C22	C	0.121513	0.000122	-0.119060
C23	C	0.110148	0.000103	-0.287246
C24	C	0.160564	0.000096	-0.288223
C25	C	0.191455	0.000101	-0.204619
C26	C	0.171930	0.000115	-0.120037
C27	C	0.132882	0.000152	0.049139
C28	C	0.183304	0.000154	0.048153
C29	C	0.202829	0.000140	-0.036436
C30	C	0.253238	0.000113	-0.037410
N31	N	0.272766	0.000108	-0.121993
C32	C	0.241875	0.000103	-0.205597
C33	C	-0.205573	0.000138	-0.028508
C34	C	-0.255992	0.000136	-0.027530
C35	C	-0.267356	0.000125	-0.195724
C36	C	-0.216936	0.000120	-0.196702
C37	C	-0.186045	0.000133	-0.113091
C38	C	0.347754	0.000086	-0.207643
C39	C	0.398175	0.000074	-0.208613
C40	C	0.409534	0.000090	-0.040420
C41	C	0.359117	0.000097	-0.039449
C42	C	0.328227	0.000098	-0.123069
O43	O	0.284182	0.000086	0.033562
O44	O	0.263121	0.000110	-0.277620
C45	C	0.040206	0.000124	-0.201687
C46	C	0.020680	0.000137	-0.117105
C47	C	0.051571	0.000143	-0.033501
C48	C	-0.029739	0.000136	-0.116126
C49	C	-0.060630	0.000131	-0.199731
C50	C	-0.041102	0.000126	-0.284314
C51	C	0.009315	0.000119	-0.285291
C52	C	0.032043	0.000147	0.051082
C53	C	-0.018374	0.000154	0.052053
C54	C	-0.049265	0.000148	-0.031552
C55	C	0.659457	0.000126	-0.110079
C56	C	0.713117	0.000131	-0.111134
C57	C	0.574475	0.000119	0.050586
C58	C	0.573433	0.000120	0.152949
C59	C	0.571096	0.656256	-0.118077
C60	C	0.571091	0.544605	-0.118075
C61	C	0.571090	0.455614	-0.118069
C62	C	0.571085	0.343956	-0.118066
C63	C	0.567708	0.000098	-0.286729
C64	C	0.568751	0.000091	-0.389092
C65	C	0.569596	0.000093	0.527778
C66	C	0.570662	0.000101	0.423488
C67	C	0.571514	0.000107	0.340367
C68	C	0.572580	0.000113	0.236071
H69	H	0.414069	0.000062	-0.277498
H70	H	-0.292516	0.000121	-0.263798
H71	H	0.085001	0.000102	-0.355330
N72	N	0.442860	0.000104	0.049746
H73	H	0.436572	0.060752	0.086679
H74	H	0.436559	-0.060568	0.086616
N75	N	0.030370	0.000097	-0.376526
H76	H	0.003144	0.000093	-0.429333
H77	H	0.051043	0.060735	-0.380604
H78	H	0.322609	0.000090	-0.275734
H79	H	-0.180425	0.000149	0.039581
N80	N	0.181620	0.000075	-0.379458
H81	H	0.154394	0.000073	-0.432265
H82	H	0.202293	0.060715	-0.383534
N83	N	-0.195878	0.000101	-0.287934
H84	H	-0.223102	0.000093	-0.340744
H85	H	-0.175207	0.060743	-0.292010
H86	H	-0.271885	0.000133	0.041351
H87	H	-0.066263	0.000118	-0.352387
H88	H	-0.034266	0.000158	0.120940
H89	H	0.116994	0.000165	0.118020
H90	H	0.208454	0.000166	0.116240
N91	N	0.338054	0.000093	0.051782
H92	H	0.365276	0.000091	0.104596
H93	H	0.317387	0.060742	0.055857
N94	N	0.065358	0.000160	0.141260
H95	H	0.045332	0.000166	0.194985
H96	H	0.086523	-0.060484	0.144522
