data_functionalizedCrystal
_audit_creation_method	'MofGen! by Chris Wilmer'
_symmetry_space_group_name_H-M	'P1'
_symmetry_Int_Tables_number	1
_symmetry_cell_setting	triclinic
loop_
_symmetry_equiv_pos_as_xyz
  x,y,z
_cell_length_a	15.944545
_cell_length_b	15.021413
_cell_length_c	9.065218
_cell_angle_alpha	89.994080
_cell_angle_beta	84.256029
_cell_angle_gamma	90.004532
loop_
_atom_site_label
_atom_site_type_symbol
_atom_site_fract_x
_atom_site_fract_y
_atom_site_fract_z
O1	O	1.115973	0.073971	0.190208
O2	O	0.871601	0.073985	0.213676
O3	O	0.998838	0.073976	-0.012819
O4	O	0.988736	0.073980	0.416703
O5	O	0.998818	-0.074089	-0.012786
O6	O	0.871580	-0.074079	0.213708
O7	O	1.115953	-0.074093	0.190240
Zn8	Zn	0.993763	-0.097595	0.201979
Zn9	Zn	0.993790	0.097486	0.201937
O10	O	0.988715	-0.074084	0.416735
C11	C	0.840289	-0.000046	0.212720
C12	C	0.747021	-0.000040	0.209804
C13	C	0.475258	-0.000051	0.060699
C14	C	0.526374	-0.073056	0.132601
C15	C	0.411298	-0.000055	0.199405
C16	C	0.526375	0.072924	0.132606
C17	C	0.576250	-0.000046	0.204507
C18	C	0.461186	-0.073121	0.271270
C19	C	0.461183	0.072925	0.271255
C20	C	0.512267	-0.000098	0.343259
C21	C	0.316274	-0.000061	0.196462
C22	C	0.671272	-0.000047	0.207460
N23	N	0.993751	-0.230732	0.202008
C24	C	0.934907	-0.470412	0.306690
C25	C	1.011025	-0.529750	0.335328
C26	C	0.993772	-0.412339	0.201971
C27	C	0.917676	-0.529743	0.173365
C28	C	0.993786	-0.587763	0.201939
C29	C	1.069929	-0.470371	0.230675
C30	C	0.976529	-0.470359	0.068655
C31	C	1.052701	-0.529670	0.097237
C32	C	0.993763	-0.311282	0.201993
C33	C	0.993804	-0.688819	0.201915
C34	C	1.147264	-0.000061	0.191197
C35	C	1.240533	-0.000061	0.194113
C36	C	0.997857	-0.000055	-0.067766
C37	C	0.994954	-0.000051	-0.231541
N38	N	0.993809	0.230624	0.201897
C39	C	0.989696	-0.000052	0.471683
C40	C	0.992599	-0.000050	0.635458
H41	H	0.432811	-0.134907	0.329819
H42	H	1.102543	-0.555526	0.008660
C43	C	0.534418	-0.000140	0.504755
H44	H	0.566059	0.051744	0.522116
H45	H	0.566845	-0.051529	0.521602
H46	H	0.484005	-0.000645	0.570182
C47	C	0.956783	-0.435078	-0.083576
H48	H	1.002780	-0.400277	-0.126013
H49	H	0.907388	-0.399393	-0.071600
H50	H	0.948007	-0.483803	-0.147044
H51	H	0.885178	-0.444392	0.395319
C52	C	1.030739	-0.565006	0.487603
H53	H	0.988858	-0.544724	0.561913
H54	H	1.084397	-0.543808	0.508642
H55	H	1.031104	-0.628242	0.486204
H56	H	0.853316	-0.555824	0.149186
C57	C	0.422681	0.156304	0.350299
H58	H	0.445099	0.208127	0.300842
H59	H	0.435978	0.156829	0.450126
H60	H	0.363206	0.155407	0.348657
C61	C	0.564848	0.156301	0.053439
H62	H	0.593112	0.190683	0.121199
H63	H	0.521305	0.190903	0.017675
H64	H	0.603876	0.138750	-0.027394
C65	C	0.452879	-0.000147	-0.100664
H66	H	0.475307	-0.052084	-0.149717
H67	H	0.476172	0.051187	-0.150423
H68	H	0.393343	0.000377	-0.101395
C69	C	0.564859	-0.156428	0.053487
H70	H	0.552433	-0.156340	-0.046845
H71	H	0.541664	-0.208271	0.101778
H72	H	0.624230	-0.156093	0.056690
C73	C	1.156890	-0.435296	0.263540
H74	H	1.156345	-0.372054	0.263406
H75	H	1.198733	-0.456058	0.189586
H76	H	1.169232	-0.456127	0.357933
