data_functionalizedCrystal
_audit_creation_method	'MofGen! by Chris Wilmer'
_symmetry_space_group_name_H-M	'P1'
_symmetry_Int_Tables_number	1
_symmetry_cell_setting	triclinic
loop_
_symmetry_equiv_pos_as_xyz
  x,y,z
_cell_length_a	15.995355
_cell_length_b	14.472310
_cell_length_c	15.995350
_cell_angle_alpha	89.998838
_cell_angle_beta	96.506710
_cell_angle_gamma	89.991148
loop_
_atom_site_label
_atom_site_type_symbol
_atom_site_fract_x
_atom_site_fract_y
_atom_site_fract_z
O1	O	-1.110994	0.076747	0.107939
O2	O	-0.610994	0.576747	0.607939
O3	O	-0.867219	0.076768	0.121262
O4	O	-0.367219	0.576768	0.621262
O5	O	-0.995771	0.076756	-0.007287
O6	O	-0.495771	0.576756	0.492713
O7	O	-0.982443	0.076759	0.236488
O8	O	-0.482443	0.576759	0.736488
O9	O	-0.995737	-0.076926	-0.007280
O10	O	-0.495737	0.423074	0.492720
O11	O	-0.867186	-0.076914	0.121270
O12	O	-0.367186	0.423086	0.621270
O13	O	-1.110961	-0.076935	0.107946
O14	O	-0.610961	0.423065	0.607946
Cu15	Cu	-0.989071	-0.090957	0.114609
Cu16	Cu	-0.489071	0.409043	0.614609
Cu17	Cu	-0.989110	0.090790	0.114600
Cu18	Cu	-0.489110	0.590790	0.614600
O19	O	-0.982410	-0.076923	0.236496
O20	O	-0.482410	0.423077	0.736496
C21	C	-0.836008	-0.000071	0.120715
C22	C	-0.336008	0.499929	0.620715
C23	C	-0.743058	-0.000062	0.119061
C24	C	-0.243058	0.499938	0.619061
N25	N	-0.989049	-0.218788	0.114614
N26	N	-0.489049	0.281212	0.614614
C27	C	-0.572873	-0.000075	0.116060
C28	C	-0.072873	0.499925	0.616060
C29	C	-0.549527	-0.000076	0.023262
C30	C	-0.049527	0.499924	0.523262
C31	C	-0.452850	-0.000431	0.021512
C32	C	0.047150	0.499569	0.521512
C33	C	-0.405314	-0.000087	0.113104
C34	C	0.094686	0.499913	0.613104
C35	C	-0.434386	-0.087672	0.159770
C36	C	0.065614	0.412328	0.659770
C37	C	-0.531178	-0.087740	0.160874
C38	C	-0.031178	0.412260	0.660874
C39	C	-0.531126	0.087032	0.162225
C40	C	-0.031126	0.587032	0.662225
C41	C	-0.434632	0.088177	0.158795
C42	C	0.065368	0.588177	0.658795
C43	C	-0.310616	-0.000097	0.111439
C44	C	0.189384	0.499903	0.611439
C45	C	-0.667570	-0.000072	0.117729
C46	C	-0.167570	0.499928	0.617729
C47	C	-0.989109	-0.592879	0.114596
C48	C	-0.489109	-0.092879	0.614596
C49	C	-0.920093	-0.553707	0.183150
C50	C	-0.420093	-0.053707	0.683150
C51	C	-0.920252	-0.446619	0.183400
C52	C	-0.420252	0.053381	0.683400
C53	C	-0.989078	-0.407288	0.114605
C54	C	-0.489078	0.092712	0.614605
C55	C	-1.076443	-0.446133	0.133689
C56	C	-0.576443	0.053867	0.633689
C57	C	-1.076055	-0.553254	0.134176
C58	C	-0.576055	-0.053254	0.634176
C59	C	-0.971540	-0.553408	0.026757
C60	C	-0.471540	-0.053408	0.526757
C61	C	-0.969536	-0.446280	0.027342
C62	C	-0.469536	0.053720	0.527342
C63	C	-0.989067	-0.302400	0.114609
C64	C	-0.489067	0.197600	0.614609
C65	C	-0.989126	-0.697767	0.114595
C66	C	-0.489126	-0.197767	0.614595
C67	C	-0.142174	-0.000096	0.108483
C68	C	0.357826	0.499904	0.608483
C69	C	-0.235128	-0.000100	0.110103
C70	C	0.264872	0.499900	0.610103
C71	C	-0.995203	-0.000083	-0.038478
C72	C	-0.495203	0.499917	0.461522
C73	C	-0.993551	-0.000078	-0.131428
C74	C	-0.493551	0.499922	0.368572
N75	N	-0.989138	0.218620	0.114588
N76	N	-0.489138	0.718620	0.614588
C77	C	-0.987619	-0.000081	-0.469176
C78	C	-0.487619	0.499919	0.030824
C79	C	-0.896067	0.000272	-0.421743
C80	C	-0.396067	0.500272	0.078257
C81	C	-0.897719	-0.000075	-0.325053
C82	C	-0.397719	0.499925	0.174947
C83	C	-0.990562	-0.000079	-0.301615
C84	C	-0.490562	0.499921	0.198385
C85	C	-1.035699	-0.087841	-0.342688
C86	C	-0.535699	0.412159	0.157312
C87	C	-1.033399	-0.087914	-0.439324
C88	C	-0.533399	0.412086	0.060676
C89	C	-1.035328	0.086851	-0.439690
C90	C	-0.535328	0.586851	0.060310
C91	C	-1.035307	0.088011	-0.342745
C92	C	-0.535307	0.588011	0.157255
C93	C	-0.992229	-0.000081	-0.206918
C94	C	-0.492229	0.499919	0.293082
C95	C	-0.985954	-0.000085	-0.563874
C96	C	-0.485954	0.499915	-0.063874
C97	C	-0.982978	-0.000082	0.267687
C98	C	-0.482978	0.499918	0.767687
C99	C	-0.984629	-0.000081	0.360637
C100	C	-0.484629	0.499919	0.860637
H101	H	-0.433844	0.062341	-0.015017
H102	H	0.066156	0.562341	0.484983
H103	H	-0.859489	0.063208	-0.440279
H104	H	-0.359489	0.563208	0.059721
H105	H	-0.559410	0.153439	0.132945
H106	H	-0.059410	0.653439	0.632945
Br107	Br	-0.978491	-0.197250	-0.469828
Br108	Br	-0.478491	0.302750	0.030172
Br109	Br	-0.403760	0.196179	0.102134
Br110	Br	0.096240	0.696179	0.602134
H111	H	-0.862237	0.062837	-0.296635
H112	H	-0.362237	0.562837	0.203365
H113	H	-1.103012	0.093306	-0.327382
H114	H	-0.603012	0.593306	0.172618
Br115	Br	-1.101860	-0.594889	0.240947
Br116	Br	-0.601860	-0.094889	0.740947
Br117	Br	-0.379713	0.097445	0.270190
Br118	Br	0.120287	0.597445	0.770190
H119	H	-1.004322	-0.153148	-0.314304
H120	H	-0.504322	0.346852	0.185696
Br121	Br	-0.596228	0.104594	-0.036698
Br122	Br	-0.096228	0.604594	0.463302
H123	H	-0.545140	0.087877	0.230530
H124	H	-0.045140	0.587877	0.730530
H125	H	-0.855313	-0.420358	0.172030
H126	H	-0.355313	0.079642	0.672030
H127	H	-0.861971	-0.063088	-0.297186
H128	H	-0.361971	0.436912	0.202814
Br129	Br	-0.597810	-0.104605	-0.035710
Br130	Br	-0.097810	0.395395	0.464290
H131	H	-0.854943	-0.579489	0.171967
H132	H	-0.354943	-0.079489	0.671967
Br133	Br	-0.835149	-0.103712	-0.454796
Br134	Br	-0.335149	0.396288	0.045204
Br135	Br	-1.102870	-0.401406	0.239243
Br136	Br	-0.602870	0.098594	0.739243
Br137	Br	-1.164137	-0.596447	0.054028
Br138	Br	-0.664137	-0.096447	0.554028
Br139	Br	-1.145424	-0.094568	-0.493075
Br140	Br	-0.645424	0.405432	0.006925
Br141	Br	-1.149386	-0.093292	-0.319147
Br142	Br	-0.649386	0.406708	0.180853
Br143	Br	-1.047885	-0.401677	-0.061673
Br144	Br	-0.547885	0.098323	0.438327
H145	H	-1.129027	-0.420654	0.085086
H146	H	-0.629027	0.079346	0.585086
Br147	Br	-0.985455	0.197720	-0.473918
Br148	Br	-0.485455	0.697720	0.026082
Br149	Br	-0.980764	0.196241	-0.296796
Br150	Br	-0.480764	0.696241	0.203204
H151	H	-1.102829	0.087437	-0.471450
H152	H	-0.602829	0.587437	0.028550
Br153	Br	-0.867646	-0.598480	-0.003812
Br154	Br	-0.367646	-0.098480	0.496188
H155	H	-0.905270	-0.420892	0.012860
H156	H	-0.405270	0.079108	0.512860
H157	H	-1.021870	-0.578739	-0.024259
H158	H	-0.521870	-0.078739	0.475741
H159	H	-0.557950	-0.153460	0.128943
H160	H	-0.057950	0.346540	0.628943
Br161	Br	-0.422088	-0.105702	-0.039059
Br162	Br	0.077912	0.394298	0.460941
H163	H	-0.545751	-0.091484	0.228926
H164	H	-0.045751	0.408516	0.728926
H165	H	-0.931471	-0.420985	0.248584
H166	H	-0.431471	0.079015	0.748584
Br167	Br	-0.381312	-0.092695	0.272125
Br168	Br	0.118688	0.407305	0.772125
Br169	Br	-0.938541	-0.598537	0.291189
Br170	Br	-0.438541	-0.098537	0.791189
H171	H	-0.414281	-0.153101	0.127757
H172	H	0.085719	0.346899	0.627757
