data_functionalizedCrystal
_audit_creation_method	'MofGen! by Chris Wilmer'
_symmetry_space_group_name_H-M	'P1'
_symmetry_Int_Tables_number	1
_symmetry_cell_setting	triclinic
loop_
_symmetry_equiv_pos_as_xyz
  x,y,z
_cell_length_a	23.532407
_cell_length_b	11.026607
_cell_length_c	9.482900
_cell_angle_alpha	78.599815
_cell_angle_beta	99.224935
_cell_angle_gamma	95.717347
loop_
_atom_site_label
_atom_site_type_symbol
_atom_site_fract_x
_atom_site_fract_y
_atom_site_fract_z
O1	O	-0.777643	-0.128074	-0.120705
O2	O	-0.614021	-0.149356	-0.120747
O3	O	-0.682271	0.037775	-0.120724
O4	O	-0.709393	-0.315204	-0.120728
O5	O	-0.668423	-0.000387	0.121064
O6	O	-0.600173	-0.187518	0.121041
O7	O	-0.763795	-0.166236	0.121083
Cu8	Cu	-0.680720	-0.180361	0.143139
Cu9	Cu	-0.697096	-0.135230	-0.142803
O10	O	-0.695545	-0.353366	0.121060
C11	C	-0.585824	-0.167894	0.000142
C12	C	-0.522437	-0.166261	0.000125
C13	C	-0.670344	0.063845	0.000167
C14	C	-0.655428	0.198380	0.000158
C15	C	-0.791992	-0.147697	0.000191
C16	C	-0.855380	-0.149328	0.000197
C17	C	-0.133902	-0.266790	0.000190
C18	C	-0.074342	-0.265278	0.000199
O19	O	-0.047395	-0.358468	0.000251
N20	N	-0.040015	-0.154027	0.000198
C21	C	-0.065250	-0.044283	0.000203
O22	O	-0.030583	0.050483	0.000204
C23	C	-0.124808	-0.045799	0.000204
C24	C	-0.159134	-0.157055	0.000191
C25	C	-0.168227	-0.378038	0.000178
C26	C	-0.227783	-0.379549	0.000167
C27	C	-0.253014	-0.269814	0.000167
C28	C	-0.218690	-0.158567	0.000179
C29	C	-0.150042	0.063941	0.000219
C30	C	-0.209604	0.062416	0.000222
C31	C	-0.243930	-0.048840	0.000208
C32	C	-0.303477	-0.050343	0.000168
N33	N	-0.337804	-0.161594	0.000169
C34	C	-0.312573	-0.271329	0.000169
C35	C	0.059826	-0.041109	0.000202
C36	C	0.119383	-0.039591	0.000190
C37	C	0.110287	-0.260586	0.000189
C38	C	0.050728	-0.262102	0.000191
C39	C	0.025499	-0.152360	0.000203
C40	C	-0.437644	-0.274496	0.000143
C41	C	-0.497206	-0.275997	0.000125
C42	C	-0.488104	-0.055003	0.000134
C43	C	-0.428548	-0.053500	0.000144
C44	C	-0.403320	-0.163257	0.000153
O45	O	-0.330463	0.042798	0.000122
O46	O	-0.347245	-0.366083	0.000187
C47	C	-0.707473	-0.379436	0.000166
C48	C	-0.722389	-0.513970	0.000165
N49	N	-0.669206	-0.212103	0.344255
C50	C	-0.696613	0.272681	0.000166
C51	C	-0.681198	0.411731	0.000157
N52	N	-0.708614	-0.103479	-0.343920
C53	C	-0.693696	-0.144586	0.416463
C54	C	-0.684121	-0.171005	0.583877
H55	H	-0.525151	-0.366598	0.000113
C56	C	-0.140480	-0.498753	0.000168
H57	H	-0.100092	-0.481939	0.000175
H58	H	-0.156941	-0.531082	-0.084153
H59	H	-0.147285	-0.557711	0.084492
C60	C	-0.237354	0.183137	0.000219
H61	H	-0.208379	0.249608	0.000213
H62	H	-0.255577	0.173841	0.084528
H63	H	-0.265220	0.200451	-0.084117
H64	H	0.022785	-0.352697	0.000188
H65	H	-0.743284	0.233349	0.000187
H66	H	-0.736668	-0.026107	0.593965
C67	C	-0.618145	0.464845	0.000139
H68	H	-0.616056	0.551333	0.000145
H69	H	-0.604569	0.451294	-0.084179
H70	H	-0.594913	0.424688	0.084465
H71	H	0.147325	0.051008	0.000178
C72	C	-0.785441	0.432917	0.000195
H73	H	-0.787531	0.346426	0.000211
H74	H	-0.808678	0.473074	-0.084112
H75	H	-0.799010	0.446466	0.084532
H76	H	0.039288	0.048263	0.000199
H77	H	-0.417111	-0.363871	0.000155
C78	C	-0.631306	-0.316616	0.428163
H79	H	-0.629846	-0.320668	0.529677
H80	H	-0.593402	-0.300197	0.403300
H81	H	-0.647298	-0.393474	0.403289
H82	H	-0.656061	-0.248369	0.645992
H83	H	-0.608758	0.237712	0.000136
C84	C	-0.731596	-0.040072	0.332562
H85	H	-0.745715	-0.001133	0.399574
H86	H	-0.763171	-0.073933	0.273173
H87	H	-0.709276	0.019347	0.273195
C88	C	-0.265532	-0.501936	0.000180
H89	H	-0.241967	-0.567067	0.000199
H90	H	-0.293783	-0.493835	-0.084131
H91	H	-0.284124	-0.520428	0.084513
H92	H	0.130841	-0.349940	0.000196
C93	C	-0.112296	0.186322	0.000254
H94	H	-0.135860	0.251444	0.000276
H95	H	-0.093693	0.204840	-0.084054
H96	H	-0.084052	0.178189	0.084591
H97	H	-0.400600	0.037097	0.000133
C98	C	-0.515865	0.065694	0.000145
H99	H	-0.556251	0.048847	0.000155
H100	H	-0.509065	0.124665	-0.084161
H101	H	-0.499413	0.098020	0.084483
