data_functionalizedCrystal
_audit_creation_method	'MofGen! by Chris Wilmer'
_symmetry_space_group_name_H-M	'P1'
_symmetry_Int_Tables_number	1
_symmetry_cell_setting	triclinic
loop_
_symmetry_equiv_pos_as_xyz
  x,y,z
_cell_length_a	6.817900
_cell_length_b	11.102244
_cell_length_c	16.305550
_cell_angle_alpha	93.871173
_cell_angle_beta	103.455250
_cell_angle_gamma	108.604870
loop_
_atom_site_label
_atom_site_type_symbol
_atom_site_fract_x
_atom_site_fract_y
_atom_site_fract_z
V1	V	-4.052579	-0.176911	-0.263029
O2	O	-4.012740	0.007398	-0.258024
O3	O	-4.029754	-0.349723	-0.261228
O4	O	-4.003652	-0.174674	-0.377746
O5	O	-4.039022	-0.168863	-0.140700
V6	V	-4.532962	-0.154808	-0.248398
O7	O	-4.320727	-0.225395	-0.295124
O8	O	-4.715011	-0.106324	-0.216303
O9	O	-4.332581	0.018004	-0.250199
O10	O	-4.690198	-0.339117	-0.253403
O11	O	-4.663916	-0.162856	-0.370727
O12	O	-4.358682	-0.157045	-0.133681
C13	C	-3.880993	-0.391836	-0.257078
C14	C	-3.943614	-0.533115	-0.256370
C15	C	-3.930174	-0.581034	-0.178786
C16	C	-3.989025	-0.713783	-0.178131
C17	C	-4.074747	-0.750686	-0.332650
C18	C	-4.015911	-0.617939	-0.333305
C19	C	-3.880675	-0.559729	-0.089575
C20	C	-3.939526	-0.692479	-0.088920
C21	C	-3.847697	-0.168542	-0.405708
C22	C	-3.889147	-0.167856	-0.499489
C23	C	-4.039838	-0.165200	-0.840235
C24	C	-3.802616	-0.157314	-0.799306
C25	C	-3.759607	-0.158553	-0.701811
C26	C	-3.965077	-0.166517	-0.671187
C27	C	-4.150793	-0.292032	-0.721812
C28	C	-4.192551	-0.291322	-0.819361
C29	C	-4.077233	-0.048574	-0.794393
C30	C	-4.029156	-0.047580	-0.696550
C31	C	-3.922838	-0.167266	-0.575649
C32	C	-4.082087	-0.164460	-0.935774
C33	C	-4.144684	0.060110	-0.254347
C34	C	-4.061302	0.201388	-0.255060
C35	C	-4.177980	-0.163182	-0.105715
C36	C	-4.115768	-0.163861	-0.011932
H37	H	-3.795944	-0.715344	-0.051264
C38	C	-4.227804	-0.045453	-0.667711
H39	H	-4.262827	0.027365	-0.683859
H40	H	-4.345688	-0.121650	-0.694023
H41	H	-4.197439	-0.040743	-0.607452
H42	H	-3.894290	0.045258	-0.662173
H43	H	-3.702061	-0.506802	-0.058765
H44	H	-4.305492	-0.302399	-0.702899
C45	C	-4.154259	-0.843988	-0.417273
H46	H	-4.153848	-0.796434	-0.463574
H47	H	-4.061887	-0.892393	-0.417540
H48	H	-4.296127	-0.900686	-0.422920
C49	C	-4.139314	-0.746120	-0.055742
H50	H	-4.187555	-0.678148	-0.041416
H51	H	-4.250077	-0.809113	-0.098805
H52	H	-4.103544	-0.784177	-0.006524
C53	C	-3.570554	-0.036654	-0.654495
H54	H	-3.519400	0.014070	-0.694823
H55	H	-3.617483	0.011669	-0.617854
H56	H	-3.458109	-0.060503	-0.621631
C57	C	-4.310602	-0.054859	-0.830620
H58	H	-4.384944	-0.128156	-0.873473
H59	H	-4.379983	-0.060986	-0.786061
H60	H	-4.310847	0.020680	-0.854697
H61	H	-4.026875	-0.578931	-0.396482
C62	C	-3.640987	-0.034837	-0.816018
H63	H	-3.716721	0.012586	-0.848110
H64	H	-3.553191	0.016500	-0.763138
H65	H	-3.553353	-0.058042	-0.847138
C66	C	-4.023286	-0.506730	-0.047912
H67	H	-3.983334	-0.416646	-0.048351
H68	H	-4.169548	-0.547712	-0.078984
H69	H	-4.004917	-0.523119	0.009313
C70	C	-3.758534	-0.270509	-0.841861
H71	H	-3.614869	-0.265012	-0.816761
H72	H	-3.854889	-0.349331	-0.833904
H73	H	-3.778620	-0.267003	-0.901176
C74	C	-3.686926	-0.273055	-0.679793
H75	H	-3.683621	-0.319001	-0.730469
H76	H	-3.547471	-0.242251	-0.641169
H77	H	-3.784886	-0.328575	-0.654170
H78	H	-4.169548	-0.379612	-0.849742
C79	C	-4.429600	-0.306210	-0.857182
H80	H	-4.499980	-0.312673	-0.812916
H81	H	-4.437124	-0.233421	-0.883468
H82	H	-4.497954	-0.381756	-0.898487
H83	H	-4.108505	-0.380345	-0.704998
C84	C	-3.934626	0.079902	-0.812444
H85	H	-3.850936	0.063612	-0.848111
H86	H	-4.022766	0.124358	-0.840197
H87	H	-3.842146	0.130985	-0.760155
