data_functionalizedCrystal
_audit_creation_method	'MofGen! by Chris Wilmer'
_symmetry_space_group_name_H-M	'P1'
_symmetry_Int_Tables_number	1
_symmetry_cell_setting	triclinic
loop_
_symmetry_equiv_pos_as_xyz
  x,y,z
_cell_length_a	17.699104
_cell_length_b	10.489716
_cell_length_c	16.776229
_cell_angle_alpha	89.997416
_cell_angle_beta	89.991971
_cell_angle_gamma	83.910327
loop_
_atom_site_label
_atom_site_type_symbol
_atom_site_fract_x
_atom_site_fract_y
_atom_site_fract_z
O1	O	1.005116	0.161424	-0.066297
O2	O	0.784876	0.182381	-0.066294
O3	O	0.900017	-0.013790	-0.066299
O4	O	0.889975	0.357595	-0.066293
O5	O	0.900002	-0.013802	0.066278
O6	O	0.784860	0.182369	0.066282
O7	O	1.005101	0.161412	0.066279
Zn8	Zn	0.894978	0.171889	0.087330
Zn9	Zn	0.894998	0.171905	-0.087345
O10	O	0.889959	0.357583	0.066284
C11	C	0.756667	0.181620	-0.000006
C12	C	0.672635	0.179354	-0.000005
C13	C	0.148428	0.281720	-0.000012
C14	C	0.227385	0.283842	-0.000014
C15	C	0.275256	0.168682	-0.000016
C16	C	0.244165	0.051393	-0.000023
C17	C	0.165209	0.049272	-0.000027
C18	C	0.562586	0.059942	-0.000010
C19	C	0.641547	0.062072	-0.000005
C20	C	0.624763	0.294512	0.000002
C21	C	0.545807	0.292392	-0.000001
C22	C	0.514723	0.175103	-0.000013
C23	C	0.429108	0.172804	-0.000012
C24	C	0.360869	0.170980	-0.000011
C25	C	0.899255	-0.061314	-0.000013
C26	C	0.896997	-0.202903	-0.000020
C27	C	0.967606	-0.301880	-0.000014
C28	C	0.930302	-0.378546	-0.065378
C29	C	0.930271	-0.378522	0.065332
C30	C	0.859724	-0.277705	-0.065439
C31	C	0.859702	-0.277675	0.065330
C32	C	0.822347	-0.354291	-0.000051
C33	C	1.033310	0.162174	-0.000011
C34	C	1.117342	0.164440	-0.000017
C35	C	0.890722	0.405108	-0.000004
C36	C	0.892979	0.546697	-0.000002
N37	N	0.894970	0.171877	0.206541
N38	N	0.895013	0.171906	-0.206556
C39	C	0.945970	0.085048	0.248256
C40	C	0.945974	0.085047	0.331709
C41	C	0.894981	0.171882	0.373444
C42	C	0.843975	0.258715	0.331723
C43	C	0.843968	0.258709	0.248272
C44	C	0.844003	0.258740	0.668270
C45	C	0.844015	0.258742	0.751727
C46	C	0.946009	0.085078	0.751706
C47	C	0.946002	0.085072	0.668256
C48	C	0.894994	0.171900	0.626542
C49	C	0.894989	0.171899	0.536054
C50	C	0.894989	0.171891	0.463931
H51	H	0.650081	0.390014	0.000008
O52	O	0.995430	0.000495	0.207772
C53	C	0.982443	-0.125723	0.228216
H54	H	0.921843	-0.126188	0.251159
H55	H	0.990804	-0.189795	0.173355
H56	H	1.024179	-0.163250	0.276666
O57	O	0.749068	-0.382320	-0.000053
C58	C	0.747710	-0.516465	0.000584
H59	H	0.803444	-0.563945	0.026055
H60	H	0.698413	-0.542012	0.039080
H61	H	0.740176	-0.551911	-0.062866
H62	H	0.829915	-0.233612	0.120595
H63	H	0.506834	0.386167	0.000004
H64	H	0.987528	0.014367	0.634277
O65	O	0.824268	-0.225569	-0.131529
C66	C	0.861339	-0.278244	-0.200251
H67	H	0.893419	-0.375199	-0.185014
H68	H	0.817481	-0.291282	-0.248517
H69	H	0.903093	-0.210848	-0.222794
O70	O	0.965939	-0.430913	0.131237
C71	C	1.042458	-0.404797	0.130971
H72	H	1.048450	-0.316626	0.092702
H73	H	1.061178	-0.386075	0.194541
H74	H	1.079620	-0.490567	0.105457
O75	O	0.794469	0.343240	0.372173
C76	C	0.807455	0.469480	0.351783
H77	H	0.836623	0.469260	0.291186
H78	H	0.750902	0.532401	0.348935
H79	H	0.845338	0.508860	0.398739
H80	H	0.960115	-0.422586	-0.120641
H81	H	0.987541	0.014374	0.785679
H82	H	0.987502	0.014344	0.365673
O83	O	0.794400	0.343139	0.792147
C84	C	0.749387	0.419794	0.737436
H85	H	0.748246	0.367500	0.677951
H86	H	0.689056	0.439358	0.761566
H87	H	0.774459	0.514506	0.728549
O88	O	0.135134	-0.064766	0.000004
C89	C	0.194315	-0.165956	-0.000017
H90	H	0.248133	-0.130378	0.025090
H91	H	0.177361	-0.247861	0.038467
H92	H	0.205304	-0.201454	-0.063622
O93	O	0.688019	-0.049836	-0.000154
C94	C	0.673832	-0.121055	-0.068815
H95	H	0.647223	-0.053624	-0.116801
H96	H	0.729568	-0.172364	-0.091864
H97	H	0.633234	-0.194766	-0.053302
O98	O	0.794495	0.342978	0.627633
C99	C	0.805432	0.324387	0.545027
H100	H	0.833161	0.222917	0.533622
H101	H	0.748193	0.338716	0.513325
H102	H	0.843785	0.396495	0.521337
O103	O	0.102039	0.393707	-0.000046
C104	C	0.146411	0.497675	-0.000024
H105	H	0.205158	0.465113	-0.025121
H106	H	0.117739	0.578351	-0.038516
H107	H	0.152218	0.533634	0.063580
O108	O	0.257608	0.397745	-0.000165
C109	C	0.302789	0.405913	-0.068827
H110	H	0.283766	0.339298	-0.116806
H111	H	0.296250	0.508724	-0.091888
H112	H	0.364886	0.376326	-0.053311
O113	O	0.532365	-0.053958	-0.000159
C114	C	0.487196	-0.062129	-0.068816
H115	H	0.506234	0.004476	-0.116803
H116	H	0.493735	-0.164942	-0.091867
H117	H	0.425098	-0.032529	-0.053298
H118	H	0.802437	0.329413	0.214309
O119	O	1.040860	-0.273718	0.000051
C120	C	1.054284	-0.202736	0.069037
H121	H	1.011377	-0.222087	0.117063
H122	H	1.114259	-0.232610	0.091742
H123	H	1.048071	-0.096116	0.054091
O124	O	0.290742	-0.060390	-0.000132
C125	C	0.336916	-0.066124	-0.068801
H126	H	0.341463	0.035105	-0.091689
H127	H	0.395986	-0.113821	-0.053355
H128	H	0.310637	-0.124292	-0.116884
