data_functionalizedCrystal
_audit_creation_method	'MofGen! by Chris Wilmer'
_symmetry_space_group_name_H-M	'P1'
_symmetry_Int_Tables_number	1
_symmetry_cell_setting	triclinic
loop_
_symmetry_equiv_pos_as_xyz
  x,y,z
_cell_length_a	14.853569
_cell_length_b	14.853567
_cell_length_c	14.586319
_cell_angle_alpha	90.000002
_cell_angle_beta	89.998466
_cell_angle_gamma	83.635248
loop_
_atom_site_label
_atom_site_type_symbol
_atom_site_fract_x
_atom_site_fract_y
_atom_site_fract_z
O1	O	1.196363	0.117710	-0.076190
O2	O	0.933903	0.131730	-0.076201
O3	O	1.072144	-0.006510	-0.076198
O4	O	1.058122	0.255949	-0.076193
O5	O	1.072134	-0.006512	0.076283
O6	O	0.933894	0.131728	0.076280
O7	O	1.196353	0.117708	0.076290
Cu8	Cu	1.065123	0.124717	0.090208
Cu9	Cu	1.065134	0.124720	-0.090118
O10	O	1.058113	0.255947	0.076288
C11	C	0.900310	0.131093	0.000038
C12	C	0.800226	0.129189	0.000034
C13	C	0.763850	0.046178	0.000029
C14	C	0.742560	0.210410	0.000043
C15	C	0.648526	0.208624	0.000044
C16	C	0.612150	0.125613	0.000039
C17	C	0.669807	0.044389	0.000033
C18	C	0.590862	0.289847	0.000059
C19	C	0.496821	0.288064	0.000061
C20	C	0.460443	0.205052	0.000050
C21	C	0.518107	0.123824	0.000043
C22	C	0.481730	0.040813	0.000038
C23	C	0.539393	-0.040415	0.000025
C24	C	0.633429	-0.038623	0.000022
C25	C	0.366407	0.203259	0.000052
C26	C	0.387688	0.039024	0.000042
C27	C	1.071504	-0.040100	0.000040
C28	C	1.069600	-0.140183	0.000032
C29	C	0.979434	-0.552718	0.000046
C30	C	1.143667	-0.573998	0.000052
C31	C	1.145457	-0.479964	0.000047
C32	C	1.064234	-0.422303	0.000042
C33	C	0.981222	-0.458675	0.000043
C34	C	1.228468	-0.443585	0.000055
C35	C	1.230262	-0.349545	0.000051
C36	C	1.149038	-0.291882	0.000040
C37	C	1.066022	-0.328260	0.000040
C38	C	0.984800	-0.270599	0.000035
C39	C	0.901783	-0.306974	0.000029
C40	C	0.899998	-0.401012	0.000032
C41	C	1.150822	-0.197845	0.000036
C42	C	0.986587	-0.176556	0.000033
C43	C	1.229947	0.118344	0.000049
C44	C	1.330030	0.120249	0.000048
C45	C	1.058753	0.289537	0.000048
C46	C	1.060657	0.389621	0.000050
N47	N	1.065121	0.124715	0.217040
N48	N	1.065142	0.124715	-0.216950
C49	C	1.126354	0.063523	0.452047
C50	C	1.126357	0.063521	0.548029
C51	C	1.003903	0.185910	0.548036
C52	C	1.003897	0.185907	0.452056
C53	C	1.065127	0.124715	0.404065
C54	C	1.065136	0.124715	0.596025
C55	C	1.065139	0.124714	0.700092
C56	C	1.065124	0.124715	0.299991
H57	H	0.620487	0.357430	0.000069
C58	C	1.317806	-0.507006	0.000059
H59	H	1.367502	-0.471876	0.000071
H60	H	1.320525	-0.544132	-0.053115
H61	H	1.320515	-0.544133	0.053239
H62	H	1.218413	-0.168232	0.000048
C63	C	1.233004	-0.637421	0.000059
H64	H	1.220050	-0.698636	0.000057
H65	H	1.267037	-0.626380	0.053231
H66	H	1.267037	-0.626388	-0.053123
C67	C	0.812444	-0.243542	0.000022
H68	H	0.825404	-0.182329	0.000018
H69	H	0.778400	-0.254576	0.053191
H70	H	0.778418	-0.254575	-0.053163
H71	H	0.810802	-0.019956	0.000015
C72	C	1.193703	-0.003783	0.399255
H73	H	1.184940	0.004984	0.335220
H74	H	1.183845	-0.063972	0.414985
H75	H	1.253882	0.006128	0.414983
C76	C	0.936563	0.253224	0.600829
H77	H	0.945341	0.244469	0.664864
H78	H	0.876383	0.243328	0.585109
H79	H	0.946436	0.313412	0.585094
C80	C	1.193710	-0.003786	0.600806
H81	H	1.230177	-0.040223	0.558474
H82	H	1.161241	-0.041376	0.638251
H83	H	1.231280	0.028721	0.638242
C84	C	0.808691	-0.441027	0.000038
H85	H	0.819261	-0.505291	0.000052
H86	H	0.775240	-0.421252	-0.053135
H87	H	0.775246	-0.421239	0.053218
C88	C	1.321574	-0.309539	0.000046
H89	H	1.369690	-0.357350	0.000042
H90	H	1.325688	-0.273290	0.053213
H91	H	1.325684	-0.273306	-0.053140
C92	C	0.897243	-0.113131	0.000024
H93	H	0.910194	-0.051915	0.000018
H94	H	0.863201	-0.124169	0.053192
H95	H	0.863220	-0.124172	-0.053162
H96	H	0.954034	0.235737	0.412986
H97	H	0.358078	-0.028574	0.000033
C98	C	0.499372	-0.131722	0.000018
H99	H	0.435109	-0.121148	0.000019
H100	H	0.519157	-0.165180	0.053184
H101	H	0.519147	-0.165161	-0.053170
C102	C	0.696853	-0.127966	0.000007
H103	H	0.661723	-0.177662	-0.000007
H104	H	0.733982	-0.130688	0.053178
H105	H	0.733976	-0.130671	-0.053176
C106	C	0.782573	0.301714	0.000049
H107	H	0.846836	0.291146	0.000042
H108	H	0.762788	0.335161	0.053223
H109	H	0.762791	0.335161	-0.053131
H110	H	0.449880	0.354205	0.000070
H111	H	0.319463	0.269395	0.000071
H112	H	0.911844	-0.582339	0.000037
