data_functionalizedCrystal
_audit_creation_method	'MofGen! by Chris Wilmer'
_symmetry_space_group_name_H-M	'P1'
_symmetry_Int_Tables_number	1
_symmetry_cell_setting	triclinic
loop_
_symmetry_equiv_pos_as_xyz
  x,y,z
_cell_length_a	16.992694
_cell_length_b	10.654551
_cell_length_c	15.455313
_cell_angle_alpha	92.693835
_cell_angle_beta	87.142206
_cell_angle_gamma	87.576792
loop_
_atom_site_label
_atom_site_type_symbol
_atom_site_fract_x
_atom_site_fract_y
_atom_site_fract_z
O1	O	1.045244	0.261289	-0.072013
O2	O	0.816944	0.258364	-0.072039
O3	O	0.936343	0.077541	-0.072026
O4	O	0.925845	0.442112	-0.072026
O5	O	0.929515	0.087836	0.072236
O6	O	0.810116	0.268659	0.072223
O7	O	1.038416	0.271584	0.072248
Cu8	Cu	0.923643	0.271061	0.085408
Cu9	Cu	0.931717	0.258887	-0.085198
O10	O	0.919017	0.452407	0.072235
C11	C	0.784297	0.259751	0.000089
C12	C	0.697192	0.248531	0.000079
C13	C	0.932158	0.035824	0.000103
C14	C	0.929852	-0.103819	0.000097
C15	C	0.647541	0.356782	0.000079
C16	C	0.565696	0.346234	0.000091
C17	C	0.533505	0.227433	0.000096
C18	C	0.583163	0.119174	0.000098
C19	C	0.665006	0.129724	0.000093
C20	C	0.289668	0.183708	0.000120
C21	C	0.207820	0.173166	0.000123
C22	C	0.190358	0.400226	0.000117
C23	C	0.272204	0.410765	0.000106
C24	C	0.321854	0.302507	0.000113
N25	N	0.449847	0.216648	0.000106
N26	N	0.405510	0.313294	0.000110
C27	C	0.932491	-0.175036	-0.078539
C28	C	0.930317	-0.306244	-0.078535
C29	C	0.922867	-0.295006	0.078747
C30	C	0.925035	-0.163800	0.078742
C31	C	0.937308	-0.115055	-0.157184
C32	C	0.939949	-0.186273	-0.235826
C33	C	0.937775	-0.317481	-0.235822
C34	C	0.932960	-0.377471	-0.157176
C35	C	1.071063	0.270197	0.000119
C36	C	1.158168	0.281416	0.000123
C37	C	0.923202	0.494124	0.000105
C38	C	0.925509	0.633767	0.000105
N39	N	0.917969	0.279624	0.205403
N40	N	0.937397	0.250314	-0.205193
C41	C	0.968712	0.202836	0.250802
C42	C	0.964428	0.209324	0.341610
C43	C	0.909405	0.292608	0.387016
C44	C	0.858657	0.369399	0.341610
C45	C	0.862937	0.362904	0.250804
C46	C	0.890930	0.320610	0.658595
C47	C	0.886655	0.327102	0.749407
C48	C	0.992425	0.167025	0.749401
C49	C	0.996704	0.160543	0.658593
C50	C	0.945953	0.237329	0.613195
N51	N	0.905027	0.299244	0.479836
N52	N	0.950328	0.230685	0.520377
H53	H	0.673744	0.453522	0.000074
H54	H	0.939917	-0.375462	-0.299856
O55	O	0.841713	0.395395	0.614547
C56	C	0.854085	0.522653	0.636748
H57	H	0.915725	0.531405	0.661693
H58	H	0.808325	0.558920	0.689469
C59	C	0.770444	0.590102	0.525448
C60	C	0.846153	0.600852	0.556079
H61	H	0.765547	0.638342	0.475689
H62	H	0.762105	0.504366	0.510492
H63	H	0.732319	0.620323	0.569389
H64	H	0.884276	0.570618	0.512142
H65	H	0.854498	0.686586	0.571025
O66	O	0.805135	0.450326	0.385580
C67	C	0.761277	0.516727	0.326034
H68	H	0.763166	0.460491	0.261308
H69	H	0.787704	0.611962	0.316366
C70	C	0.672795	0.605647	0.440978
C71	C	0.675111	0.536572	0.361484
H72	H	0.619645	0.617894	0.462846
H73	H	0.702345	0.560915	0.481097
H74	H	0.694823	0.685002	0.432911
H75	H	0.653093	0.457212	0.369554
H76	H	0.645555	0.581290	0.321367
H77	H	0.943862	-0.137419	-0.299856
O78	O	0.813760	0.437555	0.206604
C79	C	0.858666	0.515594	0.154081
H80	H	0.920424	0.470797	0.140473
H81	H	0.862847	0.611504	0.189067
C82	C	0.742793	0.586816	0.084542
C83	C	0.818644	0.531789	0.067822
H84	H	0.718105	0.596812	0.031335
H85	H	0.712538	0.534243	0.119930
H86	H	0.746288	0.666735	0.113699
H87	H	0.815147	0.451866	0.038676
H88	H	0.848897	0.584349	0.032427
O89	O	0.918161	-0.353075	0.155215
C90	C	0.916317	-0.262082	0.224623
H91	H	0.894158	-0.167489	0.201565
H92	H	0.978231	-0.253268	0.248808
C93	C	0.887814	-0.418551	0.327235
C94	C	0.860592	-0.302373	0.298917
H95	H	0.853444	-0.443406	0.373066
H96	H	0.889060	-0.479856	0.280475
H97	H	0.939409	-0.411191	0.347384
H98	H	0.809003	-0.309739	0.278759
H99	H	0.859337	-0.241070	0.345676
O100	O	0.922333	-0.094532	0.155100
C101	C	0.855548	-0.010868	0.159767
H102	H	0.809606	-0.048432	0.115138
H103	H	0.873525	0.085378	0.138625
C104	C	0.876799	0.047387	0.308526
C105	C	0.820370	0.001245	0.253717
H106	H	0.855101	0.054864	0.366479
H107	H	0.921795	-0.008975	0.305382
H108	H	0.891775	0.127588	0.290897
H109	H	0.805402	-0.078961	0.271340
H110	H	0.775370	0.057594	0.256867
H111	H	0.931178	-0.484309	-0.157180
H112	H	0.939081	-0.008220	-0.157196
H113	H	0.525273	0.434383	0.000091
H114	H	0.181613	0.076419	0.000126
O115	O	0.713326	0.024653	-0.000027
C116	C	0.764704	0.018611	-0.074754
H117	H	0.770556	0.116982	-0.099666
H118	H	0.739942	-0.045216	-0.127069
C119	C	0.839180	-0.155471	-0.021463
C120	C	0.846373	-0.034648	-0.052056
H121	H	0.889557	-0.188329	-0.007465
H122	H	0.804565	-0.151404	0.028880
H123	H	0.818543	-0.208645	-0.065064
H124	H	0.867001	0.018527	-0.008452
H125	H	0.880994	-0.038707	-0.102393
H126	H	1.005746	0.146797	0.378574
O127	O	0.303340	0.526269	0.000145
C128	C	0.241966	0.619554	0.000127
H129	H	0.184896	0.580703	0.027442
H130	H	0.233842	0.648399	-0.069083
C131	C	0.333083	0.782683	0.023148
C132	C	0.262990	0.734970	0.056705
H133	H	0.346052	0.853881	0.058045
H134	H	0.374432	0.719837	0.023157
H135	H	0.326304	0.806712	-0.034526
H136	H	0.269772	0.710928	0.114373
H137	H	0.221642	0.797816	0.056707
O138	O	0.142013	0.505257	0.000156
C139	C	0.062874	0.470477	0.000141
H140	H	0.057911	0.373417	0.027452
H141	H	0.042500	0.467928	-0.069067
C142	C	0.016751	0.686251	0.023175
C143	C	0.010654	0.567044	0.056726
H144	H	-0.015463	0.745820	0.058076
H145	H	0.070068	0.709684	0.023182
H146	H	-0.000227	0.684109	-0.034497
H147	H	0.027640	0.569184	0.114393
H148	H	-0.042662	0.543613	0.056730
H149	H	1.013520	0.135024	0.213839
O150	O	0.337864	0.078498	-0.000034
C151	C	0.326685	0.001510	-0.074736
H152	H	0.301548	0.061315	-0.126957
H153	H	0.283819	-0.074185	-0.057842
C154	C	0.437207	-0.134573	-0.044476
C155	C	0.406340	-0.061118	-0.108617
H156	H	0.486341	-0.173210	-0.065374
H157	H	0.444737	-0.082708	0.005855
H158	H	0.401478	-0.197642	-0.030403
H159	H	0.442064	0.001959	-0.122681
H160	H	0.398818	-0.112973	-0.158951
O161	O	0.552023	0.003676	0.000139
C162	C	0.613401	-0.089608	0.000115
H163	H	0.667891	-0.046857	0.027427
H164	H	0.628060	-0.128329	-0.069095
C165	C	0.520114	-0.249458	0.023141
C166	C	0.587038	-0.196953	0.056694
H167	H	0.503852	-0.315677	0.058038
H168	H	0.478762	-0.186612	0.023154
H169	H	0.532339	-0.281715	-0.034534
H170	H	0.574810	-0.164683	0.114363
H171	H	0.628387	-0.259797	0.056691
H172	H	1.041508	0.092727	0.621626
O173	O	1.041683	0.092246	0.793408
C174	C	1.029282	-0.035014	0.771244
H175	H	1.002154	-0.042630	0.705316
H176	H	0.987607	-0.074166	0.822356
C177	C	1.141995	-0.101500	0.848022
C178	C	1.108682	-0.110854	0.767044
H179	H	1.190971	-0.148284	0.845435
H180	H	1.150349	-0.015763	0.862958
H181	H	1.107258	-0.134124	0.890607
H182	H	1.143414	-0.078215	0.724463
H183	H	1.100336	-0.196588	0.752101
O184	O	0.833090	0.407857	0.793482
C185	C	0.756369	0.377980	0.771297
H186	H	0.756627	0.275557	0.746335
H187	H	0.736175	0.441525	0.718594
C188	C	0.699178	0.523655	0.882635
C189	C	0.699493	0.397855	0.851983
H190	H	0.664093	0.535920	0.932404
H191	H	0.750866	0.543789	0.897580
H192	H	0.682352	0.576596	0.838708
H193	H	0.716329	0.344919	0.895906
H194	H	0.647807	0.377713	0.837048
