data_functionalizedCrystal
_audit_creation_method	'MofGen! by Chris Wilmer'
_symmetry_space_group_name_H-M	'P1'
_symmetry_Int_Tables_number	1
_symmetry_cell_setting	triclinic
loop_
_symmetry_equiv_pos_as_xyz
  x,y,z
_cell_length_a	12.759401
_cell_length_b	12.759400
_cell_length_c	12.759393
_cell_angle_alpha	89.968436
_cell_angle_beta	89.981504
_cell_angle_gamma	90.014845
loop_
_atom_site_label
_atom_site_type_symbol
_atom_site_fract_x
_atom_site_fract_y
_atom_site_fract_z
Zn1	Zn	1.606255	-0.418200	-0.593981
Zn2	Zn	1.606150	-0.593919	-0.418301
Zn3	Zn	1.430557	-0.418255	-0.418321
Zn4	Zn	1.430546	-0.593838	-0.593943
O5	O	1.518377	-0.506053	-0.506137
O6	O	1.753262	-0.441520	-0.570685
O7	O	1.582818	-0.570673	-0.271283
O8	O	1.453913	-0.271226	-0.441647
O9	O	1.753185	-0.570620	-0.441614
O10	O	1.582998	-0.271186	-0.570704
O11	O	1.453811	-0.441614	-0.271297
O12	O	1.283535	-0.441535	-0.441609
O13	O	1.453894	-0.570482	-0.740969
O14	O	1.283527	-0.570536	-0.570638
O15	O	1.582987	-0.441442	-0.740997
O16	O	1.582807	-0.740929	-0.441577
O17	O	1.453791	-0.740870	-0.570620
C18	C	1.245410	-0.506033	-0.506122
C19	C	1.128633	-0.506050	-0.506141
C20	C	1.073794	-0.573328	-0.573215
C21	C	0.964070	-0.573342	-0.573227
C22	C	0.964034	-0.438796	-0.439081
C23	C	1.073756	-0.438778	-0.439075
C24	C	1.128672	-0.640600	-0.640281
C25	C	1.073833	-0.707885	-0.707360
C26	C	0.964109	-0.707898	-0.707371
C27	C	0.909224	-0.640627	-0.640304
C28	C	1.518315	-0.779020	-0.506115
C29	C	1.518384	-0.895797	-0.506140
C30	C	1.585637	-0.950655	-0.439022
C31	C	1.585702	-1.060379	-0.439054
C32	C	1.451252	-1.060377	-0.573327
C33	C	1.451193	-0.950655	-0.573299
C34	C	1.652828	-0.895797	-0.371864
C35	C	1.720086	-0.950655	-0.304739
C36	C	1.720150	-1.060379	-0.304771
C37	C	1.652957	-1.115245	-0.371929
C38	C	1.792410	-0.506073	-0.506152
C39	C	1.909187	-0.506082	-0.506158
C40	C	1.518451	-0.505947	-0.780170
C41	C	1.518482	-0.505902	-0.896947
C42	C	1.518468	-0.232019	-0.506182
C43	C	1.518507	-0.115243	-0.506201
C44	C	1.585710	-0.438704	-0.951825
C45	C	1.585735	-0.438666	-1.061549
C46	C	1.451301	-0.573033	-1.061507
C47	C	1.451272	-0.573064	-0.951785
C48	C	1.652920	-0.371541	-0.896987
C49	C	1.720155	-0.304339	-0.951866
C50	C	1.720180	-0.304301	-1.061590
C51	C	1.652970	-0.371465	-1.116436
C52	C	1.518364	-0.506083	-0.233169
C53	C	1.518537	-0.505832	-0.116393
H54	H	1.118528	-0.762647	-0.761970
H55	H	1.652984	-0.371417	-1.205780
H56	H	1.396582	-0.627714	-1.106171
O57	O	1.652765	-0.789212	-0.372024
C58	C	1.679701	-0.752440	-0.472718
H59	H	1.661769	-0.815634	-0.533241
H60	H	1.632252	-0.679064	-0.491332
H61	H	1.766860	-0.732885	-0.475005
O62	O	1.127076	-0.373317	-0.374065
C63	C	1.190593	-0.305536	-0.433992
H64	H	1.157559	-0.299149	-0.516752
H65	H	1.191831	-0.224638	-0.396132
H66	H	1.273747	-0.338011	-0.437550
H67	H	1.396513	-0.627767	-0.907102
H68	H	1.652910	-0.371567	-0.807644
H69	H	1.396545	-1.105058	-0.628002
H70	H	1.774798	-0.905977	-0.250068
H71	H	0.919462	-0.762676	-0.761998
O72	O	1.785509	-1.113832	-0.239733
C73	C	1.771174	-1.222439	-0.254171
H74	H	1.736654	-1.237368	-0.335196
H75	H	1.849924	-1.264047	-0.247222
H76	H	1.715355	-1.253727	-0.191770
O77	O	1.235256	-0.640688	-0.640437
C78	C	1.271937	-0.714508	-0.713991
H79	H	1.208732	-0.729306	-0.775355
H80	H	1.345365	-0.682848	-0.753906
H81	H	1.291375	-0.791061	-0.672190
O82	O	0.802637	-0.640771	-0.640447
C83	C	0.766000	-0.714538	-0.714071
H84	H	0.829207	-0.775959	-0.728645
H85	H	0.692544	-0.754344	-0.682339
H86	H	0.746622	-0.672962	-0.790761
O87	O	1.785398	-0.239191	-0.898432
C88	C	1.770943	-0.253611	-0.789819
H89	H	1.736506	-0.334695	-0.774811
H90	H	1.849630	-0.246501	-0.748127
H91	H	1.715004	-0.191301	-0.758694
O92	O	0.910559	-0.373564	-0.373959
C93	C	0.801956	-0.387992	-0.388362
H94	H	0.786980	-0.469113	-0.422639
H95	H	0.760229	-0.380792	-0.309678
H96	H	0.770840	-0.325742	-0.444412
O97	O	1.385772	-0.897522	-0.638536
C98	C	1.326496	-0.969466	-0.697834
H99	H	1.322906	-1.047716	-0.654816
H100	H	1.243702	-0.937811	-0.708978
H101	H	1.364947	-0.981048	-0.777655
O102	O	1.652830	-1.221831	-0.371959
C103	C	1.552182	-1.258597	-0.344875
H104	H	1.491618	-1.195404	-0.362754
H105	H	1.533525	-1.331979	-0.392268
H106	H	1.550014	-1.278140	-0.257704
H107	H	1.774917	-0.249574	-1.106269
