data_functionalizedCrystal
_audit_creation_method	'MofGen! by Chris Wilmer'
_symmetry_space_group_name_H-M	'P1'
_symmetry_Int_Tables_number	1
_symmetry_cell_setting	triclinic
loop_
_symmetry_equiv_pos_as_xyz
  x,y,z
_cell_length_a	13.339070
_cell_length_b	16.992694
_cell_length_c	15.455313
_cell_angle_alpha	92.857794
_cell_angle_beta	93.394339
_cell_angle_gamma	76.851241
loop_
_atom_site_label
_atom_site_type_symbol
_atom_site_fract_x
_atom_site_fract_y
_atom_site_fract_z
O1	O	0.214131	-1.090408	-0.072012
O2	O	0.211734	-0.861603	-0.072038
O3	O	0.063546	-0.949746	-0.072026
O4	O	0.362319	-1.002265	-0.072025
O5	O	0.071983	-0.944697	0.072236
O6	O	0.220171	-0.856554	0.072223
O7	O	0.222568	-1.085360	0.072249
Cu8	Cu	0.222140	-0.970496	0.085408
Cu9	Cu	0.212163	-0.976466	-0.085197
O10	O	0.370756	-0.997216	0.072237
C11	C	0.212871	-0.829195	0.000089
C12	C	0.203676	-0.740151	0.000079
C13	C	0.029358	-0.938350	0.000103
C14	C	-0.085082	-0.911906	0.000097
C15	C	0.221431	-1.117767	0.000120
C16	C	0.230626	-1.206811	0.000124
C17	C	-0.433251	-1.117519	0.000120
C18	C	-0.325728	-1.142367	0.000131
C19	C	-0.265562	-1.084754	0.000122
C20	C	-0.312927	-1.002289	0.000103
C21	C	-0.420460	-0.977439	0.000099
C22	C	-0.252771	-0.944673	0.000101
C23	C	-0.300136	-0.862209	0.000081
C24	C	-0.407658	-0.837363	0.000077
C25	C	-0.467825	-0.894976	0.000086
C26	C	-0.145238	-0.969524	0.000105
C27	C	-0.132447	-0.829443	0.000083
C28	C	-0.239969	-0.804596	0.000072
C29	C	0.404944	-1.008612	0.000106
C30	C	0.519384	-1.035056	0.000107
N31	N	0.229157	-0.966302	0.205403
C32	C	0.292390	-0.709211	0.000080
C33	C	0.283745	-0.625543	0.000092
C34	C	0.186386	-0.572817	0.000097
C35	C	0.097666	-0.603762	0.000099
C36	C	0.106311	-0.687429	0.000093
C37	C	0.150552	-0.321423	0.000120
C38	C	0.141912	-0.237751	0.000123
C39	C	0.327993	-0.259538	0.000118
C40	C	0.336630	-0.343205	0.000107
C41	C	0.247910	-0.374143	0.000114
N42	N	0.177547	-0.487295	0.000107
N43	N	0.256750	-0.459663	0.000110
N44	N	0.205137	-0.980664	-0.205192
C45	C	0.166228	-1.003772	0.250803
C46	C	0.171545	-1.000610	0.341610
C47	C	0.239798	-0.959983	0.387017
C48	C	0.302729	-0.922508	0.341611
C49	C	0.297406	-0.925665	0.250805
C50	C	0.262746	-0.946347	0.658596
C51	C	0.268067	-0.943195	0.749408
C52	C	0.136880	-1.021296	0.749401
C53	C	0.131568	-1.024454	0.658594
C54	C	0.194496	-0.986976	0.613196
N55	N	0.245237	-0.956752	0.479836
N56	N	0.189051	-0.990202	0.520378
H57	H	-0.106684	-1.036667	0.000121
H58	H	0.078309	-0.346601	0.000126
Cl59	Cl	0.395276	-0.586651	0.000088
H60	H	-0.287171	-1.209509	0.000148
Cl61	Cl	-0.130389	-1.115993	0.000131
H62	H	0.323650	-0.910110	0.786374
H63	H	0.075991	-1.057536	0.621626
H64	H	-0.083459	-0.782529	0.000080
Cl65	Cl	0.341858	-0.899237	0.601531
Cl66	Cl	0.459029	-0.409484	0.000095
H67	H	0.358298	-0.889423	0.378586
H68	H	0.034071	-0.712618	0.000092
H69	H	-0.482247	-1.164418	0.000134
Cl70	Cl	-0.603008	-0.863745	-0.000031
Cl71	Cl	-0.467200	-0.733692	0.000065
H72	H	0.400223	-0.234339	0.000115
Cl73	Cl	-0.299528	-0.700929	0.000047
H74	H	0.062627	-0.194822	0.000126
H75	H	0.018394	-0.560826	0.000115
Cl76	Cl	0.376518	-0.878555	0.193732
Cl77	Cl	0.414790	-0.775488	0.000068
Cl78	Cl	0.080425	-1.054854	0.193730
Cl79	Cl	0.057772	-1.068405	0.806477
Cl80	Cl	0.092432	-1.047715	0.398685
