data_functionalizedCrystal
_audit_creation_method	'MofGen! by Chris Wilmer'
_symmetry_space_group_name_H-M	'P1'
_symmetry_Int_Tables_number	1
_symmetry_cell_setting	triclinic
loop_
_symmetry_equiv_pos_as_xyz
  x,y,z
_cell_length_a	18.101395
_cell_length_b	15.298563
_cell_length_c	15.296720
_cell_angle_alpha	72.675118
_cell_angle_beta	99.643705
_cell_angle_gamma	80.275830
loop_
_atom_site_label
_atom_site_type_symbol
_atom_site_fract_x
_atom_site_fract_y
_atom_site_fract_z
Zn1	Zn	-0.145373	-1.330581	-0.280234
Zn2	Zn	0.354627	-0.830581	0.219766
Zn3	Zn	-0.243327	-1.357381	-0.124757
Zn4	Zn	0.256673	-0.857381	0.375243
Zn5	Zn	-0.145419	-1.201998	-0.151610
Zn6	Zn	0.354581	-0.701998	0.348390
Zn7	Zn	-0.295115	-1.175016	-0.307060
Zn8	Zn	0.204885	-0.675016	0.192940
O9	O	-0.207309	-1.266244	-0.215915
O10	O	0.292691	-0.766244	0.284085
O11	O	-0.136674	-1.464269	-0.237145
O12	O	0.363326	-0.964269	0.262855
O13	O	-0.208685	-1.359277	0.001806
O14	O	0.291315	-0.859277	0.501806
O15	O	-0.041771	-1.219131	-0.168684
O16	O	0.458229	-0.719131	0.331316
O17	O	-0.208640	-1.483959	-0.122916
O18	O	0.291360	-0.983959	0.377084
O19	O	-0.041737	-1.313601	-0.263184
O20	O	0.458263	-0.813601	0.236816
O21	O	-0.136752	-1.245118	-0.017923
O22	O	0.363248	-0.745118	0.482077
O23	O	-0.186969	-1.068286	-0.194695
O24	O	0.313031	-0.568286	0.305305
O25	O	-0.296906	-1.173144	-0.433626
O26	O	0.203094	-0.673144	0.066374
O27	O	-0.296950	-1.048462	-0.308904
O28	O	0.203050	-0.548462	0.191096
O29	O	-0.186891	-1.287437	-0.413917
O30	O	0.313109	-0.787437	0.086083
O31	O	-0.353839	-1.333114	-0.148928
O32	O	0.146161	-0.833114	0.351072
O33	O	-0.391887	-1.199131	-0.282865
O34	O	0.108113	-0.699131	0.217135
C35	C	-0.247585	-1.024632	-0.257625
C36	C	0.252415	-0.524632	0.242375
C37	C	-0.264837	-0.921266	-0.275491
C38	C	0.235163	-0.421266	0.224509
C39	C	-0.399735	-1.266124	-0.215909
C40	C	0.100265	-0.766124	0.284091
C41	C	-0.482047	-1.266153	-0.215923
C42	C	0.017953	-0.766153	0.284077
C43	C	-0.084202	-0.671008	-0.088398
C44	C	0.415798	-0.171008	0.411602
C45	C	-0.067989	-0.768125	-0.071613
C46	C	0.432011	-0.268125	0.428387
C47	C	-0.117200	-0.806415	-0.122581
C48	C	0.382800	-0.306415	0.377419
C49	C	-0.182626	-0.747578	-0.190337
C50	C	0.317374	-0.247578	0.309663
C51	C	-0.198838	-0.650450	-0.207128
C52	C	0.301162	-0.150450	0.292872
C53	C	-0.231835	-0.785857	-0.241311
C54	C	0.268165	-0.285857	0.258689
C55	C	-0.297262	-0.727020	-0.309067
C56	C	0.202738	-0.227020	0.190933
C57	C	-0.313471	-0.629901	-0.325855
C58	C	0.186529	-0.129901	0.174145
C59	C	-0.264260	-0.591611	-0.274887
C60	C	0.235740	-0.091611	0.225113
C61	C	-0.215624	-0.882985	-0.224520
C62	C	0.284376	-0.382985	0.275480
C63	C	-0.330259	-0.862427	-0.343250
C64	C	0.169741	-0.362427	0.156750
C65	C	-0.346473	-0.765309	-0.360034
C66	C	0.153527	-0.265309	0.139966
C67	C	-0.781113	-1.266348	-0.215938
C68	C	-0.281113	-0.766348	0.284062
C69	C	-0.773759	-1.182186	-0.300357
C70	C	-0.273759	-0.682186	0.199643
C71	C	-0.688161	-1.181884	-0.300191
C72	C	-0.188161	-0.681884	0.199809
C73	C	-0.632743	-1.266251	-0.215932
C74	C	-0.132743	-0.766251	0.284068
C75	C	-0.651985	-1.256692	-0.122510
C76	C	-0.151985	-0.756692	0.377490
C77	C	-0.737779	-1.256155	-0.123021
C78	C	-0.237779	-0.756155	0.376979
C79	C	-0.737234	-1.360377	-0.224051
C80	C	-0.237234	-0.860377	0.275949
C81	C	-0.652038	-1.359426	-0.226300
C82	C	-0.152038	-0.859426	0.273700
C83	C	-0.548890	-1.266199	-0.215922
C84	C	-0.048890	-0.766199	0.284078
C85	C	-0.864965	-1.266399	-0.215942
C86	C	-0.364965	-0.766399	0.284058
C87	C	-0.014130	-1.266386	-0.215937
C88	C	0.485870	-0.766386	0.284063
C89	C	0.068192	-1.266447	-0.215946
C90	C	0.568192	-0.766447	0.284054
C91	C	-0.247670	-1.224292	-0.458455
C92	C	0.252330	-0.724292	0.041545
C93	C	-0.264870	-1.206414	-0.561811
C94	C	0.235130	-0.706414	-0.061811
C95	C	-0.166870	-0.508801	-0.174032
C96	C	0.333130	-0.008801	0.325968
C97	C	-0.149624	-0.612169	-0.156157
C98	C	0.350376	-0.112169	0.343843
C99	C	-0.084243	-1.394053	-0.812108
C100	C	0.415757	-0.894053	-0.312108
C101	C	-0.068083	-1.410856	-0.714999
C102	C	0.431917	-0.910856	-0.214999
C103	C	-0.117278	-1.359747	-0.676697
C104	C	0.382722	-0.859747	-0.176697
C105	C	-0.182637	-1.291832	-0.735514
C106	C	0.317363	-0.791832	-0.235514
C107	C	-0.198801	-1.275033	-0.832631
C108	C	0.301199	-0.775033	-0.332631
C109	C	-0.231837	-1.240726	-0.697220
C110	C	0.268163	-0.740726	-0.197220
C111	C	-0.297195	-1.172812	-0.756037
C112	C	0.202805	-0.672812	-0.256037
C113	C	-0.313356	-1.156015	-0.853145
C114	C	0.186644	-0.656015	-0.353145
C115	C	-0.264161	-1.207125	-0.891447
C116	C	0.235839	-0.707125	-0.391447
C117	C	-0.215672	-1.257526	-0.600103
C118	C	0.284328	-0.757526	-0.100103
C119	C	-0.330230	-1.138506	-0.620626
C120	C	0.169770	-0.638506	-0.120626
C121	C	-0.346390	-1.121703	-0.717735
C122	C	0.153610	-0.621703	-0.217735
C123	C	-0.167041	-1.308087	0.025690
C124	C	0.332959	-0.808087	0.525690
C125	C	-0.149603	-1.326145	0.129076
C126	C	0.350397	-0.826145	0.629076
H127	H	-0.103994	-0.885494	-0.108911
H128	H	0.396006	-0.385494	0.391089
H129	H	-0.014870	-1.466154	-0.667117
H130	H	0.485130	-0.966154	-0.167117
O131	O	-0.101547	-1.376253	-0.582334
O132	O	0.398453	-0.876253	-0.082334
C133	C	-0.100335	-1.470974	-0.534525
C134	C	0.399665	-0.970974	-0.034525
H135	H	-0.088083	-1.514849	-0.581265
H136	H	0.411917	-1.014849	-0.081265
H137	H	-0.053351	-1.498788	-0.466715
H138	H	0.446649	-0.998788	0.033285
H139	H	-0.158588	-1.475881	-0.516935
H140	H	0.341412	-0.975881	-0.016935
H141	H	-0.640359	-1.366943	-0.294970
H142	H	-0.140359	-0.866943	0.205030
O143	O	-0.377053	-0.572662	-0.391564
O144	O	0.122947	-0.072662	0.108436
C145	C	-0.425379	-0.525638	-0.348227
C146	C	0.074621	-0.025638	0.151773
H147	H	-0.389882	-0.523268	-0.280332
H148	H	0.110118	-0.023268	0.219668
H149	H	-0.453047	-0.450797	-0.397885
H150	H	0.046953	0.049203	0.102115
H151	H	-0.472287	-0.564824	-0.331424
H152	H	0.027713	-0.064824	0.168576
H153	H	-0.399743	-0.717390	-0.415202
H154	H	0.100257	-0.217390	0.084798
H155	H	-0.044199	-1.435664	-0.843302
H156	H	0.455801	-0.935664	-0.343302
O157	O	-0.004424	-0.825147	-0.005740
O158	O	0.495576	-0.325147	0.494260
C159	C	0.035546	-0.770526	0.035628
C160	C	0.535546	-0.270526	0.535628
H161	H	-0.005795	-0.701850	0.026952
H162	H	0.494205	-0.201850	0.526952
H163	H	0.060416	-0.811246	0.113721
H164	H	0.560416	-0.311246	0.613721
H165	H	0.084337	-0.754316	-0.000337
H166	H	0.584337	-0.254316	0.499663
H167	H	-0.044139	-0.639821	-0.046912
H168	H	0.455861	-0.139821	0.453088
O169	O	-0.771886	-1.174734	-0.112607
O170	O	-0.271886	-0.674734	0.387393
C171	C	-0.833008	-1.123925	-0.191490
C172	C	-0.333008	-0.623925	0.308510
H173	H	-0.853621	-1.174282	-0.226694
H174	H	-0.353621	-0.674282	0.273306
H175	H	-0.882554	-1.087814	-0.167896
H176	H	-0.382554	-0.587814	0.332104
H177	H	-0.812277	-1.068593	-0.243668
H178	H	-0.312277	-0.568593	0.256332
H179	H	-0.277460	-0.512531	-0.288545
H180	H	0.222540	-0.012531	0.211455
H181	H	-0.676440	-1.185899	-0.369993
H182	H	-0.176440	-0.685899	0.130007
O183	O	-0.279994	-1.190809	-0.985780
O184	O	0.220006	-0.690809	-0.485780
C185	C	-0.352384	-1.209050	-1.014096
C186	C	0.147616	-0.709050	-0.514096
H187	H	-0.388384	-1.202810	-0.960874
H188	H	0.111616	-0.702810	-0.460874
H189	H	-0.383350	-1.155858	-1.086306
H190	H	0.116650	-0.655858	-0.586306
H191	H	-0.343957	-1.283230	-1.018005
H192	H	0.156043	-0.783230	-0.518005
O193	O	-0.809569	-1.186834	-0.383866
O194	O	-0.309569	-0.686834	0.116134
C195	C	-0.841781	-1.266308	-0.367215
C196	C	-0.341781	-0.766308	0.132785
H197	H	-0.851503	-1.287443	-0.292765
H198	H	-0.351503	-0.787443	0.207235
H199	H	-0.899166	-1.248610	-0.420092
H200	H	-0.399166	-0.748610	0.079908
H201	H	-0.800723	-1.327134	-0.375326
H202	H	-0.300723	-0.827134	0.124674
H203	H	-0.370290	-1.096890	-0.589442
H204	H	0.129710	-0.596890	-0.089442
H205	H	-0.613139	-1.424086	-0.167943
H206	H	-0.113139	-0.924086	0.332057
H207	H	-0.162351	-0.930882	-0.169355
H208	H	0.337649	-0.430882	0.330645
H209	H	-0.740916	-1.315716	-0.058890
H210	H	-0.240916	-0.815716	0.441110
O211	O	-0.636346	-1.176335	-0.111179
O212	O	-0.136346	-0.676335	0.388821
C213	C	-0.653971	-1.168813	-0.026968
C214	C	-0.153971	-0.668813	0.473032
H215	H	-0.652487	-1.241689	0.022704
H216	H	-0.152487	-0.741689	0.522704
H217	H	-0.609765	-1.137193	0.007863
H218	H	-0.109765	-0.637193	0.507863
H219	H	-0.713909	-1.121476	-0.043377
H220	H	-0.213909	-0.621476	0.456623
H221	H	-0.366580	-1.100723	-0.901031
H222	H	0.133420	-0.600723	-0.401031
H223	H	-0.399605	-1.066406	-0.765637
H224	H	0.100395	-0.566406	-0.265637
H225	H	-0.370329	-0.893601	-0.384755
H226	H	0.129671	-0.393601	0.115245
H227	H	-0.804696	-1.112554	-0.296456
H228	H	-0.304696	-0.612554	0.203544
O229	O	-0.152101	-1.323382	-0.543038
O230	O	0.347899	-0.823382	-0.043038
C231	C	-0.085628	-1.299017	-0.570311
C232	C	0.414372	-0.799017	-0.070311
H233	H	-0.098717	-1.220110	-0.609828
H234	H	0.401283	-0.720110	-0.109828
H235	H	-0.037067	-1.318104	-0.505073
H236	H	0.462933	-0.818104	-0.005073
H237	H	-0.067345	-1.339133	-0.618083
H238	H	0.432655	-0.839133	-0.118083
H239	H	-0.613992	-1.316811	-0.058638
H240	H	-0.113992	-0.816811	0.441362
O241	O	-0.675109	-1.098249	-0.295492
O242	O	-0.175109	-0.598249	0.204508
C243	C	-0.723047	-1.024235	-0.374070
C244	C	-0.223047	-0.524235	0.125930
H245	H	-0.775151	-1.048424	-0.403138
H246	H	-0.275151	-0.548424	0.096862
H247	H	-0.743262	-0.961106	-0.351867
H248	H	-0.243262	-0.461106	0.148133
H249	H	-0.689494	-1.003325	-0.430746
H250	H	-0.189494	-0.503325	0.069254
H251	H	-0.766456	-1.372401	-0.290119
H252	H	-0.266456	-0.872401	0.209881
O253	O	-0.740440	-1.434837	-0.150424
O254	O	-0.240440	-0.934837	0.349576
C255	C	-0.782084	-1.402185	-0.091802
C256	C	-0.282084	-0.902185	0.408198
H257	H	-0.821744	-1.330189	-0.134026
H258	H	-0.321744	-0.830189	0.365974
H259	H	-0.817997	-1.453861	-0.063441
H260	H	-0.317997	-0.953861	0.436559
H261	H	-0.740188	-1.396104	-0.030537
H262	H	-0.240188	-0.896104	0.469463
