data_functionalizedCrystal
_audit_creation_method	'MofGen! by Chris Wilmer'
_symmetry_space_group_name_H-M	'P1'
_symmetry_Int_Tables_number	1
_symmetry_cell_setting	triclinic
loop_
_symmetry_equiv_pos_as_xyz
  x,y,z
_cell_length_a	14.971486
_cell_length_b	16.109301
_cell_length_c	14.048226
_cell_angle_alpha	89.992144
_cell_angle_beta	89.998499
_cell_angle_gamma	83.537805
loop_
_atom_site_label
_atom_site_type_symbol
_atom_site_fract_x
_atom_site_fract_y
_atom_site_fract_z
O1	O	1.186791	0.108348	-0.079054
O2	O	0.926372	0.121323	-0.079081
O3	O	1.063735	-0.006187	-0.079057
O4	O	1.049427	0.235857	-0.079078
O5	O	1.063719	-0.006194	0.079264
O6	O	0.926355	0.121315	0.079241
O7	O	1.186774	0.108340	0.079267
Zn8	Zn	1.056562	0.114826	0.104391
Zn9	Zn	1.056584	0.114836	-0.104204
O10	O	1.049411	0.235850	0.079244
C11	C	0.893040	0.120739	0.000077
C12	C	0.793745	0.119000	0.000067
C13	C	1.063147	-0.037166	0.000104
C14	C	1.061410	-0.129464	0.000105
C15	C	0.736412	0.193908	0.000062
C16	C	0.643115	0.192269	0.000076
C17	C	0.607153	0.115721	0.000089
C18	C	0.664494	0.040807	0.000097
C19	C	0.757789	0.042447	0.000089
C20	C	0.470036	0.037395	0.000110
C21	C	0.376734	0.035755	0.000116
C22	C	0.355362	0.187217	0.000097
C23	C	0.448657	0.188857	0.000090
C24	C	0.505991	0.113942	0.000096
C25	C	1.138878	-0.351640	0.000098
C26	C	1.137239	-0.438362	0.000090
C27	C	0.974262	-0.418691	0.000077
C28	C	0.975902	-0.331970	0.000078
C29	C	1.058213	-0.298447	0.000094
C30	C	1.054933	-0.471890	0.000085
C31	C	1.053155	-0.565918	0.000076
C32	C	1.059992	-0.204413	0.000101
C33	C	1.220106	0.108924	0.000108
C34	C	1.319401	0.110663	0.000111
C35	C	1.049999	0.266829	0.000080
C36	C	1.051736	0.359127	0.000073
N37	N	1.056554	0.114819	0.246752
N38	N	1.056599	0.114837	-0.246565
C39	C	1.117397	0.058381	0.296580
C40	C	1.117403	0.058381	0.396238
C41	C	1.056570	0.114823	0.446065
C42	C	0.995719	0.171263	0.396230
C43	C	0.995710	0.171259	0.296574
C44	C	0.995745	0.171269	0.603944
C45	C	0.995756	0.171275	0.703607
C46	C	1.117439	0.058391	0.703608
C47	C	1.117429	0.058387	0.603952
C48	C	1.056580	0.114829	0.554123
H49	H	0.596437	0.253267	0.000071
O50	O	1.182999	-0.002502	0.242831
H51	H	1.252727	0.008184	0.261942
H52	H	1.166984	0.012434	0.744184
O53	O	0.930112	0.232146	0.449973
H54	H	0.887799	0.271388	0.398578
H55	H	0.910211	-0.288658	0.000072
H56	H	1.166946	0.012424	0.436808
O57	O	1.183038	-0.002490	0.550203
H58	H	1.225345	-0.041744	0.601592
H59	H	1.205901	-0.324348	0.000108
H60	H	0.946218	0.217235	0.744171
H61	H	0.308675	0.248215	0.000097
H62	H	0.946192	0.217228	0.563377
H63	H	1.202924	-0.481669	0.000092
O64	O	0.930091	0.232135	0.242822
H65	H	0.887796	0.271390	0.294211
O66	O	0.625705	-0.041755	0.000117
H67	H	0.681250	-0.093569	0.000130
O68	O	0.775199	0.276471	0.000058
H69	H	0.719653	0.328284	0.000069
O70	O	0.885485	-0.454846	0.000081
H71	H	0.897894	-0.524086	0.000095
H72	H	0.477934	0.251189	0.000070
H73	H	0.347458	-0.026577	0.000128
H74	H	0.804470	-0.018551	0.000093
O75	O	0.531880	-0.043403	0.000113
H76	H	0.491202	-0.096908	0.000111
