data_functionalizedCrystal
_audit_creation_method	'MofGen! by Chris Wilmer'
_symmetry_space_group_name_H-M	'P1'
_symmetry_Int_Tables_number	1
_symmetry_cell_setting	triclinic
loop_
_symmetry_equiv_pos_as_xyz
  x,y,z
_cell_length_a	19.077105
_cell_length_b	12.759393
_cell_length_c	19.076919
_cell_angle_alpha	92.277838
_cell_angle_beta	89.923776
_cell_angle_gamma	92.288570
loop_
_atom_site_label
_atom_site_type_symbol
_atom_site_fract_x
_atom_site_fract_y
_atom_site_fract_z
Zn1	Zn	1.058326	0.508277	0.440454
Zn2	Zn	1.558326	1.008277	0.940454
Zn3	Zn	1.062985	0.677205	0.322959
Zn4	Zn	1.562985	1.177205	0.822959
Zn5	Zn	0.945542	0.494203	0.318246
Zn6	Zn	1.445542	0.994203	0.818246
Zn7	Zn	0.940806	0.676571	0.435712
Zn8	Zn	1.440806	1.176571	0.935712
O9	O	1.001915	0.589064	0.379343
O10	O	1.501915	1.089064	0.879343
O11	O	1.157277	0.536841	0.428825
O12	O	1.657277	1.036841	0.928825
O13	O	1.051337	0.647304	0.224002
O14	O	1.551337	1.147304	0.724002
O15	O	0.960536	0.349051	0.334470
O16	O	1.460536	0.849051	0.834470
O17	O	1.160699	0.660951	0.342502
O18	O	1.660699	1.160951	0.842502
O19	O	1.043398	0.359392	0.424255
O20	O	1.543398	0.859392	0.924255
O21	O	0.965053	0.512853	0.220540
O22	O	1.465053	1.012853	0.720540
O23	O	0.846582	0.512239	0.329871
O24	O	1.346582	1.012239	0.829871
O25	O	0.952464	0.659871	0.534672
O26	O	1.452464	1.159871	1.034672
O27	O	0.843102	0.646224	0.416173
O28	O	1.343102	1.146224	0.916173
O29	O	1.038805	0.536227	0.538156
O30	O	1.538805	1.036227	1.038156
O31	O	1.046745	0.824139	0.337903
O32	O	1.546745	1.324139	0.837903
O33	O	0.956981	0.823673	0.420742
O34	O	1.456981	1.323673	0.920742
C35	C	0.819345	0.577636	0.371996
C36	C	1.319345	1.077636	0.871996
C37	C	0.741241	0.572774	0.368870
C38	C	1.241241	1.072774	0.868870
C39	C	0.702756	0.640345	0.412263
C40	C	1.202756	1.140345	0.912263
C41	C	0.629369	0.635763	0.409329
C42	C	1.129369	1.135763	0.909329
C43	C	0.594467	0.563613	0.362998
C44	C	1.094467	1.063613	0.862998
C45	C	0.632956	0.496034	0.319603
C46	C	1.132956	0.996034	0.819603
C47	C	0.706342	0.500612	0.322541
C48	C	1.206342	1.000612	0.822541
C49	C	0.375177	0.542425	0.349404
C50	C	0.875177	1.042425	0.849404
C51	C	0.301785	0.537854	0.346468
C52	C	0.801785	1.037854	0.846468
C53	C	0.298203	0.677582	0.436195
C54	C	0.798203	1.177582	0.936195
C55	C	0.371591	0.682158	0.439126
C56	C	0.871591	1.182158	0.939126
C57	C	0.410074	0.614576	0.395734
C58	C	0.910074	1.114576	0.895734
N59	N	0.519452	0.558930	0.359997
N60	N	1.019452	1.058930	0.859997
N61	N	0.485087	0.619255	0.398740
N62	N	0.985087	1.119255	0.898740
C63	C	1.001873	0.862028	0.379336
C64	C	1.501873	1.362028	0.879336
C65	C	1.001918	0.978809	0.379359
C66	C	1.501918	1.478809	0.879359
C67	C	1.095454	0.979249	0.293169
C68	C	1.595454	1.479249	0.793169
C69	C	1.142240	1.034331	0.250085
C70	C	1.642240	1.534331	0.750085
C71	C	1.142280	1.144056	0.250111
C72	C	1.642280	1.644056	0.750111
C73	C	1.095531	1.198702	0.293226
C74	C	1.595531	1.698702	0.793226
C75	C	1.048745	1.143620	0.336310
C76	C	1.548745	1.643620	0.836310
C77	C	1.048709	1.033892	0.336278
C78	C	1.548709	1.533892	0.836278
C79	C	0.955214	1.143181	0.422502
C80	C	1.455214	1.643181	0.922502
C81	C	0.955169	1.033455	0.422474
C82	C	1.455169	1.533455	0.922474
C83	C	0.908465	1.197827	0.465618
C84	C	1.408465	1.697827	0.965618
C85	C	0.861674	1.142744	0.508699
C86	C	1.361674	1.642744	1.008699
C87	C	0.861635	1.033012	0.508671
C88	C	1.361635	1.533012	1.008671
C89	C	0.908383	0.978373	0.465558
C90	C	1.408383	1.478373	0.965558
C91	C	1.185197	0.600537	0.386718
C92	C	1.685197	1.100537	0.886718
C93	C	1.263301	0.605426	0.389861
C94	C	1.763301	1.105426	0.889861
C95	C	1.001975	1.315036	0.379377
C96	C	1.501975	1.815036	0.879377
C97	C	1.002000	1.198263	0.379419
C98	C	1.502000	1.698263	0.879419
C99	C	0.994587	0.599548	0.562624
C100	C	1.494587	1.099548	1.062624
C101	C	0.991464	0.604016	0.640727
C102	C	1.491464	1.104016	1.140727
C103	C	1.009255	0.578547	0.196776
C104	C	1.509255	1.078547	0.696776
C105	C	1.012514	0.573792	0.118679
C106	C	1.512514	1.073792	0.618679
C107	C	1.034948	0.541743	0.679235
C108	C	1.534948	1.041743	1.179235
C109	C	1.032005	0.545936	0.752621
C110	C	1.532005	1.045936	1.252621
C111	C	0.985581	0.612409	0.787498
C112	C	1.485581	1.112409	1.287498
C113	C	0.942092	0.674685	0.748984
C114	C	1.442092	1.174685	1.248984
C115	C	0.945032	0.670485	0.675600
C116	C	1.445032	1.170485	1.175600
C117	C	0.971965	0.631867	1.006780
C118	C	1.471965	1.131867	1.506780
C119	C	0.969030	0.636065	1.080171
C120	C	1.469030	1.136065	1.580171
C121	C	1.058942	0.507314	1.083802
C122	C	1.558942	1.007314	1.583802
C123	C	1.061881	0.503125	1.010416
C124	C	1.561881	1.003125	1.510416
C125	C	1.018389	0.565397	0.971909
C126	C	1.518389	1.065397	1.471909
N127	N	0.982573	0.616700	0.862510
N128	N	1.482573	1.116700	1.362510
N129	N	1.021394	0.561100	0.896898
N130	N	1.521394	1.061100	1.396898
H131	H	0.266863	0.732603	0.471524
H132	H	0.766863	1.232603	0.971524
H133	H	0.908352	0.889028	0.465526
H134	H	1.408352	1.389028	0.965526
Cl135	Cl	0.257910	0.447152	0.288213
Cl136	Cl	0.757910	0.947152	0.788213
H137	H	0.731168	0.699101	0.449989
H138	H	1.231168	1.199101	0.949989
H139	H	0.406501	0.487402	0.314066
H140	H	0.906501	0.987402	0.814066
H141	H	1.094349	0.456615	1.115163
H142	H	1.594349	0.956615	1.615163
Cl143	Cl	0.883728	0.758248	0.792829
Cl144	Cl	1.383728	1.258248	1.292829
Cl145	Cl	0.917290	0.710153	0.958381
Cl146	Cl	1.417290	1.210153	1.458381
Cl147	Cl	0.890362	0.748772	0.627189
Cl148	Cl	1.390362	1.248772	1.127189
H149	H	0.604533	0.437284	0.281882
H150	H	1.104533	0.937284	0.781882
Cl151	Cl	0.908230	1.335732	0.465341
Cl152	Cl	1.408230	1.835732	0.965341
H153	H	0.931224	0.690198	1.108565
H154	H	1.431224	1.190198	1.608565
H155	H	0.823618	1.187246	0.543803
H156	H	1.323618	1.687246	1.043803
H157	H	0.598038	0.690788	0.444664
H158	H	1.098038	1.190788	0.944664
Cl159	Cl	0.802819	0.963776	0.562841
Cl160	Cl	1.302819	1.463776	1.062841
H161	H	0.737675	0.445583	0.287210
H162	H	1.237675	0.945583	0.787210
Cl163	Cl	0.415463	0.772867	0.497372
Cl164	Cl	0.915463	1.272867	0.997372
Cl165	Cl	1.095298	1.336607	0.292947
Cl166	Cl	1.595298	1.836607	0.792947
H167	H	1.095417	0.889903	0.293134
H168	H	1.595417	1.389903	0.793134
H169	H	1.180381	1.188905	0.215032
H170	H	1.680381	1.688905	0.715032
Cl171	Cl	1.201010	0.965629	0.195889
Cl172	Cl	1.701010	1.465629	0.695889
Cl173	Cl	1.093315	0.458178	0.635398
Cl174	Cl	1.593315	0.958178	1.135398
H175	H	1.067416	0.495230	0.783972
H176	H	1.567416	0.995230	1.283972
Cl177	Cl	1.120245	0.419556	0.966576
Cl178	Cl	1.620245	0.919556	1.466576
