data_functionalizedCrystal
_audit_creation_method	'MofGen! by Chris Wilmer'
_symmetry_space_group_name_H-M	'P1'
_symmetry_Int_Tables_number	1
_symmetry_cell_setting	triclinic
loop_
_symmetry_equiv_pos_as_xyz
  x,y,z
_cell_length_a	14.044191
_cell_length_b	19.188924
_cell_length_c	12.503572
_cell_angle_alpha	93.516552
_cell_angle_beta	86.155253
_cell_angle_gamma	88.166870
loop_
_atom_site_label
_atom_site_type_symbol
_atom_site_fract_x
_atom_site_fract_y
_atom_site_fract_z
O1	O	1.251511	0.171996	0.089279
O2	O	0.975566	0.165919	0.089292
O3	O	1.121506	0.067816	0.089272
O4	O	1.105571	0.270100	0.089299
O5	O	1.132486	0.060428	-0.089371
O6	O	0.986547	0.158532	-0.089351
O7	O	1.262492	0.164609	-0.089365
Cu8	Cu	1.125522	0.160896	-0.105669
Cu9	Cu	1.112536	0.169632	0.105597
O10	O	1.116552	0.262713	-0.089345
C11	C	0.945753	0.159567	-0.000028
C12	C	0.840560	0.151636	-0.000023
C13	C	0.590099	0.193384	-0.000029
C14	C	0.647964	0.137148	-0.000034
C15	C	0.755134	0.145211	-0.000028
C16	C	0.482919	0.185322	-0.000035
C17	C	1.126481	0.038077	-0.000050
C18	C	1.124936	-0.039527	-0.000053
C19	C	1.118229	-0.071946	0.097326
C20	C	1.116763	-0.144863	0.097334
C21	C	1.122023	-0.185359	-0.000042
C22	C	1.128725	-0.152932	-0.097434
C23	C	1.130182	-0.080016	-0.097439
N24	N	1.178118	-0.304686	-0.072519
N25	N	1.176736	-0.373953	-0.072508
C26	C	1.117633	-0.405051	-0.000032
N27	N	1.059975	-0.364265	0.072449
N28	N	1.061361	-0.294992	0.072440
C29	C	1.120444	-0.264425	-0.000047
C30	C	1.109335	-0.516534	0.097363
C31	C	1.107863	-0.589453	0.097367
C32	C	1.119835	-0.597521	-0.097403
C33	C	1.121297	-0.524604	-0.097405
C34	C	1.116051	-0.484115	-0.000019
C35	C	1.292305	0.170961	-0.000042
C36	C	1.397497	0.178892	-0.000040
C37	C	1.111576	0.292451	-0.000020
C38	C	1.113121	0.370056	-0.000010
N39	N	1.134662	0.154751	-0.254263
N40	N	1.103403	0.175772	0.254191
C41	C	1.089961	0.184804	0.473308
C42	C	1.148101	0.145721	0.526627
C43	C	1.140622	0.150747	0.648551
C44	C	1.097439	0.179779	0.351372
H45	H	0.621046	0.247581	-0.000019
H46	H	1.203493	0.108488	0.480706
O47	O	0.606984	0.065348	-0.000041
H48	H	0.558018	0.062009	0.072776
O49	O	1.103655	-0.472857	0.202395
H50	H	1.165070	-0.487123	0.249100
O51	O	1.100595	-0.624413	0.202411
H52	H	1.162577	-0.610695	0.249112
O53	O	1.137421	-0.045045	-0.202474
H54	H	1.202944	-0.014218	-0.207131
O55	O	1.016564	0.234103	0.534120
H56	H	1.022118	0.230348	0.621727
O57	O	1.112548	-0.028273	0.202358
H58	H	1.107625	-0.063070	0.270074
H59	H	1.133005	-0.185909	-0.176718
O60	O	1.109531	-0.179842	0.202367
H61	H	1.106132	-0.139438	0.270083
O62	O	1.125515	-0.641188	-0.202436
H63	H	1.123383	-0.697339	-0.186075
H64	H	1.126766	-0.498209	-0.176701
