data_functionalizedCrystal
_audit_creation_method	'MofGen! by Chris Wilmer'
_symmetry_space_group_name_H-M	'P1'
_symmetry_Int_Tables_number	1
_symmetry_cell_setting	triclinic
loop_
_symmetry_equiv_pos_as_xyz
  x,y,z
_cell_length_a	13.339070
_cell_length_b	13.262596
_cell_length_c	12.377033
_cell_angle_alpha	94.192737
_cell_angle_beta	75.600217
_cell_angle_gamma	80.569898
loop_
_atom_site_label
_atom_site_type_symbol
_atom_site_fract_x
_atom_site_fract_y
_atom_site_fract_z
O1	O	-1.357831	0.516826	0.064855
O2	O	-1.058839	0.450804	0.044563
O3	O	-1.206660	0.339999	0.010501
O4	O	-1.210009	0.627631	0.098917
O5	O	-1.243576	0.312345	0.189996
O6	O	-1.095755	0.423150	0.224058
O7	O	-1.394746	0.489172	0.244349
Zn8	Zn	-1.251111	0.451770	0.262702
Zn9	Zn	-1.202474	0.488206	0.026210
O10	O	-1.246925	0.599977	0.278412
C11	C	-1.038854	0.425824	0.130883
C12	C	-0.924304	0.392582	0.120665
C13	C	-1.221912	0.288606	0.088699
C14	C	-1.212345	0.176669	0.054283
C15	C	-1.414731	0.514152	0.158028
C16	C	-1.529279	0.547396	0.168238
C17	C	-1.231673	0.651370	0.200212
C18	C	-1.241239	0.763308	0.234620
C19	C	-0.576987	0.651061	0.200102
C20	C	-0.684611	0.682298	0.209699
C21	C	-0.744540	0.609872	0.187442
C22	C	-0.696834	0.506203	0.155585
C23	C	-0.589197	0.474964	0.145978
C24	C	-0.756750	0.433775	0.133318
C25	C	-0.709043	0.330106	0.101461
C26	C	-0.601418	0.298872	0.091857
C27	C	-0.541489	0.371299	0.114114
C28	C	-0.864386	0.465013	0.142925
C29	C	-0.876596	0.288916	0.088801
C30	C	-0.768972	0.257679	0.079204
N31	N	-1.284312	0.426905	0.424102
C32	C	-1.265862	0.800812	0.348635
C33	C	-1.274851	0.905981	0.380976
C34	C	-1.259226	0.973658	0.299305
C35	C	-1.234609	0.936156	0.185289
C36	C	-1.225611	0.830975	0.152944
C37	C	-1.218974	1.003822	0.103615
C38	C	-1.194358	0.966319	-0.010402
C39	C	-1.185362	0.861149	-0.042741
C40	C	-1.200987	0.793472	0.038929
C41	C	-1.227972	1.109002	0.135959
C42	C	-1.187721	1.139166	-0.059732
C43	C	-1.178732	1.033996	-0.092072
N44	N	-1.169280	0.513065	-0.135191
C45	C	-1.092181	0.570803	0.823408
C46	C	-1.068924	0.588209	0.710429
C47	C	-1.122769	0.547885	0.638842
C48	C	-1.199875	0.490151	0.680244
C49	C	-1.223129	0.472737	0.793232
C50	C	-1.253717	0.449819	0.608667
C51	C	-1.330823	0.392085	0.650069
C52	C	-1.354074	0.374675	0.763046
C53	C	-1.300228	0.414999	0.834633
C54	C	-1.230464	0.467233	0.495679
C55	C	-1.361412	0.369167	0.465503
C56	C	-1.384669	0.351761	0.578482
H57	H	-0.903219	0.549420	0.168868
H58	H	-1.193675	0.707834	0.012603
H59	H	-1.158688	1.003447	-0.184907
N60	N	-0.512351	0.729172	0.224092
H61	H	-0.436929	0.693650	0.213168
H62	H	-0.542172	0.762833	0.304129
H63	H	-1.165308	0.830617	-0.135581
N64	N	-1.467825	0.289490	0.623150
H65	H	-1.447105	0.218059	0.580600
H66	H	-1.537674	0.324191	0.613189
N67	N	-1.170826	1.212141	-0.147832
H68	H	-1.180254	1.284458	-0.110042
H69	H	-1.223750	1.209671	-0.193376
N70	N	-0.549966	0.187060	0.057491
H71	H	-0.519263	0.159927	0.118838
H72	H	-0.491948	0.180505	-0.014262
H73	H	-1.278574	0.745700	0.415118
N74	N	-0.717517	0.145869	0.044831
H75	H	-0.752598	0.102562	0.101211
H76	H	-0.640246	0.137162	0.042108
H77	H	-0.925389	0.229941	0.070673
N78	N	-0.860624	0.643552	0.197811
H79	H	-0.875275	0.626756	0.122965
H80	H	-0.881678	0.720208	0.221415
H81	H	-1.416849	0.327655	0.796753
H82	H	-1.248006	1.139524	0.228792
N83	N	-1.268909	1.087089	0.334181
H84	H	-1.286873	1.100578	0.418801
H85	H	-1.326461	1.127590	0.306347
N86	N	-1.301405	0.946430	0.503941
H87	H	-1.309944	0.887602	0.550771
H88	H	-1.369316	0.998721	0.524476
H89	H	-0.453852	0.345871	0.106302
H90	H	-1.167684	0.514239	0.461979
N91	N	-1.419485	0.325657	0.388302
H92	H	-1.393055	0.345449	0.310447
H93	H	-1.497447	0.354219	0.417751
N94	N	-1.097684	0.566649	0.516984
H95	H	-1.040667	0.609340	0.501617
H96	H	-1.163141	0.604583	0.500215
N97	N	-0.985759	0.650463	0.665771
H98	H	-0.955175	0.673366	0.728261
H99	H	-1.018554	0.712850	0.635841
N100	N	-1.034101	0.614278	0.900610
H101	H	-1.060530	0.594481	0.978463
H102	H	-1.046746	0.691760	0.903756
N103	N	-1.325326	0.396236	0.956496
H104	H	-1.279520	0.430551	0.995561
H105	H	-1.311346	0.319756	0.961412
H106	H	-0.723444	0.766706	0.235629
