data_functionalizedCrystal
_audit_creation_method	'MofGen! by Chris Wilmer'
_symmetry_space_group_name_H-M	'P1'
_symmetry_Int_Tables_number	1
_symmetry_cell_setting	triclinic
loop_
_symmetry_equiv_pos_as_xyz
  x,y,z
_cell_length_a	18.050591
_cell_length_b	18.050590
_cell_length_c	19.077271
_cell_angle_alpha	87.714442
_cell_angle_beta	87.714286
_cell_angle_gamma	90.014558
loop_
_atom_site_label
_atom_site_type_symbol
_atom_site_fract_x
_atom_site_fract_y
_atom_site_fract_z
Zn1	Zn	1.118406	-0.312738	0.398056
Zn2	Zn	1.123345	-0.431909	0.280361
Zn3	Zn	0.999233	-0.307729	0.280364
Zn4	Zn	0.994197	-0.436880	0.398003
O5	O	1.058795	-0.372314	0.339196
O6	O	1.222985	-0.328563	0.382465
O7	O	1.111057	-0.411260	0.181873
O8	O	1.015082	-0.204470	0.295999
O9	O	1.226614	-0.416117	0.295995
O10	O	1.102638	-0.208150	0.382468
O11	O	1.019872	-0.320025	0.181875
O12	O	0.894641	-0.324845	0.295948
O13	O	1.006499	-0.424589	0.496499
O14	O	0.890941	-0.419732	0.382377
O15	O	1.097755	-0.333383	0.496538
O16	O	1.106173	-0.536492	0.295943
O17	O	1.011288	-0.540144	0.382374
C18	C	0.865845	-0.372285	0.339157
C19	C	0.783299	-0.372291	0.339157
C20	C	0.585834	-0.320639	0.292265
C21	C	0.537163	-0.387637	0.274944
C22	C	0.632167	-0.372315	0.339189
C23	C	0.533757	-0.305340	0.356508
C24	C	0.486181	-0.372332	0.339218
C25	C	0.584585	-0.439347	0.321835
C26	C	0.581182	-0.357006	0.403428
C27	C	0.532532	-0.424052	0.386132
C28	C	0.716266	-0.372304	0.339170
C29	C	0.402084	-0.372350	0.339237
C30	C	1.058739	-0.565265	0.339168
C31	C	1.058782	-0.647811	0.339180
C32	C	1.110481	-0.845252	0.292244
C33	C	1.125884	-0.897327	0.356480
C34	C	1.058823	-0.798943	0.339208
C35	C	1.043495	-0.893950	0.275000
C36	C	1.058865	-0.944929	0.339229
C37	C	1.074259	-0.849933	0.403478
C38	C	0.991841	-0.846549	0.321954
C39	C	1.007216	-0.898605	0.386235
C40	C	1.058802	-0.714844	0.339194
C41	C	1.058886	-1.029026	0.339250
C42	C	1.252499	-0.372344	0.339236
C43	C	1.335044	-0.372357	0.339252
C44	C	1.051014	-0.380099	0.522769
C45	C	1.047698	-0.383417	0.600997
C46	C	1.058871	-0.178611	0.339240
C47	C	1.058903	-0.096066	0.339258
C48	C	1.093650	-0.337492	0.637770
C49	C	1.090525	-0.340606	0.711274
C50	C	1.041452	-0.389650	0.748003
C51	C	0.995495	-0.435578	0.711225
C52	C	0.998616	-0.432459	0.637722
C53	C	1.027018	-0.404066	0.967828
C54	C	1.023901	-0.407183	1.041336
C55	C	1.118931	-0.312210	1.041380
C56	C	1.122051	-0.309098	0.967876
C57	C	1.076092	-0.355023	0.931105
N58	N	1.038258	-0.392836	0.823135
N59	N	1.079282	-0.351832	0.855974
C60	C	1.066540	-0.364576	1.156337
C61	C	1.069853	-0.361257	1.078109
H62	H	0.517739	-0.400598	0.220631
H63	H	0.963546	-0.921830	0.426006
H64	H	1.087182	-0.830602	0.457833
Cl65	Cl	0.904381	-0.812123	0.299376
Cl66	Cl	1.023452	-0.923942	0.191154
Cl67	Cl	0.611200	-0.336964	0.487261
H68	H	1.127946	-0.303210	0.741211
Cl69	Cl	0.969240	-0.461801	0.921611
H70	H	0.983937	-0.447122	1.071238
H71	H	0.606798	-0.496008	0.307138
Cl72	Cl	1.155349	-0.275836	0.591604
Cl73	Cl	1.183747	-0.247441	0.921708
Cl74	Cl	1.176702	-0.254477	1.087612
H75	H	0.955535	-0.475508	0.741135
H76	H	0.961190	-0.469849	0.607783
H77	H	0.609175	-0.276981	0.252540
H78	H	0.511418	-0.248700	0.371120
Cl79	Cl	0.496703	-0.491606	0.447418
H80	H	1.154179	-0.821893	0.252569
H81	H	1.182547	-0.919610	0.371087
