data_functionalizedCrystal
_audit_creation_method	'MofGen! by Chris Wilmer'
_symmetry_space_group_name_H-M	'P1'
_symmetry_Int_Tables_number	1
_symmetry_cell_setting	triclinic
loop_
_symmetry_equiv_pos_as_xyz
  x,y,z
_cell_length_a	19.805407
_cell_length_b	17.640280
_cell_length_c	19.805398
_cell_angle_alpha	78.777166
_cell_angle_beta	89.986879
_cell_angle_gamma	78.800112
loop_
_atom_site_label
_atom_site_type_symbol
_atom_site_fract_x
_atom_site_fract_y
_atom_site_fract_z
Zn1	Zn	1.089242	-0.314673	-0.328319
Zn2	Zn	1.589242	0.185327	0.171681
Zn3	Zn	1.112083	-0.446849	-0.192279
Zn4	Zn	1.612083	0.053151	0.307721
Zn5	Zn	0.976074	-0.314697	-0.215139
Zn6	Zn	1.476074	0.185303	0.284861
Zn7	Zn	0.998926	-0.446805	-0.305434
Zn8	Zn	1.498926	0.053195	0.194566
O9	O	1.044081	-0.380756	-0.260293
O10	O	1.544081	0.119244	0.239707
O11	O	1.186990	-0.332215	-0.310283
O12	O	1.686990	0.167785	0.189717
O13	O	1.094037	-0.429348	-0.100590
O14	O	1.594037	0.070652	0.399410
O15	O	0.971963	-0.204089	-0.249297
O16	O	1.471963	0.295911	0.250703
O17	O	1.203771	-0.429324	-0.210336
O18	O	1.703771	0.070676	0.289664
O19	O	1.055108	-0.204072	-0.332449
O20	O	1.555108	0.295928	0.167551
O21	O	0.994111	-0.332256	-0.117385
O22	O	1.494111	0.167744	0.382615
O23	O	0.884387	-0.332213	-0.227106
O24	O	1.384387	0.167787	0.272894
O25	O	1.010912	-0.429249	-0.403191
O26	O	1.510912	0.070751	0.096809
O27	O	0.901177	-0.429272	-0.293445
O28	O	1.401177	0.070728	0.206555
O29	O	1.077266	-0.332172	-0.420004
O30	O	1.577266	0.167828	0.079996
O31	O	1.116196	-0.557448	-0.188145
O32	O	1.616196	-0.057448	0.311855
O33	O	1.033060	-0.557415	-0.271279
O34	O	1.533060	-0.057415	0.228721
C35	C	0.868223	-0.380741	-0.260273
C36	C	1.368223	0.119259	0.239727
C37	C	0.792993	-0.380753	-0.260278
C38	C	1.292993	0.119247	0.239722
C39	C	1.079604	-0.586110	-0.224763
C40	C	1.579604	-0.086110	0.275237
C41	C	1.094863	-0.673961	-0.209586
C42	C	1.594863	-0.173961	0.290414
C43	C	0.766422	-0.431368	-0.294737
C44	C	1.266422	0.068632	0.205263
C45	C	0.695734	-0.431370	-0.294747
C46	C	1.195734	0.068630	0.205253
C47	C	0.651619	-0.380760	-0.260292
C48	C	1.151619	0.119240	0.239708
C49	C	0.678193	-0.330139	-0.225831
C50	C	1.178193	0.169861	0.274169
C51	C	0.748880	-0.330134	-0.225827
C52	C	1.248880	0.169866	0.274173
C53	C	0.393123	-0.330157	-0.225851
C54	C	0.893123	0.169843	0.274149
C55	C	0.322433	-0.330167	-0.225857
C56	C	0.822433	0.169833	0.274143
C57	C	0.339977	-0.431392	-0.294771
C58	C	0.839977	0.068608	0.205229
C59	C	0.410664	-0.431387	-0.294766
C60	C	0.910664	0.068613	0.205234
C61	C	0.437232	-0.380764	-0.260309
C62	C	0.937232	0.119236	0.239691
C63	C	0.513880	-0.380762	-0.260300
C64	C	1.013880	0.119238	0.239700
C65	C	0.574972	-0.380765	-0.260296
C66	C	1.074972	0.119235	0.239704
C67	C	0.928440	-0.962945	-0.375837
C68	C	1.428440	-0.462945	0.124163
C69	C	0.942780	-1.045495	-0.361554
C70	C	1.442780	-0.545495	0.138446
C71	C	1.029403	-1.045463	-0.275074
C72	C	1.529403	-0.545463	0.224926
C73	C	1.015073	-0.962912	-0.289352
C74	C	1.515073	-0.462912	0.210648
C75	C	0.964591	-0.921659	-0.339733
C76	C	1.464591	-0.421659	0.160267
C77	C	1.051224	-0.921626	-0.253248
C78	C	1.551224	-0.421626	0.246752
C79	C	1.036892	-0.839082	-0.267523
C80	C	1.536892	-0.339082	0.232477
C81	C	0.986411	-0.797824	-0.317900
C82	C	1.486411	-0.297824	0.182100
C83	C	0.950260	-0.839115	-0.354007
C84	C	1.450260	-0.339115	0.145993
C85	C	1.101702	-0.962880	-0.202864
C86	C	1.601702	-0.462880	0.297136
C87	C	1.137853	-0.921595	-0.166760
C88	C	1.637853	-0.421595	0.333240
C89	C	1.123525	-0.839049	-0.181038
C90	C	1.623525	-0.339049	0.318962
C91	C	1.073044	-0.797791	-0.231415
C92	C	1.573044	-0.297791	0.268585
C93	C	1.159677	-0.797758	-0.144931
C94	C	1.659677	-0.297758	0.355069
C95	C	1.145345	-0.715214	-0.159205
C96	C	1.645345	-0.215214	0.340795
C97	C	1.058713	-0.715247	-0.245690
C98	C	1.558713	-0.215247	0.254310
C99	C	1.220627	-0.380772	-0.260312
C100	C	1.720627	0.119228	0.239688
C101	C	1.295860	-0.380778	-0.260321
C102	C	1.795860	0.119222	0.239679
C103	C	1.044090	-0.380703	-0.436845
C104	C	1.544090	0.119297	0.063155
C105	C	1.044094	-0.380680	-0.512081
C106	C	1.544094	0.119320	-0.012081
C107	C	1.008438	-0.174600	-0.295976
C108	C	1.508438	0.325400	0.204024
C109	C	0.993249	-0.086749	-0.311181
C110	C	1.493249	0.413251	0.188819
C111	C	1.096210	-0.431110	-0.965146
C112	C	1.596210	0.068890	-0.465146
C113	C	1.096195	-0.431131	-0.894454
C114	C	1.596195	0.068869	-0.394454
C115	C	1.044163	-0.380591	-0.867858
C116	C	1.544163	0.119409	-0.367858
C117	C	0.992138	-0.330031	-0.911957
C118	C	1.492138	0.169969	-0.411957
C119	C	0.992151	-0.330014	-0.982648
C120	C	1.492151	0.169986	-0.482648
C121	C	0.992084	-0.330099	-0.626872
C122	C	1.492084	0.169901	-0.126872
C123	C	0.992077	-0.330118	-0.556177
C124	C	1.492077	0.169882	-0.056177
C125	C	1.096129	-0.431216	-0.538679
C126	C	1.596129	0.068784	-0.038679
C127	C	1.096142	-0.431199	-0.609369
C128	C	1.596142	0.068801	-0.109369
C129	C	1.044115	-0.380643	-0.653461
C130	C	1.544115	0.119357	-0.153461
C131	C	1.044131	-0.380621	-0.730114
C132	C	1.544131	0.119379	-0.230114
C133	C	1.044149	-0.380608	-0.791208
C134	C	1.544149	0.119392	-0.291208
C135	C	1.044102	-0.380752	-0.084437
C136	C	1.544102	0.119248	0.415563
C137	C	1.044191	-0.380552	-0.009240
C138	C	1.544191	0.119448	0.490760
H139	H	0.674104	-0.472586	-0.322807
H140	H	1.174104	0.027414	0.177193
N141	N	0.873991	-0.918437	-0.430174
N142	N	1.373991	-0.418437	0.069826
H143	H	0.895524	-0.884146	-0.467492
H144	H	1.395524	-0.384146	0.032508
H145	H	0.853278	-0.957160	-0.450832
H146	H	1.353278	-0.457160	0.049168
H147	H	0.286514	-0.288949	-0.197800
H148	H	0.786514	0.211051	0.302200
H149	H	1.138490	-0.472384	-0.502769
H150	H	1.638490	0.027616	-0.002769
N151	N	0.458246	-0.485978	-0.331923
N152	N	0.958246	0.014022	0.168077
H153	H	0.430687	-0.518043	-0.353755
H154	H	0.930687	-0.018043	0.146245
H155	H	0.482026	-0.453850	-0.368846
H156	H	0.982026	0.046150	0.131154
N157	N	0.935979	-0.275547	-0.674415
N158	N	1.435979	0.224453	-0.174415
H159	H	0.957165	-0.238915	-0.710080
H160	H	1.457165	0.261085	-0.210080
H161	H	0.910174	-0.307692	-0.698142
H162	H	1.410174	0.192308	-0.198142
N163	N	0.936013	-0.275522	-0.883275
N164	N	1.436013	0.224478	-0.383275
H165	H	0.943898	-0.283201	-0.831803
H166	H	1.443898	0.216799	-0.331803
H167	H	0.936790	-0.219072	-0.905406
H168	H	1.436790	0.280928	-0.405406
H169	H	1.070504	-1.079062	-0.234051
H170	H	1.570504	-0.579062	0.265949
N171	N	0.421772	-0.275547	-0.188701
N172	N	0.921772	0.224453	0.311299
H173	H	0.383097	-0.243486	-0.166878
H174	H	0.883097	0.256514	0.333122
H175	H	0.456654	-0.307654	-0.151770
H176	H	0.956654	0.192346	0.348230
H177	H	0.949703	-0.288959	-0.534526
H178	H	1.449703	0.211041	-0.034526
N179	N	0.777547	-0.275549	-0.188657
N180	N	1.277547	0.224451	0.311343
H181	H	0.800552	-0.238962	-0.222545
H182	H	1.300552	0.261038	0.277455
H183	H	0.738844	-0.243540	-0.166827
H184	H	1.238844	0.256460	0.333173
N185	N	0.936042	-0.275488	-1.030209
N186	N	1.436042	0.224512	-0.530209
H187	H	0.903077	-0.243472	-1.002636
H188	H	1.403077	0.256528	-0.502636
H189	H	0.957272	-0.238906	-1.065874
H190	H	1.457272	0.261094	-0.565874
H191	H	1.138584	-0.472262	-0.986795
H192	H	1.638584	0.027738	-0.486795
H193	H	1.200774	-0.831358	-0.103905
H194	H	1.700774	-0.331358	0.396095
N195	N	0.814002	-0.485961	-0.331894
N196	N	1.314002	0.014039	0.168106
H197	H	0.786440	-0.518024	-0.353726
H198	H	1.286440	-0.018024	0.146274
H199	H	0.837784	-0.453835	-0.368819
H200	H	1.337784	0.046165	0.131181
H201	H	0.642268	-0.288928	-0.197781
H202	H	1.142268	0.211072	0.302219
N203	N	1.152299	-0.485662	-0.846892
N204	N	1.652299	0.014338	-0.346892
H205	H	1.185267	-0.517674	-0.874466
H206	H	1.685267	-0.017674	-0.374466
H207	H	1.178052	-0.453497	-0.823130
H208	H	1.678052	0.046503	-0.323130
H209	H	1.178954	-0.955194	-0.125738
H210	H	1.678954	-0.455194	0.374262
H211	H	1.017610	-0.681657	-0.286720
H212	H	1.517610	-0.181657	0.213280
H213	H	1.138514	-0.472352	-0.631019
H214	H	1.638514	0.027648	-0.131019
H215	H	0.318337	-0.472609	-0.322831
H216	H	0.818337	0.027391	0.177169
N217	N	0.970948	-0.708794	-0.333294
N218	N	1.470948	-0.208794	0.166706
H219	H	1.013908	-0.688859	-0.349228
H220	H	1.513908	-0.188859	0.150772
H221	H	0.933463	-0.688991	-0.370670
H222	H	1.433463	-0.188991	0.129330
H223	H	0.909157	-0.805526	-0.395038
H224	H	1.409157	-0.305526	0.104962
H225	H	0.913346	-1.079107	-0.390966
H226	H	1.413346	-0.579107	0.109034
N227	N	1.117163	-1.051910	-0.187470
N228	N	1.617163	-0.551910	0.312530
H229	H	1.154625	-1.071779	-0.150073
H230	H	1.654625	-0.571779	0.349927
H231	H	1.074166	-1.071779	-0.171573
H232	H	1.574166	-0.571779	0.328427
H233	H	1.174782	-0.681598	-0.129805
H234	H	1.674782	-0.181598	0.370195
