data_functionalizedCrystal
_audit_creation_method	'MofGen! by Chris Wilmer'
_symmetry_space_group_name_H-M	'P1'
_symmetry_Int_Tables_number	1
_symmetry_cell_setting	triclinic
loop_
_symmetry_equiv_pos_as_xyz
  x,y,z
_cell_length_a	10.723024
_cell_length_b	15.995350
_cell_length_c	9.798715
_cell_angle_alpha	89.999084
_cell_angle_beta	89.996609
_cell_angle_gamma	83.980122
loop_
_atom_site_label
_atom_site_type_symbol
_atom_site_fract_x
_atom_site_fract_y
_atom_site_fract_z
O1	O	1.655689	0.117435	-0.113475
O2	O	2.155689	0.617435	0.386525
O3	O	1.292393	0.128675	-0.113479
O4	O	1.792393	0.628675	0.386521
O5	O	1.483972	0.001224	-0.113475
O6	O	1.983972	0.501224	0.386525
O7	O	1.464110	0.244886	-0.113478
O8	O	1.964110	0.744886	0.386522
O9	O	1.483958	0.001224	0.113507
O10	O	1.983958	0.501224	0.613507
O11	O	1.292379	0.128675	0.113503
O12	O	1.792379	0.628675	0.613503
O13	O	1.655675	0.117434	0.113507
O14	O	2.155675	0.617434	0.613507
Zn15	Zn	1.474025	0.123055	0.149544
Zn16	Zn	1.974025	0.623055	0.649544
Zn17	Zn	1.474044	0.123055	-0.149515
Zn18	Zn	1.974044	0.623055	0.350485
O19	O	1.464096	0.244885	0.113504
O20	O	1.964096	0.744885	0.613504
C21	C	1.245897	0.127857	0.000012
C22	C	1.745897	0.627857	0.500012
C23	C	1.107374	0.125410	0.000010
C24	C	1.607374	0.625410	0.500010
C25	C	1.031482	0.196725	0.000008
C26	C	1.531482	0.696725	0.500008
C27	C	0.888310	0.194197	0.000007
C28	C	1.388310	0.694197	0.500007
C29	C	1.483144	-0.029975	0.000013
C30	C	1.983144	0.470025	0.500013
C31	C	1.480682	-0.122940	0.000005
C32	C	1.980682	0.377060	0.500005
C33	C	1.471842	-0.460738	0.000010
C34	C	1.971842	0.039262	0.500010
C35	C	1.335403	-0.414088	-0.000501
C36	C	1.835403	0.085912	0.499499
C37	C	1.337865	-0.317383	0.000011
C38	C	1.837865	0.182617	0.500011
C39	C	1.476227	-0.293152	0.000007
C40	C	1.976227	0.206848	0.500007
C41	C	1.543515	-0.333843	0.129623
C42	C	2.043515	0.166157	0.629623
C43	C	1.540088	-0.430499	0.129732
C44	C	2.040088	0.069501	0.629732
C45	C	1.542922	-0.430840	-0.128390
C46	C	2.042922	0.069160	0.371610
C47	C	1.542890	-0.333895	-0.130103
C48	C	2.042890	0.166105	0.369897
C49	C	1.478712	-0.198441	0.000010
C50	C	1.978712	0.301559	0.500010
C51	C	1.469360	-0.555450	0.000016
C52	C	1.969360	-0.055450	0.500016
C53	C	1.702171	0.118252	0.000014
C54	C	2.202171	0.618252	0.500014
C55	C	1.840694	0.120700	0.000007
C56	C	2.340694	0.620700	0.500007
C57	C	1.464924	0.276085	0.000013
C58	C	1.964924	0.776085	0.500013
C59	C	1.467386	0.369049	0.000011
C60	C	1.967386	0.869049	0.500011
N61	N	1.474021	0.123054	0.353643
N62	N	1.974021	0.623054	0.853643
N63	N	1.474057	0.123049	-0.353615
N64	N	1.974057	0.623049	0.146385
C65	C	1.554463	0.069305	0.421422
C66	C	2.054463	0.569305	0.921422
C67	C	1.554483	0.069302	0.578584
C68	C	2.054483	0.569302	1.078584
H69	H	0.823099	0.255248	-0.000000
H70	H	1.323099	0.755248	0.500000
H71	H	1.640259	-0.462172	0.135610
H72	H	2.140259	0.037828	0.635610
H73	H	1.623357	0.023288	0.636871
H74	H	2.123357	0.523288	1.136871
H75	H	1.066355	0.062483	-0.000024
H76	H	1.566355	0.562483	0.499976
H77	H	1.281106	-0.433994	0.091931
H78	H	1.781106	0.066006	0.591931
C79	C	1.086876	0.281739	0.000004
C80	C	1.586876	0.781739	0.500004
H81	H	1.020696	0.326153	0.000011
H82	H	1.520696	0.826153	0.500011
H83	H	1.137053	0.285757	-0.079148
H84	H	1.637053	0.785757	0.420852
H85	H	1.137038	0.285760	0.079170
H86	H	1.637038	0.785760	0.579170
C87	C	1.265934	-0.280149	0.125751
C88	C	1.765934	0.219851	0.625751
H89	H	1.235102	-0.324136	0.176725
H90	H	1.735102	0.175864	0.676725
H91	H	1.197648	-0.241570	0.096857
H92	H	1.697648	0.258430	0.596857
H93	H	1.320692	-0.251782	0.181268
H94	H	1.820692	0.248218	0.681268
C95	C	1.381013	0.185222	0.567670
C96	C	1.881013	0.685222	1.067670
H97	H	1.330565	0.218945	0.630595
H98	H	1.830565	0.718945	1.130595
H99	H	1.328976	0.154860	0.511934
H100	H	1.828976	0.654860	1.011934
H101	H	1.426108	0.220230	0.511924
H102	H	1.926108	0.720230	1.011924
H103	H	0.905898	0.059646	-0.000001
H104	H	1.405898	0.559646	0.499999
H105	H	1.405162	0.169065	0.411967
H106	H	1.905162	0.669065	0.911967
H107	H	1.645166	-0.319134	0.134441
H108	H	2.145166	0.180866	0.634441
C109	C	1.266394	-0.279392	-0.125492
C110	C	1.766394	0.220608	0.374508
H111	H	1.235585	-0.323057	-0.177247
H112	H	1.735585	0.176943	0.322753
H113	H	1.321379	-0.250785	-0.180337
H114	H	1.821379	0.249215	0.319663
H115	H	1.198096	-0.240905	-0.096309
H116	H	1.698096	0.259095	0.403691
H117	H	1.643790	-0.317954	-0.137932
H118	H	2.143790	0.182046	0.362068
H119	H	1.280875	-0.432932	-0.093451
H120	H	1.780875	0.067068	0.406549
H121	H	1.491009	-0.449082	0.226625
H122	H	1.991009	0.050918	0.726625
H123	H	1.496768	-0.305731	0.226082
H124	H	1.996768	0.194269	0.726082
H125	H	1.493694	-0.306929	-0.225989
H126	H	1.993694	0.193071	0.274011
H127	H	1.498320	-0.451636	-0.226631
H128	H	1.998320	0.048364	0.273369
H129	H	1.643518	-0.462023	-0.129264
H130	H	2.143518	0.037977	0.370736
H131	H	1.623314	0.023287	0.363100
H132	H	2.123314	0.523287	0.863100
