data_functionalizedCrystal
_audit_creation_method	'MofGen! by Chris Wilmer'
_symmetry_space_group_name_H-M	'P1'
_symmetry_Int_Tables_number	1
_symmetry_cell_setting	triclinic
loop_
_symmetry_equiv_pos_as_xyz
  x,y,z
_cell_length_a	10.654546
_cell_length_b	10.654551
_cell_length_c	14.048226
_cell_angle_alpha	89.996418
_cell_angle_beta	89.992635
_cell_angle_gamma	84.484422
loop_
_atom_site_label
_atom_site_type_symbol
_atom_site_fract_x
_atom_site_fract_y
_atom_site_fract_z
O1	O	1.667848	0.176381	-0.079175
O2	O	1.302369	0.193191	-0.079172
O3	O	1.493511	0.002047	-0.079174
O4	O	1.476706	0.367525	-0.079173
O5	O	1.493487	0.002035	0.079147
O6	O	1.302345	0.193180	0.079150
O7	O	1.667824	0.176369	0.079146
Zn8	Zn	1.485081	0.184772	0.104285
Zn9	Zn	1.485112	0.184788	-0.104310
O10	O	1.476683	0.367514	0.079149
C11	C	1.255559	0.191952	-0.000011
C12	C	1.116116	0.188262	-0.000010
C13	C	1.050634	0.186522	-0.086315
C14	C	0.919613	0.183045	-0.086323
C15	C	0.919568	0.183042	0.086288
C16	C	1.050586	0.186529	0.086295
C17	C	1.116163	0.188255	-0.172619
C18	C	1.050681	0.186514	-0.258932
C19	C	0.919661	0.183037	-0.258939
C20	C	0.854122	0.181301	-0.172635
C21	C	1.492265	-0.044757	-0.000015
C22	C	1.488572	-0.184200	-0.000022
C23	C	1.486853	-0.249706	-0.086321
C24	C	1.483373	-0.380726	-0.086317
C25	C	1.483337	-0.380724	0.086294
C26	C	1.486808	-0.249705	0.086289
C27	C	1.488617	-0.184201	-0.172631
C28	C	1.486899	-0.249707	-0.258938
C29	C	1.483419	-0.380727	-0.258933
C30	C	1.481657	-0.446241	-0.172623
C31	C	1.714634	0.177608	-0.000017
C32	C	1.854078	0.181298	-0.000024
C33	C	1.477928	0.414317	-0.000012
C34	C	1.481621	0.553760	-0.000012
N35	N	1.485070	0.184761	0.246646
N36	N	1.485134	0.184789	-0.246671
C37	C	1.569734	0.100158	0.296463
C38	C	1.569743	0.100157	0.396120
C39	C	1.485092	0.184767	0.445959
C40	C	1.400418	0.269375	0.396135
C41	C	1.400404	0.269368	0.296479
C42	C	1.400454	0.269384	0.603849
C43	C	1.400469	0.269392	0.703512
C44	C	1.569793	0.100173	0.703490
C45	C	1.569779	0.100167	0.603835
C46	C	1.485106	0.184776	0.554017
H47	H	1.104050	0.187938	-0.329197
F48	F	0.849972	0.181198	-0.350798
F49	F	1.310318	0.359418	0.449178
H50	H	0.747434	0.178483	-0.172648
H51	H	1.491454	-0.077518	-0.172645
H52	H	1.488322	-0.196355	-0.329208
H53	H	1.481903	-0.434077	0.156564
H54	H	1.478804	-0.552925	-0.172626
H55	H	1.103902	0.187952	0.156572
H56	H	1.488181	-0.196366	0.156561
H57	H	1.638672	0.031264	0.255890
F58	F	1.310288	0.359412	0.243462
H59	H	1.638682	0.031266	0.436681
F60	F	0.849814	0.181191	0.178133
H61	H	1.638714	0.031278	0.563256
F62	F	1.255607	0.191952	-0.172618
H63	H	1.482007	-0.434057	-0.329208
H64	H	1.638735	0.031282	0.744057
H65	H	1.331536	0.338289	0.744086
H66	H	1.331500	0.338278	0.563291
