data_functionalizedCrystal
_audit_creation_method	'MofGen! by Chris Wilmer'
_symmetry_space_group_name_H-M	'P1'
_symmetry_Int_Tables_number	1
_symmetry_cell_setting	triclinic
loop_
_symmetry_equiv_pos_as_xyz
  x,y,z
_cell_length_a	27.731994
_cell_length_b	15.944493
_cell_length_c	14.421503
_cell_angle_alpha	89.992936
_cell_angle_beta	89.987239
_cell_angle_gamma	96.952071
loop_
_atom_site_label
_atom_site_type_symbol
_atom_site_fract_x
_atom_site_fract_y
_atom_site_fract_z
O1	O	-0.062202	1.113725	-0.077082
O2	O	-0.069917	0.869066	-0.077084
O3	O	0.004307	0.999018	-0.077097
O4	O	-0.136426	0.983773	-0.077069
O5	O	0.004296	0.998996	0.077127
O6	O	-0.069928	0.869044	0.077140
O7	O	-0.062213	1.113704	0.077142
Cu8	Cu	-0.066072	0.991372	0.091223
Cu9	Cu	-0.066059	0.991397	-0.091165
O10	O	-0.136437	0.983752	0.077155
C11	C	-0.069607	0.837764	0.000027
C12	C	-0.068662	0.744528	0.000025
C13	C	-0.112352	0.508183	0.000033
C14	C	-0.088797	0.457930	0.076073
C15	C	-0.066910	0.573831	0.000027
C16	C	-0.088776	0.457955	-0.075979
C17	C	-0.065222	0.408944	0.000024
C18	C	-0.043368	0.524806	0.076129
C19	C	-0.043353	0.524835	-0.075991
C20	C	-0.019764	0.474615	0.000067
C21	C	-0.067884	0.668818	0.000029
C22	C	-0.064244	0.313960	0.000028
C23	C	-0.154440	0.984076	0.000046
C24	C	-0.208101	0.985018	0.000057
C25	C	-0.540838	0.990965	-0.084051
C26	C	-0.742511	0.994547	-0.084065
O27	O	-0.768581	0.995057	-0.155561
N28	N	-0.767734	0.994980	0.000002
C29	C	-0.742535	0.994523	0.084078
O30	O	-0.768615	0.994983	0.155582
C31	C	-0.540862	0.990947	0.084091
C32	C	-0.515643	0.990506	0.000018
C33	C	-0.515618	0.990524	-0.168117
C34	C	-0.465203	0.989624	-0.168112
C35	C	-0.440008	0.989165	-0.084043
C36	C	-0.465228	0.989606	0.000023
C37	C	-0.515664	0.990496	0.168166
C38	C	-0.465242	0.989605	0.168162
C39	C	-0.440023	0.989163	0.084089
C40	C	-0.389617	0.988246	0.084097
N41	N	-0.364395	0.987813	0.000030
C42	C	-0.389590	0.988272	-0.084040
C43	C	-0.848416	0.996399	0.084065
C44	C	-0.898834	0.997292	0.084063
C45	C	-0.898807	0.997317	-0.084081
C46	C	-0.848388	0.996419	-0.084077
C47	C	-0.823193	0.995966	-0.000001
C48	C	-0.283715	0.986381	-0.084024
C49	C	-0.233296	0.985478	-0.084013
C50	C	-0.233327	0.985457	0.084130
C51	C	-0.283742	0.986356	0.084119
C52	C	-0.308935	0.986821	0.000034
O53	O	-0.363516	0.987746	0.155555
O54	O	-0.363500	0.987832	-0.155533
C55	C	-0.591253	0.991865	-0.084055
C56	C	-0.616473	0.992306	0.000010
C57	C	-0.591277	0.991846	0.084080
C58	C	-0.666891	0.993198	0.000007
C59	C	-0.692086	0.993658	-0.084063
C60	C	-0.666863	0.993225	-0.168129
C61	C	-0.616448	0.992325	-0.168125
C62	C	-0.616500	0.992280	0.168146
C63	C	-0.666915	0.993179	0.168135
C64	C	-0.692110	0.993638	0.084066
C65	C	0.022310	0.998694	0.000009
C66	C	0.075970	0.997751	-0.000007
C67	C	-0.062523	1.145005	0.000029
C68	C	-0.063468	1.238241	0.000025
N69	N	-0.066081	0.991360	0.219504
N70	N	-0.066046	0.991416	-0.219446
C71	C	-0.100386	0.931260	0.469163
C72	C	-0.109762	1.007037	0.530969
C73	C	-0.066069	0.991381	0.408665
C74	C	-0.056705	0.915624	0.530953
C75	C	-0.066059	0.991394	0.591387
C76	C	-0.075466	1.067195	0.469110
C77	C	-0.022390	0.975733	0.469089
C78	C	-0.031747	1.051564	0.530867
C79	C	-0.066076	0.991372	0.303404
C80	C	-0.066052	0.991411	0.696646
H81	H	-0.212765	0.985115	-0.152477
H82	H	0.014531	0.962462	0.441887
C83	C	-0.046213	0.830111	0.567043
C84	C	-0.082253	0.767410	0.535758
C85	C	-0.072605	0.688623	0.568970
H86	H	-0.046003	0.830769	0.632905
H87	H	-0.015432	0.818533	0.544916
H88	H	-0.113026	0.778985	0.557889
H89	H	-0.082470	0.766725	0.469901
H90	H	-0.041824	0.677045	0.546843
H91	H	-0.072394	0.689290	0.634831
H92	H	-0.097053	0.646071	0.547741
C93	C	-0.086172	1.152649	0.433209
C94	C	-0.131759	1.168955	0.465372
C95	C	-0.141641	1.247670	0.432341
H96	H	-0.086168	1.152232	0.367345
H97	H	-0.061957	1.195406	0.454867
H98	H	-0.155968	1.126209	0.443710
H99	H	-0.131774	1.169389	0.531233
H100	H	-0.117426	1.290428	0.453999
H101	H	-0.141635	1.247246	0.366478
H102	H	-0.172570	1.258747	0.454166
C103	C	-0.437979	0.989069	0.259544
C104	C	-0.470862	0.989626	0.333161
C105	C	-0.445767	0.989118	0.417355
H106	H	-0.414616	1.037706	0.263174
H107	H	-0.422018	0.939696	0.263096
H108	H	-0.486815	1.038993	0.329612
H109	H	-0.494226	0.940992	0.329563
H110	H	-0.429807	0.939746	0.420906
H111	H	-0.422405	1.037756	0.420974
H112	H	-0.468075	0.989488	0.467314
C113	C	-0.114444	0.418852	0.161682
C114	C	-0.153438	0.359920	0.134489
C115	C	-0.177075	0.323900	0.213320
H116	H	-0.126214	0.461863	0.197794
H117	H	-0.092257	0.391365	0.197483
H118	H	-0.175621	0.387407	0.098703
H119	H	-0.141681	0.316893	0.098387
H120	H	-0.154888	0.296412	0.249122
H121	H	-0.188842	0.366917	0.249428
H122	H	-0.203532	0.283905	0.194882
H123	H	-0.107971	0.428768	-0.140256
C124	C	-0.159047	1.024535	0.567169
C125	C	-0.194843	0.961392	0.535932
C126	C	-0.240249	0.977471	0.569267
H127	H	-0.165999	1.077908	0.545106
H128	H	-0.158616	1.024886	0.633041
H129	H	-0.195274	0.961049	0.470074
H130	H	-0.187907	0.908012	0.557993
H131	H	-0.239819	0.977823	0.635139
H132	H	-0.247196	1.030846	0.547202
H133	H	-0.264542	0.934628	0.548085
H134	H	-0.444674	0.989271	-0.236573
C135	C	0.032460	0.454652	-0.000092
C136	C	0.040736	0.408368	-0.079818
C137	C	0.088842	0.389979	-0.080002
H138	H	0.038034	0.422384	0.053372
H139	H	0.053906	0.505849	0.000384
H140	H	0.019297	0.357179	-0.080285
H141	H	0.035173	0.440621	-0.133294
H142	H	0.110288	0.441176	-0.079526
H143	H	0.094411	0.357713	-0.026535
H144	H	0.094465	0.358580	-0.134099
H145	H	-0.536188	0.990865	0.236627
C146	C	-0.926228	0.997639	-0.175306
C147	C	-0.960614	0.925849	-0.180185
C148	C	-0.985884	0.926107	-0.264204
H149	H	-0.904037	0.997198	-0.225438
H150	H	-0.942243	1.046951	-0.178851
H151	H	-0.944599	0.876550	-0.176649
H152	H	-0.982815	0.926275	-0.130073
H153	H	-1.001900	0.975419	-0.267749
H154	H	-0.963690	0.925668	-0.314329
H155	H	-1.009221	0.877403	-0.267522
H156	H	-0.151495	0.523281	0.000112
C157	C	-0.017752	0.563695	0.161827
C158	C	0.021537	0.622090	0.134781
C159	C	0.045140	0.657939	0.213699
H160	H	-0.006276	0.520535	0.198153
H161	H	-0.039870	0.591577	0.197375
H162	H	0.043651	0.594208	0.099248
H163	H	0.010075	0.665265	0.098466
H164	H	0.023022	0.685822	0.249248
H165	H	0.056612	0.614774	0.250020
H166	H	0.071797	0.697570	0.195360
C167	C	-0.017864	0.563742	-0.161831
C168	C	-0.041824	0.529710	-0.241231
C169	C	-0.018366	0.565542	-0.320331
H170	H	0.014849	0.551683	-0.162516
H171	H	-0.018420	0.623197	-0.160948
H172	H	-0.041263	0.470269	-0.242114
H173	H	-0.074535	0.541767	-0.240577
H174	H	-0.018922	0.624997	-0.319448
H175	H	0.014346	0.553481	-0.321007
H176	H	-0.034622	0.542462	-0.374213
C177	C	-0.821023	0.996052	0.175320
C178	C	-0.786633	1.067832	0.180273
C179	C	-0.761396	1.067532	0.264326
H180	H	-0.805010	0.946751	0.178887
H181	H	-0.843247	0.996474	0.225415
H182	H	-0.764413	1.067402	0.130193
H183	H	-0.802634	1.117145	0.176723
H184	H	-0.783620	1.067954	0.314420
H185	H	-0.745385	1.018228	0.267885
H186	H	-0.738062	1.116238	0.267701
C187	C	-0.542884	0.990974	-0.259499
C188	C	-0.509999	0.990376	-0.333106
C189	C	-0.535095	0.990771	-0.417307
H190	H	-0.558864	1.040309	-0.263141
H191	H	-0.566233	0.942299	-0.263048
H192	H	-0.486658	1.039047	-0.329559
H193	H	-0.494018	0.941045	-0.329494
H194	H	-0.558445	0.942096	-0.420856
H195	H	-0.551074	1.040107	-0.420940
H196	H	-0.512787	0.990358	-0.467259
H197	H	-0.304221	0.986761	-0.152494
C198	C	-0.821094	0.995972	-0.175452
C199	C	-0.853956	0.996575	-0.249071
C200	C	-0.828833	0.996169	-0.333263
H201	H	-0.805118	0.946631	-0.179069
H202	H	-0.797740	1.044642	-0.179014
H203	H	-0.877302	0.947910	-0.245511
H204	H	-0.869933	1.045912	-0.245485
H205	H	-0.805479	1.044839	-0.336825
H206	H	-0.812858	0.946827	-0.336870
H207	H	-0.851125	0.996586	-0.383223
C208	C	0.006898	1.119560	0.566725
C209	C	-0.003131	1.198692	0.535238
C210	C	0.032451	1.261351	0.568265
H211	H	0.037865	1.109011	0.544621
H212	H	0.006863	1.118943	0.632600
H213	H	-0.003092	1.199306	0.469377
H214	H	-0.034093	1.209267	0.557340
H215	H	0.032417	1.260734	0.634139
H216	H	0.063416	1.250794	0.546158
H217	H	0.025649	1.315049	0.546913
C218	C	-0.694291	0.993573	-0.259345
C219	C	-0.728688	0.921799	-0.264232
C220	C	-0.753968	0.922092	-0.348238
H221	H	-0.672108	0.993136	-0.309489
H222	H	-0.710299	1.042895	-0.262862
H223	H	-0.712681	0.872489	-0.260724
H224	H	-0.750882	0.922221	-0.214108
H225	H	-0.769976	0.971414	-0.351756
H226	H	-0.731781	0.921657	-0.398375
H227	H	-0.777312	0.873398	-0.351562
H228	H	-0.919365	0.997635	0.152523
H229	H	-0.304280	0.986682	0.152577
C230	C	-0.206003	0.984790	0.175429
C231	C	-0.223707	0.912702	0.226154
C232	C	-0.198540	0.912061	0.310256
H233	H	-0.210558	1.033880	0.210077
H234	H	-0.172363	0.984150	0.163418
H235	H	-0.257338	0.913350	0.238167
H236	H	-0.219151	0.863600	0.191533
H237	H	-0.164901	0.911421	0.298246
H238	H	-0.203097	0.961154	0.344896
H239	H	-0.210546	0.863147	0.344680
C240	C	-0.694331	0.993484	0.259394
C241	C	-0.728721	0.921700	0.264330
C242	C	-0.753979	0.921955	0.348385
H243	H	-0.710347	1.042782	0.262976
H244	H	-0.672119	0.993039	0.309485
H245	H	-0.750930	0.922153	0.214252
H246	H	-0.712718	0.872390	0.260764
H247	H	-0.731767	0.921509	0.398477
H248	H	-0.769991	0.971256	0.351960
H249	H	-0.777312	0.873246	0.351750
C250	C	-0.589240	0.991734	0.259525
C251	C	-0.622128	0.992285	0.333137
C252	C	-0.597037	0.991765	0.417334
H253	H	-0.565877	1.040369	0.263165
H254	H	-0.573281	0.942359	0.263073
H255	H	-0.638079	1.041654	0.329591
H256	H	-0.645492	0.943653	0.329528
H257	H	-0.581078	0.942391	0.420882
H258	H	-0.573675	1.040401	0.420964
H259	H	-0.619348	0.992131	0.467289
H260	H	-0.595919	0.991965	-0.236585
H261	H	-0.129431	0.880469	0.442071
