data_functionalizedCrystal
_audit_creation_method	'MofGen! by Chris Wilmer'
_symmetry_space_group_name_H-M	'P1'
_symmetry_Int_Tables_number	1
_symmetry_cell_setting	triclinic
loop_
_symmetry_equiv_pos_as_xyz
  x,y,z
_cell_length_a	19.188925
_cell_length_b	19.188930
_cell_length_c	13.448316
_cell_angle_alpha	89.988273
_cell_angle_beta	89.992287
_cell_angle_gamma	83.143665
loop_
_atom_site_label
_atom_site_type_symbol
_atom_site_fract_x
_atom_site_fract_y
_atom_site_fract_z
O1	O	0.926149	0.087151	-0.082724
O2	O	1.426149	0.587151	0.417276
O3	O	0.722837	0.098889	-0.082723
O4	O	1.222837	0.598889	0.417277
O5	O	0.830361	-0.008636	-0.082704
O6	O	1.330361	0.491364	0.417296
O7	O	0.818626	0.194676	-0.082743
O8	O	1.318626	0.694676	0.417257
O9	O	0.830347	-0.008642	0.082679
O10	O	1.330347	0.491358	0.582679
O11	O	0.722824	0.098883	0.082661
O12	O	1.222824	0.598883	0.582661
O13	O	0.926136	0.087145	0.082659
O14	O	1.426136	0.587145	0.582659
Cu15	Cu	0.824479	0.093013	0.097761
Cu16	Cu	1.324479	0.593013	0.597761
Cu17	Cu	0.824495	0.093021	-0.097825
Cu18	Cu	1.324495	0.593021	0.402175
O19	O	0.818613	0.194669	0.082641
O20	O	1.318613	0.694669	0.582641
C21	C	0.696820	0.098507	-0.000031
C22	C	1.196820	0.598507	0.499969
C23	C	0.619315	0.097367	-0.000029
C24	C	1.119315	0.597367	0.499971
C25	C	0.057545	0.152831	-0.000042
C26	C	0.557545	0.652831	0.499958
C27	C	0.130368	0.153908	-0.000048
C28	C	0.630368	0.653908	0.499952
C29	C	0.175302	0.090816	-0.000034
C30	C	0.675302	0.590816	0.499966
C31	C	0.147408	0.026642	-0.000040
C32	C	0.647408	0.526642	0.499960
C33	C	0.074586	0.025568	-0.000045
C34	C	0.574586	0.525568	0.499955
N35	N	0.295975	0.045137	0.056272
N36	N	0.795975	0.545137	0.556272
N37	N	0.365152	0.046163	0.056279
N38	N	0.865152	0.546163	0.556279
C39	C	0.394712	0.094050	-0.000023
C40	C	0.894712	0.594050	0.499977
N41	N	0.352479	0.140884	-0.056319
N42	N	0.852479	0.640884	0.443681
N43	N	0.283295	0.139861	-0.056321
N44	N	0.783295	0.639861	0.443679
C45	C	0.254267	0.091974	-0.000030
C46	C	0.754267	0.591974	0.499970
C47	C	0.501561	0.159386	-0.000030
C48	C	1.001561	0.659386	0.499970
C49	C	0.574385	0.160460	-0.000042
C50	C	1.074385	0.660460	0.499958
C51	C	0.591425	0.033193	-0.000024
C52	C	1.091425	0.533193	0.499976
C53	C	0.518601	0.032121	-0.000022
C54	C	1.018601	0.532121	0.499978
C55	C	0.473673	0.095220	-0.000021
C56	C	0.973673	0.595220	0.499979
C57	C	0.829974	-0.034650	-0.000010
C58	C	1.329974	0.465350	0.499990
C59	C	0.828833	-0.112154	-0.000001
C60	C	1.328833	0.387846	0.499999
C61	C	0.891924	-0.157079	0.000003
C62	C	1.391924	0.342921	0.500003
C63	C	0.890852	-0.229903	-0.000013
C64	C	1.390852	0.270097	0.499987
C65	C	0.826686	-0.257799	-0.000013
C66	C	1.326686	0.242201	0.499987
C67	C	0.763587	-0.212864	-0.000023
C68	C	1.263587	0.287136	0.499977
C69	C	0.764660	-0.140041	-0.000017
C70	C	1.264660	0.359959	0.499983
N71	N	0.777634	-0.365805	0.056271
N72	N	1.277634	0.134195	0.556271
N73	N	0.776619	-0.434983	0.056267
N74	N	1.276619	0.065017	0.556267
C75	C	0.823448	-0.477207	-0.000033
C76	C	1.323448	0.022793	0.499967
N77	N	0.871342	-0.447640	-0.056317
N78	N	1.371342	0.052360	0.443683
N79	N	0.872359	-0.378456	-0.056309
N80	N	1.372359	0.121544	0.443691
C81	C	0.825515	-0.336761	-0.000020
C82	C	1.325515	0.163239	0.499980
C83	C	0.885381	-0.601097	-0.000047
C84	C	1.385381	-0.101097	0.499953
C85	C	0.884307	-0.673922	-0.000069
C86	C	1.384307	-0.173922	0.499931
C87	C	0.757040	-0.656880	-0.000070
C88	C	1.257040	-0.156880	0.499930
C89	C	0.758116	-0.584057	-0.000058
C90	C	1.258116	-0.084057	0.499942
C91	C	0.822289	-0.556170	-0.000042
C92	C	1.322289	-0.056170	0.499958
C93	C	0.952154	0.087527	-0.000035
C94	C	1.452154	0.587527	0.499965
C95	C	1.029658	0.088666	-0.000043
C96	C	1.529658	0.588666	0.499957
C97	C	0.819000	0.220684	-0.000056
C98	C	1.319000	0.720684	0.499944
C99	C	0.820140	0.298188	-0.000071
C100	C	1.320140	0.798188	0.499929
N101	N	0.824473	0.093007	0.235325
N102	N	1.324473	0.593007	0.735325
N103	N	0.824506	0.093021	-0.235389
N104	N	1.324506	0.593021	0.264611
C105	C	0.872098	0.045415	0.287374
C106	C	1.372098	0.545415	0.787374
C107	C	0.872103	0.045414	0.391477
C108	C	1.372103	0.545414	0.891477
C109	C	0.824484	0.093010	0.443530
C110	C	1.324484	0.593010	0.943530
C111	C	0.776853	0.140605	0.391474
C112	C	1.276853	0.640605	0.891474
C113	C	0.776846	0.140601	0.287372
C114	C	1.276846	0.640601	0.787372
C115	C	0.776873	0.140609	0.608454
C116	C	1.276873	0.640609	1.108454
C117	C	0.776880	0.140614	0.712562
C118	C	1.276880	0.640614	1.212562
C119	C	0.872129	0.045422	0.712559
C120	C	1.372129	0.545422	1.212559
C121	C	0.872122	0.045419	0.608457
C122	C	1.372122	0.545419	1.108457
C123	C	0.824492	0.093015	0.556408
C124	C	1.324492	0.593015	1.056408
H125	H	0.183999	-0.024728	-0.000032
H126	H	0.683999	0.475272	0.499968
H127	H	0.713282	-0.103462	-0.000020
H128	H	1.213282	0.396538	0.499980
H129	H	0.738078	0.179356	0.433861
H130	H	1.238078	0.679356	0.933861
H131	H	0.910883	0.006660	0.433855
H132	H	1.410883	0.506660	0.933855
H133	H	0.738063	0.179355	0.244995
H134	H	1.238063	0.679355	0.744995
H135	H	0.020968	0.204211	-0.000046
H136	H	0.520968	0.704211	0.499954
H137	H	0.706740	-0.547478	-0.000056
H138	H	1.206740	-0.047478	0.499944
H139	H	0.944179	-0.134379	0.000013
H140	H	1.444179	0.365621	0.500013
N141	N	0.046099	-0.039979	-0.000015
N142	N	0.546099	0.460021	0.499985
N143	N	0.007363	-0.054779	0.069707
N144	N	0.507363	0.445221	0.569707
H145	H	-0.012757	-0.101073	0.069734
H146	H	0.487243	0.398927	0.569734
N147	N	0.158852	0.219460	-0.000047
N148	N	0.658852	0.719460	0.499953
N149	N	0.118730	0.275791	-0.000047
N150	N	0.618730	0.775791	0.499953
H151	H	0.138844	0.322088	-0.000044
H152	H	0.638844	0.822088	0.499956
N153	N	0.490100	-0.033417	0.000007
N154	N	0.990100	0.466583	0.500007
N155	N	0.425080	-0.034368	0.000011
N156	N	0.925080	0.465632	0.500011
H157	H	0.404950	-0.080657	0.000033
H158	H	0.904950	0.419343	0.500033
H159	H	0.937635	-0.578390	-0.000039
H160	H	1.437635	-0.078390	0.499961
H161	H	0.704794	-0.679592	-0.000075
H162	H	1.204794	-0.179592	0.499925
H163	H	0.738085	0.179365	0.566079
H164	H	1.238085	0.679365	1.066079
H165	H	0.942230	-0.266488	-0.000013
H166	H	1.442230	0.233512	0.499987
H167	H	0.910878	0.006659	0.244999
H168	H	1.410878	0.506659	0.744999
N169	N	0.948765	-0.719803	-0.000056
N170	N	1.448765	-0.219803	0.499944
N171	N	0.991478	-0.717384	0.069666
N172	N	1.491478	-0.217384	0.569666
H173	H	1.037004	-0.749787	0.069677
H174	H	1.537004	-0.249787	0.569677
N175	N	0.920804	-0.003167	0.555300
N176	N	1.420804	0.496833	1.055300
N177	N	0.963347	-0.045637	0.601781
N178	N	1.463347	0.454363	1.101781
H179	H	0.997741	-0.079941	0.564239
H180	H	1.497741	0.420059	1.064239
N181	N	0.920771	-0.003221	0.765701
N182	N	1.420771	0.496779	1.265701
N183	N	0.920003	-0.067752	0.754068
N184	N	1.420003	0.432248	1.254068
H185	H	0.954356	-0.102109	0.791596
H186	H	1.454356	0.397891	1.291596
N187	N	0.455673	0.223843	-0.000028
N188	N	0.955673	0.723843	0.499972
N189	N	0.480585	0.281131	-0.000036
N190	N	0.980585	0.781131	0.499964
H191	H	0.448179	0.326655	-0.000034
H192	H	0.948179	0.826655	0.499966
H193	H	0.597088	0.212713	-0.000049
H194	H	1.097088	0.712713	0.499951
H195	H	0.738104	0.179370	0.754938
H196	H	1.238104	0.679370	1.254938
H197	H	0.628010	-0.018178	-0.000020
H198	H	1.128010	0.481822	0.499980
H199	H	0.711342	-0.235581	-0.000025
H200	H	1.211342	0.264419	0.499975
