data_functionalizedCrystal
_audit_creation_method	'MofGen! by Chris Wilmer'
_symmetry_space_group_name_H-M	'P1'
_symmetry_Int_Tables_number	1
_symmetry_cell_setting	triclinic
loop_
_symmetry_equiv_pos_as_xyz
  x,y,z
_cell_length_a	16.992694
_cell_length_b	14.421503
_cell_length_c	16.992695
_cell_angle_alpha	89.995710
_cell_angle_beta	90.668223
_cell_angle_gamma	90.002529
loop_
_atom_site_label
_atom_site_type_symbol
_atom_site_fract_x
_atom_site_fract_y
_atom_site_fract_z
O1	O	1.050855	0.076996	0.166906
O2	O	1.300855	0.326996	0.416906
O3	O	1.550855	0.576996	0.666906
O4	O	1.800855	0.826996	0.916906
O5	O	0.822455	0.077024	0.165075
O6	O	1.072455	0.327024	0.415075
O7	O	1.322455	0.577024	0.665075
O8	O	1.572455	0.827024	0.915075
O9	O	0.935739	0.077003	0.051790
O10	O	1.185739	0.327003	0.301790
O11	O	1.435739	0.577003	0.551790
O12	O	1.685739	0.827003	0.801790
O13	O	0.937570	0.077017	0.280190
O14	O	1.187570	0.327017	0.530190
O15	O	1.437570	0.577017	0.780190
O16	O	1.687570	0.827017	1.030190
O17	O	0.935720	-0.077221	0.051807
O18	O	1.185720	0.172779	0.301807
O19	O	1.435720	0.422779	0.551807
O20	O	1.685720	0.672779	0.801807
O21	O	0.822436	-0.077200	0.165092
O22	O	1.072436	0.172800	0.415092
O23	O	1.322436	0.422800	0.665092
O24	O	1.572436	0.672800	0.915092
O25	O	1.050836	-0.077227	0.166923
O26	O	1.300836	0.172773	0.416923
O27	O	1.550836	0.422773	0.666923
O28	O	1.800836	0.672773	0.916923
Cu29	Cu	0.936634	-0.091295	0.166009
Cu30	Cu	1.186634	0.158705	0.416009
Cu31	Cu	1.436634	0.408705	0.666009
Cu32	Cu	1.686634	0.658705	0.916009
Cu33	Cu	0.936656	0.091092	0.165989
Cu34	Cu	1.186656	0.341092	0.415989
Cu35	Cu	1.436656	0.591092	0.665989
Cu36	Cu	1.686656	0.841092	0.915989
O37	O	0.937551	-0.077206	0.280207
O38	O	1.187551	0.172794	0.530207
O39	O	1.437551	0.422794	0.780207
O40	O	1.687551	0.672794	1.030207
C41	C	0.793085	-0.000085	0.162727
C42	C	1.043085	0.249915	0.412727
C43	C	1.293085	0.499915	0.662727
C44	C	1.543085	0.749915	0.912727
C45	C	0.705600	-0.000074	0.155699
C46	C	0.955600	0.249926	0.405699
C47	C	1.205600	0.499926	0.655699
C48	C	1.455600	0.749926	0.905699
N49	N	0.936624	-0.219577	0.166022
N50	N	1.186624	0.030423	0.416022
N51	N	1.436624	0.280423	0.666022
N52	N	1.686624	0.530423	0.916022
C53	C	0.659610	-0.000071	0.223517
C54	C	0.909610	0.249929	0.473517
C55	C	1.159610	0.499929	0.723517
C56	C	1.409610	0.749929	0.973517
C57	C	0.577409	-0.000084	0.216908
C58	C	0.827409	0.249916	0.466908
C59	C	1.077409	0.499916	0.716908
C60	C	1.327409	0.749916	0.966908
C61	C	0.541201	-0.000094	0.142480
C62	C	0.791201	0.249906	0.392480
C63	C	1.041201	0.499906	0.642480
C64	C	1.291201	0.749906	0.892480
C65	C	0.587198	-0.000101	0.074657
C66	C	0.837198	0.249899	0.324657
C67	C	1.087198	0.499899	0.574657
C68	C	1.337198	0.749899	0.824657
C69	C	0.669397	-0.000094	0.081267
C70	C	0.919397	0.249906	0.331267
C71	C	1.169397	0.499906	0.581267
C72	C	1.419397	0.749906	0.831267
C73	C	0.295886	-0.000121	0.115086
C74	C	0.545886	0.249879	0.365086
C75	C	0.795886	0.499879	0.615086
C76	C	1.045886	0.749879	0.865086
C77	C	0.213681	-0.000125	0.108481
C78	C	0.463681	0.249875	0.358481
C79	C	0.713681	0.499875	0.608481
C80	C	0.963681	0.749875	0.858481
C81	C	0.203898	-0.000110	0.250732
C82	C	0.453898	0.249890	0.500732
C83	C	0.703898	0.499890	0.750732
C84	C	0.953898	0.749890	1.000732
C85	C	0.286099	-0.000098	0.257336
C86	C	0.536099	0.249902	0.507336
C87	C	0.786099	0.499902	0.757336
C88	C	1.036099	0.749902	1.007336
C89	C	0.332089	-0.000109	0.189512
C90	C	0.582089	0.249891	0.439512
C91	C	0.832089	0.499891	0.689512
C92	C	1.082089	0.749891	0.939512
N93	N	0.457178	-0.000105	0.135723
N94	N	0.707178	0.249895	0.385723
N95	N	0.957178	0.499895	0.635723
N96	N	1.207178	0.749895	0.885723
N97	N	0.416110	-0.000105	0.196270
N98	N	0.666110	0.249895	0.446270
N99	N	0.916110	0.499895	0.696270
N100	N	1.166110	0.749895	0.946270
C101	C	0.884230	-0.469221	0.218379
C102	C	1.134230	-0.219221	0.468379
C103	C	1.384230	0.030779	0.718379
C104	C	1.634230	0.280779	0.968379
C105	C	0.956318	-0.531031	0.238115
C106	C	1.206318	-0.281031	0.488115
C107	C	1.456318	-0.031031	0.738115
C108	C	1.706318	0.218969	0.988115
C109	C	0.936642	-0.408738	0.166005
C110	C	1.186642	-0.158738	0.416005
C111	C	1.436642	0.091262	0.666005
C112	C	1.686642	0.341262	0.916005
C113	C	0.864574	-0.531022	0.146289
C114	C	1.114574	-0.281022	0.396289
C115	C	1.364574	-0.031022	0.646289
C116	C	1.614574	0.218978	0.896289
C117	C	0.936653	-0.591459	0.165989
C118	C	1.186653	-0.341459	0.415989
C119	C	1.436653	-0.091459	0.665989
C120	C	1.686653	0.158541	0.915989
C121	C	1.008768	-0.469187	0.185778
C122	C	1.258768	-0.219187	0.435778
C123	C	1.508768	0.030813	0.685778
C124	C	1.758768	0.280813	0.935778
C125	C	0.916975	-0.469173	0.093918
C126	C	1.166975	-0.219173	0.343918
C127	C	1.416975	0.030827	0.593918
C128	C	1.666975	0.280827	0.843918
C129	C	0.989113	-0.530955	0.113627
C130	C	1.239113	-0.280955	0.363627
C131	C	1.489113	-0.030955	0.613627
C132	C	1.739113	0.219045	0.863627
C133	C	0.936635	-0.303477	0.166016
C134	C	1.186635	-0.053477	0.416016
C135	C	1.436635	0.196523	0.666016
C136	C	1.686635	0.446523	0.916016
C137	C	0.936669	-0.696718	0.165978
C138	C	1.186669	-0.446718	0.415978
C139	C	1.436669	-0.196718	0.665978
C140	C	1.686669	0.053282	0.915978
C141	C	1.080205	-0.000117	0.169270
C142	C	1.330205	0.249883	0.419270
C143	C	1.580205	0.499883	0.669270
C144	C	1.830205	0.749883	0.919270
C145	C	1.167690	-0.000121	0.176299
C146	C	1.417690	0.249879	0.426299
C147	C	1.667690	0.499879	0.676299
C148	C	1.917690	0.749879	0.926299
C149	C	0.933374	-0.000109	0.022439
C150	C	1.183374	0.249891	0.272439
C151	C	1.433374	0.499891	0.522439
C152	C	1.683374	0.749891	0.772439
C153	C	0.926345	-0.000108	-0.065046
C154	C	1.176345	0.249892	0.184954
C155	C	1.426345	0.499892	0.434954
C156	C	1.676345	0.749892	0.684954
N157	N	0.936672	0.219373	0.165969
N158	N	1.186672	0.469373	0.415969
N159	N	1.436672	0.719373	0.665969
N160	N	1.686672	0.969373	0.915969
C161	C	0.994163	-0.000117	-0.111037
C162	C	1.244163	0.249883	0.138963
C163	C	1.494163	0.499883	0.388963
C164	C	1.744163	0.749883	0.638963
C165	C	0.987554	-0.000107	-0.193238
C166	C	1.237554	0.249893	0.056762
C167	C	1.487554	0.499893	0.306762
C168	C	1.737554	0.749893	0.556762
C169	C	0.913127	-0.000095	-0.229446
C170	C	1.163127	0.249905	0.020554
C171	C	1.413127	0.499905	0.270554
C172	C	1.663127	0.749905	0.520554
C173	C	0.845303	-0.000083	-0.183449
C174	C	1.095303	0.249917	0.066551
C175	C	1.345303	0.499917	0.316551
C176	C	1.595303	0.749917	0.566551
C177	C	0.851913	-0.000086	-0.101250
C178	C	1.101913	0.249914	0.148750
C179	C	1.351913	0.499914	0.398750
C180	C	1.601913	0.749914	0.648750
C181	C	0.885732	-0.000079	-0.474760
C182	C	1.135732	0.249921	-0.224760
C183	C	1.385732	0.499921	0.025240
C184	C	1.635732	0.749921	0.275240
C185	C	0.879127	-0.000079	-0.556966
C186	C	1.129127	0.249921	-0.306966
C187	C	1.379127	0.499921	-0.056966
C188	C	1.629127	0.749921	0.193034
C189	C	1.021379	-0.000101	-0.566749
C190	C	1.271379	0.249899	-0.316749
C191	C	1.521379	0.499899	-0.066749
C192	C	1.771379	0.749899	0.183251
C193	C	1.027982	-0.000109	-0.484547
C194	C	1.277982	0.249891	-0.234547
C195	C	1.527982	0.499891	0.015453
C196	C	1.777982	0.749891	0.265453
C197	C	0.960159	-0.000093	-0.438558
C198	C	1.210159	0.249907	-0.188558
C199	C	1.460159	0.499907	0.061442
C200	C	1.710159	0.749907	0.311442
N201	N	0.906369	-0.000088	-0.313468
N202	N	1.156369	0.249912	-0.063468
N203	N	1.406369	0.499912	0.186532
N204	N	1.656369	0.749912	0.436532
N205	N	0.966917	-0.000093	-0.354537
N206	N	1.216917	0.249907	-0.104537
N207	N	1.466917	0.499907	0.145463
N208	N	1.716917	0.749907	0.395463
C209	C	0.939917	-0.000093	0.309559
C210	C	1.189917	0.249907	0.559559
C211	C	1.439917	0.499907	0.809559
C212	C	1.689917	0.749907	1.059559
C213	C	0.946945	-0.000088	0.397044
C214	C	1.196945	0.249912	0.647044
C215	C	1.446945	0.499912	0.897044
C216	C	1.696945	0.749912	1.147044
H217	H	0.689084	-0.000062	0.284124
H218	H	0.939084	0.249938	0.534124
H219	H	1.189084	0.499938	0.784124
H220	H	1.439084	0.749938	1.034124
H221	H	0.557710	-0.000122	0.014056
H222	H	0.807710	0.249878	0.264056
H223	H	1.057710	0.499878	0.514056
H224	H	1.307710	0.749878	0.764056
F225	F	0.154947	-0.000100	0.322909
F226	F	0.404947	0.249900	0.572909
F227	F	0.654947	0.499900	0.822909
F228	F	0.904947	0.749900	1.072909
H229	H	1.042779	-0.000116	-0.230680
H230	H	1.292779	0.249884	0.019320
H231	H	1.542779	0.499884	0.269320
H232	H	1.792779	0.749884	0.519320
F233	F	1.047118	-0.566168	0.055727
F234	F	1.297118	-0.316168	0.305727
F235	F	1.547118	-0.066168	0.555727
F236	F	1.797118	0.183832	0.805727
H237	H	0.839957	-0.442115	0.262712
H238	H	1.089957	-0.192115	0.512712
H239	H	1.339957	0.057885	0.762712
H240	H	1.589957	0.307885	1.012712
H241	H	0.184203	-0.000132	0.047870
H242	H	0.434203	0.249868	0.297870
H243	H	0.684203	0.499868	0.547870
H244	H	0.934203	0.749868	0.797870
H245	H	0.972962	-0.558201	0.299071
H246	H	1.222962	-0.308201	0.549071
H247	H	1.472962	-0.058201	0.799071
H248	H	1.722962	0.191799	1.049071
F249	F	0.895192	-0.433629	0.014266
F250	F	1.145192	-0.183629	0.264266
F251	F	1.395192	0.066371	0.514266
F252	F	1.645192	0.316371	0.764266
H253	H	1.088589	-0.000119	-0.455073
H254	H	1.338589	0.249881	-0.205073
H255	H	1.588589	0.499881	0.044927
H256	H	1.838589	0.749881	0.294927
H257	H	1.076596	-0.000113	-0.604202
H258	H	1.326596	0.249887	-0.354202
H259	H	1.576596	0.499887	-0.104202
H260	H	1.826596	0.749887	0.145798
H261	H	0.803622	-0.558186	0.129620
H262	H	1.053622	-0.308186	0.379620
H263	H	1.303622	-0.058186	0.629620
H264	H	1.553622	0.191814	0.879620
F265	F	0.718344	-0.000101	0.009085
F266	F	0.968344	0.249899	0.259085
F267	F	1.218344	0.499899	0.509085
F268	F	1.468344	0.749899	0.759085
H269	H	0.315574	-0.000079	0.317942
H270	H	0.565574	0.249921	0.567942
H271	H	0.815574	0.499921	0.817942
H272	H	1.065574	0.749921	1.067942
F273	F	0.528465	-0.000076	0.289090
F274	F	0.778465	0.249924	0.539090
F275	F	1.028465	0.499924	0.789090
F276	F	1.278465	0.749924	1.039090
F277	F	0.766091	-0.000060	-0.221987
F278	F	1.016091	0.249940	0.028013
F279	F	1.266091	0.499940	0.278013
F280	F	1.516091	0.749940	0.528013
F281	F	0.813548	-0.000059	-0.425825
F282	F	1.063548	0.249941	-0.175825
F283	F	1.313548	0.499941	0.074175
F284	F	1.563548	0.749941	0.324175
H285	H	0.333322	-0.000131	0.059859
H286	H	0.583322	0.249869	0.309859
H287	H	0.833322	0.499869	0.559859
H288	H	1.083322	0.749869	0.809859
H289	H	1.069737	-0.442140	0.202520
H290	H	1.319737	-0.192140	0.452520
H291	H	1.569737	0.057860	0.702520
H292	H	1.819737	0.307860	0.952520
H293	H	1.054770	-0.000132	-0.081563
H294	H	1.304770	0.249868	0.168437
H295	H	1.554770	0.499868	0.418437
H296	H	1.804770	0.749868	0.668437
F297	F	0.799908	-0.000071	-0.595499
F298	F	1.049908	0.249929	-0.345499
F299	F	1.299908	0.499929	-0.095499
F300	F	1.549908	0.749929	0.154501
F301	F	0.779732	-0.000074	-0.052303
F302	F	1.029732	0.249926	0.197697
F303	F	1.279732	0.499926	0.447697
F304	F	1.529732	0.749926	0.697697
