data_functionalizedCrystal
_audit_creation_method	'MofGen! by Chris Wilmer'
_symmetry_space_group_name_H-M	'P1'
_symmetry_Int_Tables_number	1
_symmetry_cell_setting	triclinic
loop_
_symmetry_equiv_pos_as_xyz
  x,y,z
_cell_length_a	29.839134
_cell_length_b	29.839131
_cell_length_c	18.215399
_cell_angle_alpha	90.030873
_cell_angle_beta	90.031750
_cell_angle_gamma	90.034165
loop_
_atom_site_label
_atom_site_type_symbol
_atom_site_fract_x
_atom_site_fract_y
_atom_site_fract_z
Zn1	Zn	0.686753	-0.178945	0.416335
Zn2	Zn	0.686675	-0.254074	0.293262
Zn3	Zn	0.611626	-0.178949	0.293257
Zn4	Zn	0.611583	-0.254039	0.416262
O5	O	0.649159	-0.216502	0.354779
O6	O	0.749609	-0.188924	0.400042
O7	O	0.676705	-0.244125	0.190277
O8	O	0.621642	-0.116082	0.309611
O9	O	0.749552	-0.244121	0.309621
O10	O	0.676837	-0.116078	0.400037
O11	O	0.621566	-0.188932	0.190273
O12	O	0.548753	-0.188897	0.309540
O13	O	0.621569	-0.244061	0.519256
O14	O	0.548722	-0.244065	0.399912
O15	O	0.676796	-0.188890	0.519309
O16	O	0.676664	-0.316937	0.309550
O17	O	0.621494	-0.316911	0.399917
C18	C	0.532437	-0.216478	0.354718
C19	C	0.482502	-0.216479	0.354709
C20	C	0.125919	-0.187733	0.307819
C21	C	0.313592	-0.187721	0.307774
O22	O	0.337860	-0.163242	0.267837
N23	N	0.337057	-0.216487	0.354746
C24	C	0.313601	-0.245256	0.401737
O25	O	0.337866	-0.269719	0.441694
C26	C	0.125929	-0.245266	0.401785
C27	C	0.102466	-0.216501	0.354804
C28	C	0.102456	-0.158971	0.260842
C29	C	0.055540	-0.158976	0.260851
C30	C	0.032088	-0.187744	0.307836
C31	C	0.055551	-0.216506	0.354813
C32	C	0.102474	-0.274032	0.448778
C33	C	0.055553	-0.274031	0.448787
C34	C	0.032090	-0.245267	0.401806
C35	C	-0.014818	-0.245279	0.401807
N36	N	-0.038283	-0.216513	0.354834
C37	C	-0.014830	-0.187746	0.307849
C38	C	0.412132	-0.245249	0.401707
C39	C	0.459049	-0.245247	0.401694
C40	C	0.459037	-0.187711	0.307732
C41	C	0.412118	-0.187716	0.307742
C42	C	0.388666	-0.216483	0.354735
C43	C	-0.113356	-0.187759	0.307871
C44	C	-0.160275	-0.187768	0.307881
C45	C	-0.160259	-0.245302	0.401846
C46	C	-0.113343	-0.245295	0.401833
C47	C	-0.089893	-0.216520	0.354842
O48	O	-0.039114	-0.269742	0.441728
O49	O	-0.039103	-0.163279	0.267909
C50	C	0.172834	-0.187728	0.307810
C51	C	0.196297	-0.216491	0.354786
C52	C	0.172844	-0.245259	0.401771
C53	C	0.243215	-0.216489	0.354773
C54	C	0.266667	-0.187721	0.307788
C55	C	0.243202	-0.158955	0.260816
C56	C	0.196287	-0.158960	0.260825
C57	C	0.196310	-0.274024	0.448744
C58	C	0.243225	-0.274017	0.448731
C59	C	0.266678	-0.245249	0.401745
C60	C	0.649078	-0.333224	0.354742
C61	C	0.649084	-0.383159	0.354751
C62	C	0.677938	-0.692803	0.307793
C63	C	0.677994	-0.880476	0.307822
O64	O	0.702462	-0.904742	0.267869
N65	N	0.649252	-0.903944	0.354834
C66	C	0.620497	-0.880491	0.401846
O67	O	0.596055	-0.904758	0.441839
C68	C	0.620444	-0.692818	0.401821
C69	C	0.649184	-0.669353	0.354800
C70	C	0.706676	-0.669338	0.260777
C71	C	0.706660	-0.622422	0.260768
C72	C	0.677906	-0.598972	0.307774
C73	C	0.649168	-0.622438	0.354791
C74	C	0.591692	-0.669366	0.448836
C75	C	0.591682	-0.622445	0.448827
C76	C	0.620422	-0.598980	0.401806
C77	C	0.620399	-0.552072	0.401788
N78	N	0.649140	-0.528604	0.354776
C79	C	0.677894	-0.552054	0.307769
C80	C	0.620526	-0.979021	0.401855
C81	C	0.620539	-1.025939	0.401861
C82	C	0.678036	-1.025921	0.307837
C83	C	0.678021	-0.979003	0.307829
C84	C	0.649268	-0.955553	0.354843
C85	C	0.677858	-0.453528	0.307752
C86	C	0.677838	-0.406609	0.307745
C87	C	0.620343	-0.406631	0.401770
C88	C	0.620361	-0.453546	0.401775
C89	C	0.649122	-0.476994	0.354764
O90	O	0.595947	-0.527778	0.441726
O91	O	0.702339	-0.527779	0.267794
C92	C	0.677954	-0.739718	0.307803
C93	C	0.649216	-0.763184	0.354819
C94	C	0.620462	-0.739734	0.401826
C95	C	0.649229	-0.810102	0.354825
C96	C	0.677983	-0.833552	0.307818
C97	C	0.706724	-0.810084	0.260806
C98	C	0.706708	-0.763168	0.260796
C99	C	0.591721	-0.763202	0.448838
C100	C	0.591739	-0.810117	0.448843
C101	C	0.620492	-0.833567	0.401837
C102	C	0.766337	-0.216526	0.354840
C103	C	0.816272	-0.216536	0.354867
C104	C	0.649186	-0.216471	0.546732
C105	C	0.649198	-0.216458	0.628531
C106	C	0.649253	-0.099323	0.354832
C107	C	0.649293	-0.049389	0.354854
C108	C	0.649158	-0.216500	0.163573
C109	C	0.649233	-0.216387	0.081774
C110	C	0.677965	-0.187703	0.816754
C111	C	0.677970	-0.187690	0.893613
C112	C	0.620463	-0.245143	0.893545
C113	C	0.620456	-0.245153	0.816688
C114	C	0.649209	-0.216434	0.778294
C115	C	0.649222	-0.216411	0.932011
C116	C	0.649228	-0.216397	1.015344
C117	C	0.649203	-0.216447	0.694955
H118	H	-0.094268	-0.164326	0.269610
H119	H	0.597036	-0.268549	0.785373
H120	H	0.701242	-0.387505	0.269452
N121	N	0.484343	-0.156679	0.257068
H122	H	0.476201	-0.124591	0.268604
H123	H	0.476148	-0.163646	0.204481
N124	N	0.386842	-0.276284	0.452388
H125	H	0.367352	-0.297081	0.422421
H126	H	0.367426	-0.258028	0.486548
N127	N	0.589362	-0.478859	0.452485
H128	H	0.568560	-0.498358	0.422545
H129	H	0.571173	-0.456854	0.482250
N130	N	-0.185563	-0.276328	0.452517
H131	H	-0.205005	-0.258093	0.486672
H132	H	-0.163556	-0.294546	0.482231
H133	H	0.701279	-0.472614	0.269472
N134	N	0.589336	-0.381332	0.452475
H135	H	0.571131	-0.403314	0.482266
H136	H	0.568550	-0.361894	0.422480
N137	N	0.589451	-0.276110	0.934968
H138	H	0.607692	-0.296928	0.966861
H139	H	0.571233	-0.294283	0.898901
N140	N	0.708979	-0.156730	0.775345
H141	H	0.704615	-0.161098	0.720819
H142	H	0.741057	-0.163732	0.788804
N143	N	0.030239	-0.127940	0.210196
H144	H	-0.003043	-0.132300	0.217328
H145	H	0.038413	-0.134885	0.157611
H146	H	0.177219	-0.297451	0.487006
H147	H	0.121546	-0.135542	0.222581
N148	N	0.127767	-0.305055	0.499462
H149	H	0.147255	-0.286821	0.533617
H150	H	0.147185	-0.325851	0.469453
N151	N	0.030258	-0.305059	0.499474
H152	H	0.052244	-0.323279	0.529230
H153	H	0.010770	-0.325830	0.469463
H154	H	0.730064	-0.603319	0.222482
N155	N	0.737710	-0.737861	0.210088
H156	H	0.730756	-0.746056	0.157495
H157	H	0.769793	-0.746008	0.221649
N158	N	-0.185582	-0.156744	0.257205
H159	H	-0.163602	-0.138519	0.227441
H160	H	-0.205026	-0.135978	0.287223
H161	H	0.730135	-0.829185	0.222529
H162	H	0.393018	-0.164292	0.269489
H163	H	0.568331	-0.829219	0.487132
H164	H	0.478149	-0.268675	0.439943
N165	N	0.737693	-0.694626	0.210074
H166	H	0.755893	-0.672634	0.180293
H167	H	0.719423	-0.714119	0.175981
N168	N	-0.088034	-0.276323	0.452494
H169	H	-0.110012	-0.294549	0.482257
H170	H	-0.068547	-0.258060	0.486604
N171	N	0.170984	-0.127936	0.210152
H172	H	0.192966	-0.109714	0.180390
H173	H	0.151541	-0.107168	0.240169
H174	H	0.701385	-0.164294	0.924923
H175	H	0.262306	-0.135533	0.222556
H176	H	0.701424	-0.959900	0.269541
H177	H	0.262324	-0.297445	0.486987
H178	H	0.701449	-1.045022	0.269563
N179	N	0.589533	-1.051242	0.452567
H180	H	0.596490	-1.043049	0.505160
H181	H	0.593913	-1.084516	0.445382
N182	N	0.589510	-0.953733	0.452563
H183	H	0.571305	-0.975723	0.482339
H184	H	0.568724	-0.934297	0.422564
H185	H	0.568286	-0.688464	0.487122
H186	H	0.568268	-0.603355	0.487114
H187	H	0.568306	-0.744112	0.487118
