data_functionalizedCrystal
_audit_creation_method	'MofGen! by Chris Wilmer'
_symmetry_space_group_name_H-M	'P1'
_symmetry_Int_Tables_number	1
_symmetry_cell_setting	triclinic
loop_
_symmetry_equiv_pos_as_xyz
  x,y,z
_cell_length_a	28.938199
_cell_length_b	28.937346
_cell_length_c	28.934044
_cell_angle_alpha	60.005004
_cell_angle_beta	60.009897
_cell_angle_gamma	59.994060
loop_
_atom_site_label
_atom_site_type_symbol
_atom_site_fract_x
_atom_site_fract_y
_atom_site_fract_z
O1	O	0.064043	-0.675186	0.564597
O2	O	0.564043	-0.175186	1.064597
O3	O	0.024124	-0.525682	0.454913
O4	O	0.524124	-0.025682	0.954913
O5	O	0.118795	-0.620275	0.454833
O6	O	0.618795	-0.120275	0.954833
O7	O	-0.030629	-0.580593	0.564678
O8	O	0.469371	-0.080593	1.064678
O9	O	0.150204	-0.588870	0.486157
O10	O	0.650204	-0.088870	0.986157
O11	O	0.055533	-0.494276	0.486238
O12	O	0.555533	0.005724	0.986238
O13	O	0.095452	-0.643780	0.595921
O14	O	0.595452	-0.143780	1.095921
Cu15	Cu	0.078360	-0.566161	0.543940
Cu16	Cu	0.578360	-0.066161	1.043940
Cu17	Cu	0.041215	-0.603301	0.506895
Cu18	Cu	0.541215	-0.103301	1.006895
O19	O	0.000780	-0.549187	0.596002
O20	O	0.500780	-0.049187	1.096002
N21	N	0.104487	-0.540042	0.569998
N22	N	0.604487	-0.040042	1.069998
N23	N	0.015094	-0.629425	0.480837
N24	N	0.515094	-0.129425	0.980837
C25	C	0.165467	-0.323909	0.630915
C26	C	0.665467	0.176091	1.130915
C27	C	0.165587	-0.479117	0.786068
C28	C	0.665587	0.020883	1.286068
C29	C	0.165481	-0.479095	0.630906
C30	C	0.665481	0.020905	1.130906
C31	C	0.320696	-0.479083	0.630835
C32	C	0.820696	0.020917	1.130835
C33	C	0.182557	-0.375118	0.647971
C34	C	0.682557	0.124882	1.147971
C35	C	0.182626	-0.462038	0.734858
C36	C	0.682626	0.037962	1.234858
C37	C	0.269485	-0.462018	0.647928
C38	C	0.769485	0.037982	1.147928
C39	C	0.182566	-0.462025	0.647966
C40	C	0.682566	0.037975	1.147966
C41	C	0.143714	-0.258726	0.609206
C42	C	0.643714	0.241274	1.109206
C43	C	0.143738	-0.500820	0.609192
C44	C	0.643738	-0.000820	1.109192
C45	C	0.204309	-0.440300	0.669680
C46	C	0.704309	0.059700	1.169680
C47	C	0.415481	-0.462740	0.580919
C48	C	0.915481	0.037260	1.080919
C49	C	0.474732	-0.482485	0.561145
C50	C	0.974732	0.017515	1.061145
C51	C	0.474757	-0.578356	0.597704
C52	C	0.974757	-0.078356	1.097704
C53	C	0.415508	-0.558609	0.617479
C54	C	0.915508	-0.058609	1.117479
C55	C	0.157989	-0.229089	0.550957
C56	C	0.657989	0.270911	1.050957
C57	C	0.138212	-0.169834	0.531225
C58	C	0.638212	0.330166	1.031225
C59	C	0.089890	-0.169857	0.627992
C60	C	0.589890	0.330143	1.127992
C61	C	0.109667	-0.229112	0.647725
C62	C	0.609667	0.270888	1.147725
C63	C	0.085482	-0.486515	0.623535
C64	C	0.585482	0.013485	1.123535
C65	C	0.065722	-0.506265	0.603789
C66	C	0.565722	-0.006265	1.103789
C67	C	0.162467	-0.554625	0.555370
C68	C	0.662467	-0.054625	1.055370
C69	C	0.182230	-0.534875	0.575110
C70	C	0.682230	-0.034875	1.075110
C71	C	0.085661	-0.486557	0.880902
C72	C	0.585661	0.013443	1.380902
C73	C	0.065952	-0.506323	0.940155
C74	C	0.565952	-0.006323	1.440155
C75	C	0.162734	-0.554693	0.940102
C76	C	0.662734	-0.054693	1.440102
C77	C	0.182441	-0.534928	0.880847
C78	C	0.682441	-0.034928	1.380847
C79	C	0.143904	-0.500859	0.851249
C80	C	0.643904	-0.000859	1.351249
C81	C	0.385871	-0.500801	0.609083
C82	C	0.885871	-0.000801	1.109083
C83	C	-0.110907	-0.668480	0.441278
C84	C	0.389093	-0.168480	0.941278
C85	C	-0.024049	-0.668588	0.441475
C86	C	0.475951	-0.168588	0.941475
C87	C	-0.045729	-0.690282	0.419668
C88	C	0.454271	-0.190282	0.919668
C89	C	-0.062146	-0.785032	0.469507
C90	C	0.437854	-0.285032	0.969507
C91	C	-0.042446	-0.844287	0.489286
C92	C	0.457554	-0.344287	0.989286
C93	C	0.053426	-0.844399	0.452899
C94	C	0.553426	-0.344399	0.952899
C95	C	0.033725	-0.785144	0.433120
C96	C	0.533725	-0.285144	0.933120
C97	C	-0.140617	-0.682751	0.499509
C98	C	0.359383	-0.182751	0.999509
C99	C	-0.199867	-0.662928	0.519152
C100	C	0.300133	-0.162928	1.019152
C101	C	-0.199694	-0.614571	0.422330
C102	C	0.300306	-0.114571	0.922330
C103	C	-0.140443	-0.634393	0.402687
C104	C	0.359557	-0.134393	0.902687
C105	C	-0.038320	-0.610337	0.427144
C106	C	0.461680	-0.110337	0.927144
C107	C	-0.018610	-0.590621	0.446974
C108	C	0.481390	-0.090621	0.946974
C109	C	0.029642	-0.687402	0.495454
C110	C	0.529642	-0.187402	0.995454
C111	C	0.009933	-0.707121	0.475630
C112	C	0.509933	-0.207121	0.975630
C113	C	-0.038148	-0.610347	0.324832
C114	C	0.461852	-0.110347	0.824832
C115	C	-0.018301	-0.590634	0.265579
C116	C	0.481699	-0.090634	0.765579
C117	C	0.030035	-0.687421	0.265643
C118	C	0.530035	-0.187421	0.765643
C119	C	0.010190	-0.707133	0.324897
C120	C	0.510190	-0.207133	0.824897
C121	C	-0.023903	-0.668595	0.354491
C122	C	0.476097	-0.168595	0.854491
C123	C	-0.024062	-0.755463	0.441426
C124	C	0.475938	-0.255463	0.941426
N125	N	0.503527	-0.540005	0.569810
N126	N	1.003527	-0.040005	1.069810
O127	O	0.684453	-0.545211	0.434650
O128	O	1.184453	-0.045211	0.934650
O129	O	0.684643	-0.655237	0.584005
O130	O	1.184643	-0.155237	1.084005
O131	O	0.684567	-0.654986	0.489282
O132	O	1.184567	-0.154986	0.989282
O133	O	0.684529	-0.545462	0.529373
O134	O	1.184529	-0.045462	1.029373
O135	O	0.590438	-0.623674	0.520735
O136	O	1.090438	-0.123674	1.020735
O137	O	0.590513	-0.623924	0.615457
O138	O	1.090513	-0.123924	1.115457
O139	O	0.590323	-0.513899	0.466102
O140	O	1.090323	-0.013899	0.966102
Cu141	Cu	0.581823	-0.566053	0.543652
Cu142	Cu	1.081823	-0.066053	1.043652
Cu143	Cu	0.693143	-0.603083	0.506456
Cu144	Cu	1.193143	-0.103083	1.006456
O145	O	0.590399	-0.514149	0.560825
O146	O	1.090399	-0.014149	1.060825
N147	N	0.771439	-0.629131	0.480292
N148	N	1.271439	-0.129131	0.980292
N149	N	0.104456	-0.141061	0.570015
N150	N	0.604456	0.358939	1.070015
O151	O	-0.030629	0.039964	0.564688
O152	O	0.469371	0.539964	1.064688
O153	O	0.118732	0.039984	0.454661
O154	O	0.618732	0.539984	0.954661
O155	O	0.023980	0.039958	0.454946
O156	O	0.523980	0.539958	0.954946
O157	O	0.064123	0.039990	0.564403
O158	O	0.564123	0.539990	1.064403
O159	O	0.055392	-0.054179	0.486321
O160	O	0.555392	0.445821	0.986321
O161	O	0.150144	-0.054153	0.486036
O162	O	0.650144	0.445847	0.986036
O163	O	0.000784	-0.054173	0.596063
O164	O	0.500784	0.445827	1.096063
Cu165	Cu	0.078332	-0.062759	0.543914
Cu166	Cu	0.578332	0.437241	1.043914
Cu167	Cu	0.041183	0.048570	0.506810
Cu168	Cu	0.541183	0.548570	1.006810
O169	O	0.095535	-0.054147	0.595778
O170	O	0.595535	0.445853	1.095778
N171	N	0.015053	0.126872	0.480710
N172	N	0.515053	0.626872	0.980710
N173	N	0.104760	-0.540096	0.968910
N174	N	0.604760	-0.040096	1.468910
O175	O	0.099447	-0.675167	1.149923
O176	O	0.599447	-0.175167	1.649923
O177	O	-0.010552	-0.525757	1.149951
O178	O	0.489448	-0.025757	1.649951
O179	O	-0.010297	-0.620493	1.149918
O180	O	0.489703	-0.120493	1.649918
O181	O	0.099192	-0.580431	1.149956
O182	O	0.599192	-0.080431	1.649956
O183	O	0.021064	-0.589100	1.055785
O184	O	0.521064	-0.089100	1.555785
O185	O	0.020809	-0.494365	1.055818
O186	O	0.520809	0.005635	1.555818
O187	O	0.130808	-0.643774	1.055790
O188	O	0.630808	-0.143774	1.555790
Cu189	Cu	0.078672	-0.566203	1.047209
Cu190	Cu	0.578672	-0.066203	1.547209
Cu191	Cu	0.041584	-0.603328	1.158532
Cu192	Cu	0.541584	-0.103328	1.658532
O193	O	0.130553	-0.549038	1.055823
O194	O	0.630553	-0.049038	1.555823
N195	N	0.015495	-0.629442	1.236831
N196	N	0.515495	-0.129442	1.736831
C197	C	0.036087	-0.491140	0.455465
C198	C	0.536087	0.008860	0.955465
C199	C	0.153325	-0.608283	0.455364
C200	C	0.653325	-0.108283	0.955364
C201	C	0.083488	-0.678322	0.595370
C202	C	0.583488	-0.178322	1.095370
C203	C	-0.033750	-0.561180	0.595470
C204	C	0.466250	-0.061180	1.095470
C205	C	0.637601	-0.654732	0.618548
C206	C	1.137601	-0.154732	1.118548
C207	C	0.637509	-0.654422	0.501245
C208	C	1.137509	-0.154422	1.001245
C209	C	0.637362	-0.514403	0.431560
C210	C	1.137362	-0.014403	0.931560
C211	C	0.637458	-0.514713	0.548862
C212	C	1.137458	-0.014713	1.048862
C213	C	0.153215	-0.006966	0.455158
C214	C	0.653215	0.493034	0.955158
C215	C	0.035916	-0.007114	0.455550
C216	C	0.535916	0.492886	0.955550
C217	C	-0.033739	-0.007106	0.595527
C218	C	0.466261	0.492894	1.095527
C219	C	0.083600	-0.007076	0.595174
C220	C	0.583600	0.492924	1.095174
C221	C	-0.010020	-0.491238	1.102888
C222	C	0.489980	0.008762	1.602888
C223	C	-0.009698	-0.608550	1.102828
C224	C	0.490302	-0.108550	1.602828
C225	C	0.130276	-0.678293	1.102853
C226	C	0.630276	-0.178293	1.602853
C227	C	0.129961	-0.560974	1.102892
C228	C	0.629961	-0.060974	1.602892
H229	H	0.054276	-0.458811	0.856808
H230	H	0.554276	0.041189	1.356808
O231	O	-0.050769	-0.618760	1.102867
O232	O	0.449231	-0.118760	1.602867
C233	C	-0.145028	-0.624001	1.151532
C234	C	0.354972	-0.124001	1.651532
C235	C	-0.098559	-0.612436	1.151564
C236	C	0.401441	-0.112436	1.651564
H237	H	-0.183682	-0.618880	1.190893
H238	H	0.316318	-0.118880	1.690893
H239	H	-0.128469	-0.668980	1.151543
H240	H	0.371531	-0.168980	1.651543
H241	H	-0.157347	-0.592661	1.112106
H242	H	0.342653	-0.092661	1.612106
H243	H	-0.086220	-0.643740	1.190983
H244	H	0.413780	-0.143740	1.690983
H245	H	-0.115144	-0.567441	1.151523
H246	H	0.384856	-0.067441	1.651523
O247	O	0.637550	-0.695542	0.491100
O248	O	1.137550	-0.195542	0.991100
C249	C	0.637602	-0.790921	0.528122
C250	C	1.137602	-0.290921	1.028122
C251	C	0.637569	-0.744409	0.539681
C252	C	1.137569	-0.244409	1.039681
H253	H	0.637605	-0.830437	0.567396
H254	H	1.137605	-0.330437	1.067396
H255	H	0.676983	-0.801512	0.491073
H256	H	1.176983	-0.301512	0.991073
H257	H	0.598197	-0.775229	0.517348
H258	H	1.098197	-0.275229	1.017348
H259	H	0.676947	-0.760062	0.550480
H260	H	1.176947	-0.260062	1.050480
H261	H	0.598161	-0.733825	0.576715
H262	H	1.098161	-0.233825	1.076715
O263	O	0.171069	-0.550793	1.102821
O264	O	0.671069	-0.050793	1.602821
C265	C	0.265296	-0.545464	1.054037
C266	C	0.765296	-0.045464	1.554037
C267	C	0.218795	-0.557021	1.054054
C268	C	0.718795	-0.057021	1.554054
H269	H	0.303889	-0.550484	1.014607
H270	H	0.803889	-0.050484	1.514607
H271	H	0.277726	-0.576814	1.093401
H272	H	0.777726	-0.076814	1.593401
H273	H	0.248679	-0.500495	1.054075
H274	H	0.748679	-0.000495	1.554075
H275	H	0.235373	-0.601975	1.053996
H276	H	0.735373	-0.101975	1.553996
H277	H	0.206372	-0.525637	1.014693
H278	H	0.706372	-0.025637	1.514693
O279	O	0.025586	-0.007165	0.414600
O280	O	0.525586	0.492835	0.914600
C281	C	-0.041680	-0.007191	0.388745
C282	C	0.458320	0.492809	0.888745
C283	C	-0.030057	-0.007135	0.435171
C284	C	0.469943	0.492865	0.935171
H285	H	-0.086670	-0.007154	0.405355
H286	H	0.413330	0.492846	0.905355
H287	H	-0.010375	-0.046604	0.376391
H288	H	0.489625	0.453396	0.876391
H289	H	-0.036606	0.032189	0.350099
H290	H	0.463394	0.532189	0.850099
H291	H	-0.035137	-0.046488	0.473847
H292	H	0.464863	0.453512	0.973847
H293	H	-0.061359	0.032304	0.447476
H294	H	0.438641	0.532304	0.947476
H295	H	0.229667	-0.546519	0.563426
H296	H	0.729667	-0.046519	1.063426
O297	O	0.171530	-0.729440	1.102743
O298	O	0.671530	-0.229440	1.602743
C299	C	0.265936	-0.779984	1.053985
C300	C	0.765936	-0.279984	1.553985
C301	C	0.219259	-0.722026	1.054033
C302	C	0.719259	-0.222026	1.554033
H303	H	0.304540	-0.774008	1.014614
H304	H	0.804540	-0.274008	1.514614
H305	H	0.249581	-0.808537	1.053934
H306	H	0.749581	-0.308537	1.553934
H307	H	0.278254	-0.800313	1.093401
H308	H	0.778254	-0.300313	1.593401
H309	H	0.206921	-0.701649	1.014624
H310	H	0.706921	-0.201649	1.514624
H311	H	0.235639	-0.693514	1.054114
H312	H	0.735639	-0.193514	1.554114
H313	H	0.194117	-0.582425	0.964198
H314	H	0.694117	-0.082425	1.464198
O315	O	0.009354	-0.492346	0.968868
O316	O	0.509354	0.007654	1.468868
C317	C	-0.084557	-0.442300	0.962660
C318	C	0.415443	0.057700	1.462660
C319	C	-0.020475	-0.458072	0.930073
C320	C	0.479525	0.041928	1.430073
H321	H	-0.108693	-0.414596	0.931309
H322	H	0.391307	0.085404	1.431309
H323	H	-0.096236	-0.418148	0.990389
H324	H	0.403764	0.081852	1.490389
H325	H	-0.096183	-0.482519	0.990415
H326	H	0.403817	0.017481	1.490415
H327	H	-0.008804	-0.417882	0.902288
H328	H	0.491196	0.082118	1.402288
H329	H	-0.008831	-0.482245	0.902380
H330	H	0.491169	0.017755	1.402380
H331	H	0.229870	-0.546579	0.856706
H332	H	0.729870	-0.046579	1.356706
O333	O	0.637642	-0.695997	0.669695
O334	O	1.137642	-0.195997	1.169695
C335	C	0.637787	-0.791457	0.727651
C336	C	1.137787	-0.291457	1.227651
C337	C	0.637725	-0.744769	0.669707
C338	C	1.137725	-0.244769	1.169707
H339	H	0.637866	-0.830904	0.727675
H340	H	1.137866	-0.330904	1.227675
H341	H	0.598400	-0.775952	0.762254
H342	H	1.098400	-0.275952	1.262254
H343	H	0.677186	-0.802088	0.735908
H344	H	1.177186	-0.302088	1.235908
H345	H	0.598352	-0.734117	0.661396
H346	H	1.098352	-0.234117	1.161396
H347	H	0.677138	-0.760298	0.635135
H348	H	1.177138	-0.260298	1.135135
H349	H	-0.076633	-0.007113	0.630069
H350	H	0.423367	0.492887	1.130069
H351	H	0.637450	-0.480310	0.557440
H352	H	1.137450	0.019690	1.057440
H353	H	0.196022	-0.006699	0.420530
H354	H	0.696022	0.493301	0.920530
H355	H	0.092195	-0.007066	0.629560
H356	H	0.592195	0.492934	1.129560
O357	O	-0.228754	-0.676694	0.575717
O358	O	0.271246	-0.176694	1.075717
C359	C	-0.295769	-0.642583	0.654109
C360	C	0.204231	-0.142583	1.154109
C361	C	-0.263082	-0.626912	0.590047
C362	C	0.236918	-0.126912	1.090047
H363	H	-0.323540	-0.602344	0.665713
H364	H	0.176460	-0.102344	1.165713
H365	H	-0.264503	-0.670324	0.678344
H366	H	0.235497	-0.170324	1.178344
H367	H	-0.323492	-0.666688	0.665691
H368	H	0.176508	-0.166688	1.165691
H369	H	-0.235359	-0.602788	0.578413
H370	H	0.264641	-0.102788	1.078413
H371	H	-0.294378	-0.599198	0.565848
H372	H	0.205622	-0.099198	1.065848
H373	H	0.637300	-0.479859	0.388668
H374	H	1.137300	0.020141	0.888668
O375	O	0.048014	-0.453417	0.656611
O376	O	0.548014	0.046583	1.156611
C377	C	-0.050033	-0.407555	0.702574
C378	C	0.449967	0.092445	1.202574
C379	C	-0.007662	-0.445033	0.665099
C380	C	0.492338	0.054967	1.165099
H381	H	-0.095056	-0.400775	0.709459
H382	H	0.404944	0.099225	1.209459
H383	H	-0.043263	-0.364908	0.680874
H384	H	0.456737	0.135092	1.180874
H385	H	-0.043143	-0.429272	0.745171
H386	H	0.456857	0.070728	1.245171
H387	H	-0.014526	-0.423366	0.622496
H388	H	0.485474	0.076634	1.122496
H389	H	-0.014442	-0.487678	0.686844
H390	H	0.485558	0.012322	1.186844
O391	O	-0.051152	-0.440000	1.102822
O392	O	0.448848	0.060000	1.602822
C393	C	-0.078507	-0.339308	1.054056
C394	C	0.421493	0.160692	1.554056
C395	C	-0.031873	-0.397296	1.054068
C396	C	0.468127	0.102704	1.554068
H397	H	-0.062941	-0.304768	1.014637
H398	H	0.437059	0.195232	1.514637
H399	H	-0.089187	-0.330977	1.093431
H400	H	0.410813	0.169023	1.593431
H401	H	-0.117937	-0.339256	1.054075
H402	H	0.382063	0.160744	1.554075
H403	H	0.007587	-0.397390	1.054029
H404	H	0.507587	0.102610	1.554029
H405	H	-0.021241	-0.405604	1.014696
H406	H	0.478759	0.094396	1.514696
O407	O	0.009137	-0.492305	0.617623
O408	O	0.509137	0.007695	1.117623
C409	C	-0.069354	-0.446737	0.583627
C410	C	0.430646	0.053263	1.083627
C411	C	-0.005268	-0.462500	0.567881
C412	C	0.494732	0.037500	1.067881
H413	H	-0.081019	-0.422648	0.543420
H414	H	0.418981	0.077352	1.043420
H415	H	-0.093499	-0.418978	0.611355
H416	H	0.406501	0.081022	1.111355
H417	H	-0.080982	-0.486958	0.607769
H418	H	0.419018	0.013042	1.107769
H419	H	0.006412	-0.422311	0.543719
H420	H	0.506412	0.077689	1.043719
H421	H	0.018841	-0.490281	0.540181
H422	H	0.518841	0.009719	1.040181
H423	H	0.193817	-0.582360	0.527624
H424	H	0.693817	-0.082360	1.027624
H425	H	0.391402	-0.589605	0.640414
H426	H	0.891402	-0.089605	1.140414
O427	O	0.095866	-0.257859	0.704317
O428	O	0.595866	0.242141	1.204317
C429	C	0.100409	-0.275926	0.793033
C430	C	0.600409	0.224074	1.293033
C431	C	0.116089	-0.243353	0.728945
C432	C	0.616089	0.256647	1.228945
H433	H	0.116742	-0.264201	0.812966
H434	H	0.616742	0.235799	1.312966
H435	H	0.120401	-0.323375	0.800581
H436	H	0.620401	0.176625	1.300581
H437	H	0.052435	-0.264285	0.813007
H438	H	0.552435	0.235715	1.313007
H439	H	0.164055	-0.254947	0.708929
H440	H	0.664055	0.245053	1.208929
H441	H	0.096057	-0.195912	0.721438
H442	H	0.596057	0.304088	1.221438
O443	O	0.503458	-0.634530	0.605924
O444	O	1.003458	-0.134530	1.105924
C445	C	0.497235	-0.727534	0.644238
C446	C	0.997235	-0.227534	1.144238
C447	C	0.464658	-0.663933	0.634980
C448	C	0.964658	-0.163933	1.134980
H449	H	0.465879	-0.751323	0.667719
H450	H	0.965879	-0.251323	1.167719
H451	H	0.524983	-0.744252	0.670303
H452	H	1.024983	-0.244252	1.170303
H453	H	0.524968	-0.734107	0.601502
H454	H	1.024968	-0.234107	1.101502
H455	H	0.436894	-0.657311	0.677689
H456	H	0.936894	-0.157311	1.177689
H457	H	0.436945	-0.647247	0.608888
H458	H	0.936945	-0.147247	1.108888
O459	O	0.503473	-0.445477	0.533698
O460	O	1.003473	0.054523	1.033698
C461	C	0.521528	-0.363320	0.453850
C462	C	1.021528	0.136680	0.953850
C463	C	0.488953	-0.405198	0.484873
C464	C	0.988953	0.094802	0.984873
H465	H	0.509791	-0.330738	0.414375
H466	H	1.009791	0.169262	0.914375
H467	H	0.568973	-0.387331	0.441112
H468	H	1.068973	0.112669	0.941112
H469	H	0.509905	-0.340866	0.483123
H470	H	1.009905	0.159134	0.983123
H471	H	0.500528	-0.427664	0.455632
H472	H	1.000528	0.072336	0.955632
H473	H	0.441516	-0.381157	0.497620
H474	H	0.941516	0.118843	0.997620
O475	O	0.386665	-0.406576	0.572693
O476	O	0.886665	0.093424	1.072693
C477	C	0.319705	-0.322406	0.531263
C478	C	0.819705	0.177594	1.031263
C479	C	0.352310	-0.386005	0.540527
C480	C	0.852310	0.113995	1.040527
H481	H	0.291912	-0.305757	0.505267
H482	H	0.791912	0.194243	1.005267
H483	H	0.351023	-0.298562	0.507706
H484	H	0.851023	0.201438	1.007706
H485	H	0.292011	-0.315824	0.573998
H486	H	0.792011	0.184176	1.073998
H487	H	0.380005	-0.392639	0.497817
H488	H	0.880005	0.107361	0.997817
H489	H	0.320961	-0.409817	0.564110
H490	H	0.820961	0.090183	1.064110
H491	H	0.185713	-0.253197	0.519589
H492	H	0.685713	0.246803	1.019589
H493	H	0.092017	-0.721269	0.629819
H494	H	0.592017	-0.221269	1.129819
H495	H	0.149834	-0.145702	0.483792
H496	H	0.649834	0.354298	0.983792
H497	H	-0.029909	-0.543201	0.241439
H498	H	0.470091	-0.043201	0.741439
O499	O	-0.071231	-0.572831	0.353491
O500	O	0.428769	-0.072831	0.853491
C501	C	-0.117089	-0.474750	0.347174
C502	C	0.382911	0.025250	0.847174
C503	C	-0.079616	-0.517171	0.314648
C504	C	0.420384	-0.017171	0.814648
H505	H	-0.123890	-0.429740	0.315783
H506	H	0.376110	0.070260	0.815783
H507	H	-0.095434	-0.481562	0.374963
H508	H	0.404566	0.018438	0.874963
H509	H	-0.159721	-0.481549	0.374863
H510	H	0.340279	0.018451	0.874863
H511	H	-0.036978	-0.510397	0.286928
H512	H	0.463022	-0.010397	0.786928
H513	H	-0.101316	-0.510348	0.286895
H514	H	0.398684	-0.010348	0.786895
H515	H	0.062174	-0.145744	0.659359
H516	H	0.562174	0.354256	1.159359
O517	O	0.204480	-0.618375	0.414159
O518	O	0.704480	-0.118375	0.914159
C519	C	0.255050	-0.623428	0.319810
C520	C	0.755050	-0.123428	0.819810
C521	C	0.197083	-0.611998	0.366431
C522	C	0.697083	-0.111998	0.866431
H523	H	0.249088	-0.618265	0.281207
H524	H	0.749088	-0.118265	0.781207
H525	H	0.283565	-0.668393	0.336237
H526	H	0.783565	-0.168393	0.836237
H527	H	0.275410	-0.592047	0.307460
H528	H	0.775410	-0.092047	0.807460
H529	H	0.176674	-0.643343	0.378802
H530	H	0.676674	-0.143343	0.878802
H531	H	0.168609	-0.567017	0.349979
H532	H	0.668609	-0.067017	0.849979
O533	O	0.025959	-0.439955	0.414294
O534	O	0.525959	0.060045	0.914294
C535	C	0.020700	-0.389283	0.320020
C536	C	0.520700	0.110717	0.820020
C537	C	0.032197	-0.447286	0.366591
C538	C	0.532197	0.052714	0.866591
H539	H	0.025727	-0.395188	0.281445
H540	H	0.525727	0.104812	0.781445
H541	H	0.052073	-0.368874	0.307584
H542	H	0.552073	0.131126	0.807584
H543	H	-0.024256	-0.360836	0.336573
H544	H	0.475744	0.139164	0.836573
H545	H	0.077136	-0.475776	0.350078
H546	H	0.577136	0.024224	0.850078
H547	H	0.000789	-0.467649	0.379020
H548	H	0.500789	0.032351	0.879020
O549	O	0.063078	-0.724914	0.236963
O550	O	0.563078	-0.224914	0.736963
C551	C	0.070639	-0.801535	0.218782
C552	C	0.570639	-0.301535	0.718782
C553	C	0.033163	-0.759112	0.251306
C554	C	0.533163	-0.259112	0.751306
H555	H	0.046463	-0.829187	0.230357
H556	H	0.546463	-0.329187	0.730357
H557	H	0.110795	-0.829359	0.230534
H558	H	0.610795	-0.329359	0.730534
H559	H	0.082394	-0.777434	0.171340
H560	H	0.582394	-0.277434	0.671340
H561	H	0.021365	-0.783167	0.298755
H562	H	0.521365	-0.283167	0.798755
H563	H	-0.006966	-0.731289	0.239507
H564	H	0.493034	-0.231289	0.739507
O565	O	-0.032537	-0.534039	0.433146
O566	O	0.467463	-0.034039	0.933146
C567	C	-0.078122	-0.455547	0.467141
C568	C	0.421878	0.044453	0.967141
C569	C	-0.062398	-0.519630	0.482884
C570	C	0.437602	-0.019630	0.982884
H571	H	-0.102256	-0.443879	0.507345
H572	H	0.397744	0.056121	1.007345
H573	H	-0.105822	-0.431371	0.439348
H574	H	0.394178	0.068629	0.939348
H575	H	-0.037885	-0.443957	0.443070
H576	H	0.462115	0.056043	0.943070
H577	H	-0.102603	-0.531273	0.506976
H578	H	0.397397	-0.031273	1.006976
H579	H	-0.034675	-0.543771	0.510650
H580	H	0.465325	-0.043771	1.010650
O581	O	0.062627	-0.724911	0.528642
O582	O	0.562627	-0.224911	1.028642
C583	C	0.108437	-0.822990	0.574603
C584	C	0.608437	-0.322990	1.074603
C585	C	0.071067	-0.780572	0.537022
C586	C	0.571067	-0.280572	1.037022
H587	H	0.115282	-0.868001	0.581380
H588	H	0.615282	-0.368001	1.081380
H589	H	0.086676	-0.816182	0.617242
H590	H	0.586676	-0.316182	1.117242
H591	H	0.151057	-0.816185	0.552974
H592	H	0.651057	-0.316185	1.052974
H593	H	0.028441	-0.787352	0.558601
H594	H	0.528441	-0.287352	1.058601
H595	H	0.092873	-0.787391	0.494385
H596	H	0.592873	-0.287391	0.994385
O597	O	-0.084901	-0.551138	0.636694
O598	O	0.415099	-0.051138	1.136694
C599	C	-0.135480	-0.546019	0.731017
C600	C	0.364520	-0.046019	1.231017
C601	C	-0.077516	-0.557418	0.684385
C602	C	0.422484	-0.057418	1.184385
H603	H	-0.129530	-0.551081	0.769582
H604	H	0.370470	-0.051081	1.269582
H605	H	-0.155847	-0.577424	0.743443
H606	H	0.344153	-0.077424	1.243443
H607	H	-0.163982	-0.501071	0.714528
H608	H	0.336018	-0.001071	1.214528
H609	H	-0.048970	-0.602351	0.700834
H610	H	0.451030	-0.102351	1.200834
H611	H	-0.057194	-0.525979	0.671966
H612	H	0.442806	-0.025979	1.171966
H613	H	0.021795	-0.754566	0.349042
H614	H	0.521795	-0.254566	0.849042
H615	H	0.021552	-0.754553	0.487300
H616	H	0.521552	-0.254553	0.987300
O617	O	0.070795	-0.756508	0.405875
O618	O	0.570795	-0.256508	0.905875
C619	C	0.167972	-0.762874	0.371843
C620	C	0.667972	-0.262874	0.871843
C621	C	0.126050	-0.795375	0.402721
C622	C	0.626050	-0.295375	0.902721
H623	H	0.212656	-0.794284	0.369273
H624	H	0.712656	-0.294284	0.869273
H625	H	0.156093	-0.735142	0.396079
H626	H	0.656093	-0.235142	0.896079
H627	H	0.166203	-0.735129	0.327279
H628	H	0.666203	-0.235129	0.827279
H629	H	0.127797	-0.823151	0.447285
H630	H	0.627797	-0.323151	0.947285
H631	H	0.137943	-0.823072	0.378441
H632	H	0.637943	-0.323072	0.878441
H633	H	-0.065985	-0.578958	0.399332
H634	H	0.434015	-0.078958	0.899332
O635	O	0.109543	-0.873260	0.444936
O636	O	0.609543	-0.373260	0.944936
C637	C	0.181119	-0.940244	0.488744
C638	C	0.681119	-0.440244	0.988744
C639	C	0.117554	-0.907586	0.497845
C640	C	0.617554	-0.407586	0.997845
H641	H	0.187615	-0.968013	0.531512
H642	H	0.687615	-0.468013	1.031512
H643	H	0.204980	-0.908956	0.465307
H644	H	0.704980	-0.408956	0.965307
H645	H	0.197818	-0.967970	0.462664
H646	H	0.697818	-0.467970	0.962664
H647	H	0.100804	-0.879859	0.523938
H648	H	0.600804	-0.379859	1.023938
H649	H	0.093731	-0.938905	0.521257
H650	H	0.593731	-0.438905	1.021257
H651	H	-0.073458	-0.868361	0.512142
H652	H	0.426542	-0.368361	1.012142
O653	O	-0.118268	-0.756219	0.477484
O654	O	0.381732	-0.256219	0.977484
C655	C	-0.199920	-0.738021	0.459926
C656	C	0.300080	-0.238021	0.959926
C657	C	-0.136359	-0.770683	0.450850
C658	C	0.363641	-0.270683	0.950850
H659	H	-0.214569	-0.749712	0.438408
H660	H	0.285431	-0.249712	0.938408
H661	H	-0.207478	-0.690586	0.440935
H662	H	0.292522	-0.190586	0.940935
H663	H	-0.224778	-0.749617	0.507195
H664	H	0.275222	-0.249617	1.007195
H665	H	-0.111459	-0.759135	0.403593
H666	H	0.388541	-0.259135	0.903593
H667	H	-0.128844	-0.818110	0.469878
H668	H	0.371156	-0.318110	0.969878
O669	O	-0.112011	-0.715836	0.537071
O670	O	0.387989	-0.215836	1.037071
C671	C	-0.118437	-0.761730	0.635181
C672	C	0.381563	-0.261730	1.135181
C673	C	-0.150902	-0.724245	0.592703
C674	C	0.349098	-0.224245	1.092703
H675	H	-0.149867	-0.768550	0.680168
H676	H	0.350133	-0.268550	1.180168
H677	H	-0.090709	-0.740070	0.628462
H678	H	0.409291	-0.240070	1.128462
H679	H	-0.090695	-0.804356	0.628356
H680	H	0.409305	-0.304356	1.128356
H681	H	-0.178675	-0.681612	0.599502
H682	H	0.321325	-0.181612	1.099502
H683	H	-0.178595	-0.745949	0.599433
H684	H	0.321405	-0.245949	1.099433
H685	H	-0.116252	-0.622767	0.355267
H686	H	0.383748	-0.122767	0.855267
O687	O	-0.228302	-0.581450	0.384768
O688	O	0.271698	-0.081450	0.884768
C689	C	-0.221879	-0.535623	0.286658
C690	C	0.278121	-0.035623	0.786658
C691	C	-0.189412	-0.573126	0.329135
C692	C	0.310588	-0.073126	0.829135
H693	H	-0.190452	-0.528892	0.241670
H694	H	0.309548	-0.028892	0.741670
H695	H	-0.249589	-0.492957	0.293402
H696	H	0.250411	0.007043	0.793402
H697	H	-0.249640	-0.557293	0.293462
H698	H	0.250360	-0.057293	0.793462
H699	H	-0.161621	-0.551506	0.322357
H700	H	0.338379	-0.051506	0.822357
H701	H	-0.161738	-0.615791	0.322381
H702	H	0.338262	-0.115791	0.822381
