data_functionalizedCrystal
_audit_creation_method	'MofGen! by Chris Wilmer'
_symmetry_space_group_name_H-M	'P1'
_symmetry_Int_Tables_number	1
_symmetry_cell_setting	triclinic
loop_
_symmetry_equiv_pos_as_xyz
  x,y,z
_cell_length_a	15.944551
_cell_length_b	10.654541
_cell_length_c	9.730217
_cell_angle_alpha	90.000068
_cell_angle_beta	89.995798
_cell_angle_gamma	96.008667
loop_
_atom_site_label
_atom_site_type_symbol
_atom_site_fract_x
_atom_site_fract_y
_atom_site_fract_z
O1	O	0.117965	-1.666312	-0.114251
O2	O	0.129208	-1.300688	-0.114263
O3	O	0.001369	-1.493484	-0.114245
O4	O	0.245804	-1.473516	-0.114270
O5	O	0.001368	-1.493478	0.114335
O6	O	0.129206	-1.300682	0.114317
O7	O	0.117964	-1.666306	0.114329
Zn8	Zn	0.123585	-1.483493	0.150615
Zn9	Zn	0.123587	-1.483501	-0.150549
O10	O	0.245802	-1.473510	0.114310
C11	C	0.128382	-1.253897	0.000025
C12	C	0.125914	-1.114486	0.000021
C13	C	-0.029930	-1.492652	0.000046
C14	C	-0.123190	-1.490167	0.000046
C15	C	0.118790	-1.713097	0.000037
C16	C	0.121258	-1.852508	0.000033
C17	C	-0.338772	-1.364722	0.000023
C18	C	-0.399453	-1.422972	0.112729
C19	C	-0.293942	-1.485671	0.000036
C20	C	-0.399436	-1.423006	-0.112633
C21	C	-0.458880	-1.481319	0.000019
C22	C	-0.353395	-1.543954	0.112834
C23	C	-0.353371	-1.543971	-0.112629
C24	C	-0.414034	-1.602309	0.000104
C25	C	-0.198925	-1.488175	0.000046
C26	C	-0.553896	-1.478825	0.000019
C27	C	0.277102	-1.474342	0.000017
C28	C	0.370362	-1.476827	0.000007
N29	N	0.123584	-1.483497	0.356151
C30	C	0.278779	-1.084537	-0.000012
C31	C	0.354048	-1.004069	-0.000034
C32	C	0.351724	-0.873081	-0.000035
C33	C	0.274122	-0.822560	-0.000010
C34	C	0.198852	-0.903028	0.000012
C35	C	0.201185	-1.034017	0.000009
C36	C	0.045989	-0.932976	0.000055
C37	C	0.048311	-1.063965	0.000046
C38	C	-0.031613	-0.882455	0.000080
C39	C	-0.106885	-0.962924	0.000092
C40	C	-0.104557	-1.093919	0.000091
C41	C	-0.026958	-1.144433	0.000068
N42	N	0.123582	-1.483507	-0.356086
C43	C	0.010416	-1.654288	0.356159
C44	C	-0.046165	-1.739691	0.428102
C45	C	-0.046166	-1.739704	0.571982
C46	C	0.010420	-1.654302	0.643921
C47	C	0.067001	-1.568898	0.571978
C48	C	0.066997	-1.568897	0.428095
C49	C	0.180163	-1.398103	0.571971
C50	C	0.180169	-1.398094	0.428091
C51	C	0.236748	-1.312700	0.643910
C52	C	0.293335	-1.227301	0.571967
C53	C	0.293334	-1.227292	0.428078
C54	C	0.236750	-1.312691	0.356147
H55	H	-0.306045	-1.264329	0.000132
H56	H	0.010409	-1.654307	0.761076
H57	H	-0.419808	-1.371836	-0.207924
C58	C	-0.191046	-0.907829	0.000051
C59	C	-0.176971	-0.775893	0.000025
C60	C	-0.254482	-0.725092	-0.000033
H61	H	-0.222133	-0.935312	0.079744
H62	H	-0.222082	-0.935368	-0.079688
H63	H	-0.145949	-0.748365	0.079755
H64	H	-0.145897	-0.748375	-0.079663
H65	H	-0.285518	-0.752632	-0.079772
H66	H	-0.285563	-0.752585	0.079662
H67	H	-0.244943	-0.635570	-0.000064
H68	H	-0.033501	-0.775797	0.000086
C69	C	-0.186255	-1.181341	0.000397
C70	C	-0.189390	-1.257397	0.118011
C71	C	-0.264644	-1.337927	0.118348
H72	H	-0.188613	-1.233179	-0.079222
H73	H	-0.232823	-1.132531	0.000487
H74	H	-0.142835	-1.306203	0.117909
H75	H	-0.187046	-1.205593	0.197649
H76	H	-0.311212	-1.289117	0.118438
H77	H	-0.266995	-1.389757	0.038724
H78	H	-0.266784	-1.389533	0.198153
C79	C	0.354903	-1.134710	0.350046
C80	C	0.437574	-1.155083	0.385013
C81	C	0.494315	-1.069830	0.313149
H82	H	0.345366	-1.050850	0.373574
H83	H	0.346861	-1.146937	0.254039
H84	H	0.445613	-1.142845	0.480999
H85	H	0.447138	-1.238926	0.361481
H86	H	0.486273	-1.082058	0.217142
H87	H	0.484770	-0.985976	0.336683
H88	H	0.550413	-1.083650	0.336855
C89	C	-0.325961	-1.612143	-0.239556
C90	C	-0.238346	-1.614566	-0.237155
C91	C	-0.213064	-1.677357	-0.354060
H92	H	-0.341470	-1.569145	-0.319660
H93	H	-0.352727	-1.696109	-0.240366
H94	H	-0.211589	-1.530615	-0.236359
H95	H	-0.222814	-1.657572	-0.157077
H96	H	-0.239830	-1.761323	-0.354870
H97	H	-0.228579	-1.634353	-0.434155
H98	H	-0.153616	-1.679020	-0.352441
C99	C	0.010579	-1.654128	0.199946
C100	C	0.072255	-1.561078	0.152338
C101	C	0.072436	-1.560907	0.008443
H102	H	-0.043164	-1.636904	0.167229
H103	H	0.022625	-1.734359	0.167345
H104	H	0.060203	-1.480864	0.184925
H105	H	0.126007	-1.578281	0.185018
H106	H	0.084482	-1.641138	-0.024158
H107	H	0.018690	-1.543685	-0.024261
H108	H	0.114287	-1.497782	-0.023877
H109	H	-0.025055	-1.251088	0.000051
H110	H	-0.446611	-1.702790	0.000171
H111	H	0.280679	-1.191193	-0.000042
H112	H	-0.333109	-1.595065	0.208223
H113	H	0.272236	-0.715901	0.000005
H114	H	0.417231	-1.045218	-0.000051
H115	H	-0.419858	-1.371813	0.208009
H116	H	0.413015	-0.807563	-0.000043
C117	C	-0.107712	-1.832270	0.350029
C118	C	-0.190397	-1.811936	0.384967
C119	C	-0.247107	-1.897182	0.313047
H120	H	-0.098168	-1.916132	0.373531
H121	H	-0.099644	-1.820007	0.254030
H122	H	-0.198461	-1.824209	0.480944
H123	H	-0.199967	-1.728091	0.361461
H124	H	-0.239039	-1.884919	0.217048
H125	H	-0.237555	-1.981038	0.336555
H126	H	-0.303215	-1.883389	0.336733
C127	C	-0.107464	-1.832488	0.650271
C128	C	-0.062236	-1.909336	0.732887
C129	C	-0.118676	-1.994810	0.805038
H130	H	-0.141188	-1.883466	0.586981
H131	H	-0.142699	-1.787353	0.706488
H132	H	-0.027015	-1.954467	0.676675
H133	H	-0.028515	-1.858393	0.796202
H134	H	-0.153911	-1.949676	0.861254
H135	H	-0.152397	-2.045779	0.741737
H136	H	-0.087998	-2.046954	0.861110
C137	C	0.354627	-1.134525	0.650250
C138	C	0.309394	-1.057687	0.732879
C139	C	0.365829	-0.972219	0.805033
H140	H	0.388354	-1.083539	0.586961
H141	H	0.389861	-1.179664	0.706457
H142	H	0.274176	-1.012551	0.676677
H143	H	0.275671	-1.108637	0.796193
H144	H	0.401063	-1.017357	0.861241
H145	H	0.399553	-0.921242	0.741735
H146	H	0.335147	-0.920082	0.861115
H147	H	0.236742	-1.312709	0.761065
H148	H	0.236747	-1.312696	0.238993
