data_functionalizedCrystal
_audit_creation_method	'MofGen! by Chris Wilmer'
_symmetry_space_group_name_H-M	'P1'
_symmetry_Int_Tables_number	1
_symmetry_cell_setting	triclinic
loop_
_symmetry_equiv_pos_as_xyz
  x,y,z
_cell_length_a	16.992694
_cell_length_b	15.021413
_cell_length_c	16.992695
_cell_angle_alpha	90.004918
_cell_angle_beta	90.668223
_cell_angle_gamma	89.996978
loop_
_atom_site_label
_atom_site_type_symbol
_atom_site_fract_x
_atom_site_fract_y
_atom_site_fract_z
O1	O	1.050855	-0.073921	0.166905
O2	O	0.822455	-0.073948	0.165074
O3	O	0.935740	-0.073927	0.051790
O4	O	0.937571	-0.073941	0.280190
O5	O	0.935720	0.074137	0.051808
O6	O	0.822435	0.074117	0.165092
O7	O	1.050835	0.074143	0.166924
Zn8	Zn	0.936632	0.097638	0.166011
Zn9	Zn	0.936658	-0.097443	0.165987
O10	O	0.937551	0.074123	0.280208
C11	C	0.793085	0.000081	0.162727
C12	C	0.705600	0.000071	0.155699
C13	C	0.659610	0.000068	0.223517
C14	C	0.577409	0.000081	0.216908
C15	C	0.541201	0.000090	0.142480
C16	C	0.587198	0.000097	0.074657
C17	C	0.669397	0.000090	0.081267
C18	C	0.295886	0.000116	0.115086
C19	C	0.213681	0.000120	0.108481
C20	C	0.203898	0.000105	0.250732
C21	C	0.286099	0.000094	0.257336
C22	C	0.332089	0.000104	0.189512
N23	N	0.457178	0.000101	0.135723
N24	N	0.416110	0.000101	0.196270
N25	N	0.936620	0.230776	0.166027
C26	C	0.884224	0.470450	0.218386
C27	C	0.956311	0.529791	0.238123
C28	C	0.936636	0.412383	0.166011
C29	C	0.864567	0.529783	0.146296
C30	C	0.936646	0.587807	0.165997
C31	C	1.008762	0.470418	0.185785
C32	C	0.916969	0.470404	0.093925
C33	C	0.989106	0.529719	0.113634
C34	C	0.936630	0.311325	0.166021
C35	C	0.936661	0.688862	0.165987
C36	C	1.080205	0.000112	0.169270
C37	C	1.167690	0.000116	0.176299
C38	C	0.933374	0.000104	0.022439
C39	C	0.926345	0.000103	-0.065046
N40	N	0.936664	0.769420	0.165979
C41	C	0.994163	0.000112	-0.111037
C42	C	0.987554	0.000103	-0.193238
C43	C	0.913127	0.000091	-0.229446
C44	C	0.845303	0.000080	-0.183449
C45	C	0.851913	0.000083	-0.101250
C46	C	0.885732	0.000076	-0.474760
C47	C	0.879127	0.000076	-0.556966
C48	C	1.021379	0.000097	-0.566749
C49	C	1.027982	0.000105	-0.484547
C50	C	0.960159	0.000089	-0.438558
N51	N	0.906369	0.000085	-0.313468
N52	N	0.966917	0.000089	-0.354537
C53	C	0.939917	0.000089	0.309559
C54	C	0.946945	0.000084	0.397044
H55	H	0.333322	0.000125	0.059859
H56	H	1.069731	0.444451	0.202527
O57	O	0.532653	-0.000050	0.282731
C58	C	0.434210	-0.076797	0.357839
C59	C	0.484832	-0.076748	0.283248
H60	H	0.395546	-0.138811	0.358289
H61	H	0.395428	-0.014873	0.358328
H62	H	0.474228	-0.076770	0.412154
H63	H	0.444874	-0.076807	0.228892
H64	H	0.523621	-0.138667	0.282828
O65	O	0.897182	0.439357	0.021168
C66	C	0.929250	0.435520	-0.116550
C67	C	0.951749	0.470763	-0.034202
H68	H	0.973364	0.460882	-0.161337
H69	H	0.867773	0.459890	-0.133334
H70	H	0.929983	0.359635	-0.115931
H71	H	0.951062	0.546646	-0.034758
H72	H	1.013212	0.446324	-0.017451
H73	H	0.830505	0.000063	-0.437325
H74	H	1.054770	0.000127	-0.081563
O75	O	1.053492	-0.000003	-0.237827
C76	C	1.173047	-0.076713	-0.271368
C77	C	1.098409	-0.076693	-0.220814
H78	H	1.209375	-0.138720	-0.257644
H79	H	1.209461	-0.014782	-0.257603
H80	H	1.155527	-0.076678	-0.336334
H81	H	1.115859	-0.076759	-0.155833
H82	H	1.062014	-0.138619	-0.234646
H83	H	1.088589	0.000115	-0.455073
O84	O	1.087314	-0.000015	-0.611341
C85	C	1.206857	-0.076745	-0.644891
C86	C	1.132223	-0.076713	-0.594331
H87	H	1.243179	-0.138757	-0.631169
H88	H	1.243280	-0.014819	-0.631128
H89	H	1.189333	-0.076707	-0.709855
H90	H	1.149677	-0.076782	-0.529352
H91	H	1.095820	-0.138633	-0.608161
O92	O	0.773064	0.000108	-0.218746
C93	C	0.699837	0.000047	-0.341039
C94	C	0.781697	0.000033	-0.301170
H95	H	0.706788	-0.000032	-0.407685
H96	H	0.666038	0.062022	-0.322516
H97	H	0.666075	-0.061907	-0.322422
H98	H	0.815523	0.061945	-0.319768
H99	H	0.815435	-0.061983	-0.319693
O100	O	0.806764	0.000015	-0.592013
C101	C	0.666366	0.000027	-0.573640
C102	C	0.748263	0.000075	-0.533847
H103	H	0.619046	0.000094	-0.526631
H104	H	0.659684	-0.061954	-0.611859
H105	H	0.659743	0.061975	-0.611900
H106	H	0.754942	-0.061831	-0.495549
H107	H	0.754908	0.062097	-0.495676
O108	O	0.178594	0.000012	0.036136
C109	C	0.161759	-0.076708	-0.087460
C110	C	0.201562	-0.076683	-0.005568
H111	H	0.180300	-0.138719	-0.121195
H112	H	0.180345	-0.014781	-0.121280
H113	H	0.095112	-0.076668	-0.080507
H114	H	0.268213	-0.076755	-0.012449
H115	H	0.182912	-0.138604	0.028222
H116	H	1.033485	0.555579	0.069337
H117	H	0.706842	0.000093	0.026042
O118	O	0.791794	0.560784	0.126493
C119	C	0.654311	0.565865	0.159384
C120	C	0.736680	0.530686	0.181882
H121	H	0.609731	0.541561	0.204163
H122	H	0.637049	0.540390	0.098386
H123	H	0.655186	0.641750	0.158974
H124	H	0.735867	0.454804	0.182338
H125	H	0.753908	0.556229	0.242866
H126	H	0.972956	0.555877	0.299079
H127	H	0.796688	0.000075	-0.063804
H128	H	0.557710	0.000117	0.014056
O129	O	0.321371	0.000182	0.329586
C130	C	0.408499	0.076843	0.419636
C131	C	0.368611	0.076864	0.337785
H132	H	0.446688	0.138843	0.426297
H133	H	0.446780	0.014905	0.426260
H134	H	0.361506	0.076789	0.466972
H135	H	0.415550	0.076950	0.290400
H136	H	0.330313	0.138796	0.331228
O137	O	0.831498	0.439435	0.271378
C138	C	0.792672	0.434552	0.407245
C139	C	0.852444	0.469721	0.347318
H140	H	0.809575	0.459040	0.468653
H141	H	0.792762	0.358664	0.406423
H142	H	0.731388	0.459969	0.391007
H143	H	0.913757	0.444370	0.363513
H144	H	0.852285	0.545608	0.348150
H145	H	0.689084	0.000059	0.284124
O146	O	0.159307	0.000220	0.316668
C147	C	0.125762	0.076950	0.436214
C148	C	0.176320	0.076917	0.361579
H149	H	0.139487	0.138962	0.472537
H150	H	0.139523	0.015025	0.472635
H151	H	0.060797	0.076914	0.418691
H152	H	0.241300	0.076985	0.379032
H153	H	0.162492	0.138837	0.325178
