data_functionalizedCrystal
_audit_creation_method	'MofGen! by Chris Wilmer'
_symmetry_space_group_name_H-M	'P1'
_symmetry_Int_Tables_number	1
_symmetry_cell_setting	triclinic
loop_
_symmetry_equiv_pos_as_xyz
  x,y,z
_cell_length_a	14.044220
_cell_length_b	11.792241
_cell_length_c	10.868271
_cell_angle_alpha	90.005281
_cell_angle_beta	89.999310
_cell_angle_gamma	88.691147
loop_
_atom_site_label
_atom_site_type_symbol
_atom_site_fract_x
_atom_site_fract_y
_atom_site_fract_z
O1	O	-1.259113	-0.273771	-0.102192
O2	O	-0.925780	0.059563	0.231141
O3	O	-0.592447	0.392896	0.564474
O4	O	-0.983093	-0.263891	-0.102224
O5	O	-0.649760	0.069442	0.231110
O6	O	-0.316427	0.402775	0.564443
O7	O	-1.127802	-0.104289	-0.102199
O8	O	-0.794468	0.229044	0.231135
O9	O	-0.461135	0.562377	0.564468
O10	O	-1.114405	-0.433373	-0.102217
O11	O	-0.781072	-0.100039	0.231116
O12	O	-0.447738	0.233294	0.564449
O13	O	-1.127790	-0.104281	0.102446
O14	O	-0.794456	0.229052	0.435779
O15	O	-0.461123	0.562385	0.769113
O16	O	-0.983081	-0.263883	0.102421
O17	O	-0.649748	0.069450	0.435754
O18	O	-0.316415	0.402783	0.769088
O19	O	-1.259101	-0.273763	0.102452
O20	O	-0.925768	0.059571	0.435786
O21	O	-0.592435	0.392904	0.769119
Zn22	Zn	-1.121089	-0.268822	0.134928
Zn23	Zn	-0.787756	0.064512	0.468262
Zn24	Zn	-0.454423	0.397845	0.801595
Zn25	Zn	-1.121105	-0.268832	-0.134700
Zn26	Zn	-0.787772	0.064501	0.198634
Zn27	Zn	-0.454439	0.397834	0.531967
O28	O	-1.114393	-0.433365	0.102427
O29	O	-0.781060	-0.100031	0.435761
O30	O	-0.447726	0.233302	0.769094
C31	C	-1.126954	-0.061915	0.000123
C32	C	-0.793621	0.271418	0.333457
C33	C	-0.460287	0.604751	0.666790
C34	C	-1.124435	0.064335	0.000122
C35	C	-0.791102	0.397668	0.333455
C36	C	-0.457769	0.731001	0.666788
C37	C	-0.947751	-0.259563	0.000095
C38	C	-0.614417	0.073770	0.333428
C39	C	-0.281084	0.407104	0.666762
C40	C	-0.842459	-0.246664	0.000083
C41	C	-0.509125	0.086669	0.333417
C42	C	-0.175792	0.420003	0.666750
C43	C	-1.294444	-0.278091	0.000131
C44	C	-0.961111	0.055242	0.333464
C45	C	-0.627777	0.388576	0.666798
C46	C	-1.399736	-0.290990	0.000135
C47	C	-1.066403	0.042343	0.333468
C48	C	-0.733069	0.375677	0.666801
C49	C	-0.649676	-0.223082	0.000109
C50	C	-0.316343	0.110251	0.333442
C51	C	0.016991	0.443585	0.666776
C52	C	-0.592513	-0.314567	0.000109
C53	C	-0.259180	0.018766	0.333442
C54	C	0.074154	0.352100	0.666776
C55	C	-0.485242	-0.301445	0.000123
C56	C	-0.151909	0.031888	0.333457
C57	C	0.181425	0.365221	0.666790
C58	C	-0.756957	-0.236202	0.000095
C59	C	-0.423624	0.097132	0.333428
C60	C	-0.090290	0.430465	0.666761
C61	C	-1.115241	-0.475739	0.000103
C62	C	-0.781907	-0.142405	0.333436
C63	C	-0.448574	0.190928	0.666769
C64	C	-1.117759	-0.601989	0.000096
C65	C	-0.784426	-0.268655	0.333429
C66	C	-0.451093	0.064678	0.666763
N67	N	-1.121086	-0.268815	0.318942
N68	N	-0.787752	0.064519	0.652276
N69	N	-0.454419	0.397852	0.985609
C70	C	-1.119804	0.295482	0.000101
C71	C	-0.786471	0.628815	0.333434
C72	C	-0.453137	0.962148	0.666767
C73	C	-1.122377	0.166855	0.000112
C74	C	-0.789044	0.500188	0.333445
C75	C	-0.455711	0.833522	0.666779
N76	N	-1.121117	-0.268831	-0.318714
N77	N	-0.787783	0.064502	0.014620
N78	N	-0.454450	0.397836	0.347953
C79	C	-1.121100	-0.268829	0.569949
C80	C	-0.787767	0.064504	0.903282
C81	C	-0.454434	0.397837	1.236615
C82	C	-1.121089	-0.268824	0.430271
C83	C	-0.787756	0.064509	0.763604
C84	C	-0.454422	0.397842	1.096938
H85	H	-0.624137	-0.402744	0.000098
H86	H	-0.290804	-0.069411	0.333431
H87	H	0.042529	0.263923	0.666765
H88	H	-0.618054	-0.134912	0.000121
H89	H	-0.284720	0.198421	0.333454
H90	H	0.048613	0.531755	0.666787
