data_functionalizedCrystal
_audit_creation_method	'MofGen! by Chris Wilmer'
_symmetry_space_group_name_H-M	'P1'
_symmetry_Int_Tables_number	1
_symmetry_cell_setting	triclinic
loop_
_symmetry_equiv_pos_as_xyz
  x,y,z
_cell_length_a	11.169417
_cell_length_b	15.299816
_cell_length_c	15.296721
_cell_angle_alpha	69.242875
_cell_angle_beta	80.335435
_cell_angle_gamma	80.351466
loop_
_atom_site_label
_atom_site_type_symbol
_atom_site_fract_x
_atom_site_fract_y
_atom_site_fract_z
Zn1	Zn	1.805063	-0.461067	0.589862
Zn2	Zn	1.864144	-0.589655	0.461287
Zn3	Zn	1.633998	-0.434205	0.434382
Zn4	Zn	1.633899	-0.616497	0.616751
O5	O	1.734276	-0.525356	0.525571
O6	O	1.980850	-0.478132	0.572814
O7	O	1.858382	-0.546559	0.327587
O8	O	1.632005	-0.307664	0.432493
O9	O	2.024257	-0.572605	0.478350
O10	O	1.757686	-0.327399	0.546724
O11	O	1.689294	-0.432351	0.307819
O12	O	1.466035	-0.458378	0.458566
O13	O	1.631837	-0.618354	0.743315
O14	O	1.465962	-0.592307	0.592552
O15	O	1.757591	-0.504160	0.723560
O16	O	1.858286	-0.723320	0.504423
O17	O	1.689126	-0.743040	0.618641
C18	C	1.422451	-0.525341	0.525558
C19	C	1.289051	-0.525361	0.525578
C20	C	1.780135	-0.766918	0.567390
C21	C	1.799858	-0.870265	0.585312
C22	C	1.594042	-1.120758	0.397798
C23	C	1.575505	-1.023659	0.380962
C24	C	1.631592	-0.985305	0.432047
C25	C	1.706218	-1.044061	0.499973
C26	C	1.724750	-1.141170	0.516816
C27	C	1.762300	-1.005718	0.551065
C28	C	1.836926	-1.064473	0.618990
C29	C	1.855454	-1.161573	0.635830
C30	C	1.799368	-1.199926	0.584744
C31	C	1.743768	-0.908608	0.534222
C32	C	1.874476	-0.929021	0.653240
C33	C	1.893013	-1.026120	0.670076
C34	C	2.047319	-0.525371	0.525584
C35	C	2.180719	-0.525377	0.525590
C36	C	1.688113	-0.567247	0.768123
C37	C	1.668441	-0.585099	0.871484
C38	C	1.688267	-0.282854	0.483608
C39	C	1.668660	-0.179514	0.465726
C40	C	1.780316	-0.483560	0.283950
C41	C	1.800171	-0.465447	0.180544
C42	C	1.593720	-0.652939	0.930326
C43	C	1.575240	-0.669717	1.027440
C44	C	1.631471	-0.618651	1.065721
C45	C	1.706186	-0.550804	1.006878
C46	C	1.724676	-0.534030	0.909755
C47	C	1.762426	-0.499741	1.045150
C48	C	1.837141	-0.431895	0.986308
C49	C	1.855626	-0.415123	0.889195
C50	C	1.799396	-0.466189	0.850914
C51	C	1.743936	-0.516516	1.142273
C52	C	1.874891	-0.397607	1.121702
C53	C	1.893371	-0.380829	1.024588
H54	H	1.616496	-0.906242	0.418334
C55	C	1.975563	-0.306205	0.959856
C56	C	1.943181	-0.202814	0.954912
C57	C	2.025372	-0.128191	0.890178
C58	C	2.139945	-0.156958	0.830389
C59	C	2.172334	-0.260353	0.835332
C60	C	2.090143	-0.334976	0.900065
H61	H	1.858361	-0.181515	0.999173
H62	H	2.001395	-0.051651	0.886520
H63	H	2.200788	-0.101717	0.782470
H64	H	2.257153	-0.281652	0.791070
H65	H	2.114119	-0.411516	0.903723
C66	C	1.936181	-0.886843	0.709438
C67	C	1.915804	-0.780033	0.690911
C68	C	1.977500	-0.737848	0.747107
C69	C	2.059573	-0.802475	0.821830
C70	C	2.079954	-0.909292	0.840361
C71	C	2.018257	-0.951476	0.784165
H72	H	1.855045	-0.732186	0.635594
H73	H	1.962413	-0.658775	0.733389
H74	H	2.105244	-0.771247	0.863430
H75	H	2.140712	-0.957138	0.895678
H76	H	2.033345	-1.030550	0.797883
C77	C	1.661748	-0.591139	1.206993
C78	C	1.694133	-0.694525	1.211925
C79	C	1.611938	-0.769152	1.276645
C80	C	1.497358	-0.740392	1.336433
C81	C	1.464968	-0.637001	1.331503
C82	C	1.547163	-0.562374	1.266783
H83	H	1.778957	-0.715820	1.167664
H84	H	1.635916	-0.845689	1.280294
H85	H	1.436513	-0.795635	1.384343
H86	H	1.380144	-0.615707	1.375763
H87	H	1.523185	-0.485837	1.263134
C88	C	1.936750	-0.341426	1.163799
C89	C	2.025902	-0.393253	1.237547
C90	C	2.087760	-0.337079	1.279650
C91	C	2.060464	-0.229079	1.248006
C92	C	1.971308	-0.177246	1.174254
C93	C	1.909450	-0.233419	1.132151
H94	H	2.046112	-0.473207	1.260975
H95	H	2.153759	-0.375450	1.334246
H96	H	2.106255	-0.187496	1.279174
H97	H	1.951098	-0.097292	1.150826
H98	H	1.843450	-0.195048	1.077555
C99	C	1.493425	-0.959031	0.306247
C100	C	1.431733	-1.001211	0.250050
C101	C	1.349649	-0.936581	0.175330
C102	C	1.329258	-0.829770	0.156806
C103	C	1.390951	-0.787585	0.213003
C104	C	1.473035	-0.852215	0.287724
H105	H	1.446827	-1.080283	0.263762
H106	H	1.303980	-0.967810	0.133729
H107	H	1.268494	-0.781927	0.101493
H108	H	1.375858	-0.708512	0.199292
H109	H	1.518705	-0.820986	0.329325
H110	H	1.953774	-1.073972	0.725382
H111	H	1.547953	-0.694515	0.899148
H112	H	1.616419	-0.632315	1.144796
H113	H	1.683007	-0.860778	0.478917
H114	H	1.548378	-1.151996	0.356216
H115	H	1.814461	-1.278991	0.598445
H116	H	1.514409	-0.724959	1.075343
H117	H	1.916215	-1.209411	0.691143
H118	H	1.814430	-0.452527	0.771835
H119	H	1.916477	-0.359886	0.841288
