data_functionalizedCrystal
_audit_creation_method	'MofGen! by Chris Wilmer'
_symmetry_space_group_name_H-M	'P1'
_symmetry_Int_Tables_number	1
_symmetry_cell_setting	triclinic
loop_
_symmetry_equiv_pos_as_xyz
  x,y,z
_cell_length_a	25.639239
_cell_length_b	25.639242
_cell_length_c	25.639233
_cell_angle_alpha	89.977834
_cell_angle_beta	90.018747
_cell_angle_gamma	89.965787
loop_
_atom_site_label
_atom_site_type_symbol
_atom_site_fract_x
_atom_site_fract_y
_atom_site_fract_z
Zn1	Zn	-0.208277	-0.799225	0.295742
Zn2	Zn	0.125057	-0.465892	0.629076
Zn3	Zn	0.458390	-0.132558	0.962409
Zn4	Zn	-0.295696	-0.799149	0.208307
Zn5	Zn	0.037638	-0.465815	0.541640
Zn6	Zn	0.370971	-0.132482	0.874973
Zn7	Zn	-0.208269	-0.711801	0.208306
Zn8	Zn	0.125064	-0.378468	0.541640
Zn9	Zn	0.458398	-0.045135	0.874973
Zn10	Zn	-0.295676	-0.711746	0.295696
Zn11	Zn	0.037657	-0.378413	0.629030
Zn12	Zn	0.370990	-0.045080	0.962363
O13	O	-0.251979	-0.755480	0.252013
O14	O	0.081354	-0.422147	0.585346
O15	O	0.414687	-0.088814	0.918680
O16	O	-0.219884	-0.872380	0.284163
O17	O	0.113449	-0.539047	0.617496
O18	O	0.446782	-0.205713	0.950830
O19	O	-0.284103	-0.787553	0.135141
O20	O	0.049230	-0.454219	0.468475
O21	O	0.382563	-0.120886	0.801808
O22	O	-0.135105	-0.723453	0.219924
O23	O	0.198228	-0.390120	0.553257
O24	O	0.531562	-0.056787	0.886591
O25	O	-0.284111	-0.872324	0.219924
O26	O	0.049223	-0.538991	0.553258
O27	O	0.382556	-0.205657	0.886591
O28	O	-0.135111	-0.787683	0.284163
O29	O	0.198223	-0.454350	0.617496
O30	O	0.531556	-0.121016	0.950829
O31	O	-0.219871	-0.723379	0.135141
O32	O	0.113462	-0.390046	0.468474
O33	O	0.446795	-0.056712	0.801808
O34	O	-0.219853	-0.638629	0.219880
O35	O	0.113481	-0.305296	0.553213
O36	O	0.446814	0.028038	0.886546
O37	O	-0.284078	-0.723360	0.368868
O38	O	0.049256	-0.390026	0.702201
O39	O	0.382589	-0.056693	1.035534
O40	O	-0.284070	-0.638589	0.284085
O41	O	0.049263	-0.305255	0.617418
O42	O	0.382597	0.028078	0.950751
O43	O	-0.219866	-0.787630	0.368901
O44	O	0.113468	-0.454297	0.702235
O45	O	0.446801	-0.120963	1.035568
O46	O	-0.368858	-0.787499	0.219880
O47	O	-0.035525	-0.454166	0.553213
O48	O	0.297808	-0.120833	0.886547
O49	O	-0.368844	-0.723286	0.284085
O50	O	-0.035511	-0.389952	0.617418
O51	O	0.297823	-0.056619	0.950752
C52	C	-0.387822	-0.755392	0.251989
C53	C	-0.054489	-0.422059	0.585322
C54	C	0.278845	-0.088726	0.918656
C55	C	-0.445936	-0.755403	0.251996
C56	C	-0.112603	-0.422069	0.585330
C57	C	0.220731	-0.088736	0.918663
C58	C	-0.251959	-0.619638	0.251977
C59	C	0.081375	-0.286304	0.585311
C60	C	0.414708	0.047029	0.918644
C61	C	-0.251963	-0.561524	0.251975
C62	C	0.081371	-0.228190	0.585308
C63	C	0.414704	0.105143	0.918641
C64	C	-0.251970	-0.755497	0.388386
C65	C	0.081363	-0.422164	0.721719
C66	C	0.414696	-0.088831	1.055053
C67	C	-0.251966	-0.755504	0.446500
C68	C	0.081367	-0.422171	0.779833
C69	C	0.414700	-0.088838	1.113167
C70	C	-0.806294	-0.789004	0.218638
C71	C	-0.472961	-0.455670	0.551972
C72	C	-0.139627	-0.122337	0.885305
C73	C	-0.860898	-0.789024	0.218645
C74	C	-0.527565	-0.455691	0.551979
C75	C	-0.194232	-0.122357	0.885312
O76	O	-0.889131	-0.817502	0.190257
O77	O	-0.555797	-0.484168	0.523590
O78	O	-0.222464	-0.150835	0.856924
N79	N	-0.888218	-0.755572	0.252048
N80	N	-0.554885	-0.422239	0.585381
N81	N	-0.221552	-0.088906	0.918714
C82	C	-0.860932	-0.722102	0.285449
C83	C	-0.527598	-0.388768	0.618782
C84	C	-0.194265	-0.055435	0.952115
O85	O	-0.889184	-0.693651	0.313861
O86	O	-0.555850	-0.360317	0.647194
O87	O	-0.222517	-0.026984	0.980528
C88	C	-0.806328	-0.722085	0.285444
C89	C	-0.472995	-0.388751	0.618777
C90	C	-0.139662	-0.055418	0.952111
C91	C	-0.779011	-0.755535	0.252036
C92	C	-0.445678	-0.422201	0.585369
C93	C	-0.112344	-0.088868	0.918702
C94	C	-0.778976	-0.822452	0.185233
C95	C	-0.445643	-0.489118	0.518567
C96	C	-0.112310	-0.155785	0.851900
C97	C	-0.724376	-0.822431	0.185226
C98	C	-0.391043	-0.489097	0.518559
C99	C	-0.057709	-0.155764	0.851892
C100	C	-0.697093	-0.788962	0.218623
C101	C	-0.363760	-0.455628	0.551957
C102	C	-0.030426	-0.122295	0.885290
C103	C	-0.724410	-0.755514	0.252028
C104	C	-0.391077	-0.422180	0.585362
C105	C	-0.057744	-0.088847	0.918695
C106	C	-0.779042	-0.688617	0.318847
C107	C	-0.445709	-0.355284	0.652181
C108	C	-0.112376	-0.021950	0.985514
C109	C	-0.724435	-0.688603	0.318840
C110	C	-0.391102	-0.355270	0.652173
C111	C	-0.057769	-0.021936	0.985507
C112	C	-0.697118	-0.722053	0.285432
C113	C	-0.363785	-0.388720	0.618765
C114	C	-0.030451	-0.055387	0.952099
C115	C	-0.642527	-0.722024	0.285418
C116	C	-0.309193	-0.388690	0.618751
C117	C	0.024140	-0.055357	0.952085
N118	N	-0.615206	-0.755475	0.252016
N119	N	-0.281873	-0.422142	0.585349
N120	N	0.051460	-0.088809	0.918683
C121	C	-0.642490	-0.788944	0.218618
C122	C	-0.309156	-0.455611	0.551952
C123	C	0.024177	-0.122278	0.885285
C124	C	-0.975602	-0.722141	0.285457
C125	C	-0.642269	-0.388808	0.618790
C126	C	-0.308936	-0.055474	0.952123
C127	C	-1.030204	-0.722155	0.285459
C128	C	-0.696871	-0.388822	0.618793
C129	C	-0.363538	-0.055489	0.952126
C130	C	-1.030167	-0.789078	0.218656
C131	C	-0.696834	-0.455745	0.551990
C132	C	-0.363501	-0.122412	0.885323
C133	C	-0.975564	-0.789061	0.218652
C134	C	-0.642231	-0.455728	0.551985
C135	C	-0.308897	-0.122395	0.885318
C136	C	-0.948282	-0.755593	0.252055
C137	C	-0.614949	-0.422260	0.585388
C138	C	-0.281615	-0.088926	0.918721
C139	C	-0.527824	-0.788897	0.218605
C140	C	-0.194491	-0.455564	0.551938
C141	C	0.138842	-0.122231	0.885272
C142	C	-0.473219	-0.788872	0.218599
C143	C	-0.139886	-0.455538	0.551932
C144	C	0.193448	-0.122205	0.885265
C145	C	-0.473261	-0.721951	0.285403
C146	C	-0.139928	-0.388617	0.618737
C147	C	0.193406	-0.055284	0.952070
C148	C	-0.527862	-0.721974	0.285408
C149	C	-0.194528	-0.388641	0.618741
C150	C	0.138805	-0.055307	0.952074
C151	C	-0.555142	-0.755452	0.252007
C152	C	-0.221809	-0.422118	0.585340
C153	C	0.111525	-0.088785	0.918673
O154	O	-0.614260	-0.693562	0.313793
O155	O	-0.280926	-0.360229	0.647127
O156	O	0.052407	-0.026895	0.980460
O157	O	-0.614231	-0.817396	0.190216
O158	O	-0.280898	-0.484062	0.523549
O159	O	0.052436	-0.150729	0.856883
C160	C	-0.115606	-0.755583	0.252048
C161	C	0.217727	-0.422250	0.585382
C162	C	0.551060	-0.088916	0.918715
C163	C	-0.057492	-0.755627	0.252064
C164	C	0.275841	-0.422293	0.585397
C165	C	0.609174	-0.088960	0.918730
C166	C	-0.252000	-0.891853	0.252049
C167	C	0.081333	-0.558520	0.585382
C168	C	0.414666	-0.225187	0.918715
C169	C	-0.252009	-0.949967	0.252064
C170	C	0.081324	-0.616634	0.585397
C171	C	0.414657	-0.283301	0.918731
C172	C	-0.285473	-0.201149	0.285413
C173	C	0.047860	0.132185	0.618746
C174	C	0.381193	0.465518	0.952080
C175	C	-0.285477	-0.146544	0.285421
C176	C	0.047857	0.186789	0.618754
C177	C	0.381190	0.520122	0.952088
O178	O	-0.313943	-0.118297	0.313821
O179	O	0.019390	0.215036	0.647155
O180	O	0.352724	0.548369	0.980488
N181	N	-0.251994	-0.119241	0.252047
N182	N	0.081340	0.214092	0.585380
N183	N	0.414673	0.547425	0.918714
C184	C	-0.218502	-0.146545	0.218666
C185	C	0.114831	0.186788	0.552000
C186	C	0.448165	0.520121	0.885333
O187	O	-0.190022	-0.118308	0.190280
O188	O	0.143311	0.215025	0.523613
O189	O	0.476644	0.548359	0.856947
C190	C	-0.218496	-0.201149	0.218661
C191	C	0.114837	0.132185	0.551994
C192	C	0.448170	0.465518	0.885328
C193	C	-0.251985	-0.228449	0.252034
C194	C	0.081348	0.104884	0.585367
C195	C	0.414681	0.438218	0.918700
C196	C	-0.318959	-0.228449	0.318783
C197	C	0.014374	0.104885	0.652116
C198	C	0.347708	0.438218	0.985450
C199	C	-0.318956	-0.283049	0.318774
C200	C	0.014377	0.050284	0.652107
C201	C	0.347710	0.383617	0.985441
C202	C	-0.285468	-0.310350	0.285395
C203	C	0.047865	0.022984	0.618728
C204	C	0.381199	0.356317	0.952061
C205	C	-0.251983	-0.283049	0.252024
C206	C	0.081351	0.050284	0.585358
C207	C	0.414684	0.383617	0.918691
C208	C	-0.185002	-0.228452	0.185283
C209	C	0.148331	0.104881	0.518617
C210	C	0.481664	0.438215	0.851950
C211	C	-0.185000	-0.283059	0.185281
C212	C	0.148334	0.050274	0.518615
C213	C	0.481667	0.383608	0.851948
C214	C	-0.218488	-0.310359	0.218654
C215	C	0.114845	0.022974	0.551987
C216	C	0.448178	0.356308	0.885320
C217	C	-0.218492	-0.364950	0.218636
C218	C	0.114842	-0.031617	0.551969
C219	C	0.448175	0.301716	0.885303
N220	N	-0.251974	-0.392253	0.252010
N221	N	0.081359	-0.058920	0.585344
N222	N	0.414692	0.274413	0.918677
C223	C	-0.285463	-0.364953	0.285389
C224	C	0.047871	-0.031620	0.618723
C225	C	0.381204	0.301714	0.952056
C226	C	-0.218515	-0.031875	0.218680
C227	C	0.114818	0.301459	0.552014
C228	C	0.448151	0.634792	0.885347
C229	C	-0.218523	0.022728	0.218683
C230	C	0.114810	0.356061	0.552016
C231	C	0.448144	0.689394	0.885349
C232	C	-0.285497	0.022725	0.285438
C233	C	0.047836	0.356058	0.618772
C234	C	0.381170	0.689392	0.952105
C235	C	-0.285492	-0.031878	0.285433
C236	C	0.047842	0.301455	0.618766
C237	C	0.381175	0.634788	0.952100
C238	C	-0.251998	-0.059178	0.252054
C239	C	0.081335	0.274156	0.585388
C240	C	0.414669	0.607489	0.918721
C241	C	-0.285455	-0.479618	0.285368
C242	C	0.047878	-0.146285	0.618701
C243	C	0.381212	0.187049	0.952034
C244	C	-0.285451	-0.534223	0.285354
C245	C	0.047883	-0.200890	0.618687
C246	C	0.381216	0.132443	0.952021
C247	C	-0.218475	-0.534216	0.218601
C248	C	0.114858	-0.200883	0.551934
C249	C	0.448192	0.132451	0.885267
C250	C	-0.218481	-0.479615	0.218612
C251	C	0.114853	-0.146282	0.551945
C252	C	0.448186	0.187051	0.885279
C253	C	-0.251972	-0.452318	0.252000
C254	C	0.081361	-0.118984	0.585333
C255	C	0.414694	0.214349	0.918666
O256	O	-0.190038	-0.393232	0.190252
O257	O	0.143295	-0.059899	0.523585
O258	O	0.476628	0.273435	0.856918
O259	O	-0.313933	-0.393197	0.313776
O260	O	0.019401	-0.059864	0.647109
O261	O	0.352734	0.273470	0.980442
C262	C	-0.251951	-0.755494	0.116170
C263	C	0.081383	-0.422160	0.449504
C264	C	0.414716	-0.088827	0.782837
C265	C	-0.251807	-0.755588	0.058057
C266	C	0.081526	-0.422254	0.391390
C267	C	0.414859	-0.088921	0.724723
C268	C	-0.218432	-0.789012	0.806886
C269	C	0.114902	-0.455679	1.140220
C270	C	0.448235	-0.122346	1.473553
C271	C	-0.218417	-0.789019	0.861491
C272	C	0.114916	-0.455685	1.194824
C273	C	0.448249	-0.122352	1.528157
O274	O	-0.189967	-0.817466	0.889747
O275	O	0.143367	-0.484133	1.223080
O276	O	0.476700	-0.150799	1.556414
N277	N	-0.251844	-0.755562	0.888783
N278	N	0.081490	-0.422229	1.222116
N279	N	0.414823	-0.088895	1.555449
C280	C	-0.285283	-0.722093	0.861468
C281	C	0.048050	-0.388760	1.194801
C282	C	0.381384	-0.055426	1.528134
O283	O	-0.313713	-0.693636	0.889695
O284	O	0.019620	-0.360302	1.223029
O285	O	0.352954	-0.026969	1.556362
C286	C	-0.285294	-0.722084	0.806864
C287	C	0.048039	-0.388751	1.140198
C288	C	0.381372	-0.055418	1.473531
C289	C	-0.251870	-0.755547	0.779575
C290	C	0.081464	-0.422214	1.112908
C291	C	0.414797	-0.088880	1.446242
C292	C	-0.185009	-0.822472	0.779597
C293	C	0.148324	-0.489138	1.112930
C294	C	0.481657	-0.155805	1.446264
C295	C	-0.185025	-0.822466	0.724997
C296	C	0.148309	-0.489133	1.058330
C297	C	0.481642	-0.155799	1.391663
C298	C	-0.218462	-0.789000	0.697685
C299	C	0.114871	-0.455667	1.031019
C300	C	0.448204	-0.122334	1.364352
C301	C	-0.251885	-0.755541	0.724974
C302	C	0.081448	-0.422208	1.058308
C303	C	0.414782	-0.088874	1.391641
C304	C	-0.318731	-0.688613	0.779550
C305	C	0.014603	-0.355280	1.112883
C306	C	0.347936	-0.021946	1.446217
C307	C	-0.318739	-0.688607	0.724943
C308	C	0.014594	-0.355273	1.058276
C309	C	0.347928	-0.021940	1.391610
C310	C	-0.285314	-0.722069	0.697654
C311	C	0.048019	-0.388736	1.030987
C312	C	0.381352	-0.055403	1.364320
C313	C	-0.285338	-0.722070	0.643063
C314	C	0.047995	-0.388736	0.976396
C315	C	0.381329	-0.055403	1.309729
N316	N	-0.251912	-0.755526	0.615771
N317	N	0.081422	-0.422193	0.949104
N318	N	0.414755	-0.088860	1.282437
C319	C	-0.218474	-0.788992	0.643082
C320	C	0.114860	-0.455658	0.976415
C321	C	0.448193	-0.122325	1.309749
C322	C	-0.285256	-0.722113	0.976138
C323	C	0.048077	-0.388780	1.309472
C324	C	0.381411	-0.055446	1.642805
C325	C	-0.285247	-0.722124	1.030741
C326	C	0.048086	-0.388791	1.364074
C327	C	0.381419	-0.055457	1.697407
C328	C	-0.218381	-0.789049	1.030760
C329	C	0.114952	-0.455716	1.364093
C330	C	0.448286	-0.122383	1.697427
C331	C	-0.218392	-0.789041	0.976157
C332	C	0.114941	-0.455707	1.309490
C333	C	0.448274	-0.122374	1.642823
C334	C	-0.251829	-0.755570	0.948846
C335	C	0.081504	-0.422237	1.282180
C336	C	0.414837	-0.088903	1.615513
C337	C	-0.218509	-0.788977	0.528417
C338	C	0.114825	-0.455644	0.861750
C339	C	0.448158	-0.122311	1.195083
C340	C	-0.218529	-0.788970	0.473811
C341	C	0.114805	-0.455636	0.807145
C342	C	0.448138	-0.122303	1.140478
C343	C	-0.285393	-0.722043	0.473797
C344	C	0.047940	-0.388710	0.807130
C345	C	0.381274	-0.055376	1.140463
C346	C	-0.285375	-0.722052	0.528397
C347	C	0.047958	-0.388719	0.861731
C348	C	0.381291	-0.055385	1.195064
C349	C	-0.251929	-0.755521	0.555706
C350	C	0.081404	-0.422187	0.889039
C351	C	0.414738	-0.088854	1.222373
O352	O	-0.313773	-0.693635	0.614771
O353	O	0.019561	-0.360302	0.948105
O354	O	0.352894	-0.026969	1.281438
O355	O	-0.190044	-0.817439	0.614847
O356	O	0.143290	-0.484106	0.948181
O357	O	0.476623	-0.150773	1.281514
H358	H	-0.550030	-0.816159	0.191408
H359	H	-0.216696	-0.482826	0.524741
H360	H	0.116637	-0.149492	0.858074
O361	O	-0.148879	-0.199018	0.149288
O362	O	0.184455	0.134315	0.482621
O363	O	0.517788	0.467648	0.815955
H364	H	-0.154503	-0.156461	0.154891
H365	H	0.178830	0.176873	0.488224
H366	H	0.512163	0.510206	0.821557
O367	O	-0.148943	-0.858568	0.809054
O368	O	0.184391	-0.525235	1.142387
O369	O	0.517724	-0.191901	1.475720
H370	H	-0.157925	-0.899593	0.798581
H371	H	0.175408	-0.566260	1.131915
H372	H	0.508742	-0.232926	1.465248
H373	H	-0.191211	-0.556454	0.191422
H374	H	0.142122	-0.223121	0.524756
H375	H	0.475455	0.110213	0.858089
H376	H	-0.702137	-0.849670	0.158024
H377	H	-0.368804	-0.516337	0.491357
H378	H	-0.035471	-0.183003	0.824690
H379	H	-0.550105	-0.694738	0.312613
H380	H	-0.216771	-0.361405	0.645946
H381	H	0.116562	-0.028071	0.979280
O382	O	-0.321598	-0.450202	0.321375
O383	O	0.011735	-0.116869	0.654708
O384	O	0.345068	0.216465	0.988042
H385	H	-0.298263	-0.425351	0.348043
H386	H	0.035070	-0.092017	0.681376
H387	H	0.368403	0.241316	1.014710
H388	H	-0.191174	-0.816288	0.953941
H389	H	0.142159	-0.482955	1.287275
H390	H	0.475493	-0.149621	1.620608
H391	H	-0.191153	-0.816298	1.053007
H392	H	0.142181	-0.482964	1.386340
H393	H	0.475514	-0.149631	1.719673
O394	O	-0.808399	-0.858550	0.149205
O395	O	-0.475066	-0.525216	0.482539
O396	O	-0.141733	-0.191883	0.815872
H397	H	-0.780222	-0.881798	0.125977
H398	H	-0.446889	-0.548465	0.459310
H399	H	-0.113555	-0.215132	0.792644
H400	H	-0.312471	-0.694881	1.052955
H401	H	0.020862	-0.361548	1.386288
H402	H	0.354196	-0.028214	1.719621
O403	O	-0.321565	-0.563669	0.321358
O404	O	0.011769	-0.230335	0.654692
O405	O	0.345102	0.102998	0.988025
H406	H	-0.348135	-0.588518	0.297911
H407	H	-0.014802	-0.255185	0.631245
H408	H	0.318531	0.078148	0.964578
O409	O	-0.355112	-0.199042	0.354785
O410	O	-0.021779	0.134291	0.688119
O411	O	0.311554	0.467624	1.021452
H412	H	-0.331793	-0.174185	0.381461
H413	H	0.001541	0.159148	0.714795
H414	H	0.334874	0.492482	1.048128
H415	H	-0.157721	-0.305283	0.158103
H416	H	0.175612	0.028050	0.491436
H417	H	0.508945	0.361383	0.824770
O418	O	-0.355068	-0.312492	0.354776
O419	O	-0.021735	0.020841	0.688110
O420	O	0.311598	0.354175	1.021443
H421	H	-0.378347	-0.284328	0.377990
H422	H	-0.045014	0.049006	0.711323
H423	H	0.288319	0.382339	1.044657
O424	O	-0.946101	-0.825144	0.182625
O425	O	-0.612767	-0.491811	0.515958
O426	O	-0.279434	-0.158478	0.849292
H427	H	-0.974251	-0.848421	0.159407
H428	H	-0.640918	-0.515087	0.492740
H429	H	-0.307585	-0.181754	0.826074
O430	O	-0.321605	-0.061323	0.321432
O431	O	0.011728	0.272010	0.654766
O432	O	0.345061	0.605344	0.988099
H433	H	-0.344888	-0.033161	0.344644
H434	H	-0.011555	0.300173	0.677978
H435	H	0.321779	0.633506	1.011311
H436	H	-0.345963	-0.661345	0.702710
H437	H	-0.012629	-0.328011	1.036043
H438	H	0.320704	0.005322	1.369376
O439	O	-0.321674	0.052144	0.321411
O440	O	0.011659	0.385478	0.654745
O441	O	0.344992	0.718811	0.988078
H442	H	-0.312813	0.041644	0.362472
H443	H	0.020520	0.374978	0.695806
H444	H	0.353853	0.708311	1.029139
H445	H	-0.191213	-0.457387	0.191436
H446	H	0.142121	-0.124053	0.524770
H447	H	0.475454	0.209280	0.858103
O448	O	-1.059598	-0.825189	0.182642
O449	O	-0.726265	-0.491856	0.515976
O450	O	-0.392932	-0.158522	0.849309
H451	H	-1.102156	-0.819585	0.188267
H452	H	-0.768823	-0.486251	0.521601
H453	H	-0.435489	-0.152918	0.854934
H454	H	-0.312597	-0.694809	0.550617
H455	H	0.020736	-0.361475	0.883951
H456	H	0.354069	-0.028142	1.217284
O457	O	-1.059667	-0.686074	0.321488
O458	O	-0.726334	-0.352740	0.654822
O459	O	-0.393000	-0.019407	0.988155
H460	H	-1.031516	-0.662802	0.344711
H461	H	-0.698183	-0.329469	0.678044
H462	H	-0.364850	0.003865	1.011377
H463	H	-0.312619	-0.694798	0.451550
H464	H	0.020715	-0.361464	0.784883
H465	H	0.354048	-0.028131	1.118217
O466	O	-0.321315	-0.686003	0.946682
O467	O	0.012018	-0.352670	1.280015
O468	O	0.345352	-0.019337	1.613349
H469	H	-0.344552	-0.662741	0.974838
H470	H	-0.011219	-0.329408	1.308171
H471	H	0.322115	0.003925	1.641504
O472	O	-0.443830	-0.685855	0.321427
O473	O	-0.110497	-0.352522	0.654760
O474	O	0.222837	-0.019188	0.988094
H475	H	-0.401272	-0.691468	0.315811
H476	H	-0.067939	-0.358135	0.649144
H477	H	0.265394	-0.024802	0.982477
H478	H	-0.191272	-0.816229	0.550645
H479	H	0.142061	-0.482896	0.883978
H480	H	0.475395	-0.149562	1.217312
H481	H	-0.191258	0.044951	0.191502
H482	H	0.142075	0.378284	0.524835
H483	H	0.475408	0.711617	0.858169
H484	H	-0.191241	-0.054099	0.191496
H485	H	0.142092	0.279235	0.524829
H486	H	0.475425	0.612568	0.858162
O487	O	-0.182476	-0.825062	0.444377
O488	O	0.150858	-0.491729	0.777710
O489	O	0.484191	-0.158395	1.111043
H490	H	-0.159219	-0.848329	0.472545
H491	H	0.174114	-0.514996	0.805878
H492	H	0.507448	-0.181662	1.139212
O493	O	-0.946177	-0.686028	0.321473
O494	O	-0.612843	-0.352695	0.654806
O495	O	-0.279510	-0.019362	0.988140
H496	H	-0.974352	-0.662767	0.344692
H497	H	-0.641018	-0.329434	0.678025
H498	H	-0.307685	0.003900	1.011359
H499	H	-0.157806	-0.849714	0.702783
H500	H	0.175528	-0.516380	1.036116
H501	H	0.508861	-0.183047	1.369449
O502	O	-0.354775	-0.652514	0.808976
O503	O	-0.021442	-0.319181	1.142309
O504	O	0.311891	0.014153	1.475643
H505	H	-0.378018	-0.629239	0.780803
H506	H	-0.044685	-0.295906	1.114136
H507	H	0.288649	0.037427	1.447469
H508	H	-0.450979	-0.816111	0.191392
H509	H	-0.117646	-0.482777	0.524725
H510	H	0.215688	-0.149444	0.858059
H511	H	-0.702225	-0.661350	0.346042
H512	H	-0.368891	-0.328016	0.679376
H513	H	-0.035558	0.005317	1.012709
O514	O	-0.808499	-0.652542	0.354884
O515	O	-0.475165	-0.319208	0.688217
O516	O	-0.141832	0.014125	1.021551
H517	H	-0.780345	-0.629275	0.378108
H518	H	-0.447012	-0.295942	0.711441
H519	H	-0.113678	0.037392	1.044775
