data_functionalizedCrystal
_audit_creation_method	'MofGen! by Chris Wilmer'
_symmetry_space_group_name_H-M	'P1'
_symmetry_Int_Tables_number	1
_symmetry_cell_setting	triclinic
loop_
_symmetry_equiv_pos_as_xyz
  x,y,z
_cell_length_a	16.793024
_cell_length_b	16.793047
_cell_length_c	33.586455
_cell_angle_alpha	113.253857
_cell_angle_beta	66.219990
_cell_angle_gamma	112.758327
loop_
_atom_site_label
_atom_site_type_symbol
_atom_site_fract_x
_atom_site_fract_y
_atom_site_fract_z
O1	O	0.005016	-0.570216	-0.583573
O2	O	-0.034529	-0.474528	-0.453458
O3	O	0.114723	-0.474535	-0.528082
O4	O	-0.144235	-0.570209	-0.508949
O5	O	0.108729	-0.346329	-0.530229
O6	O	-0.040523	-0.346322	-0.455605
O7	O	-0.000977	-0.442010	-0.585721
Zn8	Zn	-0.021701	-0.373810	-0.521004
Zn9	Zn	-0.013805	-0.542728	-0.518175
O10	O	-0.150229	-0.442003	-0.511097
C11	C	0.005100	-0.790970	-0.238461
C12	C	0.009223	-0.693065	-0.217557
C13	C	0.003804	-0.645758	-0.241627
C14	C	-0.075059	-0.538459	-0.266316
C15	C	0.049838	-0.422849	-0.250165
C16	C	-0.040584	-0.395375	-0.435637
C17	C	-0.044693	-0.353446	-0.386631
C18	C	-0.039275	-0.401741	-0.363054
C19	C	-0.040566	-0.125547	-0.300731
C20	C	-0.044689	-0.223451	-0.321635
C21	C	-0.039266	-0.270752	-0.297563
C22	C	0.039597	-0.378051	-0.272874
C23	C	-0.085304	-0.493667	-0.289026
C24	C	0.005118	-0.521142	-0.103554
C25	C	0.009231	-0.563064	-0.152559
C26	C	0.003809	-0.514775	-0.176138
C27	C	0.010758	-0.652581	-0.172822
C28	C	0.001010	-0.556371	-0.220792
C29	C	-0.008251	-0.506059	-0.245823
C30	C	-0.046224	-0.263935	-0.366370
C31	C	-0.036476	-0.360146	-0.318399
C32	C	-0.027211	-0.410451	-0.293367
C33	C	0.815184	-0.521162	-0.508596
C34	C	0.415541	-0.125553	-0.528781
C35	C	0.375032	-0.223457	-0.531493
C36	C	0.423813	-0.270761	-0.529101
C37	C	0.149318	-0.395376	-0.530584
C38	C	0.246774	-0.353455	-0.532364
C39	C	0.294574	-0.401748	-0.529976
C40	C	0.548961	-0.790984	-0.510398
C41	C	0.286104	-0.263940	-0.532530
C42	C	0.383336	-0.360149	-0.528302
C43	C	0.432207	-0.407971	-0.525810
C44	C	0.392316	-0.497392	-0.524993
C45	C	0.303554	-0.538991	-0.526667
C46	C	0.254683	-0.491169	-0.529159
C47	C	0.263666	-0.628421	-0.525851
C48	C	0.312537	-0.676243	-0.523359
C49	C	0.401299	-0.634644	-0.521685
C50	C	0.441190	-0.545223	-0.522502
C51	C	0.529952	-0.503624	-0.520828
C52	C	0.578823	-0.551446	-0.518336
C53	C	0.538939	-0.640864	-0.517520
C54	C	0.450177	-0.682463	-0.519194
C55	C	0.587810	-0.688687	-0.515028
C56	C	0.676572	-0.647088	-0.513354
C57	C	0.716463	-0.557666	-0.514172
C58	C	0.667586	-0.509847	-0.516662
C59	C	0.569840	-0.414195	-0.521644
C60	C	0.658602	-0.372596	-0.519970
C61	C	0.707476	-0.420426	-0.517480
C62	C	0.698493	-0.283174	-0.520788
C63	C	0.649622	-0.235352	-0.523280
C64	C	0.560860	-0.276951	-0.524954
C65	C	0.520969	-0.366372	-0.524136
C66	C	0.511989	-0.229129	-0.527446
C67	C	-0.040530	-0.395407	-0.935652
C68	C	0.005063	-0.791004	-0.738448
C69	C	0.009186	-0.693099	-0.717543
C70	C	0.003779	-0.645796	-0.741620
C71	C	0.005077	-0.521171	-0.603544
C72	C	0.009198	-0.563096	-0.652550
C73	C	0.003786	-0.514804	-0.676131
C74	C	-0.040516	-0.125574	-0.800747
C75	C	0.010719	-0.652613	-0.672809
C76	C	0.000994	-0.556406	-0.720789
C77	C	-0.004621	-0.508585	-0.744908
C78	C	-0.007444	-0.419162	-0.724369
C79	C	-0.004651	-0.377560	-0.679711
C80	C	0.000964	-0.425381	-0.655592
C81	C	-0.007471	-0.288129	-0.659174
C82	C	-0.013086	-0.240308	-0.683293
C83	C	-0.015878	-0.281910	-0.727951
C84	C	-0.013056	-0.371333	-0.748490
C85	C	-0.015848	-0.412935	-0.793148
C86	C	-0.021463	-0.365114	-0.817267
C87	C	-0.024282	-0.275694	-0.796731
C88	C	-0.021490	-0.234092	-0.752073
C89	C	-0.029897	-0.227873	-0.820850
C90	C	-0.032690	-0.269476	-0.865508
C91	C	-0.029867	-0.358899	-0.886047
C92	C	-0.024255	-0.406717	-0.861925
C93	C	-0.013028	-0.502367	-0.813685
C94	C	-0.015821	-0.543969	-0.858343
C95	C	-0.021433	-0.496140	-0.882464
C96	C	-0.012998	-0.633392	-0.878882
C97	C	-0.007383	-0.681213	-0.854763
C98	C	-0.004591	-0.639611	-0.810105
C99	C	-0.007414	-0.550188	-0.789566
C100	C	0.001024	-0.687432	-0.785986
O101	O	-0.000965	0.173549	-0.277957
O102	O	-0.040516	-0.085616	-0.325254
O103	O	0.108737	0.059592	-0.327284
O104	O	-0.150219	0.028341	-0.275927
O105	O	0.114753	0.055151	-0.263265
O106	O	-0.034500	-0.090057	-0.261234
O107	O	0.005051	0.169108	-0.213937
Zn108	Zn	-0.013769	0.038820	-0.227421
Zn109	Zn	-0.021696	0.044672	-0.311770
O110	O	-0.144202	0.023900	-0.211907
O111	O	-0.034458	-0.474571	0.046517
O112	O	0.005076	-0.570190	-0.083599
O113	O	-0.144170	-0.570237	-0.008972
O114	O	0.114787	-0.474523	-0.028110
O115	O	-0.150200	-0.442024	-0.011093
O116	O	-0.000954	-0.441976	-0.085720
O117	O	-0.040488	-0.346357	0.044396
Zn118	Zn	-0.021679	-0.373810	-0.020999
Zn119	Zn	-0.013734	-0.542737	-0.018204
O120	O	0.108757	-0.346309	-0.030231
C121	C	-0.850734	0.086244	-0.289716
C122	C	-0.753280	0.087165	-0.312001
C123	C	-0.705462	0.081107	-0.288506
C124	C	-0.599592	0.000085	-0.264184
C125	C	-0.481080	0.121287	-0.283645
C126	C	-0.450996	0.035117	-0.097351
C127	C	-0.410501	0.028587	-0.146852
C128	C	-0.459292	0.034683	-0.169840
C129	C	-0.184802	0.024283	-0.235878
C130	C	-0.282257	0.023363	-0.213592
C131	C	-0.330068	0.029423	-0.237088
C132	C	-0.435938	0.110445	-0.261411
C133	C	-0.554456	-0.010759	-0.241948
C134	C	-0.584541	0.075410	-0.428242
C135	C	-0.625029	0.081943	-0.378743
C136	C	-0.576244	0.075844	-0.355753
C137	C	-0.713963	0.086424	-0.357292
C138	C	-0.616708	0.075351	-0.310510
C139	C	-0.565963	0.065400	-0.286043
C140	C	-0.321573	0.024104	-0.168302
C141	C	-0.418828	0.035176	-0.215083
C142	C	-0.469568	0.045131	-0.239552
O143	O	0.585213	0.169090	-0.504004
O144	O	0.494056	-0.090076	-0.525516
O145	O	0.488081	0.055124	-0.449918
O146	O	0.591189	0.023889	-0.579602
O147	O	0.359978	0.059584	-0.452885
O148	O	0.365953	-0.085616	-0.528483
O149	O	0.457110	0.173550	-0.506971
Zn150	Zn	0.391193	0.044675	-0.518198
Zn151	Zn	0.559974	0.038798	-0.514289
O152	O	0.463086	0.028349	-0.582569
C153	C	0.815354	-0.521094	-0.008709
C154	C	0.717898	-0.563028	-0.006927
C155	C	0.670072	-0.514739	-0.009298
C156	C	0.564182	-0.463204	-0.048354
C157	C	0.445681	-0.498945	0.013847
C158	C	0.415547	-0.125494	-0.028771
C159	C	0.375059	-0.223405	-0.031498
C160	C	0.423859	-0.270708	-0.029121
C161	C	0.149365	-0.395355	-0.030599
C162	C	0.246820	-0.353421	-0.032381
C163	C	0.294640	-0.401713	-0.030008
C164	C	0.400530	-0.453248	0.009048
C165	C	0.519038	-0.417504	-0.053155
C166	C	0.549171	-0.790955	-0.010537
C167	C	0.589653	-0.693047	-0.007809
C168	C	0.540859	-0.645741	-0.010187
C169	C	0.678588	-0.652551	-0.006775
C170	C	0.581317	-0.556344	-0.010973
C171	C	0.530562	-0.506029	-0.015250
C172	C	0.286131	-0.263897	-0.032533
C173	C	0.383402	-0.360104	-0.028335
C174	C	0.434150	-0.410423	-0.024057
O175	O	-0.620614	0.089309	0.052274
O176	O	-0.529507	0.043784	-0.078544
O177	O	-0.523494	0.194833	-0.006033
O178	O	-0.626628	-0.061740	-0.020236
O179	O	-0.395386	0.185419	-0.005549
O180	O	-0.401400	0.034370	-0.078059
O181	O	-0.492507	0.079895	0.052758
Zn182	Zn	-0.426614	0.055638	-0.012574
Zn183	Zn	-0.595401	0.068041	-0.013212
O184	O	-0.498521	-0.071154	-0.019752
C185	C	-0.437537	0.048335	0.402491
C186	C	-0.397043	0.041789	0.352989
C187	C	-0.445822	0.047883	0.329994
C188	C	-0.496646	0.126653	0.277022
C189	C	-0.465894	-0.000633	0.218811
C190	C	-0.837226	0.099430	0.210091
C191	C	-0.739773	0.100339	0.187806
C192	C	-0.691967	0.094287	0.211308
C193	C	-0.571027	0.088563	0.071568
C194	C	-0.611521	0.095108	0.121070
C195	C	-0.562739	0.089011	0.144061
C196	C	-0.511915	0.010241	0.197033
C197	C	-0.542670	0.137531	0.255247
C198	C	-0.171338	0.037467	0.263967
C199	C	-0.268788	0.036555	0.286249
C200	C	-0.316597	0.042611	0.262750
C201	C	-0.308112	0.037305	0.331542
C202	C	-0.405351	0.048369	0.284750
C203	C	-0.456092	0.058317	0.260279
C204	C	-0.700452	0.099593	0.142516
C205	C	-0.603213	0.088528	0.189308
C206	C	-0.552469	0.078578	0.213776
O207	O	-0.040608	-1.085661	-0.825229
O208	O	-0.001018	-0.826491	-0.777938
O209	O	-0.150287	-0.971682	-0.775894
O210	O	0.108661	-0.940470	-0.827272
O211	O	-0.144253	-0.976123	-0.711878
O212	O	0.005016	-0.830932	-0.713922
O213	O	-0.034575	-1.090102	-0.761213
Zn214	Zn	-0.013821	-0.961222	-0.727403
Zn215	Zn	-0.021771	-0.955371	-0.811747
O216	O	0.114695	-0.944911	-0.763256
O217	O	-0.036540	-0.230370	-0.253997
C218	C	0.044345	-0.230941	-0.250737
H219	H	0.097088	-0.237310	-0.285494
H220	H	0.030945	-0.290423	-0.238361
C221	C	0.014772	-0.134790	-0.174252
C222	C	0.079555	-0.142604	-0.216941
H223	H	0.036490	-0.080301	-0.153404
H224	H	-0.039723	-0.134407	-0.176448
H225	H	0.003612	-0.184363	-0.163945
H226	H	0.090706	-0.093037	-0.227250
H227	H	0.134054	-0.142976	-0.214747
O228	O	0.097545	-0.296181	-0.276264
C229	C	0.161696	-0.272536	-0.253620
H230	H	0.167349	-0.336059	-0.251394
H231	H	0.139381	-0.226738	-0.217968
C232	C	0.247339	-0.144746	-0.282788
C233	C	0.254287	-0.222767	-0.280057
H234	H	0.304452	-0.114043	-0.299093
H235	H	0.204117	-0.160674	-0.298041
H236	H	0.228739	-0.106592	-0.253076
H237	H	0.272875	-0.260925	-0.309768
H238	H	0.297514	-0.206845	-0.264809
H239	H	-0.754334	0.089615	-0.376700
O240	O	0.118302	-0.386324	-0.231042
C241	C	0.114785	-0.445188	-0.209518
H242	H	0.077125	-0.516595	-0.225252
H243	H	0.077948	-0.423112	-0.171797
C244	C	0.257832	-0.355150	-0.196381
C245	C	0.211584	-0.442854	-0.215709
H246	H	0.317541	-0.353707	-0.200198
H247	H	0.260200	-0.315489	-0.210881
H248	H	0.227124	-0.336763	-0.164949
H249	H	0.242285	-0.461235	-0.247142
H250	H	0.209222	-0.482518	-0.201215
O251	O	-0.488574	0.185338	0.317851
C252	C	-0.438186	0.160028	0.333525
H253	H	-0.394285	0.117984	0.303511
H254	H	-0.486269	0.118686	0.358160
C255	C	-0.431414	0.296661	0.394774
C256	C	-0.377489	0.245029	0.357910
H257	H	-0.393976	0.349092	0.409818
H258	H	-0.465364	0.313712	0.384215
H259	H	-0.471480	0.262199	0.415299
H260	H	-0.337432	0.279487	0.337383
H261	H	-0.343530	0.227986	0.368466
O262	O	-0.024357	-0.146906	-0.731970
C263	C	-0.100731	-0.142029	-0.693389
H264	H	-0.122547	-0.203399	-0.680856
H265	H	-0.158329	-0.140516	-0.702625
C266	C	-0.050085	0.019533	-0.671089
C267	C	-0.076875	-0.055840	-0.655695
H268	H	-0.035373	0.072700	-0.647838
H269	H	0.001367	0.016248	-0.697083
H270	H	-0.098089	0.020781	-0.678786
H271	H	-0.028868	-0.057093	-0.648003
H272	H	-0.128320	-0.052553	-0.629699
H273	H	0.279916	-0.749353	-0.522691
H274	H	0.182115	-0.525189	-0.530531
O275	O	0.317062	-0.447908	0.038071
C276	C	0.322643	-0.405689	0.082782
H277	H	0.394722	-0.362669	0.081922
H278	H	0.303349	-0.459114	0.100400
C279	C	0.168910	-0.398352	0.110042
C280	C	0.257436	-0.345508	0.108986
H281	H	0.128685	-0.361232	0.126207
H282	H	0.165148	-0.426798	0.079920
H283	H	0.152844	-0.442870	0.124723
H284	H	0.273505	-0.300999	0.094301
H285	H	0.261200	-0.317052	0.139106
O286	O	-0.532399	0.053523	0.351399
C287	C	-0.534069	0.130920	0.388987
H288	H	-0.464774	0.181784	0.383635
H289	H	-0.551799	0.111456	0.421057
C290	C	-0.690658	0.110576	0.400531
C291	C	-0.605550	0.173051	0.393955
H292	H	-0.734753	0.136563	0.403597
H293	H	-0.689535	0.058430	0.375208
H294	H	-0.705420	0.094362	0.427255
H295	H	-0.590784	0.189256	0.367229
H296	H	-0.606672	0.225201	0.419274
O297	O	-0.050616	-0.224902	-0.885685
C298	C	0.022517	-0.210258	-0.924357
H299	H	0.062000	-0.261850	-0.936833
H300	H	0.068878	-0.139544	-0.915261
C301	C	-0.062053	-0.156728	-0.946710
C302	C	-0.013563	-0.220099	-0.962036
H303	H	-0.084307	-0.162793	-0.969952
H304	H	-0.111324	-0.166590	-0.920655
H305	H	-0.023411	-0.097805	-0.939130
H306	H	-0.052208	-0.279020	-0.969610
H307	H	0.035700	-0.210247	-0.988093
H308	H	0.417564	-0.755580	-0.518528
H309	H	-0.037138	-0.474881	-0.380005
O310	O	-0.004919	-0.247676	-0.615586
C311	C	-0.079432	-0.294920	-0.586876
H312	H	-0.104438	-0.367041	-0.607419
H313	H	-0.136056	-0.260371	-0.571159
C314	C	-0.019841	-0.207196	-0.523764
C315	C	-0.050550	-0.295778	-0.548995
H316	H	-0.002028	-0.207722	-0.500396
H317	H	0.030358	-0.175364	-0.543105
H318	H	-0.067034	-0.178415	-0.510671
H319	H	-0.003354	-0.324554	-0.562092
H320	H	-0.100741	-0.327615	-0.529655
H321	H	-0.142704	-0.524425	-0.305055
H322	H	0.245727	-0.224039	-0.533582
H323	H	-0.740818	0.102779	0.123104
H324	H	0.001650	-0.679613	-0.278166
H325	H	0.003321	-0.760550	-0.802778
O326	O	-0.592295	-0.077703	-0.221411
C327	C	-0.536298	-0.136101	-0.240492
H328	H	-0.464195	-0.098885	-0.256448
H329	H	-0.562142	-0.196714	-0.267626
C330	C	-0.626176	-0.213995	-0.183530
C331	C	-0.537616	-0.168283	-0.203124
H332	H	-0.626991	-0.233851	-0.160480
H333	H	-0.663904	-0.174654	-0.170676
H334	H	-0.647703	-0.264500	-0.206146
H335	H	-0.516095	-0.117773	-0.180509
H336	H	-0.499884	-0.207617	-0.215974
O337	O	0.717250	-0.691678	-0.504529
C338	C	0.667758	-0.707655	-0.461849
H339	H	0.595064	-0.706368	-0.452837
H340	H	0.699877	-0.653174	-0.435009
C341	C	0.757787	-0.802020	-0.474725
C342	C	0.668502	-0.800447	-0.463659
H343	H	0.758249	-0.859256	-0.475841
H344	H	0.791134	-0.791254	-0.503479
H345	H	0.784543	-0.756615	-0.452357
H346	H	0.641751	-0.845844	-0.486030
H347	H	0.635151	-0.811223	-0.434909
O348	O	-0.489647	0.070282	-0.377182
C349	C	-0.487950	-0.007119	-0.414769
H350	H	-0.550481	-0.027719	-0.425990
H351	H	-0.487334	-0.064398	-0.404853
C352	C	-0.325656	0.038837	-0.440282
C353	C	-0.402455	0.013541	-0.454066
H354	H	-0.272917	0.051578	-0.464522
H355	H	-0.326798	0.090982	-0.414958
H356	H	-0.325155	-0.008900	-0.432018
H357	H	-0.402960	0.061281	-0.462324
H358	H	-0.401310	-0.038596	-0.479392
O359	O	0.688662	-0.148132	-0.524069
C360	C	0.777833	-0.121546	-0.522023
H361	H	0.803347	-0.183608	-0.534651
H362	H	0.778955	-0.084791	-0.485473
C363	C	0.807923	0.017907	-0.536596
C364	C	0.839262	-0.058319	-0.552109
H365	H	0.845815	0.056911	-0.555153
H366	H	0.747845	-0.000003	-0.537973
H367	H	0.808859	0.048525	-0.506137
H368	H	0.838314	-0.088941	-0.582565
H369	H	0.899341	-0.040413	-0.550738
H370	H	-0.281187	0.020914	-0.148901
O371	O	-0.290821	0.029578	-0.281271
C372	C	-0.265315	-0.050930	-0.307266
H373	H	-0.307875	-0.105068	-0.288962
H374	H	-0.190794	-0.038714	-0.312025
C375	C	-0.228357	-0.015746	-0.376438
C376	C	-0.280635	-0.082243	-0.353959
H377	H	-0.237803	-0.035060	-0.405242
H378	H	-0.245537	0.038495	-0.358926
H379	H	-0.166260	-0.005573	-0.380400
H380	H	-0.342731	-0.092407	-0.349993
H381	H	-0.263466	-0.136487	-0.371472
H382	H	0.413839	-0.532573	0.042316
H383	H	0.245737	-0.223998	-0.033572
O384	O	-0.744826	0.080623	-0.244372
C385	C	-0.821987	0.006453	-0.240933
H386	H	-0.815525	-0.047521	-0.275000
H387	H	-0.884827	0.029211	-0.231080
C388	C	-0.838053	0.033894	-0.162627
C389	C	-0.830112	-0.032401	-0.204468
H390	H	-0.843068	0.009929	-0.140132
H391	H	-0.786070	0.083866	-0.164943
H392	H	-0.890419	0.052853	-0.154422
H393	H	-0.777741	-0.051350	-0.212675
H394	H	-0.882086	-0.082377	-0.202153
O395	O	-0.277352	0.042750	0.218566
C396	C	-0.251860	-0.037766	0.192576
H397	H	-0.294428	-0.091897	0.210885
H398	H	-0.177340	-0.025560	0.187816
C399	C	-0.214895	-0.002599	0.123398
C400	C	-0.267183	-0.069086	0.145883
H401	H	-0.224342	-0.021918	0.094595
H402	H	-0.232066	0.051647	0.140907
H403	H	-0.152799	0.007566	0.119436
H404	H	-0.329277	-0.079242	0.149850
H405	H	-0.250023	-0.123335	0.128373
O406	O	-0.132972	-0.620359	-0.262946
C407	C	-0.197165	-0.643984	-0.285561
H408	H	-0.168586	-0.605669	-0.311971
H409	H	-0.261589	-0.625933	-0.259947
C410	C	-0.253965	-0.792993	-0.276754
C411	C	-0.218861	-0.745939	-0.309194
H412	H	-0.267352	-0.855884	-0.291330
H413	H	-0.210719	-0.777076	-0.261516
H414	H	-0.307648	-0.777940	-0.255411
H415	H	-0.165173	-0.760984	-0.330533
H416	H	-0.262098	-0.761862	-0.324436
H417	H	-0.669612	-0.046576	-0.265443
O418	O	0.013689	-0.700230	-0.648998
C419	C	-0.062996	-0.702885	-0.610548
H420	H	-0.119244	-0.691395	-0.616645
H421	H	-0.044748	-0.647958	-0.579723
C422	C	-0.026342	-0.809614	-0.594466
C423	C	-0.095431	-0.795510	-0.601955
H424	H	-0.046348	-0.866748	-0.589163
H425	H	0.025324	-0.807823	-0.620369
H426	H	-0.011143	-0.763836	-0.568778
H427	H	-0.110621	-0.841282	-0.627644
H428	H	-0.147100	-0.797311	-0.576055
O429	O	-0.580322	0.207600	0.274144
C430	C	-0.562473	0.258856	0.315952
H431	H	-0.500118	0.247484	0.316303
H432	H	-0.622994	0.237240	0.344760
C433	C	-0.622042	0.373374	0.321802
C434	C	-0.545451	0.359413	0.322232
H435	H	-0.611546	0.435402	0.325677
H436	H	-0.634070	0.338841	0.293636
H437	H	-0.672469	0.355354	0.345808
H438	H	-0.495029	0.377422	0.298223
H439	H	-0.533414	0.393952	0.350394
H440	H	0.468233	-0.679598	-0.011487
H441	H	0.718963	-0.692464	-0.005731
H442	H	-0.724884	0.094041	0.248327
O443	O	-0.015787	-0.153079	-0.663199
C444	C	-0.012128	-0.126511	-0.618423
H445	H	0.020308	-0.171467	-0.615416
H446	H	-0.083536	-0.133073	-0.593966
C447	C	0.004674	0.027319	-0.610304
C448	C	0.044519	-0.027892	-0.606612
H449	H	0.039613	0.088153	-0.603017
H450	H	0.002205	0.009420	-0.640469
H451	H	-0.054831	0.021840	-0.589923
H452	H	0.104018	-0.022421	-0.626997
H453	H	0.046999	-0.009990	-0.576449
H454	H	0.001660	-0.441639	-0.159184
H455	H	0.261721	-0.474856	-0.029430
H456	H	0.013390	-0.692483	-0.152899
H457	H	-0.531920	0.039247	-0.151930
H458	H	0.191099	-0.662437	-0.527221
H459	H	0.780052	-0.386407	-0.516111
H460	H	0.702991	-0.441593	-0.009870
O461	O	-0.442940	0.188208	-0.304210
C462	C	-0.357267	0.236722	-0.297689
H463	H	-0.330349	0.192598	-0.290511
H464	H	-0.363453	0.299572	-0.267716
C465	C	-0.324748	0.318613	-0.349569
C466	C	-0.291684	0.264417	-0.340756
H467	H	-0.284293	0.335701	-0.376133
H468	H	-0.382469	0.285931	-0.353960
H469	H	-0.329902	0.370981	-0.324588
H470	H	-0.286541	0.212045	-0.365734
H471	H	-0.233960	0.297091	-0.336370
O472	O	-0.015740	-0.674113	-0.922434
C473	C	-0.011999	-0.763653	-0.935449
H474	H	-0.036404	-0.787161	-0.903928
H475	H	0.060610	-0.767296	-0.954751
C476	C	-0.043055	-0.795912	-1.004887
C477	C	-0.073037	-0.824788	-0.966172
H478	H	-0.080702	-0.833623	-1.023840
H479	H	-0.045572	-0.735587	-0.996120
H480	H	0.017453	-0.798949	-1.020967
H481	H	-0.133538	-0.821740	-0.950090
H482	H	-0.070531	-0.885114	-0.974937
O483	O	0.647726	-0.468341	-0.077346
C484	C	0.672445	-0.421340	-0.109113
H485	H	0.632638	-0.369310	-0.094464
H486	H	0.656812	-0.470806	-0.141661
C487	C	0.823227	-0.437364	-0.137625
C488	C	0.774341	-0.373454	-0.119631
H489	H	0.886082	-0.407829	-0.144116
H490	H	0.806573	-0.469033	-0.116225
H491	H	0.810190	-0.478581	-0.164747
H492	H	0.787370	-0.332246	-0.092508
H493	H	0.791000	-0.341777	-0.141028
H494	H	-0.048864	-0.224020	-0.386283
O495	O	-0.024007	-0.536760	-0.926046
C496	C	0.055133	-0.565064	-0.952794
H497	H	0.085115	-0.573444	-0.930154
H498	H	0.106393	-0.512504	-0.970803
C499	C	-0.004988	-0.645370	-1.016076
C500	C	0.031832	-0.655669	-0.988269
H501	H	-0.019359	-0.701257	-1.037960
H502	H	-0.058305	-0.626298	-0.998056
H503	H	0.037734	-0.601567	-1.031079
H504	H	-0.010895	-0.699463	-0.973263
H505	H	0.085141	-0.674750	-1.006288
O506	O	-0.476148	0.083396	0.122696
C507	C	-0.469622	0.002348	0.122902
H508	H	-0.539055	-0.048426	0.127034
H509	H	-0.444068	0.015864	0.152296
C510	C	-0.317941	0.026509	0.072764
C511	C	-0.403219	-0.035856	0.077835
H512	H	-0.276978	0.002944	0.044966
H513	H	-0.322336	0.081114	0.072627
H514	H	-0.296658	0.037766	0.097262
H515	H	-0.424506	-0.047103	0.053341
H516	H	-0.398827	-0.090464	0.077968
O517	O	-0.004505	-0.768407	-0.874767
C518	C	0.076498	-0.776708	-0.875486
H519	H	0.103244	-0.718984	-0.847692
H520	H	0.128759	-0.774273	-0.909906
C521	C	0.025403	-0.937937	-0.901457
C522	C	0.058250	-0.867044	-0.867317
H523	H	0.014150	-0.993662	-0.896420
H524	H	-0.029168	-0.932345	-0.900974
H525	H	0.068960	-0.935896	-0.930137
H526	H	0.014689	-0.869079	-0.838639
H527	H	0.112814	-0.872639	-0.867795
O528	O	0.557047	-0.377216	-0.087054
C529	C	0.566524	-0.283868	-0.068232
H530	H	0.568054	-0.262737	-0.031796
H531	H	0.506990	-0.267536	-0.068600
C532	C	0.653352	-0.258462	-0.141144
C533	C	0.655239	-0.232507	-0.096394
H534	H	0.708072	-0.226779	-0.158517
H535	H	0.646964	-0.321352	-0.153826
H536	H	0.603736	-0.244850	-0.141445
H537	H	0.704847	-0.246129	-0.096094
H538	H	0.661637	-0.169618	-0.083714
O539	O	-0.519796	-0.048603	0.156209
C540	C	-0.474826	-0.114284	0.143785
H541	H	-0.469517	-0.119214	0.175476
H542	H	-0.404135	-0.094503	0.119924
C543	C	-0.534884	-0.200036	0.080711
C544	C	-0.528371	-0.206097	0.119635
H545	H	-0.567909	-0.256670	0.065813
H546	H	-0.565179	-0.155784	0.089080
H547	H	-0.475971	-0.183548	0.060832
H548	H	-0.587282	-0.222573	0.139516
H549	H	-0.498086	-0.250354	0.111269
O550	O	0.510476	-0.230401	-0.027518
C551	C	0.517022	-0.230951	0.012920
H552	H	0.459623	-0.287387	0.025958
H553	H	0.512105	-0.163569	0.039512
C554	C	0.678849	-0.177021	-0.012452
C555	C	0.608355	-0.246341	0.003558
H556	H	0.735189	-0.186510	-0.018226
H557	H	0.674440	-0.176647	-0.039696
H558	H	0.674740	-0.120876	0.009710
H559	H	0.612459	-0.302483	-0.018606
H560	H	0.612767	-0.246725	0.030798
H561	H	-0.434254	-0.059305	0.203012
H562	H	-0.267732	0.034117	0.350946
H563	H	0.771070	-0.249160	-0.519423
H564	H	-0.365918	0.157102	-0.260160
H565	H	0.544602	-0.156012	-0.528109
H566	H	0.003251	-0.391359	-0.619081
