data_functionalizedCrystal
_audit_creation_method	'MofGen! by Chris Wilmer'
_symmetry_space_group_name_H-M	'P1'
_symmetry_Int_Tables_number	1
_symmetry_cell_setting	triclinic
loop_
_symmetry_equiv_pos_as_xyz
  x,y,z
_cell_length_a	13.635800
_cell_length_b	9.109307
_cell_length_c	9.582880
_cell_angle_alpha	83.728948
_cell_angle_beta	111.207034
_cell_angle_gamma	68.235001
loop_
_atom_site_label
_atom_site_type_symbol
_atom_site_fract_x
_atom_site_fract_y
_atom_site_fract_z
V1	V	2.088746	-0.224628	0.495453
O2	O	2.049635	0.011501	0.456242
O3	O	2.094220	-0.446079	0.520706
O4	O	2.083623	-0.220862	0.698471
O5	O	2.060306	-0.215275	0.277247
V6	V	2.324243	-0.196421	0.465875
O7	O	2.233117	-0.286502	0.560337
O8	O	2.404971	-0.134546	0.400992
O9	O	2.207166	0.025031	0.440622
O10	O	2.422052	-0.432550	0.505086
O11	O	2.411382	-0.205774	0.684081
O12	O	2.217763	-0.200186	0.262858
V13	V	2.588746	-0.224628	0.495453
O14	O	2.549635	0.011501	0.456242
O15	O	2.594220	-0.446079	0.520706
O16	O	2.583623	-0.220862	0.698471
O17	O	2.560306	-0.215275	0.277247
V18	V	2.824243	-0.196421	0.465875
O19	O	2.733117	-0.286502	0.560337
O20	O	2.904971	-0.134546	0.400992
O21	O	2.707166	0.025031	0.440622
O22	O	2.922052	-0.432550	0.505086
O23	O	2.911382	-0.205774	0.684081
O24	O	2.717763	-0.200186	0.262858
C25	C	2.023322	-0.500074	0.520281
C26	C	2.068568	-0.681111	0.542281
C27	C	2.009803	-0.212785	0.747035
C28	C	2.046453	-0.211172	0.913191
C29	C	2.109735	0.079017	0.441044
C30	C	2.054109	0.260053	0.419054
C31	C	2.123253	-0.208268	0.214286
C32	C	2.076222	-0.209873	0.048128
C33	C	2.523322	-0.500074	0.520281
C34	C	2.568568	-0.681111	0.542281
C35	C	2.509803	-0.212785	0.747035
C36	C	2.546453	-0.211172	0.913191
C37	C	2.609735	0.079017	0.441044
C38	C	2.554109	0.260053	0.419054
C39	C	2.623253	-0.208268	0.214286
C40	C	2.576222	-0.209873	0.048128
C41	C	2.682727	-0.774421	0.561155
C42	C	2.725261	-0.944530	0.581851
C43	C	2.653632	-1.021324	0.583661
C44	C	2.539464	-0.928002	0.564789
C45	C	2.496935	-0.757898	0.544105
C46	C	2.612445	0.353361	0.400184
C47	C	2.560184	0.523469	0.379496
C48	C	2.449591	0.600263	0.377690
C49	C	2.391250	0.506942	0.396557
C50	C	2.443508	0.336840	0.417233
H51	H	2.007134	-0.651818	0.296691
H52	H	2.301199	0.569494	0.395081
H53	H	2.702498	0.290859	0.401653
C54	C	2.231443	-0.780870	0.795362
C55	C	2.131997	-0.800085	0.707484
H56	H	2.270603	-0.854327	0.897345
H57	H	2.208341	-0.670744	0.801718
H58	H	2.282837	-0.804534	0.746630
H59	H	2.080599	-0.776408	0.756210
H60	H	2.155097	-0.910235	0.701134
C61	C	2.777064	-0.614466	0.679839
C62	C	2.761480	-0.690036	0.559176
H63	H	2.825686	-0.562374	0.678616
H64	H	2.813089	-0.695221	0.777102
H65	H	2.702984	-0.534531	0.665614
H66	H	2.835560	-0.769980	0.573408
H67	H	2.725458	-0.609272	0.461891
C68	C	2.271282	0.337622	0.432058
C69	C	2.379382	0.234281	0.438001
H70	H	2.231694	0.274308	0.444888
H71	H	2.224881	0.419045	0.334071
H72	H	2.283965	0.389578	0.513204
H73	H	2.366698	0.182334	0.356847
H74	H	2.425793	0.152828	0.536000
C75	C	2.351540	-0.894617	0.545824
C76	C	2.460732	-1.012426	0.566762
H77	H	2.302937	-0.946744	0.547043
H78	H	2.315511	-0.813869	0.448556
H79	H	2.362120	-0.843363	0.627693
H80	H	2.450152	-1.063672	0.484886
H81	H	2.496768	-1.093204	0.664042
H82	H	2.818222	-1.020488	0.597210
H83	H	2.607705	0.599427	0.364139
H84	H	2.688276	-1.159834	0.600504
H85	H	2.403975	-0.681936	0.528731
H86	H	2.407052	0.738772	0.360852
