data_functionalizedCrystal
_audit_creation_method	'MofGen! by Chris Wilmer'
_symmetry_space_group_name_H-M	'P1'
_symmetry_Int_Tables_number	1
_symmetry_cell_setting	triclinic
loop_
_symmetry_equiv_pos_as_xyz
  x,y,z
_cell_length_a	10.654546
_cell_length_b	14.853576
_cell_length_c	9.130313
_cell_angle_alpha	89.999805
_cell_angle_beta	89.998822
_cell_angle_gamma	84.060983
loop_
_atom_site_label
_atom_site_type_symbol
_atom_site_fract_x
_atom_site_fract_y
_atom_site_fract_z
O1	O	1.666527	0.126607	-0.121828
O2	O	1.300923	0.138674	-0.121823
O3	O	1.493485	0.001463	-0.121820
O4	O	1.473965	0.263817	-0.121831
O5	O	1.493483	0.001467	0.121779
O6	O	1.300921	0.138678	0.121776
O7	O	1.666524	0.126610	0.121771
Cu8	Cu	1.483722	0.132644	0.144016
Cu9	Cu	1.483725	0.132640	-0.144068
O10	O	1.473962	0.263821	0.121768
C11	C	1.254133	0.137790	-0.000023
C12	C	1.114717	0.135141	-0.000022
C13	C	1.049236	0.133886	-0.132814
C14	C	0.918241	0.131390	-0.132826
C15	C	0.918220	0.131401	0.132759
C16	C	1.049211	0.133904	0.132769
C17	C	1.114742	0.135124	-0.265605
C18	C	1.049262	0.133867	-0.398408
C19	C	0.918267	0.131371	-0.398420
C20	C	0.852752	0.130131	-0.265628
C21	C	1.492597	-0.032128	-0.000022
C22	C	1.489941	-0.132226	-0.000027
C23	C	1.488692	-0.179249	-0.132819
C24	C	1.488704	-0.179259	0.132761
C25	C	1.486215	-0.273306	0.132762
C26	C	1.484966	-0.320330	-0.000031
C27	C	1.486207	-0.273306	-0.132823
C28	C	1.484987	-0.320338	0.265552
C29	C	1.482500	-0.414391	0.265557
C30	C	1.481242	-0.461416	0.132763
C31	C	1.482481	-0.414386	-0.000034
C32	C	1.481232	-0.461410	-0.132827
C33	C	1.482462	-0.414381	-0.265626
C34	C	1.484949	-0.320330	-0.265617
C35	C	1.478755	-0.555466	0.132754
C36	C	1.478747	-0.555466	-0.132831
C37	C	1.713314	0.127494	-0.000032
C38	C	1.852731	0.130143	-0.000043
C39	C	1.474850	0.297412	-0.000033
C40	C	1.477506	0.397510	-0.000038
N41	N	1.483729	0.132647	0.346638
N42	N	1.483728	0.132630	-0.346691
C43	C	1.569018	0.071911	0.423292
C44	C	1.569014	0.071900	0.576629
C45	C	1.398431	0.193369	0.576645
C46	C	1.398429	0.193375	0.423311
C47	C	1.654318	0.011183	0.346619
C48	C	1.739614	-0.049558	0.423273
C49	C	1.739611	-0.049569	0.576610
C50	C	1.654312	0.011161	0.653293
H51	H	1.102611	0.134884	-0.506522
O52	O	1.112990	0.135002	0.261667
C53	C	1.274934	0.059841	0.415843
C54	C	1.202823	0.058491	0.269799
H55	H	1.347561	-0.002021	0.422480
H56	H	1.324959	0.123953	0.422495
H57	H	1.205589	0.058563	0.510728
H58	H	1.272082	0.059736	0.174831
H59	H	1.152777	-0.005616	0.263275
H60	H	0.864868	0.130390	0.240872
H61	H	1.654308	0.011141	0.778150
H62	H	0.864954	0.130357	-0.506554
H63	H	1.809054	-0.099031	0.639020
H64	H	0.746085	0.128109	-0.265649
O65	O	1.822341	-0.108689	0.348884
C66	C	1.895688	-0.264974	0.302103
C67	C	1.801909	-0.198095	0.386389
H68	H	1.879220	-0.337272	0.332418
H69	H	1.881068	-0.254636	0.179318
H70	H	1.996276	-0.252514	0.332252
H71	H	1.701285	-0.210514	0.356363
H72	H	1.816639	-0.208449	0.509154
H73	H	1.477721	-0.593745	-0.240968
O74	O	1.481192	-0.460198	-0.394487
C75	C	1.477450	-0.605104	-0.512167
C76	C	1.478855	-0.553322	-0.366135
H77	H	1.475587	-0.680406	-0.489295
H78	H	1.390092	-0.578990	-0.577664
H79	H	1.565731	-0.594251	-0.577662
H80	H	1.390635	-0.564153	-0.300522
H81	H	1.566270	-0.579446	-0.300748
O82	O	1.315409	0.252270	0.651067
C83	C	1.097147	0.303673	0.697941
C84	C	1.191027	0.236900	0.613595
H85	H	0.996564	0.291283	0.667653
H86	H	1.111693	0.293236	0.820717
H87	H	1.113695	0.375987	0.667819
H88	H	1.174536	0.164560	0.643595
H89	H	1.176459	0.247417	0.490840
H90	H	1.221405	0.137154	-0.265610
O91	O	1.489667	-0.133591	-0.261851
C92	C	1.381745	-0.095331	-0.488876
C93	C	1.380467	-0.147065	-0.342788
H94	H	1.293480	-0.106222	-0.554368
H95	H	1.383652	-0.020015	-0.466155
H96	H	1.469114	-0.121510	-0.554304
H97	H	1.293112	-0.120963	-0.277287
H98	H	1.378626	-0.222375	-0.365613
H99	H	1.485955	-0.282032	-0.373735
O100	O	1.490118	-0.133650	0.261794
C101	C	1.599500	-0.114450	0.488861
C102	C	1.598088	-0.166157	0.342758
H103	H	1.686771	-0.140725	0.554375
H104	H	1.601564	-0.039145	0.466160
H105	H	1.511143	-0.125244	0.554256
H106	H	1.686428	-0.155437	0.277290
H107	H	1.595958	-0.241444	0.365562
O108	O	1.477786	-0.601209	0.261701
C109	C	1.583668	-0.716965	0.415774
C110	C	1.584937	-0.665220	0.269695
H111	H	1.670276	-0.768743	0.422271
H112	H	1.585077	-0.667248	0.510740
H113	H	1.494648	-0.753256	0.422410
H114	H	1.673942	-0.628927	0.262915
H115	H	1.583461	-0.714980	0.174798
O116	O	1.654452	0.011044	0.197670
C117	C	1.748111	-0.055546	-0.022384
C118	C	1.748075	-0.055504	0.146297
H119	H	1.823814	-0.109332	-0.063971
H120	H	1.651815	-0.071052	-0.064099
H121	H	1.768785	0.013771	-0.063962
H122	H	1.727453	-0.124801	0.187999
H123	H	1.844378	-0.039948	0.187912
O124	O	1.315711	0.252500	0.348903
C125	C	1.242339	0.408771	0.302049
C126	C	1.336112	0.341916	0.386383
H127	H	1.258782	0.481078	0.332343
H128	H	1.256990	0.398417	0.179271
H129	H	1.141749	0.396303	0.332178
H130	H	1.436738	0.354343	0.356377
H131	H	1.321350	0.352285	0.509140
H132	H	1.486014	-0.282045	0.373664
H133	H	1.481497	-0.452674	0.373691
