data_functionalizedCrystal
_audit_creation_method	'MofGen! by Chris Wilmer'
_symmetry_space_group_name_H-M	'P1'
_symmetry_Int_Tables_number	1
_symmetry_cell_setting	triclinic
loop_
_symmetry_equiv_pos_as_xyz
  x,y,z
_cell_length_a	6.817900
_cell_length_b	11.102210
_cell_length_c	14.125465
_cell_angle_alpha	94.634499
_cell_angle_beta	100.398878
_cell_angle_gamma	108.604261
loop_
_atom_site_label
_atom_site_type_symbol
_atom_site_fract_x
_atom_site_fract_y
_atom_site_fract_z
V1	V	-4.017259	-0.174747	-0.299974
O2	O	-3.978095	0.009521	-0.294266
O3	O	-3.994672	-0.347574	-0.297921
O4	O	-3.952929	-0.171566	-0.430804
O5	O	-4.020127	-0.167706	-0.160462
V6	V	-4.499606	-0.152764	-0.283288
O7	O	-4.281096	-0.222967	-0.336577
O8	O	-4.685966	-0.104545	-0.246685
O9	O	-4.298986	0.020063	-0.285341
O10	O	-4.656167	-0.337032	-0.288996
O11	O	-4.614135	-0.159805	-0.422800
O12	O	-4.340730	-0.155945	-0.152458
C13	C	-3.846468	-0.389721	-0.293188
C14	C	-3.909181	-0.531006	-0.292381
C15	C	-3.965114	-0.712324	-0.203151
C16	C	-3.906168	-0.579569	-0.203898
C17	C	-3.971126	-0.615205	-0.380121
C18	C	-4.030056	-0.747957	-0.379373
C19	C	-3.669309	-0.372592	-0.095982
C20	C	-3.607396	-0.288399	-0.008244
C21	C	-3.715166	-0.319901	0.066706
C22	C	-3.884896	-0.435596	0.053920
C23	C	-3.946825	-0.519783	-0.033820
C24	C	-3.839007	-0.488280	-0.108764
C25	C	-4.266931	-0.954936	-0.487283
C26	C	-4.328875	-1.039126	-0.575024
C27	C	-4.221121	-1.007629	-0.649983
C28	C	-4.051423	-0.891933	-0.637207
C29	C	-3.989479	-0.807743	-0.549466
C30	C	-4.097233	-0.839250	-0.474508
C31	C	-3.793219	-0.165203	-0.462693
C32	C	-3.822077	-0.163746	-0.569647
C33	C	-3.874970	-0.161074	-0.765470
C34	C	-4.061263	-0.166434	-0.817792
C35	C	-4.090696	-0.164948	-0.926754
C36	C	-3.845530	-0.162561	-0.656498
C37	C	-4.110534	0.062203	-0.290072
C38	C	-4.027058	0.203487	-0.290885
C39	C	-4.163783	-0.162312	-0.120564
C40	C	-4.114163	-0.163763	-0.013609
H41	H	-4.085016	-0.613978	-0.044230
C42	C	-3.689328	-0.153260	-0.815495
N43	N	-3.549493	-0.147337	-0.853181
H44	H	-3.962662	-0.751854	-0.131099
C45	C	-4.246876	-0.174159	-0.767756
N46	N	-4.386675	-0.179984	-0.730066
H47	H	-3.664749	-0.251342	0.138143
C48	C	-3.420678	-0.161146	0.005820
N49	N	-3.280048	-0.065298	0.016416
C50	C	-4.003456	-0.470233	0.136371
N51	N	-4.092753	-0.496326	0.198476
H52	H	-3.581524	-0.346938	-0.157002
C53	C	-3.974435	-0.561781	-0.477453
N54	N	-3.976936	-0.521543	-0.550765
H55	H	-3.963686	-0.866285	-0.698245
C56	C	-3.802793	-0.680478	-0.535413
N57	N	-3.662180	-0.584624	-0.524827
C58	C	-4.515542	-1.166400	-0.589072
N59	N	-4.656128	-1.262265	-0.599650
H60	H	-4.271585	-1.076186	-0.721428
H61	H	-4.354671	-0.980600	-0.426246
