data_functionalizedCrystal
_audit_creation_method	'MofGen! by Chris Wilmer'
_symmetry_space_group_name_H-M	'P1'
_symmetry_Int_Tables_number	1
_symmetry_cell_setting	triclinic
loop_
_symmetry_equiv_pos_as_xyz
  x,y,z
_cell_length_a	10.654550
_cell_length_b	14.971486
_cell_length_c	9.130313
_cell_angle_alpha	89.995272
_cell_angle_beta	89.999724
_cell_angle_gamma	84.049530
loop_
_atom_site_label
_atom_site_type_symbol
_atom_site_fract_x
_atom_site_fract_y
_atom_site_fract_z
O1	O	1.666492	0.125631	-0.121691
O2	O	1.300885	0.137600	-0.121718
O3	O	1.493487	0.001469	-0.121693
O4	O	1.473889	0.261762	-0.121716
O5	O	1.493474	0.001465	0.121906
O6	O	1.300872	0.137596	0.121881
O7	O	1.666479	0.125627	0.121908
Cu8	Cu	1.483674	0.131611	0.144137
Cu9	Cu	1.483689	0.131616	-0.143947
O10	O	1.473876	0.261758	0.121883
C11	C	1.254090	0.136720	0.000078
C12	C	1.114675	0.134090	0.000068
C13	C	1.034329	0.214242	0.000065
C14	C	0.903335	0.211766	0.000091
C15	C	0.933044	0.048979	0.000116
C16	C	1.064036	0.051456	0.000101
C17	C	1.492604	-0.031863	0.000106
C18	C	1.489978	-0.131174	0.000104
C19	C	1.603127	-0.187783	0.000114
C20	C	1.600651	-0.281096	0.000099
C21	C	1.485026	-0.317798	0.000085
C22	C	1.371868	-0.261181	0.000071
C23	C	1.374345	-0.167870	0.000075
C24	C	1.366714	-0.455672	0.000065
C25	C	1.364237	-0.548989	0.000064
C26	C	1.593020	-0.568898	0.000089
C27	C	1.595497	-0.475587	0.000093
C28	C	1.482339	-0.418976	0.000082
C29	C	1.713274	0.126508	0.000109
C30	C	1.852689	0.129137	0.000109
C31	C	1.474759	0.295090	0.000081
C32	C	1.477385	0.394401	0.000073
N33	N	1.483672	0.131608	0.346760
N34	N	1.483701	0.131613	-0.346570
C35	C	1.568985	0.071354	0.423422
C36	C	1.568997	0.071354	0.576759
C37	C	1.398379	0.191869	0.576757
C38	C	1.398362	0.191864	0.423423
H39	H	1.129457	-0.013817	0.000107
H40	H	0.837922	0.277034	0.000092
C41	C	1.728794	-0.148113	0.000049
C42	C	1.827354	-0.217667	0.000010
C43	C	1.943139	-0.181160	-0.000077
H44	H	1.734697	-0.112143	0.084974
H45	H	1.734585	-0.112148	-0.084934
H46	H	1.821566	-0.253617	0.084984
H47	H	1.821493	-0.253642	-0.084909
H48	H	1.948930	-0.145194	-0.085059
H49	H	1.949029	-0.145191	0.084850
H50	H	2.010026	-0.228346	-0.000117
H51	H	1.075554	0.281528	0.000050
H52	H	0.891798	-0.018299	0.000152
C53	C	1.661651	0.005829	0.340451
C54	C	1.736343	-0.046955	0.440417
C55	C	1.821708	-0.107339	0.364042
H56	H	1.714086	0.038244	0.280613
H57	H	1.616449	-0.031757	0.280684
H58	H	1.781541	-0.009375	0.500158
H59	H	1.683942	-0.079390	0.500258
H60	H	1.776506	-0.144924	0.304275
H61	H	1.874134	-0.074916	0.304207
H62	H	1.872388	-0.143165	0.431857
C63	C	1.723465	-0.342598	-0.000195
C64	C	1.728758	-0.396720	-0.125549
C65	C	1.841889	-0.453375	-0.125884
H66	H	1.727375	-0.379506	0.084648
H67	H	1.792713	-0.307403	-0.000259
H68	H	1.659529	-0.431912	-0.125471
H69	H	1.724869	-0.359836	-0.210411
H70	H	1.911137	-0.418180	-0.125949
H71	H	1.845789	-0.490277	-0.041036
H72	H	1.845500	-0.490098	-0.210941
H73	H	1.689649	-0.445708	0.000115
H74	H	1.685158	-0.614995	0.000093
H75	H	1.270084	-0.578868	0.000076
H76	H	1.328884	0.240930	0.361000
H77	H	1.274568	-0.409581	0.000053
H78	H	1.638465	0.022290	0.639174
C79	C	1.246421	-0.301149	-0.000173
C80	C	1.238338	-0.354151	-0.125480
C81	C	1.122799	-0.390992	-0.125739
H82	H	1.179277	-0.254163	-0.000255
H83	H	1.240683	-0.337190	0.084732
H84	H	1.244063	-0.318112	-0.210362
H85	H	1.305454	-0.401152	-0.125424
H86	H	1.117062	-0.427033	-0.040834
H87	H	1.055665	-0.343999	-0.125818
H88	H	1.117305	-0.426964	-0.210751
C89	C	1.305565	0.257186	0.659922
C90	C	1.182141	0.241841	0.622680
C91	C	1.096608	0.301986	0.699276
H92	H	1.319108	0.317012	0.634842
H93	H	1.317711	0.248555	0.762236
H94	H	1.170000	0.250479	0.520390
H95	H	1.168558	0.182026	0.647765
H96	H	1.108754	0.293355	0.801590
H97	H	1.110163	0.361809	0.674189
H98	H	1.012856	0.291577	0.674029
C99	C	1.251400	-0.106510	-0.000162
C100	C	1.181783	-0.123211	-0.125478
C101	C	1.068510	-0.066712	-0.125745
H102	H	1.269256	-0.045652	-0.000237
H103	H	1.203916	-0.117726	0.084737
H104	H	1.229257	-0.111987	-0.210354
H105	H	1.163893	-0.184057	-0.125429
H106	H	1.021026	-0.077929	-0.040846
H107	H	1.086378	-0.005858	-0.125816
H108	H	1.021255	-0.078042	-0.210763
