data_functionalizedCrystal
_audit_creation_method	'MofGen! by Chris Wilmer'
_symmetry_space_group_name_H-M	'P1'
_symmetry_Int_Tables_number	1
_symmetry_cell_setting	triclinic
loop_
_symmetry_equiv_pos_as_xyz
  x,y,z
_cell_length_a	12.759401
_cell_length_b	14.908520
_cell_length_c	14.908294
_cell_angle_alpha	83.639163
_cell_angle_beta	86.719911
_cell_angle_gamma	93.322137
loop_
_atom_site_label
_atom_site_type_symbol
_atom_site_fract_x
_atom_site_fract_y
_atom_site_fract_z
Zn1	Zn	1.544170	-0.389839	0.532531
Zn2	Zn	2.044170	0.110161	1.032531
Zn3	Zn	1.544052	-0.532484	0.389901
Zn4	Zn	2.044052	-0.032484	0.889901
Zn5	Zn	1.379239	-0.381145	0.381192
Zn6	Zn	1.879239	0.118855	0.881192
Zn7	Zn	1.357684	-0.541162	0.541214
Zn8	Zn	1.857684	-0.041162	1.041214
O9	O	1.456286	-0.461158	0.461209
O10	O	1.956286	0.038842	0.961209
O11	O	1.691174	-0.408768	0.513621
O12	O	2.191174	0.091232	1.013621
O13	O	1.531161	-0.505139	0.262085
O14	O	2.031161	-0.005139	0.762085
O15	O	1.410188	-0.255634	0.393989
O16	O	1.910188	0.244366	0.893989
O17	O	1.691087	-0.513569	0.408831
O18	O	2.191087	-0.013569	0.908831
O19	O	1.531362	-0.262021	0.505176
O20	O	2.031362	0.237979	1.005176
O21	O	1.410073	-0.393951	0.255686
O22	O	1.910073	0.106049	0.755686
O23	O	1.229360	-0.402365	0.402409
O24	O	1.729360	0.097635	0.902409
O25	O	1.373450	-0.528359	0.666723
O26	O	1.873450	-0.028359	1.166723
O27	O	1.213523	-0.519928	0.519977
O28	O	1.713523	-0.019928	1.019977
O29	O	1.510461	-0.417183	0.660343
O30	O	2.010461	0.082817	1.160343
O31	O	1.510259	-0.660300	0.417252
O32	O	2.010259	-0.160300	0.917252
O33	O	1.373335	-0.666676	0.528421
O34	O	1.873335	-0.166676	1.028421
C35	C	1.183321	-0.461146	0.461191
C36	C	1.683321	0.038854	0.961191
C37	C	1.066542	-0.461163	0.461206
C38	C	1.566542	0.038837	0.961206
C39	C	1.439473	-0.696332	0.474743
C40	C	1.939473	-0.196332	0.974743
C41	C	1.432374	-0.796942	0.480564
C42	C	1.932374	-0.296942	0.980564
C43	C	1.003462	-0.522461	0.522337
C44	C	1.503462	-0.022461	1.022337
C45	C	0.893736	-0.522466	0.522355
C46	C	1.393736	-0.022466	1.022355
C47	C	0.910182	-0.399871	0.400103
C48	C	1.410182	0.100129	0.900103
C49	C	1.019905	-0.399863	0.400089
C50	C	1.519905	0.100137	0.900089
C51	C	1.561744	-0.979305	0.375833
C52	C	2.061744	-0.479305	0.875833
C53	C	1.555078	-1.073837	0.381298
C54	C	2.055078	-0.573837	0.881298
C55	C	1.412380	-1.080540	0.496964
C56	C	1.912380	-0.580540	0.996964
C57	C	1.419047	-0.986008	0.491499
C58	C	1.919047	-0.486008	0.991499
C59	C	1.493730	-0.935394	0.430930
C60	C	1.993730	-0.435394	0.930930
C61	C	1.500391	-0.840860	0.425460
C62	C	2.000391	-0.340860	0.925460
C63	C	1.357699	-0.847565	0.541130
C64	C	1.857699	-0.347565	1.041130
C65	C	1.351032	-0.942097	0.546596
C66	C	1.851032	-0.442097	1.046596
C67	C	1.730317	-0.461170	0.461229
C68	C	2.230317	0.038830	0.961229
C69	C	1.847093	-0.461176	0.461237
C70	C	2.347093	0.038824	0.961237
C71	C	1.439564	-0.474708	0.697294
C72	C	1.939564	0.025292	1.197294
C73	C	1.432438	-0.480483	0.797898
C74	C	1.932438	0.019517	1.297898
C75	C	1.473193	-0.225066	0.447643
C76	C	1.973193	0.274934	0.947643
C77	C	1.480397	-0.124458	0.441861
C78	C	1.980397	0.375542	0.941861
C79	C	1.473008	-0.447594	0.226040
C80	C	1.973008	0.052406	0.726040
C81	C	1.480356	-0.441565	0.125421
C82	C	1.980356	0.058435	0.625421
C83	C	1.351064	-0.546494	0.943019
C84	C	1.851064	-0.046494	1.443019
C85	C	1.357757	-0.541075	0.848492
C86	C	1.857757	-0.041075	1.348492
C87	C	1.500429	-0.425304	0.841838
C88	C	2.000429	0.074696	1.341838
C89	C	1.493736	-0.430723	0.936365
C90	C	1.993736	0.069277	1.436365
C91	C	1.419052	-0.491321	0.986952
C92	C	1.919052	0.008679	1.486952
C93	C	1.412365	-0.496744	1.081481
C94	C	1.912365	0.003256	1.581481
C95	C	1.555032	-0.380969	1.074826
C96	C	2.055032	0.119031	1.574826
C97	C	1.561725	-0.375550	0.980299
C98	C	2.061725	0.124450	1.480299
H99	H	1.041430	-0.572374	0.572104
H100	H	1.541430	-0.072374	1.072104
N101	N	1.642279	-0.924706	0.310501
N102	N	2.142279	-0.424706	0.810501
H103	H	1.684352	-0.966869	0.276421
H104	H	2.184352	-0.466869	0.776421
H105	H	1.691023	-0.887549	0.345110
H106	H	2.191023	-0.387549	0.845110
N107	N	1.270511	-0.611834	0.997598
N108	N	1.770511	-0.111834	1.497598
H109	H	1.307423	-0.656027	1.039239
H110	H	1.807423	-0.156027	1.539239
H111	H	1.228469	-0.645906	0.955371
H112	H	1.728469	-0.145906	1.455371
H113	H	0.872196	-0.349964	0.350343
H114	H	1.372196	0.150036	0.850343
H115	H	1.071268	-0.349941	0.350308
H116	H	1.571268	0.150059	0.850308
H117	H	0.842380	-0.572380	0.572136
H118	H	1.342380	-0.072380	1.072136
H119	H	1.561199	-0.799650	0.376140
H120	H	2.061199	-0.299650	0.876140
N121	N	1.270476	-0.996687	0.611914
N122	N	1.770476	-0.496687	1.111914
H123	H	1.283302	-0.983914	0.675647
H124	H	1.783302	-0.483914	1.175647
H125	H	1.276610	-1.063216	0.606940
H126	H	1.776610	-0.563216	1.106940
N127	N	1.580979	-0.359968	0.787249
N128	N	2.080979	0.140032	1.287249
H129	H	1.568149	-0.296228	0.799957
H130	H	2.068149	0.203772	1.299957
H131	H	1.574838	-0.365008	0.720728
H132	H	2.074838	0.134992	1.220728
H133	H	1.302387	-0.585997	0.812725
H134	H	1.802387	-0.085997	1.312725
H135	H	1.302314	-0.811802	0.585992
H136	H	1.802314	-0.311802	1.085992
N137	N	1.642297	-0.310215	0.925736
N138	N	2.142297	0.189785	1.425736
H139	H	1.636230	-0.315160	0.859187
H140	H	2.136230	0.184840	1.359187
H141	H	1.715138	-0.325284	0.943089
H142	H	2.215138	0.174716	1.443089
N143	N	1.628437	-1.121201	0.321875
N144	N	2.128437	-0.621201	0.821875
H145	H	1.676758	-1.074790	0.282679
H146	H	2.176758	-0.574790	0.782679
H147	H	1.585915	-1.158065	0.282223
H148	H	2.085915	-0.658065	0.782223
H149	H	1.351583	-1.121767	0.546282
H150	H	1.851583	-0.621767	1.046282
H151	H	1.351555	-0.546088	1.122668
H152	H	1.851555	-0.046088	1.622668
H153	H	1.610395	-0.336044	1.110606
H154	H	2.110395	0.163956	1.610606
