data_functionalizedCrystal
_audit_creation_method	'MofGen! by Chris Wilmer'
_symmetry_space_group_name_H-M	'P1'
_symmetry_Int_Tables_number	1
_symmetry_cell_setting	triclinic
loop_
_symmetry_equiv_pos_as_xyz
  x,y,z
_cell_length_a	19.902436
_cell_length_b	14.809436
_cell_length_c	14.809374
_cell_angle_alpha	60.797024
_cell_angle_beta	89.995950
_cell_angle_gamma	67.426227
loop_
_atom_site_label
_atom_site_type_symbol
_atom_site_fract_x
_atom_site_fract_y
_atom_site_fract_z
Zr1	Zr	0.742119	0.955311	-0.203811
O2	O	0.659812	1.113225	-0.350961
O3	O	0.755702	0.777543	-0.145732
O4	O	0.783182	0.926697	-0.332280
O5	O	0.623906	0.993566	-0.032015
O6	O	0.893750	0.926711	-0.332297
O7	O	0.632331	0.964071	-0.164414
O8	O	0.844593	0.659902	0.001402
O9	O	0.673063	1.260375	-0.365715
O10	O	0.858085	0.858026	-0.136645
O11	O	0.769281	0.880027	-0.037824
O12	O	0.801636	1.055637	-0.257460
O13	O	0.712832	1.077638	-0.158640
Zr14	Zr	0.905025	1.002375	0.007322
Zr15	Zr	0.918463	0.955334	-0.203839
Zr16	Zr	0.728682	1.002353	0.007349
Zr17	Zr	0.763254	1.189999	-0.227341
Zr18	Zr	0.883891	0.767687	0.030852
O19	O	0.891443	1.180143	-0.050757
O20	O	0.910550	1.113256	-0.351000
O21	O	0.640705	1.180112	-0.050718
O22	O	0.987333	0.844462	0.154472
O23	O	1.006440	0.777575	-0.145772
O24	O	0.736595	0.844430	0.154511
O25	O	1.023239	0.964120	-0.164475
O26	O	0.863962	1.030989	0.135790
O27	O	0.753394	1.030976	0.135808
O28	O	1.014813	0.993615	-0.032076
O29	O	0.813233	1.260393	-0.365737
O30	O	0.833912	0.697294	0.169247
O31	O	0.974081	0.697311	0.169225
O32	O	0.984763	0.659920	0.001380
O33	O	0.662382	1.297767	-0.197870
O34	O	0.802552	1.297784	-0.197892
O35	O	0.845509	0.902050	0.060970
O36	O	0.934313	0.880048	-0.037850
O37	O	0.877864	1.077659	-0.158665
O38	O	0.789060	1.099661	-0.059845
C39	C	0.797136	0.685285	-0.068813
C40	C	0.788164	0.585654	-0.058824
C41	C	0.602993	0.978816	-0.098210
C42	C	0.528131	0.978806	-0.098199
C43	C	0.818933	0.427363	-0.093093
C44	C	0.828217	0.530325	-0.103403
C45	C	0.256091	0.978856	-0.098260
C46	C	0.320210	0.854133	-0.022344
C47	C	0.398083	0.854124	-0.021986
C48	C	0.391053	0.978830	-0.098230
C49	C	0.340237	1.057759	-0.059670
C50	C	0.262566	1.056975	-0.059127
C51	C	0.271448	1.025636	-0.212861
C52	C	0.350081	1.023070	-0.212430
C53	C	0.467326	0.978823	-0.098214
C54	C	0.179817	0.978868	-0.098273
C55	C	1.044151	0.978871	-0.098279
C56	C	1.119014	0.978880	-0.098291
C57	C	0.840381	0.920002	-0.362375
C58	C	0.846086	0.900031	-0.452018
C59	C	0.850009	1.272402	-0.127677
C60	C	0.858981	1.372033	-0.137666
C61	C	0.820626	0.989156	-0.551916
C62	C	0.826522	0.968518	-0.644568
C63	C	0.806764	1.037685	0.165885
C64	C	0.801059	1.057655	0.255528
C65	C	1.017715	0.685312	-0.068847
C66	C	1.083605	0.585691	-0.058870
C67	C	0.780327	0.744126	0.195317
C68	C	0.765650	0.664466	0.294949
C69	C	1.000906	0.744154	0.195283
C70	C	1.061092	0.664503	0.294903
C71	C	0.646238	1.213532	-0.391772
C72	C	0.586053	1.293184	-0.491393
C73	C	0.629430	1.272374	-0.127643
C74	C	0.563539	1.371996	-0.137620
C75	C	0.866817	1.213560	-0.391807
C76	C	0.881494	1.293221	-0.491439
C77	C	1.074758	0.527410	-0.105763
C78	C	1.136665	0.433813	-0.096409
C79	C	1.207417	0.398494	-0.040155
C80	C	1.216263	0.456785	0.006739
C81	C	1.154358	0.550385	-0.002622
C82	C	0.798548	0.638554	0.393317
C83	C	0.784755	0.563719	0.486938
C84	C	0.738069	0.514791	0.482192
C85	C	0.705167	0.540710	0.383814
C86	C	0.718956	0.615550	0.290193
C87	C	1.135718	0.615613	0.290103
C88	C	1.192277	0.540783	0.383698
C89	C	1.174208	0.514839	0.482092
C90	C	1.099575	0.563737	0.486890
C91	C	1.043018	0.638572	0.393296
C92	C	0.511428	1.342085	-0.486594
C93	C	0.454871	1.416943	-0.580191
C94	C	0.472940	1.442893	-0.678587
C95	C	0.547573	1.393989	-0.683384
C96	C	0.604129	1.319138	-0.589788
C97	C	0.572388	1.430284	-0.090737
C98	C	0.510485	1.523901	-0.100116
C99	C	0.439733	1.559223	-0.156373
C100	C	0.430887	1.500929	-0.203263
C101	C	0.492790	1.407319	-0.193889
C102	C	0.928184	1.342126	-0.486658
C103	C	0.941989	1.416965	-0.580264
C104	C	0.909099	1.442904	-0.678650
C105	C	0.862407	1.393990	-0.683429
C106	C	0.848607	1.319146	-0.589824
H107	H	0.869382	0.559171	-0.149196
N108	N	0.377542	1.017598	0.050472
H109	H	0.385718	1.081616	0.048694
H110	H	0.427311	0.948314	0.075487
H111	H	1.273877	0.428014	0.052540
N112	N	0.250317	1.015539	0.052157
H113	H	0.204387	1.077374	0.051280
H114	H	0.295361	0.997942	0.100340
H115	H	0.747001	0.556804	-0.013026
N116	N	0.848905	0.691314	0.398452
H117	H	0.867645	0.663537	0.474980
H118	H	0.819899	0.777997	0.356332
N119	N	0.436620	0.805581	0.090280
H120	H	0.447642	0.865288	0.093342
H121	H	0.484985	0.734805	0.112936
N122	N	0.483243	1.344436	-0.244440
H123	H	0.515272	1.349155	-0.297986
H124	H	0.429011	1.381054	-0.281435
N125	N	0.654819	0.487927	0.378703
H126	H	0.651085	0.436580	0.452943
H127	H	0.676321	0.440851	0.345353
N128	N	1.080099	0.535732	0.593024
H129	H	1.045033	0.498635	0.604823
H130	H	1.054987	0.608938	0.593713
H131	H	0.389334	1.635448	-0.163998
N132	N	1.163905	0.613237	0.047964
H133	H	1.218120	0.576650	0.085020
H134	H	1.131837	0.608482	0.101463
H135	H	0.982255	0.678369	0.397219
H136	H	0.811552	0.542625	0.567032
H137	H	0.920342	1.503849	-0.754862
H138	H	0.517702	1.571351	-0.061927
N139	N	0.265416	0.955692	-0.257268
H140	H	0.275478	0.987165	-0.330822
H141	H	0.213425	0.960365	-0.261270
N142	N	0.913504	0.410241	-0.198326
H143	H	0.912407	0.478378	-0.197094
H144	H	0.898981	0.432992	-0.274359
H145	H	0.629991	1.401535	-0.044920
H146	H	0.332385	1.150085	-0.112888
N147	N	0.766408	1.178979	-0.766928
H148	H	0.767109	1.176529	-0.697559
H149	H	0.713041	1.220777	-0.809159
H150	H	0.726847	0.453853	0.558431
N151	N	0.683455	0.643465	0.184121
H152	H	0.723845	0.618875	0.148484
H153	H	0.650923	0.729130	0.137528
N154	N	1.155216	0.643576	0.183986
H155	H	1.211076	0.601242	0.195163
H156	H	1.138734	0.729259	0.137368
N157	N	0.446401	0.773632	-0.055209
H158	H	0.417189	0.737835	-0.070217
H159	H	0.492396	0.711031	0.003870
H160	H	0.385049	0.965339	-0.241360
N161	N	1.235219	0.434105	0.583030
H162	H	1.225682	0.365449	0.631355
H163	H	1.235592	0.475788	0.620231
H164	H	1.253042	0.500976	0.379773
N165	N	0.491921	1.314111	-0.380480
H166	H	0.466784	1.387289	-0.379748
H167	H	0.539094	1.259240	-0.321961
N168	N	0.374380	1.469679	-0.575004
H169	H	0.371520	1.441867	-0.498465
H170	H	0.343928	1.446108	-0.606070
N171	N	0.411937	1.523625	-0.779532
H172	H	0.361922	1.550658	-0.761551
H173	H	0.411608	1.481955	-0.816764
N174	N	0.212343	1.147124	-0.287923
H175	H	0.175786	1.171783	-0.247949
H176	H	0.184862	1.150137	-0.347403
N177	N	0.318540	0.773141	-0.055300
H178	H	0.276203	0.816505	-0.119757
H179	H	0.310783	0.708380	0.005078
N180	N	0.308576	0.806226	0.089504
H181	H	0.261897	0.864902	0.091183
H182	H	0.353194	0.788533	0.138523
N183	N	0.567056	1.421982	-0.789513
H184	H	0.519900	1.476815	-0.848068
H185	H	0.592210	1.348758	-0.790161
N186	N	0.963663	1.314148	-0.380544
H187	H	0.947008	1.387322	-0.379805
H188	H	1.019912	1.277034	-0.368831
N189	N	0.684616	1.266392	-0.594971
H190	H	0.687474	1.294193	-0.671509
H191	H	0.705130	1.179709	-0.552867
N192	N	0.202697	1.179139	-0.128597
H193	H	0.226831	1.233263	-0.159433
H194	H	0.168547	1.200191	-0.084565
H195	H	0.777778	0.398503	-0.047293
H196	H	0.872249	0.808449	-0.435085
H197	H	0.343851	1.113022	-0.272670
H198	H	0.835631	1.415121	-0.763548
H199	H	0.373273	1.529703	-0.249067
H200	H	0.810585	1.279334	-0.593732
H201	H	0.980007	1.456785	-0.576352
N202	N	0.785979	1.110473	-0.574362
H203	H	0.786682	1.108019	-0.504992
H204	H	0.732611	1.152274	-0.616593
H205	H	0.852687	0.876929	-0.627628
H206	H	1.017156	0.556162	-0.151583
N207	N	1.274179	0.297528	-0.030053
H208	H	1.320346	0.283989	0.012700
H209	H	1.281516	0.314621	-0.103214
H210	H	1.129448	0.386364	-0.134597
