data_functionalizedCrystal
_audit_creation_method	'MofGen! by Chris Wilmer'
_symmetry_space_group_name_H-M	'P1'
_symmetry_Int_Tables_number	1
_symmetry_cell_setting	triclinic
loop_
_symmetry_equiv_pos_as_xyz
  x,y,z
_cell_length_a	14.908294
_cell_length_b	18.215407
_cell_length_c	18.215405
_cell_angle_alpha	89.974667
_cell_angle_beta	93.262653
_cell_angle_gamma	86.721796
loop_
_atom_site_label
_atom_site_type_symbol
_atom_site_fract_x
_atom_site_fract_y
_atom_site_fract_z
Zn1	Zn	-0.510070	-1.101045	-0.316975
Zn2	Zn	-0.359205	-1.108060	-0.432950
Zn3	Zn	-0.359229	-0.985083	-0.309904
Zn4	Zn	-0.510012	-0.977946	-0.440002
O5	O	-0.434629	-1.043033	-0.374958
O6	O	-0.490072	-1.204959	-0.332367
O7	O	-0.232967	-1.097669	-0.410717
O8	O	-0.379272	-1.000517	-0.207859
O9	O	-0.379232	-1.210113	-0.417573
O10	O	-0.490094	-1.085713	-0.213054
O11	O	-0.232985	-1.007319	-0.320315
O12	O	-0.379216	-0.881153	-0.327154
O13	O	-0.636261	-0.988353	-0.429593
O14	O	-0.489996	-0.875909	-0.422737
O15	O	-0.636303	-1.078793	-0.339205
O16	O	-0.379176	-1.090749	-0.536868
O17	O	-0.489973	-0.995155	-0.542050
C18	C	-0.434603	-0.851828	-0.374944
C19	C	-0.434613	-0.770029	-0.374957
C20	C	-0.434586	-1.042958	-0.566162
C21	C	-0.434597	-1.042991	-0.647961
C22	C	-0.669930	-1.031994	-0.385975
C23	C	-0.770202	-1.027290	-0.390669
C24	C	-0.911509	-0.973574	-0.444338
C25	C	-0.817295	-0.977993	-0.439932
C26	C	-0.817329	-1.072171	-0.345808
C27	C	-0.911543	-1.067752	-0.350214
C28	C	-0.958629	-1.018453	-0.399481
C29	C	-1.052845	-1.014038	-0.403890
C30	C	-1.052877	-1.108212	-0.309763
C31	C	-0.958663	-1.112631	-0.305357
C32	C	-0.200243	-1.054072	-0.363931
C33	C	-0.099972	-1.058919	-0.359028
C34	C	-0.434656	-1.234985	-0.374972
C35	C	-0.434667	-1.316783	-0.374978
C36	C	-0.492224	-0.579128	-0.424797
C37	C	-0.492236	-0.502268	-0.424800
C38	C	-0.377053	-0.507690	-0.325132
C39	C	-0.377047	-0.584548	-0.325127
C40	C	-0.434631	-0.620265	-0.374963
C41	C	-0.434649	-0.466548	-0.374972
C42	C	-0.434661	-0.383214	-0.374975
C43	C	-0.434621	-0.703604	-0.374960
C44	C	-0.377011	-1.092873	-0.833438
C45	C	-0.377033	-1.092905	-0.910298
C46	C	-0.492312	-0.993285	-0.915729
C47	C	-0.492294	-0.993258	-0.838870
C48	C	-0.434638	-1.043050	-0.797727
C49	C	-0.434678	-1.043110	-0.951445
C50	C	-0.434702	-1.043144	-1.034779
C51	C	-0.434615	-1.043017	-0.714387
C52	C	-0.434692	-1.043129	-0.183008
C53	C	-0.434719	-1.043169	-0.101210
H54	H	-1.091182	-0.973898	-0.444008
H55	H	-0.330066	-1.133418	-0.799941
H56	H	-0.330108	-1.133476	-0.939370
F57	F	-0.961624	-0.921113	-0.496776
H58	H	-0.330148	-0.618043	-0.284541
F59	F	-0.553513	-0.617137	-0.477836
F60	F	-0.553636	-0.940230	-0.800862
F61	F	-0.767149	-0.930225	-0.487673
F62	F	-0.908541	-1.165082	-0.252914
F63	F	-0.767201	-1.124598	-0.293343
F64	F	-1.103033	-1.155982	-0.262024
H65	H	-0.539251	-0.952745	-0.949237
F66	F	-0.315771	-0.469672	-0.272097
F67	F	-0.553535	-0.458490	-0.477839
