data_functionalizedCrystal
_audit_creation_method	'MofGen! by Chris Wilmer'
_symmetry_space_group_name_H-M	'P1'
_symmetry_Int_Tables_number	1
_symmetry_cell_setting	triclinic
loop_
_symmetry_equiv_pos_as_xyz
  x,y,z
_cell_length_a	12.645331
_cell_length_b	15.297327
_cell_length_c	15.298151
_cell_angle_alpha	88.360083
_cell_angle_beta	80.330765
_cell_angle_gamma	80.294043
loop_
_atom_site_label
_atom_site_type_symbol
_atom_site_fract_x
_atom_site_fract_y
_atom_site_fract_z
Zn1	Zn	1.454043	0.263176	0.555620
Zn2	Zn	1.443622	0.434984	0.434476
Zn3	Zn	1.301420	0.288513	0.409158
Zn4	Zn	1.241786	0.409624	0.580900
O5	O	1.360218	0.349074	0.495039
O6	O	1.601002	0.285976	0.539566
O7	O	1.445355	0.436771	0.308543
O8	O	1.350984	0.162565	0.407411
O9	O	1.593346	0.412202	0.450562
O10	O	1.463115	0.143949	0.515016
O11	O	1.340880	0.329160	0.289942
O12	O	1.145167	0.304570	0.431924
O13	O	1.249346	0.368981	0.700121
O14	O	1.101354	0.393550	0.558103
O15	O	1.405290	0.261386	0.681548
O16	O	1.387529	0.554207	0.475075
O17	O	1.239241	0.535576	0.582652
C18	C	1.084797	0.349058	0.495010
C19	C	0.966962	0.349068	0.495022
C20	C	1.414864	0.120583	0.455570
C21	C	1.438151	0.023213	0.438750
C22	C	1.305809	0.576674	0.534373
C23	C	1.282625	0.674037	0.551230
C24	C	0.826937	0.292716	0.415963
C25	C	0.949505	0.292943	0.415696
C26	C	0.904660	0.445705	0.485761
C27	C	0.782227	0.445413	0.485237
C28	C	0.789776	0.309618	0.583754
C29	C	0.912961	0.307645	0.582882
C30	C	1.636713	0.349091	0.495068
C31	C	1.754539	0.349099	0.495081
C32	C	1.321828	0.309528	0.723505
C33	C	1.305469	0.292676	0.820864
C34	C	1.526305	0.987137	0.374859
C35	C	1.548088	0.895661	0.359017
C36	C	1.481724	0.840250	0.407069
C37	C	1.393574	0.876325	0.470966
C38	C	1.371783	0.967812	0.486805
C39	C	1.327203	0.820925	0.519015
C40	C	1.239052	0.857000	0.582912
C41	C	1.217266	0.948477	0.598748
C42	C	1.283630	1.003888	0.550696
C43	C	1.348993	0.729438	0.503176
C44	C	1.194471	0.710113	0.615121
C45	C	1.172688	0.801589	0.630964
C46	C	1.243388	0.228728	0.856912
C47	C	1.228003	0.212895	0.948385
C48	C	1.274706	0.261004	1.003820
C49	C	1.336795	0.324949	0.967772
C50	C	1.352174	0.340788	0.876290
C51	C	1.383492	0.373064	1.023198
C52	C	1.445581	0.437009	0.987150
C53	C	1.460958	0.452844	0.895677
C54	C	1.414255	0.404736	0.840242
C55	C	1.368113	0.357225	1.114679
C56	C	1.476899	0.469285	1.134058
C57	C	1.492283	0.485117	1.042584
C58	C	1.398448	0.388486	1.267464
C59	C	1.414818	0.405337	1.170105
H60	H	0.993280	0.221782	0.419671
Br61	Br	1.540277	0.534585	1.209283
Br62	Br	1.053061	0.850559	0.717680
Br63	Br	1.104392	0.634922	0.680331
Br64	Br	1.576549	0.571894	0.993650
H65	H	1.580323	1.032261	0.335737
Br66	Br	1.143686	0.126157	0.997309
Br67	Br	1.283853	0.270445	1.163591
Br68	Br	1.253661	1.128108	0.571801
Br69	Br	1.511564	0.716056	0.385833
H70	H	0.913402	0.489530	0.542278
Br71	Br	0.800755	0.173811	0.422240
Br72	Br	1.097627	0.997436	0.685459
H73	H	0.803935	0.319852	0.350302
Br74	Br	1.180033	0.163432	0.781676
H75	H	1.420766	0.700075	0.451150
H76	H	1.262177	0.248108	1.078301
Br77	Br	1.435143	0.426213	0.716092
Br78	Br	1.545205	0.539638	0.846758
H79	H	0.986656	0.320321	0.349661
Br80	Br	0.698791	0.519235	0.578534
Br81	Br	0.966522	0.498751	0.379818
Br82	Br	0.758155	0.192814	0.602923
Br83	Br	0.983165	0.188990	0.595021
Br84	Br	0.745592	0.498092	0.377983
H85	H	0.923749	0.344439	0.643694
H86	H	1.619859	0.866292	0.306992
Br87	Br	0.707676	0.377739	0.681681
