data_functionalizedCrystal
_audit_creation_method	'MofGen! by Chris Wilmer'
_symmetry_space_group_name_H-M	'P1'
_symmetry_Int_Tables_number	1
_symmetry_cell_setting	triclinic
loop_
_symmetry_equiv_pos_as_xyz
  x,y,z
_cell_length_a	11.169417
_cell_length_b	18.215405
_cell_length_c	11.169409
_cell_angle_alpha	90.036788
_cell_angle_beta	90.019824
_cell_angle_gamma	90.023610
loop_
_atom_site_label
_atom_site_type_symbol
_atom_site_fract_x
_atom_site_fract_y
_atom_site_fract_z
Zn1	Zn	1.834859	-0.292907	0.678506
Zn2	Zn	1.834705	-0.415999	0.477807
Zn3	Zn	1.634145	-0.292952	0.477840
Zn4	Zn	1.634109	-0.415939	0.678452
O5	O	1.734454	-0.354449	0.578151
O6	O	2.002788	-0.309242	0.651891
O7	O	1.808051	-0.399720	0.309861
O8	O	1.660850	-0.189962	0.504495
O9	O	2.002675	-0.399677	0.504439
O10	O	1.808313	-0.189929	0.651923
O11	O	1.660700	-0.309318	0.309886
O12	O	1.466190	-0.309260	0.504443
O13	O	1.660788	-0.399574	0.846409
O14	O	1.466164	-0.399618	0.651832
O15	O	1.808279	-0.309184	0.846448
O16	O	1.808016	-0.518975	0.504387
O17	O	1.660639	-0.518931	0.651799
C18	C	1.422630	-0.354438	0.578136
C19	C	1.289230	-0.354451	0.578157
C20	C	1.734339	-0.545656	0.578110
C21	C	1.734400	-0.627454	0.578132
C22	C	1.811221	-0.815570	0.655002
C23	C	1.811264	-0.892429	0.655024
C24	C	1.657836	-0.892576	0.501375
C25	C	1.657788	-0.815719	0.501359
C26	C	1.734487	-0.777218	0.578171
C27	C	1.734579	-0.930934	0.578209
C28	C	1.734626	-1.014268	0.578233
C29	C	1.734439	-0.693879	0.578149
C30	C	2.047497	-0.354461	0.578167
C31	C	2.180897	-0.354466	0.578174
C32	C	1.734547	-0.354368	0.891194
C33	C	1.734586	-0.354333	1.024594
C34	C	1.734603	-0.162496	0.578219
C35	C	1.734666	-0.080697	0.578248
C36	C	1.734432	-0.354478	0.266326
C37	C	1.734625	-0.354305	0.132927
H38	H	1.873672	-0.784224	0.717549
O39	O	1.894030	-0.933797	0.737888
H40	H	1.947357	-0.894110	0.791288
O41	O	1.575137	-0.934101	0.418504
H42	H	1.588076	-0.993989	0.431406
H43	H	1.595296	-0.784490	0.438794
