data_functionalizedCrystal
_audit_creation_method	'MofGen! by Chris Wilmer'
_symmetry_space_group_name_H-M	'P1'
_symmetry_Int_Tables_number	1
_symmetry_cell_setting	triclinic
loop_
_symmetry_equiv_pos_as_xyz
  x,y,z
_cell_length_a	19.188905
_cell_length_b	19.188930
_cell_length_c	7.540329
_cell_angle_alpha	89.991297
_cell_angle_beta	89.989921
_cell_angle_gamma	83.139668
loop_
_atom_site_label
_atom_site_type_symbol
_atom_site_fract_x
_atom_site_fract_y
_atom_site_fract_z
O1	O	0.926154	0.087083	-0.147794
O2	O	1.426154	0.587083	0.352206
O3	O	0.722841	0.098836	-0.147736
O4	O	1.222841	0.598836	0.352264
O5	O	0.830365	-0.008697	-0.147732
O6	O	1.330365	0.491303	0.352268
O7	O	0.818630	0.194616	-0.147798
O8	O	1.318630	0.694616	0.352202
O9	O	0.830358	-0.008698	0.147233
O10	O	1.330358	0.491302	0.647233
O11	O	0.722834	0.098835	0.147229
O12	O	1.222834	0.598835	0.647229
O13	O	0.926148	0.087082	0.147171
O14	O	1.426148	0.587082	0.647171
Cu15	Cu	0.824491	0.092958	0.174132
Cu16	Cu	1.324491	0.592958	0.674132
Cu17	Cu	0.824498	0.092960	-0.174698
Cu18	Cu	1.324498	0.592960	0.325302
O19	O	0.818624	0.194615	0.147167
O20	O	1.318624	0.694615	0.647167
C21	C	0.696826	0.098458	-0.000246
C22	C	1.196826	0.598458	0.499754
C23	C	0.619321	0.097324	-0.000222
C24	C	1.119321	0.597324	0.499778
C25	C	0.582932	0.096780	-0.161012
C26	C	1.082932	0.596780	0.338988
C27	C	0.510109	0.095707	-0.161034
C28	C	1.010109	0.595707	0.338966
C29	C	0.473678	0.095164	-0.000257
C30	C	0.973678	0.595164	0.499743
C31	C	0.510075	0.095712	0.160555
C32	C	1.010075	0.595712	0.660555
C33	C	0.582896	0.096792	0.160572
C34	C	1.082896	0.596792	0.660572
N35	N	0.364655	0.053735	0.119408
N36	N	0.864655	0.553735	0.619408
N37	N	0.295478	0.052707	0.119381
N38	N	0.795478	0.552707	0.619381
C39	C	0.254272	0.091911	-0.000298
C40	C	0.754272	0.591911	0.499702
N41	N	0.284856	0.132173	-0.119976
N42	N	0.784856	0.632173	0.380024
N43	N	0.354040	0.133197	-0.119954
N44	N	0.854040	0.633197	0.380046
C45	C	0.394716	0.093993	-0.000257
C46	C	0.894716	0.593993	0.499743
C47	C	0.138919	0.090205	-0.161123
C48	C	0.638919	0.590205	0.338877
C49	C	0.066094	0.089136	-0.161138
C50	C	0.566094	0.589136	0.338862
C51	C	0.066062	0.089134	0.160455
C52	C	0.566062	0.589134	0.660455
C53	C	0.138885	0.090210	0.160466
C54	C	0.638885	0.590210	0.660466
C55	C	0.175310	0.090742	-0.000328
C56	C	0.675310	0.590742	0.499672
C57	C	0.829982	-0.034708	-0.000245
C58	C	1.329982	0.465292	0.499755
C59	C	0.828841	-0.112213	-0.000229
C60	C	1.328841	0.387787	0.499771
C61	C	0.891933	-0.157142	-0.000239
C62	C	1.391933	0.342858	0.499761
C63	C	0.890861	-0.229966	-0.000267
C64	C	1.390861	0.270034	0.499733
C65	C	0.826694	-0.257857	-0.000250
C66	C	1.326694	0.242143	0.499750
C67	C	0.763594	-0.212917	-0.000250
C68	C	1.263594	0.287083	0.499750
C69	C	0.764668	-0.140095	-0.000240
C70	C	1.264668	0.359905	0.499760
N71	N	0.777644	-0.365858	0.100146
N72	N	1.277644	0.134142	0.600146
N73	N	0.776628	-0.435036	0.100140
N74	N	1.276628	0.064964	0.600140
C75	C	0.823456	-0.477265	-0.000285
C76	C	1.323456	0.022735	0.499715
N77	N	0.871348	-0.447703	-0.100681
N78	N	1.371348	0.052297	0.399319
N79	N	0.872365	-0.378519	-0.100667
N80	N	1.372365	0.121481	0.399333
C81	C	0.825523	-0.336819	-0.000262
C82	C	1.325523	0.163181	0.499738
C83	C	0.885390	-0.601159	-0.000327
C84	C	1.385390	-0.101159	0.499673
C85	C	0.884315	-0.673984	-0.000366
C86	C	1.384315	-0.173984	0.499634
C87	C	0.757047	-0.656933	-0.000332
C88	C	1.257047	-0.156933	0.499668
C89	C	0.758123	-0.584110	-0.000311
C90	C	1.258123	-0.084110	0.499689
C91	C	0.822296	-0.556228	-0.000300
C92	C	1.322296	-0.056228	0.499700
C93	C	0.952163	0.087460	-0.000324
C94	C	1.452163	0.587460	0.499676
C95	C	1.029668	0.088594	-0.000359
C96	C	1.529668	0.588594	0.499641
C97	C	0.819007	0.220626	-0.000325
C98	C	1.319007	0.720626	0.499675
C99	C	0.820148	0.298131	-0.000352
C100	C	1.320148	0.798131	0.499648
N101	N	0.824490	0.092957	0.419481
N102	N	1.324490	0.592957	0.919481
N103	N	0.824504	0.092956	-0.420047
N104	N	1.324504	0.592956	0.079953
H105	H	0.036400	0.088696	0.291363
H106	H	0.536400	0.588696	0.791363
H107	H	0.168577	0.090645	-0.292051
H108	H	0.668577	0.590645	0.207949
F109	F	0.951470	-0.721802	-0.000388
F110	F	1.451470	-0.221802	0.499612
F111	F	0.958014	-0.277792	-0.000280
F112	F	1.458014	0.222208	0.499720
F113	F	0.027366	0.088563	-0.332282
F114	F	0.527366	0.588563	0.167718
H115	H	0.168514	0.090648	0.291398
H116	H	0.668514	0.590648	0.791398
H117	H	0.480476	0.095265	-0.291973
H118	H	0.980476	0.595265	0.208027
H119	H	0.480408	0.095271	0.291461
H120	H	0.980408	0.595271	0.791461
F121	F	0.621694	0.097349	-0.332145
F122	F	1.121694	0.597349	0.167855
F123	F	0.697514	-0.092276	-0.000231
F124	F	1.197514	0.407724	0.499769
F125	F	0.690971	-0.536291	-0.000293
F126	F	1.190971	-0.036291	0.499707
F127	F	0.960232	-0.127472	-0.000265
F128	F	1.460232	0.372528	0.499735
F129	F	0.695303	-0.242601	-0.000244
F130	F	1.195303	0.257399	0.499756
F131	F	0.953688	-0.571482	-0.000307
F132	F	1.453688	-0.071482	0.499693
H133	H	0.704801	-0.679641	-0.000327
H134	H	1.204801	-0.179641	0.499673
F135	F	0.621624	0.097371	0.331714
F136	F	1.121624	0.597371	0.831714
