data_functionalizedCrystal
_audit_creation_method	'MofGen! by Chris Wilmer'
_symmetry_space_group_name_H-M	'P1'
_symmetry_Int_Tables_number	1
_symmetry_cell_setting	triclinic
loop_
_symmetry_equiv_pos_as_xyz
  x,y,z
_cell_length_a	19.121063
_cell_length_b	12.594517
_cell_length_c	12.594509
_cell_angle_alpha	89.986369
_cell_angle_beta	87.594190
_cell_angle_gamma	87.530566
loop_
_atom_site_label
_atom_site_type_symbol
_atom_site_fract_x
_atom_site_fract_y
_atom_site_fract_z
Zn1	Zn	-0.279578	-1.609107	0.619663
Zn2	Zn	-0.397041	-1.601368	0.449257
Zn3	Zn	-0.279610	-1.431109	0.441718
Zn4	Zn	-0.396994	-1.423467	0.627208
O5	O	-0.338306	-1.516263	0.534461
O6	O	-0.295166	-1.757026	0.597056
O7	O	-0.381497	-1.578743	0.299313
O8	O	-0.181321	-1.461158	0.459011
O9	O	-0.381466	-1.751340	0.471859
O10	O	-0.181298	-1.591932	0.589746
O11	O	-0.295221	-1.453654	0.293774
O12	O	-0.295175	-1.281150	0.466326
O13	O	-0.381386	-1.448133	0.775151
O14	O	-0.381417	-1.275535	0.602604
O15	O	-0.295121	-1.584522	0.769608
O16	O	-0.495319	-1.571332	0.479174
O17	O	-0.495285	-1.440629	0.609914
C18	C	-0.338295	-1.239722	0.534467
C19	C	-0.338307	-1.121416	0.534495
C20	C	-0.520786	-1.504340	0.546204
C21	C	-0.598852	-1.499337	0.551263
C22	C	-0.385300	-0.978371	0.608492
C23	C	-0.402395	-1.048031	0.512452
C24	C	-0.321243	-1.053326	0.630527
C25	C	-0.355460	-0.980287	0.438378
C26	C	-0.274278	-0.985577	0.556516
C27	C	-0.291349	-1.055207	0.460407
C28	C	-0.635522	-1.565090	0.485627
C29	C	-0.708873	-1.560391	0.490392
C30	C	-0.745553	-1.489933	0.560787
C31	C	-0.708878	-1.424177	0.626430
C32	C	-0.635528	-1.428882	0.621671
C33	C	-0.967022	-1.472324	0.578566
C34	C	-1.040377	-1.467621	0.583319
C35	C	-1.040368	-1.603837	0.447281
C36	C	-0.967016	-1.608531	0.442523
C37	C	-0.930348	-1.542780	0.508170
C38	C	-0.820530	-1.485125	0.565657
C39	C	-0.855372	-1.547593	0.503305
C40	C	-0.155113	-1.528261	0.522696
C41	C	-0.077047	-1.533374	0.517683
C42	C	-0.338244	-1.516338	0.812078
C43	C	-0.338218	-1.516370	0.930382
C44	C	-0.338320	-0.793883	0.534460
C45	C	-0.338332	-0.912187	0.534467
C46	C	-0.338317	-1.516252	0.257921
C47	C	-0.338145	-1.516439	0.139605
C48	C	-0.385111	-1.442212	1.002648
C49	C	-0.402271	-1.538218	1.074532
C50	C	-0.321016	-1.420443	1.069295
C51	C	-0.355412	-1.612425	1.000710
C52	C	-0.274127	-1.494586	0.995465
C53	C	-0.291262	-1.590660	1.067315
H54	H	-0.456553	-1.075601	0.493806
O55	O	-0.303605	-1.323718	1.105401
C56	C	-0.242062	-1.335089	1.162963
H57	H	-0.235832	-1.420197	1.193074
H58	H	-0.194853	-1.316299	1.108992
C59	C	-0.254674	-1.153393	1.221088
C60	C	-0.247026	-1.257922	1.258079
H61	H	-0.257734	-1.105790	1.279758
H62	H	-0.296136	-1.145730	1.182305
H63	H	-0.215332	-1.137750	1.176112
H64	H	-0.286371	-1.273567	1.303043
H65	H	-0.205571	-1.265585	1.296872
H66	H	-0.456440	-1.556681	1.109126
O67	O	-0.432826	-0.938272	0.682958
C68	C	-0.500273	-0.969978	0.659330
H69	H	-0.501526	-0.989743	0.571123
H70	H	-0.513472	-1.043196	0.708204
C71	C	-0.552889	-0.854731	0.794988
C72	C	-0.554429	-0.878998	0.686649
H73	H	-0.586296	-0.798613	0.811844
H74	H	-0.507449	-0.833372	0.810910
H75	H	-0.563887	-0.915753	0.835704
H76	H	-0.543423	-0.817980	0.645936
H77	H	-0.599870	-0.900344	0.670721
O78	O	-0.243871	-1.095169	0.385805
C79	C	-0.193016	-1.160110	0.435460
H80	H	-0.190977	-1.136316	0.522564
H81	H	-0.207368	-1.246797	0.429893
C82	C	-0.123334	-1.175313	0.272574
C83	C	-0.120826	-1.146083	0.379555
H84	H	-0.078804	-1.166665	0.238087
H85	H	-0.157597	-1.131565	0.239119
H86	H	-0.135297	-1.247551	0.267950
H87	H	-0.108871	-1.073843	0.384178
H88	H	-0.086558	-1.189819	0.413010
O89	O	-0.372889	-0.942162	0.341528
C90	C	-0.434075	-0.875872	0.352797
H91	H	-0.464651	-0.897418	0.428855
H92	H	-0.419078	-0.789384	0.356968
C93	C	-0.442315	-0.864722	0.163313
C94	C	-0.479871	-0.891191	0.256725
H95	H	-0.470563	-0.874166	0.104050
H96	H	-0.401091	-0.909379	0.155721
H97	H	-0.429819	-0.792650	0.166805
H98	H	-0.492358	-0.963264	0.253238
H99	H	-0.521099	-0.846545	0.264315
H100	H	-0.251575	-1.653472	1.095611
H101	H	-0.369992	-1.693598	0.970680
O102	O	-0.931517	-1.408332	0.642359
C103	C	-0.979623	-1.345149	0.705519
H104	H	-1.031934	-1.338148	0.665313
H105	H	-0.987359	-1.383571	0.786896
C106	C	-0.886809	-1.242282	0.768278
C107	C	-0.951056	-1.233676	0.718891
H108	H	-0.869187	-1.173522	0.776532
H109	H	-0.854398	-1.284852	0.725729
H110	H	-0.893265	-1.274305	0.836087
H111	H	-0.944598	-1.201666	0.651079
H112	H	-0.983465	-1.191098	0.761429
O113	O	-0.744386	-1.624301	0.426522
C114	C	-0.696283	-1.687510	0.363382
H115	H	-0.644023	-1.647264	0.356274
H116	H	-0.688415	-1.768833	0.401907
C117	C	-0.789145	-1.750498	0.260703
C118	C	-0.724961	-1.701063	0.251965
H119	H	-0.806836	-1.758863	0.191978
H120	H	-0.821554	-1.707916	0.303244
H121	H	-0.782580	-1.818262	0.292811
H122	H	-0.731528	-1.633296	0.219870
H123	H	-0.692554	-1.743634	0.209416
O124	O	-0.209709	-0.952693	0.578978
C125	C	-0.191900	-0.989890	0.680350
H126	H	-0.241704	-1.006534	0.729355
H127	H	-0.157811	-1.066150	0.671533
C128	C	-0.090046	-0.884581	0.676606
C129	C	-0.151217	-0.905015	0.736798
H130	H	-0.064948	-0.832230	0.711425
H131	H	-0.102042	-0.859524	0.608308
H132	H	-0.061647	-0.948138	0.669263
H133	H	-0.179618	-0.841462	0.744128
H134	H	-0.139224	-0.930060	0.805098
O135	O	-0.304090	-1.091425	0.727509
C136	C	-0.353773	-1.052180	0.805283
H137	H	-0.380510	-0.975905	0.775392
H138	H	-0.394682	-1.113994	0.821741
C139	C	-0.283830	-1.122526	0.945097
C140	C	-0.316664	-1.028839	0.908388
H141	H	-0.260940	-1.108132	1.008699
H142	H	-0.250358	-1.148970	0.892700
H143	H	-0.317926	-1.174028	0.958804
H144	H	-0.282566	-0.977344	0.894670
H145	H	-0.350129	-1.002386	0.960786
H146	H	-0.605662	-1.622460	0.428299
H147	H	-0.605672	-1.375341	0.675120
H148	H	-0.424829	-1.379542	0.974159
H149	H	-0.219973	-1.476093	0.960849
O150	O	-0.931497	-1.677077	0.374122
C151	C	-0.979592	-1.734091	0.317194
H152	H	-1.031856	-1.734394	0.364180
H153	H	-0.987452	-1.694662	0.236831
C154	C	-0.886721	-1.848850	0.242385
C155	C	-0.950911	-1.849230	0.300099
H156	H	-0.869028	-1.919872	0.231835
H157	H	-0.854317	-1.810437	0.280735
H158	H	-0.893280	-1.815987	0.175423
H159	H	-0.944349	-1.882081	0.367065
H160	H	-0.983313	-1.887652	0.261760
O161	O	-1.076017	-1.667828	0.383680
C162	C	-1.118386	-1.733805	0.447088
H163	H	-1.096236	-1.741739	0.529488
H164	H	-1.173995	-1.697335	0.454330
C165	C	-1.146675	-1.834675	0.294056
C166	C	-1.119466	-1.844427	0.395258
H167	H	-1.147344	-1.902911	0.262084
H168	H	-1.118132	-1.790223	0.251335
H169	H	-1.193013	-1.804280	0.300105
H170	H	-1.073126	-1.874809	0.389207
H171	H	-1.148001	-1.888886	0.437977
O172	O	-1.076088	-1.399321	0.651764
C173	C	-1.118440	-1.457172	0.723311
H174	H	-1.129397	-1.537151	0.686540
H175	H	-1.090133	-1.470641	0.800367
C176	C	-1.174684	-1.295903	0.792209
C177	C	-1.188146	-1.394131	0.747042
H178	H	-1.217680	-1.257016	0.806852
H179	H	-1.146149	-1.256927	0.744010
H180	H	-1.151092	-1.307141	0.856417
H181	H	-1.211729	-1.382893	0.682829
H182	H	-1.216687	-1.433105	0.795232
O183	O	-0.744476	-1.355851	0.694965
C184	C	-0.726474	-1.380193	0.799897
H185	H	-0.706261	-1.466517	0.804026
H186	H	-0.683915	-1.325843	0.824915
C187	C	-0.816430	-1.257566	0.870075
C188	C	-0.791610	-1.363594	0.875148
H189	H	-0.856608	-1.247322	0.916495
H190	H	-0.828557	-1.241162	0.799380
H191	H	-0.780958	-1.212286	0.890921
H192	H	-0.827079	-1.408870	0.854289
H193	H	-0.779491	-1.380004	0.945841
H194	H	-0.825506	-1.604964	0.445993
H195	H	-0.850402	-1.427756	0.622971
