data_functionalizedCrystal
_audit_creation_method	'MofGen! by Chris Wilmer'
_symmetry_space_group_name_H-M	'P1'
_symmetry_Int_Tables_number	1
_symmetry_cell_setting	triclinic
loop_
_symmetry_equiv_pos_as_xyz
  x,y,z
_cell_length_a	15.995350
_cell_length_b	15.995350
_cell_length_c	12.996460
_cell_angle_alpha	89.996086
_cell_angle_beta	89.998063
_cell_angle_gamma	83.492375
loop_
_atom_site_label
_atom_site_type_symbol
_atom_site_fract_x
_atom_site_fract_y
_atom_site_fract_z
O1	O	1.110987	0.107928	-0.085474
O2	O	0.867211	0.121256	-0.085495
O3	O	0.995763	-0.007296	-0.085483
O4	O	0.982435	0.236480	-0.085486
O5	O	0.995749	-0.007303	0.085651
O6	O	0.867198	0.121249	0.085639
O7	O	1.110973	0.107921	0.085659
Cu8	Cu	0.989084	0.114584	0.101275
Cu9	Cu	0.989100	0.114593	-0.101111
O10	O	0.982422	0.236472	0.085648
C11	C	0.836010	0.120701	0.000069
C12	C	0.743060	0.119049	0.000061
C13	C	0.995205	-0.038494	0.000082
C14	C	0.993553	-0.131444	0.000076
C15	C	0.405312	0.113117	0.000083
C16	C	0.452746	0.021565	0.000466
C17	C	0.549436	0.023217	0.000073
C18	C	0.572873	0.116060	0.000073
C19	C	0.531793	0.161220	-0.097650
C20	C	0.435157	0.158920	-0.097724
C21	C	0.434803	0.160804	0.096887
C22	C	0.531749	0.160782	0.098171
C23	C	0.667570	0.117727	0.000063
C24	C	0.310614	0.111452	0.000085
C25	C	0.987621	-0.469192	0.000079
C26	C	0.896069	-0.421758	-0.000313
C27	C	0.897721	-0.325068	0.000073
C28	C	0.990564	-0.301631	0.000077
C29	C	1.035713	-0.342713	0.097804
C30	C	1.033413	-0.439349	0.097886
C31	C	1.035319	-0.439699	-0.096725
C32	C	1.035298	-0.342753	-0.098017
C33	C	0.992231	-0.206934	0.000079
C34	C	0.985956	-0.563890	0.000083
C35	C	1.142175	0.108476	0.000093
C36	C	1.235125	0.110127	0.000094
C37	C	0.982980	0.267671	0.000080
C38	C	0.984631	0.360621	0.000080
N39	N	0.989079	0.114578	0.243622
N40	N	0.989112	0.114592	-0.243458
C41	C	0.989099	0.114593	0.663436
C42	C	0.989091	0.114592	0.546631
C43	C	0.989090	0.114586	0.453533
C44	C	0.989081	0.114583	0.336720
H45	H	0.577860	-0.012281	0.070124
N46	N	1.126067	-0.324016	0.102595
H47	H	1.127812	-0.261145	0.105701
H48	H	1.153823	-0.351081	0.166002
H49	H	1.100628	-0.471597	0.102323
N50	N	0.586355	-0.024115	-0.092874
H51	H	0.539808	-0.046131	-0.133754
H52	H	0.616206	0.014958	-0.137331
N53	N	0.569376	0.119669	-0.193982
H54	H	0.523553	0.097394	-0.235892
H55	H	0.596760	0.162202	-0.235974
N56	N	0.991629	-0.306602	-0.193790
H57	H	0.943073	-0.263763	-0.173732
H58	H	1.032857	-0.278601	-0.237156
N59	N	0.994177	-0.305118	0.194140
H60	H	0.946123	-0.261486	0.174701
H61	H	0.971949	-0.350981	0.236029
H62	H	0.559060	0.127815	0.170466
N63	N	0.392436	0.247950	-0.103624
H64	H	0.329389	0.247151	-0.103722
H65	H	0.409299	0.280893	-0.042198
H66	H	0.434218	-0.015033	0.070546
H67	H	0.433158	-0.014859	-0.069228
H68	H	1.103003	-0.327391	-0.103914
N69	N	0.847599	-0.446304	-0.093139
H70	H	0.796119	-0.472281	-0.069819
H71	H	0.829748	-0.394637	-0.135913
N72	N	0.407600	0.121157	0.195007
H73	H	0.375878	0.071878	0.177697
H74	H	0.458858	0.100987	0.237408
H75	H	0.416855	0.125993	-0.170774
H76	H	0.547113	0.228485	0.104074
N77	N	0.550509	0.251568	-0.102483
H78	H	0.585882	0.264122	-0.041225
H79	H	0.582162	0.260850	-0.167982
H80	H	1.102820	-0.471459	-0.097379
N81	N	0.392738	0.250216	0.097769
H82	H	0.354760	0.259824	0.035802
H83	H	0.358296	0.260214	0.162645
N84	N	0.850721	-0.287412	-0.092728
H85	H	0.851710	-0.224388	-0.092656
H86	H	0.878491	-0.312010	-0.157448
N87	N	0.847799	-0.447708	0.091992
H88	H	0.884978	-0.490056	0.134060
H89	H	0.829539	-0.396599	0.135551
N90	N	0.995680	-0.466900	-0.194842
H91	H	0.975461	-0.415682	-0.237296
H92	H	1.038655	-0.504638	-0.235351
H93	H	0.861981	-0.297206	0.070242
H94	H	1.000479	-0.457653	0.170936
