data_functionalizedCrystal
_audit_creation_method	'MofGen! by Chris Wilmer'
_symmetry_space_group_name_H-M	'P1'
_symmetry_Int_Tables_number	1
_symmetry_cell_setting	triclinic
loop_
_symmetry_equiv_pos_as_xyz
  x,y,z
_cell_length_a	19.288864
_cell_length_b	17.766277
_cell_length_c	19.288857
_cell_angle_alpha	89.991474
_cell_angle_beta	96.865323
_cell_angle_gamma	90.023209
loop_
_atom_site_label
_atom_site_type_symbol
_atom_site_fract_x
_atom_site_fract_y
_atom_site_fract_z
O1	O	0.921351	0.062839	-0.086649
O2	O	0.719090	0.062788	-0.098338
O3	O	0.826067	0.062806	0.008637
O4	O	0.814373	0.062821	-0.193624
O5	O	0.826049	-0.062382	0.008643
O6	O	0.719071	-0.062400	-0.098332
O7	O	0.921332	-0.062349	-0.086644
Cu8	Cu	0.820200	-0.073806	-0.092488
Cu9	Cu	0.820222	0.074244	-0.092494
O10	O	0.814354	-0.062367	-0.193619
C11	C	0.693204	0.000187	-0.097959
C12	C	0.616100	0.000167	-0.096830
N13	N	0.820189	-0.177936	-0.092483
C14	C	0.571402	0.000184	-0.159598
C15	C	0.498955	0.000192	-0.158537
C16	C	0.471210	0.000199	-0.094705
C17	C	0.515917	0.000178	-0.031929
C18	C	0.588363	0.000162	-0.032991
C19	C	0.362955	0.044080	-0.044528
C20	C	0.290511	0.044100	-0.043468
C21	C	0.247764	0.000244	-0.091425
C22	C	0.277469	-0.043622	-0.140455
C23	C	0.349914	-0.043638	-0.141517
C24	C	0.392656	0.000216	-0.093546
C25	C	0.124510	0.000269	-0.153048
C26	C	0.052062	0.000272	-0.151984
C27	C	0.069026	0.000266	-0.025374
C28	C	0.141472	0.000255	-0.026439
C29	C	0.169210	0.000260	-0.090278
C30	C	0.867574	-0.217315	-0.045137
C31	C	0.867578	-0.296117	-0.045134
C32	C	0.820204	-0.335537	-0.092488
C33	C	0.772810	-0.296148	-0.139837
C34	C	0.772803	-0.217348	-0.139834
C35	C	0.810903	-0.460371	-0.155776
C36	C	0.810915	-0.539170	-0.155780
C37	C	0.820222	-0.578583	-0.092496
C38	C	0.829532	-0.539187	-0.029207
C39	C	0.829525	-0.460387	-0.029204
C40	C	0.820206	-0.420982	-0.092496
C41	C	0.867614	-0.703408	-0.045144
C42	C	0.867614	-0.782211	-0.045139
C43	C	0.772849	-0.782241	-0.139849
C44	C	0.772846	-0.703439	-0.139847
C45	C	0.820233	-0.664027	-0.092495
C46	C	0.947218	0.000253	-0.087022
C47	C	1.024321	0.000278	-0.088151
C48	C	0.825683	0.000211	0.034516
C49	C	0.824556	0.000209	0.111620
N50	N	0.820238	0.178375	-0.092493
C51	C	0.814739	0.000229	-0.219498
C52	C	0.815866	0.000237	-0.296602
C53	C	0.824040	0.068449	0.147828
C54	C	0.822971	0.068454	0.220274
C55	C	0.822432	0.000215	0.256511
C56	C	0.822944	-0.068034	0.220295
C57	C	0.824006	-0.068037	0.147849
C58	C	0.861426	-0.052050	0.376745
C59	C	0.860369	-0.052044	0.449190
C60	C	0.819155	0.000223	0.479957
C61	C	0.779007	0.052496	0.438272
C62	C	0.780069	0.052493	0.365827
C63	C	0.821281	0.000211	0.335066
C64	C	0.817479	0.068474	0.594719
C65	C	0.816406	0.068476	0.667166
C66	C	0.816386	-0.068014	0.667186
C67	C	0.817452	-0.068014	0.594740
C68	C	0.818002	0.000232	0.558511
H69	H	0.462555	0.000204	-0.209652
O70	O	0.003846	0.000283	-0.219688
H71	H	0.013704	0.051313	-0.250244
O72	O	0.800884	-0.581651	-0.224042
H73	H	0.753625	-0.617588	-0.225760
H74	H	0.824486	0.124020	0.118335
O75	O	0.736759	0.108862	0.320869
H76	H	0.771557	0.144173	0.292455
H77	H	0.374097	-0.079358	-0.181436
H78	H	0.147095	0.000262	-0.205029
H79	H	0.893062	-0.094605	0.483125
H80	H	0.734273	-0.814336	-0.178403
H81	H	0.906157	-0.185228	-0.006579
O82	O	0.485995	0.000179	0.036920
H83	H	0.504000	0.051193	0.067075
O84	O	0.815843	0.142079	0.706227
H85	H	0.768020	0.145328	0.732881
O86	O	0.231376	-0.090934	-0.192183
H87	H	0.176011	-0.083564	-0.183204
H88	H	0.177867	0.000245	0.024674
H89	H	0.266331	0.079822	-0.003548
H90	H	0.894987	-0.094617	0.351701
H91	H	0.734236	-0.328248	-0.178393
H92	H	0.906198	-0.814274	-0.006581
O93	O	0.839500	-0.417822	0.039015
H94	H	0.890775	-0.432853	0.068114
O95	O	0.039112	0.000273	0.043477
H96	H	-0.018773	0.000291	0.033672
H97	H	0.397755	0.079797	-0.005473
O98	O	0.734545	0.108872	0.471442
H99	H	0.740541	0.100088	0.528820
O100	O	0.839565	-0.581682	0.039057
H101	H	0.837997	-0.643095	0.028426
H102	H	0.624757	0.000149	0.018124
O103	O	0.800862	-0.417855	-0.224031
H104	H	0.843226	-0.432938	-0.255690
H105	H	0.817923	0.124044	0.565220
O106	O	0.721746	-0.660958	-0.190920
H107	H	0.688807	-0.701605	-0.223854
O108	O	0.918695	-0.338605	0.005926
H109	H	0.951648	-0.297961	0.038848
O110	O	0.918712	-0.660890	0.005933
H111	H	0.951655	-0.701515	0.038866
H112	H	0.734215	-0.185285	-0.178389
H113	H	0.822547	0.124025	0.249759
O114	O	0.815810	-0.141618	0.706259
H115	H	0.814990	-0.130153	0.762720
H116	H	0.817878	-0.123583	0.565260
H117	H	0.822503	-0.123594	0.249803
O118	O	0.824575	-0.141644	0.108795
H119	H	0.777039	-0.174385	0.116365
O120	O	0.601322	0.000168	-0.228449
H121	H	0.558064	0.000169	-0.271918
