data_functionalizedCrystal
_audit_creation_method	'MofGen! by Chris Wilmer'
_symmetry_space_group_name_H-M	'P1'
_symmetry_Int_Tables_number	1
_symmetry_cell_setting	triclinic
loop_
_symmetry_equiv_pos_as_xyz
  x,y,z
_cell_length_a	27.732064
_cell_length_b	27.731996
_cell_length_c	26.210047
_cell_angle_alpha	89.998501
_cell_angle_beta	89.998671
_cell_angle_gamma	82.635407
loop_
_atom_site_label
_atom_site_type_symbol
_atom_site_fract_x
_atom_site_fract_y
_atom_site_fract_z
O1	O	0.640915	0.057550	-0.042344
O2	O	0.500121	0.066287	-0.042366
O3	O	0.574904	-0.008480	-0.042344
O4	O	0.566132	0.132317	-0.042367
O5	O	0.574890	-0.008468	0.042514
O6	O	0.500107	0.066299	0.042492
O7	O	0.640901	0.057561	0.042514
Cu8	Cu	0.570502	0.061931	0.050251
Cu9	Cu	0.570519	0.061917	-0.050104
O10	O	0.566118	0.132328	0.042491
C11	C	0.482107	0.066108	0.000060
C12	C	0.428453	0.065552	0.000052
C13	C	0.574717	-0.026481	0.000087
C14	C	0.574174	-0.080138	0.000092
C15	C	0.051389	0.017584	0.000089
C16	C	0.253049	0.019630	0.000076
O17	O	0.284309	-0.017592	0.000101
N18	N	0.272168	0.063966	0.000066
C19	C	0.240869	0.107793	0.000063
O20	O	0.261758	0.145549	0.000060
C21	C	0.039210	0.105746	0.000080
C22	C	0.020094	0.061407	0.000085
C23	C	0.032272	-0.026751	0.000094
C24	C	-0.018140	-0.027262	0.000095
C25	C	-0.049435	0.016562	0.000090
C26	C	-0.030318	0.060896	0.000085
C27	C	0.007912	0.149572	0.000081
C28	C	-0.042506	0.149057	0.000087
C29	C	-0.061622	0.104718	0.000091
C30	C	-0.112026	0.104209	0.000082
N31	N	-0.131145	0.059873	0.000091
C32	C	-0.099849	0.016050	0.000096
C33	C	0.346743	0.108864	0.000053
C34	C	0.397158	0.109376	0.000048
C35	C	0.409334	0.021213	0.000061
C36	C	0.358919	0.020702	0.000063
C37	C	0.327624	0.064529	0.000063
C38	C	-0.205719	0.014980	0.000096
C39	C	-0.256136	0.014473	0.000095
C40	C	-0.268308	0.102635	0.000084
C41	C	-0.217895	0.103142	0.000083
C42	C	-0.186601	0.059311	0.000091
O43	O	-0.143313	0.141411	0.000062
O44	O	-0.120748	-0.021702	0.000110
C45	C	0.101801	0.018095	0.000089
C46	C	0.120918	0.062430	0.000083
C47	C	0.089623	0.106253	0.000079
C48	C	0.171332	0.062941	0.000078
C49	C	0.202628	0.019118	0.000083
C50	C	0.183508	-0.025218	0.000092
C51	C	0.133096	-0.025729	0.000093
C52	C	0.108742	0.150589	0.000069
C53	C	0.159154	0.151096	0.000068
C54	C	0.190450	0.107273	0.000073
C55	C	0.570767	-0.412861	-0.046189
C56	C	0.568706	-0.614519	-0.046199
O57	O	0.568425	-0.640595	-0.085538
N58	N	0.568442	-0.639730	0.000057
C59	C	0.568690	-0.614522	0.046318
O60	O	0.568414	-0.640592	0.085661
C61	C	0.570748	-0.412865	0.046327
C62	C	0.571017	-0.387657	0.000068
C63	C	0.571035	-0.387653	-0.092444
C64	C	0.571553	-0.337242	-0.092442
C65	C	0.571803	-0.312038	-0.046184
C66	C	0.571535	-0.337246	0.000071
C67	C	0.570993	-0.387658	0.092588
C68	C	0.571506	-0.337240	0.092586
C69	C	0.571775	-0.312032	0.046327
C70	C	0.572302	-0.261631	0.046332
N71	N	0.572566	-0.236420	0.000076
C72	C	0.572316	-0.261624	-0.046182
C73	C	0.567611	-0.720396	0.046310
C74	C	0.567098	-0.770810	0.046308
C75	C	0.567112	-0.770803	-0.046209
C76	C	0.567629	-0.720388	-0.046206
C77	C	0.567875	-0.695185	0.000055
C78	C	0.573404	-0.155757	-0.046172
C79	C	0.573924	-0.105341	-0.046166
C80	C	0.573907	-0.105352	0.046351
C81	C	0.573390	-0.155764	0.046345
C82	C	0.573137	-0.180964	0.000079
O83	O	0.572578	-0.235523	0.085650
O84	O	0.572582	-0.235544	-0.085519
C85	C	0.570249	-0.463272	-0.046192
C86	C	0.569981	-0.488479	0.000063
C87	C	0.570231	-0.463276	0.046320
C88	C	0.569467	-0.538894	0.000061
C89	C	0.569218	-0.564097	-0.046197
C90	C	0.569482	-0.538887	-0.092453
C91	C	0.569999	-0.488475	-0.092450
C92	C	0.569967	-0.488487	0.092576
C93	C	0.569449	-0.538898	0.092569
C94	C	0.569200	-0.564102	0.046312
C95	C	0.658915	0.057740	0.000086
C96	C	0.712569	0.058296	0.000091
C97	C	0.566305	0.150330	0.000059
C98	C	0.566848	0.203986	0.000051
N99	N	0.570494	0.061940	0.120835
N100	N	0.570532	0.061904	-0.120688
C101	C	0.603630	0.028818	0.473359
C102	C	0.603641	0.028811	0.687017
O103	O	0.631795	0.000651	0.714648
N104	N	0.570522	0.061907	0.713729
C105	C	0.537396	0.095004	0.687022
O106	O	0.509224	0.123150	0.714644
C107	C	0.537384	0.095008	0.473364
C108	C	0.570508	0.061914	0.446656
C109	C	0.636751	-0.004274	0.446650
C110	C	0.636749	-0.004270	0.393239
C111	C	0.603627	0.028825	0.366536
C112	C	0.570507	0.061918	0.393244
C113	C	0.504256	0.128103	0.446659
C114	C	0.504255	0.128100	0.393241
C115	C	0.537379	0.095006	0.366532
C116	C	0.537383	0.095017	0.313130
N117	N	0.570502	0.061922	0.286419
C118	C	0.603624	0.028826	0.313122
C119	C	0.537406	0.095000	0.799195
C120	C	0.537410	0.095000	0.852609
C121	C	0.603653	0.028806	0.852601
C122	C	0.603652	0.028809	0.799186
C123	C	0.570525	0.061905	0.772484
C124	C	0.603619	0.028837	0.200954
C125	C	0.603616	0.028845	0.147538
C126	C	0.537371	0.095036	0.147551
C127	C	0.537375	0.095030	0.200962
C128	C	0.570501	0.061926	0.227662
O129	O	0.509240	0.123159	0.285467
O130	O	0.631785	0.000677	0.285490
C131	C	0.603631	0.028814	0.526770
C132	C	0.570510	0.061906	0.553479
C133	C	0.537388	0.095002	0.526776
C134	C	0.570514	0.061906	0.606893
C135	C	0.603636	0.028810	0.633596
C136	C	0.636754	-0.004285	0.606885
C137	C	0.636753	-0.004282	0.553473
C138	C	0.504270	0.128098	0.553487
C139	C	0.504274	0.128091	0.606899
C140	C	0.537396	0.094996	0.633602
H141	H	-0.271697	-0.021635	0.000097
H142	H	0.570830	-0.408168	-0.130115
H143	H	0.571770	-0.316722	-0.130110
N144	N	0.569164	-0.566081	0.142468
H145	H	0.539273	-0.553159	0.162683
H146	H	0.568816	-0.601837	0.135412
N147	N	0.574209	-0.078143	-0.096055
H148	H	0.604096	-0.091056	-0.116279
H149	H	0.544124	-0.082776	-0.116241
N150	N	0.573145	-0.182935	-0.096072
H151	H	0.573399	-0.159311	-0.125370
H152	H	0.602913	-0.207991	-0.098075
H153	H	0.567847	-0.699868	-0.083874
H154	H	0.083265	0.186276	0.000066
H155	H	0.117537	-0.061833	0.000097
N156	N	0.501680	0.130702	0.770395
H157	H	0.480416	0.112379	0.748236
H158	H	0.480736	0.151659	0.795456
H159	H	-0.033699	-0.063367	0.000101
H160	H	0.412717	0.145480	0.000037
N161	N	0.672476	-0.039977	0.524666
H162	H	0.706738	-0.034645	0.533961
H163	H	0.667130	-0.074232	0.533976
H164	H	0.566910	-0.791333	-0.083874
H165	H	0.570171	-0.467971	0.130245
H166	H	0.321266	0.144555	0.000052
N167	N	-0.197277	0.150964	0.000074
H168	H	-0.176634	0.153145	0.031532
H169	H	-0.176653	0.153111	-0.031403
H170	H	-0.180245	-0.020712	0.000103
N171	N	0.501658	0.130731	0.229773
H172	H	0.480678	0.151700	0.204749
H173	H	0.480430	0.112371	0.251934
H174	H	0.566886	-0.791331	0.083977
N175	N	0.468524	0.163793	0.475457
H176	H	0.447268	0.145459	0.497617
H177	H	0.486856	0.185067	0.497590
H178	H	0.663723	-0.031227	0.468387
N179	N	0.567883	-0.693220	0.096211
H180	H	0.598073	-0.676447	0.098280
H181	H	0.538100	-0.668186	0.098247
H182	H	0.057749	-0.062439	0.000099
N183	N	-0.302067	0.149900	0.000077
H184	H	-0.336904	0.142844	0.000081
H185	H	-0.295915	0.169240	0.031534
H186	H	0.630591	0.001895	0.125793
N187	N	0.217268	-0.072485	0.000095
H188	H	0.252104	-0.065429	0.000094
H189	H	0.211117	-0.091820	0.031557
H190	H	0.343358	-0.015402	0.000067
H191	H	0.477301	0.155045	0.628641
H192	H	0.174713	0.187204	0.000061
N193	N	0.570704	-0.414838	0.142482
H194	H	0.570937	-0.391214	0.171781
H195	H	0.540511	-0.431610	0.144492
H196	H	0.477278	0.155050	0.371503
N197	N	0.569221	-0.566081	-0.142343
H198	H	0.599294	-0.561454	-0.162556
H199	H	0.568838	-0.601830	-0.135272
H200	H	0.571699	-0.316721	0.130258
H201	H	0.434824	-0.014470	0.000063
N202	N	0.573108	-0.182957	0.096236
H203	H	0.573347	-0.159339	0.125540
H204	H	0.542914	-0.199726	0.098246
H205	H	0.574112	-0.084823	0.084013
N206	N	0.639379	-0.006890	0.881407
H207	H	0.634352	-0.001866	0.919296
H208	H	0.634056	-0.041145	0.872074
H209	H	0.510442	0.121953	0.874352
H210	H	0.570218	-0.467956	-0.130119
N211	N	0.639349	-0.006864	0.229747
H212	H	0.660330	-0.027823	0.204716
H213	H	0.660576	0.011498	0.251906
N214	N	0.639366	-0.006892	0.770376
H215	H	0.660626	0.011430	0.748208
H216	H	0.660316	-0.027851	0.795430
N217	N	0.028522	0.197395	0.000071
H218	H	0.001040	0.225074	0.000070
H219	H	0.049174	0.199535	0.031526
N220	N	0.672474	-0.039967	0.364436
H221	H	0.693453	-0.060932	0.389464
H222	H	0.654133	-0.061213	0.342277
H223	H	-0.067984	0.184746	0.000089
H224	H	0.510405	0.121984	0.125801
H225	H	0.663726	-0.031232	0.628635
H226	H	0.477297	0.155048	0.531750
