data_functionalizedCrystal
_audit_creation_method	'MofGen! by Chris Wilmer'
_symmetry_space_group_name_H-M	'P1'
_symmetry_Int_Tables_number	1
_symmetry_cell_setting	triclinic
loop_
_symmetry_equiv_pos_as_xyz
  x,y,z
_cell_length_a	14.519709
_cell_length_b	13.596369
_cell_length_c	11.792241
_cell_angle_alpha	89.993871
_cell_angle_beta	83.936780
_cell_angle_gamma	90.000816
loop_
_atom_site_label
_atom_site_type_symbol
_atom_site_fract_x
_atom_site_fract_y
_atom_site_fract_z
O1	O	-1.224413	0.081652	-0.148782
O2	O	-0.974413	0.331652	0.101218
O3	O	-0.724413	0.581652	0.351218
O4	O	-0.474413	0.831652	0.601218
O5	O	-0.956000	0.081684	-0.166303
O6	O	-0.706000	0.331684	0.083697
O7	O	-0.456000	0.581684	0.333697
O8	O	-0.206000	0.831684	0.583697
O9	O	-1.096720	0.081660	0.007664
O10	O	-0.846720	0.331660	0.257664
O11	O	-0.596720	0.581660	0.507664
O12	O	-0.346720	0.831660	0.757664
O13	O	-1.083693	0.081676	-0.322749
O14	O	-0.833693	0.331676	-0.072749
O15	O	-0.583693	0.581676	0.177251
O16	O	-0.333693	0.831676	0.427251
O17	O	-1.096706	-0.081923	0.007673
O18	O	-0.846706	0.168077	0.257673
O19	O	-0.596706	0.418077	0.507673
O20	O	-0.346706	0.668077	0.757673
O21	O	-0.955986	-0.081898	-0.166294
O22	O	-0.705986	0.168102	0.083706
O23	O	-0.455986	0.418102	0.333706
O24	O	-0.205986	0.668102	0.583706
O25	O	-1.224399	-0.081931	-0.148773
O26	O	-0.974399	0.168069	0.101227
O27	O	-0.724399	0.418069	0.351227
O28	O	-0.474399	0.668069	0.601227
Zn29	Zn	-1.090190	-0.107887	-0.157532
Zn30	Zn	-0.840190	0.142113	0.092468
Zn31	Zn	-0.590190	0.392113	0.342468
Zn32	Zn	-0.340190	0.642113	0.592468
Zn33	Zn	-1.090209	0.107640	-0.157544
Zn34	Zn	-0.840209	0.357640	0.092456
Zn35	Zn	-0.590209	0.607640	0.342456
Zn36	Zn	-0.340209	0.857640	0.592456
O37	O	-1.083679	-0.081907	-0.322740
O38	O	-0.833679	0.168093	-0.072740
O39	O	-0.583679	0.418093	0.177260
O40	O	-0.333679	0.668093	0.427260
C41	C	-0.921630	-0.000103	-0.165482
C42	C	-0.671630	0.249897	0.084518
C43	C	-0.421630	0.499897	0.334518
C44	C	-0.171630	0.749897	0.584518
C45	C	-0.819240	-0.000091	-0.163035
C46	C	-0.569240	0.249909	0.086965
C47	C	-0.319240	0.499909	0.336965
C48	C	-0.069240	0.749909	0.586965
C49	C	-0.444311	-0.000132	-0.154027
C50	C	-0.194311	0.249868	0.095973
C51	C	0.055689	0.499868	0.345973
C52	C	0.305689	0.749868	0.595973
C53	C	-0.548628	-0.000120	-0.156528
C54	C	-0.298628	0.249880	0.093472
C55	C	-0.048628	0.499880	0.343472
C56	C	0.201372	0.749880	0.593472
C57	C	-0.631772	-0.000110	-0.158531
C58	C	-0.381772	0.249890	0.091469
C59	C	-0.131772	0.499890	0.341469
C60	C	0.118228	0.749890	0.591469
C61	C	-0.736096	-0.000100	-0.161033
C62	C	-0.486096	0.249900	0.088967
C63	C	-0.236096	0.499900	0.338967
C64	C	0.013904	0.749900	0.588967
N65	N	-1.090184	-0.254979	-0.157523
N66	N	-0.840184	-0.004979	0.092477
N67	N	-0.590184	0.245021	0.342477
N68	N	-0.340184	0.495021	0.592477
C69	C	-1.090208	-0.656270	-0.157545
C70	C	-0.840208	-0.406270	0.092455
C71	C	-0.590208	-0.156270	0.342455
C72	C	-0.340208	0.093730	0.592455
C73	C	-1.090198	-0.544619	-0.157543
C74	C	-0.840198	-0.294619	0.092457
C75	C	-0.590198	-0.044619	0.342457
C76	C	-0.340198	0.205381	0.592457
C77	C	-1.090196	-0.455628	-0.157535
C78	C	-0.840196	-0.205628	0.092465
C79	C	-0.590196	0.044372	0.342465
C80	C	-0.340196	0.294372	0.592465
C81	C	-1.090186	-0.343970	-0.157531
C82	C	-0.840186	-0.093970	0.092469
C83	C	-0.590186	0.156030	0.342469
C84	C	-0.340186	0.406030	0.592469
C85	C	-0.258769	-0.000139	-0.149594
C86	C	-0.008769	0.249861	0.100406
C87	C	0.241231	0.499861	0.350406
C88	C	0.491231	0.749861	0.600406
C89	C	-0.361159	-0.000138	-0.152041
C90	C	-0.111159	0.249862	0.097959
C91	C	0.138841	0.499862	0.347959
C92	C	0.388841	0.749862	0.597959
C93	C	-1.095895	-0.000131	0.049955
C94	C	-0.845895	0.249869	0.299955
C95	C	-0.595895	0.499869	0.549955
C96	C	-0.345895	0.749869	0.799955
C97	C	-1.093446	-0.000129	0.175955
C98	C	-0.843446	0.249871	0.425955
C99	C	-0.593446	0.499871	0.675955
C100	C	-0.343446	0.749871	0.925955
N101	N	-1.090222	0.254732	-0.157544
N102	N	-0.840222	0.504732	0.092456
N103	N	-0.590222	0.754732	0.342456
N104	N	-0.340222	1.004732	0.592456
C105	C	-1.084504	-0.000114	-0.365031
C106	C	-0.834504	0.249886	-0.115031
C107	C	-0.584504	0.499886	0.134969
C108	C	-0.334504	0.749886	0.384969
C109	C	-1.086954	-0.000109	-0.491031
C110	C	-0.836954	0.249891	-0.241031
C111	C	-0.586954	0.499891	0.008969
C112	C	-0.336954	0.749891	0.258969
C113	C	-1.088942	-0.000112	0.406642
C114	C	-0.838942	0.249888	0.656642
C115	C	-0.588942	0.499888	0.906642
C116	C	-0.338942	0.749888	1.156642
C117	C	-1.091444	-0.000122	0.278271
C118	C	-0.841444	0.249878	0.528271
C119	C	-0.591444	0.499878	0.778271
C120	C	-0.341444	0.749878	1.028271
