data_functionalizedCrystal
_audit_creation_method	'MofGen! by Chris Wilmer'
_symmetry_space_group_name_H-M	'P1'
_symmetry_Int_Tables_number	1
_symmetry_cell_setting	triclinic
loop_
_symmetry_equiv_pos_as_xyz
  x,y,z
_cell_length_a	19.188905
_cell_length_b	19.188924
_cell_length_c	16.176319
_cell_angle_alpha	90.004356
_cell_angle_beta	89.989171
_cell_angle_gamma	83.138260
loop_
_atom_site_label
_atom_site_type_symbol
_atom_site_fract_x
_atom_site_fract_y
_atom_site_fract_z
O1	O	0.926154	0.087073	-0.068886
O2	O	0.722840	0.098826	-0.068859
O3	O	0.830367	-0.008707	-0.068864
O4	O	0.818628	0.194606	-0.068882
O5	O	0.830357	-0.008687	0.068630
O6	O	0.722830	0.098845	0.068634
O7	O	0.926144	0.087093	0.068607
Cu8	Cu	0.824486	0.092971	0.081175
Cu9	Cu	0.824498	0.092948	-0.081427
O10	O	0.818617	0.194626	0.068612
C11	C	0.696824	0.098458	-0.000108
C12	C	0.619318	0.097324	-0.000098
C13	C	0.582932	0.096769	-0.075047
C14	C	0.510109	0.095696	-0.075057
C15	C	0.473676	0.095164	-0.000114
C16	C	0.510070	0.095723	0.074846
C17	C	0.582892	0.096803	0.074854
N18	N	0.364652	0.053743	0.055663
N19	N	0.295475	0.052716	0.055651
C20	C	0.254269	0.091911	-0.000133
N21	N	0.284855	0.132165	-0.055917
N22	N	0.354038	0.133189	-0.055906
C23	C	0.394713	0.093993	-0.000114
C24	C	0.138919	0.090194	-0.075099
C25	C	0.066094	0.089125	-0.075106
C26	C	0.066058	0.089145	0.074799
C27	C	0.138881	0.090221	0.074804
C28	C	0.175308	0.090742	-0.000147
C29	C	0.829982	-0.034708	-0.000116
C30	C	0.828844	-0.112213	-0.000114
C31	C	0.828318	-0.148622	-0.075062
C32	C	0.827238	-0.221445	-0.075068
C33	C	0.826698	-0.257857	-0.000122
C34	C	0.827220	-0.221439	0.074836
C35	C	0.828293	-0.148616	0.074840
N36	N	0.864742	-0.377516	0.055653
N37	N	0.863724	-0.446694	0.055644
C38	C	0.823464	-0.477266	-0.000129
N39	N	0.784268	-0.436048	-0.055907
N40	N	0.785289	-0.366863	-0.055900
C41	C	0.825534	-0.336821	-0.000118
C42	C	0.821766	-0.592638	-0.075089
C43	C	0.820682	-0.665461	-0.075092
C44	C	0.820671	-0.665454	0.074814
C45	C	0.821748	-0.592632	0.074814
C46	C	0.822299	-0.556228	-0.000139
C47	C	0.952160	0.087461	-0.000145
C48	C	1.029666	0.088594	-0.000162
C49	C	0.819002	0.220627	-0.000138
C50	C	0.820141	0.298132	-0.000145
N51	N	0.824483	0.092987	0.195540
N52	N	0.824507	0.092927	-0.195792
C53	C	0.782293	0.050694	0.760940
C54	C	0.782291	0.050699	0.674393
C55	C	0.824501	0.092942	0.631115
C56	C	0.866721	0.135176	0.674389
C57	C	0.866725	0.135167	0.760935
C58	C	0.866703	0.135216	0.325361
C59	C	0.866694	0.135224	0.238810
C60	C	0.782269	0.050748	0.238819
C61	C	0.782274	0.050738	0.325365
C62	C	0.824496	0.092970	0.368631
C63	C	0.824498	0.092963	0.462475
C64	C	0.824496	0.092953	0.537273
H65	H	0.168507	0.090669	0.135836
H66	H	0.822211	-0.562996	-0.136121
C67	C	0.178419	0.090917	-0.156495
C68	C	0.152680	0.150718	-0.201703
C69	C	0.189055	0.151415	-0.276682
H70	H	0.171974	0.050081	-0.187394
H71	H	0.227002	0.091675	-0.145788
H72	H	0.104109	0.149954	-0.212412
H73	H	0.159126	0.191564	-0.170829
H74	H	0.237638	0.152173	-0.265975
H75	H	0.182607	0.110576	-0.307574
H76	H	0.171601	0.191992	-0.307362
H77	H	0.820250	-0.695104	-0.136126
C78	C	0.819957	-0.705043	0.156130
C79	C	0.759286	-0.738807	0.160496
C80	C	0.758600	-0.775289	0.235391
H81	H	0.820385	-0.672995	0.200832
H82	H	0.860218	-0.738948	0.159264
H83	H	0.719036	-0.704906	0.157370
H84	H	0.758846	-0.770867	0.115811
H85	H	0.798861	-0.809194	0.238525
H86	H	0.759030	-0.743236	0.280087
H87	H	0.717439	-0.798207	0.238360
H88	H	0.828718	-0.118972	0.135873
H89	H	0.901068	0.169625	0.203575
C90	C	0.912624	0.181064	0.627555
C91	C	0.949608	0.218034	0.683974
C92	C	0.991907	0.260309	0.640863
H93	H	0.883984	0.213333	0.593808
H94	H	0.944880	0.152388	0.593793
H95	H	0.917356	0.246708	0.717721
H96	H	0.978261	0.185783	0.717723
H97	H	1.024163	0.231633	0.607101
H98	H	0.963262	0.292573	0.607117
H99	H	1.017011	0.285393	0.679136
H100	H	0.036394	0.088717	0.135820
H101	H	0.036469	0.088677	-0.136142
C102	C	0.470398	0.095106	0.156128
C103	C	0.398838	0.094020	0.140081
C104	C	0.362272	0.093444	0.214940
H105	H	0.476782	0.135982	0.186984
H106	H	0.487746	0.054564	0.186935
H107	H	0.381495	0.134558	0.109287
H108	H	0.392433	0.053147	0.109237
H109	H	0.379620	0.052902	0.245747
H110	H	0.368661	0.134321	0.245790
H111	H	0.313716	0.092701	0.204062
H112	H	0.612587	0.097193	-0.136079
H113	H	0.901082	0.169604	0.360578
C114	C	0.828870	-0.109219	-0.156524
C115	C	0.828159	-0.156696	-0.222162
C116	C	0.828656	-0.120420	-0.297216
H117	H	0.869983	-0.086259	-0.159762
H118	H	0.788564	-0.075373	-0.159679
H119	H	0.868461	-0.190530	-0.219009
H120	H	0.787049	-0.179658	-0.218951
H121	H	0.788350	-0.086573	-0.300371
H122	H	0.869770	-0.097461	-0.300446
H123	H	0.828167	-0.152626	-0.341761
C124	C	0.622281	0.097363	0.156319
C125	C	0.574794	0.096653	0.221953
C126	C	0.611056	0.097157	0.297011
H127	H	0.645238	0.138478	0.159552
H128	H	0.656129	0.057059	0.159485
H129	H	0.540958	0.136953	0.218789
H130	H	0.551835	0.055541	0.218748
H131	H	0.644905	0.056853	0.300176
H132	H	0.634012	0.138273	0.300235
H133	H	0.578843	0.096668	0.341552
H134	H	0.822182	-0.562987	0.135845
H135	H	0.747892	0.016359	0.203581
H136	H	0.747917	0.016298	0.796170
H137	H	0.747918	0.016307	0.639168
H138	H	0.480477	0.095245	-0.136092
H139	H	0.826805	-0.251095	-0.136101
C140	C	0.826665	-0.261098	0.156120
C141	C	0.825631	-0.332669	0.140077
C142	C	0.825124	-0.369225	0.214938
H143	H	0.786139	-0.243795	0.186980
H144	H	0.867559	-0.254658	0.186922
H145	H	0.784742	-0.339105	0.109288
H146	H	0.866154	-0.349993	0.109229
H147	H	0.866018	-0.362785	0.245740
H148	H	0.784598	-0.351916	0.245792
H149	H	0.824429	-0.417790	0.204063
H150	H	0.747900	0.016343	0.360597
H151	H	0.901101	0.169557	0.796163
