data_functionalizedCrystal
_audit_creation_method	'MofGen! by Chris Wilmer'
_symmetry_space_group_name_H-M	'P1'
_symmetry_Int_Tables_number	1
_symmetry_cell_setting	triclinic
loop_
_symmetry_equiv_pos_as_xyz
  x,y,z
_cell_length_a	17.699083
_cell_length_b	11.792254
_cell_length_c	16.776229
_cell_angle_alpha	89.992926
_cell_angle_beta	89.992455
_cell_angle_gamma	83.740806
loop_
_atom_site_label
_atom_site_type_symbol
_atom_site_fract_x
_atom_site_fract_y
_atom_site_fract_z
O1	O	0.103784	1.505660	-0.066289
O2	O	0.114465	1.175193	-0.066291
O3	O	-0.001015	1.349763	-0.066283
O4	O	0.219263	1.331090	-0.066297
O5	O	-0.001022	1.349740	0.066293
O6	O	0.114457	1.175170	0.066285
O7	O	0.103776	1.505637	0.066287
Zn8	Zn	0.109116	1.340400	0.087336
Zn9	Zn	0.109125	1.340430	-0.087340
O10	O	0.219256	1.331067	0.066279
C11	C	0.113788	1.132899	-0.000003
C12	C	0.111774	1.006910	-0.000004
C13	C	-0.029219	1.349083	0.000005
C14	C	-0.113248	1.347075	0.000006
C15	C	0.110138	0.904593	-0.000007
C16	C	0.108092	0.776231	-0.000007
C17	C	-0.161320	1.449544	0.000007
C18	C	-0.240273	1.447651	0.000000
C19	C	-0.271153	1.343288	-0.000003
C20	C	-0.223076	1.240812	-0.000007
C21	C	-0.144124	1.242706	-0.000006
C22	C	-0.541480	1.233171	-0.000013
C23	C	-0.620438	1.231285	-0.000012
C24	C	-0.637629	1.438117	-0.000008
C25	C	-0.558677	1.440011	-0.000006
C26	C	-0.510606	1.337535	-0.000015
C27	C	-0.424996	1.339588	-0.000008
C28	C	-0.356762	1.341234	-0.000003
C29	C	0.247460	1.331748	-0.000011
C30	C	0.331489	1.333755	-0.000016
N31	N	0.109109	1.340387	0.206547
C32	C	0.104453	1.547931	-0.000003
C33	C	0.106467	1.673920	-0.000007
N34	N	0.109126	1.340452	-0.206551
C35	C	0.057996	1.417711	0.248268
C36	C	0.057995	1.417717	0.331720
C37	C	0.109112	1.340405	0.373450
C38	C	0.160227	1.263073	0.331723
C39	C	0.160224	1.263062	0.248273
C40	C	0.160242	1.263114	0.668271
C41	C	0.160244	1.263133	0.751727
C42	C	0.058014	1.417769	0.751718
C43	C	0.058010	1.417758	0.668267
C44	C	0.109123	1.340423	0.626548
C45	C	0.109122	1.340416	0.536059
C46	C	0.109117	1.340416	0.463937
H47	H	-0.136184	1.534529	0.000015
O48	O	0.008373	1.492722	0.372370
C49	C	0.019345	1.476172	0.454974
H50	H	0.047220	1.385863	0.466381
H51	H	0.057600	1.540299	0.478641
C52	C	-0.092240	1.604382	0.483817
C53	C	-0.058008	1.493459	0.497828
H54	H	-0.139953	1.615050	0.510253
H55	H	-0.099630	1.615536	0.428166
H56	H	-0.060353	1.657808	0.503540
H57	H	-0.089890	1.440035	0.478097
H58	H	-0.050625	1.482296	0.553477
H59	H	0.016389	1.480716	0.634293
O60	O	0.209821	1.187864	0.792230
C61	C	0.197011	1.075554	0.771849
H62	H	0.136411	1.075178	0.748917
H63	H	0.238809	1.042081	0.723410
C64	C	0.282846	0.999060	0.874160
C65	C	0.208414	0.998597	0.846001
H66	H	0.289883	0.951586	0.919899
H67	H	0.291479	1.074725	0.887889
H68	H	0.317670	0.971168	0.833787
H69	H	0.173592	1.026501	0.886370
H70	H	0.199775	0.922934	0.832280
O71	O	-0.286861	1.547295	0.000043
C72	C	-0.242676	1.639813	0.000033
H73	H	-0.183879	1.610834	0.025132
H74	H	-0.236914	1.671835	-0.063568
C75	C	-0.353833	1.772358	0.021205
C76	C	-0.281620	1.736768	0.052038
H77	H	-0.377857	1.832167	0.053281
H78	H	-0.383603	1.710027	0.021209
H79	H	-0.349022	1.799034	-0.031795
H80	H	-0.286433	1.710079	0.105033
H81	H	-0.251852	1.799096	0.052045
H82	H	0.201861	1.200148	0.634309
H83	H	0.016393	1.480736	0.785694
O84	O	-0.253161	1.139504	-0.000117
C85	C	-0.298293	1.132221	-0.068788
H86	H	-0.317583	1.221733	-0.091679
H87	H	-0.263619	1.081923	-0.116870
C88	C	-0.344685	0.961354	-0.019816
C89	C	-0.368382	1.071295	-0.047926
H90	H	-0.387917	0.923768	-0.006949
H91	H	-0.314276	0.966257	0.026448
H92	H	-0.315788	0.919454	-0.059889
H93	H	-0.397269	1.113198	-0.007851
H94	H	-0.398798	1.066397	-0.094184
O95	O	-0.528807	1.541488	-0.000039
C96	C	-0.588167	1.631527	-0.000021
H97	H	-0.641924	1.599865	-0.025120
H98	H	-0.599215	1.663116	0.063583
C99	C	-0.499445	1.768868	-0.021186
C100	C	-0.565468	1.729982	-0.052020
H101	H	-0.485443	1.829602	-0.053258
H102	H	-0.459451	1.708208	-0.021196
H103	H	-0.508659	1.795184	0.031816
H104	H	-0.556250	1.703653	-0.105017
H105	H	-0.605460	1.790640	-0.052020
H106	H	0.201845	1.200118	0.365705
H107	H	-0.676778	1.521558	-0.000005
O108	O	-0.097533	1.143062	0.000028
C109	C	-0.141716	1.050541	0.000005
H110	H	-0.200519	1.079502	0.025108
H111	H	-0.147464	1.018559	-0.063601
C112	C	-0.030560	0.917989	0.021157
C113	C	-0.102781	0.953557	0.051996
H114	H	-0.006542	0.858161	0.053225
H115	H	-0.000792	0.980321	0.021170
H116	H	-0.035360	0.891344	-0.031846
H117	H	-0.097979	0.980213	0.104995
H118	H	-0.132547	0.891226	0.051993
O119	O	-0.650310	1.129801	-0.000058
C120	C	-0.590953	1.039758	-0.000047
H121	H	-0.537189	1.071427	-0.025145
H122	H	-0.579919	1.008137	0.063553
C123	C	-0.679677	0.902436	-0.021223
C124	C	-0.613645	0.941331	-0.052054
H125	H	-0.693675	0.841719	-0.053300
H126	H	-0.719668	0.963099	-0.021227
H127	H	-0.670474	0.876093	0.031777
H128	H	-0.622852	0.967686	-0.105049
H129	H	-0.573656	0.880670	-0.052061
H130	H	0.016374	1.480672	0.214296
O131	O	0.209950	1.187911	0.207866
C132	C	0.255057	1.119656	0.262590
H133	H	0.256127	1.166192	0.322069
H134	H	0.230099	1.035422	0.271485
C135	C	0.335283	1.038870	0.156955
C136	C	0.336603	1.096029	0.230006
H137	H	0.385584	1.024290	0.136854
H138	H	0.304893	1.084850	0.120085
H139	H	0.314481	0.968680	0.164376
H140	H	0.357395	1.166223	0.222581
H141	H	0.366999	1.050060	0.266874
H142	H	-0.502349	1.149728	-0.000020
