data_functionalizedCrystal
_audit_creation_method	'MofGen! by Chris Wilmer'
_symmetry_space_group_name_H-M	'P1'
_symmetry_Int_Tables_number	1
_symmetry_cell_setting	triclinic
loop_
_symmetry_equiv_pos_as_xyz
  x,y,z
_cell_length_a	19.805407
_cell_length_b	15.299816
_cell_length_c	19.805399
_cell_angle_alpha	80.341151
_cell_angle_beta	90.017803
_cell_angle_gamma	80.348074
loop_
_atom_site_label
_atom_site_type_symbol
_atom_site_fract_x
_atom_site_fract_y
_atom_site_fract_z
Zn1	Zn	1.081379	-0.359152	0.429382
Zn2	Zn	1.581379	0.140848	0.929382
Zn3	Zn	1.100882	-0.509978	0.335804
Zn4	Zn	1.600882	-0.009978	0.835804
Zn5	Zn	0.968196	-0.359170	0.316213
Zn6	Zn	1.468196	0.140830	0.816213
Zn7	Zn	0.987738	-0.509923	0.448947
Zn8	Zn	1.487738	-0.009923	0.948947
O9	O	1.034549	-0.434556	0.382586
O10	O	1.534549	0.065444	0.882586
O11	O	1.178685	-0.379175	0.416980
O12	O	1.678685	0.120825	0.916980
O13	O	1.083265	-0.490004	0.238492
O14	O	1.583265	0.009996	0.738492
O15	O	0.966870	-0.232955	0.314838
O16	O	1.466870	0.267045	0.814838
O17	O	1.193014	-0.489987	0.348228
O18	O	1.693014	0.010013	0.848228
O19	O	1.050025	-0.232942	0.397984
O20	O	1.550025	0.267058	0.897984
O21	O	0.985781	-0.379205	0.224099
O22	O	1.485781	0.120795	0.724099
O23	O	0.876070	-0.379152	0.333809
O24	O	1.376070	0.120848	0.833809
O25	O	1.000176	-0.489893	0.541064
O26	O	1.500176	0.010107	1.041064
O27	O	0.890427	-0.489910	0.431328
O28	O	1.390427	0.010090	0.931328
O29	O	1.068974	-0.379122	0.526690
O30	O	1.568974	0.120878	1.026690
O31	O	1.102214	-0.636183	0.367199
O32	O	1.602214	-0.136183	0.867199
O33	O	1.019088	-0.636143	0.450325
O34	O	1.519088	-0.136143	0.950325
C35	C	0.858689	-0.434528	0.382566
C36	C	1.358689	0.065472	0.882566
C37	C	0.783459	-0.434537	0.382577
C38	C	1.283459	0.065463	0.882577
C39	C	0.740667	-0.376940	0.418455
C40	C	1.240667	0.123060	0.918455
C41	C	0.669980	-0.376945	0.418458
C42	C	1.169980	0.123055	0.918458
C43	C	0.642085	-0.434552	0.382587
C44	C	1.142085	0.065448	0.882587
C45	C	0.684881	-0.492152	0.346704
C46	C	1.184881	0.007848	0.846704
C47	C	0.755567	-0.492142	0.346697
C48	C	1.255567	0.007858	0.846697
C49	C	0.399813	-0.492193	0.346730
C50	C	0.899813	0.007807	0.846730
C51	C	0.329122	-0.492200	0.346741
C52	C	0.829122	0.007800	0.846741
C53	C	0.314226	-0.376995	0.418491
C54	C	0.814226	0.123005	0.918491
C55	C	0.384911	-0.376985	0.418484
C56	C	0.884911	0.123015	0.918484
C57	C	0.427701	-0.434581	0.382599
C58	C	0.927701	0.065419	0.882599
C59	C	0.504349	-0.434574	0.382595
C60	C	1.004349	0.065426	0.882595
C61	C	0.565439	-0.434564	0.382594
C62	C	1.065439	0.065436	0.882594
C63	C	1.064906	-0.668889	0.413026
C64	C	1.564906	-0.168889	0.913026
C65	C	1.077955	-0.769137	0.426070
C66	C	1.577955	-0.269137	0.926070
C67	C	0.941731	-1.052047	0.289585
C68	C	1.441731	-0.552047	0.789585
C69	C	0.929468	-0.957859	0.277330
C70	C	1.429468	-0.457859	0.777330
C71	C	0.966589	-0.910674	0.314514
C72	C	1.466589	-0.410674	0.814514
C73	C	1.015975	-0.957686	0.363955
C74	C	1.515975	-0.457686	0.863955
C75	C	1.028236	-1.051884	0.376214
C76	C	1.528236	-0.551884	0.876214
C77	C	1.053093	-0.910511	0.401143
C78	C	1.553093	-0.410511	0.901143
C79	C	1.102479	-0.957523	0.450584
C80	C	1.602479	-0.457523	0.950584
C81	C	1.114738	-1.051712	0.462841
C82	C	1.614738	-0.551712	0.962841
C83	C	1.077617	-1.098897	0.425657
C84	C	1.577617	-0.598897	0.925657
C85	C	1.040832	-0.816313	0.388884
C86	C	1.540832	-0.316313	0.888884
C87	C	1.127336	-0.816150	0.475513
C88	C	1.627336	-0.316150	0.975513
C89	C	1.139600	-0.910338	0.487767
C90	C	1.639600	-0.410338	0.987767
C91	C	1.211095	-0.434585	0.382607
C92	C	1.711095	0.065415	0.882607
C93	C	1.286329	-0.434597	0.382616
C94	C	1.786329	0.065403	0.882616
C95	C	1.034580	-0.434499	0.559122
C96	C	1.534580	0.065501	1.059122
C97	C	1.034593	-0.434475	0.634351
C98	C	1.534593	0.065525	1.134351
C99	C	1.004092	-0.199308	0.352043
C100	C	1.504092	0.300692	0.852043
C101	C	0.991113	-0.099060	0.339028
C102	C	1.491113	0.400940	0.839028
C103	C	1.034549	-0.434547	0.206729
C104	C	1.534549	0.065453	0.706729
C105	C	1.034634	-0.434318	0.131468
C106	C	1.534634	0.065682	0.631468
C107	C	1.070416	-0.376794	0.662211
C108	C	1.570416	0.123206	1.162211
C109	C	1.070420	-0.376767	0.732896
C110	C	1.570420	0.123233	1.232896
C111	C	1.034603	-0.434428	0.775720
C112	C	1.534603	0.065572	1.275720
C113	C	0.998775	-0.492112	0.747855
C114	C	1.498775	0.007888	1.247855
C115	C	0.998768	-0.492133	0.677171
C116	C	1.498768	0.007867	1.177171
C117	C	0.998803	-0.492028	1.032918
C118	C	1.498803	0.007972	1.532918
C119	C	0.998814	-0.492004	1.103607
C120	C	1.498814	0.007996	1.603607
C121	C	1.070454	-0.376662	1.088643
C122	C	1.570454	0.123338	1.588643
C123	C	1.070447	-0.376683	1.017959
C124	C	1.570447	0.123317	1.517959
C125	C	1.034616	-0.434363	0.990099
C126	C	1.534616	0.065637	1.490099
C127	C	1.034612	-0.434390	0.913454
C128	C	1.534612	0.065610	1.413454
C129	C	1.034611	-0.434407	0.852365
C130	C	1.534611	0.065593	1.352365
H131	H	0.279377	-0.330094	0.447708
H132	H	0.779377	0.169906	0.947708
O133	O	1.105249	-0.320586	0.976454
O134	O	1.605249	0.179414	1.476454
C135	C	1.176338	-0.206209	0.969078
C136	C	1.676338	0.293791	1.469078
C137	C	1.136943	-0.269682	1.016157
C138	C	1.636943	0.230318	1.516157
H139	H	1.201985	-0.165049	1.001160
H140	H	1.701985	0.334951	1.501160
H141	H	1.139176	-0.158995	0.929868
H142	H	1.639176	0.341005	1.429868
H143	H	1.217061	-0.247647	0.941350
H144	H	1.717061	0.252353	1.441350
H145	H	1.096220	-0.228317	1.043931
H146	H	1.596220	0.271683	1.543931
H147	H	1.174147	-0.316898	1.055324
H148	H	1.674147	0.183102	1.555324
H149	H	1.099626	-0.329693	1.111334
H150	H	1.599626	0.170307	1.611334
H151	H	0.434645	-0.539092	0.317511
H152	H	0.934645	-0.039092	0.817511
H153	H	0.662163	-0.539053	0.317493
H154	H	1.162163	-0.039053	0.817493
O155	O	0.302132	-0.548188	0.311830
O156	O	0.802132	-0.048188	0.811830
C157	C	0.324367	-0.662489	0.240686
C158	C	0.824367	-0.162489	0.740686
C159	C	0.355022	-0.599117	0.280177
C160	C	0.855022	-0.099117	0.780177
H161	H	0.367115	-0.703695	0.215096
H162	H	0.867115	-0.203695	0.715096
H163	H	0.285905	-0.621061	0.199927
H164	H	0.785905	-0.121061	0.699927
H165	H	0.297385	-0.709671	0.277846
H166	H	0.797385	-0.209671	0.777846
H167	H	0.382039	-0.551922	0.243070
H168	H	0.882039	-0.051922	0.743070
H169	H	0.393449	-0.640601	0.320945
H170	H	0.893449	-0.140601	0.820945
H171	H	0.969646	-0.538960	1.138473
H172	H	1.469646	-0.038960	1.638473
H173	H	1.099593	-0.329800	0.755577
H174	H	1.599593	0.170200	1.255577
O175	O	0.412054	-0.321154	0.453418
O176	O	0.912054	0.178846	0.953418
C177	C	0.490376	-0.309163	0.543223
C178	C	0.990376	0.190837	1.043223
C179	C	0.459683	-0.372499	0.503728
C180	C	0.959683	0.127501	1.003728
H181	H	0.528900	-0.350649	0.583897
H182	H	1.028900	0.149351	1.083897
H183	H	0.447680	-0.268011	0.568918
H184	H	0.947680	0.231989	1.068918
H185	H	0.517303	-0.261928	0.506051
H186	H	1.017303	0.238072	1.006051
H187	H	0.432761	-0.419789	0.540854
H188	H	0.932761	0.080211	1.040854
H189	H	0.502406	-0.413588	0.478023
H190	H	1.002406	0.086412	0.978023
H191	H	0.969639	-0.539008	1.010245
H192	H	1.469639	-0.039008	1.510245
O193	O	0.881503	-0.912054	0.229352
O194	O	1.381503	-0.412054	0.729352
C195	C	0.824304	-0.767020	0.172049
C196	C	1.324304	-0.267020	0.672049
C197	C	0.878635	-0.818782	0.226419
C198	C	1.378635	-0.318782	0.726419
H199	H	0.821977	-0.691600	0.169649
H200	H	1.321977	-0.191600	0.669649
H201	H	0.772114	-0.785522	0.186297
H202	H	1.272114	-0.285522	0.686297
H203	H	0.838634	-0.785626	0.119910
H204	H	1.338634	-0.285626	0.619910
H205	H	0.864369	-0.800203	0.278577
H206	H	1.364369	-0.300203	0.778577
H207	H	0.930810	-0.800275	0.212112
H208	H	1.430810	-0.300275	0.712112
H209	H	1.099584	-0.329842	0.627348
H210	H	1.599584	0.170158	1.127348
H211	H	1.154949	-1.089987	0.503101
H212	H	1.654949	-0.589987	1.003101
O213	O	0.964041	-0.548093	0.789553
O214	O	1.464041	-0.048093	1.289553
C215	C	0.932267	-0.599144	0.905071
C216	C	1.432267	-0.099144	1.405071
C217	C	0.971644	-0.535712	0.857931
C218	C	1.471644	-0.035712	1.357931
H219	H	0.938388	-0.589142	0.960362
H220	H	1.438388	-0.089142	1.460362
H221	H	0.953569	-0.671896	0.900669
H222	H	1.453569	-0.171896	1.400669
H223	H	0.875645	-0.583307	0.889067
H224	H	1.375645	-0.083307	1.389067
H225	H	1.028271	-0.551467	0.873903
H226	H	1.528271	-0.051467	1.373903
H227	H	0.950286	-0.462978	0.862338
H228	H	1.450286	0.037022	1.362338
H229	H	1.179810	-0.948629	0.528023
H230	H	1.679810	-0.448629	1.028023
H231	H	1.157562	-0.777733	0.505793
H232	H	1.657562	-0.277733	1.005793
O233	O	0.963969	-0.548261	0.650222
O234	O	1.463969	-0.048261	1.150222
C235	C	0.892895	-0.662650	0.672518
C236	C	1.392895	-0.162650	1.172518
C237	C	0.932289	-0.599141	0.703127
C238	C	1.432289	-0.099141	1.203127
H239	H	0.867259	-0.703789	0.715275
H240	H	1.367259	-0.203789	1.215275
H241	H	0.930056	-0.709881	0.645583
H242	H	1.430056	-0.209881	1.145583
H243	H	0.852164	-0.621241	0.634019
H244	H	1.352164	-0.121241	1.134019
H245	H	0.973020	-0.640477	0.741653
H246	H	1.473020	-0.140477	1.241653
H247	H	0.895085	-0.551908	0.730018
H248	H	1.395085	-0.051908	1.230018
O249	O	0.905759	-1.098021	0.253509
O250	O	1.405759	-0.598021	0.753509
C251	C	0.886284	-1.243209	0.234039
C252	C	1.386284	-0.743209	0.734039
C253	C	0.927087	-1.191256	0.274935
C254	C	1.427087	-0.691256	0.774935
H255	H	0.903502	-1.318598	0.251356
H256	H	1.403502	-0.818598	0.751356
H257	H	0.895805	-1.224796	0.177059
H258	H	1.395805	-0.724796	0.677059
H259	H	0.829296	-1.224684	0.243457
H260	H	1.329296	-0.724684	0.743457
H261	H	0.984087	-1.209753	0.265574
H262	H	1.484087	-0.709753	0.765574
H263	H	0.917508	-1.209673	0.331901
H264	H	1.417508	-0.709673	0.831901
H265	H	0.790408	-0.539043	0.317481
H266	H	1.290408	-0.039043	0.817481
O267	O	0.992787	-0.770610	0.340950
O268	O	1.492787	-0.270610	0.840950
C269	C	0.887602	-0.664332	0.317928
C270	C	1.387602	-0.164332	0.817928
C271	C	0.941956	-0.716049	0.372290
C272	C	1.441956	-0.216049	0.872290
H273	H	0.846499	-0.620193	0.343243
H274	H	1.346499	-0.120193	0.843243
H275	H	0.863123	-0.714195	0.293465
H276	H	1.363123	-0.214195	0.793465
H277	H	0.912975	-0.620271	0.276815
H278	H	1.412975	-0.120271	0.776815
H279	H	0.916635	-0.760111	0.413444
H280	H	1.416635	-0.260111	0.913444
H281	H	0.966431	-0.666138	0.396699
H282	H	1.466431	-0.166138	0.896699
O283	O	0.954805	-0.819180	0.302606
O284	O	1.454805	-0.319180	0.802606
C285	C	1.002095	-0.683958	0.267629
C286	C	1.502095	-0.183958	0.767629
C287	C	1.015537	-0.787578	0.281111
C288	C	1.515537	-0.287578	0.781111
H289	H	1.051183	-0.658377	0.250234
H290	H	1.551183	-0.158377	0.750234
H291	H	0.984729	-0.658302	0.316696
H292	H	1.484729	-0.158302	0.816696
H293	H	0.960399	-0.658483	0.225928
H294	H	1.460399	-0.158483	0.725928
H295	H	1.057244	-0.813130	0.322789
H296	H	1.557244	-0.313130	0.822789
H297	H	1.032865	-0.813173	0.232012
H298	H	1.532865	-0.313173	0.732012
H299	H	0.635142	-0.330045	0.447675
H300	H	1.135142	0.169955	0.947675
O301	O	0.767646	-0.320896	0.453314
O302	O	1.267646	0.179104	0.953314
C303	C	0.745406	-0.206665	0.524518
C304	C	1.245406	0.293335	1.024518
C305	C	0.714764	-0.270076	0.485055
C306	C	1.214764	0.229924	0.985055
H307	H	0.702668	-0.165574	0.550203
H308	H	1.202668	0.334426	1.050203
H309	H	0.772341	-0.159385	0.487391
H310	H	1.272341	0.340615	0.987391
H311	H	0.783908	-0.248147	0.565215
H312	H	1.283908	0.251853	1.065215
H313	H	0.676235	-0.228667	0.444358
H314	H	1.176235	0.271333	0.944358
H315	H	0.687872	-0.317359	0.522224
H316	H	1.187872	0.182641	1.022224
H317	H	1.087602	-1.175593	0.435630
H318	H	1.587602	-0.675593	0.935630
