data_functionalizedCrystal
_audit_creation_method	'MofGen! by Chris Wilmer'
_symmetry_space_group_name_H-M	'P1'
_symmetry_Int_Tables_number	1
_symmetry_cell_setting	triclinic
loop_
_symmetry_equiv_pos_as_xyz
  x,y,z
_cell_length_a	17.038272
_cell_length_b	15.995350
_cell_length_c	14.472310
_cell_angle_alpha	90.009379
_cell_angle_beta	89.999298
_cell_angle_gamma	92.698034
loop_
_atom_site_label
_atom_site_type_symbol
_atom_site_fract_x
_atom_site_fract_y
_atom_site_fract_z
O1	O	0.100774	-1.118175	-0.076763
O2	O	0.113219	-0.875286	-0.076782
O3	O	-0.006819	-0.995287	-0.076766
O4	O	0.220812	-0.998174	-0.076780
O5	O	-0.006812	-0.995254	0.076916
O6	O	0.113226	-0.875253	0.076900
O7	O	0.100781	-1.118142	0.076919
Cu8	Cu	0.107004	-0.996695	0.090942
Cu9	Cu	0.106996	-0.996733	-0.090805
O10	O	0.220819	-0.998141	0.076902
C11	C	0.112708	-0.844038	0.000056
C12	C	0.111165	-0.750978	0.000049
C13	C	-0.035945	-0.992645	0.000075
C14	C	-0.122740	-0.984810	0.000074
C15	C	0.101292	-1.149390	0.000078
C16	C	0.102834	-1.242450	0.000079
C17	C	-0.172836	-1.056739	0.000081
C18	C	-0.254389	-1.049373	0.000072
C19	C	-0.285843	-0.970077	0.000062
C20	C	-0.235740	-0.898143	0.000053
C21	C	-0.154189	-0.905510	0.000056
C22	C	-0.531607	-0.944051	0.000047
C23	C	-0.613164	-0.936689	0.000048
C24	C	-0.631807	-1.087920	0.000065
C25	C	-0.550254	-1.095280	0.000073
C26	C	-0.500158	-1.023346	0.000059
C27	C	-0.369202	-0.962546	0.000056
C28	C	-0.416801	-1.030878	0.000059
C29	C	0.249944	-1.000784	0.000059
C30	C	0.336739	-1.008618	0.000054
N31	N	0.107009	-0.996674	0.218773
C32	C	0.105626	-0.412836	0.000069
C33	C	0.020137	-0.454180	0.000417
C34	C	0.021680	-0.550981	0.000064
C35	C	0.108374	-0.580592	0.000060
C36	C	0.150536	-0.542527	-0.087699
C37	C	0.148388	-0.445739	-0.087766
C38	C	0.150162	-0.445488	0.086999
C39	C	0.150142	-0.542432	0.088152
C40	C	0.109931	-0.675401	0.000051
C41	C	0.104071	-0.318027	0.000071
N42	N	0.106984	-0.996761	-0.218636
C43	C	0.106993	-0.996732	0.592864
C44	C	0.171007	-0.932276	0.553689
C45	C	0.171241	-0.932452	0.446601
C46	C	0.107001	-0.996702	0.407273
C47	C	0.124819	-1.085336	0.446115
C48	C	0.125274	-1.084981	0.553237
C49	C	0.024970	-0.973320	0.553397
C50	C	0.025517	-0.971356	0.446269
C51	C	0.107004	-0.996691	0.302385
C52	C	0.106991	-0.996749	0.697752
H53	H	-0.147233	-1.121310	0.000094
F54	F	-0.307702	-1.125930	0.000080
F55	F	-0.516785	-1.179677	0.000059
H56	H	-0.014032	-0.433211	0.063353
F57	F	-0.478302	-0.867491	0.000030
H58	H	-0.261356	-0.833579	0.000039
H59	H	-0.672604	-1.146484	0.000074
H60	H	-0.638770	-0.872114	0.000055
H61	H	-0.113400	-0.846938	0.000050
F62	F	-0.024331	-0.425416	-0.081380
H63	H	-0.391187	-1.095440	0.000046
H64	H	-0.394821	-0.897983	0.000050
F65	F	-0.021762	-0.584295	-0.082432
H66	H	-0.011462	-0.577035	0.062974
F67	F	0.108192	-0.418961	-0.173508
F68	F	0.112253	-0.576903	-0.173065
F69	F	0.233779	-0.566939	-0.091987
H70	H	0.211153	-0.417962	-0.091752
F71	F	0.113634	-0.416031	0.173945
F72	F	0.109850	-0.575165	0.173012
H73	H	0.213362	-0.562300	0.093450
H74	H	0.213193	-0.418217	0.087589
H75	H	0.160625	-0.866756	0.420341
H76	H	0.160566	-0.866382	0.579472
F77	F	0.250121	-0.952380	0.588842
H78	H	0.079434	-1.134688	0.420639
F79	F	0.002587	-0.890251	0.588744
F80	F	0.250806	-0.952757	0.413087
F81	F	0.203461	-1.110786	0.585882
H82	H	0.080487	-1.134751	0.579149
H83	H	0.183955	-1.105401	0.419276
F84	F	0.007841	-0.886095	0.413089
H85	H	-0.024352	-1.014806	0.419501
F86	F	-0.037296	-1.034669	0.586508
