data_functionalizedCrystal
_audit_creation_method	'MofGen! by Chris Wilmer'
_symmetry_space_group_name_H-M	'P1'
_symmetry_Int_Tables_number	1
_symmetry_cell_setting	triclinic
loop_
_symmetry_equiv_pos_as_xyz
  x,y,z
_cell_length_a	21.395362
_cell_length_b	17.640280
_cell_length_c	21.395356
_cell_angle_alpha	78.779580
_cell_angle_beta	89.964230
_cell_angle_gamma	78.812025
loop_
_atom_site_label
_atom_site_type_symbol
_atom_site_fract_x
_atom_site_fract_y
_atom_site_fract_z
Zn1	Zn	1.008267	-0.314342	-0.304298
Zn2	Zn	1.508267	0.185658	0.195702
Zn3	Zn	1.029399	-0.446502	-0.178378
Zn4	Zn	1.529399	0.053498	0.321622
Zn5	Zn	0.903505	-0.314395	-0.199490
Zn6	Zn	1.403505	0.185605	0.300510
Zn7	Zn	0.924665	-0.446502	-0.283082
Zn8	Zn	1.424665	0.053498	0.216918
O9	O	0.966459	-0.380436	-0.241312
O10	O	1.466459	0.119564	0.258688
O11	O	1.098744	-0.331851	-0.287637
O12	O	1.598744	0.168149	0.212363
O13	O	1.012687	-0.429000	-0.093497
O14	O	1.512687	0.071000	0.406503
O15	O	0.899703	-0.203792	-0.231108
O16	O	1.399703	0.296208	0.268892
O17	O	1.114270	-0.428949	-0.195124
O18	O	1.614270	0.071051	0.304876
O19	O	0.976671	-0.203753	-0.308109
O20	O	1.476671	0.296247	0.191891
O21	O	0.920194	-0.331942	-0.109008
O22	O	1.420194	0.168058	0.390992
O23	O	0.818638	-0.331942	-0.210536
O24	O	1.318638	0.168058	0.289464
O25	O	0.935767	-0.428949	-0.373578
O26	O	1.435767	0.071051	0.126422
O27	O	0.834184	-0.429000	-0.271951
O28	O	1.334184	0.071000	0.228049
O29	O	0.997189	-0.331851	-0.389165
O30	O	1.497189	0.168149	0.110835
O31	O	1.033205	-0.557099	-0.174552
O32	O	1.533205	-0.057099	0.325448
O33	O	0.956258	-0.557099	-0.251478
O34	O	1.456258	-0.057099	0.248522
C35	C	0.803678	-0.380477	-0.241233
C36	C	1.303678	0.119523	0.258767
C37	C	0.734043	-0.380514	-0.241210
C38	C	1.234043	0.119486	0.258790
C39	C	0.709452	-0.431120	-0.273118
C40	C	1.209452	0.068880	0.226882
C41	C	0.644013	-0.431100	-0.273149
C42	C	1.144013	0.068900	0.226851
C43	C	0.603170	-0.380484	-0.241260
C44	C	1.103170	0.119516	0.258740
C45	C	0.627767	-0.329869	-0.209351
C46	C	1.127767	0.170131	0.290649
C47	C	0.693204	-0.329884	-0.209326
C48	C	1.193204	0.170116	0.290674
C49	C	0.498432	-0.374126	-0.185872
C50	C	0.998432	0.125874	0.314128
C51	C	0.432998	-0.374116	-0.185895
C52	C	0.932998	0.125884	0.314105
C53	C	0.401341	-0.380432	-0.241337
C54	C	0.901341	0.119568	0.258663
C55	C	0.435129	-0.386775	-0.296756
C56	C	0.935129	0.113225	0.203244
C57	C	0.500565	-0.386790	-0.296732
C58	C	1.000565	0.113210	0.203268
C59	C	0.532214	-0.380461	-0.241284
C60	C	1.032214	0.119539	0.258716
C61	C	0.305794	-0.431019	-0.273282
C62	C	0.805794	0.068981	0.226718
C63	C	0.240354	-0.430994	-0.273315
C64	C	0.740354	0.069006	0.226685
C65	C	0.224109	-0.329767	-0.209510
C66	C	0.724109	0.170233	0.290490
C67	C	0.289548	-0.329788	-0.209483
C68	C	0.789548	0.170212	0.290517
C69	C	0.330387	-0.380418	-0.241368
C70	C	0.830387	0.119582	0.258632
C71	C	0.999337	-0.585775	-0.208436
C72	C	1.499337	-0.085775	0.291564
C73	C	1.013460	-0.673621	-0.194392
C74	C	1.513460	-0.173621	0.305608
C75	C	0.859427	-0.962670	-0.348228
C76	C	1.359427	-0.462670	0.151772
C77	C	0.872698	-1.045214	-0.335012
C78	C	1.372698	-0.545214	0.164988
C79	C	0.952873	-1.045149	-0.254990
C80	C	1.452873	-0.545149	0.245010
C81	C	0.939610	-0.962603	-0.268201
C82	C	1.439610	-0.462603	0.231799
C83	C	0.892886	-0.921370	-0.314820
C84	C	1.392886	-0.421370	0.185180
C85	C	0.973070	-0.921303	-0.234794
C86	C	1.473070	-0.421303	0.265206
C87	C	0.959805	-0.838765	-0.248002
C88	C	1.459805	-0.338765	0.251998
C89	C	0.913082	-0.797526	-0.294618
C90	C	1.413082	-0.297526	0.205382
C91	C	0.879622	-0.838832	-0.328029
C92	C	1.379622	-0.338832	0.171971
C93	C	1.019791	-0.962537	-0.188172
C94	C	1.519791	-0.462537	0.311828
C95	C	1.053250	-0.921238	-0.154764
C96	C	1.553250	-0.421238	0.345236
C97	C	1.039989	-0.838698	-0.167975
C98	C	1.539989	-0.338698	0.332025
C99	C	0.993265	-0.797459	-0.214591
C100	C	1.493265	-0.297459	0.285409
C101	C	1.073449	-0.797392	-0.134565
C102	C	1.573449	-0.297392	0.365435
C103	C	1.060185	-0.714853	-0.147773
C104	C	1.560185	-0.214853	0.352227
C105	C	0.980001	-0.714921	-0.227800
C106	C	1.480001	-0.214921	0.272200
C107	C	1.129876	-0.380394	-0.241392
C108	C	1.629876	0.119606	0.258608
C109	C	1.199514	-0.380376	-0.241426
C110	C	1.699514	0.119624	0.258574
C111	C	0.966481	-0.380394	-0.404742
C112	C	1.466481	0.119606	0.095258
C113	C	0.966491	-0.380376	-0.474386
C114	C	1.466491	0.119624	0.025614
C115	C	0.933469	-0.174294	-0.274330
C116	C	1.433469	0.325706	0.225670
C117	C	0.919411	-0.086449	-0.288401
C118	C	1.419411	0.413551	0.211599
C119	C	1.014696	-0.430749	-0.968133
C120	C	1.514696	0.069251	-0.468133
C121	C	1.014688	-0.430774	-0.902693
C122	C	1.514688	0.069226	-0.402693
C123	C	0.966530	-0.380251	-0.878045
C124	C	1.466530	0.119749	-0.378045
C125	C	0.918367	-0.329713	-0.918839
C126	C	1.418367	0.170287	-0.418839
C127	C	0.918372	-0.329695	-0.984276
C128	C	1.418372	0.170305	-0.484276
C129	C	0.950180	-0.309076	-0.785774
C130	C	1.450180	0.190924	-0.285774
C131	C	0.950179	-0.309092	-0.720339
C132	C	1.450179	0.190908	-0.220339
C133	C	0.966511	-0.380307	-0.676215
C134	C	1.466511	0.119693	-0.176215
C135	C	0.982858	-0.451507	-0.697534
C136	C	1.482858	0.048493	-0.197534
C137	C	0.982863	-0.451489	-0.762972
C138	C	1.482863	0.048511	-0.262972
C139	C	0.966519	-0.380265	-0.807090
C140	C	1.466519	0.119735	-0.307090
C141	C	1.014661	-0.430872	-0.564471
C142	C	1.514661	0.069128	-0.064471
C143	C	1.014650	-0.430899	-0.499030
C144	C	1.514650	0.069101	0.000970
C145	C	0.918330	-0.329831	-0.515179
C146	C	1.418330	0.170169	-0.015179
C147	C	0.918339	-0.329812	-0.580617
C148	C	1.418339	0.170188	-0.080617
C149	C	0.966508	-0.380331	-0.605260
C150	C	1.466508	0.119669	-0.105260
C151	C	0.966464	-0.380420	-0.078527
C152	C	1.466464	0.119580	0.421473
C153	C	0.966540	-0.380215	-0.008919
C154	C	1.466540	0.119785	0.491081
H155	H	0.623987	-0.472309	-0.299135
H156	H	1.123987	0.027691	0.200865
H157	H	0.996158	-0.509497	-0.661609
H158	H	1.496158	-0.009497	-0.161609
Br159	Br	0.206978	-0.499672	-0.316629
Br160	Br	0.706978	0.000328	0.183371
H161	H	1.053862	-0.472057	-0.465821
H162	H	1.553862	0.027943	0.034179
H163	H	0.990914	-1.078732	-0.217030
H164	H	1.490914	-0.578732	0.282970
H165	H	0.879155	-0.288578	-0.898766
H166	H	1.379155	0.211422	-0.398766
Br167	Br	1.037816	-1.074555	-0.170269
Br168	Br	1.537816	-0.574555	0.329731
Br169	Br	0.827274	-1.101262	-0.380346
Br170	Br	1.327274	-0.601262	0.119654
H171	H	0.879157	-0.288543	-1.017485
H172	H	1.379157	0.211457	-0.517485
H173	H	0.528072	-0.391952	-0.341856
H174	H	1.028072	0.108048	0.158144
Br175	Br	1.116660	-0.977203	-0.091498
Br176	Br	1.616660	-0.477203	0.408502
H177	H	0.821384	-0.929097	-0.386195
H178	H	1.321384	-0.429097	0.113805
Br179	Br	0.852956	-0.261288	-0.481731
Br180	Br	1.352956	0.238712	0.018269
H181	H	1.111487	-0.830976	-0.096603
H182	H	1.611487	-0.330976	0.403397
H183	H	1.053910	-0.471916	-0.869480
H184	H	1.553910	0.028084	-0.369480
Br185	Br	0.852973	-0.261241	-0.635972
Br186	Br	1.352973	0.238759	-0.135972
Br187	Br	0.392174	-0.395345	-0.372006
Br188	Br	0.892174	0.104655	0.127994
H189	H	0.309570	-0.288583	-0.183497
H190	H	0.809570	0.211417	0.316503
Br191	Br	0.928002	-0.212465	-0.691411
Br192	Br	1.428002	0.287535	-0.191411
Br193	Br	0.928353	-0.212381	-0.845657
Br194	Br	1.428353	0.287619	-0.345657
H195	H	1.053882	-0.472010	-0.584536
H196	H	1.553882	0.027990	-0.084536
Br197	Br	0.764873	-0.499830	-0.316391
Br198	Br	1.264873	0.000170	0.183609
Br199	Br	0.361222	-0.499726	-0.316555
Br200	Br	0.861222	0.000274	0.183445
Br201	Br	1.105585	-0.658798	-0.102426
Br202	Br	1.605585	-0.158798	0.397574
Br203	Br	0.168684	-0.261064	-0.166238
Br204	Br	0.668684	0.238936	0.333762
H205	H	0.996171	-0.509463	-0.780327
H206	H	1.496171	-0.009463	-0.280327
H207	H	0.405493	-0.368957	-0.140768
H208	H	0.905493	0.131043	0.359232
Br209	Br	0.541389	-0.365554	-0.110621
Br210	Br	1.041389	0.134446	0.389379
H211	H	1.053917	-0.471888	-0.988192
H212	H	1.553917	0.028112	-0.488192
H213	H	0.594508	-0.288655	-0.183388
H214	H	1.094508	0.211345	0.316612
H215	H	0.713224	-0.288673	-0.183343
H216	H	1.213224	0.211327	0.316657
Br217	Br	0.816217	-0.782865	-0.391307
Br218	Br	1.316217	-0.282865	0.108693
Br219	Br	0.916596	-0.658954	-0.291077
Br220	Br	1.416596	-0.158954	0.208923
H221	H	0.902278	-0.730318	-0.305367
H222	H	1.402278	-0.230318	0.194633
