data_functionalizedCrystal
_audit_creation_method	'MofGen! by Chris Wilmer'
_symmetry_space_group_name_H-M	'P1'
_symmetry_Int_Tables_number	1
_symmetry_cell_setting	triclinic
loop_
_symmetry_equiv_pos_as_xyz
  x,y,z
_cell_length_a	23.203873
_cell_length_b	23.204288
_cell_length_c	23.204116
_cell_angle_alpha	59.999262
_cell_angle_beta	90.000604
_cell_angle_gamma	60.000205
loop_
_atom_site_label
_atom_site_type_symbol
_atom_site_fract_x
_atom_site_fract_y
_atom_site_fract_z
O1	O	-0.491175	-0.412505	0.017125
O2	O	-0.407376	-0.294489	-0.017078
O3	O	-0.407367	-0.412500	0.100931
O4	O	-0.491183	-0.294494	-0.100884
O5	O	-0.311514	-0.508347	0.100930
O6	O	-0.311522	-0.390337	-0.017079
O7	O	-0.395321	-0.508352	0.017125
Zn8	Zn	-0.338203	-0.464562	0.000023
Zn9	Zn	-0.464494	-0.338279	0.000024
O10	O	-0.395329	-0.390341	-0.100884
C11	C	-0.310631	-0.285830	-0.024856
C12	C	-0.346200	-0.326280	-0.019966
C13	C	-0.345470	-0.215987	-0.025342
C14	C	-0.206265	-0.285842	-0.024850
C15	C	-0.130245	-0.326304	-0.019954
C16	C	-0.241263	-0.215999	-0.025336
C17	C	-0.310621	-0.181480	-0.024851
C18	C	-0.346179	-0.110357	-0.019955
C19	C	-0.241273	-0.320191	-0.025341
C20	C	-0.554144	-0.694429	0.035845
C21	C	-0.518579	-0.765553	0.030952
C22	C	-0.519304	-0.659911	0.036331
C23	C	-0.658507	-0.590074	0.035846
C24	C	-0.734526	-0.549622	0.030954
C25	C	-0.623508	-0.555714	0.036332
C26	C	-0.554151	-0.590066	0.035843
C27	C	-0.518592	-0.549605	0.030946
C28	C	-0.623502	-0.659918	0.036334
C29	C	-0.489864	-0.516916	0.026989
C30	C	-0.489846	-0.823013	0.026997
C31	C	-0.795942	-0.516939	0.026999
C32	C	-0.453824	-0.475907	0.022026
C33	C	-0.453799	-0.895101	0.022037
C34	C	-0.872991	-0.475939	0.022040
C35	C	-0.554172	-0.212798	-0.445783
C36	C	-0.518608	-0.253254	-0.481344
C37	C	-0.623532	-0.142955	-0.480627
C38	C	-0.554173	-0.212797	-0.341424
C39	C	-0.518610	-0.253252	-0.265405
C40	C	-0.623533	-0.142954	-0.376427
C41	C	-0.658536	-0.108441	-0.445785
C42	C	-0.734557	-0.037319	-0.481348
C43	C	-0.519329	-0.247152	-0.376425
C44	C	-0.795975	0.020140	-0.510080
C45	C	-0.489876	-0.285939	-0.510073
C46	C	-0.489879	-0.285937	-0.203988
C47	C	-0.873026	0.092225	-0.546125
C48	C	-0.453830	-0.326944	-0.546116
C49	C	-0.453834	-0.326940	-0.126939
O50	O	0.100949	-0.508384	0.017137
O51	O	-0.100867	-0.390363	-0.017066
O52	O	0.017139	-0.508380	0.100943
O53	O	-0.017057	-0.390368	-0.100872
O54	O	0.017149	-0.412537	0.100948
O55	O	-0.100858	-0.294521	-0.017061
O56	O	0.100959	-0.412541	0.017142
Zn57	Zn	0.000052	-0.338314	0.000041
Zn58	Zn	0.000039	-0.464591	0.000035
O59	O	-0.017048	-0.294525	-0.100867
O60	O	-0.395293	0.083740	0.017139
O61	O	-0.311496	-0.083870	-0.017063
O62	O	-0.311491	-0.083877	0.100946
O63	O	-0.395297	0.083747	-0.100869
O64	O	-0.407348	-0.083866	0.100940
O65	O	-0.407353	-0.083859	-0.017068
O66	O	-0.491149	0.083750	0.017134
Zn67	Zn	-0.464470	-0.000053	0.000032
Zn68	Zn	-0.338175	-0.000066	0.000039
O69	O	-0.491154	0.083757	-0.100875
O70	O	-1.100901	0.280989	-0.592590
O71	O	-0.899083	0.113380	-0.508777
O72	O	-1.017085	0.113372	-0.508776
O73	O	-0.982898	0.280997	-0.592591
O74	O	-1.017083	0.113370	-0.604626
O75	O	-0.899080	0.113378	-0.604627
O76	O	-1.100898	0.280986	-0.688439
Zn77	Zn	-0.999989	0.197182	-0.661751
Zn78	Zn	-0.999992	0.197185	-0.535465
O79	O	-0.982896	0.280994	-0.688441
O80	O	-0.407368	-0.412500	-0.688426
O81	O	-0.491179	-0.294497	-0.604619
O82	O	-0.491173	-0.412506	-0.604615
O83	O	-0.407374	-0.294491	-0.688429
O84	O	-0.395318	-0.508355	-0.508764
O85	O	-0.395325	-0.390346	-0.508767
O86	O	-0.311513	-0.508349	-0.592574
Zn87	Zn	-0.338200	-0.464565	-0.535452
Zn88	Zn	-0.464492	-0.338280	-0.661741
O89	O	-0.311519	-0.390339	-0.592577
C90	C	-0.206266	-0.621371	0.310693
C91	C	-0.130245	-0.692493	0.346256
C92	C	-0.241269	-0.586858	0.345536
C93	C	-0.310629	-0.517015	0.206333
C94	C	-0.346193	-0.476559	0.130313
C95	C	-0.345474	-0.482660	0.241334
C96	C	-0.310629	-0.517015	0.310692
C97	C	-0.346193	-0.476560	0.346254
C98	C	-0.241269	-0.586858	0.241335
C99	C	0.024931	-0.517056	0.310709
C100	C	0.020042	-0.476604	0.346273
C101	C	0.025413	-0.586897	0.345550
C102	C	0.024926	-0.517052	0.206347
C103	C	0.020033	-0.476594	0.130328
C104	C	0.025408	-0.586893	0.241347
C105	C	0.024920	-0.621407	0.310705
C106	C	0.020020	-0.692528	0.346266
C107	C	0.025419	-0.482700	0.241351
C108	C	-0.310610	-0.285867	0.310695
C109	C	-0.346176	-0.326321	0.346253
C110	C	-0.241248	-0.320233	0.345540
C111	C	-0.310608	-0.181502	0.206342
C112	C	-0.346172	-0.110369	0.130325
C113	C	-0.241247	-0.216026	0.241346
C114	C	-0.206244	-0.285879	0.310701
C115	C	-0.130221	-0.326345	0.346265
C116	C	-0.345454	-0.216015	0.241340
C117	C	-0.035756	-0.108465	-0.445768
C118	C	-0.030856	-0.037345	-0.481329
C119	C	-0.036248	-0.142976	-0.480612
C120	C	-0.035762	-0.212821	-0.341409
C121	C	-0.030868	-0.253278	-0.265390
C122	C	-0.036254	-0.247173	-0.376412
C123	C	-0.035766	-0.212817	-0.445770
C124	C	-0.030877	-0.253270	-0.481334
C125	C	-0.036244	-0.142979	-0.376410
C126	C	-0.026926	-0.285953	-0.510065
C127	C	-0.026896	0.020112	-0.510058
C128	C	-0.026913	-0.285964	-0.203974
C129	C	-0.021970	-0.326955	-0.546110
C130	C	-0.021929	0.092196	-0.546100
C131	C	-0.021952	-0.326969	-0.126924
O132	O	-0.017054	-0.390384	0.491248
O133	O	0.017152	-0.508393	0.407445
O134	O	-0.100858	-0.390383	0.407434
O135	O	0.100956	-0.508395	0.491259
O136	O	-0.100852	-0.294535	0.311585
O137	O	0.017158	-0.412546	0.311596
O138	O	-0.017048	-0.294537	0.395399
Zn139	Zn	0.000056	-0.338323	0.338279
Zn140	Zn	0.000048	-0.464607	0.464565
O141	O	0.100962	-0.412547	0.395410
C142	C	-0.658509	0.409983	-0.445765
C143	C	-0.734531	0.450448	-0.481329
C144	C	-0.623505	0.444339	-0.480604
C145	C	-0.554145	0.305608	-0.341405
C146	C	-0.518581	0.234475	-0.265388
C147	C	-0.519300	0.340122	-0.376403
C148	C	-0.554145	0.409975	-0.445758
C149	C	-0.518580	0.450430	-0.481315
C150	C	-0.623506	0.340131	-0.376410
C151	C	-0.489848	0.483115	-0.510041
C152	C	-0.795949	0.483140	-0.510061
C153	C	-0.489849	0.177007	-0.203974
C154	C	-0.453801	0.524119	-0.546079
C155	C	-0.873001	0.524153	-0.546107
C156	C	-0.453804	0.104910	-0.126926
H157	H	-0.402460	-0.187096	-0.026134
H158	H	-0.213151	-0.376436	0.402528
H159	H	-0.213156	-0.187117	-0.026123
H160	H	-0.037043	-0.303372	-0.348309
C161	C	-0.661461	-0.698947	0.037397
N162	N	-0.690051	-0.728342	0.038199
C163	C	-0.422445	-0.176980	0.203376
N164	N	-0.480434	-0.147578	0.174783
H165	H	-0.036969	-0.114131	-0.348291
C166	C	-0.661496	-0.103933	-0.557614
N167	N	-0.690090	-0.074543	-0.615598
C168	C	0.026468	-0.625918	0.422536
N169	N	0.027261	-0.655307	0.480518
H170	H	-0.213144	-0.187143	0.213243
H171	H	-0.462339	-0.303351	-0.348326
H172	H	-0.037034	-0.114086	-0.537600
H173	H	-0.651609	0.500544	-0.537591
H174	H	-0.462322	-0.688787	0.037100
H175	H	0.026206	-0.426499	0.213253
H176	H	-0.213157	-0.615731	0.213230
C177	C	-0.661476	-0.479786	0.037388
N178	N	-0.690072	-0.422599	0.038183
H179	H	-0.651634	-0.114072	-0.348323
H180	H	-0.213177	-0.376393	-0.026126
C181	C	-0.442315	0.301100	-0.338432
N182	N	-0.384333	0.271713	-0.309832
H183	H	-0.402459	-0.426452	0.213226
C184	C	-0.661475	0.301114	-0.338449
N185	N	-0.690071	0.271728	-0.309857
H186	H	0.026199	-0.615779	0.213245
C187	C	-0.203304	-0.625881	0.422523
N188	N	-0.174711	-0.655271	0.480507
