data_functionalizedCrystal
_audit_creation_method	'MofGen! by Chris Wilmer'
_symmetry_space_group_name_H-M	'P1'
_symmetry_Int_Tables_number	1
_symmetry_cell_setting	triclinic
loop_
_symmetry_equiv_pos_as_xyz
  x,y,z
_cell_length_a	16.120530
_cell_length_b	14.908520
_cell_length_c	14.908308
_cell_angle_alpha	83.639235
_cell_angle_beta	90.548374
_cell_angle_gamma	89.416769
loop_
_atom_site_label
_atom_site_type_symbol
_atom_site_fract_x
_atom_site_fract_y
_atom_site_fract_z
Zn1	Zn	1.217782	0.460872	-0.603406
Zn2	Zn	1.217688	0.603512	-0.460771
Zn3	Zn	1.087711	0.444591	-0.444498
Zn4	Zn	1.070713	0.603616	-0.603530
O5	O	1.148474	0.528147	-0.528051
O6	O	1.333714	0.486563	-0.591244
O7	O	1.207521	0.575573	-0.332363
O8	O	1.112119	0.320503	-0.458715
O9	O	1.333644	0.591360	-0.486450
O10	O	1.207681	0.332464	-0.575464
O11	O	1.112028	0.458815	-0.320407
O12	O	0.969512	0.458916	-0.458835
O13	O	1.083148	0.591538	-0.729763
O14	O	0.957024	0.575751	-0.575676
O15	O	1.191198	0.486664	-0.729672
O16	O	1.191038	0.729773	-0.486571
O17	O	1.083056	0.729850	-0.591456
C18	C	0.933205	0.515579	-0.515504
C19	C	0.841110	0.510225	-0.510159
C20	C	1.135287	0.540929	-0.763368
C21	C	1.129668	0.546375	-0.863645
C22	C	1.135214	0.762548	-0.540813
C23	C	1.129615	0.862832	-0.546308
C24	C	0.672491	0.500429	-0.500406
C25	C	0.625289	0.555936	-0.555766
C26	C	0.531464	0.550486	-0.550340
C27	C	0.766325	0.505878	-0.505831
C28	C	1.364583	0.540766	-0.540648
C29	C	1.456675	0.546143	-0.546016
C30	C	1.161806	0.292834	-0.515260
C31	C	1.167488	0.192557	-0.509810
C32	C	1.231640	1.051146	-0.447515
C33	C	1.226383	1.145372	-0.452675
C34	C	1.113848	1.145511	-0.561791
C35	C	1.119105	1.051285	-0.556631
C36	C	1.178003	1.004106	-0.499490
C37	C	1.183255	0.909878	-0.494327
C38	C	1.070725	0.910020	-0.603447
C39	C	1.065468	1.004245	-0.608607
C40	C	1.231621	0.447384	-1.051983
C41	C	1.226344	0.452499	-1.146203
C42	C	1.113834	0.561714	-1.146306
C43	C	1.119111	0.556599	-1.052086
C44	C	1.178007	0.499433	-1.004928
C45	C	1.183288	0.494324	-0.910707
C46	C	1.070774	0.603534	-0.910811
C47	C	1.065497	0.608648	-1.005031
C48	C	1.161660	0.515354	-0.293650
C49	C	1.167454	0.509662	-0.193368
H50	H	0.655345	0.607550	-0.607238
C51	C	1.296425	0.999247	-0.384658
N52	N	1.345223	0.960158	-0.337315
C53	C	1.285386	1.197112	-0.395494
N54	N	1.329829	1.236083	-0.352422
H55	H	0.642437	0.448819	-0.448939
C56	C	1.248043	0.857983	-0.431471
N57	N	1.296845	0.818898	-0.384128
H58	H	1.231245	0.447778	-0.872313
C59	C	1.296410	0.384507	-1.000108
N60	N	1.345210	0.337145	-0.961036
C61	C	1.049065	1.197424	-0.624639
N62	N	1.000268	1.236525	-0.671974
C63	C	1.000680	1.056152	-0.671453
N64	N	0.951877	1.095247	-0.718786
H65	H	1.027047	0.871708	-0.645766
H66	H	1.270000	0.410112	-1.184512
C67	C	1.049034	0.624567	-1.198194
N68	N	1.000221	0.671902	-1.237276
C69	C	1.000709	0.671520	-1.056915
N70	N	0.951909	0.718876	-1.095993
C71	C	1.011795	0.660792	-0.859043
N72	N	0.967375	0.703920	-0.820051
