data_functionalizedCrystal
_audit_creation_method	'MofGen! by Chris Wilmer'
_symmetry_space_group_name_H-M	'P1'
_symmetry_Int_Tables_number	1
_symmetry_cell_setting	triclinic
loop_
_symmetry_equiv_pos_as_xyz
  x,y,z
_cell_length_a	6.817900
_cell_length_b	17.078509
_cell_length_c	17.078481
_cell_angle_alpha	96.871901
_cell_angle_beta	99.306161
_cell_angle_gamma	99.306544
loop_
_atom_site_label
_atom_site_type_symbol
_atom_site_fract_x
_atom_site_fract_y
_atom_site_fract_z
V1	V	-3.958856	-0.109582	-0.247282
O2	O	-3.969080	0.005456	-0.242657
O3	O	-3.890238	-0.217466	-0.245511
O4	O	-3.890237	-0.107813	-0.355166
O5	O	-3.969081	-0.104956	-0.132243
V6	V	-4.447724	-0.095832	-0.233532
O7	O	-4.208391	-0.139744	-0.277443
O8	O	-4.648386	-0.065670	-0.203370
O9	O	-4.293135	0.012052	-0.235302
O10	O	-4.554897	-0.210870	-0.238156
O11	O	-4.554895	-0.100458	-0.348570
O12	O	-4.293136	-0.097601	-0.125647
C13	C	-3.730975	-0.243768	-0.241590
C14	C	-3.756024	-0.331964	-0.240861
C15	C	-3.877573	-0.827981	-0.236343
C16	C	-3.854053	-0.745112	-0.237031
C17	C	-4.022888	-0.707718	-0.241325
C18	C	-4.215259	-0.753198	-0.244940
C19	C	-4.238779	-0.836066	-0.244258
C20	C	-3.971914	-0.460313	-0.243794
C21	C	-3.948379	-0.377438	-0.244473
C22	C	-3.587174	-0.369358	-0.236566
C23	C	-3.610709	-0.452227	-0.235879
C24	C	-3.803078	-0.497701	-0.239498
N25	N	-3.998851	-0.623012	-0.242025
N26	N	-3.827115	-0.582406	-0.238803
C27	C	-3.730973	-0.103894	-0.381464
C28	C	-3.756019	-0.103161	-0.469660
C29	C	-3.948376	-0.106777	-0.515133
C30	C	-3.971898	-0.106088	-0.598001
C31	C	-3.803062	-0.101789	-0.635396
C32	C	-3.610689	-0.098170	-0.589917
C33	C	-3.587168	-0.098853	-0.507049
C34	C	-3.854041	-0.099316	-0.882801
C35	C	-3.877579	-0.098635	-0.965676
C36	C	-4.238786	-0.106552	-0.973755
C37	C	-4.215249	-0.107240	-0.890885
C38	C	-4.022878	-0.103617	-0.845412
N39	N	-3.827102	-0.101087	-0.720102
N40	N	-3.998839	-0.104313	-0.760708
C41	C	-4.115740	0.038350	-0.239221
C42	C	-4.069928	0.126545	-0.239955
C43	C	-4.115743	-0.101523	-0.099345
C44	C	-4.069936	-0.102251	-0.011149
H45	H	-3.430554	-0.332325	-0.233621
O46	O	-4.379380	-0.716936	-0.249248
C47	C	-4.518096	-0.750366	-0.320496
H48	H	-4.435021	-0.778261	-0.366245
H49	H	-4.639131	-0.798570	-0.306959
C50	C	-4.720377	-0.649823	-0.298619
C51	C	-4.618340	-0.684078	-0.354812
H52	H	-4.782221	-0.608935	-0.319786
H53	H	-4.626927	-0.627302	-0.250617
H54	H	-4.821226	-0.690001	-0.287343
H55	H	-4.517478	-0.643903	-0.366079
H56	H	-4.711776	-0.706591	-0.402817
H57	H	-4.395408	-0.109501	-1.010787
O58	O	-4.425626	-0.880185	-0.247623
C59	C	-4.506707	-0.851673	-0.181184
H60	H	-4.378452	-0.819042	-0.130815
H61	H	-4.610878	-0.808513	-0.199648
C62	C	-4.785334	-0.962986	-0.213569
C63	C	-4.627808	-0.922915	-0.151703
H64	H	-4.860043	-1.006930	-0.195386
H65	H	-4.730714	-0.982194	-0.258333
H66	H	-4.872121	-0.927012	-0.228951
H67	H	-4.541011	-0.958886	-0.136329
H68	H	-4.682417	-0.903714	-0.106936
H69	H	-4.085867	-0.110284	-0.484693
O70	O	-3.667152	-0.095970	-0.838737
C71	C	-3.586225	-0.162426	-0.867318
H72	H	-3.714576	-0.212772	-0.899918
H73	H	-3.482174	-0.143970	-0.910523
C74	C	-3.307356	-0.130107	-0.756100
C75	C	-3.465001	-0.191945	-0.796133
H76	H	-3.232571	-0.148313	-0.712191
H77	H	-3.361873	-0.085332	-0.736845
H78	H	-3.220669	-0.114732	-0.792112
H79	H	-3.551698	-0.207311	-0.760124
H80	H	-3.410495	-0.236723	-0.815380
H81	H	-3.430526	-0.095889	-0.470022
O82	O	-4.112289	-0.341044	-0.248751
C83	C	-4.132584	-0.304073	-0.318410
H84	H	-3.979945	-0.291715	-0.338090
H85	H	-4.246917	-0.345502	-0.368433
C86	C	-4.393968	-0.239594	-0.276174
C87	C	-4.206490	-0.224410	-0.300341
H88	H	-4.439566	-0.190456	-0.265031
H89	H	-4.380302	-0.264504	-0.229245
H90	H	-4.489223	-0.274120	-0.317864
H91	H	-4.111234	-0.189893	-0.258648
H92	H	-4.220142	-0.199492	-0.347264
O93	O	-4.158905	-0.109630	-0.642059
C94	C	-4.302870	-0.113550	-0.591280
H95	H	-4.241599	-0.138122	-0.534947
H96	H	-4.334510	-0.050900	-0.573775
C97	C	-4.575410	-0.139087	-0.704746
C98	C	-4.500163	-0.169274	-0.635559
H99	H	-4.697114	-0.173457	-0.732059
H100	H	-4.478419	-0.136444	-0.738957
H101	H	-4.601760	-0.086879	-0.690148
H102	H	-4.473791	-0.221476	-0.650158
H103	H	-4.597155	-0.171927	-0.601351
H104	H	-3.740081	-0.095132	-0.996119
H105	H	-3.740085	-0.858421	-0.232848
O106	O	-3.446901	-0.488671	-0.231675
C107	C	-3.508914	-0.571566	-0.231864
H108	H	-3.658911	-0.582441	-0.209941
H109	H	-3.528383	-0.604815	-0.295418
C110	C	-3.163504	-0.589156	-0.202759
C111	C	-3.347725	-0.602512	-0.175827
H112	H	-3.064073	-0.608246	-0.168196
H113	H	-3.121722	-0.533308	-0.202635
H114	H	-3.179756	-0.616864	-0.255721
H115	H	-3.331477	-0.574796	-0.122871
H116	H	-3.389500	-0.658356	-0.175941
H117	H	-3.697420	-0.708090	-0.234088
H118	H	-4.128549	-0.497327	-0.246739
H119	H	-4.352737	-0.110740	-0.860444
H120	H	-3.473220	-0.094665	-0.620369
