data_functionalizedCrystal
_audit_creation_method	'MofGen! by Chris Wilmer'
_symmetry_space_group_name_H-M	'P1'
_symmetry_Int_Tables_number	1
_symmetry_cell_setting	triclinic
loop_
_symmetry_equiv_pos_as_xyz
  x,y,z
_cell_length_a	6.817900
_cell_length_b	16.255699
_cell_length_c	19.453030
_cell_angle_alpha	95.850427
_cell_angle_beta	101.707737
_cell_angle_gamma	103.489404
loop_
_atom_site_label
_atom_site_type_symbol
_atom_site_fract_x
_atom_site_fract_y
_atom_site_fract_z
V1	V	-4.006840	-0.117971	-0.219233
O2	O	-3.994723	0.004762	-0.214820
O3	O	-3.958503	-0.233045	-0.217965
O4	O	-3.949747	-0.116554	-0.314743
O5	O	-4.003540	-0.112535	-0.117372
V6	V	-4.491587	-0.103244	-0.207022
O7	O	-4.265415	-0.150277	-0.246020
O8	O	-4.683209	-0.070938	-0.180235
O9	O	-4.316717	0.011830	-0.208291
O10	O	-4.621101	-0.225978	-0.211435
O11	O	-4.612284	-0.108680	-0.308884
O12	O	-4.325473	-0.104661	-0.111512
C13	C	-3.803800	-0.261086	-0.214566
C14	C	-3.845508	-0.355163	-0.214165
C15	C	-3.792630	-0.112489	-0.338016
C16	C	-3.827234	-0.112092	-0.416097
C17	C	-3.756504	-0.577971	-0.209573
C18	C	-3.845290	-0.625362	-0.152972
C19	C	-3.921971	-0.527414	-0.213465
C20	C	-3.907525	-0.647653	-0.269359
C21	C	-3.995820	-0.693801	-0.212792
C22	C	-4.010183	-0.573557	-0.156822
C23	C	-4.072416	-0.595852	-0.273260
C24	C	-4.161322	-0.643219	-0.216648
C25	C	-3.879424	-0.431562	-0.213852
C26	C	-4.038379	-0.789650	-0.212400
C27	C	-3.882769	-0.189447	-0.462956
C28	C	-3.915306	-0.189083	-0.536324
C29	C	-3.892266	-0.111358	-0.562828
C30	C	-3.836734	-0.033993	-0.515959
C31	C	-3.804218	-0.034359	-0.442593
N32	N	-3.800557	-0.050419	-0.668201
N33	N	-3.831444	-0.050076	-0.737895
C34	C	-3.990237	-0.110249	-0.783873
N35	N	-4.116957	-0.170790	-0.757524
N36	N	-4.086059	-0.171136	-0.687823
C37	C	-3.927521	-0.110952	-0.642379
C38	C	-4.081058	-0.187215	-0.910286
C39	C	-4.113607	-0.186848	-0.983655
C40	C	-4.035012	-0.031755	-0.963288
C41	C	-4.002485	-0.032124	-0.889921
C42	C	-4.025501	-0.109857	-0.863425
C43	C	-4.134762	0.039866	-0.211688
C44	C	-4.072293	0.133942	-0.212093
C45	C	-4.145932	-0.108729	-0.088236
C46	C	-4.090567	-0.109122	-0.010154
H47	H	-3.584955	-0.549455	-0.206513
Cl48	Cl	-3.807778	0.063719	-0.549277
H49	H	-3.749710	-0.638764	-0.102111
H50	H	-4.167920	-0.582429	-0.324121
Cl51	Cl	-4.076448	-0.523909	-0.083306
Cl52	Cl	-4.183445	-0.284105	-1.042566
H53	H	-3.957253	0.030867	-0.851767
Cl54	Cl	-4.109995	-0.284933	-0.876973
Cl55	Cl	-4.426202	-0.686987	-0.221241
Cl56	Cl	-3.841096	-0.697445	-0.342774
Cl57	Cl	-3.985126	-0.286337	-0.595243
Cl58	Cl	-3.911737	-0.287168	-0.429651
Cl59	Cl	-4.006073	0.065957	-0.996600
Cl60	Cl	-3.734371	0.062896	-0.383681
