data_functionalizedCrystal
_audit_creation_method	'MofGen! by Chris Wilmer'
_symmetry_space_group_name_H-M	'P1'
_symmetry_Int_Tables_number	1
_symmetry_cell_setting	triclinic
loop_
_symmetry_equiv_pos_as_xyz
  x,y,z
_cell_length_a	14.044220
_cell_length_b	14.971506
_cell_length_c	14.048226
_cell_angle_alpha	89.993237
_cell_angle_beta	90.005040
_cell_angle_gamma	91.594367
loop_
_atom_site_label
_atom_site_type_symbol
_atom_site_fract_x
_atom_site_fract_y
_atom_site_fract_z
O1	O	-0.123630	1.196675	-0.079165
O2	O	-0.138404	0.937441	-0.079166
O3	O	0.006973	1.063167	-0.079161
O4	O	-0.269006	1.070949	-0.079170
O5	O	0.006981	1.063150	0.079160
O6	O	-0.138395	0.937424	0.079156
O7	O	-0.123621	1.196658	0.079156
Zn8	Zn	-0.131007	1.067038	0.104293
Zn9	Zn	-0.131018	1.067061	-0.104302
O10	O	-0.268998	1.070932	0.079152
C11	C	-0.137735	0.904056	-0.000005
C12	C	-0.135745	0.804603	-0.000005
C13	C	-0.213556	0.372450	-0.000017
C14	C	-0.215418	0.465897	-0.000021
C15	C	-0.130004	0.516388	-0.000015
C16	C	-0.042722	0.473428	-0.000013
C17	C	-0.040860	0.379983	-0.000016
C18	C	-0.046608	0.668197	-0.000005
C19	C	-0.048469	0.761649	-0.000001
C20	C	-0.221166	0.754112	-0.000011
C21	C	-0.219305	0.660666	-0.000014
C22	C	-0.132022	0.617712	-0.000010
C23	C	-0.304320	1.074347	-0.000010
C24	C	-0.409558	1.084508	-0.000014
C25	C	-0.602242	1.103085	-0.000009
C26	C	-0.659788	1.031018	-0.000009
C27	C	-0.767004	1.041354	-0.000006
C28	C	-0.495016	1.092750	-0.000012
C29	C	0.042295	1.059752	-0.000002
C30	C	0.147533	1.049591	-0.000004
C31	C	-0.124290	1.230043	-0.000007
C32	C	-0.126280	1.329496	-0.000013
N33	N	-0.130999	1.067029	0.246653
N34	N	-0.131019	1.067076	-0.246663
C35	C	-0.066653	1.122722	0.296473
C36	C	-0.066652	1.122728	0.396131
C37	C	-0.131003	1.067045	0.445967
C38	C	-0.195352	1.011346	0.396140
C39	C	-0.195347	1.011336	0.296484
C40	C	-0.195359	1.011373	0.603854
C41	C	-0.195365	1.011384	0.703517
C42	C	-0.066664	1.122764	0.703501
C43	C	-0.066659	1.122754	0.603845
C44	C	-0.131009	1.067056	0.554025
H45	H	0.030209	0.345011	-0.000014
Cl46	Cl	-0.611537	0.923774	-0.000001
H47	H	-0.288856	0.619559	-0.000013
Cl48	Cl	0.014242	1.192742	0.458764
Cl49	Cl	-0.650495	1.210321	-0.000004
H50	H	0.026824	0.514545	-0.000013
Cl51	Cl	-0.330893	0.808110	-0.000004
Cl52	Cl	-0.276265	0.941377	0.766160
Cl53	Cl	0.014246	1.192732	0.233833
H54	H	-0.286487	0.500866	-0.000034
Cl55	Cl	0.063121	0.614199	0.000005
Cl56	Cl	-0.320940	0.308985	-0.000018
H57	H	-0.014264	1.168100	0.563269
H58	H	0.021083	0.802757	-0.000003
Cl59	Cl	0.014231	1.192784	0.766135
Cl60	Cl	-0.276257	0.941348	0.541227
H61	H	-0.247744	0.966004	0.436722
Cl62	Cl	-0.276240	0.941316	0.233854
