data_functionalizedCrystal
_audit_creation_method	'MofGen! by Chris Wilmer'
_symmetry_space_group_name_H-M	'P1'
_symmetry_Int_Tables_number	1
_symmetry_cell_setting	triclinic
loop_
_symmetry_equiv_pos_as_xyz
  x,y,z
_cell_length_a	14.853566
_cell_length_b	14.044190
_cell_length_c	13.330367
_cell_angle_alpha	89.990836
_cell_angle_beta	89.995295
_cell_angle_gamma	88.413096
loop_
_atom_site_label
_atom_site_type_symbol
_atom_site_fract_x
_atom_site_fract_y
_atom_site_fract_z
O1	O	1.206178	0.123761	-0.083368
O2	O	0.944887	0.138506	-0.083386
O3	O	1.071607	-0.006856	-0.083358
O4	O	1.079458	0.269124	-0.083397
O5	O	1.071587	-0.006859	0.083489
O6	O	0.944866	0.138503	0.083461
O7	O	1.206158	0.123758	0.083479
Cu8	Cu	1.075510	0.131130	0.098704
Cu9	Cu	1.075534	0.131134	-0.098612
O10	O	1.079437	0.269120	0.083450
C11	C	0.911235	0.137837	0.000035
C12	C	0.810993	0.135835	0.000029
C13	C	0.387148	0.127372	-0.090900
C14	C	0.387147	0.127369	0.091003
C15	C	0.481330	0.129248	0.091000
C16	C	0.528426	0.130191	0.000045
C17	C	0.481339	0.129254	-0.090906
C18	C	0.528424	0.130195	0.181949
C19	C	0.622612	0.132075	0.181950
C20	C	0.669711	0.133011	0.090994
C21	C	0.622618	0.132073	0.000039
C22	C	0.669714	0.133016	-0.090916
C23	C	0.622624	0.132071	-0.181872
C24	C	0.528438	0.130190	-0.181862
C25	C	0.763896	0.134893	0.090984
C26	C	0.763906	0.134899	-0.090922
C27	C	1.068162	-0.042177	0.000068
C28	C	1.057918	-0.147416	0.000076
C29	C	1.111844	-0.397632	0.000041
C30	C	1.039204	-0.340098	0.000043
C31	C	1.049619	-0.232880	0.000062
C32	C	1.101431	-0.504860	0.000022
C33	C	1.239809	0.124428	0.000055
C34	C	1.340052	0.126429	0.000054
C35	C	1.082882	0.304441	0.000022
C36	C	1.093126	0.409680	0.000007
N37	N	1.075500	0.131127	0.237486
N38	N	1.075551	0.131130	-0.237393
C39	C	1.019418	0.195475	0.710096
C40	C	1.131674	0.066785	0.710089
C41	C	1.131664	0.066783	0.605071
C42	C	1.075530	0.131128	0.552560
C43	C	1.019408	0.195476	0.605068
C44	C	1.187792	0.002442	0.552555
C45	C	1.187785	0.002437	0.447531
C46	C	1.131646	0.066779	0.395018
C47	C	1.075520	0.131129	0.447532
C48	C	1.019387	0.195474	0.395022
C49	C	0.963256	0.259821	0.447534
C50	C	0.963269	0.259818	0.552556
C51	C	1.131633	0.066782	0.289996
C52	C	1.019377	0.195475	0.289993
H53	H	0.490088	0.129420	-0.255914
C54	C	1.196975	-0.126529	0.670679
C55	C	1.249484	-0.068283	0.610283
H56	H	1.235061	-0.170197	0.706319
H57	H	1.163554	-0.088204	0.716968
H58	H	1.156709	-0.160701	0.629705
H59	H	1.289745	-0.034107	0.651258
H60	H	1.282920	-0.106614	0.563989
C61	C	0.897780	-0.351722	0.085809
C62	C	0.944688	-0.382299	0.000036
H63	H	0.839431	-0.377774	0.085802
H64	H	0.929605	-0.372492	0.143977
H65	H	0.892479	-0.284159	0.085807
H66	H	0.949995	-0.449861	0.000042
H67	H	0.912855	-0.361534	-0.058148
H68	H	0.660981	0.132845	-0.255927
H69	H	0.802245	0.135663	-0.164989
C70	C	0.354564	0.208216	0.246036
C71	C	0.335383	0.126336	0.190978
H72	H	0.322599	0.207578	0.307757
H73	H	0.417389	0.209460	0.259047
H74	H	0.336695	0.263140	0.208649
H75	H	0.353258	0.071412	0.228362
H76	H	0.272543	0.125083	0.177970
C77	C	0.242774	0.124485	-0.171672
C78	C	0.335391	0.126338	-0.190876
H79	H	0.210823	0.123853	-0.233395
H80	H	0.229775	0.068941	-0.134302
H81	H	0.224911	0.179416	-0.134308
H82	H	0.353256	0.071403	-0.228234
H83	H	0.348396	0.181888	-0.228263
H84	H	1.181850	-0.366367	0.000056
C85	C	0.867804	0.250831	0.742447
C86	C	0.957718	0.266198	0.767815
H87	H	0.829714	0.294488	0.778087
H88	H	0.859775	0.260047	0.672393
H89	H	0.852943	0.187538	0.759672
H90	H	0.972581	0.329489	0.750583
H91	H	0.965751	0.256990	0.837884
C92	C	0.732106	0.052753	0.287482
C93	C	0.674371	0.133101	0.281925
H94	H	0.764064	0.053388	0.349200
H95	H	0.697789	-0.003205	0.283711
H96	H	0.773632	0.053593	0.233309
H97	H	0.632841	0.132257	0.336093
H98	H	0.708691	0.189073	0.285705
H99	H	0.973662	0.247870	0.247246
C100	C	1.308624	-0.018181	0.329130
C101	C	1.249267	-0.068404	0.389689
H102	H	1.346519	-0.061951	0.293389
H103	H	1.275188	0.020239	0.282931
H104	H	1.344430	0.021220	0.370006
H105	H	1.213457	-0.107799	0.348813
H106	H	1.282706	-0.106840	0.435894
H107	H	0.917556	0.312215	0.404768
H108	H	0.490071	0.129433	0.256000
H109	H	0.802233	0.135671	0.165039
C110	C	0.811658	0.315178	0.584932
C111	C	0.901576	0.330541	0.610284
H112	H	0.773575	0.358835	0.620581
H113	H	0.803618	0.324395	0.514881
H114	H	0.796798	0.251884	0.602160
H115	H	0.916439	0.393832	0.593049
H116	H	0.909621	0.321331	0.680351
H117	H	1.177381	0.014402	0.752847
H118	H	1.177339	0.014396	0.247246
