data_functionalizedCrystal
_audit_creation_method	'MofGen! by Chris Wilmer'
_symmetry_space_group_name_H-M	'P1'
_symmetry_Int_Tables_number	1
_symmetry_cell_setting	triclinic
loop_
_symmetry_equiv_pos_as_xyz
  x,y,z
_cell_length_a	16.120530
_cell_length_b	19.805405
_cell_length_c	19.805399
_cell_angle_alpha	90.028055
_cell_angle_beta	87.084478
_cell_angle_gamma	92.871417
loop_
_atom_site_label
_atom_site_type_symbol
_atom_site_fract_x
_atom_site_fract_y
_atom_site_fract_z
Zn1	Zn	1.274469	0.322018	-0.435101
Zn2	Zn	1.274348	0.435201	-0.321907
Zn3	Zn	1.135056	0.316289	-0.316196
Zn4	Zn	1.134995	0.429421	-0.429326
O5	O	1.204717	0.375732	-0.375633
O6	O	1.391118	0.341849	-0.424893
O7	O	1.255846	0.419449	-0.226432
O8	O	1.153626	0.222336	-0.331996
O9	O	1.391029	0.425004	-0.341730
O10	O	1.256052	0.226545	-0.419355
O11	O	1.153509	0.332085	-0.222236
O12	O	1.018383	0.326480	-0.326396
O13	O	1.153522	0.415152	-0.524810
O14	O	1.018338	0.409597	-0.409512
O15	O	1.255993	0.336243	-0.529053
O16	O	1.255786	0.529148	-0.336130
O17	O	1.153404	0.524901	-0.415050
C18	C	0.988111	0.366790	-0.366708
C19	C	0.895446	0.362981	-0.362906
C20	C	0.725786	0.356010	-0.355970
C21	C	0.684489	0.395505	-0.395345
C22	C	0.590084	0.391626	-0.391486
C23	C	0.820199	0.359888	-0.359828
C24	C	1.204598	0.551584	-0.375599
C25	C	1.204623	0.626817	-0.375610
C26	C	1.257920	0.664292	-0.421130
C27	C	1.257940	0.734982	-0.421141
C28	C	1.204667	0.768194	-0.375630
C29	C	1.151364	0.730713	-0.330108
C30	C	1.151341	0.660025	-0.330100
C31	C	1.151459	1.015790	-0.330139
C32	C	1.151489	1.086483	-0.330149
C33	C	1.258058	1.090747	-0.421181
C34	C	1.258035	1.020059	-0.421173
C35	C	1.204729	0.982584	-0.375654
C36	C	1.204707	0.905934	-0.375643
C37	C	1.204693	0.844842	-0.375637
C38	C	1.422169	0.384710	-0.384593
C39	C	1.514834	0.388536	-0.388411
C40	C	1.204764	0.375692	-0.552177
C41	C	1.204784	0.375674	-0.627410
C42	C	1.204825	1.199194	-0.375675
C43	C	1.204782	1.123960	-0.375673
C44	C	1.258142	0.334585	-0.664965
C45	C	1.258150	0.334565	-0.735654
C46	C	1.204805	0.375640	-0.768787
C47	C	1.151441	0.416731	-0.731227
C48	C	1.151429	0.416746	-0.660539
C49	C	1.151488	0.416670	-1.016302
C50	C	1.151506	0.416653	-1.086995
C51	C	1.258210	0.334489	-1.091417
C52	C	1.258197	0.334504	-1.020729
C53	C	1.204831	0.375593	-0.983175
C54	C	1.204821	0.375612	-0.906526
C55	C	1.204818	0.375624	-0.845434
C56	C	1.204719	0.375726	-0.199777
C57	C	1.204860	0.375559	-0.124551
H58	H	0.720033	0.432229	-0.431954
H59	H	0.690244	0.319289	-0.319364
C60	C	1.316878	0.289320	-0.984284
C61	C	1.310134	0.212095	-0.993745
C62	C	1.368813	0.166907	-0.957302
C63	C	1.434236	0.198946	-0.911398
C64	C	1.440982	0.276176	-0.901935
C65	C	1.382303	0.321363	-0.938378
H66	H	1.261702	0.188374	-1.027728
H67	H	1.363819	0.109737	-0.964307
H68	H	1.477674	0.165495	-0.884420
H69	H	1.489415	0.299896	-0.867952
H70	H	1.387298	0.378534	-0.931373
C71	C	1.092760	0.461856	-0.975013
C72	C	1.027307	0.429816	-0.923749
C73	C	0.968563	0.474998	-0.882462
C74	C	0.975271	0.552220	-0.892439
C75	C	1.040726	0.584264	-0.943706
C76	C	1.099471	0.539082	-0.984992
H77	H	1.022339	0.372648	-0.916361
H78	H	0.920108	0.451277	-0.844512
H79	H	0.931784	0.585666	-0.861877
H80	H	1.045694	0.641432	-0.951093
H81	H	1.147926	0.562804	-1.022943
C82	C	1.316825	0.289401	-0.628522
C83	C	1.382250	0.321441	-0.582621
C84	C	1.440932	0.276254	-0.546181
C85	C	1.434191	0.199028	-0.555642
C86	C	1.368763	0.166985	-0.601546
C87	C	1.310080	0.212172	-0.637986
H88	H	1.387243	0.378611	-0.575615
H89	H	1.489366	0.299975	-0.512200
H90	H	1.477631	0.165579	-0.528667
H91	H	1.363770	0.109814	-0.608551
H92	H	1.261646	0.188451	-0.671967
C93	C	1.316908	0.289283	-1.132727
C94	C	1.316924	0.289258	-1.210481
C95	C	1.375623	0.244056	-1.251789
C96	C	1.434305	0.198879	-1.215343
C97	C	1.434291	0.198903	-1.137585
C98	C	1.375593	0.244105	-1.096277
H99	H	1.273482	0.322702	-1.237464
H100	H	1.375633	0.244038	-1.309351
H101	H	1.477758	0.165417	-1.245922
H102	H	1.477733	0.165459	-1.110602
H103	H	1.375583	0.244122	-1.038715
C104	C	1.316523	0.627762	-0.471194
C105	C	1.375145	0.668988	-0.521267
C106	C	1.433749	0.632461	-0.571334
C107	C	1.433730	0.554707	-0.571327
C108	C	1.375105	0.513476	-0.521252
C109	C	1.316502	0.550004	-0.471186
H110	H	1.375162	0.726551	-0.521273
H111	H	1.477147	0.662983	-0.608402
H112	H	1.477111	0.527667	-0.608390
H113	H	1.375089	0.455914	-0.521246
H114	H	1.273104	0.519482	-0.434117
C115	C	1.316635	0.983527	-0.471238
C116	C	1.382095	0.937602	-0.444648
C117	C	1.440693	0.901072	-0.494717
C118	C	1.433832	0.910467	-0.571376
C119	C	1.368369	0.956395	-0.597970
C120	C	1.309770	0.992925	-0.547901
H121	H	1.387177	0.930645	-0.387897
H122	H	1.489154	0.867073	-0.475030
H123	H	1.477210	0.883426	-0.608440
H124	H	1.363287	0.963352	-0.654720
H125	H	1.261310	1.026924	-0.567588
H126	H	1.107971	0.450199	-0.629963
H127	H	1.301346	0.765492	-0.458203
H128	H	1.301460	1.121268	-0.458247
H129	H	1.108103	1.113522	-0.293087
H130	H	1.108057	0.985283	-0.293075
C131	C	1.092715	0.618798	-0.280026
C132	C	1.034117	0.655327	-0.229962
C133	C	0.975486	0.614101	-0.179889
C134	C	0.975454	0.536347	-0.179880
C135	C	1.034055	0.499814	-0.229946
C136	C	1.092685	0.541040	-0.280019
H137	H	1.034138	0.712889	-0.229966
H138	H	0.932106	0.641146	-0.142826
H139	H	0.932052	0.505829	-0.142813
H140	H	1.034033	0.442252	-0.229941
H141	H	1.136065	0.513995	-0.317082
C142	C	1.092764	0.767242	-0.280041
C143	C	0.997981	0.753681	-0.281593
C144	C	0.939382	0.790208	-0.231522
C145	C	0.975567	0.840296	-0.179898
C146	C	1.070355	0.853860	-0.178344
C147	C	1.128954	0.817333	-0.228416
H148	H	0.971191	0.716601	-0.319809
H149	H	0.869213	0.780167	-0.232672
H150	H	0.932188	0.867335	-0.142833
H151	H	1.097145	0.890940	-0.140128
H152	H	1.199122	0.827374	-0.227265
H153	H	1.301602	0.301108	-0.766228
H154	H	1.108062	0.450102	-1.113970
H155	H	1.108003	0.450172	-0.758209
