data_functionalizedCrystal
_audit_creation_method	'MofGen! by Chris Wilmer'
_symmetry_space_group_name_H-M	'P1'
_symmetry_Int_Tables_number	1
_symmetry_cell_setting	triclinic
loop_
_symmetry_equiv_pos_as_xyz
  x,y,z
_cell_length_a	18.101398
_cell_length_b	18.050590
_cell_length_c	18.101390
_cell_angle_alpha	89.966356
_cell_angle_beta	89.974845
_cell_angle_gamma	90.016283
loop_
_atom_site_label
_atom_site_type_symbol
_atom_site_fract_x
_atom_site_fract_y
_atom_site_fract_z
Zn1	Zn	1.132188	-0.295676	-0.418844
Zn2	Zn	1.382188	-0.045676	-0.168844
Zn3	Zn	1.632188	0.204324	0.081156
Zn4	Zn	1.882188	0.454324	0.331156
Zn5	Zn	1.132110	-0.419882	-0.295001
Zn6	Zn	1.382110	-0.169882	-0.045001
Zn7	Zn	1.632110	0.080118	0.204999
Zn8	Zn	1.882110	0.330118	0.454999
Zn9	Zn	1.008346	-0.295705	-0.295005
Zn10	Zn	1.258346	-0.045705	-0.045005
Zn11	Zn	1.508346	0.204295	0.204995
Zn12	Zn	1.758346	0.454295	0.454995
Zn13	Zn	1.008325	-0.419824	-0.418789
Zn14	Zn	1.258325	-0.169824	-0.168789
Zn15	Zn	1.508325	0.080176	0.081211
Zn16	Zn	1.758325	0.330176	0.331211
O17	O	1.070243	-0.357772	-0.356910
O18	O	1.320243	-0.107772	-0.106910
O19	O	1.570243	0.142228	0.143090
O20	O	1.820243	0.392228	0.393090
O21	O	1.235811	-0.312164	-0.402438
O22	O	1.485811	-0.062164	-0.152438
O23	O	1.735811	0.187836	0.097562
O24	O	1.985811	0.437836	0.347562
O25	O	1.115669	-0.403446	-0.191369
O26	O	1.365669	-0.153446	0.058631
O27	O	1.615669	0.096554	0.308631
O28	O	1.865669	0.346554	0.558631
O29	O	1.024816	-0.191777	-0.311457
O30	O	1.274816	0.058223	-0.061457
O31	O	1.524816	0.308223	0.188543
O32	O	1.774816	0.558223	0.438543
O33	O	1.235754	-0.403418	-0.311451
O34	O	1.485754	-0.153418	-0.061451
O35	O	1.735754	0.096582	0.188549
O36	O	1.985754	0.346582	0.438549
O37	O	1.115802	-0.191755	-0.402441
O38	O	1.365802	0.058245	-0.152441
O39	O	1.615802	0.308245	0.097559
O40	O	1.865802	0.558245	0.347559
O41	O	1.024740	-0.312214	-0.191371
O42	O	1.274740	-0.062214	0.058629
O43	O	1.524740	0.187786	0.308629
O44	O	1.774740	0.437786	0.558629
O45	O	0.904711	-0.312158	-0.311403
O46	O	1.154711	-0.062158	-0.061403
O47	O	1.404711	0.187842	0.188597
O48	O	1.654711	0.437842	0.438597
O49	O	1.024779	-0.403319	-0.522429
O50	O	1.274779	-0.153319	-0.272429
O51	O	1.524779	0.096681	-0.022429
O52	O	1.774779	0.346681	0.227571
O53	O	0.904695	-0.403347	-0.402347
O54	O	1.154695	-0.153347	-0.152347
O55	O	1.404695	0.096653	0.097653
O56	O	1.654695	0.346653	0.347653
O57	O	1.115781	-0.312108	-0.522470
O58	O	1.365781	-0.062108	-0.272470
O59	O	1.615781	0.187892	-0.022470
O60	O	1.865781	0.437892	0.227530
O61	O	1.115649	-0.523799	-0.311397
O62	O	1.365649	-0.273799	-0.061397
O63	O	1.615649	-0.023799	0.188603
O64	O	1.865649	0.226201	0.438603
O65	O	1.024704	-0.523756	-0.402344
O66	O	1.274704	-0.273756	-0.152344
O67	O	1.524704	-0.023756	0.097656
O68	O	1.774704	0.226244	0.347656
C69	C	0.877832	-0.357750	-0.356870
C70	C	1.127832	-0.107750	-0.106870
C71	C	1.377832	0.142250	0.143130
C72	C	1.627832	0.392250	0.393130
C73	C	0.795518	-0.357758	-0.356870
C74	C	1.045518	-0.107758	-0.106870
C75	C	1.295518	0.142242	0.143130
C76	C	1.545518	0.392242	0.393130
C77	C	1.070186	-0.550724	-0.356880
C78	C	1.320186	-0.300724	-0.106880
C79	C	1.570186	-0.050724	0.143120
C80	C	1.820186	0.199276	0.393120
C81	C	1.070229	-0.633269	-0.356892
C82	C	1.320229	-0.383269	-0.106892
C83	C	1.570229	-0.133269	0.143108
C84	C	1.820229	0.116731	0.393108
C85	C	0.644809	-0.357774	-0.356903
C86	C	0.894809	-0.107774	-0.106903
C87	C	1.144809	0.142226	0.143097
C88	C	1.394809	0.392226	0.393097
C89	C	0.613441	-0.300317	-0.299779
C90	C	0.863441	-0.050317	-0.049779
C91	C	1.113441	0.199683	0.200221
C92	C	1.363441	0.449683	0.450221
C93	C	0.527823	-0.300101	-0.299967
C94	C	0.777823	-0.050101	-0.049967
C95	C	1.027823	0.199899	0.200033
C96	C	1.277823	0.449899	0.450033
C97	C	0.496427	-0.357788	-0.356935
C98	C	0.746427	-0.107788	-0.106935
C99	C	0.996427	0.142212	0.143065
C100	C	1.246427	0.392212	0.393065
C101	C	0.527563	-0.336891	-0.435070
C102	C	0.777563	-0.086891	-0.185070
C103	C	1.027563	0.163109	0.064930
C104	C	1.277563	0.413109	0.314930
C105	C	0.613208	-0.336465	-0.434722
C106	C	0.863208	-0.086465	-0.184722
C107	C	1.113208	0.163535	0.065278
C108	C	1.363208	0.413535	0.315278
C109	C	0.613223	-0.436276	-0.336581
C110	C	0.863223	-0.186276	-0.086581
C111	C	1.113223	0.063724	0.163419
C112	C	1.363223	0.313724	0.413419
C113	C	0.527571	-0.435862	-0.334878
C114	C	0.777571	-0.185862	-0.084878
C115	C	1.027571	0.064138	0.165122
C116	C	1.277571	0.314138	0.415122
C117	C	0.412567	-0.357798	-0.356957
C118	C	0.662567	-0.107798	-0.106957
C119	C	0.912567	0.142202	0.143043
C120	C	1.162567	0.392202	0.393043
C121	C	0.728669	-0.357762	-0.356886
C122	C	0.978669	-0.107762	-0.106886
C123	C	1.228669	0.142238	0.143114
C124	C	1.478669	0.392238	0.393114
C125	C	1.119788	-0.832716	-0.307505
C126	C	1.369788	-0.582716	-0.057505
C127	C	1.619788	-0.332716	0.192495
C128	C	1.869788	-0.082716	0.442495
C129	C	1.137877	-0.882043	-0.375097
C130	C	1.387877	-0.632043	-0.125097
C131	C	1.637877	-0.382043	0.124903
C132	C	1.887877	-0.132043	0.374903
C133	C	1.070271	-0.784400	-0.356922
C134	C	1.320271	-0.534400	-0.106922
C135	C	1.570271	-0.284400	0.143078
C136	C	1.820271	-0.034400	0.393078
C137	C	1.052257	-0.882154	-0.289361
C138	C	1.302257	-0.632154	-0.039361
C139	C	1.552257	-0.382154	0.210639
C140	C	1.802257	-0.132154	0.460639
C141	C	1.070313	-0.930385	-0.356945
C142	C	1.320313	-0.680385	-0.106945
C143	C	1.570313	-0.430385	0.143055
C144	C	1.820313	-0.180385	0.393055
C145	C	1.088396	-0.832640	-0.424549
C146	C	1.338396	-0.582640	-0.174549
C147	C	1.588396	-0.332640	0.075451
C148	C	1.838396	-0.082640	0.325451
C149	C	1.002743	-0.832746	-0.338768
C150	C	1.252743	-0.582746	-0.088768
C151	C	1.502743	-0.332746	0.161232
C152	C	1.752743	-0.082746	0.411232
C153	C	1.020807	-0.882051	-0.406406
C154	C	1.270807	-0.632051	-0.156406
C155	C	1.520807	-0.382051	0.093594
C156	C	1.770807	-0.132051	0.343594
C157	C	1.070249	-0.700302	-0.356908
C158	C	1.320249	-0.450302	-0.106908
C159	C	1.570249	-0.200302	0.143092
C160	C	1.820249	0.049698	0.393092
C161	C	1.070335	-1.014481	-0.356966
C162	C	1.320335	-0.764481	-0.106966
C163	C	1.570335	-0.514481	0.143034
C164	C	1.820335	-0.264481	0.393034
C165	C	1.263404	-0.357794	-0.356951
C166	C	1.513404	-0.107794	-0.106951
C167	C	1.763404	0.142206	0.143049
C168	C	2.013404	0.392206	0.393049
C169	C	1.345719	-0.357804	-0.356968
C170	C	1.595719	-0.107804	-0.106968
C171	C	1.845719	0.142196	0.143032
C172	C	2.095719	0.392196	0.393032
C173	C	1.070287	-0.357704	-0.550072
C174	C	1.320287	-0.107704	-0.300072
C175	C	1.570287	0.142296	-0.050072
C176	C	1.820287	0.392296	0.199928
C177	C	1.070305	-0.357675	-0.632386
C178	C	1.320305	-0.107675	-0.382386
C179	C	1.570305	0.142325	-0.132386
C180	C	1.820305	0.392325	0.117614
C181	C	1.070320	-0.164066	-0.356956
C182	C	1.320320	0.085934	-0.106956
C183	C	1.570320	0.335934	0.143044
C184	C	1.820320	0.585934	0.393044
C185	C	1.070353	-0.081520	-0.356975
C186	C	1.320353	0.168480	-0.106975
C187	C	1.570353	0.418480	0.143025
C188	C	1.820353	0.668480	0.393025
C189	C	1.070345	-0.357629	-0.931477
C190	C	1.320345	-0.107629	-0.681477
C191	C	1.570345	0.142371	-0.431477
C192	C	1.820345	0.392371	-0.181477
C193	C	1.127790	-0.300443	-0.900178
C194	C	1.377790	-0.050443	-0.650178
C195	C	1.627790	0.199557	-0.400178
C196	C	1.877790	0.449557	-0.150178
C197	C	1.127610	-0.300231	-0.814559
C198	C	1.377610	-0.050231	-0.564559
C199	C	1.627610	0.199769	-0.314559
C200	C	1.877610	0.449769	-0.064559
C201	C	1.070326	-0.357652	-0.783094
C202	C	1.320326	-0.107652	-0.533094
C203	C	1.570326	0.142348	-0.283094
C204	C	1.820326	0.392348	-0.033094
C205	C	0.992305	-0.336386	-0.814161
C206	C	1.242305	-0.086386	-0.564161
C207	C	1.492305	0.163614	-0.314161
C208	C	1.742305	0.413614	-0.064161
C209	C	0.992649	-0.335957	-0.899806
C210	C	1.242649	-0.085957	-0.649806
C211	C	1.492649	0.164043	-0.399806
C212	C	1.742649	0.414043	-0.149806
C213	C	1.090235	-0.436227	-0.899890
C214	C	1.340235	-0.186227	-0.649890
C215	C	1.590235	0.063773	-0.399890
C216	C	1.840235	0.313773	-0.149890
C217	C	1.091947	-0.435826	-0.814240
C218	C	1.341947	-0.185826	-0.564240
C219	C	1.591947	0.064174	-0.314240
C220	C	1.841947	0.314174	-0.064240
C221	C	1.070310	-0.357666	-0.699235
C222	C	1.320310	-0.107666	-0.449235
C223	C	1.570310	0.142334	-0.199235
C224	C	1.820310	0.392334	0.050765
C225	C	1.070356	-0.357613	-1.015337
C226	C	1.320356	-0.107613	-0.765337
C227	C	1.570356	0.142387	-0.515337
C228	C	1.820356	0.392387	-0.265337
C229	C	1.070241	-0.357786	-0.164499
C230	C	1.320241	-0.107786	0.085501
C231	C	1.570241	0.142214	0.335501
C232	C	1.820241	0.392214	0.585501
C233	C	1.070366	-0.357605	-0.082186
C234	C	1.320366	-0.107605	0.167814
C235	C	1.570366	0.142395	0.417814
C236	C	1.820366	0.392395	0.667814
H237	H	0.506768	-0.313140	-0.242040
H238	H	0.756768	-0.063140	0.007960
H239	H	1.006768	0.186860	0.257960
H240	H	1.256768	0.436860	0.507960
H241	H	0.634788	-0.455358	-0.280556
H242	H	0.884788	-0.205358	-0.030556
H243	H	1.134788	0.044642	0.219444
H244	H	1.384788	0.294642	0.469444
H245	H	0.945635	-0.811074	-0.323378
H246	H	1.195635	-0.561074	-0.073378
H247	H	1.445635	-0.311074	0.176622
H248	H	1.695635	-0.061074	0.426622
H249	H	1.048399	-0.478836	-0.920136
H250	H	1.298399	-0.228836	-0.670136
H251	H	1.548399	0.021164	-0.420136
H252	H	1.798399	0.271164	-0.170136
H253	H	1.103593	-0.810983	-0.481743
H254	H	1.353593	-0.560983	-0.231743
H255	H	1.603593	-0.310983	0.018257
H256	H	1.853593	-0.060983	0.268257
H257	H	1.195002	-0.903699	-0.390466
H258	H	1.445002	-0.653699	-0.140466
H259	H	1.695002	-0.403699	0.109534
H260	H	1.945002	-0.153699	0.359534
H261	H	0.507348	-0.241936	-0.313459
H262	H	0.757348	0.008064	-0.063459
H263	H	1.007348	0.258064	0.186541
H264	H	1.257348	0.508064	0.436541
H265	H	1.037003	-0.903903	-0.232215
H266	H	1.287003	-0.653903	0.017785
H267	H	1.537003	-0.403903	0.267785
H268	H	1.787003	-0.153903	0.517785
H269	H	0.633984	-0.313207	-0.241660
H270	H	0.883984	-0.063207	0.008340
H271	H	1.133984	0.186793	0.258340
H272	H	1.383984	0.436793	0.508340
H273	H	1.185465	-0.313549	-0.793557
H274	H	1.435465	-0.063549	-0.543557
H275	H	1.685465	0.186451	-0.293557
H276	H	1.935465	0.436451	-0.043557
H277	H	0.633506	-0.479080	-0.378187
H278	H	0.883506	-0.229080	-0.128187
H279	H	1.133506	0.020920	0.121813
H280	H	1.383506	0.270920	0.371813
H281	H	0.978951	-0.903577	-0.448254
H282	H	1.228951	-0.653577	-0.198254
H283	H	1.478951	-0.403577	0.051746
H284	H	1.728951	-0.153577	0.301746
H285	H	1.185833	-0.313596	-0.920785
H286	H	1.435833	-0.063596	-0.670785
H287	H	1.685833	0.186404	-0.420785
H288	H	1.935833	0.436404	-0.170785
H289	H	1.114789	-0.242541	-0.921715
H290	H	1.364789	0.007459	-0.671715
H291	H	1.614789	0.257459	-0.421715
H292	H	1.864789	0.507459	-0.171715
H293	H	0.633200	-0.279092	-0.451899
H294	H	0.883200	-0.029092	-0.201899
H295	H	1.133200	0.220908	0.048101
H296	H	1.383200	0.470908	0.298101
H297	H	1.114444	-0.242004	-0.794086
H298	H	1.364444	0.007996	-0.544086
H299	H	1.614444	0.257996	-0.294086
H300	H	1.864444	0.507996	-0.044086
H301	H	0.975789	-0.278502	-0.919796
H302	H	1.225789	-0.028502	-0.669796
H303	H	1.475789	0.221498	-0.419796
H304	H	1.725789	0.471498	-0.169796
H305	H	0.948391	-0.375796	-0.920509
H306	H	1.198391	-0.125796	-0.670509
H307	H	1.448391	0.124204	-0.420509
H308	H	1.698391	0.374204	-0.170509
H309	H	0.507231	-0.377464	-0.478811
H310	H	0.757231	-0.127464	-0.228811
H311	H	1.007231	0.122536	0.021189
H312	H	1.257231	0.372536	0.271189
H313	H	1.146131	-0.455591	-0.921540
H314	H	1.396131	-0.205591	-0.671540
H315	H	1.646131	0.044409	-0.421540
H316	H	1.896131	0.294409	-0.171540
H317	H	0.948342	-0.376754	-0.793777
H318	H	1.198342	-0.126754	-0.543777
H319	H	1.448342	0.123246	-0.293777
H320	H	1.698342	0.373246	-0.043777
H321	H	0.975139	-0.279569	-0.792721
H322	H	1.225139	-0.029569	-0.542721
H323	H	1.475139	0.220431	-0.292721
H324	H	1.725139	0.470431	-0.042721
H325	H	1.149364	-0.451862	-0.793936
H326	H	1.399364	-0.201862	-0.543936
H327	H	1.649364	0.048138	-0.293936
H328	H	1.899364	0.298138	-0.043936
H329	H	1.053151	-0.480723	-0.792819
H330	H	1.303151	-0.230723	-0.542819
H331	H	1.553151	0.019277	-0.292819
H332	H	1.803151	0.269277	-0.042819
H333	H	0.634976	-0.242478	-0.313098
H334	H	0.884976	0.007522	-0.063098
H335	H	1.134976	0.257522	0.186902
H336	H	1.384976	0.507522	0.436902
H337	H	0.633963	-0.376511	-0.478757
H338	H	0.883963	-0.126511	-0.228757
H339	H	1.133963	0.123489	0.021243
H340	H	1.383963	0.373489	0.271243
H341	H	0.506130	-0.280152	-0.452550
H342	H	0.756130	-0.030152	-0.202550
H343	H	1.006130	0.219848	0.047450
H344	H	1.256130	0.469848	0.297450
H345	H	1.161676	-0.811053	-0.265758
H346	H	1.411676	-0.561053	-0.015758
H347	H	1.661676	-0.311053	0.234242
H348	H	1.911676	-0.061053	0.484242
H349	H	0.507218	-0.451626	-0.277374
H350	H	0.757218	-0.201626	-0.027374
H351	H	1.007218	0.048374	0.222626
H352	H	1.257218	0.298374	0.472626
H353	H	0.506193	-0.480941	-0.373423
H354	H	0.756193	-0.230941	-0.123423
H355	H	1.006193	0.019059	0.126577
H356	H	1.256193	0.269059	0.376577
