data_functionalizedCrystal
_audit_creation_method	'MofGen! by Chris Wilmer'
_symmetry_space_group_name_H-M	'P1'
_symmetry_Int_Tables_number	1
_symmetry_cell_setting	triclinic
loop_
_symmetry_equiv_pos_as_xyz
  x,y,z
_cell_length_a	19.188928
_cell_length_b	17.666332
_cell_length_c	19.188930
_cell_angle_alpha	90.010342
_cell_angle_beta	96.855705
_cell_angle_gamma	89.974047
loop_
_atom_site_label
_atom_site_type_symbol
_atom_site_fract_x
_atom_site_fract_y
_atom_site_fract_z
O1	O	-0.926151	0.063250	0.087160
O2	O	-0.676151	0.313250	0.337160
O3	O	-0.426151	0.563250	0.587160
O4	O	-0.176151	0.813250	0.837160
O5	O	-0.722839	0.063188	0.098896
O6	O	-0.472839	0.313188	0.348896
O7	O	-0.222839	0.563188	0.598896
O8	O	0.027161	0.813188	0.848896
O9	O	-0.830362	0.063206	-0.008628
O10	O	-0.580362	0.313206	0.241372
O11	O	-0.330362	0.563206	0.491372
O12	O	-0.080362	0.813206	0.741372
O13	O	-0.818628	0.063232	0.194683
O14	O	-0.568628	0.313232	0.444683
O15	O	-0.318628	0.563232	0.694683
O16	O	-0.068628	0.813232	0.944683
O17	O	-0.830343	-0.062691	-0.008631
O18	O	-0.580343	0.187309	0.241369
O19	O	-0.330343	0.437309	0.491369
O20	O	-0.080343	0.687309	0.741369
O21	O	-0.722820	-0.062709	0.098893
O22	O	-0.472820	0.187291	0.348893
O23	O	-0.222820	0.437291	0.598893
O24	O	0.027180	0.687291	0.848893
O25	O	-0.926132	-0.062647	0.087157
O26	O	-0.676132	0.187353	0.337157
O27	O	-0.426132	0.437353	0.587157
O28	O	-0.176132	0.687353	0.837157
Cu29	Cu	-0.824474	-0.074173	0.093024
Cu30	Cu	-0.574474	0.175827	0.343024
Cu31	Cu	-0.324474	0.425827	0.593024
Cu32	Cu	-0.074474	0.675827	0.843024
Cu33	Cu	-0.824497	0.074714	0.093028
Cu34	Cu	-0.574497	0.324714	0.343028
Cu35	Cu	-0.324497	0.574714	0.593028
Cu36	Cu	-0.074497	0.824714	0.843028
O37	O	-0.818609	-0.062665	0.194680
O38	O	-0.568609	0.187335	0.444680
O39	O	-0.318609	0.437335	0.694680
O40	O	-0.068609	0.687335	0.944680
C41	C	-0.696819	0.000232	0.098514
C42	C	-0.446819	0.250232	0.348514
C43	C	-0.196819	0.500232	0.598514
C44	C	0.053181	0.750232	0.848514
C45	C	-0.619314	0.000207	0.097374
C46	C	-0.369314	0.250207	0.347374
C47	C	-0.119314	0.500207	0.597374
C48	C	0.130686	0.750207	0.847374
N49	N	-0.824464	-0.178893	0.093021
N50	N	-0.574464	0.071107	0.343021
N51	N	-0.324464	0.321107	0.593021
N52	N	-0.074464	0.571107	0.843021
C53	C	-0.574390	0.000225	0.160465
C54	C	-0.324390	0.250225	0.410465
C55	C	-0.074390	0.500225	0.660465
C56	C	0.175610	0.750225	0.910465
C57	C	-0.501566	0.000229	0.159394
C58	C	-0.251566	0.250229	0.409394
C59	C	-0.001566	0.500229	0.659394
C60	C	0.248434	0.750229	0.909394
C61	C	-0.473670	0.000231	0.095229
C62	C	-0.223670	0.250231	0.345229
C63	C	0.026330	0.500231	0.595229
C64	C	0.276330	0.750231	0.845229
C65	C	-0.518603	0.000209	0.032129
C66	C	-0.268603	0.250209	0.282129
C67	C	-0.018603	0.500209	0.532129
C68	C	0.231397	0.750209	0.782129
C69	C	-0.591426	0.000197	0.033202
C70	C	-0.341426	0.250197	0.283202
C71	C	-0.091426	0.500197	0.533202
C72	C	0.158574	0.750197	0.783202
N73	N	-0.365696	0.043098	0.046184
N74	N	-0.115696	0.293098	0.296184
N75	N	0.134304	0.543098	0.546184
N76	N	0.384304	0.793098	0.796184
N77	N	-0.296517	0.043110	0.045169
N78	N	-0.046517	0.293110	0.295169
N79	N	0.203483	0.543110	0.545169
N80	N	0.453483	0.793110	0.795169
C81	C	-0.254261	0.000265	0.091992
C82	C	-0.004261	0.250265	0.341992
C83	C	0.245739	0.500265	0.591992
C84	C	0.495739	0.750265	0.841992
N85	N	-0.283795	-0.042584	0.139880
N86	N	-0.033795	0.207416	0.389880
N87	N	0.216205	0.457416	0.639880
N88	N	0.466205	0.707416	0.889880
N89	N	-0.352980	-0.042593	0.140897
N90	N	-0.102980	0.207407	0.390897
N91	N	0.147020	0.457407	0.640897
N92	N	0.397020	0.707407	0.890897
C93	C	-0.394707	0.000244	0.094058
C94	C	-0.144707	0.250244	0.344058
C95	C	0.105293	0.500244	0.594058
C96	C	0.355293	0.750244	0.844058
C97	C	-0.130372	0.000287	0.153927
C98	C	0.119628	0.250287	0.403927
C99	C	0.369628	0.500287	0.653927
C100	C	0.619628	0.750287	0.903927
C101	C	-0.057547	0.000286	0.152853
C102	C	0.192453	0.250286	0.402853
C103	C	0.442453	0.500286	0.652853
C104	C	0.692453	0.750286	0.902853
C105	C	-0.074586	0.000274	0.025586
C106	C	0.175414	0.250274	0.275586
C107	C	0.425414	0.500274	0.525586
C108	C	0.675414	0.750274	0.775586
C109	C	-0.147409	0.000266	0.026661
C110	C	0.102591	0.250266	0.276661
C111	C	0.352591	0.500266	0.526661
C112	C	0.602591	0.750266	0.776661
C113	C	-0.175298	0.000276	0.090834
C114	C	0.074702	0.250276	0.340834
C115	C	0.324702	0.500276	0.590834
C116	C	0.574702	0.750276	0.840834
C117	C	0.047848	0.000298	0.087540
C118	C	0.297848	0.250298	0.337540
C119	C	0.547848	0.500298	0.587540
C120	C	0.797848	0.750298	0.837540
C121	C	-0.029656	0.000287	0.088686
C122	C	0.220344	0.250287	0.338686
C123	C	0.470344	0.500287	0.588686
C124	C	0.720344	0.750287	0.838686
C125	C	-0.866673	-0.218477	0.135266
C126	C	-0.616673	0.031523	0.385266
C127	C	-0.366673	0.281523	0.635266
C128	C	-0.116673	0.531523	0.885266
C129	C	-0.866684	-0.297724	0.135264
C130	C	-0.616684	-0.047724	0.385264
C131	C	-0.366684	0.202276	0.635264
C132	C	-0.116684	0.452276	0.885264
C133	C	-0.824473	-0.337385	0.093025
C134	C	-0.574473	-0.087385	0.343025
C135	C	-0.324473	0.162615	0.593025
C136	C	-0.074473	0.412615	0.843025
C137	C	-0.782261	-0.297791	0.050772
C138	C	-0.532261	-0.047791	0.300772
C139	C	-0.282261	0.202209	0.550772
C140	C	-0.032261	0.452209	0.800772
C141	C	-0.782257	-0.218545	0.050770
C142	C	-0.532257	0.031455	0.300770
C143	C	-0.282257	0.281455	0.550770
C144	C	-0.032257	0.531455	0.800770
N145	N	-0.763325	-0.461844	0.091306
N146	N	-0.513325	-0.211844	0.341306
N147	N	-0.263325	0.038156	0.591306
N148	N	-0.013325	0.288156	0.841306
N149	N	-0.763331	-0.537124	0.091312
N150	N	-0.513331	-0.287124	0.341312
N151	N	-0.263331	-0.037124	0.591312
N152	N	-0.013331	0.212876	0.841312
C153	C	-0.824486	-0.576149	0.093028
C154	C	-0.574486	-0.326149	0.343028
C155	C	-0.324486	-0.076149	0.593028
C156	C	-0.074486	0.173851	0.843028
N157	N	-0.885635	-0.537049	0.094751
N158	N	-0.635635	-0.287049	0.344751
N159	N	-0.385635	-0.037049	0.594751
N160	N	-0.135635	0.212951	0.844751
N161	N	-0.885628	-0.461762	0.094749
N162	N	-0.635628	-0.211762	0.344749
N163	N	-0.385628	0.038238	0.594749
N164	N	-0.135628	0.288238	0.844749
C165	C	-0.824474	-0.423314	0.093022
C166	C	-0.574474	-0.173314	0.343022
C167	C	-0.324474	0.076686	0.593022
C168	C	-0.074474	0.326686	0.843022
C169	C	-0.866711	-0.701662	0.135273
C170	C	-0.616711	-0.451662	0.385273
C171	C	-0.366711	-0.201662	0.635273
C172	C	-0.116711	0.048338	0.885273
C173	C	-0.866723	-0.780911	0.135266
C174	C	-0.616723	-0.530911	0.385266
C175	C	-0.366723	-0.280911	0.635266
C176	C	-0.116723	-0.030911	0.885266
C177	C	-0.782294	-0.780977	0.050777
C178	C	-0.532294	-0.530977	0.300777
C179	C	-0.282294	-0.280977	0.550777
C180	C	-0.032294	-0.030977	0.800777
C181	C	-0.782288	-0.701729	0.050780
C182	C	-0.532288	-0.451729	0.300780
C183	C	-0.282288	-0.201729	0.550780
C184	C	-0.032288	0.048271	0.800780
C185	C	-0.824495	-0.662077	0.093032
C186	C	-0.574495	-0.412077	0.343032
C187	C	-0.324495	-0.162077	0.593032
C188	C	-0.074495	0.087923	0.843032
C189	C	-0.829973	0.000255	-0.034641
C190	C	-0.579973	0.250255	0.215359
C191	C	-0.329973	0.500255	0.465359
C192	C	-0.079973	0.750255	0.715359
C193	C	-0.828832	0.000248	-0.112145
C194	C	-0.578832	0.250248	0.137855
C195	C	-0.328832	0.500248	0.387855
C196	C	-0.078832	0.750248	0.637855
N197	N	-0.824513	0.179434	0.093025
N198	N	-0.574513	0.429434	0.343025
N199	N	-0.324513	0.679434	0.593025
N200	N	-0.074513	0.929434	0.843025
C201	C	-0.891923	0.000264	-0.157070
C202	C	-0.641923	0.250264	0.092930
C203	C	-0.391923	0.500264	0.342930
C204	C	-0.141923	0.750264	0.592930
C205	C	-0.890851	0.000276	-0.229893
C206	C	-0.640851	0.250276	0.020107
C207	C	-0.390851	0.500276	0.270107
C208	C	-0.140851	0.750276	0.520107
C209	C	-0.826685	0.000257	-0.257789
C210	C	-0.576685	0.250257	-0.007789
C211	C	-0.326685	0.500257	0.242211
C212	C	-0.076685	0.750257	0.492211
C213	C	-0.763586	0.000245	-0.212855
C214	C	-0.513586	0.250245	0.037145
C215	C	-0.263586	0.500245	0.287145
C216	C	-0.013586	0.750245	0.537145
C217	C	-0.764659	0.000241	-0.140033
C218	C	-0.514659	0.250241	0.109967
C219	C	-0.264659	0.500241	0.359967
C220	C	-0.014659	0.750241	0.609967
N221	N	-0.777631	-0.042603	-0.365795
N222	N	-0.527631	0.207397	-0.115795
N223	N	-0.277631	0.457397	0.134205
N224	N	-0.027631	0.707397	0.384205
N225	N	-0.776616	-0.042601	-0.434974
N226	N	-0.526616	0.207399	-0.184974
N227	N	-0.276616	0.457399	0.065026
N228	N	-0.026616	0.707399	0.315026
C229	C	-0.823447	0.000271	-0.477198
C230	C	-0.573447	0.250271	-0.227198
C231	C	-0.323447	0.500271	0.022802
C232	C	-0.073447	0.750271	0.272802
N233	N	-0.871342	0.043131	-0.447632
N234	N	-0.621342	0.293131	-0.197632
N235	N	-0.371342	0.543131	0.052368
N236	N	-0.121342	0.793131	0.302368
N237	N	-0.872360	0.043125	-0.378447
N238	N	-0.622360	0.293125	-0.128447
N239	N	-0.372360	0.543125	0.121553
N240	N	-0.122360	0.793125	0.371553
C241	C	-0.825514	0.000262	-0.336752
C242	C	-0.575514	0.250262	-0.086752
C243	C	-0.325514	0.500262	0.163248
C244	C	-0.075514	0.750262	0.413248
C245	C	-0.885380	0.000300	-0.601087
C246	C	-0.635380	0.250300	-0.351087
C247	C	-0.385380	0.500300	-0.101087
C248	C	-0.135380	0.750300	0.148913
C249	C	-0.884306	0.000317	-0.673912
C250	C	-0.634306	0.250317	-0.423912
C251	C	-0.384306	0.500317	-0.173912
C252	C	-0.134306	0.750317	0.076088
C253	C	-0.757039	0.000279	-0.656872
C254	C	-0.507039	0.250279	-0.406872
C255	C	-0.257039	0.500279	-0.156872
C256	C	-0.007039	0.750279	0.093128
C257	C	-0.758115	0.000270	-0.584049
C258	C	-0.508115	0.250270	-0.334049
C259	C	-0.258115	0.500270	-0.084049
C260	C	-0.008115	0.750270	0.165951
C261	C	-0.822287	0.000277	-0.556161
C262	C	-0.572287	0.250277	-0.306161
C263	C	-0.322287	0.500277	-0.056161
C264	C	-0.072287	0.750277	0.193839
C265	C	-0.818998	0.000287	0.220693
C266	C	-0.568998	0.250287	0.470693
C267	C	-0.318998	0.500287	0.720693
C268	C	-0.068998	0.750287	0.970693
C269	C	-0.820139	0.000299	0.298197
C270	C	-0.570139	0.250299	0.548197
C271	C	-0.320139	0.500299	0.798197
C272	C	-0.070139	0.750299	1.048197
H273	H	-0.597092	0.000235	0.212720
H274	H	-0.347092	0.250235	0.462720
H275	H	-0.097092	0.500235	0.712720
H276	H	0.152908	0.750235	0.962720
Cl277	Cl	-0.647905	0.000176	-0.046120
Cl278	Cl	-0.397905	0.250176	0.203880
Cl279	Cl	-0.147905	0.500176	0.453880
Cl280	Cl	0.102095	0.750176	0.703880
H281	H	-0.020970	0.000296	0.204232
H282	H	0.229030	0.250296	0.454232
H283	H	0.479030	0.500296	0.704232
H284	H	0.729030	0.750296	0.954232
H285	H	-0.153080	0.000284	0.206180
H286	H	0.096920	0.250284	0.456180
H287	H	0.346920	0.500284	0.706180
H288	H	0.596920	0.750284	0.956180
H289	H	-0.713281	0.000228	-0.103455
H290	H	-0.463281	0.250228	0.146545
H291	H	-0.213281	0.500228	0.396545
H292	H	0.036719	0.750228	0.646545
H293	H	-0.747914	-0.669499	0.016382
H294	H	-0.497914	-0.419499	0.266382
H295	H	-0.247914	-0.169499	0.516382
H296	H	0.002086	0.080501	0.766382
H297	H	-0.747894	-0.330088	0.016380
H298	H	-0.497894	-0.080088	0.266380
H299	H	-0.247894	0.169912	0.516380
H300	H	0.002106	0.419912	0.766380
H301	H	-0.495885	0.000221	-0.020115
H302	H	-0.245885	0.250221	0.229885
H303	H	0.004115	0.500221	0.479885
H304	H	0.254115	0.750221	0.729885
Cl305	Cl	-0.729185	-0.168780	-0.002339
Cl306	Cl	-0.479185	0.081220	0.247661
Cl307	Cl	-0.229185	0.331220	0.497661
Cl308	Cl	0.020815	0.581220	0.747661
H309	H	-0.901044	-0.186197	0.169668
H310	H	-0.651044	0.063803	0.419668
H311	H	-0.401044	0.313803	0.669668
H312	H	-0.151044	0.563803	0.919668
Cl313	Cl	-0.972597	0.000294	-0.122014
Cl314	Cl	-0.722597	0.250294	0.127986
Cl315	Cl	-0.472597	0.500294	0.377986
Cl316	Cl	-0.222597	0.750294	0.627986
H317	H	-0.901079	-0.669376	0.169676
H318	H	-0.651079	-0.419376	0.419676
H319	H	-0.401079	-0.169376	0.669676
H320	H	-0.151079	0.080624	0.919676
Cl321	Cl	-0.919795	-0.830675	0.188375
Cl322	Cl	-0.669795	-0.580675	0.438375
Cl323	Cl	-0.419795	-0.330675	0.688375
Cl324	Cl	-0.169795	-0.080675	0.938375
Cl325	Cl	-0.970172	0.000296	-0.286380
Cl326	Cl	-0.720172	0.250296	-0.036380
Cl327	Cl	-0.470172	0.500296	0.213620
Cl328	Cl	-0.220172	0.750296	0.463620
Cl329	Cl	-0.729237	-0.830828	-0.002332
Cl330	Cl	-0.479237	-0.580828	0.247668
Cl331	Cl	-0.229237	-0.330828	0.497668
Cl332	Cl	0.020763	-0.080828	0.747668
Cl333	Cl	-0.682920	0.000228	-0.247923
Cl334	Cl	-0.432920	0.250228	0.002077
Cl335	Cl	-0.182920	0.500228	0.252077
Cl336	Cl	0.067080	0.750228	0.502077
H337	H	-0.464982	0.000242	0.210773
H338	H	-0.214982	0.250242	0.460773
H339	H	0.035018	0.500242	0.710773
H340	H	0.285018	0.750242	0.960773
Cl341	Cl	-0.966053	0.000305	-0.566024
Cl342	Cl	-0.716053	0.250305	-0.316024
Cl343	Cl	-0.466053	0.500305	-0.066024
Cl344	Cl	-0.216053	0.750305	0.183976
Cl345	Cl	-0.039523	0.000267	-0.055081
Cl346	Cl	0.210477	0.250267	0.194919
Cl347	Cl	0.460477	0.500267	0.444919
Cl348	Cl	0.710477	0.750267	0.694919
Cl349	Cl	-0.963628	0.000341	-0.730390
Cl350	Cl	-0.713628	0.250341	-0.480390
Cl351	Cl	-0.463628	0.500341	-0.230390
Cl352	Cl	-0.213628	0.750341	0.019610
Cl353	Cl	-0.919751	-0.347498	0.188376
Cl354	Cl	-0.669751	-0.097498	0.438376
Cl355	Cl	-0.419751	0.152502	0.688376
Cl356	Cl	-0.169751	0.402502	0.938376
Cl357	Cl	-0.678796	0.000247	-0.527569
Cl358	Cl	-0.428796	0.250247	-0.277569
Cl359	Cl	-0.178796	0.500247	-0.027569
Cl360	Cl	0.071204	0.750247	0.222431
H361	H	-0.704793	0.000267	-0.679584
H362	H	-0.454793	0.250267	-0.429584
H363	H	-0.204793	0.500267	-0.179584
H364	H	0.045207	0.750267	0.070416
H365	H	-0.183988	0.000256	-0.024715
H366	H	0.066012	0.250256	0.225285
H367	H	0.316012	0.500256	0.475285
H368	H	0.566012	0.750256	0.725285
