data_functionalizedCrystal
_audit_creation_method	'MofGen! by Chris Wilmer'
_symmetry_space_group_name_H-M	'P1'
_symmetry_Int_Tables_number	1
_symmetry_cell_setting	triclinic
loop_
_symmetry_equiv_pos_as_xyz
  x,y,z
_cell_length_a	14.519731
_cell_length_b	14.044190
_cell_length_c	13.596369
_cell_angle_alpha	89.989293
_cell_angle_beta	89.994584
_cell_angle_gamma	88.440315
loop_
_atom_site_label
_atom_site_type_symbol
_atom_site_fract_x
_atom_site_fract_y
_atom_site_fract_z
O1	O	1.233891	0.124370	-0.081805
O2	O	1.483891	0.374370	0.168195
O3	O	1.733891	0.624370	0.418195
O4	O	1.983891	0.874370	0.668195
O5	O	0.966596	0.138983	-0.081808
O6	O	1.216596	0.388983	0.168192
O7	O	1.466596	0.638983	0.418192
O8	O	1.716596	0.888983	0.668192
O9	O	1.096228	-0.006315	-0.081787
O10	O	1.346228	0.243685	0.168213
O11	O	1.596228	0.493685	0.418213
O12	O	1.846228	0.743685	0.668213
O13	O	1.104259	0.269668	-0.081826
O14	O	1.354259	0.519668	0.168174
O15	O	1.604259	0.769668	0.418174
O16	O	1.854259	1.019668	0.668174
O17	O	1.096213	-0.006323	0.081796
O18	O	1.346213	0.243677	0.331796
O19	O	1.596213	0.493677	0.581796
O20	O	1.846213	0.743677	0.831796
O21	O	0.966581	0.138976	0.081775
O22	O	1.216581	0.388976	0.331775
O23	O	1.466581	0.638976	0.581775
O24	O	1.716581	0.888976	0.831775
O25	O	1.233876	0.124362	0.081778
O26	O	1.483876	0.374362	0.331778
O27	O	1.733876	0.624362	0.581778
O28	O	1.983876	0.874362	0.831778
Zn29	Zn	1.100226	0.131668	0.107749
Zn30	Zn	1.350226	0.381668	0.357749
Zn31	Zn	1.600226	0.631668	0.607749
Zn32	Zn	1.850226	0.881668	0.857749
Zn33	Zn	1.100246	0.131678	-0.107779
Zn34	Zn	1.350246	0.381678	0.142221
Zn35	Zn	1.600246	0.631678	0.392221
Zn36	Zn	1.850246	0.881678	0.642221
O37	O	1.104244	0.269661	0.081757
O38	O	1.354244	0.519661	0.331757
O39	O	1.604244	0.769661	0.581757
O40	O	1.854244	1.019661	0.831757
C41	C	0.932174	0.138295	-0.000017
C42	C	1.182174	0.388295	0.249983
C43	C	1.432174	0.638295	0.499983
C44	C	1.682174	0.888295	0.749983
C45	C	0.829628	0.136243	-0.000017
C46	C	1.079628	0.386243	0.249983
C47	C	1.329628	0.636243	0.499983
C48	C	1.579628	0.886243	0.749983
C49	C	0.746349	0.134576	-0.000021
C50	C	0.996349	0.384576	0.249979
C51	C	1.246349	0.634576	0.499979
C52	C	1.496349	0.884576	0.749979
C53	C	0.641872	0.132492	-0.000021
C54	C	0.891872	0.382492	0.249979
C55	C	1.141872	0.632492	0.499979
C56	C	1.391872	0.882492	0.749979
C57	C	0.558600	0.130839	-0.000020
C58	C	0.808600	0.380839	0.249980
C59	C	1.058600	0.630839	0.499980
C60	C	1.308600	0.880839	0.749980
C61	C	0.454117	0.128756	-0.000022
C62	C	0.704117	0.378756	0.249978
C63	C	0.954117	0.628756	0.499978
C64	C	1.204117	0.878756	0.749978
C65	C	1.092707	-0.041640	0.000007
C66	C	1.342707	0.208360	0.250007
C67	C	1.592707	0.458360	0.500007
C68	C	1.842707	0.708360	0.750007
C69	C	1.082228	-0.146884	0.000016
C70	C	1.332228	0.103116	0.250016
C71	C	1.582228	0.353116	0.500016
C72	C	1.832228	0.603116	0.750016
C73	C	1.137393	-0.397073	-0.000022
C74	C	1.387393	-0.147073	0.249978
C75	C	1.637393	0.102927	0.499978
C76	C	1.887393	0.352927	0.749978
C77	C	1.063083	-0.339576	-0.000016
C78	C	1.313083	-0.089576	0.249984
C79	C	1.563083	0.160424	0.499984
C80	C	1.813083	0.410424	0.749984
C81	C	1.073738	-0.232353	0.000001
C82	C	1.323738	0.017647	0.250001
C83	C	1.573738	0.267647	0.500001
C84	C	1.823738	0.517647	0.750001
C85	C	1.126740	-0.504306	-0.000040
C86	C	1.376740	-0.254306	0.249960
C87	C	1.626740	-0.004306	0.499960
C88	C	1.876740	0.245694	0.749960
C89	C	1.268298	0.125051	-0.000016
C90	C	1.518298	0.375051	0.249984
C91	C	1.768298	0.625051	0.499984
C92	C	2.018298	0.875051	0.749984
C93	C	1.370844	0.127102	-0.000022
C94	C	1.620844	0.377102	0.249978
C95	C	1.870844	0.627102	0.499978
C96	C	2.120844	0.877102	0.749978
C97	C	1.107765	0.304985	-0.000039
C98	C	1.357765	0.554985	0.249961
C99	C	1.607765	0.804985	0.499961
C100	C	1.857765	1.054985	0.749961
C101	C	1.118244	0.410230	-0.000054
C102	C	1.368244	0.660230	0.249946
C103	C	1.618244	0.910230	0.499946
C104	C	1.868244	1.160230	0.749946
N105	N	1.100220	0.131660	0.254841
N106	N	1.350220	0.381660	0.504841
N107	N	1.600220	0.631660	0.754841
N108	N	1.850220	0.881660	1.004841
N109	N	1.100259	0.131678	-0.254871
N110	N	1.350259	0.381678	-0.004871
N111	N	1.600259	0.631678	0.245129
N112	N	1.850259	0.881678	0.495129
C113	C	1.100245	0.131679	0.656132
C114	C	1.350245	0.381679	0.906132
C115	C	1.600245	0.631679	1.156132
C116	C	1.850245	0.881679	1.406132
C117	C	1.100235	0.131677	0.544480
C118	C	1.350235	0.381677	0.794480
C119	C	1.600235	0.631677	1.044480
C120	C	1.850235	0.881677	1.294480
C121	C	1.100233	0.131670	0.455490
C122	C	1.350233	0.381670	0.705490
C123	C	1.600233	0.631670	0.955490
C124	C	1.850233	0.881670	1.205490
C125	C	1.100222	0.131667	0.343831
C126	C	1.350222	0.381667	0.593831
C127	C	1.600222	0.631667	0.843831
C128	C	1.850222	0.881667	1.093831
H129	H	0.991463	-0.370878	-0.000023
H130	H	1.241463	-0.120878	0.249977
H131	H	1.491463	0.129122	0.499977
H132	H	1.741463	0.379122	0.749977
H133	H	1.209007	-0.365772	-0.000011
H134	H	1.459007	-0.115772	0.249989
H135	H	1.709007	0.134228	0.499989
H136	H	1.959007	0.384228	0.749989
