data_functionalizedCrystal
_audit_creation_method	'MofGen! by Chris Wilmer'
_symmetry_space_group_name_H-M	'P1'
_symmetry_Int_Tables_number	1
_symmetry_cell_setting	triclinic
loop_
_symmetry_equiv_pos_as_xyz
  x,y,z
_cell_length_a	19.188930
_cell_length_b	19.188940
_cell_length_c	17.666332
_cell_angle_alpha	89.993076
_cell_angle_beta	89.976766
_cell_angle_gamma	83.146747
loop_
_atom_site_label
_atom_site_type_symbol
_atom_site_fract_x
_atom_site_fract_y
_atom_site_fract_z
O1	O	0.926153	0.087168	-0.063192
O2	O	1.426153	0.587168	0.436808
O3	O	0.722842	0.098903	-0.063141
O4	O	1.222842	0.598903	0.436859
O5	O	0.830361	-0.008620	-0.063162
O6	O	1.330361	0.491380	0.436838
O7	O	0.818634	0.194691	-0.063171
O8	O	1.318634	0.694691	0.436829
O9	O	0.830342	-0.008625	0.062735
O10	O	1.330342	0.491375	0.562735
O11	O	0.722823	0.098897	0.062756
O12	O	1.222823	0.598897	0.562756
O13	O	0.926134	0.087163	0.062704
O14	O	1.426134	0.587163	0.562704
Cu15	Cu	0.824477	0.093029	0.074226
Cu16	Cu	1.324477	0.593029	0.574226
Cu17	Cu	0.824499	0.093036	-0.074662
Cu18	Cu	1.324499	0.593036	0.425338
O19	O	0.818615	0.194685	0.062726
O20	O	1.318615	0.694685	0.562726
C21	C	0.696821	0.098520	-0.000186
C22	C	1.196821	0.598520	0.499814
C23	C	0.619317	0.097379	-0.000166
C24	C	1.119317	0.597379	0.499834
C25	C	0.574395	0.160470	-0.000180
C26	C	1.074395	0.660470	0.499820
C27	C	0.501571	0.159398	-0.000188
C28	C	1.001571	0.659398	0.499812
C29	C	0.473672	0.095232	-0.000197
C30	C	0.973672	0.595232	0.499803
C31	C	0.518604	0.032133	-0.000179
C32	C	1.018604	0.532133	0.499821
C33	C	0.591426	0.033207	-0.000163
C34	C	1.091426	0.533207	0.499837
N35	N	0.365697	0.046187	-0.043074
N36	N	0.865697	0.546187	0.456926
N37	N	0.296518	0.045172	-0.043091
N38	N	0.796518	0.545172	0.456909
C39	C	0.254264	0.091994	-0.000244
C40	C	0.754264	0.591994	0.499756
N41	N	0.283800	0.139881	0.042611
N42	N	0.783800	0.639881	0.542611
N43	N	0.352984	0.140898	0.042625
N44	N	0.852984	0.640898	0.542625
C45	C	0.394710	0.094061	-0.000214
C46	C	0.894710	0.594061	0.499786
C47	C	0.130377	0.153927	-0.000266
C48	C	0.630377	0.653927	0.499734
C49	C	0.057553	0.152853	-0.000270
C50	C	0.557553	0.652853	0.499730
C51	C	0.074587	0.025586	-0.000267
C52	C	0.574587	0.525586	0.499733
C53	C	0.147410	0.026662	-0.000256
C54	C	0.647410	0.526662	0.499744
C55	C	0.175301	0.090835	-0.000259
C56	C	0.675301	0.590835	0.499741
C57	C	0.829970	-0.034633	-0.000214
C58	C	1.329970	0.465367	0.499786
C59	C	0.828827	-0.112138	-0.000214
C60	C	1.328827	0.387862	0.499786
C61	C	0.820682	-0.665400	0.068397
C62	C	1.320682	-0.165400	0.568397
C63	C	0.821749	-0.592575	0.068401
C64	C	1.321749	-0.092575	0.568401
C65	C	0.822296	-0.556153	-0.000225
C66	C	1.322296	-0.056153	0.499775
C67	C	0.821758	-0.592558	-0.068860
C68	C	1.321758	-0.092558	0.431140
C69	C	0.820684	-0.665380	-0.068862
C70	C	1.320684	-0.165380	0.431138
N71	N	0.863720	-0.447127	-0.051315
N72	N	1.363720	0.052873	0.448685
N73	N	0.864741	-0.377949	-0.051308
N74	N	1.364741	0.122051	0.448692
C75	C	0.825530	-0.336744	-0.000223
C76	C	1.325530	0.163256	0.499777
N77	N	0.785267	-0.367331	0.050867
N78	N	1.285267	0.132669	0.550867
N79	N	0.784248	-0.436515	0.050862
N80	N	1.284248	0.063485	0.550862
C81	C	0.823460	-0.477189	-0.000231
C82	C	1.323460	0.022811	0.499769
C83	C	0.827219	-0.221382	0.068411
C84	C	1.327219	0.278618	0.568411
C85	C	0.828281	-0.148555	0.068412
C86	C	1.328281	0.351445	0.568412
C87	C	0.828298	-0.148540	-0.068850
C88	C	1.328298	0.351460	0.431150
C89	C	0.827228	-0.221364	-0.068849
C90	C	1.327228	0.278636	0.431151
C91	C	0.826692	-0.257781	-0.000216
C92	C	1.326692	0.242219	0.499784
C93	C	0.952154	0.087546	-0.000252
C94	C	1.452154	0.587546	0.499748
C95	C	1.029659	0.088686	-0.000277
C96	C	1.529659	0.588686	0.499723
C97	C	0.819005	0.220699	-0.000224
C98	C	1.319005	0.720699	0.499776
C99	C	0.820148	0.298203	-0.000229
C100	C	1.320148	0.798203	0.499771
N101	N	0.824466	0.093024	0.178945
N102	N	1.324466	0.593024	0.678945
N103	N	0.824515	0.093036	-0.179381
N104	N	1.324515	0.593036	0.320619
C105	C	0.872091	0.045437	0.218545
C106	C	1.372091	0.545437	0.718545
C107	C	0.872095	0.045433	0.297793
C108	C	1.372095	0.545433	0.797793
C109	C	0.824481	0.093029	0.337437
C110	C	1.324481	0.593029	0.837437
C111	C	0.776847	0.140621	0.297828
C112	C	1.276847	0.640621	0.797828
C113	C	0.776840	0.140618	0.218581
C114	C	1.276840	0.640618	0.718581
N115	N	0.815407	0.154836	0.461855
N116	N	1.315407	0.654836	0.961855
N117	N	0.815418	0.154837	0.537135
N118	N	1.315418	0.654837	1.037135
C119	C	0.824499	0.093039	0.576201
C120	C	1.324499	0.593039	1.076201
N121	N	0.833583	0.031239	0.537143
N122	N	1.333583	0.531239	1.037143
N123	N	0.833575	0.031240	0.461856
N124	N	1.333575	0.531240	0.961856
C125	C	0.824483	0.093037	0.423366
C126	C	1.324483	0.593037	0.923366
C127	C	0.872131	0.045444	0.701731
C128	C	1.372131	0.545444	1.201731
C129	C	0.872130	0.045440	0.780980
C130	C	1.372130	0.545440	1.280980
C131	C	0.776886	0.140633	0.781013
C132	C	1.276886	0.640633	1.281013
C133	C	0.776883	0.140632	0.701765
C134	C	1.276883	0.640632	1.201765
C135	C	0.824510	0.093038	0.662129
C136	C	1.324510	0.593038	1.162129
H137	H	0.153087	0.206180	-0.000257
H138	H	0.653087	0.706180	0.499743
N139	N	0.923452	-0.005900	0.175795
N140	N	1.423452	0.494100	0.675795
H141	H	0.954279	0.020705	0.142895
H142	H	1.454279	0.520705	0.642895
H143	H	0.953575	-0.036034	0.212960
H144	H	1.453575	0.463966	0.712960
H145	H	0.910909	0.006688	0.669458
H146	H	1.410909	0.506688	1.169458
H147	H	0.828714	-0.118922	0.124298
H148	H	1.328714	0.381078	0.624298
H149	H	0.464989	0.210775	-0.000198
H150	H	0.964989	0.710775	0.499802
H151	H	0.738115	0.179384	0.813291
H152	H	1.238115	0.679384	1.313291
N153	N	0.488510	-0.037071	-0.000190
N154	N	0.988510	0.462929	0.499810
H155	H	0.504933	-0.064702	-0.046855
H156	H	1.004933	0.435298	0.453145
H157	H	0.504885	-0.064648	0.046516
H158	H	1.004885	0.435352	0.546516
N159	N	0.820090	-0.704667	0.142424
N160	N	1.320090	-0.204667	0.642424
H161	H	0.776370	-0.729086	0.145495
H162	H	1.276370	-0.229086	0.645495
H163	H	0.862942	-0.740638	0.145434
H164	H	1.362942	-0.240638	0.645434
N165	N	0.923462	-0.005897	0.340518
N166	N	1.423462	0.494103	0.840518
H167	H	0.953630	-0.036048	0.303383
H168	H	1.453630	0.463952	0.803383
H169	H	0.954243	0.020764	0.373375
H170	H	1.454243	0.520764	0.873375
N171	N	0.820120	-0.704642	-0.142884
N172	N	1.320120	-0.204642	0.357116
H173	H	0.819361	-0.756301	-0.132471
H174	H	1.319361	-0.256301	0.367529
H175	H	0.777038	-0.686122	-0.172841
H176	H	1.277038	-0.186122	0.327159
H177	H	0.828734	-0.118885	-0.124726
H178	H	1.328734	0.381115	0.375274
H179	H	0.826777	-0.251033	0.124296
H180	H	1.326777	0.248967	0.624296
H181	H	0.910910	0.006684	0.813223
H182	H	1.410910	0.506684	1.313223
H183	H	0.020977	0.204231	-0.000277
H184	H	0.520977	0.704231	0.499723
H185	H	0.051873	-0.026659	-0.000321
H186	H	0.551873	0.473341	0.499679
N187	N	0.195867	-0.041386	-0.000240
N188	N	0.695867	0.458614	0.499760
H189	H	0.167146	-0.082199	-0.000246
H190	H	0.667146	0.417801	0.499754
H191	H	0.226480	-0.043712	-0.046904
H192	H	0.726480	0.456288	0.453096
H193	H	0.822171	-0.562933	0.124285
H194	H	1.322171	-0.062933	0.624285
N195	N	0.822286	-0.553271	-0.142878
N196	N	1.322286	-0.053271	0.357122
H197	H	0.823030	-0.501612	-0.132464
H198	H	1.323030	-0.001612	0.367536
H199	H	0.865354	-0.571763	-0.172906
H200	H	1.365354	-0.071763	0.327094
N201	N	0.725516	0.191958	0.659048
N202	N	1.225516	0.691958	1.159048
H203	H	0.695351	0.222110	0.696185
H204	H	1.195351	0.722110	1.196185
H205	H	0.752143	0.222760	0.626146
H206	H	1.252143	0.722760	1.126146
N207	N	0.826717	-0.260636	-0.142867
N208	N	1.326717	0.239364	0.357133
H209	H	0.827246	-0.226517	-0.186342
H210	H	1.327246	0.273483	0.313658
H211	H	0.869565	-0.296619	-0.145823
H212	H	1.369565	0.203381	0.354177
H213	H	0.628002	-0.018171	-0.000151
H214	H	1.128002	0.481829	0.499849
H215	H	0.738078	0.179373	0.330110
H216	H	1.238078	0.679373	0.830110
N217	N	0.725468	0.191949	0.175871
N218	N	1.225468	0.691949	0.675871
H219	H	0.733354	0.241484	0.189650
H220	H	1.233354	0.741484	0.689650
H221	H	0.732713	0.184666	0.119667
H222	H	1.232713	0.684666	0.619667
N223	N	0.604477	0.229681	-0.000189
N224	N	1.104477	0.729681	0.499811
H225	H	0.564965	0.269486	-0.000201
H226	H	1.064965	0.769486	0.499799
H227	H	0.634296	0.232903	0.046487
H228	H	1.134296	0.732903	0.546487
