data_functionalizedCrystal
_audit_creation_method	'MofGen! by Chris Wilmer'
_symmetry_space_group_name_H-M	'P1'
_symmetry_Int_Tables_number	1
_symmetry_cell_setting	triclinic
loop_
_symmetry_equiv_pos_as_xyz
  x,y,z
_cell_length_a	24.447405
_cell_length_b	24.446649
_cell_length_c	24.443239
_cell_angle_alpha	60.006064
_cell_angle_beta	60.011844
_cell_angle_gamma	59.992812
loop_
_atom_site_label
_atom_site_type_symbol
_atom_site_fract_x
_atom_site_fract_y
_atom_site_fract_z
O1	O	0.075907	-0.799232	0.668277
O2	O	0.028634	-0.622262	0.538455
O3	O	0.140702	-0.734230	0.538349
O4	O	-0.036160	-0.687265	0.668384
O5	O	0.177886	-0.697056	0.575424
O6	O	0.065818	-0.585088	0.575530
O7	O	0.113091	-0.762059	0.705353
Cu8	Cu	0.092850	-0.670179	0.643827
Cu9	Cu	0.048876	-0.714142	0.599981
O10	O	0.001024	-0.650091	0.705459
N11	N	0.123780	-0.639263	0.674669
N12	N	0.017951	-0.745064	0.569139
C13	C	0.170236	-0.489965	0.721065
C14	C	0.170249	-0.592837	0.721058
C15	C	0.195989	-0.567121	0.746758
C16	C	0.308182	-0.547773	0.687664
C17	C	0.378316	-0.571143	0.664253
C18	C	0.378353	-0.684626	0.707525
C19	C	0.308220	-0.661254	0.730938
C20	C	0.187125	-0.454882	0.652117
C21	C	0.163710	-0.384741	0.628763
C22	C	0.106523	-0.384772	0.743308
C23	C	0.129938	-0.454913	0.766662
C24	C	0.101291	-0.575906	0.738041
C25	C	0.077897	-0.599283	0.714670
C26	C	0.192412	-0.656523	0.657348
C27	C	0.215809	-0.633146	0.680711
C28	C	0.101393	-0.575928	0.859014
C29	C	0.078071	-0.599328	0.929152
C30	C	0.192636	-0.656582	0.929078
C31	C	0.215955	-0.633184	0.858938
C32	C	0.170332	-0.592855	0.823908
C33	C	0.273137	-0.592827	0.721004
C34	C	-0.131205	-0.791294	0.522327
C35	C	-0.028388	-0.791420	0.522551
C36	C	-0.054056	-0.817099	0.496741
C37	C	-0.073479	-0.929255	0.555734
C38	C	-0.050156	-0.999396	0.579142
C39	C	0.063326	-0.999525	0.536064
C40	C	0.040001	-0.929386	0.512654
C41	C	-0.166365	-0.808188	0.591256
C42	C	-0.236499	-0.784726	0.614512
C43	C	-0.236309	-0.727482	0.499907
C44	C	-0.166175	-0.750944	0.476651
C45	C	-0.045285	-0.722468	0.505590
C46	C	-0.021951	-0.699130	0.529061
C47	C	0.035176	-0.813691	0.586439
C48	C	0.011842	-0.837031	0.562976
C49	C	-0.045097	-0.722476	0.384488
C50	C	-0.021613	-0.699140	0.314350
C51	C	0.035607	-0.813706	0.314419
C52	C	0.012124	-0.837041	0.384558
C53	C	-0.028229	-0.791425	0.419591
C54	C	-0.028402	-0.894253	0.522492
N55	N	0.412405	-0.639229	0.674505
O56	O	0.626552	-0.645384	0.514503
O57	O	0.626802	-0.775625	0.691288
O58	O	0.626698	-0.775326	0.579168
O59	O	0.626656	-0.645683	0.626623
O60	O	0.515277	-0.738265	0.616407
O61	O	0.515382	-0.738564	0.728527
O62	O	0.515131	-0.608323	0.551742
Cu63	Cu	0.505083	-0.670059	0.643535
Cu64	Cu	0.636850	-0.713889	0.599495
O65	O	0.515236	-0.608622	0.663862
N66	N	0.729529	-0.744719	0.568518
N67	N	0.123755	-0.350686	0.674680
O68	O	-0.036153	-0.136410	0.668391
O69	O	0.140633	-0.136380	0.538141
O70	O	0.028472	-0.136412	0.538488
O71	O	0.076007	-0.136377	0.668044
O72	O	0.065663	-0.247842	0.575621
O73	O	0.177823	-0.247810	0.575274
O74	O	0.001037	-0.247840	0.705524
Cu75	Cu	0.092826	-0.258000	0.643789
Cu76	Cu	0.048844	-0.126220	0.599875
O77	O	0.113198	-0.247808	0.705177
N78	N	0.017907	-0.033534	0.568986
N79	N	0.124013	-0.639306	0.963182
O80	O	0.117754	-0.799195	1.177439
O81	O	-0.012458	-0.622342	1.177485
O82	O	-0.012155	-0.734480	1.177444
O83	O	0.117450	-0.687057	1.177480
O84	O	0.024954	-0.697317	1.066020
O85	O	0.024650	-0.585179	1.066061
O86	O	0.154862	-0.762032	1.066014
Cu87	Cu	0.093145	-0.670212	1.055863
Cu88	Cu	0.049259	-0.714162	1.187636
O89	O	0.154559	-0.649894	1.066055
N90	N	0.018389	-0.745075	1.280318
C91	C	0.042795	-0.581375	0.539107
C92	C	0.181576	-0.720034	0.538975
C93	C	0.098930	-0.802946	0.704700
C94	C	-0.039851	-0.664287	0.704832
C95	C	0.571122	-0.775030	0.732180
C96	C	0.570995	-0.774660	0.593332
C97	C	0.570808	-0.608917	0.510851
C98	C	0.570939	-0.609288	0.649698
C99	C	0.181453	-0.191954	0.538725
C100	C	0.042602	-0.192131	0.539201
C101	C	-0.039829	-0.192128	0.704893
C102	C	0.099069	-0.192090	0.704464
C103	C	-0.011836	-0.581480	1.121779
C104	C	-0.011453	-0.720342	1.121706
C105	C	0.154240	-0.802894	1.121720
C106	C	0.153865	-0.664024	1.121769
H107	H	0.064236	-0.543084	0.830495
H108	H	0.194582	-0.653876	1.121771
O109	O	-0.100423	-0.652473	0.753613
C110	C	-0.169128	-0.696573	0.866577
C111	C	-0.100507	-0.710047	0.811388
H112	H	-0.169214	-0.743108	0.913306
H113	H	-0.210053	-0.683893	0.848174
H114	H	-0.178905	-0.652718	0.879121
H115	H	-0.090666	-0.753910	0.798819
H116	H	-0.059620	-0.722688	0.829820
O117	O	0.030629	-0.520703	0.490523
C118	C	-0.048868	-0.410396	0.459728
C119	C	-0.035184	-0.479081	0.514802
H120	H	-0.102072	-0.376721	0.479342
H121	H	-0.042918	-0.417324	0.414029
H122	H	-0.011716	-0.386279	0.445051
H123	H	-0.072323	-0.503236	0.529536
H124	H	-0.041110	-0.472110	0.560465
O125	O	0.242124	-0.731978	0.490196
C126	C	0.301971	-0.737956	0.378514
C127	C	0.233361	-0.724428	0.433704
H128	H	0.294908	-0.731843	0.332822
H129	H	0.335728	-0.791181	0.397954
H130	H	0.326069	-0.700810	0.363894
H131	H	0.209204	-0.761532	0.448347
H132	H	0.199651	-0.671185	0.414233
H133	H	0.229790	-0.689406	0.957592
O134	O	0.571233	-0.823748	0.792778
C135	C	0.571304	-0.854886	0.903137
C136	C	0.571194	-0.799660	0.834536
H137	H	0.571258	-0.835426	0.936923
H138	H	0.617971	-0.900562	0.896101
H139	H	0.524712	-0.869543	0.927190
H140	H	0.617754	-0.784946	0.810446
H141	H	0.524496	-0.754020	0.841616
H142	H	0.021932	-0.585534	0.957726
O143	O	0.570955	-0.560637	0.661685
C144	C	0.570810	-0.447711	0.617890
C145	C	0.570806	-0.502753	0.604221
H146	H	0.570676	-0.400894	0.571445
H147	H	0.617482	-0.466210	0.630570
H148	H	0.524223	-0.435266	0.661801
H149	H	0.617362	-0.515222	0.560302
H150	H	0.524104	-0.484224	0.591581
O151	O	0.241921	-0.191541	0.489880
C152	C	0.352118	-0.191005	0.458525
C153	C	0.283663	-0.191457	0.513895
H154	H	0.385890	-0.190951	0.477925
H155	H	0.344823	-0.144259	0.412982
H156	H	0.376334	-0.237525	0.443688
H157	H	0.259410	-0.144969	0.528789
H158	H	0.291001	-0.238234	0.559401
H159	H	-0.090599	-0.192138	0.745784
O160	O	-0.059986	-0.732529	1.121726
C161	C	-0.130445	-0.800467	1.179362
C162	C	-0.075469	-0.786747	1.179415
H163	H	-0.142990	-0.844293	1.226006
H164	H	-0.111865	-0.813258	1.132737
H165	H	-0.177218	-0.753967	1.179323
H166	H	-0.028677	-0.833224	1.179477
H167	H	-0.094104	-0.773927	1.226036
O168	O	0.282949	-0.649669	0.824942
C169	C	0.394119	-0.708961	0.832275
C170	C	0.318269	-0.690329	0.870857
H171	H	0.422697	-0.741849	0.869380
H172	H	0.407937	-0.661384	0.799457
H173	H	0.407876	-0.737482	0.799417
H174	H	0.304457	-0.661825	0.903751
H175	H	0.304491	-0.737931	0.903632
O176	O	0.111074	-0.863640	0.753262
C177	C	0.190596	-0.973922	0.784082
C178	C	0.176927	-0.905222	0.729022
H179	H	0.243841	-1.007556	0.764509
H180	H	0.153515	-0.998115	0.798739
H181	H	0.184559	-0.966936	0.829784
H182	H	0.182972	-0.912150	0.683284
H183	H	0.214005	-0.881053	0.714422
H184	H	0.032420	-0.192135	0.498498
O185	O	0.056943	-0.536731	0.777198
C186	C	-0.059112	-0.482453	0.831620
C187	C	-0.008961	-0.526810	0.787253
H188	H	-0.112407	-0.474430	0.839774
H189	H	-0.051104	-0.431971	0.805936
H190	H	-0.050947	-0.508164	0.882038
H191	H	-0.017096	-0.501158	0.736827
H192	H	-0.016981	-0.577290	0.812989
O193	O	0.570924	-0.823272	0.581331
C194	C	0.513248	-0.896388	0.613556
C195	C	0.513253	-0.841349	0.627228
H196	H	0.466620	-0.911010	0.650646
H197	H	0.559885	-0.942129	0.619539
H198	H	0.513219	-0.876735	0.560319
H199	H	0.513260	-0.860939	0.680462
H200	H	0.466621	-0.795618	0.621200
H201	H	0.570727	-0.568026	0.460082
H202	H	0.109248	-0.192079	0.745165
H203	H	0.195123	-0.853684	1.121698
O204	O	0.010918	-0.582760	0.731050
C205	C	-0.082000	-0.528826	0.690819
C206	C	-0.006141	-0.547483	0.672175
H207	H	-0.095813	-0.500313	0.643229
H208	H	-0.110577	-0.495965	0.723639
H209	H	-0.095761	-0.576436	0.719399
H210	H	0.007682	-0.499910	0.643572
H211	H	0.022394	-0.580369	0.639387
O212	O	0.236706	-0.695576	0.618062
C213	C	0.327424	-0.704502	0.514819
C214	C	0.277279	-0.660203	0.559243
H215	H	0.360250	-0.675926	0.467261
H216	H	0.298910	-0.718297	0.500964
H217	H	0.360268	-0.752105	0.543373
H218	H	0.244423	-0.612572	0.530730
H219	H	0.305835	-0.646462	0.573101
O220	O	0.274280	-0.705109	0.763283
C221	C	0.281721	-0.820141	0.803763
C222	C	0.320241	-0.770547	0.767106
H223	H	0.318864	-0.873060	0.806878
H224	H	0.248873	-0.806112	0.775110
H225	H	0.248902	-0.817966	0.856487
H226	H	0.353097	-0.772695	0.714381
H227	H	0.353048	-0.784592	0.795810
O228	O	0.412328	-0.527334	0.631764
C229	C	0.433683	-0.430079	0.537254
C230	C	0.395134	-0.479656	0.573973
H231	H	0.419784	-0.391510	0.490530
H232	H	0.489844	-0.458495	0.522173
H233	H	0.419923	-0.403501	0.571908
H234	H	0.408838	-0.506247	0.539356
H235	H	0.338982	-0.451203	0.589064
O236	O	0.274031	-0.481330	0.678133
C237	C	0.194901	-0.396464	0.729829
C238	C	0.233524	-0.471732	0.740719
H239	H	0.162152	-0.388679	0.780421
H240	H	0.161987	-0.376693	0.699050
H241	H	0.232013	-0.368290	0.701949
H242	H	0.196460	-0.499960	0.768617
H243	H	0.266447	-0.491451	0.771470
O244	O	0.226234	-0.488829	0.607736
C245	C	0.280503	-0.481395	0.491655
C246	C	0.236195	-0.442867	0.541846
H247	H	0.288582	-0.444252	0.438372
H248	H	0.254816	-0.514220	0.499703
H249	H	0.330957	-0.514245	0.499740
H250	H	0.185733	-0.409982	0.533791
H251	H	0.261934	-0.410085	0.533785
H252	H	0.271959	-0.646925	0.666876
H253	H	-0.052716	-0.530687	1.121793
O254	O	0.113496	-0.488893	0.833665
C255	C	0.054268	-0.481525	0.944817
C256	C	0.072852	-0.442961	0.868958
H257	H	0.021393	-0.444406	0.973373
H258	H	0.101860	-0.514340	0.958633
H259	H	0.025752	-0.514389	0.958604
H260	H	0.101351	-0.410061	0.855116
H261	H	0.025235	-0.410189	0.855182
O262	O	-0.038097	-0.632137	0.280361
C263	C	-0.097310	-0.520968	0.287702
C264	C	-0.078707	-0.596829	0.326279
H265	H	-0.130134	-0.492400	0.324810
H266	H	-0.125839	-0.507101	0.254802
H267	H	-0.049682	-0.507245	0.254927
H268	H	-0.126299	-0.610606	0.359091
H269	H	-0.050152	-0.610656	0.359137
H270	H	0.177459	-0.356175	0.572617
O271	O	0.074812	-0.858110	0.280497
C272	C	0.129040	-0.974210	0.287978
C273	C	0.084646	-0.923994	0.326477
H274	H	0.136992	-1.027488	0.325136
H275	H	0.179546	-0.966251	0.255245
H276	H	0.103404	-0.966060	0.255043
H277	H	0.110222	-0.932114	0.359449
H278	H	0.034142	-0.931965	0.359168
O279	O	-0.084384	-0.678070	0.466357
C280	C	-0.138555	-0.561975	0.411892
C281	C	-0.094284	-0.612183	0.456344
H282	H	-0.146562	-0.508695	0.403771
H283	H	-0.189046	-0.569944	0.437488
H284	H	-0.112790	-0.570125	0.361465
H285	H	-0.119990	-0.604063	0.506778
H286	H	-0.043796	-0.604202	0.430695
O287	O	0.028342	-0.904033	0.579483
C288	C	0.087436	-1.015204	0.638900
C289	C	0.068811	-0.939345	0.620246
H290	H	0.120147	-1.043776	0.671871
H291	H	0.116092	-1.029077	0.591340
H292	H	0.039811	-1.028920	0.667338
H293	H	0.116402	-0.925575	0.591825
H294	H	0.040130	-0.925514	0.667831
O295	O	0.083878	-0.895487	0.480402
C296	C	0.198904	-0.903021	0.440110
C297	C	0.149285	-0.941493	0.476662
H298	H	0.251798	-0.940200	0.437062
H299	H	0.184846	-0.870195	0.468799
H300	H	0.196803	-0.870177	0.387361
H301	H	0.151360	-0.974373	0.529412
H302	H	0.163360	-0.974277	0.447922
H303	H	0.406920	-0.740344	0.715602
H304	H	-0.077958	-0.685325	0.413008
O305	O	-0.094033	-1.033292	0.611402
C306	C	-0.176530	-1.054639	0.605112
C307	C	-0.126851	-1.016218	0.568468
H308	H	-0.203067	-1.040859	0.570411
H309	H	-0.215115	-1.040735	0.651824
H310	H	-0.148144	-1.110811	0.620219
H311	H	-0.155179	-0.960037	0.553316
H312	H	-0.088267	-1.030177	0.521786
O313	O	-0.139895	-0.895048	0.565161
C314	C	-0.224619	-0.815813	0.513290
C315	C	-0.149383	-0.854507	0.502525
H316	H	-0.232315	-0.783037	0.462658
H317	H	-0.244419	-0.782915	0.544092
H318	H	-0.252829	-0.852885	0.541098
H319	H	-0.121118	-0.817483	0.474700
H320	H	-0.129634	-0.887415	0.471751
H321	H	0.025866	-0.893188	0.413136
O322	O	-0.132497	-0.847351	0.635713
C323	C	-0.140088	-0.901679	0.751842
C324	C	-0.178525	-0.857308	0.701566
H325	H	-0.177285	-0.909755	0.805095
H326	H	-0.107267	-0.876040	0.743886
H327	H	-0.107249	-0.952135	0.743760
H328	H	-0.211401	-0.806844	0.709618
H329	H	-0.211304	-0.883000	0.709534
H330	H	0.073721	-0.356231	0.780438
H331	H	-0.035712	-0.642984	0.515253
H332	H	0.119026	-1.028132	0.528057
O333	O	-0.270317	-0.688383	0.455570
C334	C	-0.349447	-0.675768	0.415336
C335	C	-0.310963	-0.720124	0.465572
H336	H	-0.382330	-0.701406	0.423414
H337	H	-0.312303	-0.667741	0.362056
H338	H	-0.382233	-0.625289	0.423378
H339	H	-0.278176	-0.770628	0.457591
H340	H	-0.348143	-0.728096	0.518834
O341	O	-0.132045	-0.734618	0.409683
C342	C	-0.110456	-0.739957	0.304581
C343	C	-0.149138	-0.758502	0.380412
H344	H	-0.124273	-0.759247	0.280890
H345	H	-0.054315	-0.763677	0.295767
H346	H	-0.124180	-0.683169	0.280937
H347	H	-0.135471	-0.815280	0.404106
H348	H	-0.205269	-0.734734	0.389179
H349	H	-0.265127	-0.798479	0.670643
H350	H	0.067938	-0.850836	0.619346
