data_functionalizedCrystal
_audit_creation_method	'MofGen! by Chris Wilmer'
_symmetry_space_group_name_H-M	'P1'
_symmetry_Int_Tables_number	1
_symmetry_cell_setting	triclinic
loop_
_symmetry_equiv_pos_as_xyz
  x,y,z
_cell_length_a	15.944551
_cell_length_b	19.288865
_cell_length_c	18.366186
_cell_angle_alpha	89.988521
_cell_angle_beta	89.995445
_cell_angle_gamma	83.317493
loop_
_atom_site_label
_atom_site_type_symbol
_atom_site_fract_x
_atom_site_fract_y
_atom_site_fract_z
O1	O	1.114185	0.089583	-0.060482
O2	O	0.869592	0.100628	-0.060501
O3	O	0.998956	-0.006006	-0.060477
O4	O	0.984821	0.196217	-0.060507
O5	O	0.998934	-0.006012	0.060622
O6	O	0.869570	0.100622	0.060598
O7	O	1.114163	0.089578	0.060617
Zn8	Zn	0.991863	0.095099	0.079835
Zn9	Zn	0.991892	0.095106	-0.079719
O10	O	0.984799	0.196212	0.060593
C11	C	0.998490	-0.031887	0.000075
C12	C	0.997125	-0.108994	0.000081
C13	C	0.838289	0.100167	0.000046
C14	C	0.745048	0.098792	0.000039
C15	C	1.073030	-0.153490	0.000091
C16	C	1.071747	-0.225941	0.000079
C17	C	0.994555	-0.253891	0.000073
C18	C	0.918641	-0.209385	0.000059
C19	C	0.919925	-0.136936	0.000063
C20	C	0.933866	-0.362341	0.042486
C21	C	0.932584	-0.434788	0.042486
C22	C	0.990589	-0.477347	0.000056
C23	C	1.049890	-0.447451	-0.042365
C24	C	1.051175	-0.375003	-0.042361
C25	C	0.993153	-0.332449	0.000067
C26	C	1.065108	-0.600404	0.000052
C27	C	1.063822	-0.672855	0.000036
C28	C	0.910714	-0.656298	0.000023
C29	C	0.912002	-0.583848	0.000032
C30	C	0.989201	-0.555906	0.000050
C31	C	0.530459	0.029410	0.000064
C32	C	0.469326	0.061631	-0.059649
C33	C	0.574332	0.096305	0.000048
C34	C	0.469326	0.061642	0.059745
C35	C	0.409429	0.093898	0.000060
C36	C	0.514427	0.128545	-0.059714
C37	C	0.514434	0.128546	0.059734
C38	C	0.453318	0.160816	0.000006
C39	C	0.669329	0.097690	0.000041
C40	C	0.314433	0.092519	0.000062
C41	C	1.145466	0.090039	0.000068
C42	C	1.238706	0.091414	0.000070
C43	C	0.985265	0.222092	0.000039
C44	C	0.986630	0.299199	0.000028
N45	N	0.991849	0.095094	0.188726
N46	N	0.991912	0.095106	-0.188610
C47	C	1.049150	0.047900	0.226837
C48	C	1.049156	0.047897	0.303065
C49	C	0.991868	0.095100	0.341178
C50	C	0.934556	0.142298	0.303058
C51	C	0.934547	0.142295	0.226832
C52	C	0.980624	0.158358	0.461929
C53	C	0.980639	0.158362	0.538154
C54	C	0.991892	0.095109	0.576286
C55	C	1.003148	0.031849	0.538184
C56	C	1.003138	0.031846	0.461957
C57	C	0.991871	0.095108	0.423833
C58	C	1.049202	0.047907	0.697052
C59	C	1.049201	0.047903	0.773281
C60	C	0.934606	0.142310	0.773273
C61	C	0.934603	0.142308	0.697045
C62	C	0.991905	0.095107	0.658939
H63	H	1.133560	-0.262177	0.000084
H64	H	0.858113	-0.100707	0.000056
O65	O	0.540964	0.165983	0.126596
H66	H	0.484499	0.183179	0.160201
H67	H	0.419945	0.216391	-0.000035
O68	O	0.872745	0.193198	0.185714
H69	H	0.883240	0.247354	0.200321
O70	O	1.148369	-0.570259	0.000063
H71	H	1.152619	-0.537629	-0.049289
H72	H	0.887946	0.180741	0.666013
H73	H	1.012310	-0.019658	0.569229
O74	O	0.442856	0.024154	0.126621
H75	H	0.474069	-0.030370	0.126498
H76	H	0.534315	0.156820	-0.110252
H77	H	0.449334	0.033339	-0.110125
H78	H	1.095807	0.009465	0.195813
O79	O	0.830129	-0.535853	0.000029
H80	H	0.843990	-0.480780	0.000028
H81	H	0.971479	0.209872	0.569171
O82	O	0.574829	-0.044152	0.000026
H83	H	0.556876	-0.071758	-0.049602
H84	H	0.884294	-0.459123	0.077024
O85	O	1.110969	-0.003000	0.344185
H86	H	1.150817	-0.035817	0.304881
H87	H	1.012301	-0.019662	0.430938
O88	O	1.110991	-0.003007	0.655943
H89	H	1.150828	-0.035835	0.695255
O90	O	0.968483	0.226581	0.420795
H91	H	1.019715	0.258374	0.435397
H92	H	1.095860	0.009468	0.804312
H93	H	0.887911	0.180730	0.334094
O94	O	1.156291	-0.123350	0.000090
H95	H	1.208857	-0.166468	0.000084
O96	O	1.115117	-0.342752	-0.088123
H97	H	1.155233	-0.384511	-0.117636
O98	O	1.112456	-0.493341	-0.088140
H99	H	1.101595	-0.548741	-0.081027
O100	O	0.872819	0.193237	0.814359
H101	H	0.832106	0.163992	0.849109
O102	O	1.145695	-0.720854	0.000052
H103	H	1.199588	-0.689248	0.000074
H104	H	0.886629	-0.327694	0.077042
O105	O	0.827453	-0.686432	0.000019
H106	H	0.839310	-0.744287	0.000023
H107	H	0.855790	-0.232147	0.000052
