data_functionalizedCrystal
_audit_creation_method	'MofGen! by Chris Wilmer'
_symmetry_space_group_name_H-M	'P1'
_symmetry_Int_Tables_number	1
_symmetry_cell_setting	triclinic
loop_
_symmetry_equiv_pos_as_xyz
  x,y,z
_cell_length_a	10.723024
_cell_length_b	15.944551
_cell_length_c	9.198806
_cell_angle_alpha	89.995864
_cell_angle_beta	89.996352
_cell_angle_gamma	83.983304
loop_
_atom_site_label
_atom_site_type_symbol
_atom_site_fract_x
_atom_site_fract_y
_atom_site_fract_z
O1	O	1.655699	0.117808	-0.120886
O2	O	2.155699	0.617808	0.379114
O3	O	1.292405	0.129085	-0.120892
O4	O	1.792405	0.629085	0.379108
O5	O	1.483973	0.001228	-0.120876
O6	O	1.983973	0.501228	0.379124
O7	O	1.464131	0.245664	-0.120902
O8	O	1.964131	0.745664	0.379098
O9	O	1.483958	0.001228	0.120909
O10	O	1.983958	0.501228	0.620909
O11	O	1.292389	0.129084	0.120893
O12	O	1.792389	0.629084	0.620893
O13	O	1.655684	0.117808	0.120899
O14	O	2.155684	0.617808	0.620899
Cu15	Cu	1.474035	0.123446	0.142973
Cu16	Cu	1.974035	0.623446	0.642973
Cu17	Cu	1.474053	0.123446	-0.142966
Cu18	Cu	1.974053	0.623446	0.357034
O19	O	1.464116	0.245664	0.120883
O20	O	1.964116	0.745664	0.620883
C21	C	1.245908	0.128264	0.000000
C22	C	1.745908	0.628264	0.500000
C23	C	1.107384	0.125809	-0.000001
C24	C	1.607384	0.625809	0.499999
C25	C	1.031498	0.197350	-0.000010
C26	C	1.531498	0.697350	0.499990
C27	C	0.888327	0.194814	-0.000012
C28	C	1.388327	0.694814	0.499988
C29	C	1.483141	-0.030070	0.000017
C30	C	1.983141	0.469930	0.500017
C31	C	1.480672	-0.123331	0.000018
C32	C	1.980672	0.376669	0.500018
C33	C	1.356026	-0.338901	-0.000004
C34	C	1.856026	0.161099	0.499996
C35	C	1.413900	-0.399587	0.119211
C36	C	1.913900	0.100413	0.619211
C37	C	1.476205	-0.294082	0.000006
C38	C	1.976205	0.205918	0.500006
C39	C	1.413944	-0.399570	-0.119170
C40	C	1.913944	0.100430	0.380830
C41	C	1.471880	-0.459020	-0.000011
C42	C	1.971880	0.040980	0.499989
C43	C	1.534111	-0.353540	0.119320
C44	C	2.034111	0.146460	0.619320
C45	C	1.534138	-0.353516	-0.119168
C46	C	2.034138	0.146484	0.380832
C47	C	1.592099	-0.414184	0.000077
C48	C	2.092099	0.085816	0.500077
C49	C	1.478692	-0.199066	0.000018
C50	C	1.978692	0.300934	0.500018
C51	C	1.469402	-0.554035	-0.000011
C52	C	1.969402	-0.054035	0.499989
C53	C	1.702181	0.118629	0.000003
C54	C	2.202181	0.618629	0.500003
C55	C	1.840704	0.121084	-0.000005
C56	C	2.340704	0.621084	0.499995
C57	C	1.464947	0.276963	-0.000013
C58	C	1.964947	0.776963	0.499987
C59	C	1.467417	0.370223	-0.000024
C60	C	1.967417	0.870223	0.499976
N61	N	1.474032	0.123445	0.344087
N62	N	1.974032	0.623445	0.844087
N63	N	1.474067	0.123441	-0.344080
N64	N	1.974067	0.623441	0.155920
C65	C	1.554469	0.069525	0.416290
C66	C	2.054469	0.569525	0.916290
C67	C	1.554488	0.069522	0.583703
C68	C	2.054488	0.569522	1.083703
H69	H	1.066360	0.062682	-0.000032
H70	H	1.566360	0.562682	0.499968
O71	O	1.382844	0.184612	0.426352
O72	O	1.882844	0.684612	0.926352
H73	H	1.285464	0.173525	0.397260
H74	H	1.785464	0.673525	0.897260
O75	O	1.346609	-0.426565	-0.252677
O76	O	1.846609	0.073435	0.247323
H77	H	1.248655	-0.396123	-0.252417
H78	H	1.748655	0.103877	0.247583
H79	H	1.072523	0.260477	-0.000009
H80	H	1.572523	0.760477	0.499991
H81	H	1.623316	0.023361	0.354170
H82	H	2.123316	0.523361	0.854170
O83	O	0.927065	0.039950	0.000008
O84	O	1.427065	0.539950	0.500008
H85	H	0.870393	-0.014444	0.000004
H86	H	1.370393	0.485556	0.500004
O87	O	0.801969	0.275949	-0.000009
O88	O	1.301969	0.775949	0.499991
H89	H	0.703069	0.261225	0.000006
H90	H	1.203069	0.761225	0.500006
O91	O	1.223901	-0.295525	0.000141
O92	O	1.723901	0.204475	0.500141
H93	H	1.174306	-0.313857	0.099253
H94	H	1.674306	0.186143	0.599253
H95	H	1.363063	-0.419986	0.219997
H96	H	1.863063	0.080014	0.719997
H97	H	1.691940	-0.446772	0.000146
H98	H	2.191940	0.053228	0.500146
O99	O	1.382825	0.184582	0.573682
O100	O	1.882825	0.684582	1.073682
H101	H	1.435576	0.225579	0.504302
H102	H	1.935576	0.725579	1.004302
O103	O	1.601372	-0.326687	0.252982
O104	O	2.101372	0.173313	0.752982
H105	H	1.602627	-0.257170	0.251969
H106	H	2.102627	0.242830	0.751969
O107	O	1.601494	-0.326493	-0.252644
O108	O	2.101494	0.173507	0.247356
H109	H	1.603532	-0.257045	-0.250865
H110	H	2.103532	0.242955	0.249135
O111	O	1.645722	0.008379	0.665945
O112	O	2.145722	0.508379	1.165945
H113	H	1.704638	-0.031111	0.587569
H114	H	2.204638	0.468889	1.087569
