data_functionalizedCrystal
_audit_creation_method	'MofGen! by Chris Wilmer'
_symmetry_space_group_name_H-M	'P1'
_symmetry_Int_Tables_number	1
_symmetry_cell_setting	triclinic
loop_
_symmetry_equiv_pos_as_xyz
  x,y,z
_cell_length_a	10.723024
_cell_length_b	10.654550
_cell_length_c	9.730223
_cell_angle_alpha	90.003749
_cell_angle_beta	90.000190
_cell_angle_gamma	84.476386
loop_
_atom_site_label
_atom_site_type_symbol
_atom_site_fract_x
_atom_site_fract_y
_atom_site_fract_z
O1	O	0.175269	1.667808	0.114399
O2	O	0.191968	1.302327	0.114377
O3	O	0.002044	1.493497	0.114383
O4	O	0.365194	1.476637	0.114393
O5	O	0.002049	1.493495	-0.114197
O6	O	0.191973	1.302324	-0.114203
O7	O	0.175274	1.667805	-0.114181
Zn8	Zn	0.183624	1.485065	-0.150484
Zn9	Zn	0.183618	1.485067	0.150680
O10	O	0.365199	1.476635	-0.114187
C11	C	0.190745	1.255528	0.000084
C12	C	0.187076	1.116085	0.000075
C13	C	0.298901	1.036583	0.000098
C14	C	0.295446	0.905562	0.000122
C15	C	0.068333	0.933560	0.000106
C16	C	0.071789	1.064578	0.000072
C17	C	0.430023	1.020417	0.000114
C18	C	0.426568	0.889397	0.000137
C19	C	-0.044454	1.492269	0.000095
C20	C	-0.183008	1.488598	0.000100
C21	C	-0.257975	1.595568	0.000108
C22	C	-0.401179	1.591776	0.000113
C23	C	0.411696	1.477863	0.000104
C24	C	0.550251	1.481534	0.000108
C25	C	0.176498	1.714604	0.000115
C26	C	0.180166	1.854047	0.000133
N27	N	0.183628	1.485072	-0.356020
C28	C	0.099558	1.569744	-0.427943
C29	C	0.099543	1.569741	-0.571826
C30	C	0.267678	1.400389	-0.571850
C31	C	0.267687	1.400387	-0.427970
C32	C	0.002490	1.667522	-0.427931
C33	C	0.002475	1.667519	-0.571814
N34	N	0.183605	1.485070	0.356216
H35	H	0.481306	1.049740	-0.095551
H36	H	-0.465598	1.683350	0.000114
H37	H	-0.385338	1.389955	0.000092
C38	C	-0.239511	1.361079	0.000095
C39	C	-0.325250	1.327391	-0.118600
C40	C	-0.381748	1.199867	-0.118605
C41	C	-0.352509	1.106031	0.000084
C42	C	-0.266766	1.139717	0.118788
C43	C	-0.210268	1.267241	0.118793
H44	H	-0.346898	1.396855	-0.206468
H45	H	-0.445221	1.174931	-0.206477
H46	H	-0.394333	1.011630	0.000081
H47	H	-0.245118	1.070252	0.206656
H48	H	-0.146795	1.292177	0.206665
C49	C	0.486422	1.068586	0.133433
C50	C	0.407771	1.163726	0.225197
C51	C	0.464162	1.211894	0.358522
C52	C	0.599204	1.164921	0.400082
C53	C	0.677863	1.069775	0.308316
C54	C	0.621472	1.021607	0.174991
H55	H	0.307798	1.198504	0.194434
H56	H	0.405933	1.282328	0.426453
H57	H	0.640949	1.200577	0.498777
H58	H	0.777837	1.034997	0.339079
H59	H	0.679701	0.951173	0.107060
C60	C	-0.127080	1.638566	-0.375162
C61	C	-0.204984	1.734963	-0.284165
C62	C	-0.334549	1.706006	-0.231397
C63	C	-0.386210	1.580652	-0.269625
C64	C	-0.308304	1.484247	-0.360627
C65	C	-0.178739	1.513204	-0.413395
H66	H	-0.166743	1.827764	-0.255862
H67	H	-0.392220	1.777372	-0.164031
H68	H	-0.482122	1.559216	-0.230563
H69	H	-0.346546	1.391445	-0.388930
H70	H	-0.121069	1.441838	-0.480761
C71	C	0.043550	1.790695	-0.367625
C72	C	-0.031550	1.917597	-0.400818
C73	C	0.009519	2.040768	-0.340514
C74	C	0.125687	2.037037	-0.247017
C75	C	0.200794	1.910131	-0.213820
C76	C	0.159726	1.786960	-0.274124
H77	H	-0.117551	1.920363	-0.470034
H78	H	-0.046082	2.134713	-0.365089
H79	H	0.156088	2.128216	-0.202376
H80	H	0.286796	1.907364	-0.144604
H81	H	0.215326	1.693015	-0.249549
C82	C	0.493288	0.832995	0.129382
C83	C	0.444916	0.873904	0.273115
C84	C	0.511627	0.817500	0.402356
C85	C	0.626710	0.720188	0.387863
C86	C	0.675087	0.679274	0.244123
C87	C	0.608376	0.735677	0.114883
H88	H	0.359720	0.945945	0.283849
H89	H	0.475814	0.847788	0.508761
H90	H	0.676093	0.678435	0.483534
H91	H	0.760284	0.607232	0.233389
H92	H	0.644189	0.705389	0.008477
C93	C	0.031381	1.797877	-0.624587
C94	C	-0.064331	1.876374	-0.715571
C95	C	-0.035415	2.006720	-0.768351
C96	C	0.089213	2.058570	-0.730147
C97	C	0.184932	1.980073	-0.639158
C98	C	0.156016	1.849726	-0.586379
H99	H	-0.156595	1.837992	-0.743857
H100	H	-0.106273	2.064829	-0.835707
H101	H	0.110618	2.155061	-0.769218
H102	H	0.277196	2.018454	-0.610873
H103	H	0.226875	1.791617	-0.519022
H104	H	-0.019270	1.129305	0.000034
H105	H	0.336132	1.331429	-0.369412
H106	H	0.336116	1.331440	-0.630447
H107	H	-0.025530	0.891606	0.000124
H108	H	0.466197	0.843719	-0.098546
H109	H	-0.088167	1.637019	-0.616433
H110	H	-0.216139	1.689955	0.000105
