data_functionalizedCrystal
_audit_creation_method	'MofGen! by Chris Wilmer'
_symmetry_space_group_name_H-M	'P1'
_symmetry_Int_Tables_number	1
_symmetry_cell_setting	triclinic
loop_
_symmetry_equiv_pos_as_xyz
  x,y,z
_cell_length_a	18.050591
_cell_length_b	18.050590
_cell_length_c	13.897441
_cell_angle_alpha	90.033006
_cell_angle_beta	90.017522
_cell_angle_gamma	90.017393
loop_
_atom_site_label
_atom_site_type_symbol
_atom_site_fract_x
_atom_site_fract_y
_atom_site_fract_z
Zn1	Zn	1.135394	-0.295659	0.545282
Zn2	Zn	1.135310	-0.419863	0.383977
Zn3	Zn	1.011198	-0.295689	0.384010
Zn4	Zn	1.011182	-0.419809	0.545239
O5	O	1.073271	-0.357755	0.464627
O6	O	1.239307	-0.312145	0.523889
O7	O	1.118818	-0.403426	0.249000
O8	O	1.027714	-0.191760	0.405435
O9	O	1.239246	-0.403397	0.405379
O10	O	1.118960	-0.191738	0.523921
O11	O	1.027633	-0.312196	0.249024
O12	O	0.907271	-0.312144	0.405393
O13	O	1.027687	-0.403305	0.680226
O14	O	0.907259	-0.403334	0.523847
O15	O	1.118945	-0.312092	0.680258
O16	O	1.118803	-0.523780	0.405337
O17	O	1.027606	-0.523741	0.523815
C18	C	0.880319	-0.357737	0.464619
C19	C	0.797773	-0.357747	0.464638
C20	C	0.548962	-0.407439	0.528966
C21	C	0.598327	-0.425521	0.440922
C22	C	0.500652	-0.357770	0.464637
C23	C	0.598369	-0.339711	0.552676
C24	C	0.646638	-0.357761	0.464642
C25	C	0.548930	-0.375888	0.376547
C26	C	0.548968	-0.290046	0.488359
C27	C	0.598310	-0.308103	0.400255
C28	C	0.416554	-0.357778	0.464635
C29	C	0.730734	-0.357753	0.464634
C30	C	1.073214	-0.550707	0.464588
C31	C	1.073257	-0.633253	0.464604
C32	C	1.122953	-0.832698	0.400266
C33	C	1.141097	-0.882026	0.488300
C34	C	1.073299	-0.784383	0.464643
C35	C	1.055231	-0.882137	0.376648
C36	C	1.073341	-0.930368	0.464672
C37	C	1.091478	-0.832623	0.552723
C38	C	1.005581	-0.832731	0.441012
C39	C	1.023699	-0.882036	0.529107
C40	C	1.073277	-0.700285	0.464625
C41	C	1.073364	-1.014465	0.464700
C42	C	1.266976	-0.357774	0.464635
C43	C	1.349522	-0.357782	0.464639
C44	C	1.073323	-0.357689	0.716220
C45	C	1.073346	-0.357661	0.823434
C46	C	1.073348	-0.164049	0.464687
C47	C	1.073381	-0.081503	0.464712
C48	C	1.073261	-0.357767	0.214013
C49	C	1.073382	-0.357585	0.106799
C50	C	1.073366	-0.357611	1.019729
C51	C	1.073353	-0.357641	0.910497
H52	H	0.527295	-0.449478	0.583297
C53	C	1.124988	-0.863240	0.715111
C54	C	1.112225	-0.803396	0.653229
H55	H	1.137793	-0.845194	0.777158
H56	H	1.164413	-0.892552	0.690644
H57	H	1.081406	-0.892554	0.719510
H58	H	1.155809	-0.774085	0.648824
H59	H	1.072797	-0.774072	0.677702
C60	C	1.034166	-0.989061	0.277481
C61	C	1.034573	-0.911496	0.276176
H62	H	1.021422	-1.007183	0.215450
H63	H	0.998856	-1.005948	0.323140
H64	H	1.081951	-1.006655	0.294723
H65	H	0.986786	-0.893902	0.258940
H66	H	1.069885	-0.894603	0.230502
C67	C	0.928923	-0.725902	0.415120
C68	C	0.928269	-0.803467	0.413978
H69	H	0.881192	-0.707837	0.398428
H70	H	0.964296	-0.708278	0.370016
H71	H	0.941714	-0.708986	0.477698
H72	H	0.915484	-0.820383	0.351397
H73	H	0.892884	-0.821098	0.459084
C74	C	1.266301	-0.851412	0.531091
C75	C	1.218433	-0.911256	0.515301
H76	H	1.314048	-0.869455	0.547747
H77	H	1.247661	-0.821707	0.582055
H78	H	1.269666	-0.822494	0.474170
H79	H	1.215064	-0.940171	0.572224
H80	H	1.237077	-0.940973	0.464333
C81	C	0.602696	-0.554763	0.481278
C82	C	0.627601	-0.502829	0.413826
H83	H	0.620770	-0.602489	0.464555
H84	H	0.550081	-0.555435	0.481652
H85	H	0.620358	-0.541592	0.543372
H86	H	0.609935	-0.515997	0.351732
H87	H	0.680227	-0.502159	0.413442
C88	C	0.442175	-0.396455	0.276933
C89	C	0.519744	-0.396604	0.276012
H90	H	0.424157	-0.409252	0.214871
H91	H	0.424868	-0.348504	0.293874
H92	H	0.424893	-0.431519	0.322670
H93	H	0.537026	-0.361535	0.230280
H94	H	0.537058	-0.444561	0.259060
C95	C	0.602294	-0.270480	0.234653
C96	C	0.627388	-0.251397	0.326739
H97	H	0.620252	-0.235477	0.189266
H98	H	0.549678	-0.270460	0.233888
H99	H	0.619947	-0.318443	0.218347
H100	H	0.609731	-0.203436	0.343048
H101	H	0.680016	-0.251409	0.327506
C102	C	0.896326	-0.885113	0.578707
C103	C	0.967037	-0.911104	0.602697
H104	H	0.861351	-0.903057	0.624144
H105	H	0.883369	-0.902163	0.516259
H106	H	0.896303	-0.832489	0.579466
H107	H	0.967061	-0.963728	0.601931
H108	H	0.979998	-0.894058	0.665162
C109	C	0.544578	-0.193963	0.607754
C110	C	0.519665	-0.212761	0.515486
H111	H	0.526481	-0.146252	0.624509
H112	H	0.597192	-0.193505	0.608529
H113	H	0.526942	-0.229379	0.652802
H114	H	0.537305	-0.177348	0.470437
H115	H	0.467039	-0.213213	0.514704
H116	H	0.620086	-0.324441	0.627127
C117	C	1.215107	-0.863271	0.282196
C118	C	1.179654	-0.803446	0.326849
H119	H	1.250115	-0.845210	0.236880
H120	H	1.179391	-0.892985	0.250055
H121	H	1.239869	-0.892186	0.329373
H122	H	1.154888	-0.774534	0.279672
H123	H	1.215376	-0.773720	0.358991
