data_functionalizedCrystal
_audit_creation_method	'MofGen! by Chris Wilmer'
_symmetry_space_group_name_H-M	'P1'
_symmetry_Int_Tables_number	1
_symmetry_cell_setting	triclinic
loop_
_symmetry_equiv_pos_as_xyz
  x,y,z
_cell_length_a	12.759401
_cell_length_b	12.645330
_cell_length_c	12.759393
_cell_angle_alpha	89.969952
_cell_angle_beta	89.981504
_cell_angle_gamma	90.017853
loop_
_atom_site_label
_atom_site_type_symbol
_atom_site_fract_x
_atom_site_fract_y
_atom_site_fract_z
Zn1	Zn	1.606234	-0.421972	-0.593992
Zn2	Zn	1.606119	-0.599276	-0.418317
Zn3	Zn	1.430536	-0.422028	-0.418332
Zn4	Zn	1.430515	-0.599195	-0.593959
O5	O	1.518351	-0.510618	-0.506150
O6	O	1.753239	-0.445503	-0.570697
O7	O	1.582788	-0.575821	-0.271298
O8	O	1.453899	-0.273673	-0.441654
O9	O	1.753155	-0.575767	-0.441629
O10	O	1.582983	-0.273632	-0.570711
O11	O	1.453788	-0.445598	-0.271309
O12	O	1.283512	-0.445518	-0.441621
O13	O	1.453864	-0.575628	-0.740984
O14	O	1.283497	-0.575682	-0.570653
O15	O	1.582964	-0.445424	-0.741009
O16	O	1.582768	-0.747613	-0.441596
O17	O	1.453753	-0.747553	-0.570639
C18	C	1.245383	-0.510598	-0.506136
C19	C	1.128607	-0.510615	-0.506155
C20	C	1.518274	-0.786048	-0.506135
C21	C	1.518337	-0.903878	-0.506164
C22	C	1.073764	-0.578500	-0.573231
C23	C	0.964040	-0.578514	-0.573242
C24	C	0.964011	-0.442755	-0.439092
C25	C	1.073733	-0.442737	-0.439087
C26	C	1.128638	-0.646379	-0.640298
C27	C	1.073796	-0.714270	-0.707379
C28	C	0.964072	-0.714284	-0.707390
C29	C	0.909190	-0.646406	-0.640321
C30	C	1.437509	-1.071448	-0.587595
C31	C	1.437095	-0.948888	-0.587334
C32	C	1.488364	-0.948482	-0.395443
C33	C	1.487871	-1.071080	-0.395937
C34	C	1.629634	-1.070964	-0.534556
C35	C	1.628952	-0.948357	-0.536977
C36	C	1.792384	-0.510638	-0.506165
C37	C	1.909161	-0.510647	-0.506171
C38	C	1.518424	-0.510511	-0.780183
C39	C	1.518456	-0.510465	-0.896960
C40	C	1.518456	-0.234112	-0.506188
C41	C	1.518501	-0.116282	-0.506204
C42	C	1.585687	-0.442661	-0.951837
C43	C	1.585712	-0.442623	-1.061561
C44	C	1.451271	-0.578202	-1.061522
C45	C	1.451242	-0.578234	-0.951800
C46	C	1.652901	-0.374893	-0.896997
C47	C	1.720139	-0.307084	-0.951874
C48	C	1.720164	-0.307046	-1.061598
C49	C	1.652951	-0.374816	-1.116445
C50	C	1.518338	-0.510648	-0.233183
C51	C	1.518510	-0.510395	-0.116407
H52	H	1.217981	-0.646378	-0.640294
C53	C	1.794124	-0.232469	-1.121965
H54	H	1.784513	-0.242148	-1.195166
H55	H	1.864699	-0.248007	-1.103980
H56	H	1.778776	-0.161239	-1.103999
C57	C	1.134068	-0.368069	-0.365306
H58	H	1.207273	-0.377773	-0.374918
H59	H	1.116062	-0.383496	-0.294688
H60	H	1.116104	-0.296859	-0.380812
H61	H	1.545485	-0.919329	-0.333143
H62	H	1.656976	-1.101800	-0.613922
H63	H	1.692473	-0.917711	-0.482013
C64	C	1.652981	-0.374774	-1.237140
H65	H	1.702652	-0.324690	-1.261970
H66	H	1.585197	-0.356432	-1.261964
H67	H	1.671137	-0.443183	-1.261943
C68	C	1.794060	-0.232533	-0.891552
H69	H	1.834095	-0.192137	-0.939952
H70	H	1.839812	-0.273098	-0.848742
H71	H	1.753868	-0.186351	-0.848758
H72	H	1.396549	-0.633377	-1.106188
H73	H	1.118488	-0.769527	-0.761990
H74	H	1.406632	-1.099774	-0.371918
H75	H	1.407972	-0.917873	-0.370989
H76	H	1.396480	-0.633429	-0.907118
C77	C	0.903743	-0.788952	-0.781176
H78	H	0.830536	-0.779236	-0.771585
H79	H	0.921705	-0.860158	-0.765678
H80	H	0.921758	-0.773514	-0.851795
C81	C	1.659503	-0.908955	-0.647047
H82	H	1.605083	-0.865573	-0.674116
H83	H	1.669766	-0.967829	-0.692103
H84	H	1.722502	-0.869127	-0.642819
C85	C	0.788496	-0.646412	-0.640335
H86	H	0.763669	-0.596264	-0.590789
H87	H	0.763650	-0.714803	-0.622058
H88	H	0.763711	-0.628155	-0.708172
C89	C	0.903644	-0.368103	-0.365317
H90	H	0.830442	-0.377844	-0.374921
H91	H	0.921639	-0.296891	-0.380810
H92	H	0.921597	-0.383539	-0.294696
C93	C	1.711129	-1.110025	-0.454405
H94	H	1.677650	-1.153752	-0.403914
H95	H	1.742082	-1.051006	-0.420320
H96	H	1.763913	-1.149407	-0.489513
H97	H	1.354706	-0.919656	-0.568550
H98	H	1.455848	-0.918727	-0.669433
H99	H	1.544302	-1.100743	-0.333226
H100	H	1.456089	-1.100852	-0.669964
C101	C	1.326901	-1.113180	-0.562544
H102	H	1.329866	-1.157805	-0.502697
H103	H	1.301102	-1.152172	-0.620691
H104	H	1.281500	-1.055300	-0.548767
H105	H	1.652890	-0.374919	-0.807654
