data_functionalizedCrystal
_audit_creation_method	'MofGen! by Chris Wilmer'
_symmetry_space_group_name_H-M	'P1'
_symmetry_Int_Tables_number	1
_symmetry_cell_setting	triclinic
loop_
_symmetry_equiv_pos_as_xyz
  x,y,z
_cell_length_a	34.571875
_cell_length_b	34.571051
_cell_length_c	34.567439
_cell_angle_alpha	60.004367
_cell_angle_beta	60.008842
_cell_angle_gamma	59.994195
loop_
_atom_site_label
_atom_site_type_symbol
_atom_site_fract_x
_atom_site_fract_y
_atom_site_fract_z
O1	O	0.053721	-0.565181	0.472559
O2	O	0.020283	-0.440038	0.380761
O3	O	0.099534	-0.519209	0.380676
O4	O	-0.025530	-0.486010	0.472643
O5	O	0.125831	-0.492917	0.406885
O6	O	0.046580	-0.413746	0.406969
O7	O	0.080018	-0.538889	0.498767
Zn8	Zn	0.067475	-0.472143	0.457030
Zn9	Zn	0.032827	-0.506784	0.422498
O10	O	0.000767	-0.459718	0.498852
N11	N	0.091122	-0.448505	0.480598
N12	N	0.009184	-0.530426	0.398930
C13	C	0.124402	-0.415465	0.717633
C14	C	0.328327	-0.415388	0.513477
C15	C	0.124221	-0.415437	0.513630
C16	C	0.124201	-0.211364	0.513624
C17	C	0.157075	-0.309853	0.546423
C18	C	0.157084	-0.382601	0.546423
C19	C	0.175289	-0.364414	0.564591
C20	C	0.254624	-0.350722	0.522790
C21	C	0.304220	-0.367243	0.506229
C22	C	0.304249	-0.447494	0.536832
C23	C	0.254655	-0.430972	0.553394
C24	C	0.169014	-0.285043	0.497667
C25	C	0.152454	-0.235444	0.481153
C26	C	0.112020	-0.235469	0.562154
C27	C	0.128580	-0.285068	0.578668
C28	C	0.108321	-0.370634	0.558439
C29	C	0.091776	-0.387168	0.541918
C30	C	0.172754	-0.427637	0.501375
C31	C	0.189301	-0.411103	0.517891
C32	C	0.108399	-0.370649	0.643978
C33	C	0.091911	-0.387197	0.693575
C34	C	0.172928	-0.427676	0.693511
C35	C	0.189415	-0.411128	0.643912
C36	C	0.157149	-0.382613	0.619147
C37	C	0.229844	-0.382585	0.546371
C38	C	0.105624	-0.433333	0.772186
C39	C	0.382878	-0.432925	0.495007
C40	C	0.105380	-0.433313	0.495792
C41	C	0.105683	-0.156808	0.496094
C42	C	-0.023527	-0.563458	0.161535
C43	C	-0.023851	-0.767445	0.365663
C44	C	-0.023821	-0.563448	0.365756
C45	C	-0.227785	-0.563229	0.365355
C46	C	-0.129302	-0.596153	0.332678
C47	C	-0.056593	-0.596234	0.332823
C48	C	-0.074746	-0.614396	0.314578
C49	C	-0.088477	-0.693710	0.356299
C50	C	-0.071982	-0.743310	0.372851
C51	C	0.008266	-0.743392	0.342376
C52	C	-0.008230	-0.693794	0.325823
C53	C	-0.154162	-0.608103	0.381422
C54	C	-0.203757	-0.591517	0.397874
C55	C	-0.203630	-0.551037	0.316836
C56	C	-0.154034	-0.567623	0.300384
C57	C	-0.068543	-0.547475	0.320829
C58	C	-0.052041	-0.530969	0.337421
C59	C	-0.011639	-0.611977	0.377990
C60	C	-0.028141	-0.628485	0.361404
C61	C	-0.068417	-0.547482	0.235199
C62	C	-0.051814	-0.530977	0.185602
C63	C	-0.011349	-0.611990	0.185649
C64	C	-0.027951	-0.628493	0.235248
C65	C	-0.056486	-0.596238	0.260022
C66	C	-0.056602	-0.668955	0.332787
C67	C	-0.005599	-0.544662	0.106983
C68	C	-0.006342	-0.821999	0.384121
C69	C	-0.005979	-0.544649	0.383673
C70	C	-0.282336	-0.544682	0.382817
N71	N	0.427518	-0.448428	0.480350
O72	O	0.589573	-0.456297	0.363634
O73	O	0.589761	-0.548399	0.488643
O74	O	0.589681	-0.548188	0.409364
O75	O	0.589654	-0.456508	0.442913
O76	O	0.510890	-0.521988	0.435708
O77	O	0.510970	-0.522199	0.514987
O78	O	0.510782	-0.430098	0.389978
Zn79	Zn	0.498366	-0.471989	0.456665
Zn80	Zn	0.602177	-0.506508	0.421956
O81	O	0.510862	-0.430308	0.469257
N82	N	0.673025	-0.530068	0.398267
N83	N	0.091092	-0.112167	0.480590
O84	O	-0.025539	0.049976	0.472612
O85	O	0.099472	0.050011	0.380491
O86	O	0.020155	0.049979	0.380751
O87	O	0.053778	0.050009	0.472352
O88	O	0.046458	-0.028818	0.407008
O89	O	0.125775	-0.028785	0.406748
O90	O	0.000764	-0.028821	0.498869
Zn91	Zn	0.067445	-0.041314	0.456977
Zn92	Zn	0.032791	0.062504	0.422382
O93	O	0.080081	-0.028788	0.498609
N94	N	0.009138	0.133358	0.398771
N95	N	0.091421	-0.448552	0.816827
O96	O	0.083469	-0.565164	0.978960
O97	O	-0.008614	-0.440110	0.979002
O98	O	-0.008399	-0.519410	0.978978
O99	O	0.083253	-0.485863	0.978984
O100	O	0.017837	-0.493128	0.900185
O101	O	0.017621	-0.413827	0.900208
O102	O	0.109704	-0.538881	0.900167
Zn103	Zn	0.067828	-0.472181	0.887677
Zn104	Zn	0.033262	-0.506810	0.991491
O105	O	0.109489	-0.459581	0.900191
N106	N	0.009668	-0.530444	1.062341
C107	C	0.030297	-0.411123	0.381218
C108	C	0.128439	-0.509167	0.381113
C109	C	0.070004	-0.567805	0.498310
C110	C	-0.028138	-0.469761	0.498415
C111	C	0.550388	-0.547982	0.517564
C112	C	0.550290	-0.547721	0.419387
C113	C	0.550153	-0.430514	0.361058
C114	C	0.550253	-0.430775	0.459234
C115	C	0.128339	0.010714	0.380902
C116	C	0.030148	0.010577	0.381256
C117	C	-0.028136	0.010574	0.498426
C118	C	0.070089	0.010613	0.498104
C119	C	-0.008178	-0.411214	0.939610
C120	C	-0.007906	-0.509413	0.939566
C121	C	0.109268	-0.567777	0.939558
C122	C	0.109002	-0.469572	0.939586
H123	H	0.082121	-0.347425	0.623816
H124	H	-0.064037	0.010563	0.527345
H125	H	0.022945	0.010574	0.352477
H126	H	0.550247	-0.401977	0.466412
O127	O	0.171121	0.010925	0.346372
C128	C	0.207021	-0.029792	0.362364
H129	H	0.194131	-0.043553	0.402745
H130	H	0.215995	-0.058323	0.348804
C131	C	0.267359	-0.000234	0.294003
C132	C	0.251529	-0.017134	0.343600
H133	H	0.294814	0.007573	0.282427
H134	H	0.243173	0.027197	0.283228
H135	H	0.274834	-0.024013	0.282709
H136	H	0.244048	0.006648	0.354892
H137	H	0.275715	-0.044560	0.354376
H138	H	-0.064060	-0.462687	0.527292
H139	H	0.023152	-0.375173	0.352387
O140	O	-0.042655	-0.368348	0.939540
C141	C	-0.055396	-0.347380	0.898742
H142	H	-0.024973	-0.363048	0.870212
H143	H	-0.088285	-0.354624	0.907968
C144	C	-0.103349	-0.274280	0.915292
C145	C	-0.065981	-0.293521	0.880250
H146	H	-0.109880	-0.241058	0.903886
H147	H	-0.094767	-0.288407	0.942780
H148	H	-0.130752	-0.280322	0.922978
H149	H	-0.038577	-0.287484	0.872569
H150	H	-0.074559	-0.279392	0.852760
H151	H	-0.036687	-0.516580	0.939532
O152	O	0.078764	0.010592	0.532396
C153	C	0.125329	0.010617	0.515114
H154	H	0.147725	-0.004292	0.484696
H155	H	0.124621	0.048422	0.501901
C156	C	0.119392	-0.001976	0.592534
C157	C	0.146900	-0.020291	0.555177
H158	H	0.132698	-0.021039	0.617247
H159	H	0.088020	-0.001991	0.604178
H160	H	0.118804	0.029528	0.581518
H161	H	0.147483	-0.051792	0.566193
H162	H	0.178274	-0.020282	0.543536
O163	O	0.143701	-0.610655	0.939562
C164	C	0.126653	-0.640134	0.939540
H165	H	0.086299	-0.627306	0.954466
H166	H	0.138683	-0.638843	0.901734
C167	C	0.195855	-0.707161	0.952090
C168	C	0.146292	-0.691408	0.970426
H169	H	0.207970	-0.738790	0.971140
H170	H	0.207342	-0.687301	0.952103
H171	H	0.205874	-0.706082	0.920586
H172	H	0.136274	-0.692482	1.001927
H173	H	0.134804	-0.711270	0.970419
H174	H	-0.134026	-0.631339	0.407719
O175	O	0.143310	-0.460926	0.939560
C176	C	0.126047	-0.414357	0.939585
H177	H	0.095625	-0.391941	0.924679
H178	H	0.112847	-0.415060	0.977389
C179	C	0.203482	-0.420354	0.926990
C180	C	0.166119	-0.392820	0.908678
H181	H	0.228200	-0.407069	0.907926
H182	H	0.215112	-0.451728	0.926974
H183	H	0.192475	-0.420937	0.958492
H184	H	0.177125	-0.392242	0.877178
H185	H	0.154492	-0.361445	0.908687
O186	O	0.171323	-0.517674	0.346717
C187	C	0.200767	-0.564230	0.363830
H188	H	0.187919	-0.576779	0.404184
H189	H	0.199462	-0.588731	0.351832
C190	C	0.267828	-0.549622	0.294656
C191	C	0.252050	-0.565033	0.344220
H192	H	0.299462	-0.550119	0.282558
H193	H	0.247991	-0.518257	0.283125
H194	H	0.266736	-0.570042	0.284664
H195	H	0.253136	-0.544610	0.354211
H196	H	0.271888	-0.596395	0.355752
H197	H	0.550436	-0.576894	0.553469
H198	H	0.052212	-0.377448	0.713786
O199	O	0.230603	-0.461934	0.576223
C200	C	0.242709	-0.485163	0.545875
H201	H	0.256311	-0.462574	0.507478
H202	H	0.271514	-0.520954	0.553851
C203	C	0.181941	-0.520449	0.600974
C204	C	0.198644	-0.492703	0.553815
H205	H	0.154760	-0.525102	0.605873
H206	H	0.173786	-0.504801	0.621421
H207	H	0.205949	-0.550272	0.607615
H208	H	0.174637	-0.462879	0.547176
H209	H	0.206794	-0.508347	0.533366
O210	O	0.204290	-0.455434	0.717543
C211	C	0.232978	-0.497018	0.705393
H212	H	0.213813	-0.503923	0.691781
H213	H	0.267803	-0.492493	0.676582
C214	C	0.266702	-0.530745	0.766148
C215	C	0.243161	-0.539228	0.749433
H216	H	0.272985	-0.556783	0.793313
H217	H	0.247376	-0.502729	0.774333
H218	H	0.295719	-0.526974	0.742134
H219	H	0.214142	-0.542993	0.773445
H220	H	0.262483	-0.567246	0.741254
O221	O	0.076961	-0.342934	0.586131
C222	C	0.030374	-0.335925	0.593199
H223	H	0.030437	-0.341459	0.563303
H224	H	0.016194	-0.362334	0.628531
C225	C	-0.001524	-0.278321	0.630294
C226	C	-0.001447	-0.285114	0.593573
H227	H	-0.021154	-0.246979	0.630527
H228	H	0.029862	-0.283044	0.625534
H229	H	-0.013340	-0.300331	0.659734
H230	H	0.010374	-0.263108	0.564134
H231	H	-0.032833	-0.280386	0.598329
H232	H	0.550303	-0.576522	0.412207
H233	H	0.229113	-0.420876	0.623698
H234	H	0.052069	-0.377412	0.551692
O235	O	0.328377	-0.494482	0.543564
C236	C	0.357044	-0.501212	0.499286
H237	H	0.342066	-0.469812	0.470704
H238	H	0.394633	-0.504131	0.490674
C239	C	0.376212	-0.585603	0.536267
C240	C	0.357813	-0.547039	0.501163
H241	H	0.376689	-0.613872	0.537424
H242	H	0.356900	-0.581069	0.566098
H243	H	0.407535	-0.588029	0.529086
H244	H	0.326489	-0.544609	0.508347
H245	H	0.377120	-0.551573	0.471333
H246	H	0.229008	-0.420842	0.508101
O247	O	0.204115	-0.455304	0.473651
C248	C	0.250701	-0.462330	0.466603
H249	H	0.250613	-0.432428	0.472144
H250	H	0.264940	-0.497665	0.492985
C251	C	0.282584	-0.499393	0.408976
C252	C	0.282476	-0.462664	0.415778
H253	H	0.302186	-0.499601	0.377626
H254	H	0.251199	-0.494661	0.413725
H255	H	0.294449	-0.528835	0.430964
H256	H	0.270607	-0.433223	0.393794
H257	H	0.313861	-0.467392	0.411024
H258	H	0.550093	-0.401597	0.325157
O259	O	0.078595	-0.610724	0.532649
C260	C	0.125158	-0.640101	0.515454
H261	H	0.137646	-0.627187	0.475100
H262	H	0.149674	-0.638792	0.527431
C263	C	0.110698	-0.707263	0.584566
C264	C	0.126035	-0.691405	0.535003
H265	H	0.111240	-0.738911	0.596626
H266	H	0.079328	-0.687472	0.596152
H267	H	0.131130	-0.706168	0.594541
H268	H	0.105600	-0.692494	0.525029
H269	H	0.157401	-0.711198	0.523416
H270	H	0.324395	-0.341295	0.487026
O271	O	0.084407	-0.211366	0.593453
C272	C	0.106935	-0.182650	0.586284
H273	H	0.146691	-0.197582	0.568263
H274	H	0.092280	-0.145062	0.562889
C275	C	0.048807	-0.163549	0.656537
C276	C	0.097636	-0.181890	0.634406
H277	H	0.043069	-0.163078	0.686220
H278	H	0.033627	-0.182894	0.661366
H279	H	0.036600	-0.132227	0.637036
H280	H	0.109841	-0.213213	0.653904
H281	H	0.112817	-0.162551	0.629581
H282	H	0.234427	-0.311322	0.517070
H283	H	0.192214	-0.305222	0.471410
H284	H	0.118851	-0.305270	0.618371
O285	O	0.164028	-0.211391	0.433778
C286	C	0.147036	-0.223501	0.413199
H287	H	0.142200	-0.259520	0.436712
H288	H	0.111577	-0.195594	0.409538
C289	C	0.188845	-0.181531	0.335026
C290	C	0.182909	-0.225772	0.363903
H291	H	0.210972	-0.182930	0.304616
H292	H	0.200292	-0.173370	0.348889
H293	H	0.159294	-0.158280	0.331980
H294	H	0.212459	-0.249021	0.366953
H295	H	0.171468	-0.233937	0.350038
O296	O	-0.063494	-0.483607	0.161516
C297	C	-0.113164	-0.462969	0.173569
H298	H	-0.129160	-0.491186	0.187169
H299	H	-0.127888	-0.447302	0.202360
C300	C	-0.106275	-0.388814	0.112765
C301	C	-0.125922	-0.423471	0.129466
H302	H	-0.114145	-0.364448	0.085561
H303	H	-0.072811	-0.402718	0.104646
H304	H	-0.118546	-0.375764	0.136762
H305	H	-0.113645	-0.436524	0.105471
H306	H	-0.159383	-0.409568	0.137580
O307	O	0.016374	-0.643388	0.161660
C308	C	0.023330	-0.689960	0.194207
H309	H	0.017740	-0.689862	0.229578
H310	H	-0.003069	-0.704133	0.199429
C311	C	0.081004	-0.721942	0.131484
C312	C	0.074142	-0.721822	0.174925
H313	H	0.112346	-0.741597	0.119589
H314	H	0.076317	-0.690566	0.109556
H315	H	0.059001	-0.733752	0.135841
H316	H	0.096140	-0.710007	0.170566
H317	H	0.078834	-0.753197	0.196852
O318	O	-0.096061	-0.516132	0.259248
C319	C	-0.071009	-0.487488	0.247170
H320	H	-0.031331	-0.506676	0.233588
H321	H	-0.081522	-0.452640	0.218358
C322	C	-0.131773	-0.453789	0.307928
C323	C	-0.083040	-0.477357	0.291250
H324	H	-0.139196	-0.447537	0.335117
H325	H	-0.148652	-0.473085	0.316064
H326	H	-0.140528	-0.424751	0.283913
H327	H	-0.074287	-0.506396	0.315262
H328	H	-0.066160	-0.458065	0.283119
H329	H	-0.018232	-0.668197	0.255455
H330	H	-0.061773	-0.491265	0.327657
O331	O	0.015980	-0.643371	0.405762
C332	C	0.022998	-0.689946	0.412774
H333	H	-0.006881	-0.689823	0.407167
H334	H	0.058350	-0.704189	0.386418
C335	C	0.059968	-0.721896	0.470499
C336	C	0.023268	-0.721746	0.463616
H337	H	0.060137	-0.741513	0.501859
H338	H	0.055241	-0.690518	0.465773
H339	H	0.089424	-0.733764	0.448532
H340	H	-0.006188	-0.709872	0.485579
H341	H	0.027989	-0.753122	0.468347
H342	H	-0.091707	-0.521211	0.297556
H343	H	0.017729	-0.673638	0.306677
O344	O	0.055271	-0.767504	0.335531
C345	C	0.080919	-0.755408	0.286577
H346	H	0.056589	-0.741750	0.266031
H347	H	0.095174	-0.726644	0.275525
C348	C	0.152428	-0.816272	0.301019
C349	C	0.122546	-0.799501	0.275784
H350	H	0.178107	-0.843470	0.294361
H351	H	0.135149	-0.824420	0.334000
H352	H	0.164302	-0.792298	0.291807
H353	H	0.110668	-0.823472	0.285001
H354	H	0.139824	-0.791358	0.242804
O355	O	-0.103008	-0.767284	0.395669
C356	C	-0.126216	-0.755163	0.365293
H357	H	-0.125006	-0.719185	0.337025
H358	H	-0.107733	-0.783114	0.347583
C359	C	-0.179658	-0.796953	0.428943
C360	C	-0.178175	-0.752762	0.394225
H361	H	-0.211708	-0.795474	0.446789
H362	H	-0.164022	-0.805120	0.449407
H363	H	-0.164253	-0.820241	0.414179
H364	H	-0.193575	-0.729476	0.408990
H365	H	-0.193816	-0.744591	0.373763
O366	O	-0.227836	-0.603188	0.445243
C367	C	-0.195371	-0.631919	0.470218
H368	H	-0.159999	-0.649979	0.446603
H369	H	-0.190116	-0.609054	0.480949
C370	C	-0.258235	-0.647614	0.543907
C371	C	-0.214792	-0.669798	0.514905
H372	H	-0.270215	-0.670979	0.571473
H373	H	-0.280108	-0.628256	0.527082
H374	H	-0.253849	-0.628560	0.552845
H375	H	-0.219179	-0.688847	0.505963
H376	H	-0.192920	-0.689161	0.531730
O377	O	-0.227585	-0.523315	0.285403
C378	C	-0.195007	-0.516344	0.238850
H379	H	-0.159669	-0.521921	0.239001
H380	H	-0.189722	-0.542744	0.224635
C381	C	-0.257701	-0.458681	0.206811
C382	C	-0.214299	-0.465527	0.206996
H383	H	-0.269601	-0.427336	0.187160
H384	H	-0.279650	-0.463379	0.238174
H385	H	-0.253291	-0.480685	0.194966
H386	H	-0.218711	-0.443528	0.218846
H387	H	-0.192351	-0.460825	0.175633
H388	H	-0.018411	-0.668189	0.371171
H389	H	-0.127865	-0.673490	0.361973
H390	H	-0.133793	-0.557888	0.260690
