data_functionalizedCrystal
_audit_creation_method	'MofGen! by Chris Wilmer'
_symmetry_space_group_name_H-M	'P1'
_symmetry_Int_Tables_number	1
_symmetry_cell_setting	triclinic
loop_
_symmetry_equiv_pos_as_xyz
  x,y,z
_cell_length_a	12.759401
_cell_length_b	19.805405
_cell_length_c	12.759393
_cell_angle_alpha	90.037628
_cell_angle_beta	90.018496
_cell_angle_gamma	90.026572
loop_
_atom_site_label
_atom_site_type_symbol
_atom_site_fract_x
_atom_site_fract_y
_atom_site_fract_z
Zn1	Zn	1.606170	-0.269420	0.593937
Zn2	Zn	1.606028	-0.382625	0.418239
Zn3	Zn	1.430472	-0.269456	0.418276
Zn4	Zn	1.430425	-0.382573	0.593880
O5	O	1.518274	-0.326019	0.506083
O6	O	1.753172	-0.284444	0.570638
O7	O	1.582701	-0.367650	0.271222
O8	O	1.453858	-0.174735	0.441618
O9	O	1.753068	-0.367615	0.441553
O10	O	1.582942	-0.174708	0.570675
O11	O	1.453720	-0.284505	0.271250
O12	O	1.283445	-0.284454	0.441563
O13	O	1.453777	-0.367527	0.740909
O14	O	1.283410	-0.367561	0.570578
O15	O	1.582896	-0.284394	0.740951
O16	O	1.582655	-0.477335	0.441498
O17	O	1.453640	-0.477297	0.570541
C18	C	1.245306	-0.326006	0.506069
C19	C	1.128530	-0.326017	0.506088
C20	C	1.073677	-0.369360	0.573155
C21	C	0.963953	-0.369369	0.573166
C22	C	0.963944	-0.282689	0.439034
C23	C	1.073666	-0.282678	0.439029
C24	C	1.073681	-0.419406	0.650592
C25	C	0.963957	-0.419414	0.650603
C26	C	1.518155	-0.501875	0.506032
C27	C	1.518201	-0.577107	0.506046
C28	C	1.585444	-0.612448	0.438923
C29	C	1.585489	-0.683137	0.438946
C30	C	1.518284	-0.718482	0.506088
C31	C	1.451038	-0.683136	0.573217
C32	C	1.450999	-0.612449	0.573199
C33	C	1.451193	-0.968209	0.573295
C34	C	1.451234	-1.038901	0.573306
C35	C	1.585683	-1.038897	0.439043
C36	C	1.585644	-0.968210	0.439024
C37	C	1.518402	-0.932870	0.506157
C38	C	1.518356	-0.856221	0.506133
C39	C	1.518324	-0.795129	0.506108
C40	C	1.792307	-0.326032	0.506098
C41	C	1.909084	-0.326037	0.506104
C42	C	1.518347	-0.325950	0.780117
C43	C	1.518379	-0.325921	0.896893
C44	C	1.518421	-0.149476	0.506157
C45	C	1.518484	-0.074244	0.506189
C46	C	1.518261	-0.326038	0.233116
C47	C	1.518433	-0.325876	0.116340
C48	C	1.585620	-0.282630	0.951779
C49	C	1.585645	-0.282605	1.061503
C50	C	1.451184	-0.369170	1.061446
C51	C	1.451154	-0.369190	0.951724
C52	C	1.663254	-0.232655	0.951812
C53	C	1.663279	-0.232630	1.061537
H54	H	1.640166	-0.583675	0.384245
H55	H	1.107680	-0.469175	0.621299
H56	H	1.744645	-0.246670	1.091313
H57	H	1.640245	-0.711909	0.384288
C58	C	1.535177	-0.177250	1.169254
C59	C	1.623998	-0.165396	1.107513
H60	H	1.510920	-0.135743	1.197631
H61	H	1.552701	-0.207185	1.224677
H62	H	1.481667	-0.196850	1.127320
H63	H	1.677512	-0.145800	1.149450
H64	H	1.606478	-0.135449	1.052083
C65	C	1.391434	-0.859859	0.632901
C66	C	1.377277	-0.929368	0.647082
H67	H	1.345803	-0.835879	0.678461
H68	H	1.376087	-0.848320	0.562304
H69	H	1.462013	-0.848236	0.648338
H70	H	1.306700	-0.940991	0.631637
H71	H	1.392617	-0.940911	0.717695
C72	C	0.930118	-0.249583	0.261229
C73	C	0.903640	-0.235055	0.365317
H74	H	0.892896	-0.220171	0.215719
H75	H	0.912099	-0.295043	0.245732
H76	H	1.003318	-0.243375	0.251643
H77	H	0.830441	-0.241268	0.374906
H78	H	0.921653	-0.189583	0.380820
H79	H	1.103494	-0.405426	0.732001
C80	C	1.718559	-0.975308	0.306317
C81	C	1.659521	-0.929359	0.365225
H82	H	1.764175	-0.951322	0.260763
H83	H	1.672824	-1.002921	0.266094
H84	H	1.758732	-1.002836	0.352146
H85	H	1.619343	-0.901834	0.319396
H86	H	1.705263	-0.901734	0.405451
H87	H	1.396323	-0.711920	0.627889
C88	C	1.399908	-0.483770	1.095158
C89	C	1.377297	-0.416733	1.121716
H90	H	1.354288	-0.513134	1.132361
H91	H	1.470485	-0.493672	1.113148
H92	H	1.390269	-0.489970	1.021954
H93	H	1.386944	-0.410533	1.194920
H94	H	1.306704	-0.406828	1.103733
C95	C	1.836095	-0.274645	0.987575
C96	C	1.767562	-0.258011	0.905850
H97	H	1.900492	-0.290295	0.959196
H98	H	1.805671	-0.309100	1.029445
H99	H	1.848616	-0.235814	1.029498
H100	H	1.755035	-0.296844	0.863931
H101	H	1.797993	-0.223553	0.863962
H102	H	1.396396	-0.404440	0.907040
C103	C	0.999824	-0.377558	0.823593
C104	C	0.918058	-0.394155	0.755024
H105	H	0.971484	-0.361966	0.888056
H106	H	1.041725	-0.343068	0.793282
H107	H	1.041705	-0.416389	0.835957
H108	H	0.876181	-0.355323	0.742654
H109	H	0.876139	-0.428648	0.785341
H110	H	1.640438	-1.067680	0.384384
C111	C	1.009031	-0.533057	0.602988
C112	C	0.923701	-0.490159	0.620976
H113	H	0.984176	-0.576728	0.584693
H114	H	1.050409	-0.535952	0.664715
H115	H	1.050368	-0.515587	0.547343
H116	H	0.882368	-0.507626	0.676627
H117	H	0.882306	-0.487266	0.559242
C118	C	1.533961	-0.144638	0.948225
C119	C	1.633879	-0.161898	0.911641
H120	H	1.515825	-0.100959	0.923418
H121	H	1.533988	-0.144623	1.022665
H122	H	1.484305	-0.176622	0.923384
H123	H	1.683537	-0.129916	0.936488
H124	H	1.633860	-0.161908	0.837185
H125	H	1.396509	-1.067677	0.627989
C126	C	1.197010	-0.273140	0.297732
C127	C	1.133961	-0.235029	0.365315
H128	H	1.234237	-0.243720	0.252228
H129	H	1.154178	-0.302595	0.257459
H130	H	1.245387	-0.298944	0.337677
H131	H	1.085579	-0.209229	0.325370
H132	H	1.176797	-0.205562	0.405592
H133	H	1.396244	-0.583674	0.627858
