data_functionalizedCrystal
_audit_creation_method	'MofGen! by Chris Wilmer'
_symmetry_space_group_name_H-M	'P1'
_symmetry_Int_Tables_number	1
_symmetry_cell_setting	triclinic
loop_
_symmetry_equiv_pos_as_xyz
  x,y,z
_cell_length_a	15.186229
_cell_length_b	16.109301
_cell_length_c	16.109301
_cell_angle_alpha	96.538519
_cell_angle_beta	89.986602
_cell_angle_gamma	90.005196
loop_
_atom_site_label
_atom_site_type_symbol
_atom_site_fract_x
_atom_site_fract_y
_atom_site_fract_z
O1	O	-0.073176	-1.103135	0.106875
O2	O	-0.073190	-0.861073	0.120175
O3	O	-0.073174	-0.988754	-0.007506
O4	O	-0.073192	-0.975454	0.234556
O5	O	0.073284	-0.988736	-0.007526
O6	O	0.073267	-0.861056	0.120154
O7	O	0.073282	-1.103118	0.106855
Zn8	Zn	0.096528	-0.982084	0.113501
Zn9	Zn	-0.096436	-0.982107	0.113528
O10	O	0.073265	-0.975437	0.234535
C11	C	0.000037	-0.830090	0.119626
C12	C	0.000032	-0.737794	0.118011
N13	N	0.228220	-0.982074	0.113482
C14	C	0.000056	-0.988206	-0.038491
C15	C	0.000057	-0.986591	-0.130786
N16	N	-0.228129	-0.982123	0.113541
C17	C	0.546173	-0.931693	0.063079
C18	C	0.453984	-0.931686	0.063067
C19	C	0.453925	-1.032510	0.163946
C20	C	0.546113	-1.032521	0.163953
C21	C	0.592235	-0.982108	0.113521
C22	C	0.407857	-0.982090	0.113502
C23	C	0.307901	-0.982082	0.113489
C24	C	0.692197	-0.982116	0.113532
C25	C	0.000053	-1.134101	0.107404
C26	C	0.000052	-1.226397	0.109019
C27	C	0.000036	-0.515522	0.190018
C28	C	0.000042	-0.428801	0.188494
C29	C	0.000050	-0.448676	0.037006
C30	C	0.000051	-0.535394	0.038530
C31	C	0.000039	-0.568815	0.115039
C32	C	0.000045	-0.395376	0.111990
C33	C	0.000051	-0.301350	0.110337
C34	C	0.000035	-0.662847	0.116693
C35	C	0.000047	-1.058599	-0.353059
C36	C	0.000040	-1.057075	-0.439779
C37	C	0.000034	-0.905586	-0.419905
C38	C	0.000035	-0.907111	-0.333186
C39	C	0.000046	-0.983620	-0.299766
C40	C	0.000038	-0.980571	-0.473205
C41	C	0.000030	-0.978918	-0.567231
C42	C	0.000052	-0.985273	-0.205734
C43	C	0.000034	-0.975984	0.265521
C44	C	0.000027	-0.977600	0.357816
H45	H	0.583723	-0.890645	0.022014
H46	H	0.000034	-0.542730	0.252317
N47	N	0.000035	-0.589838	-0.038064
N48	N	-0.061700	-0.640450	-0.054100
H49	H	-0.061710	-0.678902	-0.108192
N50	N	0.406919	-0.880198	0.011544
N51	N	0.355491	-0.912672	-0.043423
H52	H	0.322250	-0.876308	-0.079815
N53	N	0.406797	-1.083998	0.215452
N54	N	0.324487	-1.083982	0.215440
H55	H	0.291202	-1.120346	0.251819
H56	H	0.583617	-1.073578	0.205029
H57	H	0.000041	-0.385413	0.249550
N58	N	0.000062	-0.414522	-0.041135
N59	N	0.000060	-0.337094	-0.042488
H60	H	0.000067	-0.312972	-0.097676
N61	N	0.000026	-0.830525	-0.278730
N62	N	-0.061712	-0.814488	-0.228110
H63	H	-0.061722	-0.760403	-0.189649
H64	H	0.000027	-0.843295	-0.447127
H65	H	0.000039	-1.118130	-0.483168
N66	N	0.000061	-1.136755	-0.318933
N67	N	0.000062	-1.203694	-0.366530
H68	H	0.000071	-1.258895	-0.342433
