data_functionalizedCrystal
_audit_creation_method	'MofGen! by Chris Wilmer'
_symmetry_space_group_name_H-M	'P1'
_symmetry_Int_Tables_number	1
_symmetry_cell_setting	triclinic
loop_
_symmetry_equiv_pos_as_xyz
  x,y,z
_cell_length_a	12.759401
_cell_length_b	18.050589
_cell_length_c	12.759393
_cell_angle_alpha	89.969379
_cell_angle_beta	89.980623
_cell_angle_gamma	90.029928
loop_
_atom_site_label
_atom_site_type_symbol
_atom_site_fract_x
_atom_site_fract_y
_atom_site_fract_z
Zn1	Zn	1.606157	-0.295582	-0.594013
Zn2	Zn	1.606010	-0.419792	-0.418336
Zn3	Zn	1.430459	-0.295624	-0.418350
Zn4	Zn	1.430406	-0.419738	-0.593975
O5	O	1.518258	-0.357684	-0.506168
O6	O	1.753158	-0.312063	-0.570719
O7	O	1.582683	-0.403361	-0.271317
O8	O	1.453849	-0.191694	-0.441673
O9	O	1.753050	-0.403320	-0.441650
O10	O	1.582934	-0.191663	-0.570733
O11	O	1.453706	-0.312135	-0.271327
O12	O	1.283431	-0.312083	-0.441636
O13	O	1.453759	-0.403228	-0.741001
O14	O	1.283392	-0.403269	-0.570667
O15	O	1.582882	-0.312011	-0.741029
O16	O	1.582632	-0.523710	-0.441613
O17	O	1.453616	-0.523670	-0.570654
C18	C	1.245290	-0.357676	-0.506150
C19	C	1.128514	-0.357690	-0.506167
C20	C	1.518131	-0.550636	-0.506151
C21	C	1.518173	-0.633182	-0.506179
C22	C	0.963989	-0.310255	-0.573489
C23	C	1.073713	-0.310253	-0.573478
C24	C	1.073585	-0.405137	-0.438871
C25	C	0.963863	-0.405142	-0.438888
C26	C	0.964064	-0.255473	-0.651200
C27	C	1.073788	-0.255471	-0.651189
C28	C	1.448083	-0.832638	-0.576327
C29	C	1.422469	-0.882087	-0.480458
C30	C	1.518276	-0.784312	-0.506192
C31	C	1.543942	-0.881945	-0.602072
C32	C	1.518374	-0.930297	-0.506214
C33	C	1.492611	-0.832674	-0.410273
C34	C	1.614129	-0.832527	-0.531952
C35	C	1.588551	-0.881954	-0.436017
C36	C	1.518217	-0.700214	-0.506181
C37	C	1.518433	-1.014394	-0.506214
C38	C	1.792291	-0.357693	-0.506187
C39	C	1.909068	-0.357697	-0.506196
C40	C	1.518331	-0.357609	-0.780202
C41	C	1.518363	-0.357577	-0.896978
C42	C	1.518414	-0.163978	-0.506209
C43	C	1.518480	-0.081433	-0.506226
C44	C	1.585606	-0.310076	-0.951857
C45	C	1.585631	-0.310049	-1.061581
C46	C	1.451166	-0.405031	-1.061539
C47	C	1.451136	-0.405054	-0.951817
C48	C	1.663242	-0.255241	-0.951882
C49	C	1.663267	-0.255214	-1.061606
C50	C	1.518245	-0.357705	-0.233201
C51	C	1.518417	-0.357528	-0.116425
H52	H	0.919150	-0.443780	-0.384101
H53	H	1.647953	-0.903472	-0.376647
H54	H	1.565611	-0.903588	-0.683148
O55	O	1.378662	-0.456234	-1.120692
H56	H	1.331892	-0.489265	-1.064095
H57	H	1.695124	-0.810744	-0.553765
H58	H	1.388636	-0.810983	-0.635553
H59	H	1.641493	-0.197727	-0.922125
H60	H	1.744633	-0.270617	-1.091386
H61	H	1.396376	-0.443731	-0.907139
H62	H	1.740507	-0.275858	-0.917848
O63	O	1.315156	-0.910924	-0.451590
H64	H	1.256987	-0.891178	-0.509908
O65	O	0.924652	-0.275959	-0.758939
H66	H	0.953643	-0.331977	-0.779980
O67	O	1.132683	-0.456301	-0.366266
H68	H	1.218208	-0.448325	-0.377552
O69	O	0.918995	-0.183075	-0.612781
H70	H	0.983835	-0.144685	-0.592403
O71	O	1.463776	-0.804135	-0.302847
H72	H	1.463919	-0.742647	-0.303692
H73	H	1.634172	-0.200567	-1.095652
H74	H	1.107842	-0.276134	-0.728432
H75	H	1.103594	-0.197935	-0.629519
