data_functionalizedCrystal
_audit_creation_method	'MofGen! by Chris Wilmer'
_symmetry_space_group_name_H-M	'P1'
_symmetry_Int_Tables_number	1
_symmetry_cell_setting	triclinic
loop_
_symmetry_equiv_pos_as_xyz
  x,y,z
_cell_length_a	12.811438
_cell_length_b	23.532357
_cell_length_c	11.295483
_cell_angle_alpha	94.062867
_cell_angle_beta	80.460799
_cell_angle_gamma	83.437975
loop_
_atom_site_label
_atom_site_type_symbol
_atom_site_fract_x
_atom_site_fract_y
_atom_site_fract_z
O1	O	1.409898	0.067019	-0.251284
O2	O	1.101835	0.076642	-0.218022
O3	O	1.265182	-0.011090	-0.235634
O4	O	1.246551	0.154752	-0.233672
O5	O	1.250835	-0.003396	-0.036037
O6	O	1.087488	0.084336	-0.018425
O7	O	1.395551	0.074713	-0.051686
Cu8	Cu	1.240209	0.080227	-0.016830
Cu9	Cu	1.257176	0.071128	-0.252878
O10	O	1.232204	0.162446	-0.034074
C11	C	1.055256	0.080186	-0.113969
C12	C	0.937843	0.079275	-0.101290
C13	C	0.764534	0.082185	0.025373
C14	C	0.874854	0.083042	0.013466
C15	C	0.890504	0.074654	-0.204147
C16	C	0.780184	0.073797	-0.192241
C17	C	0.717203	0.077562	-0.077477
C18	C	0.606882	0.076702	-0.065571
C19	C	0.622533	0.068318	-0.283183
C20	C	0.732853	0.069174	-0.295090
C21	C	1.257542	-0.028460	-0.135781
C22	C	1.256140	-0.091680	-0.135619
C23	C	1.255167	-0.487899	-0.243534
C24	C	1.253836	-0.547300	-0.243397
O25	O	1.259762	-0.581584	-0.335850
N26	N	1.245355	-0.572818	-0.134527
C27	C	1.238194	-0.538931	-0.025785
O28	O	1.230857	-0.566091	0.066831
C29	C	1.239518	-0.479530	-0.025922
C30	C	1.248010	-0.454016	-0.134801
C31	C	1.263658	-0.462384	-0.352404
C32	C	1.264991	-0.402987	-0.352541
C33	C	1.257834	-0.369105	-0.243808
C34	C	1.249344	-0.394619	-0.134938
C35	C	1.232350	-0.445643	0.082819
C36	C	1.233674	-0.386239	0.082672
C37	C	1.242166	-0.360725	-0.026207
C38	C	1.243520	-0.301339	-0.026342
N39	N	1.252001	-0.275821	-0.135212
C40	C	1.259158	-0.309704	-0.243945
C41	C	1.235412	-0.663677	-0.025505
C42	C	1.234095	-0.723077	-0.025367
C43	C	1.249735	-0.731442	-0.242979
C44	C	1.251059	-0.672041	-0.243117
C45	C	1.243893	-0.638159	-0.134375
C46	C	1.261959	-0.184965	-0.244224
C47	C	1.263296	-0.125563	-0.244352
C48	C	1.247651	-0.117203	-0.026739
C49	C	1.246319	-0.176600	-0.026612
C50	C	1.253471	-0.210480	-0.135363
O51	O	1.237594	-0.267019	0.066064
O52	O	1.266480	-0.282536	-0.336544
C53	C	1.442129	0.071170	-0.155742
C54	C	1.559543	0.072080	-0.168428
C55	C	1.239844	0.179816	-0.133929
C56	C	1.241247	0.243036	-0.134100
N57	N	1.228283	0.086627	0.149192
N58	N	1.269111	0.064724	-0.418901
C59	C	1.354961	0.018627	0.384823
C60	C	1.345955	0.023467	0.510458
C61	C	1.201264	0.101144	0.526098
C62	C	1.210269	0.096304	0.400464
C63	C	1.287121	0.055044	0.329830
C64	C	1.296130	0.050207	0.204193
C65	C	1.151434	0.127881	0.219836
C66	C	1.142429	0.132722	0.345471
H67	H	0.913386	0.086808	0.097217
H68	H	1.401196	-0.006189	0.555229
H69	H	1.358709	0.016613	0.146683
F70	F	1.272339	-0.098413	-0.360241
F71	F	1.240037	-0.081132	0.088976
H72	H	1.227822	-0.358653	0.171227
F73	F	1.260096	-0.644893	-0.358999
H74	H	0.941801	0.071593	-0.297582
F75	F	1.223307	-0.472784	0.198705
H76	H	0.583985	0.064556	-0.366931
H77	H	1.138686	0.134732	0.583625
F78	F	0.799893	0.065167	-0.417223
H79	H	1.079855	0.166313	0.402995
F80	F	1.257345	-0.767513	-0.358703
F81	F	1.269570	-0.221015	-0.359970
H82	H	1.271902	-0.382219	-0.441201
H83	H	1.096197	0.157537	0.175047
H84	H	1.269482	-0.489966	-0.440952
F85	F	0.539855	0.080706	0.056569
H86	H	0.713252	0.085254	0.118818
H87	H	1.227196	-0.743846	0.063292
H88	H	1.229579	-0.636093	0.063051
F89	F	1.237300	-0.203757	0.089266
F90	F	1.436761	-0.025279	0.309648
