data_functionalizedCrystal
_audit_creation_method	'MofGen! by Chris Wilmer'
_symmetry_space_group_name_H-M	'P1'
_symmetry_Int_Tables_number	1
_symmetry_cell_setting	triclinic
loop_
_symmetry_equiv_pos_as_xyz
  x,y,z
_cell_length_a	23.096457
_cell_length_b	14.560432
_cell_length_c	23.096457
_cell_angle_alpha	60.001902
_cell_angle_beta	89.999736
_cell_angle_gamma	59.999119
loop_
_atom_site_label
_atom_site_type_symbol
_atom_site_fract_x
_atom_site_fract_y
_atom_site_fract_z
Zr1	Zr	0.557761	1.005290	-0.075987
O2	O	0.465310	1.196889	-0.168430
O3	O	0.586103	0.813690	-0.047650
O4	O	0.586099	1.005291	-0.168437
O5	O	0.465316	1.005287	0.047639
O6	O	0.681380	1.005294	-0.168441
O7	O	0.465313	1.005288	-0.047643
O8	O	0.681386	0.662554	0.047626
O9	O	0.465310	1.348027	-0.168428
O10	O	0.669296	0.892500	-0.035565
O11	O	0.598191	0.892498	0.035545
O12	O	0.598188	1.118084	-0.106666
O13	O	0.527083	1.118082	-0.035556
Zr14	Zr	0.709726	1.005294	0.075970
Zr15	Zr	0.709722	1.005294	-0.075992
Zr16	Zr	0.557765	1.005290	0.075976
Zr17	Zr	0.557761	1.246338	-0.075983
Zr18	Zr	0.709727	0.764246	0.075967
O19	O	0.681385	1.196894	0.047633
O20	O	0.681379	1.196895	-0.168438
O21	O	0.465316	1.196888	0.047641
O22	O	0.802177	0.813695	0.168413
O23	O	0.802172	0.813696	-0.047658
O24	O	0.586108	0.813689	0.168421
O25	O	0.802172	1.005297	-0.047655
O26	O	0.681388	1.005292	0.168421
O27	O	0.586108	1.005290	0.168424
O28	O	0.802174	1.005296	0.047626
O29	O	0.586099	1.348030	-0.168432
O30	O	0.681389	0.662554	0.168416
O31	O	0.802178	0.662557	0.168411
O32	O	0.802175	0.662557	0.047621
O33	O	0.465313	1.348026	-0.047638
O34	O	0.586102	1.348030	-0.047642
O35	O	0.669300	0.892500	0.106650
O36	O	0.740405	0.892502	0.035540
O37	O	0.669296	1.118086	-0.035562
O38	O	0.598191	1.118083	0.035548
C39	C	0.633744	0.703778	-0.000013
C40	C	0.633744	0.601447	-0.000014
C41	C	0.443663	1.005287	-0.000001
C42	C	0.379152	1.005285	0.000001
C43	C	0.707972	0.601443	-0.074261
C44	C	0.745082	0.553370	-0.111385
C45	C	0.745080	0.457220	-0.111384
C46	C	0.707965	0.409139	-0.074252
C47	C	0.670855	0.457213	-0.037128
C48	C	0.670860	0.553367	-0.037135
C49	C	0.596633	0.457210	0.037122
C50	C	0.596630	0.553366	0.037117
C51	C	0.559519	0.409129	0.074253
C52	C	0.522403	0.457209	0.111374
C53	C	0.522406	0.553365	0.111371
C54	C	0.559520	0.601439	0.074241
C55	C	0.385964	0.887536	0.037108
C56	C	0.325349	0.887534	0.037112
C57	C	0.257921	1.005288	-0.000007
C58	C	0.251111	1.123052	-0.037116
C59	C	0.311727	1.123051	-0.037112
N60	N	0.135124	1.092939	-0.060416
N61	N	0.077545	1.092932	-0.060419
C62	C	0.075289	1.005300	-0.000019
N63	N	0.132794	0.917654	0.060382
N64	N	0.190380	0.917657	0.060383
C65	C	0.192190	1.005303	-0.000015
C66	C	0.016377	0.887541	0.037095
C67	C	-0.044241	0.887544	0.037100
C68	C	-0.118478	1.123065	-0.037134
C69	C	-0.057860	1.123059	-0.037132
C70	C	0.009565	1.005293	-0.000019
C71	C	0.823824	1.005297	-0.000015
C72	C	0.888336	1.005299	-0.000018
C73	C	0.633739	1.005293	-0.190090
C74	C	0.633737	1.005293	-0.254603
C75	C	0.633743	1.306806	-0.000004
C76	C	0.633743	1.409137	-0.000002
C77	C	0.581254	1.005305	-0.715116
C78	C	0.581254	1.005296	-0.654497
C79	C	0.633745	1.005299	-0.624187
C80	C	0.686250	1.005277	-0.654490
C81	C	0.686252	1.005273	-0.715103
N82	N	0.649636	1.078831	-0.552193
N83	N	0.649629	1.078837	-0.494613
C84	C	0.633740	1.005307	-0.441560
N85	N	0.617845	0.931787	-0.448268
N86	N	0.617848	0.931786	-0.505854
C87	C	0.633748	1.005302	-0.558461
C88	C	0.581241	1.005310	-0.345532
C89	C	0.581246	1.005292	-0.284910
C90	C	0.686239	1.005287	-0.284907
C91	C	0.686237	1.005291	-0.345525
C92	C	0.633734	1.005308	-0.375835
C93	C	0.633748	1.005291	0.190074
C94	C	0.633750	1.005291	0.254586
C95	C	0.823825	0.703783	-0.000020
C96	C	0.888336	0.601454	-0.000024
C97	C	0.633749	0.703777	0.190069
C98	C	0.633751	0.601446	0.254580
C99	C	0.823829	0.703782	0.190062
C100	C	0.888343	0.601453	0.254571
C101	C	0.443658	1.306801	-0.190079
C102	C	0.379145	1.409131	-0.254587
C103	C	0.443663	1.306801	0.000003
C104	C	0.379151	1.409130	0.000007
C105	C	0.633739	1.306807	-0.190086
C106	C	0.633737	1.409138	-0.254597
C107	C	0.881514	0.553398	-0.037148
C108	C	0.942123	0.457262	-0.037166
C109	C	1.009555	0.409177	-0.000055
C110	C	1.016376	0.457242	0.037071
C111	C	0.955767	0.553383	0.037084
C112	C	0.670869	0.553391	0.321997
C113	C	0.670868	0.457253	0.382618
C114	C	0.633752	0.409166	0.375819
C115	C	0.596629	0.457230	0.308395
C116	C	0.596626	0.553373	0.247776
C117	C	0.955761	0.553399	0.247746
C118	C	1.016384	0.457263	0.308352
C119	C	1.009587	0.409176	0.375783
C120	C	0.942161	0.457239	0.382607
C121	C	0.881540	0.553380	0.322001
C122	C	0.311726	1.457197	-0.247762
C123	C	0.251104	1.553363	-0.308369
C124	C	0.257901	1.601455	-0.375800
C125	C	0.325326	1.553385	-0.382623
C126	C	0.385948	1.457227	-0.322017
C127	C	0.385974	1.457196	0.037125
C128	C	0.325364	1.553358	0.037126
C129	C	0.257933	1.601447	0.000013
C130	C	0.251111	1.553377	-0.037109
C131	C	0.311720	1.457223	-0.037114
C132	C	0.670860	1.457195	-0.247775
C133	C	0.670872	1.553333	-0.308384
C134	C	0.633757	1.601419	-0.375813
C135	C	0.596632	1.553353	-0.382633
C136	C	0.596625	1.457210	-0.322025
H137	H	0.707970	0.679745	-0.074273
C138	C	0.934696	0.404319	0.456787
N139	N	0.929075	0.364448	0.512662
C140	C	0.785889	0.606292	-0.152244
N141	N	0.816620	0.646158	-0.183024
H142	H	0.701094	0.592533	0.327546
C143	C	0.963284	0.606221	0.077934
N144	N	0.968951	0.646013	0.108705
H145	H	0.701102	1.592459	-0.302818
C146	C	0.090547	0.757997	0.077928
N147	N	0.146411	0.660424	0.108686
C148	C	0.523453	1.005435	-0.251622
N149	N	0.479907	1.005592	-0.226565
C150	C	0.785902	0.404339	-0.152222
N151	N	0.816648	0.364512	-0.182984
H152	H	0.826647	0.592493	0.327568
H153	H	0.701101	0.418130	0.437511
H154	H	0.306156	1.418090	-0.067338
C155	C	0.304232	1.404322	-0.173594
N156	N	0.298582	1.364509	-0.117732
H157	H	0.196209	1.592485	-0.302799
H158	H	0.707974	0.330838	-0.074247
C159	C	0.176930	1.606270	-0.077920
N160	N	0.121054	1.646102	-0.108651
C161	C	0.555799	0.606209	0.173618
N162	N	0.525047	0.645998	0.117763
C163	C	0.191208	1.707221	-0.442462
N164	N	0.140972	1.786879	-0.492669
C165	C	0.711698	1.404311	-0.173609
N166	N	0.742463	1.364478	-0.117748
H167	H	0.728980	1.005282	-0.260227
C168	C	0.523510	1.005287	-0.621155
N169	N	0.480020	1.005272	-0.596041
C170	C	0.807344	0.606280	-0.077980
N171	N	0.751481	0.646112	-0.108742
H172	H	1.058901	0.330892	-0.000071
C173	C	0.523506	1.005305	-0.748448
N174	N	0.480012	1.005298	-0.773553
H175	H	0.728981	1.005287	-0.370197
H176	H	-0.173378	1.218943	-0.067357
H177	H	1.058954	0.330891	0.425127
H178	H	0.633760	0.330880	0.425185
H179	H	0.208586	1.679742	0.000023
C180	C	1.090558	0.404325	0.077896
N181	N	1.146433	0.364457	0.108650
H182	H	0.728989	1.005276	-0.629807
H183	H	0.330852	1.592554	-0.437533
H184	H	0.633768	1.679706	-0.425159
C185	C	0.555837	1.606216	-0.456812
N186	N	0.525118	1.646023	-0.512686
H187	H	0.440841	1.418093	-0.327583
H188	H	0.566391	1.418092	-0.327589
H189	H	-0.038687	0.791655	0.067322
H190	H	0.559522	0.679735	0.074231
C191	C	0.934604	0.404397	-0.078000
N192	N	0.928939	0.364578	-0.108755
H193	H	0.440861	0.791642	0.067324
H194	H	0.440875	1.418050	0.067351
H195	H	0.566410	0.418063	0.302870
C196	C	1.090545	0.404399	0.300831
N197	N	1.146402	0.364581	0.295163
H198	H	0.330896	0.791646	0.067329
C199	C	0.332883	1.606207	0.077972
N200	N	0.338549	1.646007	0.108738
H201	H	0.492191	0.418048	0.141607
C202	C	0.559512	0.303370	0.074249
N203	N	0.559503	0.223718	0.074242
C204	C	0.176940	1.252582	-0.077949
N205	N	0.121073	1.350147	-0.108705
C206	C	0.481586	0.606231	0.152215
N207	N	0.450839	0.646046	0.182981
H208	H	0.306174	1.218939	-0.067328
H209	H	-0.063410	1.218943	-0.067354
H210	H	0.729002	1.005262	-0.739772
H211	H	0.538493	1.005318	-0.370210
H212	H	0.961309	0.592537	0.192846
