data_functionalizedCrystal
_audit_creation_method	'MofGen! by Chris Wilmer'
_symmetry_space_group_name_H-M	'P1'
_symmetry_Int_Tables_number	1
_symmetry_cell_setting	triclinic
loop_
_symmetry_equiv_pos_as_xyz
  x,y,z
_cell_length_a	12.837939
_cell_length_b	19.188930
_cell_length_c	11.892095
_cell_angle_alpha	93.870839
_cell_angle_beta	94.310906
_cell_angle_gamma	91.013290
loop_
_atom_site_label
_atom_site_type_symbol
_atom_site_fract_x
_atom_site_fract_y
_atom_site_fract_z
O1	O	-1.381279	0.177427	-0.094018
O2	O	-1.079514	0.168464	-0.094022
O3	O	-1.239103	0.071888	-0.093998
O4	O	-1.221690	0.274003	-0.094042
O5	O	-1.225797	0.079927	0.094008
O6	O	-1.066208	0.176503	0.093984
O7	O	-1.367973	0.185466	0.093987
Zn8	Zn	-1.214978	0.182261	0.123835
Zn9	Zn	-1.232509	0.171669	-0.123870
O10	O	-1.208384	0.282042	0.093963
C11	C	-1.034254	0.169456	-0.000019
C12	C	-0.919218	0.160425	-0.000019
C13	C	-0.677768	0.268993	-0.000025
C14	C	-0.569680	0.260511	-0.000025
C15	C	-0.594953	0.134980	-0.000009
C16	C	-0.703040	0.143462	-0.000010
C17	C	-0.744444	0.210471	-0.000020
C18	C	-0.852534	0.218951	-0.000028
C19	C	-0.877804	0.093422	-0.000005
C20	C	-0.769716	0.084940	-0.000004
C21	C	-1.231886	0.049858	0.000008
C22	C	-1.230192	-0.027762	0.000018
C23	C	-1.323834	-0.066263	0.000024
C24	C	-1.322245	-0.139197	0.000006
C25	C	-1.227007	-0.173626	0.000004
C26	C	-1.133352	-0.135116	-0.000009
C27	C	-1.134945	-0.062184	-0.000002
N28	N	-1.149680	-0.283888	0.063985
N29	N	-1.148173	-0.353170	0.063981
C30	C	-1.222202	-0.393365	-0.000019
N31	N	-1.297810	-0.361660	-0.064000
N32	N	-1.299319	-0.292371	-0.063991
C33	C	-1.225269	-0.252708	-0.000004
C34	C	-1.314127	-0.510949	-0.000034
C35	C	-1.312535	-0.583884	-0.000059
C36	C	-1.123639	-0.579801	-0.000062
C37	C	-1.125235	-0.506868	-0.000048
C38	C	-1.220482	-0.472446	-0.000029
C39	C	-0.413233	0.184475	-0.000016
C40	C	-0.528269	0.193507	-0.000018
C41	C	-1.215601	0.304072	-0.000045
C42	C	-1.217295	0.381692	-0.000062
N43	N	-1.203021	0.189489	0.292888
N44	N	-1.244475	0.164436	-0.292922
C45	C	-1.327678	0.114099	0.529554
C46	C	-1.319328	0.119157	0.647895
C47	C	-1.177965	0.204659	0.647912
C48	C	-1.186315	0.199601	0.529571
C49	C	-1.261176	0.154320	0.470396
C50	C	-1.269530	0.149266	0.352054
C51	C	-1.128163	0.234764	0.352073
C52	C	-1.119812	0.239822	0.470413
H53	H	-0.711479	0.323554	-0.000035
H54	H	-1.373480	0.086404	0.696058
C55	C	-1.113961	0.322974	0.684349
C56	C	-1.095668	0.254421	0.712959
H57	H	-1.063145	0.353692	0.724501
H58	H	-1.181703	0.336010	0.703744
H59	H	-1.109423	0.325712	0.605401
H60	H	-1.100213	0.251682	0.791907
H61	H	-1.027908	0.241381	0.693572
H62	H	-1.074015	0.267517	0.303893
C63	C	-0.937659	0.270367	0.506893
C64	C	-1.037528	0.289590	0.535469
H65	H	-0.886861	0.301091	0.547062
H66	H	-0.933120	0.273118	0.427958
H67	H	-0.925260	0.223858	0.526299
H68	H	-1.049929	0.336098	0.516056
H69	H	-1.042069	0.286846	0.614423
C70	C	-1.400443	-0.400960	-0.000005
C71	C	-1.418819	-0.473106	-0.000023
H72	H	-1.465076	-0.377600	0.000008
H73	H	-1.366545	-0.390966	-0.065560
H74	H	-1.357257	-0.385383	0.065564
H75	H	-1.461999	-0.488683	-0.065597
H76	H	-1.452733	-0.483105	0.065539
H77	H	-1.388639	0.077234	0.481373
C78	C	-1.419989	0.137809	0.218878
C79	C	-1.351766	0.099472	0.286976
H80	H	-1.470746	0.107058	0.178701
H81	H	-1.381575	0.161051	0.166734
H82	H	-1.453926	0.171309	0.265021
H83	H	-1.317824	0.065974	0.240832
H84	H	-1.390185	0.076218	0.339126
H85	H	-0.886242	0.273513	-0.000034
C86	C	-0.555562	0.385443	-0.000052
C87	C	-0.496389	0.324840	-0.000040
H88	H	-0.510313	0.425157	-0.000068
H89	H	-0.593602	0.388942	0.065507
H90	H	-0.602891	0.383332	-0.065617
H91	H	-0.449066	0.326948	0.065529
H92	H	-0.458332	0.321341	-0.065607
H93	H	-1.046094	-0.607833	-0.000069
C94	C	-0.590032	0.021243	-0.096636
C95	C	-0.549427	0.061330	0.000005
H96	H	-0.561928	-0.024227	-0.096621
H97	H	-0.571760	0.042841	-0.162187
H98	H	-0.663947	0.017917	-0.096628
H99	H	-0.475512	0.064660	-0.000007
H100	H	-0.567692	0.039726	0.065573
C101	C	-0.764818	-0.028793	-0.096644
C102	C	-0.724201	0.011286	0.000001
H103	H	-0.736725	-0.074265	-0.096639
H104	H	-0.746544	-0.007192	-0.162193
H105	H	-0.838734	-0.032111	-0.096633
H106	H	-0.650286	0.014609	-0.000015
H107	H	-0.742468	-0.010320	0.065566
C108	C	-1.054715	0.050680	-0.000006
C109	C	-0.951098	0.029088	-0.000000
H110	H	-1.099961	0.010963	-0.000001
H111	H	-1.071866	0.075054	-0.065566
H112	H	-1.062592	0.080657	0.065558
H113	H	-0.943219	-0.000886	-0.065569
H114	H	-0.933942	0.004702	0.065566
H115	H	-1.401392	-0.038242	0.000036
H116	H	-1.388793	-0.615231	-0.000060
H117	H	-1.048981	-0.475520	-0.000047
H118	H	-1.055809	-0.163153	-0.000013
C119	C	-1.509118	-0.135913	0.000040
C120	C	-1.425183	-0.181528	0.000021
H121	H	-1.572665	-0.162046	0.000057
H122	H	-1.510462	-0.110181	-0.065518
H123	H	-1.501158	-0.104583	0.065606
H124	H	-1.433139	-0.212855	-0.065550
H125	H	-1.423840	-0.207272	0.065586
C126	C	-0.948072	-0.065476	-0.000005
C127	C	-1.032005	-0.019859	0.000002
H128	H	-0.884521	-0.039343	0.000006
H129	H	-0.956017	-0.096797	-0.065569
H130	H	-0.946746	-0.091216	0.065555
H131	H	-1.033336	0.005878	-0.065563
H132	H	-1.024057	0.011475	0.065573
