data_functionalizedCrystal
_audit_creation_method	'MofGen! by Chris Wilmer'
_symmetry_space_group_name_H-M	'P1'
_symmetry_Int_Tables_number	1
_symmetry_cell_setting	triclinic
loop_
_symmetry_equiv_pos_as_xyz
  x,y,z
_cell_length_a	16.109301
_cell_length_b	9.016244
_cell_length_c	16.109301
_cell_angle_alpha	90.008190
_cell_angle_beta	83.461481
_cell_angle_gamma	89.999666
loop_
_atom_site_label
_atom_site_type_symbol
_atom_site_fract_x
_atom_site_fract_y
_atom_site_fract_z
O1	O	1.103129	0.123251	0.106870
O2	O	0.861067	0.123275	0.120169
O3	O	0.988748	0.123248	-0.007511
O4	O	0.975448	0.123279	0.234551
O5	O	0.988742	-0.123433	-0.007521
O6	O	0.861062	-0.123405	0.120160
O7	O	1.103124	-0.123430	0.106860
Cu8	Cu	0.982092	-0.145941	0.113509
Cu9	Cu	0.982099	0.145787	0.113520
O10	O	0.975443	-0.123402	0.234541
C11	C	0.830090	-0.000062	0.119626
C12	C	0.737794	-0.000053	0.118011
C13	C	0.515522	-0.000061	0.190018
C14	C	0.428801	-0.000071	0.188494
C15	C	0.448676	-0.000084	0.037006
C16	C	0.535394	-0.000085	0.038530
C17	C	0.568815	-0.000066	0.115039
C18	C	0.395376	-0.000075	0.111990
C19	C	0.301350	-0.000085	0.110337
C20	C	0.662847	-0.000058	0.116693
N21	N	0.982094	-0.351127	0.113501
C22	C	1.050645	-0.586129	0.045431
C23	C	1.050464	-0.414238	0.045176
C24	C	0.895359	-0.413547	0.094577
C25	C	0.895767	-0.585492	0.094100
C26	C	0.999514	-0.585622	0.200737
C27	C	1.001481	-0.413666	0.200147
C28	C	1.134101	-0.000089	0.107404
C29	C	1.226397	-0.000088	0.109019
C30	C	0.988206	-0.000093	-0.038491
C31	C	0.986591	-0.000095	-0.130786
N32	N	0.982103	0.350973	0.113522
C33	C	1.058599	-0.000079	-0.353059
C34	C	1.057075	-0.000067	-0.439779
C35	C	0.905586	-0.000057	-0.419905
C36	C	0.907111	-0.000059	-0.333186
C37	C	0.983620	-0.000078	-0.299766
C38	C	0.980571	-0.000063	-0.473205
C39	C	0.978918	-0.000050	-0.567231
C40	C	0.985273	-0.000088	-0.205734
C41	C	0.975984	-0.000057	0.265521
C42	C	0.977600	-0.000046	0.357816
H43	H	0.421454	-0.000109	-0.025285
H44	H	0.578788	-0.000094	-0.022530
H45	H	1.065287	-0.372870	0.214508
N46	N	1.135866	-0.358319	0.060094
H47	H	1.173969	-0.445367	0.066896
H48	H	1.159758	-0.296267	0.010893
H49	H	0.542730	-0.000057	0.252317
N50	N	1.136342	-0.640882	0.060108
H51	H	1.131571	-0.706995	0.111036
H52	H	1.161435	-0.698840	0.009739
H53	H	1.039687	-0.629363	-0.018925
H54	H	1.039342	-0.373126	-0.019550
H55	H	1.118130	-0.000065	-0.483168
H56	H	1.120897	-0.000091	-0.325851
H57	H	0.879631	-0.370505	0.031695
N58	N	0.875451	-0.638660	0.009847
H59	H	0.866315	-0.550402	-0.026634
H60	H	0.923388	-0.700150	-0.017480
N61	N	0.939636	-0.356770	0.270410
H62	H	0.897986	-0.289351	0.246965
H63	H	0.909271	-0.443278	0.299863
H64	H	0.385413	-0.000070	0.249550
H65	H	0.843232	-0.627100	0.141810
H66	H	0.843125	-0.372668	0.142849
N67	N	0.933308	-0.639492	0.267860
H68	H	0.892229	-0.704649	0.241949
H69	H	0.960518	-0.698245	0.310784
H70	H	1.061409	-0.628979	0.218933
H71	H	0.843295	-0.000045	-0.447127
N72	N	0.826237	-0.000047	-0.275698
H73	H	0.777538	-0.000045	-0.310026
H74	H	0.823571	-0.091493	-0.239290
