data_functionalizedCrystal
_audit_creation_method	'MofGen! by Chris Wilmer'
_symmetry_space_group_name_H-M	'P1'
_symmetry_Int_Tables_number	1
_symmetry_cell_setting	triclinic
loop_
_symmetry_equiv_pos_as_xyz
  x,y,z
_cell_length_a	14.519710
_cell_length_b	14.519709
_cell_length_c	12.996460
_cell_angle_alpha	90.007090
_cell_angle_beta	89.995361
_cell_angle_gamma	96.319855
loop_
_atom_site_label
_atom_site_type_symbol
_atom_site_fract_x
_atom_site_fract_y
_atom_site_fract_z
O1	O	1.223869	-0.120893	-0.085547
O2	O	1.473869	0.129107	0.164453
O3	O	1.723869	0.379107	0.414453
O4	O	1.973869	0.629107	0.664453
O5	O	0.955392	-0.135129	-0.085554
O6	O	1.205392	0.114871	0.164446
O7	O	1.455392	0.364871	0.414446
O8	O	1.705392	0.614871	0.664446
O9	O	1.096749	0.006227	-0.085541
O10	O	1.346749	0.256227	0.164459
O11	O	1.596749	0.506227	0.414459
O12	O	1.846749	0.756227	0.664459
O13	O	1.082512	-0.262250	-0.085560
O14	O	1.332512	-0.012250	0.164440
O15	O	1.582512	0.237750	0.414440
O16	O	1.832512	0.487750	0.664440
O17	O	1.096734	0.006235	0.085593
O18	O	1.346734	0.256235	0.335593
O19	O	1.596734	0.506235	0.585593
O20	O	1.846734	0.756235	0.835593
O21	O	0.955377	-0.135122	0.085580
O22	O	1.205377	0.114878	0.335580
O23	O	1.455377	0.364878	0.585580
O24	O	1.705377	0.614878	0.835580
O25	O	1.223854	-0.120885	0.085587
O26	O	1.473854	0.129115	0.335587
O27	O	1.723854	0.379115	0.585587
O28	O	1.973854	0.629115	0.835587
Cu29	Cu	1.089614	-0.128003	0.101209
Cu30	Cu	1.339614	0.121997	0.351209
Cu31	Cu	1.589614	0.371997	0.601209
Cu32	Cu	1.839614	0.621997	0.851209
Cu33	Cu	1.089632	-0.128012	-0.101176
Cu34	Cu	1.339632	0.121988	0.148824
Cu35	Cu	1.589632	0.371988	0.398824
Cu36	Cu	1.839632	0.621988	0.648824
O37	O	1.082497	-0.262242	0.085574
O38	O	1.332497	-0.012242	0.335574
O39	O	1.582497	0.237758	0.585574
O40	O	1.832497	0.487758	0.835574
C41	C	0.921025	-0.134462	0.000012
C42	C	1.171025	0.115538	0.250012
C43	C	1.421025	0.365538	0.500012
C44	C	1.671025	0.615538	0.750012
C45	C	0.818643	-0.132474	0.000010
C46	C	1.068643	0.117526	0.250010
C47	C	1.318643	0.367526	0.500010
C48	C	1.568643	0.617526	0.750010
C49	C	1.258221	-0.121553	0.000019
C50	C	1.508221	0.128447	0.250019
C51	C	1.758221	0.378447	0.500019
C52	C	2.008221	0.628447	0.750019
C53	C	1.360602	-0.123541	0.000015
C54	C	1.610602	0.126459	0.250015
C55	C	1.860602	0.376459	0.500015
C56	C	2.110602	0.626459	0.750015
C57	C	1.096078	0.040591	0.000026
C58	C	1.346078	0.290591	0.250026
C59	C	1.596078	0.540591	0.500026
C60	C	1.846078	0.790591	0.750026
C61	C	1.094090	0.142972	0.000027
C62	C	1.344090	0.392972	0.250027
C63	C	1.594090	0.642972	0.500027
C64	C	1.844090	0.892972	0.750027
N65	N	1.089609	-0.127996	0.243557
N66	N	1.339609	0.122004	0.493557
N67	N	1.589609	0.372004	0.743557
N68	N	1.839609	0.622004	0.993557
C69	C	1.735498	-0.130860	0.000014
C70	C	1.985498	0.119140	0.250014
C71	C	2.235498	0.369140	0.500014
C72	C	2.485498	0.619140	0.750014
C73	C	1.631190	-0.128828	0.000014
C74	C	1.881190	0.121172	0.250014
C75	C	2.131190	0.371172	0.500014
C76	C	2.381190	0.621172	0.750014
C77	C	1.548054	-0.127201	0.000013
C78	C	1.798054	0.122799	0.250013
C79	C	2.048054	0.372799	0.500013
C80	C	2.298054	0.622799	0.750013
C81	C	1.443739	-0.125168	0.000015
C82	C	1.693739	0.124832	0.250015
C83	C	1.943739	0.374832	0.500015
C84	C	2.193739	0.624832	0.750015
C85	C	1.083168	-0.296606	0.000005
C86	C	1.333168	-0.046606	0.250005
C87	C	1.583168	0.203394	0.500005
C88	C	1.833168	0.453394	0.750005
C89	C	1.085156	-0.398987	-0.000002
C90	C	1.335156	-0.148987	0.249998
C91	C	1.585156	0.101013	0.499998
C92	C	1.835156	0.351013	0.749998
C93	C	1.086770	0.517868	-0.000000
C94	C	1.336770	0.767868	0.250000
C95	C	1.586770	1.017868	0.500000
C96	C	1.836770	1.267868	0.750000
C97	C	1.088803	0.413560	0.000008
C98	C	1.338803	0.663560	0.250008
C99	C	1.588803	0.913560	0.500008
C100	C	1.838803	1.163560	0.750008
C101	C	1.090430	0.330423	0.000014
C102	C	1.340430	0.580423	0.250014
C103	C	1.590430	0.830423	0.500014
C104	C	1.840430	1.080423	0.750014
C105	C	1.092463	0.226109	0.000020
C106	C	1.342463	0.476109	0.250020
C107	C	1.592463	0.726109	0.500020
C108	C	1.842463	0.976109	0.750020
N109	N	1.089644	-0.128012	-0.243523
N110	N	1.339644	0.121988	0.006477
N111	N	1.589644	0.371988	0.256477
N112	N	1.839644	0.621988	0.506477
C113	C	1.089630	-0.128013	0.663371
C114	C	1.339630	0.121987	0.913371
C115	C	1.589630	0.371987	1.163371
C116	C	1.839630	0.621987	1.413371
C117	C	1.089622	-0.128011	0.546566
C118	C	1.339622	0.121989	0.796566
C119	C	1.589622	0.371989	1.046566
C120	C	1.839622	0.621989	1.296566
C121	C	1.089620	-0.128005	0.453467
C122	C	1.339620	0.121995	0.703467
C123	C	1.589620	0.371995	0.953467
C124	C	1.839620	0.621995	1.203467
C125	C	1.089610	-0.128002	0.336655
C126	C	1.339610	0.121998	0.586655
C127	C	1.589610	0.371998	0.836655
C128	C	1.839610	0.621998	1.086655
