data_functionalizedCrystal
_audit_creation_method	'MofGen! by Chris Wilmer'
_symmetry_space_group_name_H-M	'P1'
_symmetry_Int_Tables_number	1
_symmetry_cell_setting	triclinic
loop_
_symmetry_equiv_pos_as_xyz
  x,y,z
_cell_length_a	15.944493
_cell_length_b	18.266242
_cell_length_c	15.944551
_cell_angle_alpha	90.007297
_cell_angle_beta	83.486891
_cell_angle_gamma	90.008470
loop_
_atom_site_label
_atom_site_type_symbol
_atom_site_fract_x
_atom_site_fract_y
_atom_site_fract_z
O1	O	1.114560	0.060873	0.108101
O2	O	0.870004	0.060877	0.121509
O3	O	0.998960	0.060868	-0.007471
O4	O	0.985603	0.060881	0.237081
O5	O	0.998938	-0.060894	-0.007478
O6	O	0.869982	-0.060885	0.121502
O7	O	1.114538	-0.060889	0.108095
Zn8	Zn	0.992256	-0.080220	0.114797
Zn9	Zn	0.992285	0.080207	0.114806
O10	O	0.985582	-0.060881	0.237075
C11	C	0.838698	-0.000004	0.120957
C12	C	0.745449	-0.000003	0.119314
N13	N	0.992243	-0.189707	0.114791
C14	C	0.509689	0.000002	0.195235
C15	C	0.459120	-0.060038	0.154291
C16	C	0.574728	-0.000004	0.116270
C17	C	0.459146	0.060009	0.154279
C18	C	0.409819	-0.000003	0.113336
C19	C	0.525387	-0.060094	0.075347
C20	C	0.525417	0.060007	0.075347
C21	C	0.474880	-0.000048	0.034345
C22	C	0.669728	-0.000006	0.117963
C23	C	0.314821	-0.000006	0.111637
C24	C	1.049363	-0.228019	0.057707
C25	C	1.049369	-0.304664	0.057703
C26	C	0.992262	-0.342993	0.114797
C27	C	0.935130	-0.304672	0.171886
C28	C	0.935121	-0.228028	0.171883
N29	N	0.981574	-0.463322	0.189123
N30	N	0.981588	-0.536130	0.189124
C31	C	0.992285	-0.573916	0.114810
N32	N	1.002984	-0.536143	0.040493
N33	N	1.002975	-0.463329	0.040493
C34	C	0.992265	-0.426100	0.114807
C35	C	1.049415	-0.695336	0.057717
C36	C	1.049414	-0.771982	0.057711
C37	C	0.935180	-0.771988	0.171902
C38	C	0.935176	-0.695343	0.171900
C39	C	0.992298	-0.657022	0.114808
C40	C	1.145844	-0.000007	0.108646
C41	C	1.239092	-0.000003	0.110289
C42	C	0.998395	-0.000013	-0.038768
C43	C	0.996732	-0.000013	-0.132014
N44	N	0.992305	0.189694	0.114806
C45	C	0.912826	-0.000002	-0.346853
C46	C	0.951778	-0.060039	-0.407882
C47	C	0.993725	-0.000008	-0.302739
C48	C	0.951819	0.060009	-0.407859
C49	C	0.990814	0.000001	-0.467651
C50	C	1.032700	-0.060094	-0.362540
C51	C	1.032729	0.060008	-0.362510
C52	C	1.071741	-0.000044	-0.423521
C53	C	0.995399	-0.000013	-0.207737
C54	C	0.989146	0.000001	-0.562652
C55	C	0.986147	0.000002	0.268372
C56	C	0.987809	0.000007	0.361617
H57	H	0.430174	-0.110794	0.187636
H58	H	0.888666	-0.664147	0.218387
N59	N	0.561546	-0.123833	0.033537
N60	N	0.639475	-0.134132	0.028097
H61	H	0.665014	-0.179147	-0.001429
H62	H	1.066879	-0.110906	-0.342559
H63	H	1.095885	-0.335864	0.011216
H64	H	0.845675	-0.000061	-0.313532
H65	H	0.888631	-0.335883	0.218372
H66	H	1.138950	-0.000079	-0.456694
H67	H	0.917552	-0.110794	-0.427986
N68	N	0.455486	-0.000099	-0.051051
N69	N	0.479889	-0.051693	-0.099257
H70	H	0.466191	-0.051733	-0.159568
H71	H	1.066926	0.110765	-0.342384
N72	N	0.908890	0.123674	-0.433062
N73	N	0.844556	0.117003	-0.470510
H74	H	0.814232	0.161963	-0.488309
N75	N	0.529296	-0.000074	0.280561
N76	N	0.505033	-0.051705	0.328765
H77	H	0.518883	-0.051763	0.389025
H78	H	0.554372	0.110765	0.042027
H79	H	1.095925	-0.664133	0.011226
H80	H	0.888605	-0.196833	0.218368
H81	H	0.430217	0.110762	0.187645
H82	H	1.095874	-0.196820	0.011217
H83	H	0.888678	-0.803195	0.218387
N84	N	1.107764	-0.811109	-0.000615
N85	N	1.158755	-0.776880	-0.051583
H86	H	1.199966	-0.804514	-0.092778
