data_functionalizedCrystal
_audit_creation_method	'MofGen! by Chris Wilmer'
_symmetry_space_group_name_H-M	'P1'
_symmetry_Int_Tables_number	1
_symmetry_cell_setting	triclinic
loop_
_symmetry_equiv_pos_as_xyz
  x,y,z
_cell_length_a	14.971486
_cell_length_b	13.339070
_cell_length_c	14.048226
_cell_angle_alpha	89.996915
_cell_angle_beta	89.998499
_cell_angle_gamma	99.621712
loop_
_atom_site_label
_atom_site_type_symbol
_atom_site_fract_x
_atom_site_fract_y
_atom_site_fract_z
O1	O	1.219550	0.131873	-0.079045
O2	O	0.963054	0.147665	-0.079070
O3	O	1.061865	-0.007530	-0.079057
O4	O	1.120740	0.287068	-0.079057
O5	O	1.061846	-0.007539	0.079264
O6	O	0.963035	0.147656	0.079251
O7	O	1.219531	0.131864	0.079276
Zn8	Zn	1.091280	0.139758	0.104401
Zn9	Zn	1.091305	0.139770	-0.104194
O10	O	1.120721	0.287059	0.079264
C11	C	0.929545	0.146954	0.000087
C12	C	0.829725	0.144838	0.000077
C13	C	0.795041	0.236011	0.000079
C14	C	0.701248	0.234016	0.000093
C15	C	0.642141	0.140847	0.000099
C16	C	0.676832	0.049667	0.000101
C17	C	0.770623	0.051663	0.000093
C18	C	0.481342	0.045514	0.000114
C19	C	0.387545	0.043518	0.000119
C20	C	0.411968	0.227867	0.000114
C21	C	0.505759	0.229863	0.000106
C22	C	0.540442	0.138682	0.000106
C23	C	1.051910	-0.045236	0.000101
C24	C	1.022266	-0.157574	0.000094
C25	C	1.252762	-0.522088	0.000117
C26	C	1.280617	-0.416541	0.000129
C27	C	1.216032	-0.351794	0.000120
C28	C	1.123587	-0.392604	0.000100
C29	C	1.095729	-0.498161	0.000096
C30	C	1.058999	-0.327867	0.000098
C31	C	0.966554	-0.368677	0.000078
C32	C	0.938701	-0.474224	0.000073
C33	C	1.003286	-0.538970	0.000082
C34	C	1.086856	-0.222311	0.000102
C35	C	0.929823	-0.198383	0.000081
C36	C	0.901968	-0.303930	0.000069
C37	C	1.253040	0.132575	0.000117
C38	C	1.352860	0.134691	0.000121
C39	C	1.130675	0.324765	0.000103
C40	C	1.160319	0.437102	0.000104
N41	N	1.091270	0.139749	0.246761
N42	N	1.091321	0.139771	-0.246555
C43	C	1.135049	0.071057	0.296585
C44	C	1.135055	0.071057	0.396243
C45	C	1.091287	0.139754	0.446075
C46	C	1.047502	0.208449	0.396244
C47	C	1.047491	0.208444	0.296589
C48	C	1.047529	0.208457	0.603959
C49	C	1.047541	0.208463	0.703621
C50	C	1.135094	0.071069	0.703613
C51	C	1.135083	0.071064	0.603957
C52	C	1.091299	0.139761	0.554133
H53	H	0.553882	0.305729	0.000092
H54	H	0.509578	-0.028735	0.000115
Cl55	Cl	1.190081	-0.015306	0.233949
Cl56	Cl	0.602526	-0.067460	0.000114
Cl57	Cl	0.869338	0.353144	0.000065
Cl58	Cl	1.251051	-0.219106	0.000129
Cl59	Cl	0.313240	-0.073610	0.000159
Cl60	Cl	1.203068	-0.171020	0.000127
Cl61	Cl	1.190137	-0.015289	0.766251
H62	H	0.798860	-0.022579	0.000091
Cl63	Cl	0.368366	0.342494	0.000116
H64	H	1.355886	-0.383322	0.000147
H65	H	1.305338	-0.574813	0.000132
H66	H	0.980611	-0.624916	0.000069
Cl67	Cl	0.822484	-0.525524	0.000062
Cl68	Cl	0.785755	-0.355246	0.000042
Cl69	Cl	0.848624	-0.116995	0.000076
Cl70	Cl	1.190092	-0.015301	0.458880
Cl71	Cl	1.190113	-0.015292	0.541309
Cl72	Cl	0.992447	0.294800	0.233954
Cl73	Cl	0.992513	0.294827	0.766260
H74	H	1.011859	0.264380	0.436824
Cl75	Cl	0.657649	0.348639	0.000089
Cl76	Cl	0.992482	0.294818	0.541327
