data_functionalizedCrystal
_audit_creation_method	'MofGen! by Chris Wilmer'
_symmetry_space_group_name_H-M	'P1'
_symmetry_Int_Tables_number	1
_symmetry_cell_setting	triclinic
loop_
_symmetry_equiv_pos_as_xyz
  x,y,z
_cell_length_a	6.817900
_cell_length_b	17.982783
_cell_length_c	17.982968
_cell_angle_alpha	95.926085
_cell_angle_beta	102.451960
_cell_angle_gamma	102.448572
loop_
_atom_site_label
_atom_site_type_symbol
_atom_site_fract_x
_atom_site_fract_y
_atom_site_fract_z
V1	V	-4.009918	-0.106127	-0.237867
O2	O	-4.003034	0.004365	-0.233013
O3	O	-3.956470	-0.209725	-0.236553
O4	O	-3.956489	-0.104816	-0.341466
O5	O	-4.003015	-0.101269	-0.127374
V6	V	-4.494852	-0.092872	-0.224613
O7	O	-4.268082	-0.135201	-0.266940
O8	O	-4.686885	-0.063798	-0.195540
O9	O	-4.325093	0.010726	-0.225927
O10	O	-4.619133	-0.203364	-0.229466
O11	O	-4.619152	-0.097730	-0.335106
O12	O	-4.325074	-0.094183	-0.121014
C13	C	-3.800406	-0.234970	-0.232881
C14	C	-3.837959	-0.319665	-0.232498
C15	C	-3.819323	-0.348365	-0.162514
C16	C	-3.854628	-0.427945	-0.162156
C17	C	-3.908554	-0.478825	-0.231782
C18	C	-3.927196	-0.450120	-0.301772
C19	C	-3.891906	-0.370541	-0.302129
C20	C	-4.069522	-0.771054	-0.300333
C21	C	-4.104806	-0.850638	-0.299970
C22	C	-4.032244	-0.828458	-0.160359
C23	C	-3.996953	-0.748879	-0.160716
C24	C	-4.015609	-0.720182	-0.230705
C25	C	-3.977331	-0.633891	-0.231093
C26	C	-3.946818	-0.565113	-0.231396
C27	C	-3.800429	-0.101148	-0.366707
C28	C	-3.837995	-0.100762	-0.451402
C29	C	-4.037378	-0.104398	-0.495085
C30	C	-4.072664	-0.104036	-0.574664
C31	C	-3.908566	-0.100041	-0.610561
C32	C	-3.709166	-0.096402	-0.566872
C33	C	-3.673880	-0.096760	-0.487293
C34	C	-3.851463	-0.094959	-0.887805
C35	C	-3.886766	-0.094604	-0.967390
C36	C	-4.250247	-0.102235	-0.975176
C37	C	-4.214961	-0.102593	-0.895597
C38	C	-4.015563	-0.098949	-0.851915
C39	C	-3.977304	-0.099342	-0.765625
C40	C	-3.946825	-0.099655	-0.696849
C41	C	-4.144500	0.035967	-0.229596
C42	C	-4.086185	0.120661	-0.229985
C43	C	-4.144477	-0.097854	-0.095769
C44	C	-4.086149	-0.098236	-0.011073
H45	H	-3.907104	-0.347176	-0.359118
H46	H	-3.839456	-0.451308	-0.105168
H47	H	-3.511515	-0.093780	-0.451724
O48	O	-4.196570	-0.108175	-0.460116
C49	C	-4.333286	-0.046641	-0.364289
C50	C	-4.152833	-0.042279	-0.403811
H51	H	-4.298008	0.006637	-0.318769
H52	H	-4.353689	-0.100556	-0.335683
H53	H	-4.481842	-0.049213	-0.409202
H54	H	-4.004173	-0.039677	-0.358945
H55	H	-4.132613	0.011628	-0.432433
O56	O	-3.727460	-0.090617	-1.002330
C57	C	-3.521836	-0.019412	-1.077086
C58	C	-3.702306	-0.023842	-1.037565
H59	H	-3.501413	0.034580	-1.105570
H60	H	-3.557075	-0.072609	-1.122704
H61	H	-3.373303	-0.016905	-1.032188
H62	H	-3.850914	-0.026324	-1.082406
H63	H	-3.666889	0.029354	-0.991933
H64	H	-3.953034	-0.707455	-0.104019
O65	O	-3.657926	-0.091612	-0.845365
C66	C	-3.441735	-0.154139	-0.761733
C67	C	-3.661037	-0.157966	-0.809721
H68	H	-3.444168	-0.207787	-0.732914
H69	H	-3.387955	-0.100588	-0.715685
H70	H	-3.330684	-0.151227	-0.801124
H71	H	-3.772240	-0.160907	-0.770391
H72	H	-3.714644	-0.211509	-0.855776
H73	H	-3.775397	-0.306943	-0.105815
H74	H	-4.017064	-0.851832	-0.103370
H75	H	-4.148719	-0.892063	-0.356672
H76	H	-4.348592	-0.105849	-0.866375
H77	H	-4.084688	-0.747698	-0.357321
O78	O	-3.979508	-0.499647	-0.369337
C79	C	-4.066141	-0.632073	-0.430666
C80	C	-4.006873	-0.576071	-0.354091
H81	H	-4.088325	-0.693874	-0.418368
H82	H	-3.937563	-0.618963	-0.462242
H83	H	-4.216567	-0.624835	-0.468088
H84	H	-3.856498	-0.583278	-0.316610
H85	H	-4.135575	-0.589196	-0.322575
H86	H	-3.575555	-0.093146	-0.596104
O87	O	-4.266314	-0.107669	-0.617189
C88	C	-4.551653	-0.178058	-0.722056
C89	C	-4.332315	-0.174030	-0.673974
H90	H	-4.605100	-0.231715	-0.767967
H91	H	-4.549507	-0.124524	-0.751050
H92	H	-4.662800	-0.180939	-0.682704
H93	H	-4.221044	-0.171173	-0.713274
H94	H	-4.334629	-0.227563	-0.644972
H95	H	-4.412608	-0.105199	-1.010752
