data_functionalizedCrystal
_audit_creation_method	'MofGen! by Chris Wilmer'
_symmetry_space_group_name_H-M	'P1'
_symmetry_Int_Tables_number	1
_symmetry_cell_setting	triclinic
loop_
_symmetry_equiv_pos_as_xyz
  x,y,z
_cell_length_a	12.759401
_cell_length_b	15.299816
_cell_length_c	12.759393
_cell_angle_alpha	99.650122
_cell_angle_beta	89.981433
_cell_angle_gamma	80.349384
loop_
_atom_site_label
_atom_site_type_symbol
_atom_site_fract_x
_atom_site_fract_y
_atom_site_fract_z
Zn1	Zn	1.678549	-0.359025	-0.666404
Zn2	Zn	1.708818	-0.509869	-0.521151
Zn3	Zn	1.502860	-0.359070	-0.490752
Zn4	Zn	1.533200	-0.509797	-0.696778
O5	O	1.605857	-0.434440	-0.593771
O6	O	1.829588	-0.379047	-0.647146
O7	O	1.681468	-0.489914	-0.370107
O8	O	1.500801	-0.232855	-0.488619
O9	O	1.851826	-0.489871	-0.540430
O10	O	1.629879	-0.232823	-0.617669
O11	O	1.530151	-0.379122	-0.347773
O12	O	1.359861	-0.379052	-0.518071
O13	O	1.552510	-0.489748	-0.839760
O14	O	1.382152	-0.489791	-0.669437
O15	O	1.659298	-0.378977	-0.817444
O16	O	1.710886	-0.636068	-0.569882
O17	O	1.581860	-0.636015	-0.698914
C18	C	1.332885	-0.434419	-0.593752
C19	C	1.216111	-0.434432	-0.593774
C20	C	1.149685	-0.376835	-0.649467
C21	C	1.039964	-0.376852	-0.649477
C22	C	1.063108	-0.492071	-0.538099
C23	C	1.172825	-0.492049	-0.538083
C24	C	1.192971	-0.319217	-0.705157
C25	C	1.126543	-0.261616	-0.760856
C26	C	1.016823	-0.261633	-0.760866
C27	C	0.973529	-0.319252	-0.705177
C28	C	1.652979	-0.668766	-0.641016
C29	C	1.673234	-0.769011	-0.661263
C30	C	1.461780	-1.051953	-0.449422
C31	C	1.442744	-0.957767	-0.430402
C32	C	1.500365	-0.910574	-0.488115
C33	C	1.577025	-0.957575	-0.564852
C34	C	1.596057	-1.051770	-0.583880
C35	C	1.634642	-0.910391	-0.622573
C36	C	1.711302	-0.957392	-0.699311
C37	C	1.730331	-1.051577	-0.718335
C38	C	1.672710	-1.098771	-0.660621
C39	C	1.615610	-0.816196	-0.603545
C40	C	1.749887	-0.816013	-0.738004
C41	C	1.768923	-0.910198	-0.757024
C42	C	1.879894	-0.434462	-0.593791
C43	C	1.996673	-0.434472	-0.593799
C44	C	1.605912	-0.434349	-0.867786
C45	C	1.605936	-0.434311	-0.984555
C46	C	1.558580	-0.199200	-0.546365
C47	C	1.538433	-0.098954	-0.526163
C48	C	1.661548	-0.376627	-1.027798
C49	C	1.661567	-0.376594	-1.137516
C50	C	1.550358	-0.491937	-1.160739
C51	C	1.550334	-0.491965	-1.051023
C52	C	1.717149	-0.318973	-0.961330
C53	C	1.772767	-0.261285	-1.004573
C54	C	1.772786	-0.261252	-1.114290
C55	C	1.717186	-0.318907	-1.180766
C56	C	1.605849	-0.434466	-0.320809
C57	C	1.605978	-0.434251	-0.203989
H58	H	1.027849	-0.538983	-0.492762
C59	C	1.129617	-0.108945	-0.781548
C60	C	1.174126	-0.198282	-0.822064
H61	H	1.158997	-0.069846	-0.819334
H62	H	1.054776	-0.100719	-0.789528
H63	H	1.144909	-0.095681	-0.708306
H64	H	1.158827	-0.211548	-0.895304
H65	H	1.248985	-0.206512	-0.814094
C66	C	0.974306	-0.217898	-0.930038
C67	C	0.943803	-0.198320	-0.822086
H68	H	0.929223	-0.178815	-0.967836
H69	H	1.045836	-0.209638	-0.937991
H70	H	0.968528	-0.278518	-0.957502
H71	H	0.949589	-0.137703	-0.794621
H72	H	0.872255	-0.206573	-0.814128
C73	C	0.833644	-0.405102	-0.749100
C74	C	0.852922	-0.319272	-0.705180
H75	H	0.759188	-0.405116	-0.749097
H76	H	0.861636	-0.420751	-0.820017
H77	H	0.867021	-0.447646	-0.707957
H78	H	0.819552	-0.276729	-0.746328
H79	H	0.824917	-0.303612	-0.634251
H80	H	1.414868	-1.090387	-0.402445
C81	C	1.573056	-0.775602	-0.434155
C82	C	1.479450	-0.807043	-0.467207
H83	H	1.560144	-0.711684	-0.421250
H84	H	1.595554	-0.796942	-0.370688
H85	H	1.626948	-0.796847	-0.488125
H86	H	1.425560	-0.785804	-0.413234
H87	H	1.456938	-0.785694	-0.530682
C88	C	1.861165	-1.041934	-0.849313
C89	C	1.814600	-1.103243	-0.802680
H90	H	1.913195	-1.073831	-0.901377
H91	H	1.807953	-1.005208	-0.882052
H92	H	1.893942	-1.005193	-0.796136
H93	H	1.781816	-1.139979	-0.855857
H94	H	1.867820	-1.139984	-0.769942
C95	C	1.529890	-0.644694	-1.047975
C96	C	1.489236	-0.555385	-1.003469
H97	H	1.492177	-0.683848	-1.018607
H98	H	1.521926	-0.652931	-1.122818
H99	H	1.603136	-0.657876	-1.032665
H100	H	1.415991	-0.542201	-1.018786
H101	H	1.497190	-0.547145	-0.928609
C102	C	1.184693	-0.605956	-0.428013
C103	C	1.245851	-0.555369	-0.476876
H104	H	1.229779	-0.645051	-0.390231
H105	H	1.133967	-0.566633	-0.379972
H106	H	1.148868	-0.640506	-0.480703
H107	H	1.281670	-0.520814	-0.424185
H108	H	1.296596	-0.594697	-0.524921
H109	H	1.553192	-0.777936	-0.541066
C110	C	1.311946	-0.967417	-0.299399
C111	C	1.358496	-0.906107	-0.346045
H112	H	1.259939	-0.935521	-0.247311
H113	H	1.279152	-1.004147	-0.352557
H114	H	1.365179	-1.004153	-0.266679
H115	H	1.305264	-0.869375	-0.378773
H116	H	1.391290	-0.869361	-0.292879
H117	H	1.831339	-0.948480	-0.819505
H118	H	1.282309	-0.319197	-0.705155
H119	H	1.688208	-1.175465	-0.676100
H120	H	1.796805	-0.777588	-0.785001
C121	C	1.612590	-0.296085	-0.799496
C122	C	1.717151	-0.319055	-0.840738
H123	H	1.612601	-0.296158	-0.725052
H124	H	1.582742	-0.237863	-0.812532
H125	H	1.571521	-0.338666	-0.832925
H126	H	1.758218	-0.276470	-0.807314
H127	H	1.747014	-0.377285	-0.827693
C128	C	1.793290	-0.108527	-1.117295
C129	C	1.833916	-0.197838	-1.161818
H130	H	1.831039	-0.069381	-1.146630
H131	H	1.720060	-0.095319	-1.132618
H132	H	1.801236	-0.100311	-1.042439
H133	H	1.825962	-0.206057	-1.236673
H134	H	1.907163	-0.211051	-1.146502
H135	H	1.717191	-0.318866	-1.270102
C136	C	1.501033	-0.543118	-1.339243
C137	C	1.489260	-0.555319	-1.233809
H138	H	1.463320	-0.582255	-1.384352
H139	H	1.473478	-0.482523	-1.345016
H140	H	1.574286	-0.556316	-1.359872
H141	H	1.416007	-0.542114	-1.213178
H142	H	1.516811	-0.615928	-1.228032
H143	H	1.818027	-0.214338	-0.950440
