data_functionalizedCrystal
_audit_creation_method	'MofGen! by Chris Wilmer'
_symmetry_space_group_name_H-M	'P1'
_symmetry_Int_Tables_number	1
_symmetry_cell_setting	triclinic
loop_
_symmetry_equiv_pos_as_xyz
  x,y,z
_cell_length_a	15.995292
_cell_length_b	8.559649
_cell_length_c	7.088929
_cell_angle_alpha	84.655815
_cell_angle_beta	83.798836
_cell_angle_gamma	103.376360
loop_
_atom_site_label
_atom_site_type_symbol
_atom_site_fract_x
_atom_site_fract_y
_atom_site_fract_z
O1	O	1.088145	-0.221956	0.159029
O2	O	0.842722	-0.247486	0.159020
O3	O	0.987056	-0.002110	0.159024
O4	O	0.943811	-0.467332	0.159026
O5	O	1.006349	0.030756	-0.158951
O6	O	0.862015	-0.214620	-0.158954
O7	O	1.107439	-0.189090	-0.158946
Cu8	Cu	0.986489	-0.198854	-0.187984
Cu9	Cu	0.963672	-0.237722	0.188058
O10	O	0.963105	-0.434466	-0.158949
C11	C	0.821240	-0.230014	0.000032
C12	C	0.728488	-0.226898	0.000029
C13	C	0.391484	-0.215448	0.000051
C14	C	0.403365	-0.392627	0.000761
C15	C	0.499868	-0.395919	0.000037
C16	C	0.558675	-0.221130	0.000041
C17	C	0.546284	-0.113818	-0.181532
C18	C	0.449640	-0.111671	-0.181676
C19	C	0.428077	-0.145429	0.179921
C20	C	0.524002	-0.152240	0.182312
C21	C	0.653166	-0.224331	0.000029
C22	C	0.296995	-0.212240	0.000049
C23	C	0.999979	0.073853	0.000040
C24	C	1.009734	0.251236	0.000051
C25	C	1.128920	-0.206563	0.000047
C26	C	1.221672	-0.209679	0.000062
C27	C	0.950181	-0.510430	0.000039
C28	C	0.940426	-0.687814	0.000041
N29	N	1.002543	-0.171515	-0.452471
N30	N	0.947625	-0.265048	0.452546
H31	H	0.506538	-0.478708	0.130200
H32	H	1.059468	-0.074594	-0.534126
O33	O	0.879794	-0.380890	-0.450152
C34	C	0.886278	-0.534012	-0.498956
H35	H	0.956606	-0.529009	-0.554079
H36	H	0.863605	-0.627725	-0.367233
H37	H	0.843869	-0.569123	-0.615016
H38	H	0.521696	-0.452205	-0.130343
O39	O	1.089366	0.351095	0.000133
C40	C	1.081713	0.511922	0.000065
H41	H	1.012679	0.511916	0.060255
H42	H	1.129058	0.578016	0.092380
H43	H	1.097215	0.575882	-0.152488
O44	O	0.355218	-0.489932	0.156152
C45	C	0.310092	-0.399223	0.266652
H46	H	0.302821	-0.288949	0.172571
H47	H	0.243161	-0.477451	0.328677
H48	H	0.347800	-0.357921	0.388062
O49	O	0.372793	-0.457820	-0.153510
C50	C	0.305544	-0.597653	-0.091211
H51	H	0.276029	-0.591289	0.060771
H52	H	0.253431	-0.605344	-0.190063
H53	H	0.332791	-0.709396	-0.093965
H54	H	0.427115	-0.158964	-0.317409
H55	H	0.586833	0.015501	-0.188281
O56	O	0.442924	0.044302	-0.191274
C57	C	0.474171	0.113400	-0.031775
H58	H	0.520615	0.044413	0.027220
H59	H	0.509769	0.245439	-0.076968
H60	H	0.417397	0.106223	0.083397
H61	H	0.387839	-0.215011	0.317543
O62	O	0.575406	-0.170530	-0.342611
C63	C	0.664192	-0.166066	-0.345117
H64	H	0.681157	-0.167299	-0.192965
H65	H	0.678522	-0.276206	-0.408464
H66	H	0.704689	-0.051086	-0.435949
H67	H	0.530275	-0.230593	0.316639
O68	O	0.572467	-0.001486	0.195316
C69	C	0.659130	-0.007663	0.206632
H70	H	0.672070	-0.118393	0.142367
H71	H	0.704679	0.106398	0.123944
H72	H	0.670721	-0.015985	0.362730
O73	O	0.421138	0.009840	0.181502
C74	C	0.333244	0.013852	0.188385
H75	H	0.290382	-0.109889	0.250993
H76	H	0.319657	0.108818	0.282014
H77	H	0.318619	0.045870	0.037719
H78	H	0.873626	0.228663	0.000032
