data_functionalizedCrystal
_audit_creation_method	'MofGen! by Chris Wilmer'
_symmetry_space_group_name_H-M	'P1'
_symmetry_Int_Tables_number	1
_symmetry_cell_setting	triclinic
loop_
_symmetry_equiv_pos_as_xyz
  x,y,z
_cell_length_a	19.805407
_cell_length_b	16.120297
_cell_length_c	19.805405
_cell_angle_alpha	87.131250
_cell_angle_beta	89.973590
_cell_angle_gamma	92.877318
loop_
_atom_site_label
_atom_site_type_symbol
_atom_site_fract_x
_atom_site_fract_y
_atom_site_fract_z
Zn1	Zn	1.015336	-0.471386	0.288886
Zn2	Zn	1.020989	-0.331968	0.396334
Zn3	Zn	0.907888	-0.331988	0.283166
Zn4	Zn	0.902117	-0.471330	0.402036
O5	O	0.961582	-0.401668	0.342605
O6	O	1.110802	-0.452906	0.303147
O7	O	1.010766	-0.215308	0.376542
O8	O	0.922191	-0.350511	0.189209
O9	O	1.114955	-0.350476	0.382089
O10	O	1.001133	-0.452926	0.193412
O11	O	0.927672	-0.215322	0.293397
O12	O	0.812406	-0.350457	0.298926
O13	O	0.912355	-0.588000	0.391807
O14	O	0.808166	-0.452831	0.386260
O15	O	0.995537	-0.588041	0.308676
O16	O	1.005171	-0.350423	0.491806
O17	O	0.917836	-0.452812	0.495995
C18	C	0.785727	-0.401641	0.342591
C19	C	0.710495	-0.401649	0.342602
C20	C	0.672965	-0.454869	0.388139
C21	C	0.602276	-0.454881	0.388140
C22	C	0.569119	-0.401668	0.342609
C23	C	0.606654	-0.348445	0.297067
C24	C	0.677342	-0.348438	0.297063
C25	C	0.321580	-0.348473	0.297084
C26	C	0.250888	-0.348482	0.297093
C27	C	0.246514	-0.454915	0.388161
C28	C	0.317201	-0.454909	0.388156
C29	C	0.354731	-0.401690	0.342613
C30	C	0.431379	-0.401679	0.342611
C31	C	0.492471	-0.401674	0.342613
C32	C	0.952672	-0.619115	0.351515
C33	C	0.948874	-0.711779	0.355312
C34	C	0.941917	-0.881436	0.362229
C35	C	0.981382	-0.922752	0.322779
C36	C	0.977510	-1.017155	0.326628
C37	C	0.945787	-0.787024	0.358381
C38	C	1.138124	-0.401695	0.342620
C39	C	1.213355	-0.401707	0.342626
C40	C	0.961508	-0.401627	0.518460
C41	C	0.961537	-0.401638	0.593692
C42	C	0.970498	-0.185066	0.333682
C43	C	0.974426	-0.092403	0.329694
C44	C	0.961675	-0.401727	0.166065
C45	C	0.961714	-0.401752	0.090834
C46	C	1.007052	-0.348380	0.626835
C47	C	1.007080	-0.348398	0.697524
C48	C	0.961589	-0.401671	0.735069
C49	C	0.916072	-0.454935	0.701922
C50	C	0.916048	-0.454921	0.631234
C51	C	0.916169	-0.454997	0.986997
C52	C	0.916196	-0.455006	1.057690
C53	C	1.007201	-0.348475	1.053288
C54	C	1.007177	-0.348460	0.982600
C55	C	0.961663	-0.401727	0.949459
C56	C	0.961634	-0.401707	0.872810
C57	C	0.961614	-0.401687	0.811717
H58	H	0.699956	-0.498199	0.425218
O59	O	0.898183	-0.923720	0.406062
C60	C	0.913809	-0.902528	0.472675
H61	H	0.942364	-0.839285	0.471552
H62	H	0.946633	-0.951518	0.497427
C63	C	0.812891	-0.976311	0.514902
C64	C	0.847959	-0.898630	0.513523
H65	H	0.772273	-0.973910	0.540100
H66	H	0.802365	-0.990591	0.470024
H67	H	0.840252	-1.017127	0.535527
H68	H	0.820601	-0.857817	0.492891
H69	H	0.858479	-0.884343	0.558399
H70	H	0.571721	-0.498217	0.425221
H71	H	1.018075	-0.887225	0.286114
O72	O	1.051306	-0.296601	0.590470
C73	C	1.091472	-0.249583	0.634884
H74	H	1.092412	-0.283746	0.686657
H75	H	1.069325	-0.186241	0.639851
C76	C	1.162843	-0.195683	0.543165
C77	C	1.164001	-0.237645	0.606752
H78	H	1.207581	-0.188315	0.525811
H79	H	1.135780	-0.227356	0.513242
H80	H	1.144383	-0.142902	0.547313
H81	H	1.182452	-0.290428	0.602602
H82	H	1.191069	-0.205980	0.636674
O83	O	0.210021	-0.506710	0.432304
C84	C	0.166937	-0.560636	0.396049
H85	H	0.188047	-0.565903	0.342962
H86	H	0.114416	-0.534873	0.392631
C87	C	0.136378	-0.640756	0.497978
C88	C	0.162309	-0.647232	0.432777
H89	H	0.133520	-0.694172	0.520634
H90	H	0.165402	-0.604424	0.522404
H91	H	0.092613	-0.619284	0.495120
H92	H	0.206076	-0.668694	0.435636
H93	H	0.133292	-0.683570	0.408352
O94	O	1.051447	-0.296842	0.729705
C95	C	1.093184	-0.344462	0.772430
H96	H	1.094481	-0.410136	0.753792
H97	H	1.072252	-0.347263	0.826172
C98	C	1.163705	-0.223321	0.794575
C99	C	1.165303	-0.303980	0.771679
H100	H	1.208191	-0.198349	0.794115
H101	H	1.135585	-0.191237	0.765793
H102	H	1.146259	-0.225666	0.839358
H103	H	1.182741	-0.301634	0.726895
H104	H	1.193427	-0.336063	0.800454
O105	O	1.051406	-0.296828	1.085591
C106	C	1.041673	-0.308255	1.156032
H107	H	1.016819	-0.372563	1.168315
H108	H	1.007711	-0.258759	1.174122
C109	C	1.141017	-0.221745	1.176864
C110	C	1.110497	-0.300732	1.191951
H111	H	1.183470	-0.217101	1.199021
H112	H	1.147574	-0.214043	1.129406
H113	H	1.112709	-0.180507	1.191939
H114	H	1.138801	-0.341968	1.176868
H115	H	1.103947	-0.308440	1.239407
H116	H	1.044217	-0.305077	0.952033
O117	O	0.349301	-0.506679	0.432411
C118	C	0.301017	-0.553643	0.472614
H119	H	0.250518	-0.556596	0.445020
H120	H	0.294731	-0.523001	0.522727
C121	C	0.387005	-0.638719	0.520003
C122	C	0.324983	-0.642352	0.486109
H123	H	0.401789	-0.693438	0.528330
H124	H	0.419535	-0.607077	0.492919
H125	H	0.381758	-0.613180	0.561760
H126	H	0.330233	-0.667880	0.444349
H127	H	0.292454	-0.674001	0.513186
H128	H	0.352128	-0.305132	0.260004
H129	H	0.879109	-0.498367	0.960019
H130	H	0.223894	-0.305149	0.260011
H131	H	0.579652	-0.305122	0.259992
H132	H	0.879152	-0.498394	1.088258
H133	H	0.879035	-0.498315	0.732497
O134	O	0.871864	-0.506772	0.599114
C135	C	0.883218	-0.589882	0.619740
H136	H	0.909178	-0.591647	0.671116
H137	H	0.916838	-0.617989	0.581073
C138	C	0.783254	-0.638144	0.562002
C139	C	0.815133	-0.640313	0.625106
H140	H	0.741257	-0.669254	0.565309
H141	H	0.775606	-0.582152	0.548103
H142	H	0.811277	-0.661566	0.529786
H143	H	0.787114	-0.616882	0.657318
H144	H	0.822775	-0.696302	0.639010
O145	O	0.713700	-0.296657	0.252808
C146	C	0.669279	-0.249702	0.212611
H147	H	0.618999	-0.246760	0.240213
H148	H	0.660532	-0.280345	0.162499
C149	C	0.762245	-0.164606	0.165211
C150	C	0.700492	-0.160987	0.199114
H151	H	0.781499	-0.109883	0.156881
H152	H	0.792173	-0.196242	0.192290
H153	H	0.754948	-0.190145	0.123454
H154	H	0.707791	-0.135458	0.240873
H155	H	0.670566	-0.129345	0.172041
