data_functionalizedCrystal
_audit_creation_method	'MofGen! by Chris Wilmer'
_symmetry_space_group_name_H-M	'P1'
_symmetry_Int_Tables_number	1
_symmetry_cell_setting	triclinic
loop_
_symmetry_equiv_pos_as_xyz
  x,y,z
_cell_length_a	17.052832
_cell_length_b	23.196402
_cell_length_c	23.196401
_cell_angle_alpha	60.008822
_cell_angle_beta	102.328588
_cell_angle_gamma	67.551810
loop_
_atom_site_label
_atom_site_type_symbol
_atom_site_fract_x
_atom_site_fract_y
_atom_site_fract_z
Zr1	Zr	0.773282	0.630993	0.045627
O2	O	0.645085	0.751261	-0.066521
O3	O	0.812578	0.510727	0.080003
O4	O	0.812542	0.630994	-0.040268
O5	O	0.645152	0.630992	0.148626
O6	O	0.944638	0.630993	-0.019555
O7	O	0.645121	0.630993	0.053750
O8	O	0.944702	0.415857	0.195588
O9	O	0.645089	0.846128	-0.066516
O10	O	0.927923	0.560193	0.110126
O11	O	0.829364	0.560192	0.165473
O12	O	0.829322	0.701791	0.023870
O13	O	0.730764	0.701791	0.079217
Zr14	Zr	0.984010	0.630989	0.229980
Zr15	Zr	0.983960	0.630991	0.078663
Zr16	Zr	0.773332	0.630991	0.196944
Zr17	Zr	0.773287	0.782295	0.045635
Zr18	Zr	0.984005	0.479687	0.229972
O19	O	0.944715	0.751255	0.195604
O20	O	0.944643	0.751258	-0.019549
O21	O	0.645157	0.751257	0.148632
O22	O	1.112207	0.510721	0.342128
O23	O	1.112135	0.510725	0.126975
O24	O	0.812649	0.510724	0.295156
O25	O	1.112140	0.630990	0.126981
O26	O	0.944750	0.630988	0.315875
O27	O	0.812654	0.630989	0.295162
O28	O	1.112171	0.630988	0.221857
O29	O	0.812550	0.846127	-0.040258
O30	O	0.944742	0.415855	0.315864
O31	O	1.112203	0.415854	0.342123
O32	O	1.112163	0.415856	0.221847
O33	O	0.645129	0.846126	0.053760
O34	O	0.812590	0.846125	0.080019
O35	O	0.927970	0.560190	0.251737
O36	O	1.026528	0.560191	0.196390
O37	O	0.927928	0.701790	0.110133
O38	O	0.829370	0.701789	0.165480
C39	C	0.878639	0.441735	0.137794
C40	C	0.878636	0.377503	0.137791
C41	C	0.930076	0.347333	0.108897
C42	C	0.930086	0.286972	0.108904
C43	C	0.878636	0.256795	0.137793
C44	C	0.827194	0.286969	0.166695
C45	C	0.827194	0.347323	0.166694
C46	C	0.792440	0.194766	0.119002
C47	C	0.792437	0.134417	0.118998
C48	C	0.878637	0.070640	0.137800
C49	C	0.964840	0.067227	0.156593
C50	C	0.964840	0.127581	0.156592
C51	C	0.878631	0.191350	0.137798
C52	C	0.930092	-0.024982	0.108913
C53	C	0.930104	-0.085347	0.108925
C54	C	0.827203	-0.085343	0.166710
C55	C	0.827201	-0.024984	0.166704
C56	C	0.878643	0.005196	0.137801
C57	C	0.615119	0.630993	0.096481
C58	C	0.525681	0.630994	0.082457
C59	C	0.273647	0.630985	0.252011
C60	C	0.357682	0.630979	0.265192
C61	C	0.399686	0.630983	0.219510
C62	C	0.357646	0.630992	0.160644
C63	C	0.273607	0.630992	0.147465
C64	C	0.399646	0.630990	0.114963
C65	C	0.357606	0.630999	0.056097
C66	C	0.273575	0.630999	0.042921
C67	C	0.231571	0.630995	0.088604
C68	C	0.483685	0.630990	0.128142
C69	C	0.483645	0.630997	0.023596
C70	C	0.399610	0.631003	0.010415
C71	C	1.142173	0.630989	0.179126
C72	C	1.231611	0.630988	0.193150
C73	C	0.878583	0.630994	-0.051471
C74	C	0.878562	0.630995	-0.115709
C75	C	0.878653	0.820247	0.137813
C76	C	0.878656	0.884479	0.137816
C77	C	0.827098	0.704906	-0.190906
C78	C	0.827123	0.704907	-0.251257
C79	C	0.878598	0.630993	-0.236409
C80	C	0.930073	0.557072	-0.161198
C81	C	0.930055	0.557073	-0.100848
C82	C	0.871286	0.574365	-0.304875
C83	C	0.871298	0.574367	-0.365227
C84	C	0.878660	0.630987	-0.422547
C85	C	0.885992	0.687618	-0.419518
C86	C	0.885974	0.687619	-0.359168
C87	C	0.878624	0.630983	-0.301844
C88	C	0.827222	0.704904	-0.563187
C89	C	0.827254	0.704902	-0.623537
C90	C	0.930197	0.557065	-0.533477
C91	C	0.930171	0.557069	-0.473128
C92	C	0.878678	0.630991	-0.487989
C93	C	0.878709	0.630988	0.327078
C94	C	0.878731	0.630987	0.391316
C95	C	1.142165	0.441733	0.179117
C96	C	1.231602	0.377500	0.193138
C97	C	0.878702	0.441732	0.327068
C98	C	0.878721	0.377499	0.391303
C99	C	1.142228	0.441730	0.368391
C100	C	1.231686	0.377496	0.446650
C101	C	0.615064	0.820252	-0.092784
C102	C	0.525606	0.884486	-0.171043
C103	C	0.615127	0.820249	0.096490
C104	C	0.525691	0.884482	0.082469
C105	C	0.878590	0.820250	-0.051462
C106	C	0.878571	0.884483	-0.115696
C107	C	1.222131	0.347337	0.154687
C108	C	1.306157	0.286992	0.167847
C109	C	1.399654	0.256807	0.219460
C110	C	1.409123	0.286976	0.257912
C111	C	1.325097	0.347324	0.244748
C112	C	0.930201	0.347334	0.466504
C113	C	0.930215	0.286988	0.526864
C114	C	0.878754	0.256806	0.512024
C115	C	0.827268	0.286977	0.436815
C116	C	0.827249	0.347325	0.376456
C117	C	1.325151	0.347332	0.454512
C118	C	1.409214	0.286986	0.528041
C119	C	1.399809	0.256802	0.593706
C120	C	1.306334	0.286972	0.585841
C121	C	1.222273	0.347321	0.512313
C122	C	0.432141	0.914658	-0.178905
C123	C	0.348078	0.975022	-0.252434
C124	C	0.357483	1.005210	-0.318099
C125	C	0.450958	0.975035	-0.310234
C126	C	0.535019	0.914676	-0.236706
C127	C	0.535162	0.914651	0.120913
C128	C	0.451135	0.975013	0.107737
C129	C	0.357638	1.005200	0.056121
C130	C	0.348169	0.975028	0.017673
C131	C	0.432195	0.914671	0.030845
C132	C	0.930042	0.914647	-0.100832
C133	C	0.930044	0.974992	-0.161178
C134	C	0.878568	1.005177	-0.236390
C135	C	0.827095	0.975008	-0.251253
C136	C	0.827100	0.914659	-0.190906
H137	H	0.971976	0.262402	0.085374
H138	H	0.971960	0.890079	-0.039596
H139	H	1.468065	0.207667	0.230173
O140	O	1.131409	0.376728	0.504544
C141	C	1.059219	0.436450	0.425571
H142	H	1.091931	0.462864	0.390683
H143	H	0.994417	0.487212	0.416090
H144	H	1.032935	0.407570	0.406079
O145	O	1.499952	0.257828	0.535565
C146	C	1.510694	0.322243	0.500018
H147	H	1.435028	0.382611	0.454859
H148	H	1.554858	0.313154	0.471051
H149	H	1.550884	0.323054	0.545399
H150	H	1.035036	0.015293	0.171913
O151	O	0.422816	0.885463	-0.115205
C152	C	0.322287	0.925039	-0.137928
H153	H	0.277462	0.986209	-0.198815
H154	H	0.310595	0.935448	-0.096480
H155	H	0.297515	0.885464	-0.136862
O156	O	0.257263	1.004449	-0.260102
C157	C	0.205551	1.089016	-0.300904
H158	H	0.260074	1.105541	-0.295142
H159	H	0.159113	1.106348	-0.276165
H160	H	0.155653	1.123543	-0.364395
O161	O	0.980324	0.257746	0.599878
C162	C	1.025728	0.297338	0.600023
H163	H	1.035889	0.322200	0.547756
H164	H	1.100497	0.252066	0.655026
H165	H	0.977514	0.349760	0.597405
H166	H	1.035030	0.124798	0.171895
O167	O	0.878919	0.198155	0.570757
C168	C	0.935377	0.178021	0.640307
H169	H	0.989779	0.194658	0.634972
H170	H	0.977287	0.109809	0.689506
H171	H	0.884721	0.213315	0.652685
O172	O	0.776948	1.004347	-0.324300
C173	C	0.676489	1.039288	-0.347802
H174	H	0.668078	1.012018	-0.294795
H175	H	0.644943	1.026073	-0.384509
H176	H	0.635213	1.108024	-0.383106
O177	O	0.275791	1.063736	-0.389504
C178	C	0.219480	1.034241	-0.398202
H179	H	0.268835	0.964753	-0.356343
H180	H	0.185393	1.057955	-0.459845
H181	H	0.158680	1.056163	-0.385452
H182	H	1.468265	0.207661	0.653572
H183	H	0.785331	0.371878	0.315226
O184	O	0.459910	1.004423	-0.374105
C185	C	0.365667	1.064177	-0.440680
H186	H	0.309984	1.054261	-0.425875
H187	H	0.366553	1.059285	-0.487086
H188	H	0.344257	1.127302	-0.462915
H189	H	1.485259	0.262391	0.299936
O190	O	0.625904	0.885449	0.171055
C191	C	0.616225	0.925017	0.202167
H192	H	0.541228	0.986192	0.161417
H193	H	0.676497	0.935415	0.209630
H194	H	0.623123	0.885443	0.260611
O195	O	0.625736	0.885427	-0.229212
C196	C	0.615998	0.925033	-0.302940
H197	H	0.540986	0.949910	-0.346878
H198	H	0.676246	0.879766	-0.301922
H199	H	0.622888	0.977445	-0.319640
H200	H	1.298428	0.262435	0.136532
O201	O	0.422935	0.885285	-0.006412
C202	C	0.371067	0.850409	0.012627
H203	H	0.378110	0.832293	0.070064
H204	H	0.402964	0.794052	0.017532
H205	H	0.290189	0.896677	-0.034320
O206	O	0.460225	1.004291	0.145131
C207	C	0.414731	0.989527	0.189878
H208	H	0.357435	0.982039	0.165349
H209	H	0.377446	1.043125	0.188522
H210	H	0.472522	0.931482	0.251946
H211	H	1.332828	0.371899	0.401053
O212	O	0.980052	1.004234	-0.146604
C213	C	1.025490	0.964641	-0.067278
H214	H	0.985124	0.939778	-0.041436
H215	H	1.022718	1.009913	-0.059293
H216	H	1.105368	0.912220	-0.036960
H217	H	0.289227	1.054346	0.045403
H218	H	0.785182	0.890106	-0.203021
O219	O	0.257270	1.004415	-0.032411
C220	C	0.185149	1.064166	-0.035796
H221	H	0.217938	1.054248	0.019258
H222	H	0.120344	1.059273	-0.041712
H223	H	0.158847	1.127293	-0.087670
H224	H	0.722244	0.137204	0.103692
O225	O	0.481414	0.630839	0.232365
C226	C	0.558374	0.560629	0.250848
H227	H	0.544131	0.511542	0.274075
H228	H	0.631018	0.537056	0.296542
H229	H	0.562207	0.576515	0.196873
O230	O	0.980139	0.376528	0.080830
C231	C	1.025523	0.336965	0.055311
H232	H	1.035719	0.275792	0.085898
H233	H	1.100275	0.326565	0.069018
H234	H	0.977277	0.376545	-0.009616
O235	O	0.979894	0.485323	-0.027785
C236	C	0.913806	0.480897	-0.001063
H237	H	0.846067	0.545075	-0.034739
H238	H	0.951120	0.449609	0.062877
H239	H	0.890791	0.444427	-0.009719
H240	H	1.332822	0.371876	0.276065
H241	H	0.878571	1.054317	-0.285521
H242	H	0.391909	0.630970	0.313121
H243	H	0.971999	-0.109916	0.085400
O244	O	0.980157	0.004217	0.080850
C245	C	1.025553	-0.035352	0.055339
H246	H	1.035751	-0.096526	0.085927
H247	H	1.100305	-0.045751	0.069051
H248	H	0.977314	0.004223	-0.009588
H249	H	1.146008	0.371912	0.112651
H250	H	0.785370	0.262393	0.424743
O251	O	0.777242	-0.114714	0.194715
C252	C	0.788295	-0.174473	0.188542
H253	H	0.807228	-0.164565	0.141596
H254	H	0.716671	-0.169577	0.173081
H255	H	0.849921	-0.237596	0.245956
H256	H	0.785309	-0.000417	0.190229
O257	O	1.297382	0.257528	0.649711
C258	C	1.391625	0.197806	0.716287
H259	H	1.447306	0.171432	0.701480
H260	H	1.390736	0.147018	0.762689
H261	H	1.413041	0.226676	0.738528
H262	H	0.972107	0.371902	0.478601
H263	H	0.722235	0.246703	0.103675
O264	O	0.777378	0.257496	0.194836
C265	C	0.843493	0.172931	0.257068
H266	H	0.911213	0.147365	0.252138
H267	H	0.806192	0.141639	0.255692
H268	H	0.866535	0.161409	0.313697
O269	O	0.358710	0.631149	-0.046859
C270	C	0.330352	0.701365	-0.118216
H271	H	0.319285	0.750449	-0.113911
H272	H	0.258663	0.724937	-0.164949
H273	H	0.390173	0.685488	-0.133490
H274	H	0.785303	0.371888	0.190223
O275	O	0.524528	0.631097	0.185226
C276	C	0.524210	0.701336	0.153193
H277	H	0.520481	0.724749	0.095521
H278	H	0.594308	0.685544	0.194201
H279	H	0.457588	0.750509	0.143953
O280	O	0.232710	0.631122	0.296274
C281	C	0.135190	0.701335	0.249000
H282	H	0.126324	0.750424	0.193411
H283	H	0.117832	0.724901	0.280725
H284	H	0.082558	0.685455	0.234638
H285	H	0.163140	0.631003	0.077871
H286	H	0.517846	0.630998	-0.013602
O287	O	0.232808	0.630856	-0.014158
C288	C	0.233080	0.560638	0.017868
H289	H	0.292594	0.511554	0.081401
H290	H	0.248528	0.537067	-0.014153
H291	H	0.158340	0.576513	0.012252
O292	O	0.777095	0.776638	-0.205213
C293	C	0.788130	0.760794	-0.135820
H294	H	0.807097	0.697266	-0.092847
H295	H	0.716486	0.807996	-0.147732
H296	H	0.849725	0.764307	-0.110769
H297	H	0.785213	0.765096	-0.312494
O298	O	0.893156	0.742653	-0.356316
C299	C	0.899632	0.792645	-0.419856
H300	H	0.928340	0.759549	-0.441830
H301	H	0.952084	0.806937	-0.401318
H302	H	0.823714	0.851872	-0.467800
H303	H	0.785294	0.765095	-0.575288
H304	H	0.891983	0.733726	-0.466191
H305	H	0.972074	0.496883	-0.411898
O306	O	0.864194	0.519289	-0.368042
C307	C	0.857673	0.469325	-0.304518
H308	H	0.890682	0.469414	-0.256357
H309	H	0.899837	0.404422	-0.282900
H310	H	0.777228	0.493736	-0.322931
O311	O	0.777330	0.776756	-0.696539
C312	C	0.815163	0.821720	-0.698325
H313	H	0.852836	0.800703	-0.638082
H314	H	0.752520	0.889338	-0.739895
H315	H	0.870725	0.811479	-0.718443
H316	H	0.972110	0.496883	-0.521386
O317	O	0.864013	0.519469	-0.249203
C318	C	0.779153	0.561219	-0.248499
H319	H	0.757389	0.625432	-0.274972
H320	H	0.795017	0.527104	-0.186515
H321	H	0.716432	0.564880	-0.283439
H322	H	0.971985	0.496891	-0.149112
