data_functionalizedCrystal
_audit_creation_method	'MofGen! by Chris Wilmer'
_symmetry_space_group_name_H-M	'P1'
_symmetry_Int_Tables_number	1
_symmetry_cell_setting	triclinic
loop_
_symmetry_equiv_pos_as_xyz
  x,y,z
_cell_length_a	17.077404
_cell_length_b	10.686285
_cell_length_c	17.077396
_cell_angle_alpha	85.608118
_cell_angle_beta	89.980499
_cell_angle_gamma	85.631810
loop_
_atom_site_label
_atom_site_type_symbol
_atom_site_fract_x
_atom_site_fract_y
_atom_site_fract_z
Zn1	Zn	1.224115	-0.502339	-0.419935
Zn2	Zn	1.234129	-0.713359	-0.278625
Zn3	Zn	1.092848	-0.502383	-0.288680
Zn4	Zn	1.102918	-0.713284	-0.409853
O5	O	1.163502	-0.607841	-0.349273
O6	O	1.335290	-0.530344	-0.401201
O7	O	1.215364	-0.685422	-0.170110
O8	O	1.101856	-0.325802	-0.314519
O9	O	1.342648	-0.685379	-0.297382
O10	O	1.198297	-0.325769	-0.410951
O11	O	1.111566	-0.530419	-0.177497
O12	O	0.984337	-0.530347	-0.304743
O13	O	1.119018	-0.685252	-0.521039
O14	O	0.991734	-0.685295	-0.393768
O15	O	1.208061	-0.530271	-0.528447
O16	O	1.225128	-0.889924	-0.287606
O17	O	1.128728	-0.889869	-0.384018
C18	C	0.959553	-0.607818	-0.349253
C19	C	0.872305	-0.607839	-0.349261
C20	C	0.835193	-0.688642	-0.395530
C21	C	0.753212	-0.688645	-0.395542
C22	C	0.708346	-0.607850	-0.349281
C23	C	0.745463	-0.527038	-0.303011
C24	C	0.827441	-0.527030	-0.303003
C25	C	0.574594	-0.527063	-0.303028
C26	C	0.492610	-0.527072	-0.303035
C27	C	0.500365	-0.688678	-0.395568
C28	C	0.582344	-0.688670	-0.395560
C29	C	0.619455	-0.607859	-0.349288
C30	C	1.179129	-0.935681	-0.333644
C31	C	1.185885	-1.075932	-0.326983
C32	C	1.368248	-0.607865	-0.349294
C33	C	1.455498	-0.607875	-0.349303
C34	C	1.163545	-0.607748	-0.554022
C35	C	1.163564	-0.607709	-0.641274
C36	C	1.147836	-0.278722	-0.364981
C37	C	1.141160	-0.138470	-0.371675
C38	C	1.209930	-0.527004	-0.686123
C39	C	1.209937	-0.526962	-0.768105
C40	C	1.163582	-0.607632	-0.805237
C41	C	1.117211	-0.688341	-0.760382
C42	C	1.117200	-0.688375	-0.678402
C43	C	1.117239	-0.688265	-0.931256
C44	C	1.117251	-0.688232	-1.013242
C45	C	1.209976	-0.526851	-1.020959
C46	C	1.209965	-0.526886	-0.938979
C47	C	1.163595	-0.607596	-0.894130
C48	C	1.163500	-0.607843	-0.145325
C49	C	1.163617	-0.607527	-0.058091
H50	H	0.871718	-0.754439	-0.433198
C51	C	0.712393	-0.777536	-0.446438
C52	C	0.730502	-0.920966	-0.433039
C53	C	0.689685	-1.009860	-0.483939
C54	C	0.630760	-0.955325	-0.548238
C55	C	0.612648	-0.811888	-0.561639
C56	C	0.653465	-0.722993	-0.510739
H57	H	0.774125	-0.961342	-0.385439
H58	H	0.703093	-1.116042	-0.474018
H59	H	0.600545	-1.021130	-0.585917
H60	H	0.569025	-0.771511	-0.609239
H61	H	0.640057	-0.616811	-0.520660
H62	H	0.618873	-0.754467	-0.433225
C63	C	1.244598	-1.148547	-0.268399
C64	C	1.251500	-1.293498	-0.261586
C65	C	1.310212	-1.366112	-0.203002
C66	C	1.362021	-1.293775	-0.151232
C67	C	1.355121	-1.148816	-0.158043
C68	C	1.296409	-1.076202	-0.216626
H69	H	1.213147	-1.347053	-0.299911
H70	H	1.315320	-1.473421	-0.197960
H71	H	1.405483	-1.347529	-0.107865
H72	H	1.393474	-1.095261	-0.119718
H73	H	1.291301	-0.968893	-0.221668
C74	C	1.066238	-0.777049	-0.881914
C75	C	0.976511	-0.766756	-0.893651
C76	C	0.925519	-0.855543	-0.844305
C77	C	0.964254	-0.954624	-0.783222
C78	C	1.053986	-0.964921	-0.771483
C79	C	1.104978	-0.876134	-0.820828
H80	H	0.947833	-0.693406	-0.938870
H81	H	0.859093	-0.847919	-0.852996
H82	H	0.926506	-1.020349	-0.746694
H83	H	1.082664	-1.038271	-0.726263
H84	H	1.171404	-0.883758	-0.812138
C85	C	1.082451	-1.065861	-0.430257
C86	C	1.089656	-1.083765	-0.518659
C87	C	1.030945	-1.011146	-0.577241
C88	C	0.965029	-0.920624	-0.547422
C89	C	0.957822	-0.902717	-0.459016
C90	C	1.016532	-0.975335	-0.400433
H91	H	1.138453	-1.150778	-0.540737
H92	H	1.036281	-1.024403	-0.642686
H93	H	0.921568	-0.866868	-0.590788
H94	H	0.909025	-0.835703	-0.436938
H95	H	1.011196	-0.962078	-0.334989
C96	C	0.459549	-0.777571	-0.446471
C97	C	0.407894	-0.876568	-0.407640
C98	C	0.367076	-0.965465	-0.458537
C99	C	0.377912	-0.955365	-0.548264
C100	C	0.429569	-0.856363	-0.587100
C101	C	0.470388	-0.767466	-0.536203
H102	H	0.399870	-0.884049	-0.341214
H103	H	0.328835	-1.038753	-0.429788
H104	H	0.347696	-1.021171	-0.585941
H105	H	0.437593	-0.848882	-0.653526
H106	H	0.508628	-0.694179	-0.564952
C107	C	1.066290	-0.777012	-1.054088
C108	C	1.015302	-0.865817	-1.004759
C109	C	0.964357	-0.954623	-1.045603
C110	C	0.964401	-0.954623	-1.135777
C111	C	1.015391	-0.865815	-1.185111
C112	C	1.066336	-0.777010	-1.144267
H113	H	1.015268	-0.865820	-0.938002
H114	H	0.926611	-1.020364	-1.009082
H115	H	0.926689	-1.020362	-1.166012
H116	H	1.015425	-0.865813	-1.251868
H117	H	1.104082	-0.711268	-1.180788
H118	H	0.456080	-0.461267	-0.265375
H119	H	0.604807	-0.461247	-0.265356
C120	C	1.260922	-0.438263	-0.645281
C121	C	1.247687	-0.294813	-0.663399
C122	C	1.298678	-0.206066	-0.622560
C123	C	1.362904	-0.260771	-0.563603
C124	C	1.376142	-0.404229	-0.545482
C125	C	1.325151	-0.492975	-0.586321
H126	H	1.200140	-0.254311	-0.707045
H127	H	1.288878	-0.099869	-0.635974
H128	H	1.400650	-0.195075	-0.533371
H129	H	1.423688	-0.444731	-0.501836
H130	H	1.334951	-0.599172	-0.572906
H131	H	1.247716	-0.461204	-0.908748
C132	C	1.260942	-0.438182	-0.817435
C133	C	1.350668	-0.448500	-0.805688
C134	C	1.401674	-0.359712	-0.855016
C135	C	1.362954	-0.260604	-0.916092
C136	C	1.273223	-0.250281	-0.927842
C137	C	1.222217	-0.339070	-0.878513
H138	H	1.379335	-0.521869	-0.760474
H139	H	1.468099	-0.367354	-0.846318
H140	H	1.400711	-0.194877	-0.952607
H141	H	1.244555	-0.176913	-0.973056
H142	H	1.155792	-0.331428	-0.887212
H143	H	0.708925	-0.461248	-0.265348
H144	H	0.857656	-0.461225	-0.265331
H145	H	1.247732	-0.461131	-1.057480
H146	H	1.079465	-0.754019	-0.790622
H147	H	1.079435	-0.754081	-0.641887
