data_functionalizedCrystal
_audit_creation_method	'MofGen! by Chris Wilmer'
_symmetry_space_group_name_H-M	'P1'
_symmetry_Int_Tables_number	1
_symmetry_cell_setting	triclinic
loop_
_symmetry_equiv_pos_as_xyz
  x,y,z
_cell_length_a	16.120484
_cell_length_b	16.625547
_cell_length_c	16.625539
_cell_angle_alpha	90.024822
_cell_angle_beta	87.131385
_cell_angle_gamma	92.925712
loop_
_atom_site_label
_atom_site_type_symbol
_atom_site_fract_x
_atom_site_fract_y
_atom_site_fract_z
Zn1	Zn	-0.331907	1.216387	0.472258
Zn2	Zn	0.168093	1.716387	0.972258
Zn3	Zn	-0.471332	1.209446	0.344255
Zn4	Zn	0.028668	1.709446	0.844255
Zn5	Zn	-0.331936	1.081547	0.337430
Zn6	Zn	0.168064	1.581547	0.837430
Zn7	Zn	-0.471281	1.074677	0.479032
Zn8	Zn	0.028719	1.574677	0.979032
O9	O	-0.401614	1.145514	0.408244
O10	O	0.098386	1.645514	0.908244
O11	O	-0.350411	1.328298	0.455300
O12	O	0.149589	1.828298	0.955300
O13	O	-0.452874	1.192450	0.230519
O14	O	0.047126	1.692450	0.730519
O15	O	-0.215267	1.105214	0.349625
O16	O	0.284733	1.605214	0.849625
O17	O	-0.452846	1.323198	0.361256
O18	O	0.047154	1.823198	0.861256
O19	O	-0.215245	1.204280	0.448682
O20	O	0.284755	1.704280	0.948682
O21	O	-0.350461	1.098483	0.225505
O22	O	0.149539	1.598483	0.725505
O23	O	-0.350412	0.967804	0.356193
O24	O	0.149588	1.467804	0.856193
O25	O	-0.452759	1.093505	0.590964
O26	O	0.047241	1.593505	1.090964
O27	O	-0.452787	0.962756	0.460227
O28	O	0.047213	1.462756	0.960227
O29	O	-0.350362	1.197618	0.585988
O30	O	0.149638	1.697618	1.085988
O31	O	-0.587991	1.185788	0.367824
O32	O	-0.087991	1.685788	0.867824
O33	O	-0.587953	1.086774	0.466845
O34	O	-0.087953	1.586774	0.966845
C35	C	-0.401598	0.936024	0.408205
C36	C	0.098402	1.436024	0.908205
C37	C	-0.401611	0.846402	0.408209
C38	C	0.098389	1.346402	0.908209
C39	C	-0.618222	1.134804	0.418828
C40	C	-0.118222	1.634804	0.918828
C41	C	-0.710888	1.130296	0.423383
C42	C	-0.210888	1.630296	0.923383
C43	C	-0.401613	0.773620	0.408219
C44	C	0.098387	1.273620	0.908219
C45	C	-0.401617	0.682311	0.408239
C46	C	0.098383	1.182311	0.908239
C47	C	-0.401625	0.609534	0.408260
C48	C	0.098375	1.109534	0.908260
C49	C	-0.401630	0.518220	0.408279
C50	C	0.098370	1.018220	0.908279
C51	C	-0.880550	1.122071	0.431715
C52	C	-0.380550	1.622071	0.931715
C53	C	-0.921838	1.169102	0.384786
C54	C	-0.421838	1.669102	0.884786
C55	C	-1.016243	1.164525	0.389422
C56	C	-0.516243	1.664525	0.889422
C57	C	-0.786136	1.126646	0.427080
C58	C	-0.286136	1.626646	0.927080
C59	C	-0.184160	1.156288	0.397636
C60	C	0.315840	1.656288	0.897636
C61	C	-0.091494	1.160879	0.393116
C62	C	0.408506	1.660879	0.893116
C63	C	-0.401552	1.145570	0.618550
C64	C	0.098448	1.645570	1.118550
C65	C	-0.401525	1.145593	0.708170
C66	C	0.098475	1.645593	1.208170
C67	C	-0.401631	1.355822	0.408283
C68	C	0.098369	1.855822	0.908283
C69	C	-0.401638	1.445443	0.408300
C70	C	0.098362	1.945443	0.908300
C71	C	-0.401616	1.145508	0.198753
C72	C	0.098384	1.645508	0.698753
C73	C	-0.401407	1.145652	0.109122
C74	C	0.098593	1.645652	0.609122
C75	C	-0.401432	1.145635	1.036341
C76	C	0.098568	1.645635	1.536341
C77	C	-0.401461	1.145621	0.945034
C78	C	0.098539	1.645621	1.445034
C79	C	-0.401479	1.145615	0.872258
C80	C	0.098521	1.645615	1.372258
C81	C	-0.401507	1.145600	0.780945
C82	C	0.098493	1.645600	1.280945
H83	H	-0.886285	1.212804	0.341127
H84	H	-0.386285	1.712804	0.841127
F85	F	-0.927017	1.064951	0.488775
F86	F	-0.427017	1.564951	0.988775
