data_functionalizedCrystal
_audit_creation_method	'MofGen! by Chris Wilmer'
_symmetry_space_group_name_H-M	'P1'
_symmetry_Int_Tables_number	1
_symmetry_cell_setting	triclinic
loop_
_symmetry_equiv_pos_as_xyz
  x,y,z
_cell_length_a	19.805407
_cell_length_b	17.640280
_cell_length_c	19.805399
_cell_angle_alpha	101.223110
_cell_angle_beta	90.019573
_cell_angle_gamma	78.800112
loop_
_atom_site_label
_atom_site_type_symbol
_atom_site_fract_x
_atom_site_fract_y
_atom_site_fract_z
Zn1	Zn	1.089281	-0.314680	0.328317
Zn2	Zn	1.589281	0.185320	0.828317
Zn3	Zn	1.112106	-0.446853	0.192279
Zn4	Zn	1.612106	0.053147	0.692279
Zn5	Zn	0.976099	-0.314701	0.215138
Zn6	Zn	1.476099	0.185299	0.715138
Zn7	Zn	0.998962	-0.446811	0.305433
Zn8	Zn	1.498962	0.053189	0.805433
O9	O	1.044112	-0.380761	0.260292
O10	O	1.544112	0.119239	0.760292
O11	O	1.187026	-0.332221	0.310282
O12	O	1.687026	0.167779	0.810282
O13	O	1.094048	-0.429350	0.100590
O14	O	1.594048	0.070650	0.600590
O15	O	0.971992	-0.204095	0.249296
O16	O	1.471992	0.295905	0.749296
O17	O	1.203796	-0.429329	0.210335
O18	O	1.703796	0.070671	0.710335
O19	O	1.055146	-0.204079	0.332448
O20	O	1.555146	0.295921	0.832448
O21	O	0.994125	-0.332258	0.117385
O22	O	1.494125	0.167742	0.617385
O23	O	0.884414	-0.332218	0.227105
O24	O	1.384414	0.167782	0.727105
O25	O	1.010958	-0.429257	0.403190
O26	O	1.510958	0.070743	0.903190
O27	O	0.901211	-0.429278	0.293444
O28	O	1.401211	0.070722	0.793444
O29	O	1.077315	-0.332180	0.420003
O30	O	1.577315	0.167820	0.920003
O31	O	1.116217	-0.557452	0.188145
O32	O	1.616217	-0.057452	0.688145
O33	O	1.033091	-0.557421	0.271278
O34	O	1.533091	-0.057421	0.771278
C35	C	0.868253	-0.380746	0.260272
C36	C	1.368253	0.119254	0.760272
C37	C	0.793023	-0.380759	0.260277
C38	C	1.293023	0.119241	0.760277
C39	C	0.766456	-0.431374	0.294736
C40	C	1.266456	0.068626	0.794736
C41	C	0.695768	-0.431376	0.294746
C42	C	1.195768	0.068624	0.794746
C43	C	0.651649	-0.380765	0.260291
C44	C	1.151649	0.119235	0.760291
C45	C	0.678220	-0.330144	0.225831
C46	C	1.178220	0.169856	0.725831
C47	C	0.748906	-0.330139	0.225826
C48	C	1.248906	0.169861	0.725826
C49	C	0.393149	-0.330161	0.225850
C50	C	0.893149	0.169839	0.725850
C51	C	0.322459	-0.330172	0.225856
C52	C	0.822459	0.169828	0.725856
C53	C	0.340012	-0.431398	0.294770
C54	C	0.840012	0.068602	0.794770
C55	C	0.410698	-0.431393	0.294765
C56	C	0.910698	0.068607	0.794765
C57	C	0.437262	-0.380770	0.260308
C58	C	0.937262	0.119230	0.760308
C59	C	0.513910	-0.380768	0.260299
C60	C	1.013910	0.119232	0.760299
C61	C	0.575003	-0.380770	0.260295
C62	C	1.075003	0.119230	0.760295
C63	C	1.079630	-0.586114	0.224762
C64	C	1.579630	-0.086114	0.724762
C65	C	1.094887	-0.673965	0.209586
C66	C	1.594887	-0.173965	0.709586
C67	C	0.928484	-0.962953	0.375835
C68	C	1.428484	-0.462953	0.875835
C69	C	0.942822	-1.045502	0.361553
C70	C	1.442822	-0.545502	0.861553
C71	C	1.029435	-1.045469	0.275073
C72	C	1.529435	-0.545469	0.775073
C73	C	1.015107	-0.962918	0.289351
C74	C	1.515107	-0.462918	0.789351
C75	C	0.964630	-0.921667	0.339732
C76	C	1.464630	-0.421667	0.839732
C77	C	1.051253	-0.921632	0.253247
C78	C	1.551253	-0.421632	0.753247
C79	C	1.036924	-0.839088	0.267522
C80	C	1.536924	-0.339088	0.767522
C81	C	0.986448	-0.797831	0.317899
C82	C	1.486448	-0.297831	0.817899
C83	C	0.950301	-0.839123	0.354006
C84	C	1.450301	-0.339123	0.854006
C85	C	1.101726	-0.962885	0.202863
C86	C	1.601726	-0.462885	0.702863
C87	C	1.137872	-0.921598	0.166760
C88	C	1.637872	-0.421598	0.666760
C89	C	1.123546	-0.839053	0.181037
C90	C	1.623546	-0.339053	0.681037
C91	C	1.073071	-0.797796	0.231415
C92	C	1.573071	-0.297796	0.731415
C93	C	1.159693	-0.797761	0.144930
C94	C	1.659693	-0.297761	0.644930
C95	C	1.145364	-0.715217	0.159204
C96	C	1.645364	-0.215217	0.659204
C97	C	1.058741	-0.715252	0.245689
C98	C	1.558741	-0.215252	0.745689
C99	C	1.220657	-0.380777	0.260311
C100	C	1.720657	0.119223	0.760311
C101	C	1.295890	-0.380784	0.260320
C102	C	1.795890	0.119216	0.760320
C103	C	1.044141	-0.380712	0.436843
C104	C	1.544141	0.119288	0.936843
C105	C	1.044154	-0.380690	0.512079
C106	C	1.544154	0.119310	1.012079
C107	C	1.008473	-0.174606	0.295974
C108	C	1.508473	0.325394	0.795974
C109	C	0.993286	-0.086756	0.311180
C110	C	1.493286	0.413244	0.811180
C111	C	1.044112	-0.380754	0.084437
C112	C	1.544112	0.119246	0.584437
C113	C	1.044192	-0.380553	0.009240
C114	C	1.544192	0.119447	0.509240
C115	C	1.078706	-0.330140	0.556179
C116	C	1.578706	0.169860	1.056179
C117	C	1.078709	-0.330117	0.626872
C118	C	1.578709	0.169883	1.126872
C119	C	1.044163	-0.380649	0.653462
C120	C	1.544163	0.119351	1.153462
C121	C	1.009606	-0.431202	0.609356
C122	C	1.509606	0.068798	1.109356
C123	C	1.009600	-0.431220	0.538666
C124	C	1.509600	0.068780	1.038666
C125	C	1.009632	-0.431128	0.894442
C126	C	1.509632	0.068872	1.394442
C127	C	1.009643	-0.431107	0.965138
C128	C	1.509643	0.068893	1.465138
C129	C	1.078741	-0.330025	0.982648
C130	C	1.578741	0.169975	1.482648
C131	C	1.078735	-0.330043	0.911958
C132	C	1.578735	0.169957	1.411958
C133	C	1.044175	-0.380593	0.867859
C134	C	1.544175	0.119407	1.367859
C135	C	1.044171	-0.380616	0.791206
C136	C	1.544171	0.119384	1.291206
C137	C	1.044171	-0.380631	0.730112
C138	C	1.544171	0.119369	1.230112
H139	H	0.802375	-0.472590	0.322791
H140	H	1.302375	0.027410	0.822791
H141	H	1.106847	-0.288956	0.662776
H142	H	1.606847	0.211044	1.162776
Br143	Br	0.303957	-0.500105	0.341533
Br144	Br	0.803957	-0.000105	0.841533
H145	H	0.981455	-0.472375	0.502760
H146	H	1.481455	0.027625	1.002760
Br147	Br	0.962728	-0.499729	0.834603
Br148	Br	1.462728	0.000271	1.334603
H149	H	1.106868	-0.288898	0.890312
H150	H	1.606868	0.211102	1.390312
Br151	Br	0.618343	-0.261449	0.179078
Br152	Br	1.118343	0.238551	0.679078
Br153	Br	1.125644	-0.261420	1.042501
Br154	Br	1.625644	0.238580	1.542501
H155	H	0.981509	-0.472258	0.986784
H156	H	1.481509	0.027742	1.486784
Br157	Br	1.206374	-0.977589	0.098388
Br158	Br	1.706374	-0.477589	0.598388
Br159	Br	0.659715	-0.500069	0.341516
Br160	Br	1.159715	-0.000069	0.841516
H161	H	0.981475	-0.472343	0.631011
H162	H	1.481475	0.027657	1.131011
H163	H	1.070531	-1.079067	0.234051
H164	H	1.570531	-0.579067	0.734051
Br165	Br	0.784961	-0.261439	0.179062
Br166	Br	1.284961	0.238561	0.679062
H167	H	0.446618	-0.472609	0.322819
H168	H	0.946618	0.027391	0.822819
Br169	Br	0.429192	-0.261453	0.179091
Br170	Br	0.929192	0.238547	0.679091
Br171	Br	0.262582	-0.261481	0.179092
Br172	Br	0.762582	0.238519	0.679092
Br173	Br	0.990245	-0.659260	0.314073
Br174	Br	1.490245	-0.159260	0.814073
Br175	Br	0.881804	-0.783131	0.422390
Br176	Br	1.381804	-0.283131	0.922390
H177	H	1.113393	-1.030097	0.191244
H178	H	1.613393	-0.530097	0.691244
Br179	Br	0.893750	-1.101533	0.410546
Br180	Br	1.393750	-0.601533	0.910546
Br181	Br	1.228188	-0.853754	0.076552
Br182	Br	1.728188	-0.353754	0.576552
Br183	Br	0.859988	-0.906961	0.444219
Br184	Br	1.359988	-0.406961	0.944219
H185	H	0.974777	-0.730618	0.329515
H186	H	1.474777	-0.230618	0.829515
Br187	Br	1.125599	-0.261563	0.520099
Br188	Br	1.625599	0.238437	1.020099
Br189	Br	1.194410	-0.659180	0.110198
Br190	Br	1.694410	-0.159180	0.610198
