data_functionalizedCrystal
_audit_creation_method	'MofGen! by Chris Wilmer'
_symmetry_space_group_name_H-M	'P1'
_symmetry_Int_Tables_number	1
_symmetry_cell_setting	triclinic
loop_
_symmetry_equiv_pos_as_xyz
  x,y,z
_cell_length_a	18.215407
_cell_length_b	19.121063
_cell_length_c	18.215399
_cell_angle_alpha	87.590157
_cell_angle_beta	90.016899
_cell_angle_gamma	92.466335
loop_
_atom_site_label
_atom_site_type_symbol
_atom_site_fract_x
_atom_site_fract_y
_atom_site_fract_z
Zn1	Zn	1.112557	-0.279668	0.428541
Zn2	Zn	1.445890	0.053665	0.761875
Zn3	Zn	1.779223	0.386998	1.095208
Zn4	Zn	1.107209	-0.397123	0.310718
Zn5	Zn	1.440542	-0.063790	0.644051
Zn6	Zn	1.773876	0.269544	0.977385
Zn7	Zn	0.989489	-0.279685	0.305496
Zn8	Zn	1.322822	0.053648	0.638829
Zn9	Zn	1.656155	0.386981	0.972163
Zn10	Zn	0.984201	-0.397078	0.433747
Zn11	Zn	1.317534	-0.063745	0.767080
Zn12	Zn	1.650868	0.269589	1.100414
O13	O	1.048364	-0.338389	0.369626
O14	O	1.381697	-0.005055	0.702959
O15	O	1.715031	0.328278	1.036292
O16	O	1.214831	-0.295261	0.412919
O17	O	1.548164	0.038072	0.746252
O18	O	1.881498	0.371406	1.079585
O19	O	1.091568	-0.381571	0.207042
O20	O	1.424901	-0.048237	0.540375
O21	O	1.758235	0.285096	0.873709
O22	O	1.010265	-0.181399	0.317454
O23	O	1.343598	0.151935	0.650787
O24	O	1.676931	0.485268	0.984121
O25	O	1.210902	-0.381554	0.326354
O26	O	1.544235	-0.048221	0.659688
O27	O	1.877569	0.285112	0.993021
O28	O	1.100682	-0.181386	0.407855
O29	O	1.434016	0.151947	0.741189
O30	O	1.767349	0.485280	1.074522
O31	O	1.005079	-0.295290	0.203205
O32	O	1.338413	0.038044	0.536539
O33	O	1.671746	0.371377	0.869872
O34	O	0.885803	-0.295246	0.322502
O35	O	1.219137	0.038088	0.655835
O36	O	1.552470	0.371421	0.989168
O37	O	1.001253	-0.381477	0.536040
O38	O	1.334586	-0.048144	0.869373
O39	O	1.667920	0.285189	1.202706
O40	O	0.881919	-0.381494	0.416727
O41	O	1.215252	-0.048160	0.750061
O42	O	1.548585	0.285173	1.083394
O43	O	1.095555	-0.295217	0.532215
O44	O	1.428889	0.038116	0.865548
O45	O	1.762222	0.371450	1.198882
O46	O	1.086441	-0.495402	0.331402
O47	O	1.419774	-0.162068	0.664735
O48	O	1.753108	0.171265	0.998069
O49	O	0.996067	-0.495368	0.421791
O50	O	1.329401	-0.162035	0.755124
O51	O	1.662734	0.171298	1.088458
C52	C	0.857159	-0.338367	0.369613
C53	C	1.190492	-0.005034	0.702947
C54	C	1.523825	0.328300	1.036280
C55	C	0.775359	-0.338375	0.369626
C56	C	1.108693	-0.005042	0.702960
C57	C	1.442026	0.328292	1.036293
C58	C	0.508294	-0.383372	0.418628
C59	C	0.841628	-0.050038	0.751961
C60	C	1.174961	0.283295	1.085294
C61	C	0.585153	-0.383366	0.418624
C62	C	0.918487	-0.050032	0.751957
C63	C	1.251820	0.283301	1.085290
C64	C	0.589174	-0.293421	0.320637
C65	C	0.922507	0.039912	0.653971
C66	C	1.255841	0.373245	0.987304
C67	C	0.512316	-0.293431	0.320638
C68	C	0.845649	0.039902	0.653971
C69	C	1.178983	0.373235	0.987305
C70	C	0.471878	-0.338406	0.369637
C71	C	0.805212	-0.005072	0.702971
C72	C	1.138545	0.328261	1.036304
C73	C	0.625595	-0.338390	0.369633
C74	C	0.958928	-0.005056	0.702966
C75	C	1.292262	0.328277	1.036299
C76	C	0.708929	-0.338383	0.369628
C77	C	1.042262	-0.005049	0.702961
C78	C	1.375596	0.328284	1.036295
C79	C	0.388539	-0.338414	0.369641
C80	C	0.721872	-0.005080	0.702974
C81	C	1.055206	0.328253	1.036308
C82	C	1.040120	-0.520869	0.377744
C83	C	1.373453	-0.187536	0.711077
C84	C	1.706787	0.145798	1.044411
C85	C	1.036661	-0.598935	0.381242
C86	C	1.369994	-0.265602	0.714575
C87	C	1.703327	0.067732	1.047908
C88	C	1.082125	-0.635604	0.335863
C89	C	1.415458	-0.302271	0.669197
C90	C	1.748791	0.031062	1.002530
C91	C	1.078876	-0.708956	0.339157
C92	C	1.412209	-0.375622	0.672490
C93	C	1.745542	-0.042289	1.005824
C94	C	1.030158	-0.745636	0.387826
C95	C	1.363492	-0.412303	0.721160
C96	C	1.696825	-0.078969	1.054493
C97	C	0.984692	-0.708961	0.433210
C98	C	1.318026	-0.375628	0.766543
C99	C	1.651359	-0.042295	1.099876
C100	C	0.987946	-0.635611	0.429919
C101	C	1.321279	-0.302278	0.763252
C102	C	1.654612	0.031055	1.096586
C103	C	1.017983	-0.967105	0.400118
C104	C	1.351316	-0.633772	0.733451
C105	C	1.684649	-0.300439	1.066785
C106	C	1.014731	-1.040460	0.403404
C107	C	1.348064	-0.707127	0.736737
C108	C	1.681398	-0.373794	1.070070
C109	C	1.108916	-1.040450	0.309352
C110	C	1.442249	-0.707116	0.642685
C111	C	1.775582	-0.373783	0.976018
C112	C	1.112162	-0.967098	0.306062
C113	C	1.445495	-0.633765	0.639395
C114	C	1.778828	-0.300432	0.972729
C115	C	1.066699	-0.930430	0.351448
C116	C	1.400032	-0.597097	0.684782
C117	C	1.733365	-0.263763	1.018115
C118	C	1.026834	-0.820613	0.391193
C119	C	1.360168	-0.487279	0.724526
C120	C	1.693501	-0.153946	1.057859
C121	C	1.070027	-0.855455	0.348085
C122	C	1.403360	-0.522121	0.681418
C123	C	1.736693	-0.188788	1.014752
C124	C	1.240316	-0.338411	0.369638
C125	C	1.573649	-0.005077	0.702972
C126	C	1.906982	0.328256	1.036305
C127	C	1.322114	-0.338420	0.369644
C128	C	1.655448	-0.005087	0.702977
C129	C	1.988781	0.328246	1.036310
C130	C	1.048411	-0.338340	0.561576
C131	C	1.381744	-0.005007	0.894910
C132	C	1.715078	0.328326	1.228243
C133	C	1.048431	-0.338320	0.643374
C134	C	1.381764	-0.004986	0.976708
C135	C	1.715098	0.328347	1.310041
C136	C	1.056660	-0.155196	0.361492
C137	C	1.389993	0.178138	0.694825
C138	C	1.723326	0.511471	1.028158
C139	C	1.060195	-0.077130	0.358025
C140	C	1.393528	0.256203	0.691359
C141	C	1.726862	0.589537	1.024692
C142	C	1.048362	-0.338386	0.178419
C143	C	1.381695	-0.005053	0.511753
C144	C	1.715028	0.328280	0.845086
C145	C	1.048493	-0.338209	0.096613
C146	C	1.381826	-0.004876	0.429946
C147	C	1.715160	0.328458	0.763279
C148	C	1.097553	-0.293362	0.829576
C149	C	1.430886	0.039971	1.162910
C150	C	1.764220	0.373305	1.496243
C151	C	1.097563	-0.293341	0.906434
C152	C	1.430896	0.039992	1.239768
C153	C	1.764229	0.373325	1.573101
C154	C	0.999366	-0.383169	0.910406
C155	C	1.332699	-0.049835	1.243739
C156	C	1.666032	0.283498	1.577072
C157	C	0.999353	-0.383185	0.833549
C158	C	1.332686	-0.049852	1.166882
C159	C	1.666020	0.283482	1.500216
C160	C	1.048451	-0.338283	0.793136
C161	C	1.381784	-0.004949	1.126470
C162	C	1.715117	0.328384	1.459803
C163	C	1.048473	-0.338246	0.946851
C164	C	1.381806	-0.004913	1.280184
C165	C	1.715140	0.328421	1.613518
C166	C	1.048483	-0.338224	1.030184
C167	C	1.381817	-0.004891	1.363517
C168	C	1.715150	0.328443	1.696850
C169	C	1.048440	-0.338304	0.709798
C170	C	1.381773	-0.004970	1.043132
C171	C	1.715107	0.328363	1.376465
H172	H	0.614800	-0.419982	0.458516
H173	H	0.948133	-0.086649	0.791849
H174	H	1.281466	0.246684	1.125182
F175	F	1.149805	-0.245571	0.786569
F176	F	1.483138	0.087762	1.119902
F177	F	1.816472	0.421096	1.453235
F178	F	1.133972	-0.596573	0.284058
F179	F	1.467306	-0.263240	0.617391
F180	F	1.800639	0.070094	0.950724
F181	F	0.465260	-0.431239	0.470775
F182	F	0.798593	-0.097905	0.804108
F183	F	1.131927	0.235428	1.137442
F184	F	0.947118	-0.430957	0.953422
F185	F	1.280451	-0.097624	1.286755
F186	F	1.613785	0.235710	1.620089
H187	H	0.980963	-0.937256	0.437072
H188	H	1.314297	-0.603922	0.770405
H189	H	1.647630	-0.270589	1.103739
H190	H	0.622108	-0.256804	0.280745
H191	H	0.955441	0.076529	0.614078
H192	H	1.288774	0.409862	0.947411
H193	H	0.482666	-0.256814	0.280741
H194	H	0.815999	0.076520	0.614074
H195	H	1.149332	0.409853	0.947408
F196	F	1.127267	-0.747979	0.290861
F197	F	1.460600	-0.414645	0.624194
F198	F	1.793934	-0.081312	0.957528
F199	F	0.939559	-0.596585	0.478219
F200	F	1.272892	-0.263252	0.811553
F201	F	1.606225	0.070081	1.144886
H202	H	0.975068	-1.070323	0.443049
H203	H	1.308402	-0.736990	0.776382
H204	H	1.641735	-0.403657	1.109716
H205	H	0.959363	-0.419765	0.803879
H206	H	1.292696	-0.086431	1.137212
H207	H	1.626030	0.246902	1.470546
H208	H	1.151831	-0.937235	0.266432
H209	H	1.485164	-0.603901	0.599765
H210	H	1.818498	-0.270568	0.933099
F211	F	1.121877	-0.816416	0.296293
F212	F	1.455210	-0.483082	0.629626
F213	F	1.788543	-0.149749	0.962959
H214	H	0.945029	-0.738832	0.472841
H215	H	1.278362	-0.405499	0.806174
H216	H	1.611696	-0.072166	1.139507
H217	H	1.137545	-0.256761	0.936100
H218	H	1.470879	0.076572	1.269433
H219	H	1.804212	0.409905	1.602767
F220	F	0.974986	-0.859657	0.442988
F221	F	1.308320	-0.526324	0.776322
F222	F	1.641653	-0.192990	1.109655
F223	F	1.157300	-1.079480	0.261055
F224	F	1.490634	-0.746146	0.594389
F225	F	1.823967	-0.412813	0.927722
