data_functionalizedCrystal
_audit_creation_method	'MofGen! by Chris Wilmer'
_symmetry_space_group_name_H-M	'P1'
_symmetry_Int_Tables_number	1
_symmetry_cell_setting	triclinic
loop_
_symmetry_equiv_pos_as_xyz
  x,y,z
_cell_length_a	19.288835
_cell_length_b	19.288865
_cell_length_c	18.366186
_cell_angle_alpha	89.988521
_cell_angle_beta	90.017524
_cell_angle_gamma	96.869897
loop_
_atom_site_label
_atom_site_type_symbol
_atom_site_fract_x
_atom_site_fract_y
_atom_site_fract_z
O1	O	-0.921366	0.086549	-0.060701
O2	O	-0.719102	0.098260	-0.060672
O3	O	-0.826079	-0.008727	-0.060673
O4	O	-0.814390	0.193535	-0.060700
O5	O	-0.826061	-0.008732	0.060427
O6	O	-0.719084	0.098255	0.060427
O7	O	-0.921348	0.086544	0.060399
Zn8	Zn	-0.820213	0.092398	0.079640
Zn9	Zn	-0.820237	0.092405	-0.079913
O10	O	-0.814372	0.193530	0.060399
C11	C	-0.693217	0.097884	-0.000118
C12	C	-0.616112	0.096763	-0.000107
C13	C	-0.825694	-0.034606	-0.000121
C14	C	-0.824565	-0.111709	-0.000114
C15	C	-0.579918	0.096228	-0.066119
C16	C	-0.507471	0.095167	-0.066126
C17	C	-0.471222	0.094628	-0.000117
C18	C	-0.507424	0.095167	0.065904
C19	C	-0.579869	0.096235	0.065909
C20	C	-0.361887	0.052250	0.050452
C21	C	-0.289444	0.051178	0.050444
C22	C	-0.247778	0.091338	-0.000131
C23	C	-0.278565	0.132561	-0.050710
C24	C	-0.351010	0.133628	-0.050705
C25	C	-0.392668	0.093470	-0.000116
C26	C	-0.133029	0.089653	-0.066155
C27	C	-0.060580	0.088597	-0.066159
C28	C	-0.060536	0.088590	0.065872
C29	C	-0.132982	0.089653	0.065875
C30	C	-0.169225	0.090181	-0.000141
C31	C	-0.887333	-0.156412	-0.000120
C32	C	-0.886273	-0.228859	-0.000131
C33	C	-0.822440	-0.256600	-0.000122
C34	C	-0.759663	-0.211887	-0.000121
C35	C	-0.760725	-0.139441	-0.000117
C36	C	-0.772253	-0.364883	0.042303
C37	C	-0.771193	-0.437328	0.042304
C38	C	-0.819160	-0.480045	-0.000138
C39	C	-0.868198	-0.450310	-0.042571
C40	C	-0.869261	-0.377865	-0.042567
C41	C	-0.821280	-0.335154	-0.000127
C42	C	-0.880783	-0.603304	-0.000157
C43	C	-0.879720	-0.675752	-0.000173
C44	C	-0.753108	-0.658778	-0.000156
C45	C	-0.754173	-0.586332	-0.000147
C46	C	-0.818012	-0.558599	-0.000144
C47	C	0.052767	0.086924	-0.000151
C48	C	-0.024336	0.088059	-0.000150
C49	C	-0.814757	0.219409	-0.000154
C50	C	-0.815886	0.296513	-0.000165
N51	N	-0.820202	0.092393	0.188531
N52	N	-0.820254	0.092405	-0.188805
C53	C	-0.867587	0.045043	0.226631
C54	C	-0.867591	0.045040	0.302859
C55	C	-0.820217	0.092399	0.340984
C56	C	-0.772824	0.139753	0.302875
C57	C	-0.772816	0.139750	0.226648
C58	C	-0.810919	0.155688	0.461737
C59	C	-0.810932	0.155692	0.537962
C60	C	-0.820237	0.092408	0.576092
C61	C	-0.829545	0.029117	0.537987
C62	C	-0.829537	0.029114	0.461761
C63	C	-0.820220	0.092407	0.423639
C64	C	-0.867629	0.045050	0.696847
C65	C	-0.867629	0.045046	0.773076
C66	C	-0.772865	0.139765	0.773090
C67	C	-0.772862	0.139763	0.696862
C68	C	-0.820248	0.092406	0.658745
H69	H	-0.609423	0.096658	-0.119874
C70	C	-0.923197	-0.345159	-0.089248
N71	N	-0.963820	-0.320524	-0.124412
H72	H	-0.477906	0.094730	0.119649
C73	C	-0.255584	0.005838	0.106088
N74	N	-0.230083	-0.028309	0.148003
C75	C	-0.920964	-0.497294	-0.089264
N76	N	-0.960706	-0.532685	-0.124432
H77	H	-0.709609	-0.103043	-0.000112
C78	C	-0.467651	0.094573	-0.138748
N79	N	-0.437660	0.094124	-0.193446
C80	C	-0.020767	0.088004	-0.138782
N81	N	0.009220	0.087556	-0.193483
C82	C	-0.172897	0.090246	-0.138773
N83	N	-0.202923	0.090696	-0.193469
C84	C	-0.020666	0.087998	0.138483
N85	N	0.009367	0.087553	0.193176
H86	H	-0.731260	-0.461531	0.076851
H87	H	-0.162452	0.090085	0.119629
H88	H	-0.932765	-0.580723	-0.000158
C89	C	-0.689446	-0.242403	-0.000106
N90	N	-0.636557	-0.265387	-0.000096
C91	C	-0.800682	0.225310	0.419801
N92	N	-0.792972	0.277747	0.388217
C93	C	-0.919727	-0.007044	0.344778
N94	N	-0.958998	-0.046272	0.376349
H95	H	-0.395806	0.019545	0.091640
C96	C	-0.800686	0.225312	0.579869
N97	N	-0.792965	0.277752	0.611432
H98	H	-0.376074	0.167195	-0.091886
H99	H	-0.930836	-0.712149	-0.000181
C100	C	-0.720717	0.191872	0.184737
N101	N	-0.681487	0.231142	0.153168
H102	H	-0.939316	-0.133837	-0.000120
C103	C	-0.232737	0.176745	-0.106343
N104	N	-0.198217	0.210024	-0.148244
C105	C	-0.619684	0.096818	0.138531
N106	N	-0.649674	0.097255	0.193231
H107	H	-0.701133	-0.681363	-0.000152
H108	H	-0.937388	-0.265263	-0.000138
H109	H	-0.906169	0.006481	0.195599
H110	H	-0.703059	-0.549933	-0.000139
H111	H	-0.837114	-0.022419	0.430739
C112	C	-0.719485	-0.317901	0.088999
N113	N	-0.679742	-0.282516	0.124171
H114	H	-0.837122	-0.022415	0.569031
C115	C	-0.919747	-0.007049	0.654915
N116	N	-0.959002	-0.046292	0.623334
H117	H	-0.906213	0.006484	0.804097
C118	C	-0.720754	0.191862	0.815023
N119	N	-0.681502	0.231102	0.846611
C120	C	-0.720785	0.191903	0.654950
N121	N	-0.681573	0.231193	0.623383
H122	H	-0.734251	0.178312	0.333920
