data_functionalizedCrystal
_audit_creation_method	'MofGen! by Chris Wilmer'
_symmetry_space_group_name_H-M	'P1'
_symmetry_Int_Tables_number	1
_symmetry_cell_setting	triclinic
loop_
_symmetry_equiv_pos_as_xyz
  x,y,z
_cell_length_a	16.959455
_cell_length_b	12.645330
_cell_length_c	16.959447
_cell_angle_alpha	90.026070
_cell_angle_beta	90.020374
_cell_angle_gamma	90.014712
loop_
_atom_site_label
_atom_site_type_symbol
_atom_site_fract_x
_atom_site_fract_y
_atom_site_fract_z
Zn1	Zn	1.208397	-0.422103	0.447060
Zn2	Zn	1.708397	0.077897	0.947060
Zn3	Zn	1.208325	-0.599394	0.314891
Zn4	Zn	1.708325	-0.099394	0.814891
Zn5	Zn	1.076225	-0.422136	0.314883
Zn6	Zn	1.576225	0.077864	0.814883
Zn7	Zn	1.076196	-0.599315	0.447016
Zn8	Zn	1.576196	-0.099315	0.947016
O9	O	1.142286	-0.510737	0.380962
O10	O	1.642286	-0.010737	0.880962
O11	O	1.318998	-0.445640	0.429549
O12	O	1.818998	0.054360	0.929549
O13	O	1.190784	-0.575928	0.204279
O14	O	1.690784	-0.075928	0.704279
O15	O	1.093801	-0.273784	0.332432
O16	O	1.593801	0.226216	0.832432
O17	O	1.318945	-0.575895	0.332445
O18	O	1.818945	-0.075895	0.832445
O19	O	1.190907	-0.273760	0.429541
O20	O	1.690907	0.226240	0.929541
O21	O	1.093731	-0.445697	0.204273
O22	O	1.593731	0.054303	0.704273
O23	O	0.965611	-0.445620	0.332389
O24	O	1.465611	0.054380	0.832389
O25	O	1.093750	-0.575761	0.557632
O26	O	1.593750	-0.075761	1.057632
O27	O	0.965589	-0.575793	0.429466
O28	O	1.465589	-0.075793	0.929466
O29	O	1.190878	-0.445563	0.557665
O30	O	1.690878	0.054437	1.057665
O31	O	1.190755	-0.747731	0.332402
O32	O	1.690755	-0.247731	0.832402
O33	O	1.093680	-0.747673	0.429474
O34	O	1.593680	-0.247673	0.929474
C35	C	0.936919	-0.510703	0.380923
C36	C	1.436919	-0.010703	0.880923
C37	C	0.849063	-0.510713	0.380924
C38	C	1.349063	-0.010713	0.880924
C39	C	0.477549	-0.578494	0.330375
C40	C	0.977549	-0.078494	0.830375
C41	C	0.477625	-0.443068	0.431646
C42	C	0.977625	0.056932	0.931646
C43	C	0.560171	-0.443051	0.431627
C44	C	1.060171	0.056949	0.931627
C45	C	0.601410	-0.510757	0.380982
C46	C	1.101410	-0.010757	0.880982
C47	C	0.560103	-0.578481	0.330355
C48	C	1.060103	-0.078481	0.830355
C49	C	0.601485	-0.375336	0.482258
C50	C	1.101485	0.124664	0.982258
C51	C	0.684036	-0.375317	0.482241
C52	C	1.184036	0.124683	0.982241
C53	C	0.725276	-0.443018	0.431591
C54	C	1.225276	0.056982	0.931591
C55	C	0.683963	-0.510744	0.380963
C56	C	1.183963	-0.010744	0.880963
C57	C	0.725202	-0.578450	0.330317
C58	C	1.225202	-0.078450	0.830317
C59	C	0.683891	-0.646171	0.279684
C60	C	1.183891	-0.146171	0.779684
C61	C	0.601343	-0.646183	0.279705
C62	C	1.101343	-0.146183	0.779705
C63	C	0.807824	-0.443007	0.431570
C64	C	1.307824	0.056993	0.931570
C65	C	0.807756	-0.578437	0.330298
C66	C	1.307756	-0.078437	0.830298
C67	C	1.142228	-0.786167	0.380951
C68	C	1.642228	-0.286167	0.880951
C69	C	1.142276	-0.903997	0.380973
C70	C	1.642276	-0.403997	0.880973
C71	C	1.081458	-1.071568	0.442229
C72	C	1.581458	-0.571568	0.942229
C73	C	1.081147	-0.949009	0.442032
C74	C	1.581147	-0.449009	0.942032
C75	C	1.119734	-0.948592	0.297669
C76	C	1.619734	-0.448592	0.797669
C77	C	1.119363	-1.071190	0.298041
C78	C	1.619363	-0.571190	0.798041
C79	C	1.226007	-1.071091	0.402346
C80	C	1.726007	-0.571091	0.902346
C81	C	1.225494	-0.948484	0.404167
C82	C	1.725494	-0.448484	0.904167
C83	C	1.348454	-0.510773	0.381003
C84	C	1.848454	-0.010773	0.881003
C85	C	1.436310	-0.510788	0.381020
C86	C	1.936310	-0.010788	0.881020
C87	C	1.142319	-0.510649	0.587131
C88	C	1.642319	-0.010649	1.087131
C89	C	1.142333	-0.510612	0.674987
C90	C	1.642333	-0.010612	1.174987
C91	C	1.142365	-0.234232	0.380991
C92	C	1.642365	0.265768	0.880991
C93	C	1.142399	-0.116402	0.381003
C94	C	1.642399	0.383598	0.881003
C95	C	1.142298	-0.510748	0.175596
C96	C	1.642298	-0.010748	0.675596
C97	C	1.142438	-0.510487	0.087740
C98	C	1.642438	-0.010487	0.587740
C99	C	1.091857	-0.578288	1.046449
C100	C	1.591857	-0.078288	1.546449
C101	C	1.192997	-0.442712	1.046478
C102	C	1.692997	0.057288	1.546478
C103	C	1.192976	-0.442735	0.963932
C104	C	1.692976	0.057265	1.463932
C105	C	1.142396	-0.510536	0.922640
C106	C	1.642396	-0.010536	1.422640
C107	C	1.091836	-0.578315	0.963895
C108	C	1.591836	-0.078315	1.463895
C109	C	1.243540	-0.374965	0.922671
C110	C	1.743540	0.125035	1.422671
C111	C	1.243522	-0.374986	0.840120
C112	C	1.743522	0.125014	1.340120
C113	C	1.192937	-0.442782	0.798827
C114	C	1.692937	0.057218	1.298827
C115	C	1.142375	-0.510563	0.840087
C116	C	1.642375	-0.010563	1.340087
C117	C	1.091794	-0.578364	0.798796
C118	C	1.591794	-0.078364	1.298796
C119	C	1.041227	-0.646140	0.840054
C120	C	1.541227	-0.146140	1.340054
C121	C	1.041251	-0.646111	0.922602
C122	C	1.541251	-0.146111	1.422602
C123	C	1.192913	-0.442811	0.716279
C124	C	1.692913	0.057189	1.216279
C125	C	1.091773	-0.578391	0.716242
C126	C	1.591773	-0.078391	1.216242
H127	H	0.717478	-0.701303	0.238452
H128	H	1.217478	-0.201303	0.738452
C129	C	1.036799	-1.109951	0.273625
C130	C	1.536799	-0.609951	0.773625
H131	H	1.003799	-1.050770	0.263577
H132	H	1.503799	-0.550770	0.763577
H133	H	1.040854	-1.151827	0.227289
H134	H	1.540854	-0.651827	0.727289
H135	H	1.014799	-1.151151	0.314961
H136	H	1.514799	-0.651151	0.814961
H137	H	1.284696	-0.319798	0.806534
H138	H	1.784696	0.180202	1.306534
H139	H	1.271410	-1.100084	0.357752
H140	H	1.771410	-0.600084	0.857752
H141	H	0.444044	-0.387951	0.472884
H142	H	0.944044	0.112049	0.972884
C143	C	1.038026	-0.907254	0.272806
C144	C	1.538026	-0.407254	0.772806
H145	H	1.017540	-0.862831	0.313074
H146	H	1.517540	-0.362831	0.813074
H147	H	1.042749	-0.868129	0.225238
H148	H	1.542749	-0.368129	0.725238
H149	H	1.003371	-0.965309	0.264784
H150	H	1.503371	-0.465309	0.764784
H151	H	0.567902	-0.320220	0.523496
H152	H	1.067902	0.179780	1.023496
H153	H	1.162714	-0.919438	0.250804
H154	H	1.662714	-0.419438	0.750804
H155	H	0.717664	-0.320173	0.523470
H156	H	1.217664	0.179827	1.023470
H157	H	1.000085	-0.701294	0.956202
H158	H	1.500085	-0.201294	1.456202
H159	H	1.234086	-0.387632	0.682690
H160	H	1.734086	0.112368	1.182690
H161	H	0.841456	-0.387872	0.472796
H162	H	1.341456	0.112128	0.972796
H163	H	0.841326	-0.633569	0.289053
H164	H	1.341326	-0.133569	0.789053
H165	H	0.567700	-0.701317	0.238482
H166	H	1.067700	-0.201317	0.738482
H167	H	1.095249	-0.918854	0.503801
H168	H	1.595249	-0.418854	1.003801
C169	C	1.100256	-1.111429	0.525931
C170	C	1.600256	-0.611429	1.025931
H171	H	1.145443	-1.155762	0.524293
H172	H	1.645443	-0.655762	1.024293
H173	H	1.110307	-1.052807	0.559509
H174	H	1.610307	-0.552807	1.059509
H175	H	1.056593	-1.150374	0.545620
H176	H	1.556593	-0.650374	1.045620
C177	C	1.248469	-0.909092	0.486981
C178	C	1.748469	-0.409092	0.986981
H179	H	1.207525	-0.865708	0.507341
H180	H	1.707525	-0.365708	1.007341
H181	H	1.256188	-0.967969	0.520880
H182	H	1.756188	-0.467969	1.020880
H183	H	1.295867	-0.869267	0.483806
H184	H	1.795867	-0.369267	0.983806
H185	H	0.443910	-0.633628	0.289148
H186	H	0.943910	-0.133628	0.789148
C187	C	0.998244	-1.113293	0.423370
C188	C	1.498244	-0.613293	0.923370
H189	H	1.000480	-1.157914	0.378344
H190	H	1.500480	-0.657914	0.878344
H191	H	0.978829	-1.152288	0.467114
H192	H	1.478829	-0.652288	0.967114
H193	H	0.964088	-1.055409	0.413000
H194	H	1.464088	-0.555409	0.913000
C195	C	1.290061	-0.907107	0.348305
C196	C	1.790061	-0.407107	0.848305
H197	H	1.267007	-0.861962	0.309931
H198	H	1.767007	-0.361962	0.809931
H199	H	1.328172	-0.868743	0.377779
H200	H	1.828172	-0.368743	0.877779
H201	H	1.314826	-0.965103	0.322720
H202	H	1.814826	-0.465103	0.822720
C203	C	0.985609	-0.720743	0.794632
C204	C	1.485609	-0.220743	1.294632
H205	H	0.955505	-0.761116	0.831022
H206	H	1.455505	-0.261116	1.331022
H207	H	0.951173	-0.680217	0.762418
H208	H	1.451173	-0.180217	1.262418
H209	H	1.015850	-0.766945	0.762440
H210	H	1.515850	-0.266945	1.262440
H211	H	1.019163	-0.919770	0.427892
H212	H	1.519163	-0.419770	0.927892
H213	H	1.161824	-1.100852	0.250866
H214	H	1.661824	-0.600852	0.750866
H215	H	1.050685	-0.633466	1.080045
H216	H	1.550685	-0.133466	1.580045
C217	C	1.253788	-1.112749	0.483014
C218	C	1.753788	-0.612749	0.983014
H219	H	1.214650	-1.158168	0.504434
H220	H	1.714650	-0.658168	1.004434
H221	H	1.301615	-1.150879	0.476621
H222	H	1.801615	-0.650879	0.976621
H223	H	1.262217	-1.054892	0.517763
H224	H	1.762217	-0.554892	1.017763
H225	H	1.050577	-0.633594	0.682629
H226	H	1.550577	-0.133594	1.182629
C227	C	1.248635	-0.368140	1.091892
C228	C	1.748635	0.131860	1.591892
H229	H	1.278747	-0.327783	1.055498
H230	H	1.778747	0.172217	1.555498
H231	H	1.218423	-0.321938	1.124103
H232	H	1.718423	0.178062	1.624103
H233	H	1.283076	-0.408698	1.124086
H234	H	1.783076	0.091302	1.624086
C235	C	1.299178	-0.300394	0.968087
C236	C	1.799178	0.199606	1.468087
H237	H	1.329295	-0.260043	0.931694
H238	H	1.829295	0.239957	1.431694
H239	H	1.268965	-0.254187	1.000293
H240	H	1.768965	0.245813	1.500293
H241	H	1.333613	-0.340954	1.000286
H242	H	1.833613	0.159046	1.500286
