data_functionalizedCrystal
_audit_creation_method	'MofGen! by Chris Wilmer'
_symmetry_space_group_name_H-M	'P1'
_symmetry_Int_Tables_number	1
_symmetry_cell_setting	triclinic
loop_
_symmetry_equiv_pos_as_xyz
  x,y,z
_cell_length_a	19.077105
_cell_length_b	21.295417
_cell_length_c	19.076919
_cell_angle_alpha	92.266620
_cell_angle_beta	90.076224
_cell_angle_gamma	87.726672
loop_
_atom_site_label
_atom_site_type_symbol
_atom_site_fract_x
_atom_site_fract_y
_atom_site_fract_z
Zn1	Zn	1.058236	-0.304534	-0.440387
Zn2	Zn	1.391569	0.028799	-0.107054
Zn3	Zn	1.724902	0.362132	0.226280
Zn4	Zn	1.062864	-0.405747	-0.322870
Zn5	Zn	1.396197	-0.072414	0.010463
Zn6	Zn	1.729531	0.260919	0.343796
Zn7	Zn	0.945454	-0.296102	-0.318181
Zn8	Zn	1.278788	0.037232	0.015152
Zn9	Zn	1.612121	0.370565	0.348485
Zn10	Zn	0.940686	-0.405368	-0.435623
Zn11	Zn	1.274019	-0.072034	-0.102289
Zn12	Zn	1.607352	0.261299	0.231044
O13	O	1.001810	-0.352938	-0.379265
O14	O	1.335143	-0.019605	-0.045932
O15	O	1.668477	0.313729	0.287401
O16	O	1.157181	-0.321649	-0.428754
O17	O	1.490514	0.011685	-0.095421
O18	O	1.823848	0.345018	0.237912
O19	O	1.051222	-0.387832	-0.223917
O20	O	1.384555	-0.054499	0.109416
O21	O	1.717889	0.278834	0.442749
O22	O	0.960474	-0.209134	-0.334424
O23	O	1.293807	0.124199	-0.001091
O24	O	1.627140	0.457532	0.332243
O25	O	1.160581	-0.396009	-0.342415
O26	O	1.493915	-0.062676	-0.009082
O27	O	1.827248	0.270657	0.324251
O28	O	1.043334	-0.215330	-0.424208
O29	O	1.376667	0.118004	-0.090875
O30	O	1.710000	0.451337	0.242459
O31	O	0.964962	-0.307276	-0.220472
O32	O	1.298295	0.026057	0.112861
O33	O	1.631628	0.359390	0.446194
O34	O	0.846490	-0.306908	-0.329804
O35	O	1.179824	0.026425	0.003529
O36	O	1.513157	0.359758	0.336863
O37	O	0.952346	-0.395362	-0.534586
O38	O	1.285680	-0.062029	-0.201252
O39	O	1.619013	0.271304	0.132081
O40	O	0.842987	-0.387185	-0.416088
O41	O	1.176320	-0.053852	-0.082754
O42	O	1.509654	0.279481	0.250579
O43	O	1.038710	-0.321280	-0.538086
O44	O	1.372043	0.012053	-0.204753
O45	O	1.705376	0.345386	0.128581
O46	O	1.046598	-0.493783	-0.337795
O47	O	1.379931	-0.160450	-0.004462
O48	O	1.713265	0.172883	0.328871
O49	O	0.956834	-0.493504	-0.420634
O50	O	1.290168	-0.160171	-0.087301
O51	O	1.623501	0.173162	0.246032
C52	C	0.819242	-0.346091	-0.371921
C53	C	1.152576	-0.012758	-0.038587
C54	C	1.485909	0.320576	0.294746
C55	C	0.741139	-0.343178	-0.368795
C56	C	1.074472	-0.009844	-0.035462
C57	C	1.407805	0.323489	0.297872
C58	C	0.702642	-0.383663	-0.412179
C59	C	1.035976	-0.050330	-0.078846
C60	C	1.369309	0.283003	0.254487
C61	C	0.629255	-0.380918	-0.409246
C62	C	0.962589	-0.047584	-0.075913
C63	C	1.295922	0.285749	0.257421
C64	C	0.594366	-0.337689	-0.362924
C65	C	0.927699	-0.004356	-0.029591
C66	C	1.261033	0.328978	0.303742
C67	C	0.632868	-0.297199	-0.319538
C68	C	0.966201	0.036134	0.013795
C69	C	1.299534	0.369468	0.347128
C70	C	0.706253	-0.299942	-0.322476
C71	C	1.039586	0.033391	0.010858
C72	C	1.372920	0.366725	0.344191
C73	C	0.375080	-0.324994	-0.349333
C74	C	0.708414	0.008339	-0.016000
C75	C	1.041747	0.341672	0.317334
C76	C	0.301690	-0.322256	-0.346397
C77	C	0.635023	0.011078	-0.013064
C78	C	0.968356	0.344411	0.320269
C79	C	0.298082	-0.405974	-0.436106
C80	C	0.631416	-0.072640	-0.102773
C81	C	0.964749	0.260693	0.230560
C82	C	0.371470	-0.408715	-0.439037
C83	C	0.704803	-0.075382	-0.105703
C84	C	1.038136	0.257951	0.227630
C85	C	0.409965	-0.368223	-0.395653
C86	C	0.743298	-0.034890	-0.062320
C87	C	1.076631	0.298443	0.271013
N88	N	0.519353	-0.334883	-0.359923
N89	N	0.852686	-0.001550	-0.026590
N90	N	1.186020	0.331784	0.306743
N91	N	0.484976	-0.371027	-0.398658
N92	N	0.818310	-0.037693	-0.065325
N93	N	1.151643	0.295640	0.268008
C94	C	1.001719	-0.516485	-0.379223
C95	C	1.335053	-0.183151	-0.045889
C96	C	1.668386	0.150182	0.287444
C97	C	1.001744	-0.586454	-0.379231
C98	C	1.335077	-0.253121	-0.045897
C99	C	1.668411	0.080213	0.287436
C100	C	1.048522	-0.619448	-0.336144
C101	C	1.381855	-0.286115	-0.002811
C102	C	1.715189	0.047219	0.330523
C103	C	1.048554	-0.685192	-0.336161
C104	C	1.381888	-0.351859	-0.002828
C105	C	1.715221	-0.018526	0.330505
C106	C	1.001796	-0.717939	-0.379257
C107	C	1.335130	-0.384606	-0.045924
C108	C	1.668463	-0.051273	0.287410
C109	C	0.955015	-0.684937	-0.422352
C110	C	1.288348	-0.351604	-0.089019
C111	C	1.621681	-0.018271	0.244315
C112	C	0.954989	-0.619195	-0.422339
C113	C	1.288322	-0.285862	-0.089006
C114	C	1.621655	0.047472	0.244328
N115	N	0.940111	-0.819089	-0.382141
N116	N	1.273444	-0.485755	-0.048807
N117	N	1.606777	-0.152422	0.284526
N118	N	0.940138	-0.881541	-0.382149
N119	N	1.273471	-0.548208	-0.048816
N120	N	1.606804	-0.214875	0.284517
C121	C	1.001873	-0.916018	-0.379300
C122	C	1.335207	-0.582685	-0.045967
C123	C	1.668540	-0.249352	0.287366
N124	N	1.063583	-0.885683	-0.376429
N125	N	1.396916	-0.552350	-0.043096
N126	N	1.730250	-0.219016	0.290238
N127	N	1.063555	-0.823224	-0.376417
N128	N	1.396888	-0.489891	-0.043084
N129	N	1.730222	-0.156558	0.290250
C130	C	1.001820	-0.789226	-0.379276
C131	C	1.335153	-0.455893	-0.045943
C132	C	1.668486	-0.122560	0.287390
C133	C	1.048690	-1.020300	-0.336230
C134	C	1.382024	-0.686967	-0.002897
C135	C	1.715357	-0.353633	0.330436
C136	C	1.048724	-1.086046	-0.336252
C137	C	1.382057	-0.752712	-0.002919
C138	C	1.715390	-0.419379	0.330414
C139	C	0.955178	-1.085789	-0.422439
C140	C	1.288511	-0.752456	-0.089106
C141	C	1.621845	-0.419122	0.244227
C142	C	0.955151	-1.020045	-0.422421
C143	C	1.288484	-0.686712	-0.089088
C144	C	1.621817	-0.353378	0.244245
C145	C	1.001906	-0.987304	-0.379313
C146	C	1.335240	-0.653971	-0.045979
C147	C	1.668573	-0.320638	0.287354
C148	C	1.185090	-0.359812	-0.386639
C149	C	1.518424	-0.026479	-0.053306
C150	C	1.851757	0.306855	0.280027
C151	C	1.263193	-0.362741	-0.389782
C152	C	1.596527	-0.029408	-0.056448
C153	C	1.929860	0.303925	0.276885
C154	C	0.994480	-0.359220	-0.562545
C155	C	1.327813	-0.025886	-0.229212
C156	C	1.661146	0.307447	0.104122
C157	C	0.991356	-0.361897	-0.640648
C158	C	1.324689	-0.028563	-0.307314
C159	C	1.658023	0.304770	0.026019
C160	C	1.001919	-0.188754	-0.379324
C161	C	1.335253	0.144580	-0.045991
C162	C	1.668586	0.477913	0.287342
C163	C	1.001966	-0.118788	-0.379349
C164	C	1.335299	0.214545	-0.046016
C165	C	1.668633	0.547879	0.287317
C166	C	1.034851	-0.324586	-0.679164
C167	C	1.368184	0.008748	-0.345831
C168	C	1.701518	0.342081	-0.012497
C169	C	1.031907	-0.327098	-0.752550
C170	C	1.365241	0.006235	-0.419216
C171	C	1.698574	0.339569	-0.085883
C172	C	0.985472	-0.366925	-0.787418
C173	C	1.318805	-0.033592	-0.454084
C174	C	1.652139	0.299741	-0.120751
C175	C	0.941972	-0.404238	-0.748896
C176	C	1.275306	-0.070905	-0.415563
C177	C	1.608639	0.262429	-0.082229
C178	C	0.944913	-0.401722	-0.675512
C179	C	1.278246	-0.068388	-0.342178
C180	C	1.611579	0.264945	-0.008845
C181	C	0.971853	-0.378584	-1.006698
C182	C	1.305186	-0.045250	-0.673364
C183	C	1.638519	0.288083	-0.340031
C184	C	0.968917	-0.381099	-1.080087
C185	C	1.302250	-0.047765	-0.746754
C186	C	1.635584	0.285568	-0.413421
C187	C	1.058852	-0.303958	-1.083736
C188	C	1.392185	0.029376	-0.750402
C189	C	1.725518	0.362709	-0.417069
C190	C	1.061791	-0.301448	-1.010350
C191	C	1.395124	0.031886	-0.677017
C192	C	1.728458	0.365219	-0.343683
C193	C	1.018289	-0.338758	-0.971835
C194	C	1.351622	-0.005424	-0.638501
C195	C	1.684955	0.327909	-0.305168
N196	N	0.982464	-0.369496	-0.862429
N197	N	1.315797	-0.036163	-0.529096
N198	N	1.649130	0.297171	-0.195763
N199	N	1.021294	-0.336183	-0.896824
N200	N	1.354627	-0.002850	-0.563491
N201	N	1.687961	0.330483	-0.230157
C202	C	1.009152	-0.346637	-0.196700
C203	C	1.342485	-0.013303	0.136633
C204	C	1.675819	0.320030	0.469966
C205	C	1.012412	-0.343787	-0.118604
C206	C	1.345745	-0.010454	0.214730
C207	C	1.679079	0.322879	0.548063
H208	H	0.597915	-0.413886	-0.444573
H209	H	0.931248	-0.080553	-0.111240
H210	H	1.264582	0.252781	0.222093
C211	C	0.822059	-0.431209	-0.766687
C212	C	1.155392	-0.097875	-0.433353
C213	C	1.488725	0.235458	-0.100020
C214	C	0.890928	-0.448017	-0.787221
C215	C	1.224261	-0.114683	-0.453888
C216	C	1.557594	0.218650	-0.120554
H217	H	0.790548	-0.458236	-0.790350
H218	H	1.123881	-0.124902	-0.457016
H219	H	1.457214	0.208431	-0.123683
H220	H	0.817589	-0.435051	-0.717475
H221	H	1.150923	-0.101718	-0.384142
H222	H	1.484256	0.231615	-0.050809
H223	H	0.811331	-0.388941	-0.778321
H224	H	1.144664	-0.055608	-0.444988
H225	H	1.477997	0.277726	-0.111654
H226	H	0.901658	-0.490283	-0.775582
H227	H	1.234991	-0.156949	-0.442248
H228	H	1.568324	0.176384	-0.108915
H229	H	0.895400	-0.444180	-0.836443
H230	H	1.228733	-0.110846	-0.503110
H231	H	1.562067	0.222487	-0.169777
C232	C	1.143406	-0.548651	-0.330244
C233	C	1.476739	-0.215318	0.003089
C234	C	1.810073	0.118016	0.336422
C235	C	1.099918	-0.583457	-0.288767
C236	C	1.433252	-0.250123	0.044566
C237	C	1.766585	0.083210	0.377900
H238	H	1.175133	-0.526427	-0.300995
H239	H	1.508466	-0.193094	0.032338
H240	H	1.841799	0.140239	0.365672
H241	H	1.169044	-0.576320	-0.361958
H242	H	1.502377	-0.242987	-0.028625
H243	H	1.835711	0.090347	0.304709
H244	H	1.115533	-0.519592	-0.355901
H245	H	1.448866	-0.186259	-0.022567
H246	H	1.782199	0.147074	0.310766
H247	H	1.127791	-0.612519	-0.263114
H248	H	1.461125	-0.279185	0.070219
H249	H	1.794458	0.054148	0.403552
H250	H	1.074278	-0.555785	-0.257041
H251	H	1.407612	-0.222451	0.076292
H252	H	1.740945	0.110882	0.409626
H253	H	1.086764	-0.993641	-0.301131
H254	H	1.420097	-0.660308	0.032202
H255	H	1.753430	-0.326975	0.365536
C256	C	1.121108	-0.250606	-0.748785
C257	C	1.454441	0.082727	-0.415452
C258	C	1.787775	0.416061	-0.082119
C259	C	1.079724	-0.286089	-0.794887
C260	C	1.413057	0.047244	-0.461554
C261	C	1.746390	0.380578	-0.128220
H262	H	1.150632	-0.225291	-0.774924
H263	H	1.483965	0.108042	-0.441591
H264	H	1.817298	0.441376	-0.108258
H265	H	1.091659	-0.224397	-0.718940
H266	H	1.424992	0.108936	-0.385606
H267	H	1.758325	0.442270	-0.052273
H268	H	1.149110	-0.278069	-0.721235
H269	H	1.482443	0.055265	-0.387901
H270	H	1.815776	0.388598	-0.054568
H271	H	1.051718	-0.258626	-0.822434
H272	H	1.385051	0.074707	-0.489101
H273	H	1.718385	0.408041	-0.155768
H274	H	1.109176	-0.312300	-0.824745
H275	H	1.442510	0.021033	-0.491412
H276	H	1.775843	0.354366	-0.158078
C277	C	0.913415	-0.518304	-0.460586
C278	C	1.246748	-0.184970	-0.127253
C279	C	1.580082	0.148363	0.206081
C280	C	0.903565	-0.582923	-0.469701
C281	C	1.236898	-0.249589	-0.136367
C282	C	1.570231	0.083744	0.196966
H283	H	0.881669	-0.495912	-0.489829
H284	H	1.215003	-0.162578	-0.156495
H285	H	1.548336	0.170755	0.176838
H286	H	0.905050	-0.505562	-0.412956
H287	H	1.238384	-0.172228	-0.079623
H288	H	1.571717	0.161105	0.253711
H289	H	0.960205	-0.509614	-0.472805
H290	H	1.293538	-0.176281	-0.139471
H291	H	1.626871	0.157053	0.193862
H292	H	0.856776	-0.591613	-0.457477
H293	H	1.190109	-0.258280	-0.124144
H294	H	1.523443	0.075054	0.209190
H295	H	0.911924	-0.595669	-0.517341
H296	H	1.245257	-0.262336	-0.184008
H297	H	1.578590	0.070997	0.149325
C298	C	0.882648	-0.455072	-1.010472
C299	C	1.215981	-0.121738	-0.677139
C300	C	1.549315	0.211595	-0.343806
C301	C	0.924027	-0.419586	-0.964367
C302	C	1.257360	-0.086253	-0.631034
C303	C	1.590693	0.247080	-0.297701
H304	H	0.853120	-0.480385	-0.984335
H305	H	1.186454	-0.147051	-0.651002
H306	H	1.519787	0.186282	-0.317669
H307	H	0.854657	-0.427615	-1.038029
H308	H	1.187990	-0.094282	-0.704696
H309	H	1.521324	0.239051	-0.371362
H310	H	0.912106	-0.481288	-1.040312
H311	H	1.245439	-0.147955	-0.706979
H312	H	1.578773	0.185378	-0.373646
H313	H	0.894568	-0.393366	-0.934530
H314	H	1.227902	-0.060033	-0.601197
H315	H	1.561235	0.273301	-0.267864
H316	H	0.952020	-0.447046	-0.936799
H317	H	1.285353	-0.113712	-0.603465
H318	H	1.618687	0.219621	-0.270132
H319	H	0.731044	-0.418867	-0.449897
H320	H	1.064377	-0.085533	-0.116564
H321	H	1.397711	0.247800	0.216769
C322	C	0.916106	-1.108795	-0.540019
C323	C	1.249439	-0.775462	-0.206686
C324	C	1.582773	-0.442128	0.126648
C325	C	0.903782	-1.121777	-0.469815
C326	C	1.237115	-0.788443	-0.136481
C327	C	1.570448	-0.455110	0.196852
H328	H	0.884379	-1.131018	-0.569268
H329	H	1.217712	-0.797684	-0.235935
H330	H	1.551045	-0.464351	0.097398
H331	H	0.909392	-1.064923	-0.546170
H332	H	1.242725	-0.731590	-0.212837
H333	H	1.576059	-0.398257	0.120496
H334	H	0.962904	-1.121650	-0.552233
H335	H	1.296237	-0.788317	-0.218900
H336	H	1.629571	-0.454984	0.114434
H337	H	0.856985	-1.108917	-0.457599
H338	H	1.190318	-0.775584	-0.124266
H339	H	1.523651	-0.442250	0.209067
H340	H	0.910490	-1.165658	-0.463660
H341	H	1.243823	-0.832324	-0.130327
H342	H	1.577157	-0.498991	0.203006
H343	H	1.086820	-1.112908	-0.301168
H344	H	1.420154	-0.779575	0.032166
H345	H	1.753487	-0.446242	0.365499
H346	H	0.909487	-0.432098	-0.644152
H347	H	1.242821	-0.098764	-0.310819
H348	H	1.576154	0.234569	0.022515
C349	C	0.733603	-0.265889	-0.204456
C350	C	1.066936	0.067444	0.128878
C351	C	1.400270	0.400777	0.462211
C352	C	0.748575	-0.255445	-0.274783
C353	C	1.081908	0.077888	0.058551
C354	C	1.415241	0.411222	0.391884
H355	H	0.759735	-0.238419	-0.175014
H356	H	1.093068	0.094914	0.158320
H357	H	1.426401	0.428247	0.491653
H358	H	0.684911	-0.258065	-0.196080
H359	H	1.018244	0.075268	0.137253
H360	H	1.351578	0.408602	0.470587
H361	H	0.746022	-0.308266	-0.194576
H362	H	1.079355	0.025067	0.138757
H363	H	1.412688	0.358401	0.472090
H364	H	0.736151	-0.213069	-0.284663
H365	H	1.069484	0.120264	0.048670
H366	H	1.402818	0.453597	0.382003
H367	H	0.797277	-0.263264	-0.283162
H368	H	1.130611	0.070069	0.050172
H369	H	1.463944	0.403402	0.383505
H370	H	0.399871	-0.443918	-0.476755
H371	H	0.733205	-0.110585	-0.143422
H372	H	1.066538	0.222749	0.189912
H373	H	0.917057	-0.993179	-0.457503
H374	H	1.250390	-0.659846	-0.124170
H375	H	1.583723	-0.326513	0.209163
C376	C	1.074874	-0.214288	-0.928279
C377	C	1.408207	0.119046	-0.594946
C378	C	1.741541	0.452379	-0.261613
C379	C	1.112814	-0.257639	-0.972039
C380	C	1.446147	0.075695	-0.638706
C381	C	1.779480	0.409028	-0.305373
H382	H	1.106371	-0.187238	-0.904630
H383	H	1.439705	0.146095	-0.571297
H384	H	1.773038	0.479429	-0.237964
H385	H	1.043120	-0.190070	-0.955694
H386	H	1.376453	0.143263	-0.622361
H387	H	1.709786	0.476597	-0.289027
H388	H	1.049409	-0.236157	-0.894828
H389	H	1.382743	0.097177	-0.561495
H390	H	1.716076	0.430510	-0.228161
H391	H	1.138275	-0.235770	-1.005494
H392	H	1.471608	0.097563	-0.672161
H393	H	1.804941	0.430897	-0.338828
H394	H	1.144580	-0.281859	-0.944623
H395	H	1.477914	0.051474	-0.611289
H396	H	1.811247	0.384808	-0.277956
H397	H	1.094268	-0.273581	-1.115103
H398	H	1.427601	0.059752	-0.781769
H399	H	1.760934	0.393086	-0.448436
C400	C	0.402410	-0.290929	-0.231316
C401	C	0.735744	0.042404	0.102018
C402	C	1.069077	0.375737	0.435351
C403	C	0.417385	-0.280487	-0.301643
C404	C	0.750719	0.052846	0.031691
C405	C	1.084052	0.386180	0.365024
H406	H	0.428533	-0.263452	-0.201874
H407	H	0.761866	0.069881	0.131460
H408	H	1.095200	0.403215	0.464793
H409	H	0.353716	-0.283114	-0.222945
H410	H	0.687050	0.050220	0.110388
H411	H	1.020383	0.383553	0.443722
H412	H	0.414838	-0.333303	-0.221432
H413	H	0.748171	0.000030	0.111901
H414	H	1.081505	0.333364	0.445235
H415	H	0.404953	-0.238114	-0.311528
H416	H	0.738286	0.095219	0.021805
H417	H	1.071620	0.428552	0.355139
H418	H	0.466090	-0.288298	-0.310017
H419	H	0.799424	0.045035	0.023317
H420	H	1.132757	0.378369	0.356650
C421	C	1.079292	-0.286473	-0.568293
C422	C	1.412626	0.046860	-0.234960
C423	C	1.745959	0.380193	0.098373
C424	C	1.085893	-0.280804	-0.640840
C425	C	1.419226	0.052529	-0.307506
C426	C	1.752559	0.385863	0.025827
H427	H	1.110806	-0.259444	-0.544637
H428	H	1.444139	0.073889	-0.211303
H429	H	1.777472	0.407222	0.122030
H430	H	1.032572	-0.275080	-0.554372
H431	H	1.365906	0.058254	-0.221039
H432	H	1.699239	0.391587	0.112294
H433	H	1.090034	-0.328742	-0.556671
H434	H	1.423368	0.004592	-0.223338
H435	H	1.756701	0.337925	0.109996
H436	H	1.075146	-0.238537	-0.652463
H437	H	1.408479	0.094797	-0.319129
H438	H	1.741812	0.428130	0.014204
H439	H	1.132623	-0.292194	-0.654766
H440	H	1.465957	0.041139	-0.321433
H441	H	1.799290	0.374473	0.011900
C442	C	0.955778	-0.468230	-1.162195
C443	C	1.289112	-0.134897	-0.828861
C444	C	1.622445	0.198436	-0.495528
C445	C	0.917866	-0.424873	-1.118419
C446	C	1.251199	-0.091539	-0.785086
C447	C	1.584532	0.241794	-0.451753
H448	H	0.924262	-0.495254	-1.185857
H449	H	1.257595	-0.161920	-0.852523
H450	H	1.590929	0.171413	-0.519190
H451	H	0.981263	-0.446369	-1.195628
H452	H	1.314596	-0.113036	-0.862295
H453	H	1.647929	0.220297	-0.528962
H454	H	0.987514	-0.492480	-1.134783
H455	H	1.320847	-0.159147	-0.801450
H456	H	1.654181	0.174186	-0.468116
H457	H	0.886133	-0.400619	-1.145832
H458	H	1.219467	-0.067286	-0.812498
H459	H	1.552800	0.266047	-0.479165
H460	H	0.892369	-0.446736	-1.084981
H461	H	1.225703	-0.113402	-0.751648
H462	H	1.559036	0.219931	-0.418315
C463	C	0.521976	-0.255821	-0.275203
C464	C	0.855309	0.077512	0.058130
C465	C	1.188643	0.410846	0.391464
C466	C	0.594519	-0.249679	-0.268623
C467	C	0.927852	0.083655	0.064711
C468	C	1.261185	0.416988	0.398044
H469	H	0.498304	-0.226485	-0.243766
H470	H	0.831637	0.106848	0.089568
H471	H	1.164971	0.440182	0.422901
H472	H	0.508079	-0.247845	-0.321949
H473	H	0.841413	0.085488	0.011384
H474	H	1.174746	0.418821	0.344718
H475	H	0.510347	-0.297297	-0.264345
H476	H	0.843680	0.036036	0.068988
H477	H	1.177013	0.369370	0.402322
H478	H	0.606149	-0.208203	-0.279486
H479	H	0.939482	0.125130	0.053848
H480	H	1.272815	0.458463	0.387181
H481	H	0.608420	-0.257650	-0.221866
H482	H	0.941754	0.075684	0.111467
H483	H	1.275087	0.409017	0.444801
H484	H	0.266732	-0.438939	-0.471428
H485	H	0.600065	-0.105606	-0.138094
H486	H	0.933399	0.227727	0.195239
H487	H	0.273285	-0.287047	-0.308681
H488	H	0.606618	0.046287	0.024652
H489	H	0.939952	0.379620	0.357986
H490	H	1.086649	-0.712061	-0.301075
H491	H	1.419983	-0.378728	0.032258
H492	H	1.753316	-0.045395	0.365591
C493	C	0.941424	-0.761716	-0.516473
C494	C	1.274757	-0.428382	-0.183140
C495	C	1.608091	-0.095049	0.150193
C496	C	0.903617	-0.720932	-0.469723
C497	C	1.236950	-0.387599	-0.136389
C498	C	1.570284	-0.054265	0.196944
H499	H	0.909692	-0.783939	-0.545717
H500	H	1.243026	-0.450606	-0.212384
H501	H	1.576359	-0.117272	0.120949
H502	H	0.970925	-0.738101	-0.544601
H503	H	1.304258	-0.404768	-0.211268
H504	H	1.637592	-0.071434	0.122066
H505	H	0.969287	-0.790773	-0.490805
H506	H	1.302620	-0.457440	-0.157472
H507	H	1.635953	-0.124107	0.175861
H508	H	0.875758	-0.691871	-0.495391
H509	H	1.209092	-0.358538	-0.162058
H510	H	1.542425	-0.025204	0.171276
H511	H	0.874104	-0.744548	-0.441592
H512	H	1.207437	-0.411215	-0.108259
H513	H	1.540770	-0.077882	0.225075
