data_functionalizedCrystal
_audit_creation_method	'MofGen! by Chris Wilmer'
_symmetry_space_group_name_H-M	'P1'
_symmetry_Int_Tables_number	1
_symmetry_cell_setting	triclinic
loop_
_symmetry_equiv_pos_as_xyz
  x,y,z
_cell_length_a	17.000371
_cell_length_b	17.019294
_cell_length_c	18.366186
_cell_angle_alpha	86.114787
_cell_angle_beta	89.990430
_cell_angle_gamma	79.505866
loop_
_atom_site_label
_atom_site_type_symbol
_atom_site_fract_x
_atom_site_fract_y
_atom_site_fract_z
O1	O	1.056076	0.028428	-0.062335
O2	O	1.556076	0.528428	0.437665
O3	O	0.824311	0.057060	-0.064130
O4	O	1.324311	0.557060	0.435870
O5	O	0.946658	-0.072537	-0.056001
O6	O	1.446658	0.427463	0.443999
O7	O	0.933728	0.158025	-0.070464
O8	O	1.433728	0.658025	0.429536
O9	O	0.946637	-0.072542	0.065099
O10	O	1.446637	0.427458	0.565099
O11	O	0.824290	0.057055	0.056969
O12	O	1.324290	0.557055	0.556969
O13	O	1.056055	0.028423	0.058765
O14	O	1.556055	0.528423	0.558765
Zn15	Zn	0.940169	0.042739	0.077094
Zn16	Zn	1.440169	0.542739	0.577094
Zn17	Zn	0.940196	0.042745	-0.082460
Zn18	Zn	1.440196	0.542745	0.417540
O19	O	0.933707	0.158021	0.050635
O20	O	1.433707	0.658021	0.550635
C21	C	0.794645	0.058596	-0.003677
C22	C	1.294645	0.558596	0.496323
C23	C	0.706281	0.063169	-0.003964
C24	C	1.206281	0.563169	0.496036
C25	C	0.674335	-0.007205	0.000452
C26	C	1.174335	0.492795	0.500452
C27	C	0.591307	-0.002903	0.000177
C28	C	1.091307	0.497097	0.500177
C29	C	0.540227	0.071773	-0.004509
C30	C	1.040227	0.571773	0.495491
C31	C	0.572178	0.142152	-0.008927
C32	C	1.072178	0.642152	0.491073
C33	C	0.655204	0.137849	-0.008657
C34	C	1.155204	0.637849	0.491343
C35	C	0.289062	0.088391	-0.005556
C36	C	0.789062	0.588391	0.494444
C37	C	0.206031	0.092688	-0.005824
C38	C	0.706031	0.592688	0.494176
C39	C	0.225165	-0.052367	0.003279
C40	C	0.725165	0.447633	0.503279
C41	C	0.308193	-0.056663	0.003553
C42	C	0.808193	0.443337	0.503553
C43	C	0.340137	0.013716	-0.000869
C44	C	0.840137	0.513716	0.499131
C45	C	0.455359	0.076171	-0.004788
C46	C	0.955359	0.576171	0.495212
C47	C	0.425003	0.009316	-0.000595
C48	C	0.925003	0.509316	0.499405
C49	C	0.946157	-0.101895	0.006389
C50	C	1.446157	0.398105	0.506389
C51	C	0.944685	-0.189363	0.011871
C52	C	1.444685	0.310637	0.511871
C53	C	0.944007	-0.230449	-0.051564
C54	C	1.444007	0.269551	0.448436
C55	C	0.942620	-0.312634	-0.046411
C56	C	1.442620	0.187366	0.453589
C57	C	0.941916	-0.353733	0.022178
C58	C	1.441916	0.146267	0.522178
C59	C	0.942592	-0.312641	0.085619
C60	C	1.442592	0.187359	0.585619
C61	C	0.943974	-0.230456	0.080464
C62	C	1.443974	0.269544	0.580464
C63	C	0.937738	-0.601876	0.041043
C64	C	1.437738	-0.101876	0.541043
C65	C	0.936358	-0.684067	0.046192
C66	C	1.436358	-0.184067	0.546192
C67	C	0.936385	-0.684055	-0.085838
C68	C	1.436385	-0.184055	0.414162
C69	C	0.937771	-0.601870	-0.090986
C70	C	1.437771	-0.101870	0.409014
C71	C	0.938443	-0.560784	-0.027546
C72	C	1.438443	-0.060784	0.472454
C73	C	0.940500	-0.437740	0.027448
C74	C	1.440500	0.062260	0.527448
C75	C	0.939853	-0.476778	-0.032816
C76	C	1.439853	0.023222	0.467184
C77	C	1.085721	0.026888	-0.001690
C78	C	1.585721	0.526888	0.498310
C79	C	1.174084	0.022315	-0.001408
C80	C	1.674084	0.522315	0.498592
C81	C	0.934208	0.187378	-0.011756
C82	C	1.434208	0.687378	0.488244
C83	C	0.935680	0.274847	-0.017243
C84	C	1.435680	0.774847	0.482757
N85	N	0.940156	0.042734	0.185986
N86	N	1.440156	0.542734	0.685986
N87	N	0.940216	0.042743	-0.191351
N88	N	1.440216	0.542743	0.308649
C89	C	0.994349	-0.014627	0.227684
C90	C	1.494349	0.485373	0.727684
C91	C	0.994354	-0.014631	0.303912
C92	C	1.494354	0.485369	0.803912
C93	C	0.940174	0.042739	0.338438
C94	C	1.440174	0.542739	0.838438
C95	C	0.885970	0.100104	0.296730
C96	C	1.385970	0.600104	0.796730
C97	C	0.885962	0.100102	0.220504
C98	C	1.385962	0.600102	0.720504
C99	C	0.929664	0.115311	0.454646
C100	C	1.429664	0.615311	0.954646
C101	C	0.929678	0.115314	0.530871
C102	C	1.429678	0.615314	1.030871
C103	C	0.940196	0.042747	0.573545
C104	C	1.440196	0.542747	1.073545
C105	C	0.950717	-0.029827	0.539986
C106	C	1.450717	0.470173	1.039986
C107	C	0.950708	-0.029830	0.463759
C108	C	1.450708	0.470170	0.963759
C109	C	0.940177	0.042748	0.421092
C110	C	1.440177	0.542748	0.921092
C111	C	0.994398	-0.014622	0.697899
C112	C	1.494398	0.485378	1.197899
C113	C	0.994398	-0.014627	0.774129
C114	C	1.494398	0.485373	1.274129
C115	C	0.886017	0.100115	0.766945
C116	C	1.386017	0.600115	1.266945
C117	C	0.886014	0.100113	0.690717
C118	C	1.386014	0.600113	1.190717
C119	C	0.940209	0.042745	0.656199
C120	C	1.440209	0.542745	1.156199
H121	H	0.565301	-0.060209	0.003772
H122	H	1.065301	0.439791	0.503772
C123	C	1.053957	-0.077741	0.189719
C124	C	1.553957	0.422259	0.689719
N125	N	1.098852	-0.125281	0.161123
N126	N	1.598852	0.374719	0.661123
H127	H	0.944585	-0.196994	-0.107417
H128	H	1.444585	0.303006	0.392583
C129	C	0.918092	0.195146	0.407711
C130	C	1.418092	0.695146	0.907711
N131	N	0.909377	0.255275	0.372361
N132	N	1.409377	0.755275	0.872361
H133	H	0.841830	0.146812	0.186552
H134	H	1.341830	0.646812	0.686552
C135	C	0.515986	0.224297	-0.014080
C136	C	1.015986	0.724297	0.485920
N137	N	0.473663	0.286170	-0.017958
N138	N	0.973663	0.786170	0.482042
C139	C	0.962270	-0.109659	0.426847
C140	C	1.462270	0.390341	0.926847
N141	N	0.970974	-0.169788	0.399044
N142	N	1.470974	0.330212	0.899044
H143	H	0.959282	-0.088918	0.574730
H144	H	1.459282	0.411082	1.074730
C145	C	0.826454	0.163268	0.644843
C146	C	1.326454	0.663268	1.144843
N147	N	0.781608	0.210856	0.610290
N148	N	1.281608	0.710856	1.110290
C149	C	0.730517	-0.089356	0.005607
C150	C	1.230517	0.410644	0.505607
N151	N	0.772831	-0.151234	0.009486
N152	N	1.272831	0.348766	0.509486
H153	H	0.349778	-0.117472	0.007372
H154	H	0.849778	0.382528	0.507372
C155	C	0.918097	0.195148	0.567779
C156	C	1.418097	0.695148	1.067779
N157	N	0.909370	0.255280	0.595576
N158	N	1.409370	0.755280	1.095576
H159	H	1.038524	-0.061337	0.669794
H160	H	1.538524	0.438663	1.169794
C161	C	0.941947	-0.357840	-0.116195
C162	C	1.441947	0.142160	0.383805
N163	N	0.941466	-0.391893	-0.168759
N164	N	1.441466	0.108107	0.331241
C165	C	0.324189	0.165811	-0.010406
C166	C	0.824189	0.665811	0.489594
N167	N	0.350649	0.224127	-0.014054
N168	N	0.850649	0.724127	0.485946
C169	C	1.053981	-0.077727	0.349789
C170	C	1.553981	0.422273	0.849789
N171	N	1.098896	-0.125248	0.384341
N172	N	1.598896	0.374752	0.884341
C173	C	0.190020	-0.129779	0.008136
C174	C	0.690020	0.370221	0.508136
N175	N	0.163548	-0.188089	0.011791
N176	N	0.663548	0.311911	0.511791
H177	H	0.841900	0.146824	0.795055
H178	H	1.341900	0.646824	1.295055
C179	C	0.935637	-0.729254	-0.155617
C180	C	1.435637	-0.229254	0.344383
N181	N	0.935070	-0.763298	-0.208178
N182	N	1.435070	-0.263298	0.291822
H183	H	0.413760	0.136973	-0.008602
H184	H	0.913760	0.636973	0.491398
H185	H	0.466596	-0.051485	0.003215
H186	H	0.966596	0.448515	0.503215
H187	H	0.841855	0.146815	0.324845
H188	H	1.341855	0.646815	0.824845
H189	H	0.164442	0.153502	-0.009636
H190	H	0.664442	0.653502	0.490364
C191	C	0.939726	-0.482956	0.102895
C192	C	1.439726	0.017044	0.602895
N193	N	0.939139	-0.517015	0.159721
N194	N	1.439139	-0.017015	0.659721
C195	C	1.054004	-0.077744	0.819998
C196	C	1.554004	0.422256	1.319998
N197	N	1.098897	-0.125288	0.854548
N198	N	1.598897	0.374712	1.354548
H199	H	0.681213	0.195155	-0.012250
H200	H	1.181213	0.695155	0.487750
H201	H	0.935781	-0.717527	0.102049
H202	H	1.435781	-0.217527	0.602049
C203	C	0.938546	-0.556668	-0.166440
C204	C	1.438546	-0.056668	0.333560
N205	N	0.939132	-0.522622	-0.223272
N206	N	1.439132	-0.022622	0.276728
H207	H	0.942014	-0.346109	0.141466
H208	H	1.442014	0.153891	0.641466
H209	H	0.938300	-0.568437	0.092701
H210	H	1.438300	-0.068437	0.592701
H211	H	0.944515	-0.197003	0.132120
H212	H	1.444515	0.302997	0.632120
H213	H	0.940421	-0.443311	-0.088661
H214	H	1.440421	0.056689	0.411339
