data_functionalizedCrystal
_audit_creation_method	'MofGen! by Chris Wilmer'
_symmetry_space_group_name_H-M	'P1'
_symmetry_Int_Tables_number	1
_symmetry_cell_setting	triclinic
loop_
_symmetry_equiv_pos_as_xyz
  x,y,z
_cell_length_a	23.096457
_cell_length_b	23.096457
_cell_length_c	21.606444
_cell_angle_alpha	89.999780
_cell_angle_beta	60.001221
_cell_angle_gamma	59.998679
loop_
_atom_site_label
_atom_site_type_symbol
_atom_site_fract_x
_atom_site_fract_y
_atom_site_fract_z
Zr1	Zr	0.633719	0.557788	-0.081207
O2	O	0.754511	0.465336	-0.180026
O3	O	0.512931	0.586128	-0.050917
O4	O	0.633722	0.586124	-0.180034
O5	O	0.633716	0.465344	0.050945
O6	O	0.633720	0.681407	-0.180036
O7	O	0.633720	0.465339	-0.050909
O8	O	0.417647	0.681412	0.050930
O9	O	0.849789	0.465339	-0.180022
O10	O	0.562610	0.669325	-0.037996
O11	O	0.562609	0.598220	0.038018
O12	O	0.704824	0.598217	-0.114001
O13	O	0.704823	0.527112	-0.037986
Zr14	Zr	0.633709	0.709760	0.081235
Zr15	Zr	0.633716	0.709752	-0.081210
Zr16	Zr	0.633713	0.557796	0.081239
Zr17	Zr	0.785677	0.557792	-0.081200
Zr18	Zr	0.481752	0.709756	0.081228
O19	O	0.754497	0.681421	0.050946
O20	O	0.754506	0.681410	-0.180031
O21	O	0.754502	0.465347	0.050951
O22	O	0.512917	0.802212	0.180055
O23	O	0.512926	0.802201	-0.050922
O24	O	0.512922	0.586139	0.180059
O25	O	0.633712	0.802204	-0.050917
O26	O	0.633706	0.681424	0.180063
O27	O	0.633708	0.586142	0.180065
O28	O	0.633708	0.802209	0.050937
O29	O	0.849786	0.586130	-0.180025
O30	O	0.417642	0.681418	0.180053
O31	O	0.417639	0.802210	0.180050
O32	O	0.417644	0.802204	0.050928
O33	O	0.849784	0.465345	-0.050899
O34	O	0.849781	0.586136	-0.050902
O35	O	0.562604	0.669332	0.114029
O36	O	0.562605	0.740436	0.038015
O37	O	0.704820	0.669328	-0.037990
O38	O	0.704818	0.598224	0.038025
C39	C	0.633719	0.443690	0.000019
C40	C	0.633720	0.379177	0.000020
C41	C	0.443639	0.633769	0.000006
C42	C	0.379129	0.633768	0.000003
C43	C	0.633728	0.348872	-0.056096
C44	C	0.633721	0.288259	-0.056096
C45	C	0.633722	0.257947	0.000015
C46	C	0.633709	0.288262	0.056140
C47	C	0.633708	0.348877	0.056143
N48	N	0.680076	0.139597	0.017004
N49	N	0.680078	0.082014	0.016997
C50	C	0.633722	0.075317	0.000011
N51	N	0.587374	0.128374	-0.016982
N52	N	0.587375	0.185960	-0.016979
C53	C	0.633722	0.192220	0.000018
C54	C	0.633721	-0.020710	-0.056108
C55	C	0.633709	-0.081321	-0.056103
C56	C	0.633705	-0.081322	0.056130
C57	C	0.633709	-0.020708	0.056128
C58	C	0.633721	0.009592	0.000005
C59	C	0.348828	0.670879	-0.039679
C60	C	0.288206	0.670886	-0.039672
C61	C	0.257898	0.633768	0.000005
C62	C	0.288202	0.596655	0.039695
C63	C	0.348818	0.596655	0.039694
N64	N	0.195504	0.573362	-0.005496
N65	N	0.137923	0.573363	-0.005499
C66	C	0.075266	0.633767	0.000012
N67	N	0.072372	0.694168	0.005511
N68	N	0.129961	0.694165	0.005510
C69	C	0.192170	0.633764	0.000011
C70	C	-0.020769	0.670889	-0.039665
C71	C	-0.081396	0.670898	-0.039653
C72	C	-0.081392	0.596661	0.039709
C73	C	-0.020772	0.596658	0.039703
C74	C	0.009539	0.633771	0.000012
C75	C	0.823790	0.633779	0.000023
C76	C	0.888299	0.633781	0.000026
C77	C	0.633722	0.633765	-0.203180
C78	C	0.633725	0.633761	-0.272143
C79	C	0.633710	0.823858	0.000010
C80	C	0.633708	0.888371	0.000008
C81	C	0.707959	0.596643	-0.344215
C82	C	0.707957	0.596649	-0.409010
C83	C	0.633720	0.633770	-0.401731
C84	C	0.559480	0.670892	-0.329651
C85	C	0.559483	0.670890	-0.264858
C86	C	0.559466	0.670904	-0.590954
C87	C	0.559468	0.670901	-0.655755
C88	C	0.707939	0.596663	-0.735106
C89	C	0.707942	0.596661	-0.670313
C90	C	0.633703	0.633786	-0.598239
C91	C	0.633707	0.633780	-0.527981
C92	C	0.633715	0.633772	-0.471987
C93	C	0.633706	0.633784	0.203209
C94	C	0.633703	0.633787	0.272171
C95	C	0.443634	0.823854	0.000001
C96	C	0.379123	0.888365	-0.000003
C97	C	0.443630	0.633779	0.203200
C98	C	0.379118	0.633781	0.272160
C99	C	0.443626	0.823863	0.203196
C100	C	0.379112	0.888378	0.272154
C101	C	0.823802	0.443685	-0.203167
C102	C	0.888316	0.379171	-0.272126
C103	C	0.823794	0.443695	0.000027
C104	C	0.888306	0.379184	0.000031
C105	C	0.823798	0.633769	-0.203172
C106	C	0.888310	0.633768	-0.272131
C107	C	0.348830	0.881540	-0.039689
C108	C	0.288223	0.942150	-0.039708
C109	C	0.257906	1.009583	-0.000037
C110	C	0.288205	1.016406	0.039650
C111	C	0.348815	0.955797	0.039665
C112	C	0.348820	0.670901	0.344228
C113	C	0.288212	0.670900	0.409029
C114	C	0.257899	0.633782	0.401760
C115	C	0.288203	0.596657	0.329685
C116	C	0.348814	0.596655	0.264885
C117	C	0.348816	0.955797	0.264859
C118	C	0.288206	1.016421	0.329646
C119	C	0.257890	1.009624	0.401728
C120	C	0.288192	0.942198	0.409021
C121	C	0.348804	0.881576	0.344235
C122	C	0.918620	0.311752	-0.264830
C123	C	0.979248	0.251128	-0.329617
C124	C	1.009568	0.257924	-0.401699
C125	C	0.979262	0.325350	-0.408993
C126	C	0.918639	0.385973	-0.344206
C127	C	0.918605	0.386008	0.039711
C128	C	0.979228	0.325399	0.039712
C129	C	1.009548	0.257966	0.000038
C130	C	0.979246	0.251143	-0.039646
C131	C	0.918628	0.311751	-0.039651
C132	C	0.918604	0.670893	-0.264838
C133	C	0.979212	0.670905	-0.329627
C134	C	1.009530	0.633788	-0.401708
C135	C	0.979231	0.596662	-0.408999
C136	C	0.918619	0.596654	-0.344211
H137	H	0.633727	0.263580	-0.101794
H138	H	0.373463	0.826682	0.350185
H139	H	0.373475	0.566429	0.206207
H140	H	0.633707	0.003966	0.101820
N141	N	0.255530	1.089138	0.321769
H142	H	0.283930	1.084239	0.266274
H143	H	0.194681	1.115909	0.346924
N144	N	0.255539	0.934785	-0.082504
H145	H	0.266095	0.958267	-0.122443
H146	H	0.283951	0.882857	-0.107576
H147	H	0.373514	0.826638	-0.072003
H148	H	0.893928	0.701118	-0.206153
H149	H	0.633735	0.373542	-0.101793
H150	H	1.003890	0.330968	0.072030
N151	N	1.011941	0.556629	-0.486747
H152	H	1.037098	0.504701	-0.492823
H153	H	0.965667	0.576148	-0.492783
N154	N	0.255519	0.556617	0.082485
H155	H	0.283915	0.533107	0.107625
H156	H	0.194671	0.590701	0.122371
N157	N	0.255488	1.089140	0.082448
H158	H	0.283869	1.084275	0.107598
H159	H	0.266033	1.115908	0.046017
N160	N	0.192535	1.074950	-0.000057
H161	H	0.177948	1.060388	-0.031219
H162	H	0.142274	1.104102	0.053697
H163	H	1.058907	0.208620	0.000049
N164	N	0.885911	0.458736	0.082499
H165	H	0.860767	0.464419	0.138005
H166	H	0.932197	0.464367	0.061619
N167	N	0.011927	0.710917	-0.082470
H168	H	-0.034315	0.762844	-0.061660
H169	H	0.054941	0.705224	-0.076441
N170	N	1.011941	0.178409	-0.082423
H171	H	0.965694	0.172732	-0.061603
H172	H	1.037106	0.172759	-0.137923
H173	H	0.373471	0.961364	0.071986
H174	H	0.373493	0.701127	0.350160
N175	N	0.255531	0.710901	-0.082489
H176	H	0.212535	0.705265	-0.076468
H177	H	0.230427	0.762812	-0.061670
H178	H	0.893960	0.306185	-0.071960
N179	N	1.011883	0.710951	-0.321753
H180	H	0.983481	0.734456	-0.266258
H181	H	1.072732	0.676876	-0.346907
H182	H	-0.106069	0.566439	0.072016
N183	N	0.633718	0.255565	0.116654
H184	H	0.633713	0.283964	0.152206
H185	H	0.583235	0.255656	0.146078
N186	N	0.885952	0.458684	-0.352091
H187	H	0.825108	0.485481	-0.326988
H188	H	0.896544	0.485450	-0.326991
H189	H	0.373489	0.566433	0.072007
N190	N	0.255520	0.710954	0.486762
H191	H	0.266073	0.676920	0.515422
H192	H	0.283929	0.734472	0.481466
N193	N	1.074896	0.633807	-0.471583
H194	H	1.089482	0.662961	-0.456018
H195	H	1.125160	0.583520	-0.502746
H196	H	0.893936	0.306204	-0.206144
H197	H	0.768394	0.566430	-0.676247
N198	N	0.192524	0.633789	0.471654
H199	H	0.177932	0.662941	0.518409
H200	H	0.142266	0.654899	0.471619
N201	N	1.011963	0.332678	-0.486739
H202	H	1.072809	0.309181	-0.515386
H203	H	1.001361	0.309181	-0.515323
H204	H	0.768405	0.566426	-0.467692
H205	H	0.768389	0.566436	-0.793798
H206	H	0.263513	0.566437	0.323778
H207	H	0.893961	0.566419	-0.350160
H208	H	0.633701	-0.105999	0.101819
H209	H	0.633701	0.373553	0.101840
H210	H	0.633727	0.003963	-0.101805
N211	N	0.788032	0.556611	-0.352072
H212	H	0.776772	0.562240	-0.300090
H213	H	0.820453	0.504703	-0.380727
N214	N	0.633710	-0.114007	-0.116627
H215	H	0.633719	-0.085613	-0.152178
H216	H	0.684194	-0.164402	-0.146050
N217	N	1.011925	0.178411	-0.321741
H218	H	0.983509	0.183310	-0.266246
H219	H	1.001385	0.151637	-0.346900
H220	H	0.373491	0.961344	0.206172
N221	N	1.074950	0.192538	-0.471576
H222	H	1.125243	0.163367	-0.471595
H223	H	1.053779	0.163421	-0.471556
N224	N	0.381520	0.710906	-0.082486
H225	H	0.353122	0.734417	-0.107623
H226	H	0.370971	0.748225	-0.046058
H227	H	0.208535	1.058993	0.454475
H228	H	0.003901	0.566436	0.072013
N229	N	-0.114084	0.710931	-0.082450
H230	H	-0.085680	0.734438	-0.107594
H231	H	-0.103538	0.676846	-0.122333
N232	N	0.479395	0.710948	-0.647904
H233	H	0.432364	0.734470	-0.592414
H234	H	0.476174	0.748258	-0.673065
H235	H	0.499016	0.701134	-0.532277
H236	H	0.499035	0.701120	-0.323729
H237	H	0.499034	0.701115	-0.206173
N238	N	0.255488	0.934873	0.486768
H239	H	0.212492	0.983511	0.526697
H240	H	0.230376	0.908076	0.492775
