data_functionalizedCrystal
_audit_creation_method	'MofGen! by Chris Wilmer'
_symmetry_space_group_name_H-M	'P1'
_symmetry_Int_Tables_number	1
_symmetry_cell_setting	triclinic
loop_
_symmetry_equiv_pos_as_xyz
  x,y,z
_cell_length_a	9.016244
_cell_length_b	14.853567
_cell_length_c	14.853567
_cell_angle_alpha	96.365070
_cell_angle_beta	89.998439
_cell_angle_gamma	89.995630
loop_
_atom_site_label
_atom_site_type_symbol
_atom_site_fract_x
_atom_site_fract_y
_atom_site_fract_z
O1	O	0.123225	-1.196369	0.117700
O2	O	0.123249	-0.933909	0.131722
O3	O	0.123241	-1.072150	-0.006519
O4	O	0.123233	-1.058128	0.255941
O5	O	-0.123440	-1.072130	-0.006515
O6	O	-0.123432	-0.933889	0.131725
O7	O	-0.123456	-1.196349	0.117704
Cu8	Cu	-0.145968	-1.065117	0.124715
Cu9	Cu	0.145761	-1.065141	0.124711
O10	O	-0.123447	-1.058108	0.255944
C11	C	-0.000088	-0.900311	0.131088
C12	C	-0.000078	-0.800227	0.129184
N13	N	-0.351154	-1.065107	0.124717
C14	C	-0.000095	-1.071504	-0.040106
C15	C	-0.000082	-1.069601	-0.140189
C16	C	-0.586182	-0.990934	0.198422
C17	C	-0.414291	-0.991095	0.198694
C18	C	-0.413502	-1.159203	0.145382
C19	C	-0.585446	-1.158797	0.145903
C20	C	-0.585692	-1.046122	0.030100
C21	C	-0.413738	-1.043954	0.030731
N22	N	0.350947	-1.065158	0.124702
C23	C	-0.000115	-1.229947	0.118337
C24	C	-0.000115	-1.330031	0.120241
C25	C	-0.000109	-0.387693	0.039019
C26	C	-0.000112	-0.366412	0.203251
C27	C	-0.000108	-0.460446	0.205042
C28	C	-0.000101	-0.518108	0.123819
C29	C	-0.000100	-0.481736	0.040806
C30	C	-0.000094	-0.496825	0.288053
C31	C	-0.000088	-0.590864	0.289846
C32	C	-0.000092	-0.648528	0.208623
C33	C	-0.000092	-0.612150	0.125607
C34	C	-0.000086	-0.669812	0.044384
C35	C	-0.000097	-0.633437	-0.038633
C36	C	-0.000104	-0.539399	-0.040417
C37	C	-0.000085	-0.742565	0.210407
C38	C	-0.000077	-0.763855	0.046172
C39	C	-0.000102	-0.979435	-0.552723
C40	C	-0.000117	-1.143668	-0.574004
C41	C	-0.000108	-1.145458	-0.479971
C42	C	-0.000099	-1.064235	-0.422309
C43	C	-0.000098	-0.981223	-0.458680
C44	C	-0.000124	-1.228469	-0.443591
C45	C	-0.000117	-1.230262	-0.349552
C46	C	-0.000097	-1.149039	-0.291889
C47	C	-0.000095	-1.066023	-0.328266
C48	C	-0.000085	-0.984800	-0.270604
C49	C	-0.000072	-0.901783	-0.306979
C50	C	-0.000078	-0.899999	-0.401017
C51	C	-0.000091	-1.150823	-0.197851
C52	C	-0.000081	-0.986588	-0.176561
C53	C	-0.000108	-1.058754	0.289531
C54	C	-0.000111	-1.060657	0.389615
H55	H	-0.372140	-0.921156	0.186364
Br56	Br	-0.000063	-0.866774	-0.602086
Br57	Br	-0.658042	-0.934222	-0.002957
Br58	Br	-0.342137	-1.128192	-0.065005
Br59	Br	-0.000114	-0.490027	-0.153073
Br60	Br	-0.000071	-0.418568	0.398276
H61	H	-0.000123	-0.358072	-0.028572
Br62	Br	-0.000162	-1.253893	-0.652259
H63	H	-0.000146	-1.294596	-0.490546
Br64	Br	-0.345346	-1.253464	0.058279
Br65	Br	-0.000078	-0.791557	-0.228714
Br66	Br	-0.655117	-0.873986	0.178190
Br67	Br	-0.000112	-1.342925	-0.300193
H68	H	-0.000105	-0.319459	0.269379
H69	H	-0.000067	-0.920445	-0.129618
H70	H	-0.000112	-1.218414	-0.168238
Br71	Br	-0.658144	-1.010945	0.314774
Br72	Br	-0.000050	-0.787343	-0.450389
H73	H	-0.000079	-0.620472	0.357443
H74	H	-0.000078	-0.772178	0.277998
H75	H	-0.372989	-0.974736	0.015051
Br76	Br	-0.653450	-1.136335	-0.061340
Br77	Br	-0.000086	-0.842104	-0.064065
Br78	Br	-0.652279	-1.186727	0.260900
Br79	Br	-0.345702	-1.011325	0.315714
H80	H	-0.627032	-1.215760	0.094332
Br81	Br	-0.000071	-0.711703	-0.148859
H82	H	-0.370428	-1.176352	0.213594
