data_functionalizedCrystal
_audit_creation_method	'MofGen! by Chris Wilmer'
_symmetry_space_group_name_H-M	'P1'
_symmetry_Int_Tables_number	1
_symmetry_cell_setting	triclinic
loop_
_symmetry_equiv_pos_as_xyz
  x,y,z
_cell_length_a	16.109301
_cell_length_b	16.776229
_cell_length_c	17.699083
_cell_angle_alpha	90.007545
_cell_angle_beta	83.372248
_cell_angle_gamma	90.004422
loop_
_atom_site_label
_atom_site_type_symbol
_atom_site_fract_x
_atom_site_fract_y
_atom_site_fract_z
O1	O	1.102967	0.066239	0.097287
O2	O	0.860884	0.066252	0.109394
O3	O	0.988765	0.066238	-0.006839
O4	O	0.975086	0.066253	0.213520
O5	O	0.988748	-0.066338	-0.006846
O6	O	0.860868	-0.066324	0.109387
O7	O	1.102950	-0.066337	0.097280
Zn8	Zn	0.981906	-0.087380	0.103332
Zn9	Zn	0.981929	0.087295	0.103342
O10	O	0.975069	-0.066323	0.213513
C11	C	0.829902	-0.000034	0.108900
C12	C	0.737609	-0.000030	0.107430
N13	N	0.981897	-0.206591	0.103326
C14	C	0.515224	-0.000035	0.172981
C15	C	0.428506	-0.000040	0.171594
C16	C	0.448618	-0.000046	0.033688
C17	C	0.535334	-0.000046	0.035076
C18	C	0.568635	-0.000037	0.104725
C19	C	0.395200	-0.000041	0.101949
C20	C	0.301177	-0.000047	0.100445
C21	C	0.662664	-0.000032	0.106230
C22	C	1.038540	-0.248314	0.051879
C23	C	1.038545	-0.331767	0.051878
C24	C	0.981910	-0.373494	0.103328
C25	C	0.925261	-0.331765	0.154778
C26	C	0.925253	-0.248314	0.154774
C27	C	0.925291	-0.668312	0.154793
C28	C	0.925305	-0.751769	0.154794
C29	C	1.038582	-0.751765	0.051897
C30	C	1.038575	-0.668314	0.051893
C31	C	0.981923	-0.626592	0.103339
C32	C	0.981918	-0.536104	0.103338
C33	C	0.981918	-0.463981	0.103334
C34	C	1.133933	-0.000049	0.097774
C35	C	1.226226	-0.000048	0.099244
C36	C	0.988267	-0.000050	-0.035040
C37	C	0.986796	-0.000050	-0.119060
N38	N	0.981944	0.206506	0.103343
C39	C	1.061860	-0.000055	-0.167574
C40	C	1.060473	-0.000048	-0.246519
C41	C	0.984022	-0.000042	-0.276949
C42	C	0.908953	-0.000034	-0.228429
C43	C	0.910341	-0.000036	-0.149485
C44	C	0.903356	-0.000027	-0.546800
C45	C	0.901974	-0.000028	-0.625750
C46	C	1.053488	-0.000040	-0.643834
C47	C	1.054876	-0.000041	-0.564890
C48	C	0.979807	-0.000030	-0.516377
C49	C	0.981312	-0.000036	-0.430776
C50	C	0.982517	-0.000041	-0.362549
C51	C	0.975568	-0.000033	0.241714
C52	C	0.977039	-0.000028	0.325734
H53	H	0.542334	-0.000033	0.229694
H54	H	1.121597	-0.000054	-0.286017
C55	C	1.138971	-0.000045	-0.531421
H56	H	1.183479	-0.000039	-0.571622
H57	H	1.142659	-0.046276	-0.501005
H58	H	1.142663	0.046194	-0.500998
C59	C	1.136066	-0.000044	-0.697197
H60	H	1.181795	-0.000057	-0.667766
H61	H	1.138686	0.046189	-0.728363
H62	H	1.138667	-0.046281	-0.728374
C63	C	1.100893	-0.797657	-0.004703
H64	H	1.134626	-0.760852	-0.035339
H65	H	1.071058	-0.830221	-0.036220
H66	H	1.135449	-0.830200	0.022539
C67	C	0.817875	-0.000011	-0.659222
H68	H	0.773365	0.000005	-0.619023
H69	H	0.814172	-0.046241	-0.689648
H70	H	0.814202	0.046229	-0.689636
H71	H	1.124115	-0.000065	-0.142805
C72	C	0.863000	-0.622425	0.211399
H73	H	0.871101	-0.566748	0.204031
H74	H	0.871942	-0.636099	0.261909
H75	H	0.807525	-0.636108	0.203173
C76	C	0.820784	-0.000028	-0.493446
H77	H	0.775057	-0.000035	-0.522878
H78	H	0.818173	0.046202	-0.462266
H79	H	0.818173	-0.046269	-0.462283
C80	C	0.824859	-0.000029	-0.261900
H81	H	0.834782	-0.000038	-0.315865
H82	H	0.793962	0.046204	-0.245242
H83	H	0.793956	-0.046267	-0.245250
C84	C	0.862965	-0.377663	0.211373
H85	H	0.871087	-0.433339	0.204014
H86	H	0.807495	-0.364000	0.203139
H87	H	0.871894	-0.363973	0.261891
H88	H	0.385022	-0.000040	0.227175
C89	C	0.827773	-0.000030	-0.096117
H90	H	0.839548	-0.000023	-0.044743
H91	H	0.796408	-0.046258	-0.105341
H92	H	0.796429	0.046213	-0.105335
H93	H	0.421494	-0.000058	-0.023018
C94	C	0.862949	-0.202419	0.211369
H95	H	0.829226	-0.239221	0.242016
H96	H	0.828396	-0.169875	0.184131
H97	H	0.892792	-0.169855	0.242885
H98	H	0.578824	-0.000050	-0.020510
H99	H	1.084662	-0.214345	0.009985
C100	C	0.863002	-0.797672	0.211387
H101	H	0.871129	-0.853347	0.204024
H102	H	0.807533	-0.784011	0.203147
H103	H	0.871923	-0.783984	0.261907
C104	C	1.100859	-0.377659	-0.004706
H105	H	1.134596	-0.340856	-0.035340
H106	H	1.071031	-0.410226	-0.036226
H107	H	1.135411	-0.410199	0.022543
H108	H	1.084695	-0.634342	0.010000
