data_functionalizedCrystal
_audit_creation_method	'MofGen! by Chris Wilmer'
_symmetry_space_group_name_H-M	'P1'
_symmetry_Int_Tables_number	1
_symmetry_cell_setting	triclinic
loop_
_symmetry_equiv_pos_as_xyz
  x,y,z
_cell_length_a	15.944551
_cell_length_b	19.188930
_cell_length_c	14.421503
_cell_angle_alpha	89.999163
_cell_angle_beta	89.996859
_cell_angle_gamma	83.321760
loop_
_atom_site_label
_atom_site_type_symbol
_atom_site_fract_x
_atom_site_fract_y
_atom_site_fract_z
O1	O	1.114192	0.090038	-0.077026
O2	O	1.364192	0.340038	0.172974
O3	O	1.614192	0.590038	0.422974
O4	O	1.864192	0.840038	0.672974
O5	O	0.869601	0.101140	-0.077050
O6	O	1.119601	0.351140	0.172950
O7	O	1.369601	0.601140	0.422950
O8	O	1.619601	0.851140	0.672950
O9	O	0.998955	-0.006048	-0.077019
O10	O	1.248955	0.243952	0.172981
O11	O	1.498955	0.493952	0.422981
O12	O	1.748955	0.743952	0.672981
O13	O	0.984838	0.197227	-0.077057
O14	O	1.234838	0.447227	0.172943
O15	O	1.484838	0.697227	0.422943
O16	O	1.734838	0.947227	0.672943
O17	O	0.998934	-0.006032	0.077204
O18	O	1.248934	0.243968	0.327204
O19	O	1.498934	0.493968	0.577204
O20	O	1.748934	0.743968	0.827204
O21	O	0.869580	0.101156	0.077173
O22	O	1.119580	0.351156	0.327173
O23	O	1.369580	0.601156	0.577173
O24	O	1.619580	0.851156	0.827173
O25	O	1.114171	0.090054	0.077198
O26	O	1.364171	0.340054	0.327198
O27	O	1.614171	0.590054	0.577198
O28	O	1.864171	0.840054	0.827198
Cu29	Cu	0.991873	0.095607	0.091267
Cu30	Cu	1.241873	0.345607	0.341267
Cu31	Cu	1.491873	0.595607	0.591267
Cu32	Cu	1.741873	0.845607	0.841267
Cu33	Cu	0.991899	0.095588	-0.091120
Cu34	Cu	1.241899	0.345588	0.158880
Cu35	Cu	1.491899	0.595588	0.408880
Cu36	Cu	1.741899	0.845588	0.658880
O37	O	0.984817	0.197243	0.077167
O38	O	1.234817	0.447243	0.327167
O39	O	1.484817	0.697243	0.577167
O40	O	1.734817	0.947243	0.827167
C41	C	0.838298	0.100687	0.000059
C42	C	1.088298	0.350687	0.250059
C43	C	1.338298	0.600687	0.500059
C44	C	1.588298	0.850687	0.750059
C45	C	0.745057	0.099306	0.000050
C46	C	0.995057	0.349306	0.250050
C47	C	1.245057	0.599306	0.500050
C48	C	1.495057	0.849306	0.750050
C49	C	0.530462	0.029563	0.000081
C50	C	0.780462	0.279563	0.250081
C51	C	1.030462	0.529563	0.500081
C52	C	1.280462	0.779563	0.750081
C53	C	0.469331	0.061941	-0.075965
C54	C	0.719331	0.311941	0.174035
C55	C	0.969331	0.561941	0.424035
C56	C	1.219331	0.811941	0.674035
C57	C	0.574341	0.096806	0.000062
C58	C	0.824341	0.346806	0.250062
C59	C	1.074341	0.596806	0.500062
C60	C	1.324341	0.846806	0.750062
C61	C	0.469332	0.061973	0.076087
C62	C	0.719332	0.311973	0.326087
C63	C	0.969332	0.561973	0.576087
C64	C	1.219332	0.811973	0.826087
C65	C	0.409437	0.094386	0.000077
C66	C	0.659437	0.344386	0.250077
C67	C	0.909437	0.594386	0.500077
C68	C	1.159437	0.844386	0.750077
C69	C	0.514438	0.129203	-0.076047
C70	C	0.764438	0.379203	0.173953
C71	C	1.014438	0.629203	0.423953
C72	C	1.264438	0.879203	0.673953
C73	C	0.514446	0.129225	0.076073
C74	C	0.764446	0.379225	0.326073
C75	C	1.014446	0.629225	0.576073
C76	C	1.264446	0.879225	0.826073
C77	C	0.453332	0.161652	0.000008
C78	C	0.703332	0.411652	0.250008
C79	C	0.953332	0.661652	0.500008
C80	C	1.203332	0.911652	0.750008
C81	C	0.669338	0.098198	0.000052
C82	C	0.919338	0.348198	0.250052
C83	C	1.169338	0.598198	0.500052
C84	C	1.419338	0.848198	0.750052
C85	C	0.314441	0.093000	0.000080
C86	C	0.564441	0.343000	0.250080
C87	C	0.814441	0.593000	0.500080
C88	C	1.064441	0.843000	0.750080
C89	C	0.998487	-0.032052	0.000095
C90	C	1.248487	0.217948	0.250095
C91	C	1.498487	0.467948	0.500095
C92	C	1.748487	0.717948	0.750095
C93	C	0.997115	-0.109560	0.000103
C94	C	1.247115	0.140440	0.250103
C95	C	1.497115	0.390440	0.500103
C96	C	1.747115	0.640440	0.750103
C97	C	1.073016	-0.154288	0.000115
C98	C	1.323016	0.095712	0.250115
C99	C	1.573016	0.345712	0.500115
C100	C	1.823016	0.595712	0.750115
C101	C	1.071726	-0.227115	0.000100
C102	C	1.321726	0.022885	0.250100
C103	C	1.571726	0.272885	0.500100
C104	C	1.821726	0.522885	0.750100
C105	C	0.994532	-0.255211	0.000092
C106	C	1.244532	-0.005211	0.250092
C107	C	1.494532	0.244789	0.500092
C108	C	1.744532	0.494789	0.750092
C109	C	0.918622	-0.210474	0.000075
C110	C	1.168622	0.039526	0.250075
C111	C	1.418622	0.289526	0.500075
C112	C	1.668622	0.539526	0.750075
C113	C	0.919913	-0.137648	0.000080
C114	C	1.169913	0.112352	0.250080
C115	C	1.419913	0.362352	0.500080
C116	C	1.669913	0.612352	0.750080
N117	N	0.935519	-0.363364	0.052571
N118	N	1.185519	-0.113364	0.302571
N119	N	1.435519	0.136636	0.552571
N120	N	1.685519	0.386636	0.802571
N121	N	0.934298	-0.432545	0.052568
N122	N	1.184298	-0.182545	0.302568
N123	N	1.434298	0.067455	0.552568
N124	N	1.684298	0.317455	0.802568
C125	C	0.990637	-0.474630	0.000073
C126	C	1.240637	-0.224630	0.250073
C127	C	1.490637	0.025370	0.500073
C128	C	1.740637	0.275370	0.750073
N129	N	1.048256	-0.444921	-0.052407
N130	N	1.298256	-0.194921	0.197593
N131	N	1.548256	0.055079	0.447593
N132	N	1.798256	0.305079	0.697593
N133	N	1.049480	-0.375733	-0.052400
N134	N	1.299480	-0.125733	0.197600
N135	N	1.549480	0.124267	0.447600
N136	N	1.799480	0.374267	0.697600
C137	C	0.993123	-0.334178	0.000085
C138	C	1.243123	-0.084178	0.250085
C139	C	1.493123	0.165822	0.500085
C140	C	1.743123	0.415822	0.750085
C141	C	1.065145	-0.598326	0.000067
C142	C	1.315145	-0.348326	0.250067
C143	C	1.565145	-0.098326	0.500067
C144	C	1.815145	0.151674	0.750067
C145	C	1.063852	-0.671154	0.000046
C146	C	1.313852	-0.421154	0.250046
C147	C	1.563852	-0.171154	0.500046
C148	C	1.813852	0.078846	0.750046
C149	C	0.910745	-0.654511	0.000030
C150	C	1.160745	-0.404511	0.250030
C151	C	1.410745	-0.154511	0.500030
C152	C	1.660745	0.095489	0.750030
C153	C	0.912040	-0.581685	0.000041
C154	C	1.162040	-0.331685	0.250041
C155	C	1.412040	-0.081685	0.500041
C156	C	1.662040	0.168315	0.750041
C157	C	0.989242	-0.553597	0.000064
C158	C	1.239242	-0.303597	0.250064
C159	C	1.489242	-0.053597	0.500064
C160	C	1.739242	0.196403	0.750064
C161	C	1.145474	0.090507	0.000087
C162	C	1.395474	0.340507	0.250087
C163	C	1.645474	0.590507	0.500087
C164	C	1.895474	0.840507	0.750087
C165	C	1.238715	0.091889	0.000089
C166	C	1.488715	0.341889	0.250089
C167	C	1.738715	0.591889	0.500089
C168	C	1.988715	0.841889	0.750089
C169	C	0.985285	0.223247	0.000050
C170	C	1.235285	0.473247	0.250050
C171	C	1.485285	0.723247	0.500050
C172	C	1.735285	0.973247	0.750050
C173	C	0.986657	0.300755	0.000036
C174	C	1.236657	0.550755	0.250036
C175	C	1.486657	0.800755	0.500036
C176	C	1.736657	1.050755	0.750036
N177	N	0.991862	0.095619	0.219549
N178	N	1.241862	0.345619	0.469549
N179	N	1.491862	0.595619	0.719549
N180	N	1.741862	0.845619	0.969549
N181	N	0.991917	0.095569	-0.219401
N182	N	1.241917	0.345569	0.030599
N183	N	1.491917	0.595569	0.280599
N184	N	1.741917	0.845569	0.530599
C185	C	0.932038	0.145161	0.469188
C186	C	1.182038	0.395161	0.719188
C187	C	1.432038	0.645161	0.969188
C188	C	1.682038	0.895161	1.219188
C189	C	1.007887	0.158716	0.530995
C190	C	1.257887	0.408716	0.780995
C191	C	1.507887	0.658716	1.030995
C192	C	1.757887	0.908716	1.280995
C193	C	0.991882	0.095603	0.408710
C194	C	1.241882	0.345603	0.658710
C195	C	1.491882	0.595603	0.908710
C196	C	1.741882	0.845603	1.158710
C197	C	0.916052	0.082064	0.530997
C198	C	1.166052	0.332064	0.780997
C199	C	1.416052	0.582064	1.030997
C200	C	1.666052	0.832064	1.280997
C201	C	0.991895	0.095588	0.591431
C202	C	1.241895	0.345588	0.841431
C203	C	1.491895	0.595588	1.091431
C204	C	1.741895	0.845588	1.341431
C205	C	1.067770	0.109189	0.469157
C206	C	1.317770	0.359189	0.719157
C207	C	1.567770	0.609189	0.969157
C208	C	1.817770	0.859189	1.219157
C209	C	0.975885	0.032510	0.469153
C210	C	1.225885	0.282510	0.719153
C211	C	1.475885	0.532510	0.969153
C212	C	1.725885	0.782510	1.219153
C213	C	1.051789	0.046038	0.530932
C214	C	1.301789	0.296038	0.780932
C215	C	1.551789	0.546038	1.030932
C216	C	1.801789	0.796038	1.280932
C217	C	0.991874	0.095613	0.303449
C218	C	1.241874	0.345613	0.553449
C219	C	1.491874	0.595613	0.803449
C220	C	1.741874	0.845613	1.053449
C221	C	0.991913	0.095578	0.696690
C222	C	1.241913	0.345578	0.946690
C223	C	1.491913	0.595578	1.196690
C224	C	1.741913	0.845578	1.446690
H225	H	0.534329	0.157616	-0.140409
H226	H	0.784329	0.407616	0.109591
H227	H	1.034329	0.657616	0.359591
H228	H	1.284329	0.907616	0.609591
Cl229	Cl	0.853983	0.209915	0.427325
Cl230	Cl	1.103983	0.459915	0.677325
Cl231	Cl	1.353983	0.709915	0.927325
Cl232	Cl	1.603983	0.959915	1.177325
Cl233	Cl	1.167152	-0.283355	0.000114
Cl234	Cl	1.417152	-0.033355	0.250114
Cl235	Cl	1.667152	0.216645	0.500114
Cl236	Cl	1.917152	0.466645	0.750114
Cl237	Cl	1.162196	-0.563012	0.000101
Cl238	Cl	1.412196	-0.313012	0.250101
Cl239	Cl	1.662196	-0.063012	0.500101
Cl240	Cl	1.912196	0.186988	0.750101
H241	H	1.131917	0.120698	0.442107
H242	H	1.381917	0.370698	0.692107
H243	H	1.631917	0.620698	0.942107
H244	H	1.881917	0.870698	1.192107
H245	H	0.855769	-0.233354	0.000066
H246	H	1.105769	0.016646	0.250066
H247	H	1.355769	0.266646	0.500066
H248	H	1.605769	0.516646	0.750066
H249	H	0.449336	0.033493	-0.140247
H250	H	0.699336	0.283493	0.109753
H251	H	0.949336	0.533493	0.359753
H252	H	1.199336	0.783493	0.609753
H253	H	0.419965	0.217516	-0.000045
H254	H	0.669965	0.467516	0.249955
H255	H	0.919965	0.717516	0.499955
H256	H	1.169965	0.967516	0.749955
Cl257	Cl	0.438473	0.018055	0.175347
Cl258	Cl	0.688473	0.268055	0.425347
Cl259	Cl	0.938473	0.518055	0.675347
Cl260	Cl	1.188473	0.768055	0.925347
H261	H	0.851919	0.070620	0.558163
H262	H	1.101919	0.320620	0.808163
H263	H	1.351919	0.570620	1.058163
H264	H	1.601919	0.820620	1.308163
H265	H	0.850233	-0.545266	0.000037
H266	H	1.100233	-0.295266	0.250037
H267	H	1.350233	-0.045266	0.500037
H268	H	1.600233	0.204734	0.750037
Cl269	Cl	1.170070	-0.118981	0.000118
Cl270	Cl	1.420070	0.131019	0.250118
Cl271	Cl	1.670070	0.381019	0.500118
Cl272	Cl	1.920070	0.631019	0.750118
H273	H	0.847892	-0.677386	0.000019
H274	H	1.097892	-0.427386	0.250019
H275	H	1.347892	-0.177386	0.500019
H276	H	1.597892	0.072614	0.750019
Cl277	Cl	0.545354	0.173110	0.175324
Cl278	Cl	0.795354	0.423110	0.425324
Cl279	Cl	1.045354	0.673110	0.675324
Cl280	Cl	1.295354	0.923110	0.925324
H281	H	1.102458	0.004119	0.557872
H282	H	1.352458	0.254119	0.807872
H283	H	1.602458	0.504119	1.057872
H284	H	1.852458	0.754119	1.307872
Cl285	Cl	0.824487	-0.081416	0.000066
Cl286	Cl	1.074487	0.168584	0.250066
Cl287	Cl	1.324487	0.418584	0.500066
Cl288	Cl	1.574487	0.668584	0.750066
H289	H	1.021430	0.212066	0.558159
H290	H	1.271430	0.462066	0.808159
H291	H	1.521430	0.712066	1.058159
H292	H	1.771430	0.962066	1.308159
H293	H	0.962318	-0.020823	0.441967
H294	H	1.212318	0.229177	0.691967
H295	H	1.462318	0.479177	0.941967
H296	H	1.712318	0.729177	1.191967
H297	H	0.564003	-0.026244	-0.000003
H298	H	0.814003	0.223756	0.249997
H299	H	1.064003	0.473756	0.499997
H300	H	1.314003	0.723756	0.749997
H301	H	1.125662	-0.707571	0.000051
H302	H	1.375662	-0.457571	0.250051
H303	H	1.625662	-0.207571	0.500051
H304	H	1.875662	0.042429	0.750051
