data_functionalizedCrystal
_audit_creation_method	'MofGen! by Chris Wilmer'
_symmetry_space_group_name_H-M	'P1'
_symmetry_Int_Tables_number	1
_symmetry_cell_setting	triclinic
loop_
_symmetry_equiv_pos_as_xyz
  x,y,z
_cell_length_a	17.699083
_cell_length_b	19.188937
_cell_length_c	16.776229
_cell_angle_alpha	89.991546
_cell_angle_beta	90.005254
_cell_angle_gamma	83.215223
loop_
_atom_site_label
_atom_site_type_symbol
_atom_site_fract_x
_atom_site_fract_y
_atom_site_fract_z
O1	O	-1.003958	-0.088296	0.066170
O2	O	-0.783565	-0.099783	0.066199
O3	O	-0.900119	0.007609	0.066176
O4	O	-0.887404	-0.195687	0.066193
O5	O	-0.900117	0.007619	-0.066400
O6	O	-0.783563	-0.099773	-0.066378
O7	O	-1.003956	-0.088286	-0.066406
Zn8	Zn	-0.893759	-0.094028	-0.087441
Zn9	Zn	-0.893761	-0.094041	0.087234
O10	O	-0.887402	-0.195678	-0.066384
C11	C	-0.755367	-0.099366	-0.000086
C12	C	-0.671351	-0.098132	-0.000076
C13	C	-0.899705	0.033625	-0.000112
C14	C	-0.898467	0.111131	-0.000113
C15	C	-0.622648	-0.161168	-0.000071
C16	C	-0.543706	-0.160004	-0.000080
C17	C	-0.513469	-0.095802	-0.000090
C18	C	-0.562177	-0.032760	-0.000097
C19	C	-0.641117	-0.033926	-0.000093
C20	C	-0.243820	-0.028060	-0.000115
C21	C	-0.164874	-0.026900	-0.000116
C22	C	-0.146409	-0.154138	-0.000102
C23	C	-0.225349	-0.155304	-0.000098
C24	C	-0.274051	-0.092262	-0.000110
C25	C	-0.359649	-0.093526	-0.000101
C26	C	-0.427872	-0.094538	-0.000093
C27	C	-0.032153	-0.088702	-0.000118
C28	C	-0.116170	-0.089937	-0.000117
N29	N	-0.893764	-0.094044	0.206445
C30	C	-0.889654	0.664406	-0.072367
C31	C	-0.890810	0.591580	-0.072371
C32	C	-0.891392	0.555155	-0.000104
C33	C	-0.890799	0.591559	0.072172
C34	C	-0.889636	0.664382	0.072174
N35	N	-0.936288	0.446076	0.053681
N36	N	-0.937394	0.376897	0.053675
C37	C	-0.894895	0.335741	-0.000104
N38	N	-0.851257	0.366379	-0.053889
N39	N	-0.850153	0.435565	-0.053885
C40	C	-0.892653	0.476190	-0.000097
C41	C	-0.896735	0.220379	-0.072380
C42	C	-0.897885	0.147551	-0.072380
C43	C	-0.897883	0.147532	0.072165
C44	C	-0.896725	0.220358	0.072163
C45	C	-0.896154	0.256777	-0.000111
C46	C	-0.887818	0.778306	-0.000097
C47	C	-0.889066	0.700802	-0.000101
N48	N	-0.893763	-0.094019	-0.206653
C49	C	-0.945469	-0.046584	0.248152
C50	C	-0.945472	-0.046583	0.331605
C51	C	-0.893765	-0.094038	0.373348
C52	C	-0.842057	-0.141503	0.331635
C53	C	-0.842059	-0.141507	0.248184
C54	C	-0.842052	-0.141486	0.668182
C55	C	-0.842053	-0.141476	0.751639
C56	C	-0.945465	-0.046561	0.751602
C57	C	-0.945467	-0.046566	0.668152
C58	C	-0.893762	-0.094033	0.626446
C59	C	-0.893760	-0.094035	0.535958
C60	C	-0.893763	-0.094033	0.463835
H61	H	-0.647261	-0.213449	-0.000062
H62	H	-0.106746	-0.205470	-0.000097
Br63	Br	-0.771887	-0.205913	0.388283
Br64	Br	-0.895931	0.269756	0.170245
Br65	Br	-0.266382	-0.242438	-0.000078
Br66	Br	-0.895958	0.269810	-0.170463
Br67	Br	-0.891591	0.542127	0.170250
Br68	Br	-1.015638	0.017843	0.611502
Br69	Br	-0.123837	0.060237	-0.000127
H70	H	-0.537551	0.019514	-0.000116
Br71	Br	-1.015648	0.017825	0.388210
Br72	Br	-0.891614	0.542175	-0.170453
H73	H	-0.898363	0.117919	-0.131231
Br74	Br	-0.888837	0.713780	0.170257
Br75	Br	-0.898637	0.098101	0.170243
Br76	Br	-1.015642	0.017828	0.191509
H77	H	-0.987569	-0.007913	0.785568
Br78	Br	-0.707215	0.051628	-0.000107
Br79	Br	-0.477612	-0.245558	-0.000071
Br80	Br	-0.309905	0.057496	-0.000133
H81	H	-0.799945	-0.180122	0.785625
Br82	Br	-0.888874	0.713829	-0.170453
H83	H	-0.799950	-0.180134	0.634232
H84	H	-0.799956	-0.180154	0.214227
