data_functionalizedCrystal
_audit_creation_method	'MofGen! by Chris Wilmer'
_symmetry_space_group_name_H-M	'P1'
_symmetry_Int_Tables_number	1
_symmetry_cell_setting	triclinic
loop_
_symmetry_equiv_pos_as_xyz
  x,y,z
_cell_length_a	13.033293
_cell_length_b	12.645330
_cell_length_c	13.032268
_cell_angle_alpha	97.149830
_cell_angle_beta	89.079182
_cell_angle_gamma	97.182513
loop_
_atom_site_label
_atom_site_type_symbol
_atom_site_fract_x
_atom_site_fract_y
_atom_site_fract_z
Zn1	Zn	1.498489	-0.329810	-0.781490
Zn2	Zn	1.998489	0.170190	-0.281490
Zn3	Zn	1.520245	-0.482152	-0.609521
Zn4	Zn	2.020245	0.017848	-0.109521
Zn5	Zn	1.348349	-0.324212	-0.587666
Zn6	Zn	1.848349	0.175788	-0.087666
Zn7	Zn	1.326499	-0.526344	-0.759562
Zn8	Zn	1.826499	-0.026344	-0.259562
O9	O	1.423396	-0.415630	-0.684560
O10	O	1.923396	0.084370	-0.184560
O11	O	1.645293	-0.333867	-0.777002
O12	O	2.145293	0.166133	-0.277002
O13	O	1.515691	-0.440364	-0.462713
O14	O	2.015691	0.059636	0.037287
O15	O	1.368305	-0.176606	-0.613408
O16	O	1.868305	0.323394	-0.113408
O17	O	1.661276	-0.445792	-0.650657
O18	O	2.161276	0.054208	-0.150657
O19	O	1.478613	-0.180719	-0.755810
O20	O	1.978613	0.319281	-0.255810
O21	O	1.389401	-0.324326	-0.446656
O22	O	1.889401	0.175674	0.053344
O23	O	1.201533	-0.367177	-0.592145
O24	O	1.701533	0.132823	-0.092145
O25	O	1.331065	-0.521111	-0.906380
O26	O	1.831065	-0.021111	-0.406380
O27	O	1.185480	-0.515682	-0.718436
O28	O	1.685480	-0.015682	-0.218436
O29	O	1.457426	-0.376718	-0.922490
O30	O	1.957426	0.123282	-0.422490
O31	O	1.494504	-0.636363	-0.629394
O32	O	1.994504	-0.136363	-0.129394
O33	O	1.352160	-0.668830	-0.739628
O34	O	1.852160	-0.168830	-0.239628
C35	C	1.156191	-0.445619	-0.650540
C36	C	1.656191	0.054381	-0.150540
C37	C	1.041876	-0.458477	-0.636011
C38	C	1.541876	0.041523	-0.136011
C39	C	0.982990	-0.408945	-0.692143
C40	C	1.482990	0.091055	-0.192143
C41	C	0.864840	-0.422234	-0.677127
C42	C	1.364840	0.077766	-0.177127
C43	C	1.423347	-0.691062	-0.684529
C44	C	1.923347	-0.191062	-0.184529
C45	C	1.423416	-0.808887	-0.684562
C46	C	1.923416	-0.308887	-0.184562
C47	C	1.512858	-0.955973	-0.615036
C48	C	2.012858	-0.455973	-0.115036
C49	C	1.513091	-0.833411	-0.615264
C50	C	2.013091	-0.333411	-0.115264
C51	C	1.439035	-0.865700	-0.796699
C52	C	1.939035	-0.365700	-0.296699
C53	C	1.439718	-0.988166	-0.796357
C54	C	1.939718	-0.488166	-0.296357
C55	C	1.318189	-0.984407	-0.643016
C56	C	1.818189	-0.484407	-0.143016
C57	C	1.319019	-0.861391	-0.640651
C58	C	1.819019	-0.361391	-0.140651
C59	C	1.691644	-0.385525	-0.718713
C60	C	2.191644	0.114475	-0.218713
C61	C	1.805956	-0.372696	-0.733267
C62	C	2.305956	0.127304	-0.233267
C63	C	1.389381	-0.454468	-0.952792
C64	C	1.889381	0.045532	-0.452792
C65	C	1.374886	-0.471019	-1.067097
C66	C	1.874886	0.028981	-0.567097
C67	C	1.423469	-0.139122	-0.684617
C68	C	1.923469	0.360878	-0.184617
C69	C	1.423501	-0.021291	-0.684641
C70	C	1.923501	0.478709	-0.184641
C71	C	1.430945	-0.406955	-1.126029
C72	C	1.930945	0.093045	-0.626029
C73	C	1.415965	-0.424060	-1.244169
C74	C	1.915965	0.075940	-0.744169
C75	C	1.457337	-0.376859	-0.417378
C76	C	1.957337	0.123141	0.082622
C77	C	1.472031	-0.359987	-0.303099
C78	C	1.972031	0.140013	0.196901
H79	H	1.504915	-0.793809	-0.532549
H80	H	2.004915	-0.293809	-0.032549
H81	H	1.531113	-0.292467	-1.266096
H82	H	2.031113	0.207533	-0.766096
H83	H	1.590732	-0.980333	-0.643405
H84	H	2.090732	-0.480333	-0.143405
N85	N	1.505055	-0.322259	-1.079595
N86	N	2.005055	0.177741	-0.579595
N87	N	1.517115	-0.308482	-0.983691
N88	N	2.017115	0.191518	-0.483691
H89	H	1.569457	-0.248663	-0.950898
H90	H	2.069457	0.251337	-0.450898
H91	H	1.356870	-0.491569	-1.281173
H92	H	1.856870	0.008431	-0.781173
H93	H	0.843006	-0.320442	-0.792440
H94	H	1.343006	0.179558	-0.292440
N95	N	1.297048	-1.012936	-0.541318
N96	N	1.797048	-0.512936	-0.041318
N97	N	1.359350	-1.060807	-0.498280
N98	N	1.859350	-0.560807	0.001720
H99	H	1.344431	-1.080956	-0.426454
H100	H	1.844431	-0.580956	0.073546
N101	N	0.995398	-0.524035	-0.561790
N102	N	1.495398	-0.024035	-0.061790
N103	N	1.006460	-0.621501	-0.569954
N104	N	1.506460	-0.121501	-0.069954
H105	H	0.973637	-0.667805	-0.517535
H106	H	1.473637	-0.167805	-0.017535
N107	N	1.502930	-0.980925	-0.511011
N108	N	2.002930	-0.480925	-0.011011
N109	N	1.423333	-0.963752	-0.460069
N110	N	1.923333	-0.463752	0.039931
H111	H	1.416317	-0.981381	-0.386598
H112	H	1.916317	-0.481381	0.113402
H113	H	1.020046	-0.356697	-0.751312
H114	H	1.520046	0.143303	-0.251312
H115	H	1.516286	-1.011158	-0.830008
H116	H	2.016286	-0.511158	-0.330008
H117	H	0.827789	-0.474479	-0.617948
H118	H	1.327789	0.025521	-0.117948
N119	N	1.611298	-0.788512	-0.651177
N120	N	2.111298	-0.288512	-0.151177
N121	N	1.679876	-0.847706	-0.676160
N122	N	2.179876	-0.347706	-0.176160
H123	H	1.749238	-0.815998	-0.701527
H124	H	2.249238	-0.315998	-0.201527
H125	H	1.315796	-0.538523	-1.104105
H126	H	1.815796	-0.038523	-0.604105
H127	H	1.375337	-0.851686	-0.850543
H128	H	1.875337	-0.351686	-0.350543
N129	N	1.360674	-1.044354	-0.864552
N130	N	1.860674	-0.544354	-0.364552
N131	N	1.268302	-1.030163	-0.848389
N132	N	1.768302	-0.530163	-0.348389
H133	H	1.212480	-1.069844	-0.896553
H134	H	1.712480	-0.569844	-0.396553
N135	N	1.533898	-0.820340	-0.839258
N136	N	2.033898	-0.320340	-0.339258
N137	N	1.590147	-0.746193	-0.787211
N138	N	2.090147	-0.246193	-0.287211
H139	H	1.657147	-0.714155	-0.817264
H140	H	2.157147	-0.214155	-0.317264
N141	N	1.303944	-0.813615	-0.537039
N142	N	1.803944	-0.313615	-0.037039
N143	N	1.369793	-0.741160	-0.495626
N144	N	1.869793	-0.241160	0.004374
H145	H	1.359151	-0.707413	-0.422449
H146	H	1.859151	-0.207413	0.077551
N147	N	1.232399	-0.841538	-0.698195
N148	N	1.732399	-0.341538	-0.198195
N149	N	1.246261	-0.788136	-0.772843
N150	N	1.746261	-0.288136	-0.272843
H151	H	1.185087	-0.774117	-0.813495
H152	H	1.685087	-0.274117	-0.313495
H153	H	1.251780	-1.028469	-0.693543
H154	H	1.751780	-0.528469	-0.193543
