data_functionalizedCrystal
_audit_creation_method	'MofGen! by Chris Wilmer'
_symmetry_space_group_name_H-M	'P1'
_symmetry_Int_Tables_number	1
_symmetry_cell_setting	triclinic
loop_
_symmetry_equiv_pos_as_xyz
  x,y,z
_cell_length_a	19.805407
_cell_length_b	19.120786
_cell_length_c	19.805399
_cell_angle_alpha	87.531070
_cell_angle_beta	89.979591
_cell_angle_gamma	92.466982
loop_
_atom_site_label
_atom_site_type_symbol
_atom_site_fract_x
_atom_site_fract_y
_atom_site_fract_z
Zn1	Zn	1.023246	-0.279610	-0.371232
Zn2	Zn	1.018334	-0.397069	-0.253211
Zn3	Zn	0.910059	-0.279634	-0.258054
Zn4	Zn	0.905198	-0.397036	-0.366358
O5	O	0.964209	-0.338337	-0.312214
O6	O	1.117310	-0.295196	-0.355589
O7	O	1.003949	-0.381515	-0.159136
O8	O	0.929164	-0.181340	-0.277133
O9	O	1.113701	-0.381492	-0.268880
O10	O	1.012321	-0.181323	-0.360285
O11	O	0.924401	-0.295235	-0.162694
O12	O	0.814698	-0.295203	-0.272407
O13	O	0.920879	-0.381436	-0.461722
O14	O	0.811127	-0.381458	-0.351978
O15	O	1.007608	-0.295163	-0.465303
O16	O	0.999236	-0.495355	-0.264154
O17	O	0.916116	-0.495331	-0.347282
C18	C	0.788353	-0.338330	-0.312190
C19	C	0.713121	-0.338344	-0.312195
C20	C	0.253209	-0.293487	-0.357452
C21	C	0.323898	-0.293488	-0.357447
C22	C	0.357359	-0.338348	-0.312235
C23	C	0.320128	-0.383215	-0.267030
C24	C	0.249441	-0.383217	-0.267038
C25	C	0.605201	-0.383209	-0.266994
C26	C	0.675894	-0.383203	-0.266987
C27	C	0.679658	-0.293481	-0.357403
C28	C	0.608971	-0.293483	-0.357412
C29	C	0.571746	-0.338352	-0.312209
C30	C	0.495098	-0.338351	-0.312216
C31	C	0.434006	-0.338346	-0.312225
C32	C	0.956634	-0.520829	-0.304679
C33	C	0.953455	-0.598899	-0.301478
C34	C	0.995225	-0.635508	-0.343302
C35	C	0.992235	-0.708863	-0.340295
C36	C	0.947479	-0.745609	-0.295461
C37	C	0.905704	-0.708996	-0.253636
C38	C	0.908691	-0.635641	-0.256646
C39	C	0.936293	-0.967095	-0.284207
C40	C	0.933311	-1.040454	-0.281199
C41	C	1.019842	-1.040317	-0.367860
C42	C	1.022827	-0.966961	-0.370863
C43	C	0.981050	-0.930354	-0.329040
C44	C	0.944423	-0.820590	-0.292385
C45	C	0.984103	-0.855374	-0.332120
C46	C	1.140751	-0.338345	-0.312238
C47	C	1.215983	-0.338348	-0.312249
C48	C	0.964249	-0.338293	-0.488758
C49	C	0.964266	-0.338274	-0.563991
C50	C	0.971833	-0.155133	-0.319793
C51	C	0.975081	-0.077063	-0.323023
C52	C	1.009427	-0.293350	-0.601201
C53	C	1.009434	-0.293330	-0.671890
C54	C	0.964284	-0.338238	-0.705368
C55	C	0.919119	-0.383164	-0.668153
C56	C	0.919108	-0.383180	-0.597465
C57	C	0.919159	-0.383098	-0.953229
C58	C	0.919175	-0.383080	-1.023922
C59	C	1.009486	-0.293248	-1.027654
C60	C	1.009475	-0.293264	-0.956966
C61	C	0.964308	-0.338187	-0.919758
C62	C	0.964299	-0.338208	-0.843109
C63	C	0.964296	-0.338221	-0.782016
C64	C	0.964211	-0.338331	-0.136358
C65	C	0.964333	-0.338152	-0.061134
H66	H	0.354204	-0.256959	-0.394258
O67	O	1.053208	-0.249609	-0.708064
C68	C	1.016564	-0.204239	-0.750827
H69	H	0.963432	-0.199912	-0.729692
H70	H	1.043289	-0.150183	-0.753860
H71	H	1.013340	-0.225932	-0.803505
H72	H	0.882405	-0.419651	-1.051178
O73	O	0.220735	-0.249985	-0.401466
C74	C	0.237413	-0.265417	-0.468260
H75	H	0.254514	-0.321534	-0.469267
H76	H	0.191192	-0.259414	-0.501964
H77	H	0.280016	-0.227784	-0.487561
H78	H	0.882354	-0.419726	-0.695417
H79	H	1.046261	-0.256667	-1.057958
H80	H	0.709975	-0.256948	-0.394211
H81	H	0.902278	-0.937295	-0.250152
O82	O	0.352737	-0.426726	-0.223135
C83	C	0.423110	-0.417117	-0.232829
H84	H	0.435026	-0.362941	-0.257317
H85	H	0.449755	-0.421811	-0.181924
H86	H	0.441456	-0.458827	-0.267082
H87	H	0.703136	-0.419736	-0.230169
H88	H	1.031673	-0.605594	-0.379807
O89	O	1.053358	-0.249574	-0.924554
C90	C	1.093232	-0.209929	-0.972555
H91	H	1.065619	-0.207484	-1.023040
H92	H	1.102750	-0.154593	-0.954423
H93	H	1.143569	-0.235649	-0.979018
O94	O	0.875223	-0.426895	-0.561419
C95	C	0.835367	-0.466521	-0.606124
H96	H	0.862993	-0.468934	-0.656420
H97	H	0.825851	-0.521869	-0.583410
H98	H	0.785027	-0.440804	-0.614690
O99	O	0.569151	-0.426809	-0.223016
C100	C	0.613845	-0.466410	-0.183119
H101	H	0.665427	-0.437633	-0.182007
H102	H	0.593091	-0.473828	-0.129473
H103	H	0.619158	-0.519790	-0.205613
H104	H	0.869259	-0.738920	-0.217133
O105	O	0.889927	-1.076179	-0.237570
C106	C	0.926763	-1.118609	-0.192158
H107	H	0.980974	-1.096452	-0.188938
H108	H	0.902277	-1.119495	-0.140009
H109	H	0.926823	-1.174189	-0.210804
O110	O	0.875253	-0.426793	-0.917193
C111	C	0.835392	-0.466407	-0.961903
H112	H	0.863031	-0.468843	-1.012191
H113	H	0.825844	-0.521747	-0.939183
H114	H	0.785068	-0.440665	-0.970489
O115	O	0.868088	-0.600186	-0.215951
C116	C	0.827931	-0.648347	-0.175746
H117	H	0.853530	-0.700611	-0.171279
H118	H	0.821598	-0.627189	-0.123281
H119	H	0.776195	-0.656184	-0.200166
O120	O	0.213347	-0.426892	-0.223156
C121	C	0.227707	-0.496916	-0.234958
H122	H	0.278982	-0.498404	-0.260906
H123	H	0.228794	-0.528347	-0.184763
H124	H	0.186956	-0.520621	-0.268748
O125	O	0.576573	-0.249884	-0.401396
C126	C	0.624589	-0.210275	-0.441283
H127	H	0.673784	-0.239045	-0.442387
H128	H	0.604498	-0.202857	-0.494932
H129	H	0.634311	-0.156895	-0.418786
O130	O	1.032890	-0.744316	-0.380938
C131	C	1.073030	-0.696153	-0.421158
H132	H	1.077504	-0.643876	-0.395584
H133	H	1.125498	-0.717289	-0.427543
H134	H	1.048547	-0.688349	-0.472869
H135	H	1.059272	-0.937044	-0.407371
H136	H	1.053853	-1.070130	-0.401911
H137	H	1.020541	-0.825454	-0.368626
O138	O	0.900917	-0.856365	-0.248920
C139	C	0.855439	-0.898801	-0.285673
H140	H	0.878831	-0.909728	-0.336545
H141	H	0.844293	-0.950413	-0.255981
H142	H	0.806421	-0.870577	-0.294211
H143	H	1.046195	-0.256783	-0.573948
