data_functionalizedCrystal
_audit_creation_method	'MofGen! by Chris Wilmer'
_symmetry_space_group_name_H-M	'P1'
_symmetry_Int_Tables_number	1
_symmetry_cell_setting	triclinic
loop_
_symmetry_equiv_pos_as_xyz
  x,y,z
_cell_length_a	19.288864
_cell_length_b	10.654550
_cell_length_c	18.366186
_cell_angle_alpha	89.994973
_cell_angle_beta	89.977106
_cell_angle_gamma	83.810575
loop_
_atom_site_label
_atom_site_type_symbol
_atom_site_fract_x
_atom_site_fract_y
_atom_site_fract_z
O1	O	0.922379	0.156657	-0.060782
O2	O	0.720256	0.177789	-0.060732
O3	O	0.825965	-0.015616	-0.060755
O4	O	0.816670	0.350062	-0.060758
O5	O	0.825946	-0.015625	0.060344
O6	O	0.720238	0.177780	0.060368
O7	O	0.922360	0.156647	0.060318
Zn8	Zn	0.821296	0.167212	0.079570
Zn9	Zn	0.821320	0.167224	-0.079984
O10	O	0.816652	0.350052	0.060341
C11	C	0.694366	0.177105	-0.000176
C12	C	0.617249	0.175063	-0.000156
C13	C	0.573296	0.288545	-0.000169
C14	C	0.500836	0.286627	-0.000177
C15	C	0.472333	0.171222	-0.000187
C16	C	0.516296	0.057725	-0.000171
C17	C	0.588754	0.059646	-0.000155
C18	C	0.363484	0.080503	-0.042637
C19	C	0.291027	0.078587	-0.042657
C20	C	0.248849	0.165292	-0.000231
C21	C	0.279136	0.253935	0.042205
C22	C	0.351594	0.255855	0.042221
C23	C	0.393766	0.169126	-0.000203
C24	C	0.126326	0.276702	-0.000251
C25	C	0.053865	0.274779	-0.000255
C26	C	0.069327	0.045875	-0.000256
C27	C	0.141786	0.047800	-0.000245
C28	C	0.170281	0.163217	-0.000246
C29	C	0.825273	-0.062404	-0.000206
C30	C	0.823231	-0.201803	-0.000208
C31	C	0.885471	-0.282621	-0.000221
C32	C	0.883548	-0.413601	-0.000226
C33	C	0.757141	-0.382932	-0.000201
C34	C	0.759065	-0.251955	-0.000202
C35	C	0.949637	-0.232470	-0.000228
C36	C	1.011882	-0.313290	-0.000240
C37	C	1.009959	-0.444269	-0.000245
C38	C	0.945792	-0.494429	-0.000237
C39	C	0.948250	0.157332	-0.000240
C40	C	1.025367	0.159373	-0.000264
C41	C	0.817344	0.396840	-0.000209
C42	C	0.819385	0.536240	-0.000212
N43	N	0.821285	0.167203	0.188461
N44	N	0.821337	0.167224	-0.188875
C45	C	0.868108	0.081605	0.226551
C46	C	0.868113	0.081599	0.302779
C47	C	0.821300	0.167213	0.340914
C48	C	0.774468	0.252817	0.302815
C49	C	0.774461	0.252812	0.226588
C50	C	0.812752	0.281634	0.461675
C51	C	0.812764	0.281641	0.537899
C52	C	0.821320	0.167229	0.576021
C53	C	0.829879	0.052804	0.537909
C54	C	0.829871	0.052799	0.461682
C55	C	0.821303	0.167228	0.423569
C56	C	0.868151	0.081618	0.696766
C57	C	0.868151	0.081610	0.772995
C58	C	0.774509	0.252840	0.773030
C59	C	0.774507	0.252836	0.696802
C60	C	0.821331	0.167226	0.658675
H61	H	0.266373	0.006414	-0.077214
N62	N	0.951714	-0.091202	-0.000232
H63	H	0.902548	-0.047613	-0.000224
H64	H	0.977010	-0.065786	0.044658
H65	H	0.906234	0.011894	0.195510
H66	H	0.836846	-0.040361	0.568946
H67	H	0.708384	-0.186150	-0.000190
N68	N	0.636170	-0.062752	-0.000151
H69	H	0.666554	-0.067058	0.044746
H70	H	0.607076	-0.136088	-0.000184
H71	H	0.244796	0.324537	0.076753
H72	H	0.704899	-0.423784	-0.000194
N73	N	0.918615	-0.010730	0.343874
H74	H	0.948275	-0.064965	0.308154
H75	H	0.949549	0.037218	0.375480
N76	N	0.839099	-0.070603	0.420574
H77	H	0.844521	-0.143088	0.456285
H78	H	0.796866	-0.077739	0.388971
H79	H	0.149528	0.370681	-0.000241
N80	N	0.384262	0.351448	0.087990
H81	H	0.346553	0.406088	0.114867
H82	H	0.417425	0.306024	0.124233
N83	N	0.918649	-0.010715	0.655636
H84	H	0.948310	-0.064951	0.691337
H85	H	0.891792	-0.066110	0.624025
H86	H	0.736391	0.322543	0.804079
N87	N	0.408968	-0.013023	-0.088402
H88	H	0.435938	0.033897	-0.124675
H89	H	0.442613	-0.066142	-0.055847
N90	N	0.918668	-0.010702	0.814077
H91	H	0.910259	-0.099804	0.800822
H92	H	0.968000	0.003680	0.800759
N93	N	1.081088	-0.259197	-0.000249
H94	H	1.072863	-0.163960	-0.000241
H95	H	1.108338	-0.288802	0.044640
H96	H	0.018079	0.367194	-0.000261
H97	H	0.944232	-0.601083	-0.000248
H98	H	0.736381	0.322543	0.665787
N99	N	0.485559	-0.066749	-0.000173
H100	H	0.432987	-0.050748	-0.000185
H101	H	0.501625	-0.116396	-0.045061
N102	N	1.077088	-0.531444	-0.000255
H103	H	1.079120	-0.586464	-0.045148
H104	H	1.117988	-0.479708	-0.000231
N105	N	0.189198	-0.074598	-0.000231
H106	H	0.160149	-0.148000	-0.000238
H107	H	0.219626	-0.078787	-0.045117
N108	N	0.803530	0.405047	0.579004
H109	H	0.798096	0.477526	0.543289
H110	H	0.760559	0.407856	0.610651
H111	H	0.805772	0.374809	0.430642
N112	N	0.723973	0.345153	0.343940
H113	H	0.731084	0.332170	0.398010
H114	H	0.732418	0.434205	0.330604
H115	H	0.736331	0.322517	0.195575
H116	H	0.596492	0.382526	-0.000171
H117	H	0.465043	0.379040	-0.000185
H118	H	0.046120	-0.048091	-0.000309
