data_functionalizedCrystal
_audit_creation_method	'MofGen! by Chris Wilmer'
_symmetry_space_group_name_H-M	'P1'
_symmetry_Int_Tables_number	1
_symmetry_cell_setting	triclinic
loop_
_symmetry_equiv_pos_as_xyz
  x,y,z
_cell_length_a	14.519731
_cell_length_b	11.792241
_cell_length_c	10.868271
_cell_angle_alpha	90.003536
_cell_angle_beta	90.006559
_cell_angle_gamma	96.058865
loop_
_atom_site_label
_atom_site_type_symbol
_atom_site_fract_x
_atom_site_fract_y
_atom_site_fract_z
O1	O	0.126404	-1.506213	0.102206
O2	O	0.459738	-1.172880	0.435539
O3	O	0.793071	-0.839547	0.768872
O4	O	0.139431	-1.175801	0.102235
O5	O	0.472765	-0.842468	0.435568
O6	O	0.806098	-0.509135	0.768901
O7	O	-0.001287	-1.349755	0.102208
O8	O	0.332046	-1.016422	0.435542
O9	O	0.665379	-0.683089	0.768875
O10	O	0.267123	-1.332260	0.102232
O11	O	0.600456	-0.998926	0.435566
O12	O	0.933790	-0.665593	0.768899
O13	O	-0.001295	-1.349753	-0.102436
O14	O	0.332038	-1.016420	0.230897
O15	O	0.665372	-0.683086	0.564230
O16	O	0.139424	-1.175799	-0.102410
O17	O	0.472757	-0.842466	0.230923
O18	O	0.806090	-0.509133	0.564257
O19	O	0.126397	-1.506211	-0.102439
O20	O	0.459730	-1.172878	0.230894
O21	O	0.793063	-0.839545	0.564228
Zn22	Zn	0.132909	-1.341005	-0.134916
Zn23	Zn	0.466242	-1.007672	0.198417
Zn24	Zn	0.799576	-0.674338	0.531750
Zn25	Zn	0.132919	-1.341008	0.134712
Zn26	Zn	0.466252	-1.007674	0.468045
Zn27	Zn	0.799586	-0.674341	0.801379
O28	O	0.267115	-1.332258	-0.102412
O29	O	0.600449	-0.998924	0.230921
O30	O	0.933782	-0.665591	0.564254
C31	C	0.138609	-1.133514	-0.000084
C32	C	0.471943	-0.800181	0.333249
C33	C	0.805276	-0.466847	0.666583
C34	C	0.136160	-1.007513	-0.000073
C35	C	0.469493	-0.674180	0.333260
C36	C	0.802827	-0.340847	0.666593
N37	N	0.132919	-1.341010	0.318726
N38	N	0.466253	-1.007677	0.652059
N39	N	0.799586	-0.674344	0.985393
C40	C	-0.035654	-1.348934	-0.000114
C41	C	0.297680	-1.015601	0.333219
C42	C	0.631013	-0.682268	0.666552
C43	C	-0.138043	-1.346478	-0.000115
C44	C	0.195291	-1.013145	0.333219
C45	C	0.528624	-0.679811	0.666552
C46	C	-0.221194	-1.344482	-0.000112
C47	C	0.112139	-1.011148	0.333222
C48	C	0.445472	-0.677815	0.666555
C49	C	-0.325512	-1.341988	-0.000102
C50	C	0.007821	-1.008654	0.333231
C51	C	0.341155	-0.675321	0.666565
C52	C	-0.408658	-1.340008	-0.000094
C53	C	-0.075325	-1.006675	0.333239
C54	C	0.258008	-0.673342	0.666573
C55	C	-0.512983	-1.337514	-0.000087
C56	C	-0.179650	-1.004181	0.333247
C57	C	0.153684	-0.670848	0.666580
C58	C	0.301482	-1.333078	-0.000087
C59	C	0.634815	-0.999745	0.333246
C60	C	0.968148	-0.666412	0.666579
C61	C	0.403871	-1.335535	-0.000079
C62	C	0.737204	-1.002202	0.333255
C63	C	1.070537	-0.668868	0.666588
C64	C	0.127219	-1.548499	-0.000117
C65	C	0.460552	-1.215166	0.333216
C66	C	0.793885	-0.881832	0.666549
C67	C	0.129668	-1.674499	-0.000120
C68	C	0.463001	-1.341166	0.333213
C69	C	0.796335	-1.007833	0.666547
C70	C	0.131656	-0.776826	-0.000109
C71	C	0.464990	-0.443493	0.333224
C72	C	0.798323	-0.110159	0.666558
C73	C	0.134159	-0.905197	-0.000089
C74	C	0.467492	-0.571864	0.333244
C75	C	0.800825	-0.238531	0.666577
N76	N	0.132901	-1.341011	-0.318930
N77	N	0.466235	-1.007678	0.014403
N78	N	0.799568	-0.674345	0.347736
C79	C	0.132913	-1.341007	0.569732
C80	C	0.466247	-1.007674	0.903065
C81	C	0.799580	-0.674340	1.236399
C82	C	0.132920	-1.341005	0.430055
C83	C	0.466253	-1.007672	0.763388
C84	C	0.799586	-0.674339	1.096721
