data_functionalizedCrystal
_audit_creation_method	'MofGen! by Chris Wilmer'
_symmetry_space_group_name_H-M	'P1'
_symmetry_Int_Tables_number	1
_symmetry_cell_setting	triclinic
loop_
_symmetry_equiv_pos_as_xyz
  x,y,z
_cell_length_a	12.594516
_cell_length_b	12.594517
_cell_length_c	12.594509
_cell_angle_alpha	89.978673
_cell_angle_beta	90.027875
_cell_angle_gamma	89.988384
loop_
_atom_site_label
_atom_site_type_symbol
_atom_site_fract_x
_atom_site_fract_y
_atom_site_fract_z
Zn1	Zn	-0.423716	-1.627298	0.601863
Zn2	Zn	-0.601726	-1.627202	0.423885
Zn3	Zn	-0.423761	-1.449302	0.423892
Zn4	Zn	-0.601652	-1.449298	0.601815
O5	O	-0.512714	-1.538275	0.512864
O6	O	-0.447341	-1.776231	0.578271
O7	O	-0.578169	-1.603565	0.274940
O8	O	-0.274809	-1.472956	0.447522
O9	O	-0.578124	-1.776161	0.447512
O10	O	-0.274776	-1.603729	0.578277
O11	O	-0.447419	-1.472863	0.274945
O12	O	-0.447347	-1.300356	0.447476
O13	O	-0.577998	-1.472948	0.750767
O14	O	-0.578042	-1.300352	0.578196
O15	O	-0.447269	-1.603724	0.750802
O16	O	-0.750662	-1.603561	0.447466
O17	O	-0.750608	-1.472855	0.578190
C18	C	-0.789255	-1.538226	0.512845
C19	C	-0.907560	-1.538302	0.512873
C20	C	-0.512692	-1.261734	0.512832
C21	C	-0.512709	-1.143429	0.512844
C22	C	-0.512620	-1.538346	0.790485
C23	C	-0.512581	-1.538377	0.908790
C24	C	-0.976804	-1.609475	0.441848
C25	C	-1.047501	-1.635486	0.538997
C26	C	-1.047662	-1.512425	0.415785
C27	C	-0.976698	-1.564362	0.610073
C28	C	-0.976854	-1.441256	0.486796
C29	C	-1.047519	-1.467229	0.584012
C30	C	-0.235093	-1.538354	0.512906
C31	C	-0.116787	-1.538387	0.512923
C32	C	-0.512736	-1.815896	0.512896
C33	C	-0.512745	-1.934201	0.512909
C34	C	-0.441526	-1.074146	0.441881
C35	C	-0.538615	-1.003343	0.415702
C36	C	-0.415668	-1.003433	0.539042
C37	C	-0.609849	-1.074183	0.486614
C38	C	-0.486836	-1.074280	0.609999
C39	C	-0.583991	-1.003508	0.583857
C40	C	-0.512730	-1.538265	0.236323
C41	C	-0.512470	-1.538441	0.118018
C42	C	-0.583644	-1.467270	0.978025
C43	C	-0.609650	-1.564392	1.048815
C44	C	-0.486510	-1.441330	1.048799
C45	C	-0.538638	-1.635550	0.978023
C46	C	-0.415453	-1.512422	0.978000
C47	C	-0.441422	-1.609612	1.048759
H48	H	-1.078536	-1.717593	0.561082
C49	C	-0.387729	-1.792458	1.054513
C50	C	-0.360233	-1.690914	1.090436
H51	H	-0.337613	-1.842651	1.080251
H52	H	-0.387738	-1.793275	0.979102
H53	H	-0.456480	-1.810319	1.079839
H54	H	-0.291485	-1.673049	1.065103
H55	H	-0.360213	-1.690093	1.165863
H56	H	-0.945753	-1.669674	0.381838
C57	C	-0.305701	-1.483950	0.824795
C58	C	-0.304666	-1.482708	0.935962
H59	H	-0.237304	-1.465603	0.798843
H60	H	-0.356391	-1.434120	0.799533
H61	H	-0.324094	-1.552978	0.800620
H62	H	-0.286281	-1.413677	0.960138
H63	H	-0.253960	-1.532540	0.961235
C64	C	-0.485107	-0.898525	0.265735
C65	C	-0.568133	-0.961268	0.304815
H66	H	-0.503313	-0.872549	0.197276
H67	H	-0.422314	-0.940036	0.261049
H68	H	-0.473401	-0.840429	0.312372
H69	H	-0.579834	-1.019369	0.258182
H70	H	-0.630944	-0.919755	0.309495
H71	H	-0.381389	-1.105163	0.381796
C72	C	-0.312092	-0.900371	0.661500
C73	C	-0.304865	-0.961474	0.568924
H74	H	-0.243687	-0.874464	0.679935
H75	H	-0.338808	-0.942971	0.717703
H76	H	-0.358672	-0.842227	0.649635
H77	H	-0.258291	-1.019622	0.580791
H78	H	-0.278135	-0.918872	0.512708
H79	H	-0.643833	-1.407184	0.946967
C80	C	-0.531385	-1.256149	1.055055
C81	C	-0.456795	-1.330503	1.090767
H82	H	-0.513041	-1.187729	1.080959
H83	H	-0.599845	-1.275099	1.080347
H84	H	-0.531838	-1.255183	0.979637
H85	H	-0.456347	-1.331476	1.166186
H86	H	-0.388317	-1.311548	1.065481
C87	C	-0.823635	-1.593830	0.719928
C88	C	-0.934808	-1.594098	0.720973
H89	H	-0.797775	-1.612196	0.788389
H90	H	-0.798866	-1.525083	0.701281
H91	H	-0.798870	-1.644043	0.669413
H92	H	-0.959573	-1.543879	0.771482
H93	H	-0.959587	-1.662855	0.739633
C94	C	-0.873726	-1.290241	0.540622
C95	C	-0.934920	-1.330446	0.456950
H96	H	-0.847844	-1.221829	0.522188
H97	H	-0.815576	-1.336459	0.553745
H98	H	-0.916267	-1.285153	0.602676
H99	H	-0.892376	-1.335541	0.394898
H100	H	-0.993078	-1.284216	0.443814
C101	C	-1.200907	-1.482254	0.306369
C102	C	-1.089740	-1.482824	0.304920
H103	H	-1.226880	-1.463993	0.237922
H104	H	-1.225110	-1.431648	0.356750
H105	H	-1.226122	-1.550743	0.325403
H106	H	-1.064525	-1.414333	0.285893
H107	H	-1.065527	-1.533432	0.254523
C108	C	-0.530750	-1.079179	0.795433
C109	C	-0.457226	-1.116390	0.720841
H110	H	-0.512456	-1.105176	0.863862
H111	H	-0.599748	-1.103361	0.776935
H112	H	-0.529894	-1.003762	0.796101
H113	H	-0.458088	-1.191808	0.720167
H114	H	-0.388210	-1.092214	0.739345
H115	H	-0.691742	-1.586380	1.079921
C116	C	-0.719651	-1.227125	0.456795
C117	C	-0.720688	-1.115951	0.456602
H118	H	-0.788076	-1.252909	0.438258
H119	H	-0.701150	-1.251996	0.525565
H120	H	-0.669034	-1.251865	0.406676
H121	H	-0.771301	-1.091211	0.506727
H122	H	-0.739202	-1.091070	0.387822
C123	C	-0.766887	-0.997794	0.637252
C124	C	-0.665363	-0.961885	0.664904
H125	H	-0.817123	-0.972089	0.687281
H126	H	-0.767715	-1.073205	0.637258
H127	H	-0.784681	-0.972425	0.568466
H128	H	-0.647566	-0.987262	0.733687
H129	H	-0.664533	-0.886459	0.664909
H130	H	-1.078372	-1.407077	0.644167
H131	H	-0.560736	-1.717672	0.947064
