data_functionalizedCrystal
_audit_creation_method	'MofGen! by Chris Wilmer'
_symmetry_space_group_name_H-M	'P1'
_symmetry_Int_Tables_number	1
_symmetry_cell_setting	triclinic
loop_
_symmetry_equiv_pos_as_xyz
  x,y,z
_cell_length_a	10.968094
_cell_length_b	14.853567
_cell_length_c	10.065875
_cell_angle_alpha	98.805381
_cell_angle_beta	93.118877
_cell_angle_gamma	84.183255
loop_
_atom_site_label
_atom_site_type_symbol
_atom_site_fract_x
_atom_site_fract_y
_atom_site_fract_z
O1	O	1.613126	0.157196	0.265870
O2	O	1.263092	0.159776	0.183552
O3	O	1.447460	0.027562	0.226906
O4	O	1.428758	0.289411	0.222516
O5	O	1.412303	0.052879	0.445628
O6	O	1.227935	0.185094	0.402274
O7	O	1.577970	0.182514	0.484592
Zn8	Zn	1.397371	0.187823	0.478160
Zn9	Zn	1.443691	0.154466	0.189985
O10	O	1.393602	0.314728	0.441238
C11	C	1.200717	0.170335	0.282378
C12	C	1.067239	0.164069	0.250988
C13	C	0.851555	0.167903	0.317845
C14	C	0.989509	0.174388	0.350302
C15	C	1.429035	0.006603	0.336064
C16	C	1.426497	-0.093565	0.335455
C17	C	1.306242	-0.510026	0.307201
C18	C	1.525275	-0.524148	0.358711
C19	C	1.527663	-0.430037	0.359264
C20	C	1.419339	-0.375916	0.333788
C21	C	1.308627	-0.415906	0.307758
C22	C	1.638372	-0.390038	0.385308
C23	C	1.640765	-0.295922	0.385864
C24	C	1.532441	-0.241800	0.360378
C25	C	1.421724	-0.281796	0.334345
C26	C	1.313400	-0.227675	0.308868
C27	C	1.202684	-0.267670	0.282826
C28	C	1.200303	-0.361784	0.282272
C29	C	1.534821	-0.147686	0.360932
C30	C	1.315785	-0.133554	0.309425
C31	C	1.640345	0.171954	0.385763
C32	C	1.773825	0.178220	0.417145
C33	C	1.412027	0.335686	0.332078
C34	C	1.414566	0.435853	0.332677
N35	N	1.365768	0.210588	0.674834
N36	N	1.475304	0.131695	-0.006687
C37	C	1.432687	0.162381	0.758349
C38	C	1.408374	0.179909	0.909799
H39	H	1.025087	0.188018	0.459353
H40	H	1.613465	-0.568217	0.379463
C41	C	1.532941	0.089920	0.704202
C42	C	1.507654	0.004540	0.732848
C43	C	1.599976	-0.062228	0.682962
H44	H	1.609733	0.104742	0.745522
H45	H	1.535913	0.087712	0.609595
H46	H	1.504695	0.006749	0.827437
H47	H	1.430878	-0.010310	0.691529
H48	H	1.602948	-0.064436	0.588356
H49	H	1.676762	-0.047398	0.724286
H50	H	1.582825	-0.120167	0.702381
C51	C	1.020062	0.145836	0.105492
C52	C	1.118515	0.137552	0.020175
C53	C	1.075106	0.120744	-0.113860
H54	H	0.962860	0.195166	0.086767
H55	H	0.981048	0.090706	0.091163
H56	H	1.157510	0.192675	0.034497
H57	H	1.175726	0.088220	0.038857
H58	H	1.036091	0.065614	-0.128189
H59	H	1.017903	0.170077	-0.132571
H60	H	1.141900	0.115113	-0.171763
H61	H	1.550597	0.077439	0.952697
H62	H	0.809409	0.191850	0.526188
C63	C	1.307787	0.252130	0.963829
C64	C	1.194852	0.229879	0.902661
C65	C	1.102163	0.296378	0.952414
H66	H	1.324588	0.310160	0.944491
H67	H	1.304705	0.254289	1.058416
H68	H	1.197935	0.227729	0.808095
H69	H	1.178011	0.171859	0.921993
H70	H	1.099082	0.298537	1.047002
H71	H	1.118976	0.354404	0.933074
H72	H	1.025525	0.281285	0.910929
H73	H	1.290470	0.264833	0.715454
C74	C	1.755853	-0.448957	0.412880
C75	C	1.730070	-0.539943	0.406780
C76	C	1.838270	-0.594251	0.432157
H77	H	1.789066	-0.427723	0.499830
H78	H	1.813522	-0.445323	0.347259
H79	H	1.672421	-0.543572	0.472397
H80	H	1.696873	-0.561204	0.319839
H81	H	1.895939	-0.590617	0.366536
H82	H	1.871475	-0.573009	0.519107
H83	H	1.820793	-0.655992	0.428009
C84	C	1.186049	-0.553426	0.278647
C85	C	1.138665	-0.539315	0.150704
C86	C	1.027954	-0.579293	0.124346
H87	H	1.129048	-0.526311	0.344305
H88	H	1.200100	-0.617243	0.281875
H89	H	1.124609	-0.475510	0.147487
H90	H	1.195632	-0.566431	0.085020
H91	H	1.042004	-0.643110	0.127574
H92	H	0.970964	-0.552175	0.190011
H93	H	0.995796	-0.569731	0.037531
C94	C	1.198112	-0.074931	0.281536
C95	C	1.149537	-0.106605	0.153345
C96	C	1.041131	-0.052632	0.127614
H97	H	1.215224	-0.013133	0.285492
H98	H	1.140401	-0.078645	0.347077
H99	H	1.207235	-0.102882	0.087822
H100	H	1.132397	-0.168395	0.149358
H101	H	0.983420	-0.056346	0.193155
H102	H	1.058254	0.009163	0.131576
H103	H	1.008153	-0.074120	0.040640
C104	C	0.804017	0.149911	0.172461
C105	C	0.719732	0.222806	0.145501
C106	C	0.675930	0.206270	0.011581
H107	H	0.764871	0.094853	0.158044
H108	H	0.870631	0.144322	0.114317
H109	H	0.653130	0.228385	0.203628
H110	H	0.758850	0.277873	0.159888
H111	H	0.742544	0.200681	-0.046563
H112	H	0.636789	0.151210	-0.002824
H113	H	0.618747	0.255729	-0.006732
C114	C	1.085018	-0.209037	0.254939
C115	C	1.036438	-0.240701	0.126747
C116	C	0.928042	-0.186715	0.101020
H117	H	1.102143	-0.147242	0.258901
H118	H	1.027304	-0.212747	0.320479
H119	H	1.094140	-0.236982	0.061225
H120	H	1.019285	-0.302489	0.122754
H121	H	0.870328	-0.190425	0.166559
H122	H	0.945178	-0.124923	0.104987
H123	H	0.895061	-0.208197	0.014045
C124	C	1.761100	-0.252682	0.414088
C125	C	1.855457	-0.320228	0.436249
C126	C	1.966330	-0.280431	0.462230
H127	H	1.754502	-0.207437	0.491665
H128	H	1.778912	-0.225125	0.339083
H129	H	1.837649	-0.347771	0.511247
H130	H	1.862094	-0.365477	0.358686
H131	H	1.984142	-0.252874	0.387225
H132	H	1.959719	-0.235187	0.539806
H133	H	2.030366	-0.326256	0.477257
H134	H	1.110163	-0.394357	0.261071
C135	C	1.654958	-0.104162	0.388978
C136	C	1.680802	-0.063556	0.278286
C137	C	1.791460	-0.023444	0.304079
H138	H	1.719246	-0.149782	0.404034
H139	H	1.648193	-0.058861	0.466498
H140	H	1.687576	-0.108853	0.200788
H141	H	1.616544	-0.017924	0.263212
H142	H	1.784694	0.021858	0.381600
H143	H	1.855738	-0.069070	0.319138
H144	H	1.809003	0.004119	0.228986
