data_functionalizedCrystal
_audit_creation_method	'MofGen! by Chris Wilmer'
_symmetry_space_group_name_H-M	'P1'
_symmetry_Int_Tables_number	1
_symmetry_cell_setting	triclinic
loop_
_symmetry_equiv_pos_as_xyz
  x,y,z
_cell_length_a	27.732048
_cell_length_b	27.731996
_cell_length_c	26.210047
_cell_angle_alpha	89.998501
_cell_angle_beta	89.996535
_cell_angle_gamma	82.632022
loop_
_atom_site_label
_atom_site_type_symbol
_atom_site_fract_x
_atom_site_fract_y
_atom_site_fract_z
O1	O	0.640920	0.057512	-0.042370
O2	O	1.140920	0.557512	0.457630
O3	O	0.500125	0.066257	-0.042386
O4	O	1.000125	0.566257	0.457614
O5	O	0.574909	-0.008514	-0.042366
O6	O	1.074909	0.491486	0.457634
O7	O	0.566137	0.132283	-0.042389
O8	O	1.066137	0.632283	0.457611
O9	O	0.574894	-0.008503	0.042492
O10	O	1.074894	0.491497	0.542492
O11	O	0.500111	0.066269	0.042472
O12	O	1.000111	0.566269	0.542472
O13	O	0.640906	0.057523	0.042488
O14	O	1.140906	0.557523	0.542488
Cu15	Cu	0.570507	0.061897	0.050228
Cu16	Cu	1.070507	0.561897	0.550228
Cu17	Cu	0.570524	0.061883	-0.050126
Cu18	Cu	1.070524	0.561883	0.449874
O19	O	0.566122	0.132295	0.042469
O20	O	1.066122	0.632295	0.542469
C21	C	0.482111	0.066079	0.000041
C22	C	0.982111	0.566079	0.500041
C23	C	0.428456	0.065527	0.000035
C24	C	0.928456	0.565527	0.500035
C25	C	0.089634	0.106232	0.000051
C26	C	0.589634	0.606232	0.500051
C27	C	-0.112026	0.104180	0.000056
C28	C	0.387974	0.604180	0.500056
O29	O	-0.143288	0.141402	0.000072
O30	O	0.356712	0.641402	0.500072
N31	N	-0.131141	0.059844	0.000062
N32	N	0.368859	0.559844	0.500062
C33	C	-0.099838	0.016017	0.000070
C34	C	0.400162	0.516017	0.500070
O35	O	-0.120724	-0.021740	0.000081
O36	O	0.379276	0.478260	0.500081
C37	C	0.101820	0.018069	0.000069
C38	C	0.601820	0.518069	0.500069
C39	C	0.120933	0.062408	0.000058
C40	C	0.620933	0.562408	0.500058
C41	C	0.108747	0.150567	0.000040
C42	C	0.608747	0.650567	0.500040
C43	C	0.159159	0.151079	0.000036
C44	C	0.659159	0.651079	0.500036
C45	C	0.190457	0.107256	0.000043
C46	C	0.690457	0.607256	0.500043
C47	C	0.171344	0.062920	0.000054
C48	C	0.671344	0.562920	0.500054
C49	C	0.133122	-0.025757	0.000081
C50	C	0.633122	0.474243	0.500081
C51	C	0.183539	-0.025240	0.000082
C52	C	0.683539	0.474760	0.500082
C53	C	0.202652	0.019099	0.000071
C54	C	0.702652	0.519099	0.500071
C55	C	0.253055	0.019609	0.000057
C56	C	0.753055	0.519609	0.500057
N57	N	0.272171	0.063946	0.000050
N58	N	0.772171	0.563946	0.500050
C59	C	0.240872	0.107769	0.000043
C60	C	0.740872	0.607769	0.500043
C61	C	-0.205712	0.014943	0.000070
C62	C	0.294288	0.514943	0.500070
C63	C	-0.256126	0.014430	0.000069
C64	C	0.243874	0.514430	0.500069
C65	C	-0.268310	0.102594	0.000056
C66	C	0.231690	0.602594	0.500056
C67	C	-0.217895	0.103106	0.000052
C68	C	0.282105	0.603106	0.500052
C69	C	-0.186597	0.059280	0.000064
C70	C	0.313403	0.559280	0.500064
C71	C	0.346741	0.108842	0.000034
C72	C	0.846741	0.608842	0.500034
C73	C	0.397158	0.109350	0.000028
C74	C	0.897158	0.609350	0.500028
C75	C	0.409337	0.021187	0.000045
C76	C	0.909337	0.521187	0.500045
C77	C	0.358925	0.020678	0.000048
C78	C	0.858925	0.520678	0.500048
C79	C	0.327627	0.064510	0.000045
C80	C	0.827627	0.564510	0.500045
O81	O	0.284346	-0.017592	0.000046
O82	O	0.784346	0.482408	0.500046
O83	O	0.261767	0.145521	0.000044
O84	O	0.761767	0.645521	0.500044
C85	C	0.039222	0.105719	0.000055
C86	C	0.539222	0.605719	0.500055
C87	C	0.020109	0.061384	0.000066
C88	C	0.520109	0.561384	0.500066
C89	C	0.051408	0.017560	0.000073
C90	C	0.551408	0.517560	0.500073
C91	C	-0.030305	0.060871	0.000065
C92	C	0.469695	0.560871	0.500065
C93	C	-0.061604	0.104694	0.000058
C94	C	0.438396	0.604694	0.500058
C95	C	-0.042489	0.149030	0.000052
C96	C	0.457511	0.649030	0.500052
C97	C	0.007923	0.149543	0.000048
C98	C	0.507923	0.649543	0.500048
C99	C	0.032292	-0.026776	0.000079
C100	C	0.532292	0.473224	0.500079
C101	C	-0.018120	-0.027285	0.000082
C102	C	0.481880	0.472715	0.500082
C103	C	-0.049419	0.016539	0.000075
C104	C	0.450581	0.516539	0.500075
C105	C	0.574721	-0.026516	0.000064
C106	C	1.074721	0.473484	0.500064
C107	C	0.574179	-0.080172	0.000069
C108	C	1.074179	0.419828	0.500069
C109	C	0.570772	-0.412895	-0.046212
C110	C	1.070772	0.087105	0.453788
C111	C	0.568711	-0.614553	-0.046221
C112	C	1.068711	-0.114553	0.453779
O113	O	0.568430	-0.640629	-0.085561
O114	O	1.068430	-0.140629	0.414439
N115	N	0.568447	-0.639764	0.000034
N116	N	1.068447	-0.139764	0.500034
C117	C	0.568695	-0.614556	0.046296
C118	C	1.068695	-0.114556	0.546296
O119	O	0.568418	-0.640626	0.085639
O120	O	1.068418	-0.140626	0.585639
C121	C	0.570753	-0.412899	0.046304
C122	C	1.070753	0.087101	0.546304
C123	C	0.571021	-0.387691	0.000046
C124	C	1.071021	0.112309	0.500046
C125	C	0.571040	-0.387687	-0.092467
C126	C	1.071040	0.112313	0.407533
C127	C	0.571558	-0.337276	-0.092464
C128	C	1.071558	0.162724	0.407536
C129	C	0.571807	-0.312072	-0.046206
C130	C	1.071807	0.187928	0.453794
C131	C	0.571539	-0.337280	0.000048
C132	C	1.071539	0.162720	0.500048
C133	C	0.570997	-0.387692	0.092565
C134	C	1.070997	0.112308	0.592565
C135	C	0.571511	-0.337274	0.092563
C136	C	1.071511	0.162726	0.592563
C137	C	0.571779	-0.312066	0.046304
C138	C	1.071779	0.187934	0.546304
C139	C	0.572307	-0.261665	0.046309
C140	C	1.072307	0.238335	0.546309
N141	N	0.572571	-0.236454	0.000053
N142	N	1.072571	0.263546	0.500053
C143	C	0.572321	-0.261658	-0.046204
C144	C	1.072321	0.238342	0.453796
C145	C	0.567616	-0.720430	0.046288
C146	C	1.067616	-0.220430	0.546288
C147	C	0.567102	-0.770844	0.046286
C148	C	1.067102	-0.270844	0.546286
C149	C	0.567117	-0.770837	-0.046231
C150	C	1.067117	-0.270837	0.453769
C151	C	0.567634	-0.720422	-0.046229
C152	C	1.067634	-0.220422	0.453771
C153	C	0.567880	-0.695219	0.000032
C154	C	1.067880	-0.195219	0.500032
C155	C	0.573409	-0.155791	-0.046195
C156	C	1.073409	0.344209	0.453805
C157	C	0.573929	-0.105376	-0.046188
C158	C	1.073929	0.394624	0.453812
C159	C	0.573912	-0.105387	0.046329
C160	C	1.073912	0.394613	0.546329
C161	C	0.573394	-0.155798	0.046322
C162	C	1.073394	0.344202	0.546322
C163	C	0.573141	-0.180999	0.000056
C164	C	1.073141	0.319001	0.500056
O165	O	0.572582	-0.235557	0.085628
O166	O	1.072582	0.264443	0.585628
O167	O	0.572587	-0.235578	-0.085542
O168	O	1.072587	0.264422	0.414458
C169	C	0.570254	-0.463306	-0.046215
C170	C	1.070254	0.036694	0.453785
C171	C	0.569986	-0.488513	0.000040
C172	C	1.069986	0.011487	0.500040
C173	C	0.570235	-0.463310	0.046298
C174	C	1.070235	0.036690	0.546298
C175	C	0.569472	-0.538928	0.000038
C176	C	1.069472	-0.038928	0.500038
C177	C	0.569222	-0.564131	-0.046220
C178	C	1.069222	-0.064131	0.453780
C179	C	0.569486	-0.538921	-0.092475
C180	C	1.069486	-0.038921	0.407525
C181	C	0.570004	-0.488509	-0.092472
C182	C	1.070004	0.011491	0.407528
C183	C	0.569971	-0.488521	0.092554
C184	C	1.069971	0.011479	0.592554
C185	C	0.569454	-0.538932	0.092547
C186	C	1.069454	-0.038932	0.592547
C187	C	0.569204	-0.564135	0.046289
C188	C	1.069204	-0.064135	0.546289
C189	C	0.658920	0.057701	0.000060
C190	C	1.158920	0.557701	0.500060
C191	C	0.712575	0.058254	0.000062
C192	C	1.212575	0.558254	0.500062
C193	C	0.566310	0.150296	0.000037
C194	C	1.066310	0.650296	0.500037
C195	C	0.566853	0.203952	0.000028
C196	C	1.066853	0.703952	0.500028
N197	N	0.570499	0.061906	0.120812
N198	N	1.070499	0.561906	0.620812
N199	N	0.570536	0.061870	-0.120710
N200	N	1.070536	0.561870	0.379290
C201	C	0.603635	0.028782	0.473335
C202	C	1.103635	0.528782	0.973335
C203	C	0.603646	0.028775	0.686994
C204	C	1.103646	0.528775	1.186994
O205	O	0.631801	0.000614	0.714623
O206	O	1.131801	0.500614	1.214623
N207	N	0.570527	0.061873	0.713706
N208	N	1.070527	0.561873	1.213706
C209	C	0.537401	0.094972	0.687001
C210	C	1.037401	0.594972	1.187001
O211	O	0.509228	0.123120	0.714624
O212	O	1.009228	0.623120	1.214624
C213	C	0.537388	0.094976	0.473343
C214	C	1.037388	0.594976	0.973343
C215	C	0.570512	0.061880	0.446633
C216	C	1.070512	0.561880	0.946633
C217	C	0.636756	-0.004312	0.446625
C218	C	1.136756	0.495688	0.946625
C219	C	0.636755	-0.004308	0.393214
C220	C	1.136755	0.495692	0.893214
C221	C	0.603632	0.028790	0.366512
C222	C	1.103632	0.528790	0.866512
C223	C	0.570511	0.061884	0.393222
C224	C	1.070511	0.561884	0.893222
C225	C	0.504260	0.128073	0.446639
C226	C	1.004260	0.628073	0.946639
C227	C	0.504259	0.128070	0.393221
C228	C	1.004259	0.628070	0.893221
C229	C	0.537384	0.094974	0.366511
C230	C	1.037384	0.594974	0.866511
C231	C	0.537388	0.094985	0.313109
C232	C	1.037388	0.594985	0.813109
N233	N	0.570506	0.061888	0.286396
N234	N	1.070506	0.561888	0.786396
C235	C	0.603629	0.028790	0.313098
C236	C	1.103629	0.528790	0.813098
C237	C	0.537410	0.094968	0.799174
C238	C	1.037410	0.594968	1.299174
C239	C	0.537414	0.094968	0.852588
C240	C	1.037414	0.594968	1.352588
C241	C	0.603658	0.028770	0.852577
C242	C	1.103658	0.528770	1.352577
C243	C	0.603657	0.028773	0.799162
C244	C	1.103657	0.528773	1.299162
C245	C	0.570529	0.061871	0.772462
C246	C	1.070529	0.561871	1.272462
C247	C	0.603624	0.028801	0.200930
C248	C	1.103624	0.528801	0.700930
C249	C	0.603621	0.028809	0.147514
C250	C	1.103621	0.528809	0.647514
C251	C	0.537375	0.095004	0.147529
C252	C	1.037375	0.595004	0.647529
C253	C	0.537380	0.094998	0.200941
C254	C	1.037380	0.594998	0.700941
C255	C	0.570506	0.061892	0.227640
C256	C	1.070506	0.561892	0.727640
O257	O	0.509244	0.123128	0.285447
O258	O	1.009244	0.623128	0.785447
O259	O	0.631790	0.000639	0.285466
O260	O	1.131790	0.500639	0.785466
C261	C	0.603636	0.028778	0.526746
C262	C	1.103636	0.528778	1.026746
C263	C	0.570515	0.061872	0.553456
C264	C	1.070515	0.561872	1.053456
C265	C	0.537393	0.094970	0.526755
C266	C	1.037393	0.594970	1.026755
C267	C	0.570519	0.061872	0.606870
C268	C	1.070519	0.561872	1.106870
C269	C	0.603641	0.028774	0.633572
C270	C	1.103641	0.528774	1.133572
C271	C	0.636760	-0.004323	0.606860
C272	C	1.136760	0.495677	1.106860
C273	C	0.636758	-0.004320	0.553448
C274	C	1.136758	0.495680	1.053448
C275	C	0.504274	0.128068	0.553467
C276	C	1.004274	0.628068	1.053467
C277	C	0.504278	0.128061	0.606879
C278	C	1.004278	0.628061	1.106879
C279	C	0.537401	0.094964	0.633580
C280	C	1.037401	0.594964	1.133580
H281	H	0.343363	-0.015426	0.000050
H282	H	0.843363	0.484574	0.500050
O283	O	0.573054	-0.180258	0.091268
O284	O	1.073054	0.319742	0.591268
C285	C	0.531005	-0.189876	0.170349
C286	C	1.031005	0.310124	0.670349
C287	C	0.531330	-0.162148	0.119462
C288	C	1.031330	0.337852	0.619462
H289	H	0.497280	-0.175238	0.193163
H290	H	0.997280	0.324762	0.693163
H291	H	0.530558	-0.230238	0.162429
H292	H	1.030558	0.269762	0.662429
H293	H	0.564961	-0.184658	0.193143
H294	H	1.064961	0.315342	0.693143
H295	H	0.497380	-0.167326	0.096643
H296	H	0.997380	0.332674	0.596643
H297	H	0.531802	-0.121796	0.127419
H298	H	1.031802	0.378204	0.627419
H299	H	0.574149	-0.084854	-0.083859
H300	H	1.074149	0.415146	0.416141
H301	H	-0.293803	0.138276	0.000050
H302	H	0.206197	0.638276	0.500050
H303	H	0.630598	0.001842	0.222662
H304	H	1.130598	0.501842	0.722662
H305	H	0.570223	-0.467990	-0.130141
H306	H	1.070223	0.032010	0.369859
O307	O	0.569172	-0.563348	-0.137441
O308	O	1.069172	-0.063348	0.362559
C309	C	0.527098	-0.573010	-0.216492
C310	C	1.027098	-0.073010	0.283508
C311	C	0.527408	-0.545295	-0.165597
C312	C	1.027408	-0.045295	0.334403
H313	H	0.493330	-0.558432	-0.239265
H314	H	0.993330	-0.058432	0.260735
H315	H	0.561018	-0.567775	-0.239345
H316	H	1.061018	-0.067775	0.260655
H317	H	0.526703	-0.613370	-0.208524
H318	H	1.026703	-0.113370	0.291476
H319	H	0.527786	-0.504926	-0.173519
H320	H	1.027786	-0.004926	0.326481
H321	H	0.493490	-0.550571	-0.142759
H322	H	0.993490	-0.050571	0.357241
H323	H	0.571775	-0.316756	-0.130133
H324	H	1.071775	0.183244	0.369867
H325	H	0.434830	-0.014493	0.000049
H326	H	0.934830	0.485507	0.500049
O327	O	0.472054	0.160157	0.527509
O328	O	0.972054	0.660157	1.027509
C329	C	0.405978	0.170925	0.467188
C330	C	0.905978	0.670925	0.967188
C331	C	0.442431	0.134525	0.496560
C332	C	0.942431	0.634525	0.996560
H333	H	0.382026	0.150216	0.442150
H334	H	0.882026	0.650216	0.942150
H335	H	0.382275	0.194573	0.495435
H336	H	0.882275	0.694573	0.995435
H337	H	0.426674	0.194941	0.442206
H338	H	0.926674	0.694941	0.942206
H339	H	0.421775	0.110477	0.521542
H340	H	0.921775	0.610477	1.021542
H341	H	0.466134	0.110911	0.468285
H342	H	0.966134	0.610911	0.968285
O343	O	0.668836	-0.036554	0.527487
O344	O	1.168836	0.463446	1.027487
C345	C	0.679521	-0.102776	0.467335
C346	C	1.179521	0.397224	0.967335
C347	C	0.643161	-0.066245	0.496665
C348	C	1.143161	0.433755	0.996665
H349	H	0.658777	-0.126797	0.442416
H350	H	1.158777	0.373203	0.942416
H351	H	0.703556	-0.082195	0.442253
H352	H	1.203556	0.417805	0.942253
H353	H	0.703153	-0.126401	0.495655
H354	H	1.203153	0.373599	0.995655
H355	H	0.619497	-0.042610	0.468381
H356	H	1.119497	0.457390	0.968381
H357	H	0.619159	-0.086856	0.521754
H358	H	1.119159	0.413144	1.021754
H359	H	0.573201	-0.176303	-0.083869
H360	H	1.073201	0.323697	0.416131
H361	H	0.567852	-0.699901	-0.083897
H362	H	1.067852	-0.199901	0.416103
H363	H	0.569239	-0.559452	0.130219
H364	H	1.069239	-0.059452	0.630219
O365	O	0.668980	-0.036496	0.632724
O366	O	1.168980	0.463504	1.132724
C367	C	0.734658	-0.102182	0.627094
C368	C	1.234658	0.397818	1.127094
C369	C	0.698210	-0.065765	0.597736
C370	C	1.198210	0.434235	1.097736
H371	H	0.758294	-0.125862	0.598819
H372	H	1.258294	0.374138	1.098819
H373	H	0.758678	-0.081506	0.652088
H374	H	1.258678	0.418494	1.152088
H375	H	0.713959	-0.126162	0.652114
H376	H	1.213959	0.373838	1.152114
H377	H	0.718870	-0.041776	0.572688
H378	H	1.218870	0.458224	1.072688
H379	H	0.674191	-0.086471	0.572774
H380	H	1.174191	0.413529	1.072774
O381	O	-0.036602	-0.070402	0.000115
O382	O	0.463398	0.429598	0.500115
C383	C	-0.019182	-0.157793	0.000109
C384	C	0.480818	0.342207	0.500109
C385	C	0.001811	-0.109000	0.000077
C386	C	0.501811	0.391000	0.500077
H387	H	0.011864	-0.189012	0.000067
H388	H	0.511864	0.310988	0.500067
H389	H	-0.042460	-0.160265	0.035634
H390	H	0.457540	0.339735	0.535634
H391	H	-0.042498	-0.160222	-0.035392
H392	H	0.457502	0.339778	0.464608
H393	H	0.025148	-0.106538	0.035554
H394	H	0.525148	0.393462	0.535554
H395	H	0.025061	-0.106549	-0.035471
H396	H	0.525061	0.393451	0.464529
H397	H	0.630596	0.001858	0.125768
H398	H	1.130596	0.501858	0.625768
H399	H	0.477305	0.155017	0.628622
H400	H	0.977305	0.655017	1.128622
H401	H	0.570176	-0.468005	0.130223
H402	H	1.070176	0.031995	0.630223
O403	O	0.570864	-0.412227	-0.137373
O404	O	1.070864	0.087773	0.362627
C405	C	0.612210	-0.474903	-0.191086
C406	C	1.112210	0.025097	0.308914
C407	C	0.612459	-0.447162	-0.140203
C408	C	1.112459	0.052838	0.359797
H409	H	0.645841	-0.503147	-0.193395
H410	H	1.145841	-0.003147	0.306605
H411	H	0.578152	-0.493864	-0.193421
H412	H	1.078152	0.006136	0.306579
H413	H	0.612466	-0.448206	-0.224131
H414	H	1.112466	0.051794	0.275869
H415	H	0.612220	-0.473826	-0.107129
H416	H	1.112220	0.026174	0.392871
H417	H	0.646513	-0.428193	-0.137912
H418	H	1.146513	0.071807	0.362088
H419	H	0.630629	0.001821	0.874327
H420	H	1.130629	0.501821	1.374327
O421	O	0.505278	0.127192	0.773265
O422	O	1.005278	0.627192	1.273265
C423	C	0.476291	0.211447	0.756967
C424	C	0.976291	0.711447	1.256967
C425	C	0.512712	0.175005	0.786327
C426	C	1.012712	0.675005	1.286327
H427	H	0.482282	0.250112	0.767525
H428	H	0.982282	0.750112	1.267525
H429	H	0.481968	0.205813	0.714195
H430	H	0.981968	0.705813	1.214195
H431	H	0.437630	0.205391	0.767473
H432	H	0.937630	0.705391	1.267473
H433	H	0.551387	0.181040	0.775864
H434	H	1.051387	0.681040	1.275864
H435	H	0.506992	0.180649	0.829093
H436	H	1.006992	0.680649	1.329093
O437	O	0.026405	0.192657	0.000062
O438	O	0.526405	0.692657	0.500062
C439	C	0.008980	0.280047	0.000019
C440	C	0.508980	0.780047	0.500019
C441	C	-0.012010	0.231252	0.000013
C442	C	0.487990	0.731252	0.500013
H443	H	-0.022068	0.311264	-0.000032
H444	H	0.477932	0.811264	0.499968
H445	H	0.032257	0.282533	0.035539
H446	H	0.532257	0.782533	0.535539
H447	H	0.032296	0.282465	-0.035487
H448	H	0.532296	0.782465	0.464513
H449	H	-0.035348	0.228802	0.035494
H450	H	0.464652	0.728802	0.535494
H451	H	-0.035259	0.228787	-0.035531
H452	H	0.464741	0.728787	0.464469
H453	H	0.663726	-0.031259	0.371470
H454	H	1.163726	0.468741	0.871470
H455	H	0.663728	-0.031267	0.468361
H456	H	1.163728	0.468733	0.968361
O457	O	0.635849	-0.003425	0.773298
O458	O	1.135849	0.496575	1.273298
C459	C	0.701575	-0.069063	0.778939
C460	C	1.201575	0.430937	1.278939
C461	C	0.665135	-0.032630	0.808290
C462	C	1.165135	0.467370	1.308290
H463	H	0.725268	-0.092678	0.807218
H464	H	1.225268	0.407322	1.307218
H465	H	0.680917	-0.093106	0.753951
H466	H	1.180917	0.406894	1.253951
H467	H	0.725538	-0.048351	0.753913
H468	H	1.225538	0.451649	1.253913
H469	H	0.641162	-0.053302	0.833344
H470	H	1.141162	0.446698	1.333344
H471	H	0.685822	-0.008588	0.833246
H472	H	1.185822	0.491412	1.333246
H473	H	0.566914	-0.791366	-0.083896
H474	H	1.066914	-0.291366	0.416104
H475	H	0.477282	0.155022	0.371484
H476	H	0.977282	0.655022	0.871484
H477	H	0.057772	-0.062463	0.000086
H478	H	0.557772	0.437537	0.500086
H479	H	0.566891	-0.791365	0.083954
H480	H	1.066891	-0.291365	0.583954
H481	H	-0.067981	0.184713	0.000044
H482	H	0.432019	0.684713	0.500044
O483	O	0.472147	0.160267	0.472600
O484	O	0.972147	0.660267	0.972600
C485	C	0.461329	0.226341	0.532925
C486	C	0.961329	0.726341	1.032925
C487	C	0.497754	0.189915	0.503547
C488	C	0.997754	0.689915	1.003547
H489	H	0.482018	0.250313	0.557961
H490	H	0.982018	0.750313	1.057961
H491	H	0.437662	0.250026	0.504682
H492	H	0.937662	0.750026	1.004682
H493	H	0.437336	0.205622	0.557910
H494	H	0.937336	0.705622	1.057910
H495	H	0.521779	0.210594	0.478562
H496	H	1.021779	0.710594	0.978562
H497	H	0.521388	0.166230	0.531818
H498	H	1.021388	0.666230	1.031818
H499	H	0.510412	0.121953	0.222688
H500	H	1.010412	0.621953	0.722688
O501	O	0.415642	0.152466	0.000041
O502	O	0.915642	0.652466	0.500041
C503	C	0.398227	0.239857	-0.000003
C504	C	0.898227	0.739857	0.499997
C505	C	0.377231	0.191065	-0.000007
C506	C	0.877231	0.691065	0.499993
H507	H	0.367182	0.271077	-0.000053
H508	H	0.867182	0.771077	0.499947
H509	H	0.421507	0.242341	0.035516
H510	H	0.921507	0.742341	0.535516
H511	H	0.421542	0.242272	-0.035510
H512	H	0.921542	0.742272	0.464490
H513	H	0.353895	0.188618	0.035476
H514	H	0.853895	0.688618	0.535476
H515	H	0.353979	0.188603	-0.035549
H516	H	0.853979	0.688603	0.464451
H517	H	-0.271683	-0.021675	0.000071
H518	H	0.228317	0.478325	0.500071
H519	H	0.510446	0.121923	0.874332
H520	H	1.010446	0.621923	1.374332
H521	H	0.574117	-0.084857	0.083990
H522	H	1.074117	0.415143	0.583990
H523	H	0.567818	-0.699914	0.083961
H524	H	1.067818	-0.199914	0.583961
O525	O	0.505183	0.127200	0.121665
O526	O	1.005183	0.627200	0.621665
C527	C	0.439451	0.192833	0.127298
C528	C	0.939451	0.692833	0.627298
C529	C	0.475893	0.156408	0.156654
C530	C	0.975893	0.656408	0.656654
H531	H	0.415754	0.216451	0.155574
H532	H	0.915754	0.716451	0.655574
H533	H	0.460107	0.216874	0.102302
H534	H	0.960107	0.716874	0.602302
H535	H	0.415491	0.172114	0.102280
H536	H	0.915491	0.672114	0.602280
H537	H	0.499863	0.177088	0.181700
H538	H	0.999863	0.677088	0.681700
H539	H	0.455208	0.132369	0.181618
H540	H	0.955208	0.632369	0.681618
O541	O	0.316294	0.151387	-0.000041
O542	O	0.816294	0.651387	0.499959
C543	C	0.252333	0.201988	-0.044031
C544	C	0.752333	0.701988	0.455969
C545	C	0.286778	0.153783	-0.043999
C546	C	0.786778	0.653783	0.456001
H547	H	0.228468	0.203945	-0.079573
H548	H	0.728468	0.703945	0.420427
H549	H	0.228390	0.203971	-0.008542
H550	H	0.728390	0.703971	0.491458
H551	H	0.274671	0.233751	-0.044016
H552	H	0.774671	0.733751	0.455984
H553	H	0.264479	0.121992	-0.044032
H554	H	0.764479	0.621992	0.455968
H555	H	0.310723	0.151843	-0.079485
H556	H	0.810723	0.651843	0.420515
H557	H	0.570779	-0.408207	0.130234
H558	H	1.070779	0.091793	0.630234
O559	O	0.571681	-0.312834	0.137534
O560	O	1.071681	0.187166	0.637534
C561	C	0.529903	-0.291593	0.216581
C562	C	1.029903	0.208407	0.716581
C563	C	0.529657	-0.319303	0.165679
C564	C	1.029657	0.180697	0.665679
H565	H	0.495926	-0.296805	0.239346
H566	H	0.995926	0.203195	0.739346
H567	H	0.563613	-0.306191	0.239438
H568	H	1.063613	0.193809	0.739438
H569	H	0.530341	-0.251236	0.208626
H570	H	1.030341	0.248764	0.708626
H571	H	0.529202	-0.359663	0.173588
H572	H	1.029202	0.140337	0.673588
H573	H	0.495950	-0.304666	0.142838
H574	H	0.995950	0.195334	0.642838
O575	O	0.177640	0.194194	0.000053
O576	O	0.677640	0.694194	0.500053
C577	C	0.160216	0.281584	0.000016
C578	C	0.660216	0.781584	0.500016
C579	C	0.139226	0.232789	0.000005
C580	C	0.639226	0.732789	0.500005
H581	H	0.129168	0.312801	-0.000033
H582	H	0.629168	0.812801	0.499967
H583	H	0.183492	0.284067	0.035538
H584	H	0.683492	0.784067	0.535538
H585	H	0.183533	0.284004	-0.035488
H586	H	0.683533	0.784004	0.464512
H587	H	0.115887	0.230336	0.035485
H588	H	0.615887	0.730336	0.535485
H589	H	0.115977	0.230327	-0.035540
H590	H	0.615977	0.730327	0.464460
H591	H	-0.202337	0.139211	0.000046
H592	H	0.297663	0.639211	0.500046
O593	O	-0.175380	-0.027677	0.000055
O594	O	0.324620	0.472323	0.500055
C595	C	-0.168630	-0.115176	0.000096
C596	C	0.331370	0.384824	0.500096
C597	C	-0.203032	-0.066945	0.000104
C598	C	0.296968	0.433055	0.500104
H599	H	-0.190972	-0.146936	0.000146
H600	H	0.309028	0.353064	0.500146
H601	H	-0.144728	-0.117181	-0.035425
H602	H	0.355272	0.382819	0.464575
H603	H	-0.144715	-0.117114	0.035601
H604	H	0.355285	0.382886	0.535601
H605	H	-0.226977	-0.064974	-0.035377
H606	H	0.273023	0.435026	0.464623
H607	H	-0.226900	-0.064960	0.035648
H608	H	0.273100	0.435040	0.535648
H609	H	0.083267	0.186255	0.000036
H610	H	0.583267	0.686255	0.500036
H611	H	0.209021	-0.060930	0.000092
H612	H	0.709021	0.439070	0.500092
O613	O	0.114645	-0.068872	0.000120
O614	O	0.614645	0.431128	0.500120
C615	C	0.132072	-0.156262	0.000120
C616	C	0.632072	0.343738	0.500120
C617	C	0.153061	-0.107466	0.000086
C618	C	0.653061	0.392534	0.500086
H619	H	0.163121	-0.187478	0.000082
H620	H	0.663121	0.312522	0.500082
H621	H	0.108793	-0.158733	0.035645
H622	H	0.608793	0.341267	0.535645
H623	H	0.108759	-0.158696	-0.035381
H624	H	0.608759	0.341304	0.464619
H625	H	0.176396	-0.105000	0.035564
H626	H	0.676396	0.395000	0.535564
H627	H	0.176312	-0.105016	-0.035462
H628	H	0.676312	0.394984	0.464538
