data_functionalizedCrystal
_audit_creation_method	'MofGen! by Chris Wilmer'
_symmetry_space_group_name_H-M	'P1'
_symmetry_Int_Tables_number	1
_symmetry_cell_setting	triclinic
loop_
_symmetry_equiv_pos_as_xyz
  x,y,z
_cell_length_a	6.817900
_cell_length_b	10.943574
_cell_length_c	10.943950
_cell_angle_alpha	91.766802
_cell_angle_beta	108.844601
_cell_angle_gamma	108.837846
loop_
_atom_site_label
_atom_site_type_symbol
_atom_site_fract_x
_atom_site_fract_y
_atom_site_fract_z
V1	V	-4.115544	-0.178568	-0.402521
O2	O	-4.073255	0.008645	-0.394887
O3	O	-4.093490	-0.354132	-0.399741
O4	O	-4.093529	-0.175793	-0.578087
O5	O	-4.073216	-0.170928	-0.215307
V6	V	-4.592339	-0.156178	-0.380132
O7	O	-4.391560	-0.227681	-0.451634
O8	O	-4.766520	-0.107065	-0.331020
O9	O	-4.391186	0.019385	-0.382912
O10	O	-4.752024	-0.343391	-0.387766
O11	O	-4.752063	-0.163818	-0.567347
O12	O	-4.391147	-0.158953	-0.204566
C13	C	-3.944047	-0.396931	-0.393384
C14	C	-4.007478	-0.540457	-0.392281
C15	C	-3.890308	-0.703462	-0.384274
C16	C	-4.003699	-0.637646	-0.495231
C17	C	-3.893220	-0.604373	-0.281388
C18	C	-4.234055	-0.730386	-0.501408
C19	C	-4.123502	-0.697104	-0.287468
C20	C	-4.237064	-0.631336	-0.398456
C21	C	-3.944095	-0.169441	-0.620881
C22	C	-4.007553	-0.168334	-0.764406
C23	C	-4.274924	-0.173773	-0.941140
C24	C	-4.196127	-0.278009	-0.868468
C25	C	-4.085584	-0.064164	-0.835181
C26	C	-4.041784	-0.270721	-0.947472
C27	C	-3.931222	-0.056780	-0.914178
C28	C	-3.852315	-0.161038	-0.841544
C29	C	-4.203972	0.062178	-0.389266
C30	C	-4.119780	0.205703	-0.390377
C31	C	-4.203923	-0.165310	-0.161766
C32	C	-4.119702	-0.166410	-0.018239
H33	H	-3.744436	-0.735373	-0.378401
H34	H	-3.673060	-0.155690	-0.798278
C35	C	-3.780936	0.069589	-0.942253
H36	H	-3.797288	0.142882	-0.903541
H37	H	-3.631079	0.074878	-0.906602
H38	H	-3.821770	0.068982	-1.033949
H39	H	-4.174680	-0.723681	-0.199607
H40	H	-4.454234	-0.179272	-0.984652
C41	C	-4.434534	-0.588572	-0.406600
H42	H	-4.395375	-0.527168	-0.331763
H43	H	-4.472277	-0.549529	-0.483027
H44	H	-4.557775	-0.662644	-0.410014
H45	H	-4.103526	0.023108	-0.786297
C46	C	-3.697722	-0.530496	-0.155792
H47	H	-3.740853	-0.475555	-0.109009
H48	H	-3.655683	-0.591470	-0.102923
H49	H	-3.576017	-0.478866	-0.177973
C50	C	-3.934479	-0.601766	-0.613908
H51	H	-3.810785	-0.626262	-0.608776
H52	H	-4.054282	-0.646635	-0.691963
H53	H	-3.895615	-0.510253	-0.614181
C54	C	-4.429406	-0.804054	-0.627140
H55	H	-4.468787	-0.895428	-0.625705
H56	H	-4.552494	-0.778877	-0.632445
H57	H	-4.387427	-0.783320	-0.700844
H58	H	-4.307466	-0.371554	-0.847727
C59	C	-4.017658	-0.388772	-1.013303
H60	H	-3.966952	-0.438708	-0.948954
H61	H	-4.157109	-0.441560	-1.075291
H62	H	-3.913989	-0.358868	-1.056264
