data_functionalizedCrystal
_audit_creation_method	'MofGen! by Chris Wilmer'
_symmetry_space_group_name_H-M	'P1'
_symmetry_Int_Tables_number	1
_symmetry_cell_setting	triclinic
loop_
_symmetry_equiv_pos_as_xyz
  x,y,z
_cell_length_a	12.827893
_cell_length_b	17.641079
_cell_length_c	12.827885
_cell_angle_alpha	101.183017
_cell_angle_beta	89.980728
_cell_angle_gamma	78.822299
loop_
_atom_site_label
_atom_site_type_symbol
_atom_site_fract_x
_atom_site_fract_y
_atom_site_fract_z
Zn1	Zn	1.681664	-0.314548	-0.674987
Zn2	Zn	1.716849	-0.446706	-0.535599
Zn3	Zn	1.506916	-0.314586	-0.500271
Zn4	Zn	1.542166	-0.446647	-0.710283
O5	O	1.611899	-0.380622	-0.605285
O6	O	1.832570	-0.332087	-0.656510
O7	O	1.688974	-0.429221	-0.384687
O8	O	1.500619	-0.204004	-0.493892
O9	O	1.858420	-0.429184	-0.554102
O10	O	1.629006	-0.203976	-0.622255
O11	O	1.534737	-0.332153	-0.358732
O12	O	1.365354	-0.332096	-0.528116
O13	O	1.560698	-0.429083	-0.851826
O14	O	1.391252	-0.429121	-0.682411
O15	O	1.663187	-0.332030	-0.825895
O16	O	1.723154	-0.557275	-0.588327
O17	O	1.594815	-0.557232	-0.716667
C18	C	1.340385	-0.380607	-0.605261
C19	C	1.224235	-0.380619	-0.605281
C20	C	1.185313	-0.428705	-0.681553
C21	C	1.065266	-0.428719	-0.681575
C22	C	1.666656	-0.585925	-0.660184
C23	C	1.690177	-0.673755	-0.683704
C24	C	1.790094	-0.797467	-0.783719
C25	C	1.767985	-0.714938	-0.761610
C26	C	1.634444	-0.715092	-0.627881
C27	C	1.656538	-0.797623	-0.649983
C28	C	1.734365	-0.838804	-0.727902
C29	C	1.600809	-0.838960	-0.594166
C30	C	1.622905	-0.921484	-0.616262
C31	C	1.700731	-0.962670	-0.694176
C32	C	1.756462	-0.921328	-0.749999
C33	C	1.522987	-0.797777	-0.516242
C34	C	1.467258	-0.839114	-0.460425
C35	C	1.489349	-0.921639	-0.482526
C36	C	1.567175	-0.962826	-0.560440
C37	C	1.433619	-0.962982	-0.426704
C38	C	1.455715	-1.045506	-0.448800
C39	C	1.589272	-1.045350	-0.582536
C40	C	1.884473	-0.380638	-0.605310
C41	C	2.000628	-0.380644	-0.605321
C42	C	1.611950	-0.380546	-0.877835
C43	C	1.611971	-0.380514	-0.993980
C44	C	1.556956	-0.174517	-0.550195
C45	C	1.533543	-0.086687	-0.526719
C46	C	1.662690	-0.332479	-1.032930
C47	C	1.662714	-0.332445	-1.152971
C48	C	1.611893	-0.380640	-0.333780
C49	C	1.612014	-0.380450	-0.217577
H50	H	1.034143	-0.339477	-0.540015
Br51	Br	1.009406	-0.497347	-0.790412
Br52	Br	1.895712	-0.853364	-0.889473
H53	H	1.168683	-0.339458	-0.540001
H54	H	1.706141	-0.291323	-1.186518
H55	H	1.652626	-1.078882	-0.646006
Br56	Br	1.380091	-1.101611	-0.373041
H57	H	1.568594	-0.421579	-1.184039
H58	H	1.568558	-0.421607	-1.049501
Br59	Br	1.730980	-1.074668	-0.723911
Br60	Br	1.843634	-0.658839	-0.837363
Br61	Br	1.528829	-0.659196	-0.522133
Br62	Br	1.277893	-0.497311	-0.790367
Br63	Br	1.361643	-0.783219	-0.354677
Br64	Br	1.735002	-0.263951	-0.940392
Br65	Br	1.862080	-0.977224	-0.855753
H66	H	1.370259	-0.929442	-0.363254
H67	H	1.505004	-0.730581	-0.498249
