data_functionalizedCrystal
_audit_creation_method	'MofGen! by Chris Wilmer'
_symmetry_space_group_name_H-M	'P1'
_symmetry_Int_Tables_number	1
_symmetry_cell_setting	triclinic
loop_
_symmetry_equiv_pos_as_xyz
  x,y,z
_cell_length_a	8.597366
_cell_length_b	12.376492
_cell_length_c	8.559649
_cell_angle_alpha	99.670978
_cell_angle_beta	77.624636
_cell_angle_gamma	86.028320
loop_
_atom_site_label
_atom_site_type_symbol
_atom_site_fract_x
_atom_site_fract_y
_atom_site_fract_z
O1	O	2.016950	0.102450	0.270827
O2	O	1.573327	0.059240	0.275256
O3	O	1.834221	0.084653	0.042290
O4	O	1.756055	0.077037	0.503792
O5	O	1.769026	0.266315	0.100451
O6	O	1.508131	0.240902	0.333417
O7	O	1.951754	0.284112	0.328988
Zn8	Zn	1.719591	0.291349	0.340437
Zn9	Zn	1.805489	0.052003	0.263807
O10	O	1.690859	0.258699	0.561954
C11	C	1.484461	0.144590	0.300621
C12	C	1.316803	0.128259	0.289531
N13	N	1.660980	0.454698	0.392734
C14	C	2.000159	0.842722	0.090080
C15	C	2.041173	0.728378	0.053477
C16	C	1.946128	0.659952	0.138287
C17	C	1.810062	0.705883	0.259709
C18	C	1.769051	0.820239	0.296325
C19	C	1.715020	0.637469	0.344532
C20	C	1.578954	0.683400	0.465954
C21	C	1.537949	0.797745	0.502563
C22	C	1.632995	0.866171	0.417752
C23	C	1.756031	0.523113	0.307916
C24	C	1.524923	0.500630	0.514161
C25	C	1.483909	0.614975	0.550765
C26	C	2.040620	0.198760	0.303622
C27	C	2.208281	0.215083	0.314710
N28	N	1.864103	0.888654	0.211507
C29	C	1.807548	0.176059	0.012121
C30	C	1.825183	0.177770	-0.164426
C31	C	1.717534	0.167291	0.592122
C32	C	1.699901	0.165572	0.768667
H33	H	1.281457	0.041426	0.259475
H34	H	1.243636	0.301922	0.344757
H35	H	1.579153	0.153814	-0.153552
H36	H	1.866816	0.485727	0.209055
F37	F	1.423766	0.427811	0.604435
F38	F	1.989780	0.538256	0.099326
F39	F	2.185978	0.679498	-0.075741
H40	H	1.945935	0.189541	-0.242212
F41	F	2.101309	0.915548	-0.000157
F42	F	1.589339	0.987871	0.456703
F43	F	1.393150	0.846630	0.631806
H44	H	1.373121	0.652386	0.649630
