data_functionalizedCrystal
_audit_creation_method	'MofGen! by Chris Wilmer'
_symmetry_space_group_name_H-M	'P1'
_symmetry_Int_Tables_number	1
_symmetry_cell_setting	triclinic
loop_
_symmetry_equiv_pos_as_xyz
  x,y,z
_cell_length_a	17.699097
_cell_length_b	17.699092
_cell_length_c	18.366186
_cell_angle_alpha	89.995439
_cell_angle_beta	89.987358
_cell_angle_gamma	83.287399
loop_
_atom_site_label
_atom_site_type_symbol
_atom_site_fract_x
_atom_site_fract_y
_atom_site_fract_z
O1	O	1.004077	0.095760	-0.060607
O2	O	1.337410	0.429093	0.272726
O3	O	1.670744	0.762426	0.606059
O4	O	0.783701	0.108202	-0.060595
O5	O	1.117034	0.441535	0.272738
O6	O	1.450367	0.774868	0.606071
O7	O	0.900112	-0.008208	-0.060600
O8	O	1.233445	0.325126	0.272733
O9	O	1.566778	0.658459	0.606067
O10	O	0.887666	0.212169	-0.060603
O11	O	1.220999	0.545502	0.272731
O12	O	1.554333	0.878836	0.606064
O13	O	0.900092	-0.008214	0.060499
O14	O	1.233425	0.325120	0.393833
O15	O	1.566759	0.658453	0.727166
O16	O	0.783681	0.108196	0.060504
O17	O	1.117014	0.441529	0.393837
O18	O	1.450347	0.774863	0.727171
O19	O	1.004057	0.095754	0.060492
O20	O	1.337391	0.429087	0.393825
O21	O	1.670724	0.762421	0.727159
Zn22	Zn	0.893866	0.101974	0.079725
Zn23	Zn	1.227199	0.435307	0.413059
Zn24	Zn	1.560533	0.768641	0.746392
Zn25	Zn	0.893892	0.101982	-0.079828
Zn26	Zn	1.227225	0.435315	0.253505
Zn27	Zn	1.560559	0.768648	0.586838
O28	O	0.887646	0.212163	0.060497
O29	O	1.220979	0.545497	0.393830
O30	O	1.554313	0.878830	0.727163
C31	C	0.755494	0.107751	-0.000044
C32	C	1.088827	0.441085	0.333289
C33	C	1.422160	0.774418	0.666623
C34	C	0.671476	0.106409	-0.000039
C35	C	1.004810	0.439742	0.333294
C36	C	1.338143	0.773075	0.666627
C37	C	0.899655	-0.036408	-0.000051
C38	C	1.232988	0.296926	0.333282
C39	C	1.566322	0.630259	0.666615
C40	C	0.898314	-0.120425	-0.000055
C41	C	1.231647	0.212908	0.333279
C42	C	1.564980	0.546241	0.666612
C43	C	0.155768	0.098182	-0.066080
C44	C	0.489102	0.431516	0.267253
C45	C	0.822435	0.764849	0.600587
C46	C	0.234713	0.099439	-0.066076
C47	C	0.568046	0.432772	0.267257
C48	C	0.901379	0.766105	0.600590
C49	C	0.274168	0.100065	-0.000062
C50	C	0.607501	0.433398	0.333271
C51	C	0.940835	0.766732	0.666604
C52	C	0.234676	0.099427	0.065953
C53	C	0.568009	0.432760	0.399286
C54	C	0.901343	0.766094	0.732619
C55	C	0.155734	0.098165	0.065948
C56	C	0.489067	0.431499	0.399282
C57	C	0.822401	0.764832	0.732615
C58	C	0.553040	0.104515	0.065972
C59	C	0.886373	0.437848	0.399305
C60	C	1.219707	0.771181	0.732639
C61	C	0.631987	0.105779	0.065971
C62	C	0.965321	0.439112	0.399305
C63	C	1.298654	0.772445	0.732638
C64	C	0.632019	0.105788	-0.066053
C65	C	0.965352	0.439121	0.267280
C66	C	1.298686	0.772454	0.600614
C67	C	0.553077	0.104526	-0.066057
C68	C	0.886410	0.437859	0.267276
C69	C	1.219744	0.771193	0.600609
C70	C	0.513592	0.103884	-0.000043
C71	C	0.846926	0.437218	0.333290
C72	C	1.180259	0.770551	0.666624
C73	C	0.427992	0.102521	-0.000048
C74	C	0.761326	0.435854	0.333286
C75	C	1.094659	0.769187	0.666619
C76	C	0.359766	0.101434	-0.000057
C77	C	0.693099	0.434767	0.333277
C78	C	1.026432	0.768101	0.666610
C79	C	0.897696	-0.159890	-0.066067
C80	C	1.231030	0.173444	0.267267
C81	C	1.564363	0.506777	0.600600
C82	C	0.896431	-0.238833	-0.066068
C83	C	1.229765	0.094501	0.267266
C84	C	1.563098	0.427834	0.600599
C85	C	0.895789	-0.278311	-0.000055
C86	C	1.229123	0.055023	0.333278
C87	C	1.562456	0.388356	0.666611
C88	C	0.896405	-0.238841	0.065962
C89	C	1.229738	0.094493	0.399295
C90	C	1.563071	0.427826	0.732628
C91	C	0.897664	-0.159898	0.065962
C92	C	1.230998	0.173435	0.399295
C93	C	1.564331	0.506768	0.732628
C94	C	0.891324	-0.557206	0.065963
C95	C	1.224658	-0.223872	0.399296
C96	C	1.557991	0.109461	0.732630
C97	C	0.890067	-0.636154	0.065958
C98	C	1.223400	-0.302821	0.399291
C99	C	1.556734	0.030513	0.732625
C100	C	0.890092	-0.636140	-0.066066
C101	C	1.223425	-0.302807	0.267267
C102	C	1.556758	0.030526	0.600600
C103	C	0.891351	-0.557198	-0.066066
C104	C	1.224684	-0.223865	0.267267
C105	C	1.558018	0.109469	0.600600
C106	C	0.891962	-0.517734	-0.000050
C107	C	1.225296	-0.184401	0.333284
C108	C	1.558629	0.148932	0.666617
C109	C	0.893332	-0.432135	-0.000049
C110	C	1.226666	-0.098802	0.333284
C111	C	1.559999	0.234532	0.666617
C112	C	0.894425	-0.363909	-0.000055
C113	C	1.227758	-0.030576	0.333279
C114	C	1.561091	0.302758	0.666612
C115	C	1.032264	0.096204	-0.000061
C116	C	1.365597	0.429538	0.333272
C117	C	1.698931	0.762871	0.666606
C118	C	1.116282	0.097547	-0.000070
C119	C	1.449615	0.430880	0.333263
C120	C	1.782948	0.764214	0.666596
C121	C	0.888103	0.240363	-0.000053
C122	C	1.221436	0.573697	0.333280
C123	C	1.554770	0.907030	0.666613
C124	C	0.889444	0.324381	-0.000055
C125	C	1.222777	0.657714	0.333278
C126	C	1.556111	0.991048	0.666612
N127	N	0.893854	0.101968	0.188616
N128	N	1.227187	0.435302	0.521950
N129	N	1.560520	0.768635	0.855283
N130	N	0.893910	0.101981	-0.188720
N131	N	1.227244	0.435315	0.144614
N132	N	1.560577	0.768648	0.477947
C133	C	0.945417	0.050448	0.226715
C134	C	1.278751	0.383781	0.560048
C135	C	1.612084	0.717114	0.893381
C136	C	0.945422	0.050444	0.302942
C137	C	1.278756	0.383778	0.636276
C138	C	1.612089	0.717111	0.969609
C139	C	0.893871	0.101975	0.341069
C140	C	1.227204	0.435308	0.674402
C141	C	1.560537	0.768641	1.007736
C142	C	0.842297	0.153499	0.302962
C143	C	1.175630	0.486833	0.636295
C144	C	1.508964	0.820166	0.969628
C145	C	0.842289	0.153496	0.226735
C146	C	1.175622	0.486830	0.560069
C147	C	1.508955	0.820163	0.893402
C148	C	0.883830	0.170923	0.461829
C149	C	1.217163	0.504256	0.795162
C150	C	1.550496	0.837590	1.128496
C151	C	0.883843	0.170927	0.538054
C152	C	1.217177	0.504260	0.871387
C153	C	1.550510	0.837594	1.204721
C154	C	0.893892	0.101984	0.576177
C155	C	1.227225	0.435318	0.909510
C156	C	1.560559	0.768651	1.242843
C157	C	0.903943	0.033034	0.538065
C158	C	1.237276	0.366367	0.871398
C159	C	1.570610	0.699701	1.204732
C160	C	0.903935	0.033031	0.461839
C161	C	1.237268	0.366364	0.795172
C162	C	1.570601	0.699698	1.128505
C163	C	0.893874	0.101983	0.423724
C164	C	1.227207	0.435317	0.757057
C165	C	1.560540	0.768650	1.090390
C166	C	0.945464	0.050455	0.696930
C167	C	1.278797	0.383789	1.030263
C168	C	1.612130	0.717122	1.363596
C169	C	0.945463	0.050451	0.773159
C170	C	1.278797	0.383784	1.106492
C171	C	1.612130	0.717118	1.439826
C172	C	0.842342	0.153513	0.773177
C173	C	1.175675	0.486846	1.106510
C174	C	1.509008	0.820179	1.439843
C175	C	0.842339	0.153511	0.696949
C176	C	1.175672	0.486844	1.030282
C177	C	1.509005	0.820177	1.363616
C178	C	0.893904	0.101983	0.658830
C179	C	1.227237	0.435316	0.992163
C180	C	1.560570	0.768649	1.325497
H181	H	0.123649	0.097678	-0.119837
H182	H	0.456982	0.431011	0.213497
H183	H	0.790316	0.764345	0.546830
H184	H	0.891837	-0.525086	0.119718
H185	H	1.225171	-0.191753	0.453051
H186	H	1.558504	0.141581	0.786385
H187	H	0.800322	0.195455	0.334008
H188	H	1.133655	0.528788	0.667341
H189	H	1.466988	0.862122	1.000675
H190	H	0.520956	0.104020	-0.119813
H191	H	0.854289	0.437353	0.213520
H192	H	1.187622	0.770687	0.546854
Br193	Br	1.015441	-0.019482	0.824868
Br194	Br	1.348775	0.313851	1.158202
Br195	Br	1.682108	0.647185	1.491535
H196	H	0.800364	0.195467	0.804219
H197	H	1.133698	0.528800	1.137552
H198	H	1.467031	0.862134	1.470886
H199	H	0.266807	0.099932	0.119703
H200	H	0.600141	0.433266	0.453036
H201	H	0.933474	0.766599	0.786369
H202	H	0.800354	0.195467	0.665927
H203	H	1.133687	0.528800	0.999261
H204	H	1.467020	0.862133	1.332594
Br205	Br	0.917591	-0.060538	0.589793
Br206	Br	1.250924	0.272795	0.923126
Br207	Br	1.584257	0.606129	1.256459
Br208	Br	0.499461	0.103664	0.155563
Br209	Br	0.832794	0.436997	0.488896
Br210	Br	1.166128	0.770330	0.822230
Br211	Br	0.288300	0.100294	-0.155665
Br212	Br	0.621634	0.433628	0.177668
Br213	Br	0.954967	0.766961	0.511001
Br214	Br	0.102145	0.097292	0.155537
Br215	Br	0.435478	0.430626	0.488870
Br216	Br	0.768812	0.763959	0.822203
H217	H	0.895877	-0.270989	0.119710
H218	H	1.229211	0.062344	0.453043
H219	H	1.562544	0.395677	0.786376
Br220	Br	0.889262	-0.689702	-0.155662
Br221	Br	1.222595	-0.356369	0.177671
Br222	Br	1.555929	-0.023036	0.511004
Br223	Br	0.685610	0.106655	-0.155646
Br224	Br	1.018943	0.439989	0.177687
Br225	Br	1.352276	0.773322	0.511021
Br226	Br	0.898576	-0.106321	-0.155660
Br227	Br	1.231909	0.227012	0.177674
Br228	Br	1.565242	0.560345	0.511007
H229	H	0.664110	0.106288	0.119731
H230	H	0.997443	0.439622	0.453065
H231	H	1.330776	0.772955	0.786398
H232	H	0.875664	0.227070	0.569078
H233	H	1.208997	0.560403	0.902412
H234	H	1.542331	0.893737	1.235745
H235	H	0.889542	-0.668294	0.119716
H236	H	1.222876	-0.334961	0.453049
H237	H	1.556209	-0.001628	0.786383
Br238	Br	1.015407	-0.019484	0.354657
Br239	Br	1.348740	0.313849	0.687990
Br240	Br	1.682073	0.647183	1.021323
Br241	Br	0.917567	-0.060539	0.410117
Br242	Br	1.250901	0.272795	0.743451
Br243	Br	1.584234	0.606128	1.076784
Br244	Br	0.895592	-0.292389	-0.155659
Br245	Br	1.228926	0.040945	0.177674
Br246	Br	1.562259	0.374278	0.511007
H247	H	0.891877	-0.525059	-0.119820
H248	H	1.225211	-0.191726	0.213513
H249	H	1.558544	0.141607	0.546847
Br250	Br	0.898498	-0.106338	0.155553
Br251	Br	1.231831	0.226996	0.488886
Br252	Br	1.565165	0.560329	0.822220
H253	H	0.987403	0.008489	0.195680
H254	H	1.320736	0.341822	0.529014
H255	H	1.654070	0.675156	0.862347
Br256	Br	0.870267	0.264499	0.410099
Br257	Br	1.203601	0.597832	0.743432
Br258	Br	1.536934	0.931166	1.076765
H259	H	0.987449	0.008496	0.665892
H260	H	1.320782	0.341829	0.999226
H261	H	1.654116	0.675163	1.332559
H262	H	0.800298	0.195451	0.195715
H263	H	1.133632	0.528785	0.529048
H264	H	1.466965	0.862118	0.862382
