data_functionalizedCrystal
_audit_creation_method	'MofGen! by Chris Wilmer'
_symmetry_space_group_name_H-M	'P1'
_symmetry_Int_Tables_number	1
_symmetry_cell_setting	triclinic
loop_
_symmetry_equiv_pos_as_xyz
  x,y,z
_cell_length_a	12.759395
_cell_length_b	13.897448
_cell_length_c	13.897441
_cell_angle_alpha	90.030599
_cell_angle_beta	90.019501
_cell_angle_gamma	90.019229
loop_
_atom_site_label
_atom_site_type_symbol
_atom_site_fract_x
_atom_site_fract_y
_atom_site_fract_z
Zn1	Zn	1.606236	-0.383945	0.545349
Zn2	Zn	1.606121	-0.545266	0.384051
Zn3	Zn	1.430538	-0.383991	0.384071
Zn4	Zn	1.430518	-0.545204	0.545307
O5	O	1.518353	-0.464601	0.464695
O6	O	1.753242	-0.405351	0.523962
O7	O	1.582789	-0.523919	0.249072
O8	O	1.453901	-0.249003	0.405492
O9	O	1.753157	-0.523873	0.405457
O10	O	1.582986	-0.248969	0.523982
O11	O	1.453789	-0.405430	0.249087
O12	O	1.283514	-0.405370	0.405450
O13	O	1.453867	-0.523767	0.680294
O14	O	1.283499	-0.523812	0.523909
O15	O	1.582967	-0.405290	0.680326
O16	O	1.582770	-0.680240	0.405415
O17	O	1.453755	-0.680194	0.523890
C18	C	1.245386	-0.464590	0.464678
C19	C	1.128609	-0.464608	0.464694
C20	C	1.128632	-0.588141	0.587846
C21	C	1.073783	-0.649915	0.649424
C22	C	0.964062	-0.649927	0.649436
C23	C	0.909187	-0.588156	0.587865
C24	C	0.964036	-0.526382	0.526286
C25	C	1.073760	-0.526379	0.526279
C26	C	0.964012	-0.402845	0.403141
C27	C	1.073734	-0.402837	0.403122
C28	C	0.909137	-0.341074	0.341569
C29	C	0.963987	-0.279303	0.279984
C30	C	1.073715	-0.279295	0.279974
C31	C	1.128583	-0.341063	0.341544
C32	C	1.518277	-0.715216	0.464667
C33	C	1.518340	-0.822430	0.464687
C34	C	1.518450	-1.018725	0.464748
C35	C	1.518386	-0.909492	0.464717
C36	C	1.792387	-0.464614	0.464712
C37	C	1.909163	-0.464619	0.464719
C38	C	1.518428	-0.464516	0.716288
C39	C	1.518459	-0.464480	0.823502
C40	C	1.518459	-0.213008	0.464744
C41	C	1.518504	-0.105795	0.464765
C42	C	1.518339	-0.464617	0.214080
C43	C	1.518511	-0.464381	0.106867
C44	C	1.518488	-0.464415	1.019797
C45	C	1.518469	-0.464454	0.910564
H46	H	1.217973	-0.588145	0.587835
H47	H	0.919299	-0.229010	0.229862
Br48	Br	1.148259	-0.733749	0.732977
Br49	Br	0.889619	-0.733755	0.733016
Br50	Br	0.760278	-0.588156	0.587899
H51	H	0.819796	-0.341084	0.341587
Br52	Br	1.277492	-0.341063	0.341528
Br53	Br	1.148144	-0.195445	0.196406
