data_functionalizedCrystal
_audit_creation_method	'MofGen! by Chris Wilmer'
_symmetry_space_group_name_H-M	'P1'
_symmetry_Int_Tables_number	1
_symmetry_cell_setting	triclinic
loop_
_symmetry_equiv_pos_as_xyz
  x,y,z
_cell_length_a	15.995343
_cell_length_b	12.837942
_cell_length_c	11.892095
_cell_angle_alpha	85.697431
_cell_angle_beta	86.105349
_cell_angle_gamma	90.840938
loop_
_atom_site_label
_atom_site_type_symbol
_atom_site_fract_x
_atom_site_fract_y
_atom_site_fract_z
O1	O	1.126466	-0.126960	-0.093888
O2	O	1.626466	0.373040	0.406112
O3	O	0.884009	-0.143467	-0.093915
O4	O	1.384009	0.356533	0.406085
O5	O	0.999861	0.015689	-0.093895
O6	O	1.499861	0.515689	0.406105
O7	O	1.010614	-0.286116	-0.093908
O8	O	1.510614	0.213884	0.406092
O9	O	0.990200	0.002439	0.094111
O10	O	1.490200	0.502439	0.594111
O11	O	0.874348	-0.156717	0.094091
O12	O	1.374348	0.343283	0.594091
O13	O	1.116805	-0.140210	0.094118
O14	O	1.616805	0.359790	0.594118
Zn15	Zn	0.994043	-0.150567	0.123954
Zn16	Zn	1.494043	0.349433	0.623954
Zn17	Zn	1.006772	-0.133110	-0.123751
Zn18	Zn	1.506772	0.366890	0.376249
O19	O	1.000953	-0.299365	0.094098
O20	O	1.500953	0.200635	0.594098
C21	C	0.847929	-0.149410	0.000085
C22	C	1.347929	0.350590	0.500085
C23	C	0.754816	-0.147368	0.000074
C24	C	1.254816	0.352632	0.500074
C25	C	0.584333	-0.143663	0.000090
C26	C	1.084333	0.356337	0.500090
C27	C	0.551821	-0.028776	0.000094
C28	C	1.051821	0.471224	0.500094
C29	C	0.454948	-0.026645	0.000528
C30	C	0.954948	0.473355	0.500528
C31	C	0.416481	-0.140013	0.000104
C32	C	0.916481	0.359987	0.500104
C33	C	0.444676	-0.205331	0.107248
C34	C	0.944676	0.294669	0.607248
C35	C	0.541573	-0.206700	0.107331
C36	C	1.041573	0.293300	0.607331
C37	C	0.552605	-0.193314	-0.106474
C38	C	1.052605	0.306686	0.393526
C39	C	0.455843	-0.188974	-0.107875
C40	C	0.955843	0.311026	0.392125
C41	C	0.321618	-0.137957	0.000115
C42	C	0.821618	0.362043	0.500115
C43	C	0.679196	-0.145723	0.000086
C44	C	1.179196	0.354277	0.500086
C45	C	0.991398	0.047684	0.000107
C46	C	1.491398	0.547684	0.500107
C47	C	0.980565	0.162761	0.000104
C48	C	1.480565	0.662761	0.500104
C49	C	1.152885	-0.134266	0.000116
C50	C	1.652885	0.365734	0.500116
C51	C	1.245998	-0.136308	0.000119
C52	C	1.745998	0.363692	0.500119
C53	C	1.009416	-0.331361	0.000094
C54	C	1.509416	0.168639	0.500094
C55	C	1.020250	-0.446437	0.000089
C56	C	1.520250	0.053563	0.500089
N57	N	0.985361	-0.162480	0.293007
N58	N	1.485361	0.337520	0.793007
C59	C	1.110803	0.403725	0.000095
C60	C	1.610803	0.903725	0.500095
C61	C	1.100628	0.511850	0.000092
C62	C	1.600628	1.011850	0.500092
C63	C	0.950041	0.487141	0.000087
C64	C	1.450041	0.987141	0.500087
C65	C	0.960216	0.379015	0.000090
C66	C	1.460216	0.879015	0.500090
C67	C	1.040600	0.337311	0.000095
C68	C	1.540600	0.837311	0.500095
C69	C	1.050773	0.229183	0.000107
C70	C	1.550773	0.729183	0.500107
C71	C	0.900187	0.204476	0.000093
C72	C	1.400187	0.704476	0.500093
C73	C	0.890013	0.312602	0.000090
C74	C	1.390013	0.812602	0.500090
N75	N	1.015459	-0.121188	-0.292804
N76	N	1.515459	0.378812	0.207196
C77	C	1.075861	-0.038231	0.529670
C78	C	1.575861	0.461769	1.029670
C79	C	1.069800	-0.046566	0.648011
C80	C	1.569800	0.453434	1.148011
C81	C	0.967173	-0.187479	0.648032
C82	C	1.467173	0.312521	1.148032
C83	C	0.973235	-0.179144	0.529691
C84	C	1.473235	0.320856	1.029691
C85	C	1.027581	-0.104519	0.470514
C86	C	1.527581	0.395481	0.970514
C87	C	1.033647	-0.096190	0.352171
C88	C	1.533647	0.403810	0.852171
C89	C	0.931016	-0.237097	0.352194
C90	C	1.431016	0.262903	0.852194
C91	C	0.924955	-0.245432	0.470535
C92	C	1.424955	0.254568	0.970535
H93	H	0.429838	-0.271236	-0.114681
H94	H	0.929838	0.228764	0.385319
Cl95	Cl	0.811926	0.120977	0.000109
Cl96	Cl	1.311926	0.620977	0.500109
Cl97	Cl	0.870325	-0.320440	0.277816
Cl98	Cl	1.370325	0.179560	0.777816
Cl99	Cl	0.414802	0.034413	0.119825
Cl100	Cl	0.914802	0.534413	0.619825
H101	H	0.884597	0.521117	0.000070
H102	H	1.384597	1.021117	0.500070
H103	H	0.824567	0.346573	0.000081
H104	H	1.324567	0.846573	0.500081
H105	H	0.562633	-0.291272	0.111910
H106	H	1.062633	0.208728	0.611910
Cl107	Cl	1.101969	-0.002378	0.277780
Cl108	Cl	1.601969	0.497622	0.777780
H109	H	1.120119	0.022525	0.481488
H110	H	1.620119	0.522525	0.981488
Cl111	Cl	0.402428	-0.152848	0.230833
Cl112	Cl	0.902428	0.347152	0.730833
Cl113	Cl	1.130496	0.036774	0.722376
Cl114	Cl	1.630496	0.536774	1.222376
H115	H	0.436267	0.023986	-0.076262
H116	H	0.936267	0.523986	0.423738
Cl117	Cl	0.428326	-0.115379	-0.230261
Cl118	Cl	0.928326	0.384621	0.269739
Cl119	Cl	0.595671	0.048342	-0.118514
Cl120	Cl	1.095671	0.548342	0.381486
Cl121	Cl	0.898846	-0.281278	0.722437
Cl122	Cl	1.398846	0.218722	1.222437
H123	H	0.880704	-0.306188	0.518730
H124	H	1.380704	0.193812	1.018730
Cl125	Cl	0.598228	-0.128510	-0.231900
Cl126	Cl	1.098228	0.371490	0.268100
Cl127	Cl	0.405499	-0.334585	0.112937
Cl128	Cl	0.905499	0.165415	0.612937
Cl129	Cl	1.188888	0.595339	0.000087
Cl130	Cl	1.688888	1.095339	0.500087
H131	H	0.573368	0.009623	0.076818
H132	H	1.073368	0.509623	0.576818
H133	H	0.561072	-0.172827	0.187732
H134	H	1.061072	0.327173	0.687732
H135	H	1.116225	0.195230	0.000115
H136	H	1.616225	0.695230	0.500115
Cl137	Cl	0.584701	-0.323777	-0.108045
Cl138	Cl	1.084701	0.176223	0.391955
H139	H	1.176254	0.369768	0.000110
H140	H	1.676254	0.869768	0.500110
