data_functionalizedCrystal
_audit_creation_method	'MofGen! by Chris Wilmer'
_symmetry_space_group_name_H-M	'P1'
_symmetry_Int_Tables_number	1
_symmetry_cell_setting	triclinic
loop_
_symmetry_equiv_pos_as_xyz
  x,y,z
_cell_length_a	14.853567
_cell_length_b	13.330367
_cell_length_c	14.853559
_cell_angle_alpha	89.997552
_cell_angle_beta	83.633192
_cell_angle_gamma	89.994807
loop_
_atom_site_label
_atom_site_type_symbol
_atom_site_fract_x
_atom_site_fract_y
_atom_site_fract_z
O1	O	1.196365	-0.083364	0.117704
O2	O	0.933905	-0.083377	0.131725
O3	O	1.072150	-0.083369	-0.006515
O4	O	1.058121	-0.083372	0.255945
O5	O	1.072130	0.083478	-0.006519
O6	O	0.933885	0.083470	0.131722
O7	O	1.196345	0.083484	0.117701
Cu8	Cu	1.065113	0.098711	0.124711
Cu9	Cu	1.065137	-0.098605	0.124715
O10	O	1.058100	0.083475	0.255942
C11	C	0.900307	0.000045	0.131089
C12	C	0.800223	0.000039	0.129185
N13	N	1.065103	0.237493	0.124708
C14	C	1.071506	0.000053	-0.040106
C15	C	1.069605	0.000047	-0.140190
C16	C	1.229944	0.000060	0.118338
C17	C	1.330027	0.000058	0.120242
C18	C	1.742559	0.000040	0.210408
C19	C	1.763845	0.000042	0.046174
C20	C	1.669811	0.000047	0.044384
C21	C	1.612147	0.000048	0.125607
C22	C	1.648516	0.000042	0.208620
C23	C	1.633434	0.000043	-0.038627
C24	C	1.539395	0.000047	-0.040421
C25	C	1.481729	0.000054	0.040803
C26	C	1.518104	0.000050	0.123819
C27	C	1.460440	0.000050	0.205042
C28	C	1.496812	0.000053	0.288060
C29	C	1.590850	0.000050	0.289844
C30	C	1.387692	0.000058	0.039019
C31	C	1.366397	0.000053	0.203255
N32	N	1.065154	-0.237386	0.124711
C33	C	1.003920	0.710112	0.185904
C34	C	1.126379	0.710087	0.063519
C35	C	1.126369	0.605069	0.063516
C36	C	1.065134	0.552567	0.124709
C37	C	1.003909	0.605084	0.185905
C38	C	1.187598	0.552544	0.002328
C39	C	1.187591	0.447520	0.002323
C40	C	1.126351	0.395016	0.063513
C41	C	1.065124	0.447539	0.124710
C42	C	1.003889	0.395038	0.185903
C43	C	0.942656	0.447559	0.247097
C44	C	0.942670	0.552580	0.247094
C45	C	1.126338	0.289994	0.063515
C46	C	1.003879	0.290009	0.185904
C47	C	1.061552	-0.090902	-0.563363
C48	C	1.061530	0.091001	-0.563361
C49	C	1.063323	0.091002	-0.469328
C50	C	1.064230	0.000050	-0.422308
C51	C	1.063343	-0.090904	-0.469321
C52	C	1.064201	0.181954	-0.422307
C53	C	1.065994	0.181959	-0.328268
C54	C	1.066907	0.091005	-0.281247
C55	C	1.066021	0.000048	-0.328266
C56	C	1.066927	-0.090905	-0.281245
C57	C	1.066047	-0.181863	-0.328264
C58	C	1.064256	-0.181857	-0.422300
C59	C	1.068698	0.091000	-0.187210
C60	C	1.068718	-0.090906	-0.187203
C61	C	1.058745	0.000052	0.289532
C62	C	1.060646	0.000051	0.389616
H63	H	1.319452	0.000059	0.269397
H64	H	1.237449	0.404763	-0.047505
C65	C	1.782559	0.000039	0.301722
H66	H	1.734746	0.000044	0.349836
H67	H	1.818807	-0.058143	0.305836
H68	H	1.818793	0.058231	0.305834
C69	C	0.875293	0.610350	0.314374
H70	H	0.838806	0.564043	0.350805
H71	H	0.907740	0.651328	0.351975
H72	H	0.837745	0.651311	0.281836
H73	H	1.060786	0.165051	-0.601650
H74	H	1.176197	0.247236	0.013696
H75	H	1.449850	0.000048	0.354191
H76	H	1.620473	0.000050	0.357432
C77	C	1.827271	0.000043	-0.043163
H78	H	1.888486	0.000046	-0.030209
H79	H	1.816238	-0.058135	-0.077201
H80	H	1.816232	0.058239	-0.077192
C81	C	0.936572	0.767879	0.253215
H82	H	0.945347	0.837946	0.244457
H83	H	0.876394	0.750677	0.243316
H84	H	0.946439	0.750662	0.313405
C85	C	1.696859	0.000025	-0.127966
H86	H	1.661731	0.000010	-0.177662
H87	H	1.733987	0.058204	-0.130692
H88	H	1.733984	-0.058169	-0.130667
C89	C	1.254951	0.610295	-0.064976
H90	H	1.246179	0.680364	-0.056218
H91	H	1.315127	0.593076	-0.055074
H92	H	1.245086	0.593088	-0.125168
H93	H	1.060839	-0.164958	-0.601650
H94	H	1.509789	0.000046	-0.108018
H95	H	1.176239	0.752837	0.013702
H96	H	1.066713	0.256022	-0.289994
H97	H	1.063539	-0.255911	-0.460590
C98	C	1.069664	0.191040	-0.135494
H99	H	1.068869	0.245207	-0.176966
H100	H	1.017832	0.194813	-0.091996
H101	H	1.122902	0.194827	-0.105626
H102	H	1.358081	0.000049	-0.028573
H103	H	0.954011	0.247269	0.235732
H104	H	0.892802	0.404800	0.296925
C105	C	1.069714	-0.190956	-0.135488
H106	H	1.068927	-0.245121	-0.176959
H107	H	1.122941	-0.194735	-0.105610
H108	H	1.017872	-0.194742	-0.091996
H109	H	1.066779	-0.255916	-0.289967
C110	C	1.063212	0.281992	-0.474029
H111	H	1.062034	0.268964	-0.536769
H112	H	1.010971	0.319367	-0.451816
H113	H	1.116041	0.319358	-0.465426
