data_functionalizedCrystal
_audit_creation_method	'MofGen! by Chris Wilmer'
_symmetry_space_group_name_H-M	'P1'
_symmetry_Int_Tables_number	1
_symmetry_cell_setting	triclinic
loop_
_symmetry_equiv_pos_as_xyz
  x,y,z
_cell_length_a	33.510554
_cell_length_b	33.509711
_cell_length_c	33.506470
_cell_angle_alpha	60.004186
_cell_angle_beta	60.008358
_cell_angle_gamma	59.994760
loop_
_atom_site_label
_atom_site_type_symbol
_atom_site_fract_x
_atom_site_fract_y
_atom_site_fract_z
O1	O	0.055430	-0.583081	0.487524
O2	O	0.020931	-0.453975	0.392819
O3	O	0.102693	-0.535652	0.392731
O4	O	-0.026332	-0.501404	0.487613
O5	O	0.129823	-0.508526	0.419767
O6	O	0.048062	-0.426850	0.419856
O7	O	0.082561	-0.555956	0.514561
Cu8	Cu	0.067789	-0.488926	0.469677
Cu9	Cu	0.035703	-0.521005	0.437703
O10	O	0.000799	-0.474279	0.514649
N11	N	0.090357	-0.466366	0.492168
N12	N	0.013139	-0.543569	0.415212
C13	C	0.143028	-0.279707	0.544737
C14	C	0.143165	-0.413746	0.678712
C15	C	0.143043	-0.413725	0.544739
C16	C	0.277090	-0.413694	0.544637
C17	C	0.157791	-0.323929	0.559462
C18	C	0.157869	-0.398994	0.634489
C19	C	0.232865	-0.398963	0.559407
C20	C	0.157801	-0.398982	0.559463
C21	C	0.124237	-0.223419	0.525994
C22	C	0.124262	-0.432490	0.525997
C23	C	0.176583	-0.380217	0.578205
C24	C	0.358938	-0.399566	0.501510
C25	C	0.410104	-0.416609	0.484423
C26	C	0.410135	-0.499402	0.515995
C27	C	0.358969	-0.482358	0.533084
C28	C	0.136554	-0.197822	0.475693
C29	C	0.119469	-0.146653	0.458657
C30	C	0.077755	-0.146680	0.542223
C31	C	0.094840	-0.197850	0.559260
C32	C	0.073954	-0.420144	0.538396
C33	C	0.056884	-0.437203	0.521352
C34	C	0.140427	-0.478952	0.479524
C35	C	0.157498	-0.461894	0.496561
C36	C	0.074158	-0.420182	0.760618
C37	C	0.057149	-0.437256	0.811786
C38	C	0.140732	-0.479014	0.811717
C39	C	0.157740	-0.461942	0.760547
C40	C	0.124452	-0.432525	0.734999
C41	C	0.333372	-0.432439	0.525839
C42	C	-0.020612	-0.577650	0.170305
C43	C	-0.020943	-0.788098	0.380897
C44	C	-0.020912	-0.577638	0.380991
C45	C	-0.231336	-0.577418	0.380585
C46	C	-0.129735	-0.611383	0.346870
C47	C	-0.054722	-0.611464	0.347017
C48	C	-0.073450	-0.630202	0.328195
C49	C	-0.087616	-0.712029	0.371239
C50	C	-0.070599	-0.763199	0.388315
C51	C	0.012191	-0.763282	0.356872
C52	C	-0.004828	-0.712113	0.339795
C53	C	-0.155381	-0.623711	0.397158
C54	C	-0.206547	-0.606601	0.414133
C55	C	-0.206417	-0.564839	0.330529
C56	C	-0.155251	-0.581949	0.313554
C57	C	-0.067051	-0.561160	0.334643
C58	C	-0.050026	-0.544131	0.351759
C59	C	-0.008343	-0.627704	0.393612
C60	C	-0.025368	-0.644736	0.376502
C61	C	-0.066922	-0.561168	0.246303
C62	C	-0.049794	-0.544141	0.195134
C63	C	-0.008048	-0.627719	0.195183
C64	C	-0.025175	-0.644745	0.246352
C65	C	-0.054614	-0.611468	0.271911
C66	C	-0.054732	-0.686488	0.346980
C67	C	-0.002117	-0.558258	0.114025
C68	C	-0.002879	-0.844379	0.399940
C69	C	-0.002504	-0.558243	0.399473
C70	C	-0.287615	-0.558285	0.398601
N71	N	0.434975	-0.466279	0.491900
O72	O	0.591199	-0.470749	0.375150
O73	O	0.591395	-0.565767	0.504116
O74	O	0.591311	-0.565550	0.422329
O75	O	0.591283	-0.470966	0.456937
O76	O	0.510024	-0.538522	0.449509
O77	O	0.510108	-0.538739	0.531297
O78	O	0.509913	-0.443721	0.402330
Cu79	Cu	0.502588	-0.488762	0.469295
Cu80	Cu	0.598719	-0.520726	0.437151
O81	O	0.509997	-0.443938	0.484117
N82	N	0.666332	-0.543209	0.414541
N83	N	0.090323	-0.121809	0.492157
O84	O	-0.026342	0.034503	0.487582
O85	O	0.102626	0.034543	0.392540
O86	O	0.020797	0.034507	0.392812
O87	O	0.055487	0.034539	0.487310
O88	O	0.047933	-0.046785	0.419900
O89	O	0.129763	-0.046749	0.419628
O90	O	0.000794	-0.046789	0.514670
Cu91	Cu	0.067756	-0.054192	0.469623
Cu92	Cu	0.035664	0.041946	0.437588
O93	O	0.082623	-0.046753	0.514399
N94	N	0.013091	0.109564	0.415054
N95	N	0.090671	-0.466416	0.836606
O96	O	0.086120	-0.583065	0.992910
O97	O	-0.008880	-0.454051	0.992954
O98	O	-0.008658	-0.535864	0.992931
O99	O	0.085897	-0.501252	0.992933
O100	O	0.018407	-0.508749	0.911642
O101	O	0.018185	-0.426936	0.911665
O102	O	0.113185	-0.555949	0.911621
Cu103	Cu	0.068156	-0.488967	0.904221
Cu104	Cu	0.036148	-0.521034	1.000355
O105	O	0.112963	-0.474136	0.911644
N106	N	0.013633	-0.543590	1.067970
C107	C	0.031262	-0.424144	0.393290
C108	C	0.132513	-0.525291	0.393180
C109	C	0.072229	-0.585787	0.514090
C110	C	-0.029022	-0.484640	0.514200
C111	C	0.550775	-0.565338	0.533954
C112	C	0.550672	-0.565070	0.432670
C113	C	0.550530	-0.444149	0.372492
C114	C	0.550635	-0.444418	0.473776
C115	C	0.132408	-0.005998	0.392963
C116	C	0.031106	-0.006142	0.393333
C117	C	-0.029021	-0.006147	0.514213
C118	C	0.072314	-0.006104	0.513878
C119	C	-0.008430	-0.424240	0.952316
C120	C	-0.008150	-0.525550	0.952271
C121	C	0.112735	-0.585760	0.952260
C122	C	0.112461	-0.484444	0.952286
H123	H	0.047048	-0.396226	0.739820
H124	H	0.023675	-0.006147	0.363643
H125	H	0.079744	-0.006095	0.543566
H126	H	-0.038255	-0.387188	0.952329
O127	O	0.550772	-0.600563	0.423834
C128	C	0.592919	-0.681952	0.419241
C129	C	0.592874	-0.641794	0.429248
H130	H	0.626950	-0.715301	0.423625
H131	H	0.592901	-0.667653	0.380408
H132	H	0.558915	-0.692643	0.446317
H133	H	0.626872	-0.631086	0.402203
H134	H	0.592867	-0.656116	0.468094
H135	H	0.142166	-0.477036	0.952281
H136	H	0.169570	-0.532590	0.363385
H137	H	0.550467	-0.414317	0.335455
H138	H	0.169370	-0.005761	0.363053
O139	O	0.081093	-0.630066	0.549516
C140	C	0.139112	-0.710516	0.571992
C141	C	0.129136	-0.660397	0.531825
H142	H	0.177957	-0.735049	0.557708
H143	H	0.112060	-0.728170	0.582691
H144	H	0.134711	-0.705419	0.605331
H145	H	0.133543	-0.665451	0.498461
H146	H	0.156186	-0.642760	0.521168
O147	O	0.550602	-0.409016	0.482694
C148	C	0.550682	-0.386667	0.540736
C149	C	0.550708	-0.426799	0.530705
H150	H	0.550778	-0.401032	0.579548
H151	H	0.516626	-0.353323	0.536438
H152	H	0.584662	-0.375942	0.513629
H153	H	0.516751	-0.437565	0.557803
H154	H	0.584787	-0.460116	0.534987
O155	O	-0.073243	-0.006129	0.549746
C156	C	-0.153758	-0.006171	0.572517
C157	C	-0.103702	-0.006185	0.532232
H158	H	-0.178395	-0.006226	0.558375
H159	H	-0.171336	0.027863	0.583163
H160	H	-0.148587	-0.040178	0.605855
H161	H	-0.108830	0.027799	0.498868
H162	H	-0.086142	-0.040241	0.521627
O163	O	-0.043514	-0.534441	0.952208
C164	C	-0.065855	-0.592500	0.952162
C165	C	-0.025758	-0.582493	0.952222
H166	H	-0.051518	-0.631352	0.952184
H167	H	-0.076524	-0.565458	0.918128
H168	H	-0.099225	-0.588106	0.986167
H169	H	0.007638	-0.586894	0.918240
H170	H	-0.015131	-0.609533	0.986278
O171	O	0.148303	-0.629959	0.952178
C172	C	0.199996	-0.688803	0.910021
C173	C	0.159705	-0.638745	0.910060
H174	H	0.209233	-0.695918	0.875968
H175	H	0.186577	-0.718677	0.944011
H176	H	0.234031	-0.688856	0.910041
H177	H	0.125655	-0.638644	0.910023
H178	H	0.173164	-0.608893	0.876073
O179	O	0.008275	-0.425194	0.836592
C180	C	-0.072830	-0.381987	0.831254
C181	C	-0.017494	-0.395598	0.803101
H182	H	-0.093681	-0.358065	0.804188
H183	H	-0.082911	-0.361132	0.855197
H184	H	-0.082864	-0.416722	0.855224
H185	H	-0.007420	-0.360888	0.779104
H186	H	-0.007443	-0.416472	0.779188
H187	H	0.198696	-0.471996	0.739692
O188	O	0.173134	-0.507600	0.836459
C189	C	0.257832	-0.547199	0.830990
C190	C	0.221191	-0.514824	0.802909
H191	H	0.296695	-0.553041	0.803878
H192	H	0.251996	-0.584031	0.854927
H193	H	0.251927	-0.528460	0.854961
H194	H	0.227074	-0.533520	0.778912
H195	H	0.227037	-0.477993	0.779004
H196	H	0.046887	-0.396202	0.562361
H197	H	-0.090949	-0.534065	0.310634
H198	H	0.015920	-0.427139	0.531437
H199	H	0.167497	-0.502899	0.455559
H200	H	0.198463	-0.471942	0.486461
H201	H	0.338156	-0.509129	0.552896
H202	H	0.430973	-0.540048	0.521891
H203	H	0.430920	-0.389838	0.464614
H204	H	-0.066081	-0.477343	0.543993
O205	O	-0.013276	-0.693614	0.271206
C206	C	-0.017184	-0.770225	0.286813
C207	C	-0.030700	-0.714887	0.258646
H208	H	-0.031257	-0.787441	0.276661
H209	H	-0.034495	-0.776708	0.327780
H210	H	0.024240	-0.787498	0.276825
H211	H	-0.072118	-0.697577	0.268593
H212	H	-0.013355	-0.708438	0.217686
O213	O	0.550861	-0.600880	0.578162
C214	C	0.550920	-0.623596	0.658667
C215	C	0.550835	-0.583306	0.608622
H216	H	0.550889	-0.609399	0.683312
H217	H	0.584967	-0.656915	0.653530
H218	H	0.516930	-0.634294	0.676221
H219	H	0.584802	-0.572566	0.591040
H220	H	0.516766	-0.550013	0.613791
H221	H	0.160490	-0.218637	0.448603
O222	O	0.334147	-0.351061	0.494452
C223	C	0.339521	-0.270737	0.461305
C224	C	0.367653	-0.325656	0.469278
H225	H	0.366598	-0.250180	0.440942
H226	H	0.315603	-0.265014	0.498193
H227	H	0.315527	-0.256354	0.438847
H228	H	0.391673	-0.340076	0.491719
H229	H	0.391540	-0.331347	0.432373
H230	H	0.129496	-0.125810	0.417697
H231	H	0.084809	-0.218687	0.600218
O232	O	0.049191	-0.121915	0.574603
C233	C	0.009655	-0.127343	0.659289
C234	C	0.042000	-0.155448	0.622672
H235	H	0.003840	-0.154442	0.698161
H236	H	-0.027188	-0.103411	0.653465
H237	H	0.028400	-0.103364	0.653345
H238	H	0.023298	-0.179453	0.628594
H239	H	0.078842	-0.179349	0.628506
H240	H	-0.090896	-0.534066	0.267110
O241	O	-0.061845	-0.495270	0.170286
C242	C	-0.126666	-0.418594	0.154554
C243	C	-0.113087	-0.473933	0.182716
H244	H	-0.168096	-0.401324	0.164601
H245	H	-0.109410	-0.412106	0.113586
H246	H	-0.112543	-0.401377	0.164651
H247	H	-0.127207	-0.491186	0.172660
H248	H	-0.130337	-0.480386	0.223677
O249	O	0.020469	-0.660026	0.170337
C250	C	0.029667	-0.689254	0.112513
C251	C	-0.002682	-0.652645	0.140628
H252	H	0.010966	-0.683293	0.088479
H253	H	0.035508	-0.728140	0.139587
H254	H	0.066497	-0.683409	0.088634
H255	H	-0.039531	-0.658445	0.164507
H256	H	-0.008483	-0.613772	0.113528
H257	H	-0.060067	-0.503170	0.341685
H258	H	-0.015331	-0.685697	0.386578
O259	O	0.020150	-0.660092	0.422262
C260	C	0.059723	-0.744787	0.461941
C261	C	0.027442	-0.708160	0.429498
H262	H	0.065637	-0.783657	0.467793
H263	H	0.040938	-0.738910	0.498762
H264	H	0.096526	-0.738903	0.443253
H265	H	-0.009367	-0.714021	0.448143
H266	H	0.046266	-0.714045	0.392678
H267	H	0.052828	-0.784146	0.351024
O268	O	0.027181	-0.687377	0.316259
C269	C	0.111098	-0.692861	0.286849
C270	C	0.074900	-0.720935	0.313523
H271	H	0.149688	-0.719980	0.284620
H272	H	0.100843	-0.668914	0.307777
H273	H	0.109561	-0.668900	0.248369
H274	H	0.076418	-0.744922	0.352004
H275	H	0.085166	-0.744851	0.292558
H276	H	-0.097376	-0.783993	0.408060
H277	H	-0.134607	-0.647683	0.424287
O278	O	-0.136104	-0.687215	0.378225
C279	C	-0.216421	-0.692537	0.411207
C280	C	-0.161522	-0.720700	0.403328
H281	H	-0.236989	-0.719598	0.431512
H282	H	-0.222075	-0.668607	0.374288
H283	H	-0.230846	-0.668550	0.433684
H284	H	-0.147060	-0.744714	0.380868
H285	H	-0.155900	-0.744599	0.440264
H286	H	-0.227194	-0.540877	0.303400
O287	O	-0.231388	-0.618642	0.463002
C288	C	-0.226120	-0.661855	0.544137
C289	C	-0.197929	-0.648261	0.488808
H290	H	-0.199080	-0.685795	0.565017
H291	H	-0.250066	-0.682685	0.554182
H292	H	-0.250090	-0.627114	0.554172
H293	H	-0.173932	-0.682976	0.478733
H294	H	-0.174014	-0.627412	0.478792
H295	H	0.023891	-0.387055	0.363546
O296	O	-0.130355	-0.570035	0.264697
C297	C	-0.114613	-0.573930	0.188025
C298	C	-0.142828	-0.587462	0.243349
H299	H	-0.124694	-0.588004	0.170747
H300	H	-0.073654	-0.591229	0.181588
H301	H	-0.124627	-0.532500	0.170777
H302	H	-0.132855	-0.628884	0.260634
H303	H	-0.183780	-0.570128	0.249751
