data_functionalizedCrystal
_audit_creation_method	'MofGen! by Chris Wilmer'
_symmetry_space_group_name_H-M	'P1'
_symmetry_Int_Tables_number	1
_symmetry_cell_setting	triclinic
loop_
_symmetry_equiv_pos_as_xyz
  x,y,z
_cell_length_a	18.215407
_cell_length_b	12.759400
_cell_length_c	18.215399
_cell_angle_alpha	90.023429
_cell_angle_beta	90.019833
_cell_angle_gamma	90.013614
loop_
_atom_site_label
_atom_site_type_symbol
_atom_site_fract_x
_atom_site_fract_y
_atom_site_fract_z
Zn1	Zn	1.125132	-0.418264	0.416139
Zn2	Zn	1.625132	0.081736	0.916139
Zn3	Zn	1.125065	-0.593962	0.293082
Zn4	Zn	1.625065	-0.093962	0.793082
Zn5	Zn	1.002064	-0.418299	0.293086
Zn6	Zn	1.502064	0.081701	0.793086
Zn7	Zn	1.002056	-0.593903	0.416107
Zn8	Zn	1.502056	-0.093903	0.916107
O9	O	1.063579	-0.506107	0.354604
O10	O	1.563579	-0.006107	0.854604
O11	O	1.228107	-0.441581	0.399827
O12	O	1.728107	0.058419	0.899827
O13	O	1.108725	-0.570699	0.190099
O14	O	1.608725	-0.070699	0.690099
O15	O	1.018421	-0.271273	0.309424
O16	O	1.518421	0.228727	0.809424
O17	O	1.228059	-0.570665	0.309418
O18	O	1.728059	-0.070665	0.809418
O19	O	1.108838	-0.271248	0.399831
O20	O	1.608838	0.228752	0.899831
O21	O	1.018357	-0.441640	0.190102
O22	O	1.518357	0.058360	0.690102
O23	O	0.899079	-0.441583	0.309394
O24	O	1.399079	0.058417	0.809394
O25	O	1.018406	-0.570566	0.519096
O26	O	1.518406	-0.070566	1.019096
O27	O	0.899072	-0.570599	0.399777
O28	O	1.399072	-0.070599	0.899777
O29	O	1.108830	-0.441525	0.519119
O30	O	1.608830	0.058475	1.019119
O31	O	1.108716	-0.740975	0.309387
O32	O	1.608716	-0.240975	0.809387
O33	O	1.018341	-0.740932	0.399773
O34	O	1.518341	-0.240932	0.899773
C35	C	0.872373	-0.506089	0.354583
C36	C	1.372373	-0.006089	0.854583
C37	C	0.790574	-0.506107	0.354591
C38	C	1.290574	-0.006107	0.854591
C39	C	0.602396	-0.573391	0.401594
C40	C	1.102396	-0.073391	0.901594
C41	C	0.525537	-0.573394	0.401604
C42	C	1.025537	-0.073394	0.901604
C43	C	0.525515	-0.438842	0.307629
C44	C	1.025515	0.061158	0.807629
C45	C	0.602372	-0.438835	0.307624
C46	C	1.102372	0.061165	0.807624
C47	C	0.640811	-0.506115	0.354606
C48	C	1.140811	-0.006115	0.854606
C49	C	0.487095	-0.506126	0.354620
C50	C	0.987095	-0.006126	0.854620
C51	C	0.403761	-0.506129	0.354630
C52	C	0.903761	-0.006129	0.854630
C53	C	0.724150	-0.506111	0.354597
C54	C	1.224150	-0.006111	0.854597
C55	C	1.063541	-0.779075	0.354592
C56	C	1.563541	-0.279075	0.854592
C57	C	1.063592	-0.895851	0.354612
C58	C	1.563592	-0.395851	0.854612
C59	C	1.110648	-0.950620	0.401725
C60	C	1.610648	-0.450620	0.901725
C61	C	1.110682	-1.060344	0.401743
C62	C	1.610682	-0.560344	0.901743
C63	C	1.016601	-1.060520	0.307528
C64	C	1.516601	-0.560520	0.807528
C65	C	1.016564	-0.950798	0.307515
C66	C	1.516564	-0.450798	0.807515
C67	C	1.157676	-0.895673	0.448822
C68	C	1.657676	-0.395673	0.948822
C69	C	1.204737	-0.950442	0.495938
C70	C	1.704737	-0.450442	0.995938
C71	C	1.204771	-1.060166	0.495956
C72	C	1.704771	-0.560166	0.995956
C73	C	1.157744	-1.115121	0.448858
C74	C	1.657744	-0.615121	0.948858
C75	C	1.255532	-0.506126	0.354625
C76	C	1.755532	-0.006126	0.854625
C77	C	1.337331	-0.506134	0.354635
C78	C	1.837331	-0.006134	0.854635
C79	C	1.063624	-0.506035	0.546557
C80	C	1.563624	-0.006035	1.046557
C81	C	1.063643	-0.506004	0.628356
C82	C	1.563643	-0.006004	1.128356
C83	C	1.063638	-0.232074	0.354632
C84	C	1.563638	0.267926	0.854632
C85	C	1.063663	-0.115297	0.354643
C86	C	1.563663	0.384703	0.854643
C87	C	1.063577	-0.506103	0.163398
C88	C	1.563577	-0.006103	0.663398
C89	C	1.063700	-0.505838	0.081599
C90	C	1.563700	-0.005838	0.581599
C91	C	1.110744	-0.438749	0.816563
C92	C	1.610744	0.061251	1.316563
C93	C	1.110753	-0.438719	0.893422
C94	C	1.610753	0.061281	1.393422
C95	C	1.016595	-0.573096	0.893386
C96	C	1.516595	-0.073096	1.393386
C97	C	1.016583	-0.573120	0.816529
C98	C	1.516583	-0.073120	1.316529
C99	C	1.063662	-0.505949	0.778119
C100	C	1.563662	-0.005949	1.278119
C101	C	1.063682	-0.505894	0.931835
C102	C	1.563682	-0.005894	1.431835
C103	C	1.063691	-0.505861	1.015169
C104	C	1.563691	-0.005861	1.515169
C105	C	1.063652	-0.505980	0.694780
C106	C	1.563652	-0.005980	1.194780
H107	H	1.157655	-0.806330	0.448811
H108	H	1.657655	-0.306330	0.948811
H109	H	0.978245	-0.906205	0.269151
H110	H	1.478245	-0.406205	0.769151
H111	H	0.633650	-0.384044	0.269360
H112	H	1.133650	0.115956	0.769360
C113	C	1.256461	-0.889997	0.547743
C114	C	1.756461	-0.389997	1.047743
H115	H	1.249707	-0.816806	0.540981
H116	H	1.749707	-0.316806	1.040981
H117	H	1.245671	-0.907944	0.597183
H118	H	1.745671	-0.407944	1.097183
H119	H	1.305921	-0.907942	0.537014
H120	H	1.805921	-0.407942	1.037014
C121	C	1.256534	-1.120410	0.547781
C122	C	1.756534	-0.620410	1.047781
H123	H	1.284538	-1.071968	0.575823
H124	H	1.784538	-0.571968	1.075823
H125	H	1.228383	-1.163215	0.579830
H126	H	1.728383	-0.663215	1.079830
H127	H	1.288630	-1.163202	0.519657
H128	H	1.788630	-0.663202	1.019657
C129	C	0.483284	-0.647396	0.453293
C130	C	0.983284	-0.147396	0.953293
H131	H	0.517187	-0.687464	0.481268
H132	H	1.017187	-0.187464	0.981268
H133	H	0.453323	-0.607264	0.485408
H134	H	0.953323	-0.107264	0.985408
H135	H	0.453283	-0.693129	0.425089
H136	H	0.953283	-0.193129	0.925089
C137	C	1.157750	-1.235815	0.448910
C138	C	1.657750	-0.735815	0.948910
H139	H	1.192504	-1.260566	0.483723
H140	H	1.692504	-0.760566	0.983723
H141	H	1.110251	-1.260628	0.461604
H142	H	1.610251	-0.760628	0.961604
H143	H	1.170508	-1.260710	0.401441
H144	H	1.670508	-0.760710	0.901441
C145	C	0.964883	-1.120968	0.255720
C146	C	1.464883	-0.620968	0.755720
H147	H	0.971650	-1.194159	0.262471
H148	H	1.471650	-0.694159	0.762471
H149	H	0.915423	-1.103032	0.266440
H150	H	1.415423	-0.603032	0.766440
H151	H	0.975682	-1.103016	0.206278
H152	H	1.475682	-0.603016	0.706278
C153	C	0.483230	-0.364852	0.255946
C154	C	0.983230	0.135148	0.755946
H155	H	0.431954	-0.374499	0.262672
H156	H	0.931954	0.125501	0.762672
H157	H	0.495835	-0.294277	0.266793
H158	H	0.995835	0.205723	0.766793
H159	H	0.495806	-0.380151	0.206479
H160	H	0.995806	0.119849	0.706479
H161	H	1.149076	-0.384051	0.785292
H162	H	1.649076	0.115949	1.285292
C163	C	0.644676	-0.647386	0.453278
C164	C	1.144676	-0.147386	0.953278
H165	H	0.610787	-0.687445	0.481269
H166	H	1.110787	-0.187445	0.981269
H167	H	0.674643	-0.693112	0.425076
H168	H	1.174643	-0.193112	0.925076
H169	H	0.674674	-0.607241	0.485391
H170	H	1.174674	-0.107241	0.985391
H171	H	1.149091	-0.383996	0.924719
H172	H	1.649091	0.116004	1.424719
H173	H	0.978238	-0.627841	0.785227
H174	H	1.478238	-0.127841	1.285227
H175	H	0.978267	-0.627787	0.924669
H176	H	1.478267	-0.127787	1.424669
