data_functionalizedCrystal
_audit_creation_method	'MofGen! by Chris Wilmer'
_symmetry_space_group_name_H-M	'P1'
_symmetry_Int_Tables_number	1
_symmetry_cell_setting	triclinic
loop_
_symmetry_equiv_pos_as_xyz
  x,y,z
_cell_length_a	19.805407
_cell_length_b	19.121063
_cell_length_c	19.805398
_cell_angle_alpha	92.409806
_cell_angle_beta	89.986879
_cell_angle_gamma	92.469032
loop_
_atom_site_label
_atom_site_type_symbol
_atom_site_fract_x
_atom_site_fract_y
_atom_site_fract_z
Zn1	Zn	1.023190	-0.279623	-0.394203
Zn2	Zn	1.018285	-0.397078	-0.285838
Zn3	Zn	0.910016	-0.279645	-0.281028
Zn4	Zn	0.905138	-0.397038	-0.398983
O5	O	0.964157	-0.338346	-0.340013
O6	O	1.117255	-0.295211	-0.379840
O7	O	1.003913	-0.381526	-0.190484
O8	O	0.929123	-0.181357	-0.292027
O9	O	1.113652	-0.381505	-0.300225
O10	O	1.012271	-0.181342	-0.375176
O11	O	0.924368	-0.295248	-0.186950
O12	O	0.814653	-0.295210	-0.296663
O13	O	0.920808	-0.381437	-0.493064
O14	O	0.811069	-0.381458	-0.383323
O15	O	1.007541	-0.295173	-0.489552
O16	O	0.999182	-0.495357	-0.304860
O17	O	0.916053	-0.495328	-0.387987
C18	C	0.788302	-0.338333	-0.339990
C19	C	0.713069	-0.338344	-0.339997
C20	C	0.675874	-0.383321	-0.385054
C21	C	0.605185	-0.383322	-0.385064
C22	C	0.571694	-0.338349	-0.340013
C23	C	0.608894	-0.293367	-0.294954
C24	C	0.679582	-0.293363	-0.294948
C25	C	0.323820	-0.293383	-0.294977
C26	C	0.253128	-0.293392	-0.294985
C27	C	0.249424	-0.383342	-0.385093
C28	C	0.320111	-0.383338	-0.385087
C29	C	0.357306	-0.338353	-0.340031
C30	C	0.433954	-0.338352	-0.340022
C31	C	0.495046	-0.338354	-0.340018
C32	C	0.956574	-0.520827	-0.347479
C33	C	0.953392	-0.598893	-0.350696
C34	C	0.995212	-0.635560	-0.308963
C35	C	0.992223	-0.708912	-0.311992
C36	C	0.947411	-0.745594	-0.356751
C37	C	0.905590	-0.708922	-0.398489
C38	C	0.908582	-0.635572	-0.395462
C39	C	0.936211	-0.967064	-0.368055
C40	C	0.933220	-1.040419	-0.371077
C41	C	1.019855	-1.040404	-0.284581
C42	C	1.022841	-0.967053	-0.281556
C43	C	0.981022	-0.930387	-0.323296
C44	C	0.944353	-0.820571	-0.359847
C45	C	0.984084	-0.855411	-0.320203
C46	C	1.140699	-0.338360	-0.340036
C47	C	1.215931	-0.338366	-0.340045
C48	C	0.964177	-0.338299	-0.516554
C49	C	0.964186	-0.338278	-0.591785
C50	C	0.971788	-0.155153	-0.332532
C51	C	0.975040	-0.077087	-0.329344
C52	C	1.005716	-0.383091	-1.055409
C53	C	1.005697	-0.383110	-0.984721
C54	C	0.964273	-0.338199	-0.947543
C55	C	0.922861	-0.293271	-0.981057
C56	C	0.922878	-0.293256	-1.051744
C57	C	0.922793	-0.293331	-0.695986
C58	C	0.922782	-0.293348	-0.625295
C59	C	1.005612	-0.383186	-0.628964
C60	C	1.005629	-0.383171	-0.699650
C61	C	0.964215	-0.338245	-0.733158
C62	C	0.964235	-0.338226	-0.809806
C63	C	0.964256	-0.338214	-0.870897
C64	C	0.964178	-0.338343	-0.164157
C65	C	0.964309	-0.338165	-0.088918
H66	H	0.219132	-0.419968	-0.421782
H67	H	0.907866	-0.850446	-0.396289
C68	C	0.564271	-0.432840	-0.434587
H69	H	0.594341	-0.459642	-0.461399
H70	H	0.537798	-0.406056	-0.463043
H71	H	0.535440	-0.463396	-0.409857
C72	C	0.356949	-0.432805	-0.434645
H73	H	0.324672	-0.459588	-0.461486
H74	H	0.383249	-0.463371	-0.409957
H75	H	0.385645	-0.405968	-0.463080
H76	H	0.902160	-0.937216	-0.402040
H77	H	1.026277	-0.738763	-0.278008
C78	C	0.216288	-0.243914	-0.245431
H79	H	0.248563	-0.217116	-0.218601
H80	H	0.187590	-0.270740	-0.216996
H81	H	0.189991	-0.213351	-0.270133
H82	H	1.039332	-0.419768	-0.601673
C83	C	1.033375	-0.815066	-0.270970
H84	H	1.057858	-0.847406	-0.246548
H85	H	1.008667	-0.786493	-0.240280
H86	H	1.064020	-0.786410	-0.295712
C87	C	0.877247	-0.243908	-0.732835
H88	H	0.852582	-0.217158	-0.700568
H89	H	0.846641	-0.270762	-0.761506
H90	H	0.904425	-0.213300	-0.759161
C91	C	0.877287	-0.243877	-0.940167
H92	H	0.852621	-0.217125	-0.970250
H93	H	0.904438	-0.213279	-0.911340
H94	H	0.846670	-0.270759	-0.913692
H95	H	0.703137	-0.419946	-0.421738
H96	H	0.354095	-0.256759	-0.258284
H97	H	1.039363	-0.419739	-0.729917
C98	C	0.856296	-0.749271	-0.447721
H99	H	0.860497	-0.798207	-0.443542
H100	H	0.866659	-0.737211	-0.492711
H101	H	0.811313	-0.737293	-0.437272
H102	H	0.889160	-0.256672	-1.079025
C103	C	1.072139	-0.926707	-0.232325
H104	H	1.096622	-0.959051	-0.207908
H105	H	1.047435	-0.898135	-0.201631
H106	H	1.102782	-0.898051	-0.257069
C107	C	0.572055	-0.243900	-0.245396
H108	H	0.524628	-0.250349	-0.251847
H109	H	0.585599	-0.196721	-0.253442
H110	H	0.583204	-0.254124	-0.200319
H111	H	0.874529	-0.605718	-0.429446
C112	C	1.051285	-0.432492	-1.096298
H113	H	1.075938	-0.459255	-1.066215
H114	H	1.081902	-0.405622	-1.122777
H115	H	1.024122	-0.463090	-1.125121
C116	C	1.044507	-0.595216	-0.259728
H117	H	1.068989	-0.627562	-0.235313
H118	H	1.019805	-0.566644	-0.229033
H119	H	1.075151	-0.566560	-0.284471
C120	C	0.877211	-0.243948	-0.584397
H121	H	0.883140	-0.250388	-0.537500
H122	H	0.831309	-0.254224	-0.596396
H123	H	0.889085	-0.196752	-0.594057
C124	C	0.720497	-0.243887	-0.245386
H125	H	0.690427	-0.217106	-0.218553
H126	H	0.749348	-0.213319	-0.270076
H127	H	0.746950	-0.270714	-0.216945
H128	H	1.053903	-1.070266	-0.250600
H129	H	0.896737	-1.070284	-0.407537
H130	H	1.039406	-0.419702	-0.957442
