data_functionalizedCrystal
_audit_creation_method	'MofGen! by Chris Wilmer'
_symmetry_space_group_name_H-M	'P1'
_symmetry_Int_Tables_number	1
_symmetry_cell_setting	triclinic
loop_
_symmetry_equiv_pos_as_xyz
  x,y,z
_cell_length_a	27.731993
_cell_length_b	26.210047
_cell_length_c	27.732048
_cell_angle_alpha	89.990375
_cell_angle_beta	97.368475
_cell_angle_gamma	90.004884
loop_
_atom_site_label
_atom_site_type_symbol
_atom_site_fract_x
_atom_site_fract_y
_atom_site_fract_z
O1	O	0.640953	0.042297	-0.057390
O2	O	1.140953	0.542297	0.442610
O3	O	0.500156	0.042329	-0.066163
O4	O	1.000156	0.542329	0.433837
O5	O	0.574927	0.042302	0.008621
O6	O	1.074927	0.542302	0.508621
O7	O	0.566181	0.042324	-0.132174
O8	O	1.066181	0.542324	0.367826
O9	O	0.574904	-0.042556	0.008621
O10	O	1.074904	0.457444	0.508621
O11	O	0.500132	-0.042529	-0.066163
O12	O	1.000132	0.457471	0.433837
O13	O	0.640930	-0.042561	-0.057390
O14	O	1.140930	0.457439	0.442610
Cu15	Cu	0.570529	-0.050293	-0.061777
Cu16	Cu	1.070529	0.449707	0.438223
Cu17	Cu	0.570556	0.050061	-0.061777
Cu18	Cu	1.070556	0.550061	0.438223
O19	O	0.566158	-0.042534	-0.132174
O20	O	1.066158	0.457466	0.367826
C21	C	0.482137	-0.000096	-0.065983
C22	C	0.982137	0.499904	0.434017
C23	C	0.428480	-0.000084	-0.065441
C24	C	0.928480	0.499916	0.434559
N25	N	0.570513	-0.120877	-0.061777
N26	N	1.070513	0.379123	0.438223
C27	C	0.045333	0.046147	-0.061510
C28	C	0.545333	0.546147	0.438490
C29	C	0.246990	0.046161	-0.063577
C30	C	0.746990	0.546161	0.436423
O31	O	0.273074	0.085501	-0.063825
O32	O	0.773074	0.585501	0.436175
N33	N	0.272198	-0.000094	-0.063836
N34	N	0.772198	0.499906	0.436164
C35	C	0.246988	-0.046356	-0.063575
C36	C	0.746988	0.453644	0.436425
O37	O	0.273057	-0.085699	-0.063837
O38	O	0.773057	0.414301	0.436163
C39	C	0.045332	-0.046370	-0.061504
C40	C	0.545332	0.453630	0.438496
C41	C	0.020127	-0.000112	-0.061251
C42	C	0.520127	0.499888	0.438749
C43	C	0.020127	0.092401	-0.061256
C44	C	0.520127	0.592401	0.438744
C45	C	-0.030284	0.092397	-0.060742
C46	C	0.469716	0.592397	0.439258
C47	C	-0.055491	0.046139	-0.060482
C48	C	0.444509	0.546139	0.439518
C49	C	-0.030285	-0.000116	-0.060736
C50	C	0.469715	0.499884	0.439264
C51	C	0.020124	-0.092631	-0.061239
C52	C	0.520124	0.407369	0.438761
C53	C	-0.030293	-0.092630	-0.060721
C54	C	0.469707	0.407370	0.439279
C55	C	-0.055498	-0.046372	-0.060467
C56	C	0.444502	0.453628	0.439533
C57	C	-0.105903	-0.046378	-0.059963
C58	C	0.394097	0.453622	0.440037
N59	N	-0.131110	-0.000123	-0.059704
N60	N	0.368890	0.499877	0.440296
C61	C	-0.105904	0.046135	-0.059964
C62	C	0.394096	0.546135	0.440036
C63	C	0.352860	-0.046346	-0.064663
C64	C	0.852860	0.453654	0.435337
C65	C	0.403274	-0.046343	-0.065181
C66	C	0.903274	0.453657	0.434819
C67	C	0.403273	0.046175	-0.065183
C68	C	0.903273	0.546175	0.434817
C69	C	0.352858	0.046171	-0.064668
C70	C	0.852858	0.546171	0.435332
C71	C	0.327653	-0.000091	-0.064404
C72	C	0.827653	0.499909	0.435596
C73	C	-0.211772	0.046123	-0.058885
C74	C	0.288228	0.546123	0.441115
C75	C	-0.262189	0.046115	-0.058372
C76	C	0.237811	0.546115	0.441628
C77	C	-0.262183	-0.046402	-0.058368
C78	C	0.237817	0.453598	0.441632
C79	C	-0.211771	-0.046394	-0.058883
C80	C	0.288229	0.453606	0.441117
C81	C	-0.186567	-0.000127	-0.059139
C82	C	0.313433	0.499873	0.440861
O83	O	-0.132017	-0.085698	-0.059709
O84	O	0.367983	0.414302	0.440291
O85	O	-0.131980	0.085472	-0.059690
O86	O	0.368020	0.585472	0.440310
C87	C	0.095745	0.046151	-0.062024
C88	C	0.595745	0.546151	0.437976
C89	C	0.120950	-0.000104	-0.062279
C90	C	0.620950	0.499896	0.437721
C91	C	0.095744	-0.046362	-0.062019
C92	C	0.595744	0.453638	0.437981
C93	C	0.171364	-0.000101	-0.062797
C94	C	0.671364	0.499899	0.437203
C95	C	0.196570	0.046158	-0.063057
C96	C	0.696570	0.546158	0.436943
C97	C	0.171362	0.092413	-0.062798
C98	C	0.671362	0.592413	0.437202
C99	C	0.120951	0.092409	-0.062284
C100	C	0.620951	0.592409	0.437716
C101	C	0.120952	-0.092617	-0.062277
C102	C	0.620952	0.407383	0.437723
C103	C	0.171363	-0.092609	-0.062792
C104	C	0.671363	0.407391	0.437208
C105	C	0.196569	-0.046351	-0.063052
C106	C	0.696569	0.453649	0.436948
C107	C	0.599649	-0.473394	-0.090882
C108	C	1.099649	0.026606	0.409118
C109	C	0.599664	-0.687052	-0.090881
C110	C	1.099664	-0.187052	0.409119
O111	O	0.624425	-0.714676	-0.115623
O112	O	1.124425	-0.214676	0.384377
N113	N	0.570568	-0.713771	-0.061772
N114	N	1.070568	-0.213771	0.438228
C115	C	0.541469	-0.687072	-0.032658
C116	C	1.041469	-0.187072	0.467342
O117	O	0.516726	-0.714701	-0.007895
O118	O	1.016726	-0.214701	0.492105
C119	C	0.541458	-0.473414	-0.032656
C120	C	1.041458	0.026586	0.467344
C121	C	0.570552	-0.446698	-0.061771
C122	C	1.070552	0.053302	0.438229
C123	C	0.628741	-0.446677	-0.119994
C124	C	1.128741	0.053323	0.380006
C125	C	0.628735	-0.393266	-0.119996
C126	C	1.128735	0.106734	0.380004
C127	C	0.599637	-0.366571	-0.090886
C128	C	1.099637	0.133429	0.409114
C129	C	0.570546	-0.393287	-0.061773
C130	C	1.070546	0.106713	0.438227
C131	C	0.512362	-0.446716	-0.003540
C132	C	1.012362	0.053284	0.496460
C133	C	0.512363	-0.393298	-0.003541
C134	C	1.012363	0.106702	0.496459
C135	C	0.541456	-0.366582	-0.032656
C136	C	1.041456	0.133418	0.467344
C137	C	0.541442	-0.313180	-0.032664
C138	C	1.041442	0.186820	0.467336
N139	N	0.570538	-0.286461	-0.061774
N140	N	1.070538	0.213539	0.438226
C141	C	0.599635	-0.313156	-0.090884
C142	C	1.099635	0.186844	0.409116
C143	C	0.541476	-0.799245	-0.032662
C144	C	1.041476	-0.299245	0.467338
C145	C	0.541479	-0.852659	-0.032663
C146	C	1.041479	-0.352659	0.467337
C147	C	0.599674	-0.852636	-0.090886
C148	C	1.099674	-0.352636	0.409114
C149	C	0.599669	-0.799221	-0.090887
C150	C	1.099669	-0.299221	0.409113
C151	C	0.570572	-0.772526	-0.061771
C152	C	1.070572	-0.272526	0.438229
C153	C	0.599621	-0.200989	-0.090886
C154	C	1.099621	0.299011	0.409114
C155	C	0.599611	-0.147572	-0.090887
C156	C	1.099611	0.352428	0.409113
C157	C	0.541418	-0.147601	-0.032662
C158	C	1.041418	0.352399	0.467338
C159	C	0.541425	-0.201012	-0.032663
C160	C	1.041425	0.298988	0.467337
C161	C	0.570531	-0.227705	-0.061777
C162	C	1.070531	0.272295	0.438223
O163	O	0.516698	-0.285523	-0.007932
O164	O	1.016698	0.214477	0.492068
O165	O	0.624383	-0.285519	-0.115636
O166	O	1.124383	0.214481	0.384364
C167	C	0.599655	-0.526805	-0.090880
C168	C	1.099655	-0.026805	0.409120
C169	C	0.570563	-0.553521	-0.061768
C170	C	1.070563	-0.053521	0.438232
C171	C	0.541466	-0.526826	-0.032657
C172	C	1.041466	-0.026826	0.467343
C173	C	0.570565	-0.606935	-0.061769
C174	C	1.070565	-0.106935	0.438231
C175	C	0.599663	-0.633631	-0.090879
C176	C	1.099663	-0.133631	0.409121
C177	C	0.628759	-0.606912	-0.119989
C178	C	1.128759	-0.106912	0.380011
C179	C	0.628753	-0.553500	-0.119991
C180	C	1.128753	-0.053500	0.380009
C181	C	0.512370	-0.553545	-0.003547
C182	C	1.012370	-0.053545	0.496453
C183	C	0.512378	-0.606956	-0.003548
C184	C	1.012378	-0.106956	0.496452
C185	C	0.541476	-0.633651	-0.032659
C186	C	1.041476	-0.133651	0.467341
C187	C	0.658949	-0.000135	-0.057570
C188	C	1.158949	0.499865	0.442430
C189	C	0.712605	-0.000143	-0.058113
C190	C	1.212605	0.499857	0.441887
C191	C	0.574732	-0.000128	0.026628
C192	C	1.074732	0.499872	0.526628
C193	C	0.574179	-0.000132	0.080282
C194	C	1.074179	0.499868	0.580282
N195	N	0.570576	0.120645	-0.061773
N196	N	1.070576	0.620645	0.438227
C197	C	0.566353	-0.000103	-0.150181
C198	C	1.066353	0.499897	0.349819
C199	C	0.566906	-0.000095	-0.203836
C200	C	1.066906	0.499905	0.296164
C201	C	0.614884	-0.000115	0.419105
C202	C	1.114884	0.499885	0.919105
C203	C	0.612833	-0.000108	0.620765
C204	C	1.112833	0.499892	1.120765
O205	O	0.650055	-0.000094	0.652028
O206	O	1.150055	0.499906	1.152028
N207	N	0.568497	-0.000098	0.639880
N208	N	1.068497	0.499902	1.139880
C209	C	0.524670	-0.000087	0.608576
C210	C	1.024670	0.499913	1.108576
O211	O	0.486912	-0.000073	0.629462
O212	O	0.986912	0.499927	1.129462
C213	C	0.526721	-0.000091	0.406918
C214	C	1.026721	0.499909	0.906918
C215	C	0.571061	-0.000106	0.387806
C216	C	1.071061	0.499894	0.887806
C217	C	0.659220	-0.000129	0.399993
C218	C	1.159220	0.499871	0.899993
C219	C	0.659732	-0.000134	0.349581
C220	C	1.159732	0.499866	0.849581
C221	C	0.615909	-0.000124	0.318282
C222	C	1.115909	0.499876	0.818282
C223	C	0.571573	-0.000110	0.337394
C224	C	1.071573	0.499890	0.837394
C225	C	0.482895	-0.000076	0.375616
C226	C	0.982895	0.499924	0.875616
C227	C	0.483412	-0.000076	0.325199
C228	C	0.983412	0.499924	0.825199
C229	C	0.527751	-0.000091	0.306087
C230	C	1.027751	0.499909	0.806087
C231	C	0.528262	-0.000105	0.255683
C232	C	1.028262	0.499895	0.755683
N233	N	0.572598	-0.000115	0.236568
N234	N	1.072598	0.499885	0.736568
C235	C	0.616422	-0.000124	0.267867
C236	C	1.116422	0.499876	0.767867
C237	C	0.523596	-0.000086	0.714450
C238	C	1.023596	0.499914	1.214450
C239	C	0.523083	-0.000086	0.764865
C240	C	1.023083	0.499914	1.264865
C241	C	0.611246	-0.000105	0.777049
C242	C	1.111246	0.499895	1.277049
C243	C	0.611759	-0.000109	0.726634
C244	C	1.111759	0.499891	1.226634
C245	C	0.567932	-0.000095	0.695335
C246	C	1.067932	0.499905	1.195335
C247	C	0.617494	-0.000135	0.161998
C248	C	1.117494	0.499865	0.661998
C249	C	0.618002	-0.000142	0.111582
C250	C	1.118002	0.499858	0.611582
C251	C	0.529839	-0.000119	0.099401
C252	C	1.029839	0.499881	0.599401
C253	C	0.529331	-0.000115	0.149814
C254	C	1.029331	0.499885	0.649814
C255	C	0.573162	-0.000121	0.181112
C256	C	1.073162	0.499879	0.681112
O257	O	0.491060	-0.000114	0.224392
O258	O	0.991060	0.499886	0.724392
O259	O	0.654174	-0.000127	0.246972
O260	O	1.154174	0.499873	0.746972
C261	C	0.614372	-0.000110	0.469517
C262	C	1.114372	0.499890	0.969517
C263	C	0.570036	-0.000096	0.488630
C264	C	1.070036	0.499904	0.988630
C265	C	0.526213	-0.000087	0.457331
C266	C	1.026213	0.499913	0.957331
C267	C	0.569523	-0.000096	0.539044
C268	C	1.069523	0.499904	1.039044
C269	C	0.613346	-0.000106	0.570343
C270	C	1.113346	0.499894	1.070343
C271	C	0.657683	-0.000115	0.551228
C272	C	1.157683	0.499885	1.051228
C273	C	0.658195	-0.000120	0.500817
C274	C	1.158195	0.499880	1.000817
C275	C	0.481876	-0.000077	0.476446
C276	C	0.981876	0.499923	0.976446
C277	C	0.481368	-0.000073	0.526858
C278	C	0.981368	0.499927	1.026858
C279	C	0.525191	-0.000083	0.558157
C280	C	1.025191	0.499917	1.058157
H281	H	-0.191257	0.083798	-0.059094
H282	H	0.308743	0.583798	0.440906
C283	C	0.431182	0.043572	0.425220
C284	C	0.931182	0.543572	0.925220
C285	C	0.434155	-0.000054	0.396615
C286	C	0.934155	0.499946	0.896615
H287	H	0.401091	0.043585	0.438185
H288	H	0.901091	0.543585	0.938185
H289	H	0.433231	0.073155	0.405801
H290	H	0.933231	0.573155	0.905801
H291	H	0.457205	0.043558	0.451081
H292	H	0.957205	0.543558	0.951081
H293	H	0.408134	-0.000037	0.370752
H294	H	0.908134	0.499963	0.870752
H295	H	0.432102	-0.029644	0.416035
H296	H	0.932102	0.470356	0.916035
H297	H	-0.282709	0.083786	-0.058167
H298	H	0.217291	0.583786	0.441833
C299	C	0.071063	0.146087	-0.103413
C300	C	0.571063	0.646087	0.396587
C301	C	0.047829	0.143253	-0.061545
C302	C	0.547829	0.643253	0.438455
H303	H	0.088163	0.177482	-0.103592
H304	H	0.588163	0.677482	0.396408
H305	H	0.047494	0.144161	-0.131404
H306	H	0.547494	0.644161	0.368596
H307	H	0.093294	0.118542	-0.103634
H308	H	0.593294	0.618542	0.396366
H309	H	0.025595	0.170796	-0.061326
H310	H	0.525595	0.670796	0.438674
H311	H	0.071401	0.145184	-0.033548
H312	H	0.571401	0.645184	0.466452
H313	H	0.494160	-0.000113	0.073909
H314	H	0.994160	0.499887	0.573909
H315	H	-0.050812	-0.130303	-0.060510
H316	H	0.449188	0.369697	0.439490
C317	C	0.693740	-0.493422	-0.122558
C318	C	1.193740	0.006578	0.377442
C319	C	0.660734	-0.524136	-0.151993
C320	C	1.160734	-0.024136	0.348007
H321	H	0.713482	-0.475293	-0.142318
H322	H	1.213482	0.024707	0.357682
H323	H	0.713714	-0.514259	-0.100175
H324	H	1.213714	-0.014259	0.399825
H325	H	0.676406	-0.469876	-0.105225
H326	H	1.176406	0.030124	0.394775
H327	H	0.678068	-0.547684	-0.169324
H328	H	1.178068	-0.047684	0.330676
H329	H	0.640758	-0.503296	-0.174385
H330	H	1.140758	-0.003296	0.325615
H331	H	0.446189	-0.000068	0.450966
H332	H	0.946189	0.499932	0.950966
H333	H	0.191881	-0.130281	-0.063003
H334	H	0.691881	0.369719	0.436997
C335	C	0.705099	-0.000157	0.128698
C336	C	1.205099	0.499843	0.628698
C337	C	0.666744	-0.000153	0.090575
C338	C	1.166744	0.499847	0.590575
H339	H	0.735188	-0.000160	0.115729
H340	H	1.235188	0.499840	0.615729
H341	H	0.703057	-0.029745	0.148112
H342	H	1.203057	0.470255	0.648112
H343	H	0.703067	0.029439	0.148102
H344	H	1.203067	0.529439	0.648102
H345	H	0.668774	-0.029751	0.071172
H346	H	1.168774	0.470249	0.571172
H347	H	0.668786	0.029438	0.071153
H348	H	1.168786	0.529438	0.571153
H349	H	0.653186	-0.000138	0.187476
H350	H	1.153186	0.499862	0.687476
C351	C	0.396214	-0.000051	0.318222
C352	C	0.896214	0.499949	0.818222
C353	C	0.435235	-0.000063	0.290796
C354	C	0.935235	0.499937	0.790796
H355	H	0.366472	-0.000046	0.296983
H356	H	0.866472	0.499954	0.796983
H357	H	0.397858	0.029540	0.338133
H358	H	0.897858	0.529540	0.838133
H359	H	0.397843	-0.029644	0.338146
H360	H	0.897843	0.470356	0.838146
H361	H	0.433608	0.029532	0.270874
H362	H	0.933608	0.529532	0.770874
H363	H	0.433589	-0.029657	0.270877
H364	H	0.933589	0.470343	0.770877
C365	C	0.657139	-0.195585	-0.148443
C366	C	1.157139	0.304415	0.351557
C367	C	0.631610	-0.230324	-0.122891
C368	C	1.131610	0.269676	0.377109
H369	H	0.676883	-0.213697	-0.168204
H370	H	1.176883	0.286303	0.331796
H371	H	0.677110	-0.174754	-0.126056
H372	H	1.177110	0.325246	0.373944
H373	H	0.634734	-0.174751	-0.168404
H374	H	1.134734	0.325249	0.331596
H375	H	0.654015	-0.251155	-0.102927
H376	H	1.154015	0.248845	0.397073
H377	H	0.611637	-0.251164	-0.145281
H378	H	1.111637	0.248836	0.354719
H379	H	0.652438	-0.468407	-0.143700
H380	H	1.152438	0.031593	0.356300
H381	H	0.694301	-0.000132	0.485261
H382	H	1.194301	0.499868	0.985261
H383	H	0.493226	-0.000117	0.165375
H384	H	0.993226	0.499883	0.665375
H385	H	-0.050802	0.130065	-0.060533
H386	H	0.449198	0.630065	0.439467
H387	H	0.652449	-0.628656	-0.143694
H388	H	1.152449	-0.128656	0.356306
H389	H	0.623302	-0.125822	-0.114598
H390	H	1.123302	0.374178	0.385402
H391	H	0.332339	0.083838	-0.064461
H392	H	0.832339	0.583838	0.435539
H393	H	0.423804	0.083840	-0.065396
H394	H	0.923804	0.583840	0.434604
C395	C	0.398200	-0.137790	-0.065123
C396	C	0.898200	0.362210	0.434877
C397	C	0.430976	-0.097191	-0.065464
C398	C	0.930976	0.402809	0.434536
H399	H	0.415302	-0.169182	-0.065293
H400	H	0.915302	0.330818	0.434707
H401	H	0.374638	-0.135863	-0.093120
H402	H	0.874638	0.364137	0.406880
H403	H	0.382436	-0.135863	-0.036721
H404	H	0.882436	0.364137	0.463279
H405	H	0.446737	-0.099116	-0.093868
H406	H	0.946737	0.400884	0.406132
H407	H	0.454547	-0.099119	-0.037465
H408	H	0.954547	0.400881	0.462535
C409	C	0.435990	-0.000062	0.747744
C410	C	0.935990	0.499938	1.247744
C411	C	0.474344	-0.000074	0.785869
C412	C	0.974344	0.499926	1.285869
H413	H	0.405900	-0.000049	0.760711
H414	H	0.905900	0.499951	1.260711
H415	H	0.438016	-0.029654	0.728341
H416	H	0.938016	0.470346	1.228341
H417	H	0.438040	0.029530	0.728330
H418	H	0.938040	0.529530	1.228330
H419	H	0.472296	-0.029668	0.805282
H420	H	0.972296	0.470332	1.305282
H421	H	0.472317	0.029521	0.805281
H422	H	0.972317	0.529521	1.305281
C423	C	0.746823	-0.000148	0.366704
C424	C	1.246823	0.499852	0.866704
C425	C	0.708472	-0.000143	0.328578
C426	C	1.208472	0.499857	0.828578
H427	H	0.776914	-0.000149	0.353739
H428	H	1.276914	0.499851	0.853739
H429	H	0.744780	-0.029738	0.386116
H430	H	1.244780	0.470262	0.886116
H431	H	0.744788	0.029446	0.386110
H432	H	1.244788	0.529446	0.886110
H433	H	0.710504	-0.029740	0.309174
H434	H	1.210504	0.470260	0.809174
H435	H	0.710516	0.029449	0.309158
H436	H	1.210516	0.529449	0.809158
H437	H	0.652428	-0.371518	-0.143703
H438	H	1.152428	0.128482	0.356297
C439	C	0.394272	-0.000044	0.509737
C440	C	0.894272	0.499956	1.009737
C441	C	0.432625	-0.000055	0.547862
C442	C	0.932625	0.499945	1.047862
H443	H	0.364182	-0.000027	0.522704
H444	H	0.864182	0.499973	1.022704
H445	H	0.396295	-0.029639	0.490337
H446	H	0.896295	0.470361	0.990337
H447	H	0.396323	0.029545	0.490320
H448	H	0.896323	0.529545	0.990320
H449	H	0.430575	-0.029647	0.567277
H450	H	0.930575	0.470353	1.067277
H451	H	0.430600	0.029542	0.567271
H452	H	0.930600	0.529542	1.067271
H453	H	0.488671	-0.468459	0.020170
H454	H	0.988671	0.031541	0.520170
H455	H	0.332344	-0.084020	-0.064446
H456	H	0.832344	0.415980	0.435554
H457	H	0.623359	-0.777472	-0.114595
H458	H	1.123359	-0.277472	0.385405
H459	H	0.488676	-0.531815	0.020159
H460	H	0.988676	-0.031815	0.520159
H461	H	0.487905	-0.000075	0.688970
H462	H	0.987905	0.499925	1.188970
C463	C	0.015042	-0.184077	-0.061170
C464	C	0.515042	0.315923	0.438830
C465	C	0.047822	-0.143481	-0.061514
C466	C	0.547822	0.356519	0.438486
H467	H	0.032143	-0.215471	-0.061336
H468	H	0.532143	0.284529	0.438664
H469	H	-0.008518	-0.182151	-0.089168
H470	H	0.491482	0.317849	0.410832
H471	H	-0.000723	-0.182145	-0.032769
H472	H	0.499277	0.317855	0.467231
H473	H	0.063584	-0.145411	-0.089917
H474	H	0.563584	0.354589	0.410083
H475	H	0.071391	-0.145408	-0.033513
H476	H	0.571391	0.354592	0.466487
C477	C	-0.216836	-0.137843	-0.058825
C478	C	0.283164	0.362157	0.441175
C479	C	-0.184062	-0.097240	-0.059162
C480	C	0.315938	0.402760	0.440838
H481	H	-0.199730	-0.169234	-0.058990
H482	H	0.300270	0.330766	0.441010
H483	H	-0.240393	-0.135919	-0.086825
H484	H	0.259607	0.364081	0.413175
H485	H	-0.232605	-0.135916	-0.030426
H486	H	0.267395	0.364084	0.469574
H487	H	-0.168295	-0.099165	-0.087562
H488	H	0.331705	0.400835	0.412438
H489	H	-0.160496	-0.099165	-0.031159
H490	H	0.339504	0.400835	0.468841
C491	C	0.661817	0.043516	0.840807
C492	C	1.161817	0.543516	1.340807
C493	C	0.659419	-0.000109	0.811458
C494	C	1.159419	0.499891	1.311458
H495	H	0.691557	0.043517	0.862048
H496	H	1.191557	0.543517	1.362048
H497	H	0.635340	0.043514	0.859400
H498	H	1.135340	0.543514	1.359400
H499	H	0.660190	0.073103	0.820875
H500	H	1.160190	0.573103	1.320875
H501	H	0.661043	-0.029696	0.831391
H502	H	1.161043	0.470304	1.331391
H503	H	0.685904	-0.000112	0.792864
H504	H	1.185904	0.499888	1.292864
H505	H	0.100434	-0.130287	-0.062063
H506	H	0.600434	0.369713	0.437937
H507	H	0.693365	-0.000125	0.576721
H508	H	1.193365	0.499875	1.076721
H509	H	-0.282715	-0.084064	-0.058159
H510	H	0.217285	0.415936	0.441841
H511	H	0.488668	-0.371567	0.020169
H512	H	0.988668	0.128433	0.520169
H513	H	0.623364	-0.874380	-0.114591
H514	H	1.123364	-0.374380	0.385409
C515	C	0.248648	0.133489	-0.063586
C516	C	0.748648	0.633489	0.436414
C517	C	0.199076	0.143261	-0.063082
C518	C	0.699076	0.643261	0.436918
H519	H	0.265759	0.164879	-0.063756
H520	H	0.765759	0.664879	0.436244
H521	H	0.253005	0.114491	-0.091868
H522	H	0.753005	0.614491	0.408132
H523	H	0.260801	0.114475	-0.035469
H524	H	0.760801	0.614475	0.464531
H525	H	0.186923	0.162272	-0.091200
H526	H	0.686923	0.662272	0.408800
H527	H	0.194716	0.162267	-0.034796
H528	H	0.694716	0.662267	0.465204
C529	C	0.483902	-0.195665	0.024887
C530	C	0.983902	0.304335	0.524887
C531	C	0.509443	-0.230380	-0.000662
C532	C	1.009443	0.269620	0.499338
H533	H	0.464162	-0.213793	0.044648
H534	H	0.964162	0.286207	0.544648
H535	H	0.463925	-0.174836	0.002498
H536	H	0.963925	0.325164	0.502498
H537	H	0.506299	-0.174826	0.044848
H538	H	1.006299	0.325174	0.544848
H539	H	0.487046	-0.251217	-0.020626
H540	H	0.987046	0.248783	0.479374
H541	H	0.529422	-0.251217	0.021730
H542	H	1.029422	0.248783	0.521730
H543	H	0.100433	0.130077	-0.062078
H544	H	0.600433	0.630077	0.437922
C545	C	0.454859	-0.601604	0.054011
C546	C	0.954859	-0.101604	0.554011
C547	C	0.480396	-0.636320	0.028459
C548	C	0.980396	-0.136320	0.528459
H549	H	0.435121	-0.619732	0.073774
H550	H	0.935121	-0.119732	0.573774
H551	H	0.434880	-0.580775	0.031624
H552	H	0.934880	-0.080775	0.531624
H553	H	0.477259	-0.580766	0.073970
H554	H	0.977259	-0.080766	0.573970
H555	H	0.457997	-0.657156	0.008497
H556	H	0.957997	-0.157156	0.508497
H557	H	0.500377	-0.657158	0.050849
H558	H	1.000377	-0.157158	0.550849
H559	H	0.517782	-0.874407	-0.008960
H560	H	1.017782	-0.374407	0.491040
C561	C	0.483949	-0.804645	0.024885
C562	C	0.983949	-0.304645	0.524885
C563	C	0.509486	-0.769907	-0.000659
C564	C	1.009486	-0.269907	0.499341
H565	H	0.464196	-0.786534	0.044637
H566	H	0.964196	-0.286534	0.544637
H567	H	0.506345	-0.825477	0.044849
H568	H	1.006345	-0.325477	0.544849
H569	H	0.463981	-0.825479	0.002489
H570	H	0.963981	-0.325479	0.502489
H571	H	0.529457	-0.749076	0.021737
H572	H	1.029457	-0.249076	0.521737
H573	H	0.487087	-0.749067	-0.020625
H574	H	0.987087	-0.249067	0.479375
H575	H	0.517726	-0.125856	-0.008963
H576	H	1.017726	0.374144	0.491037
C577	C	0.709817	0.043481	0.463746
C578	C	1.209817	0.543481	0.963746
C579	C	0.707397	-0.000140	0.434391
C580	C	1.207397	0.499860	0.934391
H581	H	0.739564	0.043473	0.484976
H582	H	1.239564	0.543473	0.984976
H583	H	0.683348	0.043485	0.482350
H584	H	1.183348	0.543485	0.982350
H585	H	0.708189	0.073071	0.443817
H586	H	1.208189	0.573071	0.943817
H587	H	0.709021	-0.029730	0.454320
H588	H	1.209021	0.470270	0.954320
H589	H	0.733874	-0.000148	0.415785
H590	H	1.233874	0.499852	0.915785
H591	H	0.647864	-0.000121	0.711077
H592	H	1.147864	0.499879	1.211077
