data_functionalizedCrystal
_audit_creation_method	'MofGen! by Chris Wilmer'
_symmetry_space_group_name_H-M	'P1'
_symmetry_Int_Tables_number	1
_symmetry_cell_setting	triclinic
loop_
_symmetry_equiv_pos_as_xyz
  x,y,z
_cell_length_a	7.190339
_cell_length_b	13.635800
_cell_length_c	7.190334
_cell_angle_alpha	60.611776
_cell_angle_beta	82.319600
_cell_angle_gamma	60.611724
loop_
_atom_site_label
_atom_site_type_symbol
_atom_site_fract_x
_atom_site_fract_y
_atom_site_fract_z
V1	V	0.291701	-2.154325	0.663510
O2	O	-0.017518	-2.100792	0.652431
O3	O	0.581760	-2.172020	0.657480
O4	O	0.285678	-2.172022	0.953571
O5	O	0.280614	-2.100790	0.354291
V6	V	0.254896	-2.385281	0.626707
O7	O	0.372435	-2.308656	0.744243
O8	O	0.174162	-2.456048	0.545974
O9	O	-0.035163	-2.255982	0.632737
O10	O	0.564115	-2.497512	0.637786
O11	O	0.265983	-2.497514	0.935926
O12	O	0.260919	-2.255980	0.336646
V13	V	0.291701	-1.654325	0.663510
O14	O	-0.017518	-1.600792	0.652431
O15	O	0.581760	-1.672020	0.657480
O16	O	0.285678	-1.672022	0.953571
O17	O	0.280614	-1.600790	0.354291
V18	V	0.254896	-1.885281	0.626707
O19	O	0.372435	-1.808656	0.744243
O20	O	0.174162	-1.956048	0.545974
O21	O	-0.035163	-1.755982	0.632737
O22	O	0.564115	-1.997512	0.637786
O23	O	0.265983	-1.997514	0.935926
O24	O	0.260919	-1.755980	0.336646
C25	C	0.652521	-2.103367	0.646638
C26	C	0.894096	-2.159800	0.643590
C27	C	-0.105911	-1.656324	0.643585
C28	C	-0.347478	-1.589329	0.646683
C29	C	0.274825	-2.103363	1.024318
C30	C	0.271761	-2.159792	1.265891
C31	C	0.274825	-1.603363	1.024318
C32	C	0.271761	-1.659792	1.265891
