data_functionalizedCrystal
_audit_creation_method	'MofGen! by Chris Wilmer'
_symmetry_space_group_name_H-M	'P1'
_symmetry_Int_Tables_number	1
_symmetry_cell_setting	triclinic
loop_
_symmetry_equiv_pos_as_xyz
  x,y,z
_cell_length_a	12.594517
_cell_length_b	11.169416
_cell_length_c	11.169409
_cell_angle_alpha	89.969126
_cell_angle_beta	90.013636
_cell_angle_gamma	89.993774
loop_
_atom_site_label
_atom_site_type_symbol
_atom_site_fract_x
_atom_site_fract_y
_atom_site_fract_z
Zn1	Zn	1.627332	0.477842	0.678357
Zn2	Zn	1.627234	0.678582	0.477679
Zn3	Zn	1.449329	0.477897	0.477713
Zn4	Zn	1.449336	0.678467	0.678345
O5	O	1.538308	0.578197	0.578023
O6	O	1.776265	0.504495	0.651727
O7	O	1.603590	0.652033	0.309733
O8	O	1.472980	0.309940	0.504348
O9	O	1.776192	0.651979	0.504290
O10	O	1.603758	0.309899	0.651760
O11	O	1.472885	0.504590	0.309758
O12	O	1.300384	0.504479	0.504337
O13	O	1.472991	0.651782	0.846297
O14	O	1.300389	0.651836	0.651740
O15	O	1.603764	0.504384	0.846305
O16	O	1.603597	0.846517	0.504279
O17	O	1.472896	0.846432	0.651707
C18	C	1.261767	0.578152	0.578042
C19	C	1.143461	0.578161	0.578078
C20	C	1.074242	0.658466	0.658096
C21	C	1.003424	0.549036	0.687609
C22	C	1.003479	0.687682	0.548538
C23	C	1.074202	0.468672	0.607649
C24	C	1.074263	0.607393	0.468526
C25	C	1.003478	0.497887	0.497998
C26	C	1.538265	0.890022	0.578014
C27	C	1.538345	1.023422	0.578050
C28	C	1.538389	0.578064	0.891066
C29	C	1.538424	0.578007	1.024466
C30	C	1.815928	0.578244	0.578006
C31	C	1.934234	0.578263	0.577998
C32	C	1.538379	0.265155	0.578059
C33	C	1.538409	0.131755	0.578074
C34	C	1.538287	0.578243	0.266199
C35	C	1.538459	0.577962	0.132799
H36	H	0.972408	0.780259	0.523589
Br37	Br	1.126124	0.648571	0.314183
Br38	Br	0.952014	0.384647	0.385152
Br39	Br	1.126031	0.771445	0.771017
H40	H	0.972308	0.524347	0.780221
H41	H	1.105138	0.376067	0.632705
