data_functionalizedCrystal
_audit_creation_method	'MofGen! by Chris Wilmer'
_symmetry_space_group_name_H-M	'P1'
_symmetry_Int_Tables_number	1
_symmetry_cell_setting	triclinic
loop_
_symmetry_equiv_pos_as_xyz
  x,y,z
_cell_length_a	16.992694
_cell_length_b	12.837942
_cell_length_c	15.455313
_cell_angle_alpha	92.949088
_cell_angle_beta	87.142206
_cell_angle_gamma	92.748582
loop_
_atom_site_label
_atom_site_type_symbol
_atom_site_fract_x
_atom_site_fract_y
_atom_site_fract_z
O1	O	1.060029	0.216906	-0.072020
O2	O	0.831564	0.214478	-0.072045
O3	O	0.940730	0.064370	-0.072028
O4	O	0.950863	0.367014	-0.072037
O5	O	0.934485	0.072916	0.072233
O6	O	0.825318	0.223024	0.072216
O7	O	1.053784	0.225452	0.072241
Cu8	Cu	0.938981	0.225018	0.085401
Cu9	Cu	0.946367	0.214912	-0.085205
O10	O	0.944617	0.375560	0.072224
C11	C	0.798995	0.215629	0.000082
C12	C	0.711256	0.206315	0.000072
C13	C	0.667730	0.296178	0.000070
C14	C	0.585288	0.287422	0.000082
C15	C	0.546375	0.188801	0.000091
C16	C	0.589907	0.098931	0.000095
C17	C	0.672346	0.107689	0.000089
C18	C	0.300064	0.152503	0.000115
C19	C	0.217618	0.143751	0.000118
C20	C	0.213006	0.332243	0.000107
C21	C	0.295447	0.340992	0.000096
C22	C	0.338972	0.251123	0.000105
N23	N	0.462107	0.179848	0.000100
N24	N	0.423238	0.260077	0.000102
C25	C	0.934185	0.029739	0.000102
C26	C	0.923977	-0.086184	0.000099
C27	C	1.046699	-0.316976	0.000095
C28	C	1.037111	-0.425897	0.000093
C29	C	0.895215	-0.412947	0.000086
C30	C	0.904802	-0.304027	0.000088
C31	C	0.980547	-0.256046	0.000094
C32	C	0.990134	-0.147123	0.000103
C33	C	0.848238	-0.134176	0.000090
C34	C	0.838650	-0.243096	0.000087
C35	C	1.086352	0.224301	0.000112
C36	C	1.174092	0.233614	0.000116
C37	C	0.951163	0.410191	0.000092
C38	C	0.961371	0.526114	0.000089
N39	N	0.933792	0.232127	0.205396
N40	N	0.951562	0.207795	-0.205199
C41	C	0.980189	0.168382	0.250797
C42	C	0.976273	0.173768	0.341604
C43	C	0.925963	0.242905	0.387008
C44	C	0.879560	0.306652	0.341600
C45	C	0.883473	0.301260	0.250795
C46	C	0.909072	0.266151	0.658587
C47	C	0.905164	0.271540	0.749399
C48	C	1.001877	0.138654	0.749397
C49	C	1.005788	0.133273	0.658589
C50	C	0.959383	0.197016	0.613189
N51	N	0.921960	0.248414	0.479828
N52	N	0.963381	0.191501	0.520371
H53	H	0.177559	0.405409	0.000101
H54	H	0.871288	0.318055	0.621630
H55	H	1.108372	-0.277909	0.000108
C56	C	0.830626	0.373931	0.480798
C57	C	0.824259	0.382652	0.391507
H58	H	0.796489	0.420858	0.511605
H59	H	0.816215	0.304492	0.495688
H60	H	0.883491	0.390546	0.495659
H61	H	0.771395	0.366029	0.376644
H62	H	0.838665	0.452106	0.376611
C63	C	0.668631	-0.079505	0.000086
C64	C	0.720194	0.008908	0.000084
H65	H	0.698171	-0.140489	0.000079
H66	H	0.634213	-0.076022	0.050393
H67	H	0.638549	-0.081973	-0.050222
H68	H	0.750272	0.011380	0.050395
H69	H	0.754626	0.005424	-0.050228
C70	C	0.978410	0.039292	0.443724
C71	C	1.027281	0.103698	0.391503
H72	H	1.009904	-0.003973	0.474522
H73	H	0.947895	0.081231	0.483761
H74	H	0.944296	-0.003075	0.408299
H75	H	1.061391	0.146071	0.426929
H76	H	1.057809	0.061755	0.351461
C77	C	0.754568	0.419770	0.074209
C78	C	0.710504	0.404584	0.000058
H79	H	0.780977	0.486695	0.074198
H80	H	0.720334	0.415424	0.124511
H81	H	0.792288	0.367498	0.074199
H82	H	0.672780	0.456853	0.000071
H83	H	0.744741	0.408940	-0.050257
C84	C	0.503080	-0.024662	-0.074057
C85	C	0.547135	-0.009477	0.000102
H86	H	0.476680	-0.091593	-0.074055
H87	H	0.465361	0.027597	-0.074051
H88	H	0.537325	-0.020307	-0.124358
H89	H	0.512889	-0.013825	0.050404
H90	H	0.584859	-0.061751	0.000104
C91	C	0.382317	0.464588	0.074200
C92	C	0.338237	0.449387	0.000061
H93	H	0.408741	0.531502	0.074163
H94	H	0.348090	0.460278	0.124510
H95	H	0.420023	0.412300	0.074200
H96	H	0.300526	0.501671	0.000065
H97	H	0.372467	0.453707	-0.050262
C98	C	0.589010	0.474613	0.000059
C99	C	0.537445	0.386202	0.000076
H100	H	0.559472	0.535597	0.000051
H101	H	0.619090	0.477093	0.050359
H102	H	0.623431	0.471114	-0.050256
H103	H	0.503027	0.389697	0.050394
H104	H	0.507351	0.383723	-0.050230
H105	H	0.833547	-0.452034	0.000071
H106	H	1.046755	0.076976	0.621623
H107	H	0.794372	-0.084554	0.000096
H108	H	0.845690	0.353166	0.213830
H109	H	0.185938	0.063438	0.000124
C110	C	1.105438	-0.551514	0.074250
C111	C	1.109825	-0.492876	0.000095
H112	H	1.150329	-0.592869	0.074246
H113	H	1.104059	-0.505778	0.124549
H114	H	1.058955	-0.595677	0.074239
H115	H	1.156306	-0.448708	0.000110
H116	H	1.111212	-0.538618	-0.050217
H117	H	1.039657	0.086756	0.786370
H118	H	0.776981	-0.282178	0.000079
H119	H	0.335492	0.079324	0.000123
C120	C	1.075384	0.037565	0.259925
C121	C	1.035491	0.092382	0.200893
H122	H	1.109520	-0.009362	0.229117
H123	H	1.105481	0.085459	0.295330
H124	H	1.038204	-0.000594	0.295354
H125	H	1.072671	0.130546	0.165468
H126	H	1.005392	0.044481	0.165474
C127	C	0.809934	0.402329	0.740285
C128	C	0.849846	0.347525	0.799309
H129	H	0.775780	0.449228	0.771100
H130	H	0.847095	0.440506	0.704862
H131	H	0.779845	0.354416	0.704873
H132	H	0.879940	0.395438	0.834717
H133	H	0.812679	0.309346	0.834747
C134	C	1.129428	-0.170868	0.000093
C135	C	1.073390	-0.094379	0.000101
H136	H	1.180828	-0.138306	0.000083
H137	H	1.120568	-0.210101	0.050397
H138	H	1.124900	-0.216061	-0.050217
H139	H	1.077914	-0.049190	0.050414
H140	H	1.082254	-0.055129	-0.050209
