data_functionalizedCrystal
_audit_creation_method	'MofGen! by Chris Wilmer'
_symmetry_space_group_name_H-M	'P1'
_symmetry_Int_Tables_number	1
_symmetry_cell_setting	triclinic
loop_
_symmetry_equiv_pos_as_xyz
  x,y,z
_cell_length_a	15.944551
_cell_length_b	15.944551
_cell_length_c	11.295483
_cell_angle_alpha	94.094426
_cell_angle_beta	85.898838
_cell_angle_gamma	83.498738
loop_
_atom_site_label
_atom_site_type_symbol
_atom_site_fract_x
_atom_site_fract_y
_atom_site_fract_z
O1	O	1.120175	0.102683	-0.098903
O2	O	0.875627	0.116037	-0.098932
O3	O	1.004578	-0.012914	-0.098906
O4	O	0.991223	0.231634	-0.098929
O5	O	0.993252	-0.001606	0.099142
O6	O	0.864301	0.127346	0.099116
O7	O	1.108849	0.113991	0.099146
Cu8	Cu	0.985540	0.121701	0.117214
Cu9	Cu	0.998935	0.108327	-0.117001
O10	O	0.979897	0.242943	0.099119
C11	C	0.838670	0.121137	0.000088
C12	C	0.745425	0.119474	0.000077
C13	C	0.530566	0.035571	0.000108
C14	C	0.475131	0.068958	-0.097544
C15	C	0.574698	0.116467	0.000091
C16	C	0.463986	0.080126	0.097716
C17	C	0.409784	0.113558	0.000110
C18	C	0.520495	0.149871	-0.097641
C19	C	0.509352	0.161034	0.097707
C20	C	0.453936	0.194478	0.000031
C21	C	0.669701	0.118141	0.000079
C22	C	0.314783	0.111890	0.000114
C23	C	0.998361	-0.038554	0.000118
C24	C	0.996698	-0.131800	0.000119
C25	C	0.912795	-0.346658	0.000092
C26	C	0.946173	-0.402099	0.097747
C27	C	0.993692	-0.302526	0.000109
C28	C	0.957359	-0.413232	-0.097513
C29	C	0.990782	-0.467440	0.000095
C30	C	1.027087	-0.356735	0.097845
C31	C	1.038266	-0.367866	-0.097503
C32	C	1.071701	-0.423288	0.000175
C33	C	0.995366	-0.207523	0.000119
C34	C	0.989113	-0.562441	0.000094
C35	C	1.145806	0.108892	0.000123
C36	C	1.239051	0.110554	0.000126
C37	C	0.986115	0.268582	0.000092
C38	C	0.987778	0.361828	0.000084
N39	N	0.976126	0.131107	0.281949
N40	N	1.008356	0.098915	-0.281735
C41	C	1.076129	0.031159	0.531259
C42	C	1.069020	0.038273	0.655921
C43	C	0.954796	0.152445	0.655938
C44	C	0.961904	0.145331	0.531275
C45	C	1.022574	0.084687	0.468940
C46	C	1.029686	0.077577	0.344276
C47	C	0.915458	0.191744	0.344295
C48	C	0.908349	0.198858	0.468957
H49	H	0.459741	0.030028	-0.180096
N50	N	0.553219	0.188896	-0.207134
H51	H	0.524620	0.248720	-0.207481
H52	H	0.616429	0.189691	-0.206426
N53	N	0.410009	0.283492	-0.000041
H54	H	0.430698	0.309716	-0.073834
H55	H	0.346838	0.281859	0.000705
N56	N	1.126792	-0.019452	0.723136
H57	H	1.091749	-0.053713	0.774869
H58	H	1.166291	-0.058891	0.664649
N59	N	0.529740	0.212587	0.207055
H60	H	0.509213	0.186191	0.280784
H61	H	0.592993	0.213786	0.205742
H62	H	0.905394	0.201814	0.706707
N63	N	0.431121	0.041035	0.207070
H64	H	0.459292	-0.018986	0.206983
H65	H	0.444223	0.075255	0.280760
N66	N	0.842920	0.264270	0.536187
H67	H	0.784543	0.253328	0.514503
H68	H	0.846614	0.260626	0.624596
N69	N	1.160715	-0.467214	0.000264
H70	H	1.159152	-0.530395	-0.000434
H71	H	1.195650	-0.454088	-0.072773
N72	N	0.857687	0.249488	0.277092
H73	H	0.892737	0.283747	0.225365
H74	H	0.823453	0.214366	0.225444
H75	H	0.845642	-0.313345	0.000181
N76	N	0.894608	-0.422485	0.207106
H77	H	0.834594	-0.394327	0.207031
H78	H	0.894391	-0.485825	0.206638
H79	H	1.079089	0.028200	0.293524
H80	H	1.125534	-0.018214	0.480505
N81	N	0.574685	-0.053381	0.000009
H82	H	0.562524	-0.088046	-0.073818
H83	H	0.637749	-0.051528	0.000810
H84	H	1.056548	-0.332025	0.180495
N85	N	1.089805	-0.347445	-0.206857
H86	H	1.053089	-0.309267	-0.254930
H87	H	1.139215	-0.317842	-0.181883
N88	N	0.918276	-0.446093	-0.206865
H89	H	0.858255	-0.417923	-0.206780
H90	H	0.952502	-0.432988	-0.280557
