data_functionalizedCrystal
_audit_creation_method	'MofGen! by Chris Wilmer'
_symmetry_space_group_name_H-M	'P1'
_symmetry_Int_Tables_number	1
_symmetry_cell_setting	triclinic
loop_
_symmetry_equiv_pos_as_xyz
  x,y,z
_cell_length_a	19.288864
_cell_length_b	15.021413
_cell_length_c	15.944551
_cell_angle_alpha	89.996935
_cell_angle_beta	83.317492
_cell_angle_gamma	90.021132
loop_
_atom_site_label
_atom_site_type_symbol
_atom_site_fract_x
_atom_site_fract_y
_atom_site_fract_z
O1	O	0.921628	0.074319	0.104771
O2	O	0.719405	0.074259	0.118906
O3	O	0.826039	0.074283	-0.010457
O4	O	0.814994	0.074296	0.234135
O5	O	0.826022	-0.073781	-0.010439
O6	O	0.719388	-0.073805	0.118925
O7	O	0.921611	-0.073745	0.104790
Zn8	Zn	0.820497	-0.097283	0.111860
Zn9	Zn	0.820519	0.097798	0.111836
O10	O	0.814977	-0.073769	0.234153
C11	C	0.693519	0.000219	0.118461
C12	C	0.616411	0.000196	0.117095
N13	N	0.820487	-0.230421	0.111876
C14	C	0.571915	0.000214	0.193000
C15	C	0.499465	0.000223	0.191717
C16	C	0.471514	0.000233	0.114526
C17	C	0.516020	0.000210	0.038611
C18	C	0.588469	0.000191	0.039896
C19	C	0.363098	0.052133	0.053838
C20	C	0.290650	0.052157	0.052556
C21	C	0.248058	0.000287	0.110560
C22	C	0.277921	-0.051597	0.169859
C23	C	0.350370	-0.051616	0.171144
C24	C	0.392956	0.000253	0.113124
C25	C	0.125002	0.000314	0.185079
C26	C	0.052550	0.000318	0.183793
C27	C	0.069107	0.000314	0.030684
C28	C	0.141557	0.000301	0.031972
C29	C	0.169500	0.000305	0.109172
C30	C	0.771171	-0.470115	0.171666
C31	C	0.833935	-0.529430	0.187731
C32	C	0.820504	-0.412028	0.111855
C33	C	0.757758	-0.529455	0.095808
C34	C	0.820516	-0.587452	0.111837
C35	C	0.883300	-0.470036	0.127958
C36	C	0.807081	-0.470056	0.036003
C37	C	0.869890	-0.529344	0.052035
C38	C	0.820497	-0.310971	0.111868
C39	C	0.820531	-0.688507	0.111823
C40	C	0.947497	0.000297	0.105235
C41	C	1.024605	0.000326	0.106600
C42	C	0.825572	0.000250	-0.041740
C43	C	0.824197	0.000250	-0.134981
N44	N	0.820535	0.230935	0.111813
C45	C	0.754815	0.000241	-0.349571
C46	C	0.787025	-0.072754	-0.410703
C47	C	0.821710	0.000256	-0.305697
C48	C	0.787058	0.073226	-0.410705
C49	C	0.819303	0.000265	-0.470601
C50	C	0.853939	-0.072800	-0.365602
C51	C	0.853962	0.073246	-0.365597
C52	C	0.886222	0.000233	-0.426712
C53	C	0.823095	0.000249	-0.210700
C54	C	0.817924	0.000265	-0.565597
C55	C	0.815444	0.000266	0.265436
C56	C	0.816819	0.000272	0.358677
H57	H	0.594661	0.000219	0.255862
C58	C	0.961298	0.000198	-0.471805
N59	N	1.017845	0.000166	-0.505773
C60	C	0.748791	-0.156144	-0.437715
N61	N	0.719989	-0.218949	-0.458059
C62	C	0.892163	0.156643	-0.338555
N63	N	0.920930	0.219465	-0.318185
H64	H	0.758762	0.134941	-0.430680
C65	C	0.450510	0.000254	0.275222
N66	N	0.413639	0.000281	0.338117
H67	H	0.882202	-0.134579	-0.345712
C68	C	0.383217	-0.108696	0.236364
N69	N	0.407958	-0.151694	0.285485
H70	H	0.493258	0.000230	-0.024239
H71	H	0.624699	0.000177	-0.021917
H72	H	0.147754	0.000304	0.247939
C73	C	0.231074	-0.108663	0.233666
N74	N	0.195787	-0.151643	0.281723
C75	C	0.714872	-0.434971	0.240051
N76	N	0.672471	-0.408497	0.291560
H77	H	0.704689	-0.555557	0.082245
C78	C	0.849283	-0.564672	0.274378
N79	N	0.860838	-0.591217	0.339641
C80	C	0.955008	-0.434928	0.146391
N81	N	1.009017	-0.408482	0.160279
C82	C	0.926319	-0.564272	-0.016303
N83	N	0.968823	-0.590586	-0.067770
C84	C	0.190505	0.000291	-0.051530
N85	N	0.227373	0.000283	-0.114428
C86	C	0.003603	0.000325	0.267299
N87	N	-0.033264	0.000327	0.330197
H88	H	0.046351	0.000377	-0.032167
H89	H	0.699288	0.000151	-0.316049
H90	H	0.795697	-0.443956	-0.028116
H91	H	0.266341	0.094408	0.004275
C92	C	0.409943	0.109203	-0.009971
N93	N	0.445225	0.152188	-0.058030
