data_functionalizedCrystal
_audit_creation_method	'MofGen! by Chris Wilmer'
_symmetry_space_group_name_H-M	'P1'
_symmetry_Int_Tables_number	1
_symmetry_cell_setting	triclinic
loop_
_symmetry_equiv_pos_as_xyz
  x,y,z
_cell_length_a	19.805405
_cell_length_b	19.805407
_cell_length_c	19.805382
_cell_angle_alpha	90.073245
_cell_angle_beta	89.897720
_cell_angle_gamma	89.973590
loop_
_atom_site_label
_atom_site_type_symbol
_atom_site_fract_x
_atom_site_fract_y
_atom_site_fract_z
Zn1	Zn	-0.268991	-1.035094	-0.382713
Zn2	Zn	0.064342	-0.701761	-0.049379
Zn3	Zn	0.397675	-0.368428	0.283954
Zn4	Zn	-0.382324	-1.034903	-0.269521
Zn5	Zn	-0.048990	-0.701570	0.063813
Zn6	Zn	0.284343	-0.368236	0.397146
Zn7	Zn	-0.269154	-0.921803	-0.269537
Zn8	Zn	0.064179	-0.588470	0.063796
Zn9	Zn	0.397513	-0.255136	0.397130
Zn10	Zn	-0.382144	-0.921873	-0.382668
Zn11	Zn	-0.048810	-0.588539	-0.049334
Zn12	Zn	0.284523	-0.255206	0.283999
O13	O	-0.325653	-0.978418	-0.326110
O14	O	0.007680	-0.645085	0.007224
O15	O	0.341013	-0.311752	0.340557
O16	O	-0.284032	-1.129786	-0.367710
O17	O	0.049301	-0.796452	-0.034376
O18	O	0.382634	-0.463119	0.298957
O19	O	-0.367455	-1.019791	-0.174806
O20	O	-0.034122	-0.686458	0.158527
O21	O	0.299211	-0.353124	0.491861
O22	O	-0.174416	-0.936882	-0.284576
O23	O	0.158917	-0.603549	0.048758
O24	O	0.492251	-0.270216	0.382091
O25	O	-0.367297	-1.129645	-0.284548
O26	O	-0.033964	-0.796312	0.048785
O27	O	0.299369	-0.462978	0.382119
O28	O	-0.174296	-1.020117	-0.367725
O29	O	0.159037	-0.686784	-0.034392
O30	O	0.492370	-0.353450	0.298941
O31	O	-0.284310	-0.936697	-0.174818
O32	O	0.049023	-0.603363	0.158515
O33	O	0.382357	-0.270030	0.491849
O34	O	-0.284135	-0.827096	-0.284532
O35	O	0.049198	-0.493762	0.048801
O36	O	0.382531	-0.160429	0.382135
O37	O	-0.366990	-0.937001	-0.477391
O38	O	-0.033657	-0.603667	-0.144057
O39	O	0.299676	-0.270334	0.189276
O40	O	-0.367148	-0.827147	-0.367649
O41	O	-0.033815	-0.493813	-0.034315
O42	O	0.299519	-0.160480	0.299018
O43	O	-0.283858	-1.020184	-0.477424
O44	O	0.049476	-0.686851	-0.144090
O45	O	0.382809	-0.353518	0.189243
O46	O	-0.477017	-1.019858	-0.284504
O47	O	-0.143683	-0.686525	0.048829
O48	O	0.189650	-0.353192	0.382162
O49	O	-0.476884	-0.936815	-0.367633
O50	O	-0.143551	-0.603482	-0.034300
O51	O	0.189782	-0.270149	0.299034
C52	C	-0.325640	-0.802562	-0.326088
C53	C	0.007693	-0.469229	0.007246
C54	C	0.341026	-0.135896	0.340579
C55	C	-0.325651	-0.727330	-0.326094
C56	C	0.007682	-0.393997	0.007239
C57	C	0.341016	-0.060664	0.340572
C58	C	-0.501509	-0.978342	-0.326077
C59	C	-0.168176	-0.645009	0.007257
C60	C	0.165157	-0.311675	0.340590
C61	C	-0.576741	-0.978371	-0.326085
C62	C	-0.243408	-0.645038	0.007248
C63	C	0.089925	-0.311705	0.340581
C64	C	-0.325386	-0.978622	-0.502653
C65	C	0.007948	-0.645288	-0.169320
C66	C	0.341281	-0.311955	0.164014
C67	C	-0.325272	-0.978708	-0.577885
C68	C	0.008062	-0.645375	-0.244552
C69	C	0.341395	-0.312042	0.088782
C70	C	-0.612132	-1.021654	-0.282846
C71	C	-0.278798	-0.688321	0.050488
C72	C	0.054535	-0.354987	0.383821
C73	C	-0.682820	-1.021683	-0.282861
C74	C	-0.349487	-0.688349	0.050473
C75	C	-0.016154	-0.355016	0.383806
C76	C	-0.718117	-0.978425	-0.326112
C77	C	-0.384783	-0.645092	0.007221
C78	C	-0.051450	-0.311758	0.340554
C79	C	-0.682721	-0.935140	-0.369357
C80	C	-0.349388	-0.601807	-0.036024
C81	C	-0.016055	-0.268474	0.297310
C82	C	-0.612034	-0.935116	-0.369345
C83	C	-0.278701	-0.601782	-0.036012
C84	C	0.054632	-0.268449	0.297322
C85	C	-0.967794	-0.935240	-0.369407
C86	C	-0.634461	-0.601907	-0.036074
C87	C	-0.301128	-0.268574	0.297260
C88	C	-1.038487	-0.935267	-0.369414
C89	C	-0.705153	-0.601934	-0.036081
C90	C	-0.371820	-0.268600	0.297252
C91	C	-1.038580	-1.021808	-0.282923
C92	C	-0.705247	-0.688474	0.050410
C93	C	-0.371914	-0.355141	0.383744
C94	C	-0.967893	-1.021783	-0.282911
C95	C	-0.634560	-0.688449	0.050423
C96	C	-0.301227	-0.355116	0.383756
C97	C	-0.932504	-0.978501	-0.326158
C98	C	-0.599171	-0.645168	0.007176
C99	C	-0.265837	-0.311834	0.340509
C100	C	-0.855856	-0.978471	-0.326142
C101	C	-0.522522	-0.645138	0.007192
C102	C	-0.189189	-0.311805	0.340525
C103	C	-0.794764	-0.978451	-0.326125
C104	C	-0.461431	-0.645118	0.007208
C105	C	-0.128097	-0.311784	0.340541
C106	C	-0.149110	-0.978513	-0.326157
C107	C	0.184223	-0.645180	0.007176
C108	C	0.517556	-0.311847	0.340509
C109	C	-0.073878	-0.978554	-0.326178
C110	C	0.259455	-0.645220	0.007156
C111	C	0.592788	-0.311887	0.340489
C112	C	-0.325667	-1.154961	-0.326132
C113	C	0.007667	-0.821628	0.007201
C114	C	0.341000	-0.488294	0.340535
C115	C	-0.325672	-1.230193	-0.326141
C116	C	0.007661	-0.896860	0.007192
C117	C	0.340994	-0.563526	0.340525
C118	C	-0.368941	-0.692030	-0.369303
C119	C	-0.035608	-0.358697	-0.035970
C120	C	0.297726	-0.025364	0.297363
C121	C	-0.368942	-0.621342	-0.369313
C122	C	-0.035609	-0.288009	-0.035979
C123	C	0.297724	0.045325	0.297354
C124	C	-0.325656	-0.585955	-0.326110
C125	C	0.007677	-0.252621	0.007224
C126	C	0.341010	0.080712	0.340557
C127	C	-0.282361	-0.621260	-0.282899
C128	C	0.050972	-0.287926	0.050435
C129	C	0.384305	0.045407	0.383768
C130	C	-0.282357	-0.691947	-0.282893
C131	C	0.050976	-0.358613	0.050440
C132	C	0.384309	-0.025280	0.383773
C133	C	-0.282376	-0.336186	-0.282921
C134	C	0.050957	-0.002853	0.050412
C135	C	0.384290	0.330480	0.383745
C136	C	-0.282385	-0.265494	-0.282929
C137	C	0.050948	0.067839	0.050405
C138	C	0.384281	0.401173	0.383738
C139	C	-0.368961	-0.265581	-0.369341
C140	C	-0.035628	0.067752	-0.036007
C141	C	0.297705	0.401085	0.297326
C142	C	-0.368957	-0.336269	-0.369335
C143	C	-0.035624	-0.002935	-0.036002
C144	C	0.297709	0.330398	0.297332
C145	C	-0.325660	-0.371567	-0.326127
C146	C	0.007673	-0.038234	0.007206
C147	C	0.341006	0.295099	0.340539
C148	C	-0.325659	-0.448216	-0.326118
C149	C	0.007675	-0.114882	0.007215
C150	C	0.341008	0.218451	0.340548
C151	C	-0.325661	-0.509308	-0.326115
C152	C	0.007672	-0.175974	0.007219
C153	C	0.341006	0.157359	0.340552
C154	C	-0.325871	-0.978255	-0.150253
C155	C	0.007462	-0.644921	0.183080
C156	C	0.340796	-0.311588	0.516414
C157	C	-0.325794	-0.978299	-0.075021
C158	C	0.007539	-0.644966	0.258312
C159	C	0.340872	-0.311632	0.591645
C160	C	-0.281715	-1.021674	0.386560
C161	C	0.051619	-0.688341	0.719893
C162	C	0.384952	-0.355008	1.053226
C163	C	-0.281786	-1.021614	0.315872
C164	C	0.051547	-0.688281	0.649205
C165	C	0.384881	-0.354948	0.982538
C166	C	-0.325418	-0.978591	0.280740
C167	C	0.007915	-0.645258	0.614073
C168	C	0.341248	-0.311924	0.947406
C169	C	-0.368977	-0.935620	0.316300
C170	C	-0.035644	-0.602287	0.649633
C171	C	0.297689	-0.268954	0.982966
C172	C	-0.368902	-0.935678	0.386987
C173	C	-0.035569	-0.602344	0.720320
C174	C	0.297765	-0.269011	1.053653
C175	C	-0.369282	-0.935388	0.031227
C176	C	-0.035948	-0.602055	0.364560
C177	C	0.297385	-0.268722	0.697894
C178	C	-0.369355	-0.935336	-0.039465
C179	C	-0.036022	-0.602003	0.293868
C180	C	0.297312	-0.268669	0.627202
C181	C	-0.282166	-1.021325	-0.039888
C182	C	0.051168	-0.687992	0.293445
C183	C	0.384501	-0.354658	0.626779
C184	C	-0.282090	-1.021382	0.030799
C185	C	0.051243	-0.688049	0.364132
C186	C	0.384576	-0.354716	0.697466
C187	C	-0.325647	-0.978409	0.066353
C188	C	0.007687	-0.645076	0.399686
C189	C	0.341020	-0.311743	0.733019
C190	C	-0.325568	-0.978474	0.143001
C191	C	0.007766	-0.645141	0.476334
C192	C	0.341099	-0.311807	0.809668
C193	C	-0.325501	-0.978529	0.204093
C194	C	0.007832	-0.645196	0.537426
C195	C	0.341165	-0.311863	0.870759
H196	H	-0.583398	-1.056876	-0.247622
H197	H	-0.250065	-0.723543	0.085711
H198	H	0.083269	-0.390210	0.419045
C199	C	-0.234093	-1.068705	0.069441
C200	C	0.099241	-0.735372	0.402774
C201	C	0.432574	-0.402038	0.736107
H202	H	-0.208157	-1.094281	0.038141
H203	H	0.125177	-0.760948	0.371474
H204	H	0.458510	-0.427615	0.704807
H205	H	-0.259739	-1.098392	0.097029
H206	H	0.073594	-0.765059	0.430363
H207	H	0.406927	-0.431725	0.763696
H208	H	-0.204758	-1.042630	0.096984
H209	H	0.128576	-0.709297	0.430317
H210	H	0.461909	-0.375963	0.763650
H211	H	-0.246698	-1.056313	-0.068844
H212	H	0.086635	-0.722980	0.264489
H213	H	0.419969	-0.389647	0.597822
C214	C	-0.233877	-1.068880	0.276764
C215	C	0.099457	-0.735547	0.610097
C216	C	0.432790	-0.402214	0.943430
H217	H	-0.207887	-1.094518	0.307811
H218	H	0.125446	-0.761184	0.641144
H219	H	0.458780	-0.427851	0.974478
H220	H	-0.204598	-1.042772	0.249160
H221	H	0.128735	-0.709439	0.582493
H222	H	0.462068	-0.376106	0.915827
H223	H	-0.259592	-1.098523	0.249201
H224	H	0.073742	-0.765189	0.582534
H225	H	0.407075	-0.431856	0.915867
H226	H	-0.939157	-1.057005	-0.247689
H227	H	-0.605824	-0.723671	0.085644
H228	H	-0.272490	-0.390338	0.418978
H229	H	-0.404364	-0.900683	0.415935
H230	H	-0.071030	-0.567350	0.749268
H231	H	0.262303	-0.234017	1.082601
C232	C	-1.077510	-1.069422	-0.235356
C233	C	-0.744177	-0.736089	0.097977
C234	C	-0.410844	-0.402755	0.431311
H235	H	-1.124664	-1.063249	-0.241560
H236	H	-0.791331	-0.729915	0.091773
H237	H	-0.457998	-0.396582	0.425107
H238	H	-1.066022	-1.059494	-0.189868
H239	H	-0.732689	-0.726161	0.143465
H240	H	-0.399356	-0.392827	0.476798
H241	H	-1.065867	-1.114901	-0.245304
H242	H	-0.732534	-0.781568	0.088029
H243	H	-0.399201	-0.448234	0.421362
C244	C	-0.416973	-0.888295	0.277660
C245	C	-0.083640	-0.554961	0.610993
C246	C	0.249693	-0.221628	0.944326
H247	H	-0.442899	-0.862709	0.308961
H248	H	-0.109566	-0.529376	0.642294
H249	H	0.223767	-0.196043	0.975628
H250	H	-0.446308	-0.914361	0.250114
H251	H	-0.112974	-0.581028	0.583448
H252	H	0.220359	-0.247694	0.916781
H253	H	-0.391320	-0.858606	0.250073
H254	H	-0.057986	-0.525272	0.583407
H255	H	0.275347	-0.191939	0.916740
H256	H	-0.404207	-0.365077	-0.404513
H257	H	-0.070874	-0.031744	-0.071180
H258	H	0.262459	0.301589	0.262153
H259	H	-0.246186	-1.056711	0.415159
H260	H	0.087147	-0.723378	0.748492
H261	H	0.420481	-0.390044	1.081826
H262	H	-0.247132	-0.236684	-0.247747
H263	H	0.086201	0.096650	0.085586
H264	H	0.419534	0.429983	0.418919
H265	H	-0.247114	-0.592442	-0.247725
H266	H	0.086219	-0.259108	0.085608
H267	H	0.419552	0.074225	0.418942
H268	H	-0.938986	-0.899998	-0.404619
H269	H	-0.605653	-0.566664	-0.071286
H270	H	-0.272319	-0.233331	0.262048
C271	C	-0.234764	-0.375006	-0.235383
C272	C	0.098570	-0.041673	0.097950
C273	C	0.431903	0.291661	0.431284
H274	H	-0.208994	-0.343805	-0.209647
H275	H	0.124340	-0.010471	0.123686
H276	H	0.457673	0.322862	0.457019
H277	H	-0.205267	-0.402631	-0.261317
H278	H	0.128066	-0.069298	0.072016
H279	H	0.461400	0.264035	0.405350
H280	H	-0.260662	-0.402526	-0.205841
H281	H	0.072671	-0.069193	0.127492
H282	H	0.406004	0.264140	0.460825
C283	C	-1.077312	-0.887687	-0.416999
C284	C	-0.743978	-0.554354	-0.083666
C285	C	-0.410645	-0.221020	0.249667
H286	H	-1.046112	-0.861911	-0.442759
H287	H	-0.712778	-0.528578	-0.109426
H288	H	-0.379445	-0.195245	0.223907
H289	H	-1.104962	-0.858195	-0.391088
H290	H	-0.771629	-0.524861	-0.057755
H291	H	-0.438295	-0.191528	0.275579
H292	H	-1.104807	-0.913609	-0.446517
H293	H	-0.771474	-0.580276	-0.113183
H294	H	-0.438141	-0.246942	0.220150
C295	C	-0.721546	-0.887556	-0.416932
C296	C	-0.388212	-0.554223	-0.083598
C297	C	-0.054879	-0.220890	0.249735
H298	H	-0.768713	-0.893764	-0.410741
H299	H	-0.435380	-0.560431	-0.077408
H300	H	-0.102047	-0.227097	0.255925
H301	H	-0.709866	-0.897471	-0.462417
H302	H	-0.376533	-0.564138	-0.129084
H303	H	-0.043200	-0.230804	0.204250
H304	H	-0.710015	-0.842070	-0.406975
H305	H	-0.376682	-0.508737	-0.073642
H306	H	-0.043348	-0.175403	0.259692
C307	C	-0.573105	-0.887506	-0.416910
C308	C	-0.239771	-0.554173	-0.083576
C309	C	0.093562	-0.220839	0.249757
H310	H	-0.604249	-0.861743	-0.442668
H311	H	-0.270915	-0.528410	-0.109334
H312	H	0.062418	-0.195076	0.223999
H313	H	-0.545452	-0.913401	-0.446419
H314	H	-0.212119	-0.580068	-0.113086
H315	H	0.121214	-0.246734	0.220248
H316	H	-0.545603	-0.857993	-0.390985
H317	H	-0.212270	-0.524659	-0.057651
H318	H	0.121064	-0.191326	0.275682
C319	C	-0.416559	-0.226754	-0.416901
C320	C	-0.083226	0.106579	-0.083568
C321	C	0.250107	0.439912	0.249766
H322	H	-0.442335	-0.257955	-0.442631
H323	H	-0.109002	0.075379	-0.109298
H324	H	0.224332	0.408712	0.224035
H325	H	-0.390650	-0.199243	-0.446436
H326	H	-0.057316	0.134090	-0.113102
H327	H	0.276017	0.467423	0.220231
H328	H	-0.446061	-0.199120	-0.390977
H329	H	-0.112728	0.134214	-0.057643
H330	H	0.220605	0.467547	0.275690
H331	H	-0.404887	-0.900298	-0.068067
H332	H	-0.071554	-0.566965	0.265266
H333	H	0.261779	-0.233632	0.598599
C334	C	-0.234737	-0.730777	-0.235365
C335	C	0.098596	-0.397443	0.097969
C336	C	0.431929	-0.064110	0.431302
H337	H	-0.208961	-0.699579	-0.209632
H338	H	0.124372	-0.366245	0.123702
H339	H	0.457705	-0.032912	0.457035
H340	H	-0.205247	-0.758397	-0.261311
H341	H	0.128086	-0.425064	0.072022
H342	H	0.461420	-0.091731	0.405356
H343	H	-0.260627	-0.758302	-0.205820
H344	H	0.072706	-0.424969	0.127513
H345	H	0.406040	-0.091635	0.460846
C346	C	-0.417177	-0.888106	0.070328
C347	C	-0.083844	-0.554773	0.403661
C348	C	0.249490	-0.221439	0.736994
H349	H	-0.443172	-0.862476	0.039278
H350	H	-0.109838	-0.529143	0.372612
H351	H	0.223495	-0.195809	0.705945
H352	H	-0.391453	-0.858468	0.097881
H353	H	-0.058120	-0.525134	0.431214
H354	H	0.275214	-0.191801	0.764547
H355	H	-0.446462	-0.914202	0.097941
H356	H	-0.113129	-0.580869	0.431275
H357	H	0.220205	-0.247536	0.764608
H358	H	-0.711632	-1.056927	-0.247650
H359	H	-0.378299	-0.723594	0.085683
H360	H	-0.044965	-0.390261	0.419017
H361	H	-0.404192	-0.720838	-0.404482
H362	H	-0.070859	-0.387504	-0.071149
H363	H	0.262475	-0.054171	0.262185
C364	C	-0.416603	-0.582515	-0.416801
C365	C	-0.083269	-0.249181	-0.083468
C366	C	0.250064	0.084152	0.249866
H367	H	-0.442399	-0.613714	-0.442512
H368	H	-0.109066	-0.280381	-0.109179
H369	H	0.224267	0.052953	0.224155
H370	H	-0.390754	-0.554970	-0.446358
H371	H	-0.057421	-0.221637	-0.113024
H372	H	0.275913	0.111696	0.220309
H373	H	-0.446082	-0.554913	-0.390815
H374	H	-0.112749	-0.221580	-0.057482
H375	H	0.220585	0.111754	0.275852
