data_functionalizedCrystal
_audit_creation_method	'MofGen! by Chris Wilmer'
_symmetry_space_group_name_H-M	'P1'
_symmetry_Int_Tables_number	1
_symmetry_cell_setting	triclinic
loop_
_symmetry_equiv_pos_as_xyz
  x,y,z
_cell_length_a	15.944493
_cell_length_b	14.421503
_cell_length_c	14.044220
_cell_angle_alpha	89.999698
_cell_angle_beta	91.668039
_cell_angle_gamma	89.992353
loop_
_atom_site_label
_atom_site_type_symbol
_atom_site_fract_x
_atom_site_fract_y
_atom_site_fract_z
O1	O	1.123675	0.077102	-0.121980
O2	O	1.457008	0.410435	0.211354
O3	O	1.790341	0.743769	0.544687
O4	O	0.880251	0.077107	-0.137109
O5	O	1.213585	0.410440	0.196224
O6	O	1.546918	0.743773	0.529557
O7	O	0.998309	0.077095	0.008439
O8	O	1.331643	0.410429	0.341773
O9	O	1.664976	0.743762	0.675106
O10	O	1.005617	0.077113	-0.267529
O11	O	1.338950	0.410447	0.065805
O12	O	1.672284	0.743780	0.399138
O13	O	0.998326	-0.077128	0.008430
O14	O	1.331659	0.256205	0.341763
O15	O	1.664992	0.589538	0.675097
O16	O	0.880268	-0.077117	-0.137119
O17	O	1.213601	0.256217	0.196215
O18	O	1.546934	0.589550	0.529548
O19	O	1.123691	-0.077122	-0.121989
O20	O	1.457024	0.256212	0.211344
O21	O	1.790358	0.589545	0.544677
Cu22	Cu	1.001981	-0.091201	-0.129555
Cu23	Cu	1.335314	0.242132	0.203779
Cu24	Cu	1.668648	0.575466	0.537112
Cu25	Cu	1.001962	0.091186	-0.129544
Cu26	Cu	1.335295	0.424519	0.203790
Cu27	Cu	1.668628	0.757853	0.537123
O28	O	1.005633	-0.077110	-0.267538
O29	O	1.338967	0.256223	0.065795
O30	O	1.672300	0.589557	0.399129
C31	C	0.848918	-0.000004	-0.136496
C32	C	1.182252	0.333329	0.196838
C33	C	1.515585	0.666662	0.530171
C34	C	0.755531	-0.000003	-0.134642
C35	C	1.088864	0.333330	0.198692
C36	C	1.422198	0.666664	0.532025
C37	C	0.526186	0.000003	-0.220315
C38	C	0.859520	0.333337	0.113018
C39	C	1.192853	0.666670	0.446352
C40	C	0.472177	-0.076044	-0.174119
C41	C	0.805510	0.257290	0.159214
C42	C	1.138843	0.590623	0.492547
C43	C	0.584553	-0.000005	-0.131207
C44	C	0.917886	0.333328	0.202127
C45	C	1.251219	0.666662	0.535460
C46	C	0.472163	0.076008	-0.174089
C47	C	0.805497	0.409342	0.159244
C48	C	1.138830	0.742675	0.492578
C49	C	0.419395	-0.000003	-0.127895
C50	C	0.752729	0.333331	0.205438
C51	C	1.086062	0.666664	0.538772
C52	C	0.531773	-0.076115	-0.085035
C53	C	0.865106	0.257218	0.248298
C54	C	1.198440	0.590552	0.581632
C55	C	0.531764	0.076006	-0.085018
C56	C	0.865098	0.409339	0.248316
C57	C	1.198431	0.742672	0.581649
C58	C	0.477783	-0.000060	-0.038757
C59	C	0.811116	0.333273	0.294577
C60	C	1.144449	0.666606	0.627910
C61	C	0.679696	-0.000007	-0.133117
C62	C	1.013029	0.333326	0.200217
C63	C	1.346362	0.666660	0.533550
C64	C	0.324255	-0.000007	-0.125978
C65	C	0.657588	0.333326	0.207356
C66	C	0.990921	0.666659	0.540689
N67	N	1.002001	-0.219482	-0.129562
N68	N	1.335334	0.113851	0.203771
N69	N	1.668667	0.447185	0.537105
C70	C	1.056602	-0.469116	-0.062246
C71	C	1.389936	-0.135783	0.271088
C72	C	1.723269	0.197550	0.604421
C73	C	0.979323	-0.530913	-0.043850
C74	C	1.312657	-0.197580	0.289483
C75	C	1.645990	0.135753	0.622817
C76	C	1.001981	-0.408644	-0.129551
C77	C	1.335314	-0.075310	0.203783
C78	C	1.668648	0.258023	0.537116
C79	C	1.079238	-0.530941	-0.147891
C80	C	1.412571	-0.197607	0.185443
C81	C	1.745905	0.135726	0.518776
C82	C	1.001969	-0.591365	-0.129537
C83	C	1.335302	-0.258032	0.203796
C84	C	1.668635	0.075302	0.537129
C85	C	0.924661	-0.469080	-0.111113
C86	C	1.257994	-0.135746	0.222221
C87	C	1.591327	0.197587	0.555554
C88	C	1.024628	-0.469102	-0.215191
C89	C	1.357961	-0.135768	0.118143
C90	C	1.691295	0.197565	0.451476
C91	C	0.947297	-0.530871	-0.196832
C92	C	1.280630	-0.197537	0.136502
C93	C	1.613964	0.135796	0.469835
C94	C	1.001989	-0.303382	-0.129556
C95	C	1.335322	0.029951	0.203778
C96	C	1.668656	0.363284	0.537111
C97	C	1.001952	-0.696624	-0.129533
C98	C	1.335285	-0.363291	0.203800
C99	C	1.668619	-0.029957	0.537134
C100	C	1.155024	-0.000008	-0.122603
C101	C	1.488357	0.333325	0.210730
C102	C	1.821691	0.666658	0.544064
C103	C	1.248411	-0.000004	-0.124457
C104	C	1.581745	0.333330	0.208877
C105	C	1.915078	0.666663	0.542210
C106	C	0.995119	-0.000017	0.043749
C107	C	1.328452	0.333317	0.377082
C108	C	1.661785	0.666650	0.710415
C109	C	0.985577	-0.000018	0.148973
C110	C	1.318911	0.333316	0.482306
C111	C	1.652244	0.666649	0.815639
N112	N	1.001948	0.219467	-0.129529
N113	N	1.335281	0.552801	0.203804
N114	N	1.668615	0.886134	0.537138
C115	C	1.008824	0.000004	-0.302847
C116	C	1.342157	0.333337	0.030486
C117	C	1.675490	0.666671	0.363820
C118	C	1.018365	0.000011	-0.408071
C119	C	1.351699	0.333344	-0.074738
C120	C	1.685032	0.666678	0.258595
C121	C	0.968134	-0.000004	0.341631
C122	C	1.301467	0.333329	0.674964
C123	C	1.634800	0.666663	1.008298
C124	C	1.035805	-0.000003	0.399276
C125	C	1.369138	0.333331	0.732609
C126	C	1.702472	0.666664	1.065943
C127	C	1.026099	0.000005	0.506478
C128	C	1.359433	0.333338	0.839811
C129	C	1.692766	0.666672	1.173144
C130	C	0.977838	-0.000012	0.234419
C131	C	1.311172	0.333322	0.567753
C132	C	1.644505	0.666655	0.901086
H133	H	0.547557	-0.000063	-0.297072
H134	H	0.880891	0.333271	0.036261
H135	H	1.214224	0.666604	0.369594
H136	H	0.859299	-0.442021	-0.095513
H137	H	1.192633	-0.108688	0.237821
H138	H	1.525966	0.224646	0.571154
N139	N	0.439408	-0.156697	-0.221308
N140	N	0.772741	0.176636	0.112025
N141	N	1.106075	0.509969	0.445358
N142	N	0.459553	-0.235618	-0.191801
N143	N	0.792886	0.097716	0.141532
N144	N	1.126220	0.431049	0.474866
H145	H	0.436411	-0.292578	-0.225131
H146	H	0.769744	0.040755	0.108202
H147	H	1.103078	0.374089	0.441536
H148	H	1.144578	-0.558113	-0.163409
H149	H	1.477912	-0.224780	0.169924
H150	H	1.811245	0.108553	0.503258
H151	H	0.456565	-0.000109	0.038059
H152	H	0.789898	0.333224	0.371392
H153	H	1.123232	0.666558	0.704725
N154	N	1.117637	-0.000008	0.360209
N155	N	1.450970	0.333325	0.693543
N156	N	1.784304	0.666659	1.026876
N157	N	1.167330	0.064994	0.378732
N158	N	1.500664	0.398327	0.712066
N159	N	1.833997	0.731661	1.045399
H160	H	1.225123	0.064988	0.351139
H161	H	1.558456	0.398321	0.684472
H162	H	1.891789	0.731654	1.017805
N163	N	0.886306	-0.000002	0.380693
N164	N	1.219639	0.333331	0.714027
N165	N	1.552973	0.666664	1.047360
N166	N	0.836597	0.064998	0.362163
N167	N	1.169930	0.398332	0.695496
N168	N	1.503264	0.731665	1.028830
H169	H	0.778805	0.064996	0.389758
H170	H	1.112139	0.398329	0.723091
H171	H	1.445472	0.731662	1.056424
N172	N	0.564551	0.156674	-0.037885
N173	N	0.897884	0.490008	0.295448
N174	N	1.231217	0.823341	0.628781
N175	N	0.608587	0.212845	-0.082218
N176	N	0.941920	0.546178	0.251115
N177	N	1.275253	0.879512	0.584449
H178	H	0.631743	0.269830	-0.048947
H179	H	0.965076	0.603163	0.284387
H180	H	1.298410	0.936497	0.617720
N181	N	0.564419	-0.156846	-0.037862
N182	N	0.897752	0.176487	0.295471
N183	N	1.231086	0.509821	0.628804
N184	N	0.641892	-0.169891	-0.031725
N185	N	0.975225	0.163442	0.301608
N186	N	1.308558	0.496776	0.634942
H187	H	0.664951	-0.226907	0.001588
H188	H	0.998284	0.106426	0.334921
H189	H	1.331617	0.439760	0.668255
H190	H	0.446037	0.140291	-0.211735
H191	H	0.779371	0.473625	0.121598
H192	H	1.112704	0.806958	0.454932
N193	N	0.889270	-0.564671	-0.268226
N194	N	1.222603	-0.231337	0.065108
N195	N	1.555937	0.101996	0.398441
N196	N	0.813167	-0.544649	-0.264374
N197	N	1.146500	-0.211315	0.068959
N198	N	1.479833	0.122018	0.402293
H199	H	0.772182	-0.568523	-0.314792
H200	H	1.105515	-0.235189	0.018542
H201	H	1.438848	0.098144	0.351875
H202	H	1.043815	-0.441930	-0.287597
H203	H	1.377149	-0.108597	0.045736
H204	H	1.710482	0.224736	0.379069
H205	H	1.102738	-0.442000	-0.005296
H206	H	1.436072	-0.108667	0.328037
H207	H	1.769405	0.224666	0.661371
N208	N	0.955284	-0.564966	0.047015
N209	N	1.288618	-0.231633	0.380348
N210	N	1.621951	0.101700	0.713682
N211	N	0.998186	-0.545176	0.120112
N212	N	1.331519	-0.211842	0.453445
N213	N	1.664853	0.121491	0.786779
H214	H	0.981213	-0.569222	0.184289
H215	H	1.314547	-0.235888	0.517622
H216	H	1.647880	0.097445	0.850956
