data_functionalizedCrystal
_audit_creation_method	'MofGen! by Chris Wilmer'
_symmetry_space_group_name_H-M	'P1'
_symmetry_Int_Tables_number	1
_symmetry_cell_setting	triclinic
loop_
_symmetry_equiv_pos_as_xyz
  x,y,z
_cell_length_a	25.639242
_cell_length_b	25.639239
_cell_length_c	25.639233
_cell_angle_alpha	90.018747
_cell_angle_beta	90.022166
_cell_angle_gamma	90.034213
loop_
_atom_site_label
_atom_site_type_symbol
_atom_site_fract_x
_atom_site_fract_y
_atom_site_fract_z
Zn1	Zn	0.799225	-0.208277	0.295742
Zn2	Zn	0.799149	-0.295696	0.208307
Zn3	Zn	0.711801	-0.208269	0.208306
Zn4	Zn	0.711746	-0.295676	0.295696
O5	O	0.755480	-0.251979	0.252013
O6	O	0.872380	-0.219884	0.284163
O7	O	0.787553	-0.284103	0.135141
O8	O	0.723453	-0.135105	0.219924
O9	O	0.872324	-0.284111	0.219924
O10	O	0.787683	-0.135111	0.284163
O11	O	0.723379	-0.219871	0.135141
O12	O	0.638629	-0.219853	0.219880
O13	O	0.723360	-0.284078	0.368868
O14	O	0.638589	-0.284070	0.284085
O15	O	0.787630	-0.219866	0.368901
O16	O	0.787499	-0.368858	0.219880
O17	O	0.723286	-0.368844	0.284085
C18	C	0.755392	-0.387822	0.251989
C19	C	0.755403	-0.445936	0.251996
C20	C	0.619638	-0.251959	0.251977
C21	C	0.561524	-0.251963	0.251975
C22	C	0.789004	-0.806294	0.218638
C23	C	0.789024	-0.860898	0.218645
O24	O	0.817502	-0.889131	0.190257
N25	N	0.755572	-0.888218	0.252048
C26	C	0.722102	-0.860932	0.285449
O27	O	0.693651	-0.889184	0.313861
C28	C	0.722085	-0.806328	0.285444
C29	C	0.755535	-0.779011	0.252036
C30	C	0.822452	-0.778976	0.185233
C31	C	0.822431	-0.724376	0.185226
C32	C	0.788962	-0.697093	0.218623
C33	C	0.755514	-0.724410	0.252028
C34	C	0.688617	-0.779042	0.318847
C35	C	0.688603	-0.724435	0.318840
C36	C	0.722053	-0.697118	0.285432
C37	C	0.722024	-0.642527	0.285418
N38	N	0.755475	-0.615206	0.252016
C39	C	0.788944	-0.642490	0.218618
C40	C	0.722141	-0.975602	0.285457
C41	C	0.722155	-1.030204	0.285459
C42	C	0.789078	-1.030167	0.218656
C43	C	0.789061	-0.975564	0.218652
C44	C	0.755593	-0.948282	0.252055
C45	C	0.788897	-0.527824	0.218605
C46	C	0.788872	-0.473219	0.218599
C47	C	0.721951	-0.473261	0.285403
C48	C	0.721974	-0.527862	0.285408
C49	C	0.755452	-0.555142	0.252007
O50	O	0.693562	-0.614260	0.313793
O51	O	0.817396	-0.614231	0.190216
C52	C	0.201149	-0.285473	0.285413
C53	C	0.146544	-0.285477	0.285421
O54	O	0.118297	-0.313943	0.313821
N55	N	0.119241	-0.251994	0.252047
C56	C	0.146545	-0.218502	0.218666
O57	O	0.118308	-0.190022	0.190280
C58	C	0.201149	-0.218496	0.218661
C59	C	0.228449	-0.251985	0.252034
C60	C	0.228449	-0.318959	0.318783
C61	C	0.283049	-0.318956	0.318774
C62	C	0.310350	-0.285468	0.285395
C63	C	0.283049	-0.251983	0.252024
C64	C	0.228452	-0.185002	0.185283
C65	C	0.283059	-0.185000	0.185281
C66	C	0.310359	-0.218488	0.218654
C67	C	0.364950	-0.218492	0.218636
N68	N	0.392253	-0.251974	0.252010
C69	C	0.364953	-0.285463	0.285389
C70	C	0.031875	-0.218515	0.218680
C71	C	-0.022728	-0.218523	0.218683
C72	C	-0.022725	-0.285497	0.285438
C73	C	0.031878	-0.285492	0.285433
C74	C	0.059178	-0.251998	0.252054
C75	C	0.479618	-0.285455	0.285368
C76	C	0.534223	-0.285451	0.285354
C77	C	0.534216	-0.218475	0.218601
C78	C	0.479615	-0.218481	0.218612
C79	C	0.452318	-0.251972	0.252000
O80	O	0.393232	-0.190038	0.190252
O81	O	0.393197	-0.313933	0.313776
C82	C	0.891853	-0.252000	0.252049
C83	C	0.949967	-0.252009	0.252064
C84	C	0.755497	-0.251970	0.388386
C85	C	0.755504	-0.251966	0.446500
C86	C	0.755583	-0.115606	0.252048
C87	C	0.755627	-0.057492	0.252064
C88	C	0.755494	-0.251951	0.116170
C89	C	0.755588	-0.251807	0.058057
C90	C	0.789012	-0.218432	0.806886
C91	C	0.789019	-0.218417	0.861491
O92	O	0.817466	-0.189967	0.889747
N93	N	0.755562	-0.251844	0.888783
C94	C	0.722093	-0.285283	0.861468
O95	O	0.693636	-0.313713	0.889695
C96	C	0.722084	-0.285294	0.806864
C97	C	0.755547	-0.251870	0.779575
C98	C	0.822472	-0.185009	0.779597
C99	C	0.822466	-0.185025	0.724997
C100	C	0.789000	-0.218462	0.697685
C101	C	0.755541	-0.251885	0.724974
C102	C	0.688613	-0.318731	0.779550
C103	C	0.688607	-0.318739	0.724943
C104	C	0.722069	-0.285314	0.697654
C105	C	0.722070	-0.285338	0.643063
N106	N	0.755526	-0.251912	0.615771
C107	C	0.788992	-0.218474	0.643082
C108	C	0.722113	-0.285256	0.976138
C109	C	0.722124	-0.285247	1.030741
C110	C	0.789049	-0.218381	1.030760
C111	C	0.789041	-0.218392	0.976157
C112	C	0.755570	-0.251829	0.948846
C113	C	0.788977	-0.218509	0.528417
C114	C	0.788970	-0.218529	0.473811
C115	C	0.722043	-0.285393	0.473797
C116	C	0.722052	-0.285375	0.528397
C117	C	0.755521	-0.251929	0.555706
O118	O	0.693635	-0.313773	0.614771
O119	O	0.817439	-0.190044	0.614847
H120	H	0.816111	-0.450979	0.191392
O121	O	0.821469	-0.185893	0.949594
C122	C	0.791721	-0.152113	0.918021
H123	H	0.752085	-0.170550	0.909824
H124	H	0.786005	-0.113366	0.939074
C125	C	0.869171	-0.120006	0.876231
C126	C	0.820491	-0.142653	0.866160
H127	H	0.886918	-0.114168	0.844242
H128	H	0.889213	-0.142762	0.897504
H129	H	0.864401	-0.087719	0.893777
H130	H	0.825262	-0.174942	0.848621
H131	H	0.800450	-0.119902	0.844883
H132	H	0.054099	-0.191241	0.191496
O133	O	0.854954	-0.697785	0.152850
C134	C	0.888702	-0.666167	0.182651
H135	H	0.870230	-0.657982	0.222251
H136	H	0.927448	-0.687177	0.188444
C137	C	0.920867	-0.624360	0.105248
C138	C	0.898177	-0.614303	0.153884
H139	H	0.926715	-0.592368	0.087503
H140	H	0.898132	-0.645662	0.085170
H141	H	0.953153	-0.641869	0.110083
H142	H	0.865889	-0.596800	0.149049
H143	H	0.920907	-0.592996	0.173961
O144	O	0.309599	-0.152408	0.152929
C145	C	0.341229	-0.118689	0.182749
H146	H	0.324801	-0.115523	0.223938
H147	H	0.382605	-0.134852	0.184510
C148	C	0.362254	-0.068186	0.106716
C149	C	0.342075	-0.064294	0.157304
H150	H	0.362778	-0.034633	0.091019
H151	H	0.340946	-0.090904	0.086625
H152	H	0.396732	-0.081657	0.108190
H153	H	0.307595	-0.050829	0.155828
H154	H	0.363377	-0.041572	0.177394
H155	H	0.661364	-0.345949	0.801759
H156	H	0.661376	-0.801275	0.346049
O157	O	0.821503	-0.185909	1.057377
C158	C	0.814338	-0.193076	1.111421
H159	H	0.773978	-0.210199	1.118860
H160	H	0.845334	-0.220915	1.126926
C161	C	0.868728	-0.119137	1.130327
C162	C	0.819156	-0.140164	1.139464
H163	H	0.871703	-0.086500	1.147626
H164	H	0.873558	-0.114310	1.093916
H165	H	0.894553	-0.142341	1.143248
H166	H	0.793333	-0.116964	1.126537
H167	H	0.814323	-0.144987	1.175873
O168	O	0.689573	-0.317737	1.057165
C169	C	0.660048	-0.347261	1.021344
H170	H	0.658252	-0.325852	0.982423
H171	H	0.679165	-0.386974	1.015538
C172	C	0.606602	-0.381079	1.090436
C173	C	0.604393	-0.354783	1.042634
H174	H	0.572272	-0.385722	1.103569
H175	H	0.626495	-0.361191	1.114570
H176	H	0.622535	-0.414171	1.085591
H177	H	0.588466	-0.321690	1.047480
H178	H	0.584496	-0.374667	1.018501
O179	O	0.202022	-0.152419	0.152851
C180	C	0.237838	-0.122871	0.123387
H181	H	0.276771	-0.121101	0.144805
H182	H	0.243615	-0.141953	0.083640
C183	C	0.168746	-0.069385	0.089655
C184	C	0.216563	-0.067207	0.115964
H185	H	0.155622	-0.035049	0.085073
H186	H	0.144615	-0.089293	0.109504
H187	H	0.173567	-0.085289	0.056536
H188	H	0.211740	-0.051309	0.149085
H189	H	0.240692	-0.047295	0.096120
O190	O	0.453187	-0.318037	0.317817
C191	C	0.489001	-0.347578	0.347275
H192	H	0.527909	-0.349350	0.325845
H193	H	0.494843	-0.328488	0.387016
C194	C	0.419884	-0.401061	0.381038
C195	C	0.467670	-0.403242	0.354715
H196	H	0.406726	-0.435397	0.385630
H197	H	0.395755	-0.381158	0.361193
H198	H	0.424759	-0.385151	0.414153
H199	H	0.462793	-0.419145	0.321598
H200	H	0.491798	-0.423149	0.374554
O201	O	0.656082	-0.351277	0.698495
C202	C	0.626546	-0.380765	0.734295
H203	H	0.647963	-0.382560	0.773225
H204	H	0.586849	-0.361616	0.740089
C205	C	0.592669	-0.434216	0.665172
C206	C	0.618977	-0.436424	0.712985
H207	H	0.587998	-0.468548	0.652027
H208	H	0.612567	-0.414348	0.641053
H209	H	0.559591	-0.418256	0.670007
H210	H	0.652057	-0.452377	0.708149
H211	H	0.599085	-0.456296	0.737104
H212	H	0.457387	-0.191213	0.191436
H213	H	0.849709	-0.801185	0.158037
H214	H	0.816229	-0.191272	0.550645
H215	H	0.694912	-1.052442	0.312659
H216	H	0.816221	-0.191310	0.451595
H217	H	0.816333	-1.052391	0.191464
H218	H	0.816300	-0.953325	0.191448
O219	O	0.689518	-0.446727	0.317901
C220	C	0.719261	-0.415091	0.351682
H221	H	0.760441	-0.431513	0.354953
H222	H	0.721064	-0.373716	0.335508
C223	C	0.643110	-0.394072	0.401993
C224	C	0.693687	-0.414244	0.406014
H225	H	0.627334	-0.393547	0.435507
H226	H	0.623071	-0.415384	0.379233
H227	H	0.644620	-0.359594	0.388513
H228	H	0.692177	-0.448723	0.419488
H229	H	0.713726	-0.392937	0.428778
O230	O	0.560800	-0.186019	0.186153
C231	C	0.592344	-0.215735	0.152319
H232	H	0.600504	-0.255388	0.170683
H233	H	0.571282	-0.221417	0.113561
C234	C	0.634204	-0.138254	0.120353
C235	C	0.644231	-0.186955	0.142911
H236	H	0.666209	-0.120501	0.114547
H237	H	0.612951	-0.118234	0.143146
H238	H	0.616651	-0.142996	0.088057
H239	H	0.661777	-0.182212	0.175208
H240	H	0.665487	-0.206974	0.120123
H241	H	0.556449	-0.312723	0.312530
H242	H	0.694883	-0.953392	0.312656
H243	H	0.305272	-0.346225	0.345950
H244	H	0.694809	-0.312597	0.550617
H245	H	0.849714	-0.157806	0.702783
H246	H	0.661350	-0.702225	0.346042
O247	O	0.689463	-0.554320	0.317907
C248	C	0.659907	-0.518527	0.347371
H249	H	0.681304	-0.479581	0.349193
H250	H	0.620208	-0.512773	0.328183
C251	C	0.626067	-0.587648	0.400777
C252	C	0.652349	-0.539815	0.403019
H253	H	0.621402	-0.600780	0.435103
H254	H	0.645977	-0.611763	0.380926
H255	H	0.592986	-0.582846	0.384785
H256	H	0.685431	-0.544618	0.419005
H257	H	0.632444	-0.515701	0.422875
H258	H	0.816159	-0.550030	0.191408
O259	O	0.202015	-0.351543	0.351226
C260	C	0.237831	-0.381082	0.380683
H261	H	0.276740	-0.382847	0.359256
H262	H	0.243668	-0.361997	0.420427
C263	C	0.168719	-0.434579	0.414435
C264	C	0.216507	-0.436750	0.388115
H265	H	0.155565	-0.468917	0.419022
H266	H	0.144588	-0.414677	0.394591
H267	H	0.173589	-0.418672	0.447552
H268	H	0.211634	-0.452651	0.354996
H269	H	0.240636	-0.456656	0.407954
H270	H	0.694857	-0.312487	0.953905
O271	O	0.854959	-0.152453	0.806063
C272	C	0.843562	-0.100344	0.792728
H273	H	0.823449	-0.099271	0.753082
H274	H	0.816708	-0.082716	0.823458
C275	C	0.919262	-0.070005	0.838897
C276	C	0.894562	-0.068686	0.790201
H277	H	0.950721	-0.050476	0.837340
H278	H	0.926939	-0.105111	0.847883
H279	H	0.896878	-0.055316	0.864500
H280	H	0.916943	-0.083381	0.764600
H281	H	0.886890	-0.033582	0.781210
O282	O	0.058315	-0.318036	0.317903
C283	C	0.022503	-0.347602	0.347352
H284	H	-0.016408	-0.326192	0.349200
H285	H	0.016667	-0.387284	0.328134
C286	C	0.091620	-0.381516	0.400716
C287	C	0.043831	-0.355217	0.402989
H288	H	0.104777	-0.386215	0.435035
H289	H	0.115748	-0.361598	0.380874
H290	H	0.086751	-0.414581	0.384699
H291	H	0.048702	-0.322150	0.419000
H292	H	0.019704	-0.375129	0.422835
H293	H	-0.044963	-0.312763	0.312619
H294	H	-0.044951	-0.191258	0.191502
H295	H	0.694798	-0.312619	0.451550
