data_functionalizedCrystal
_audit_creation_method	'MofGen! by Chris Wilmer'
_symmetry_space_group_name_H-M	'P1'
_symmetry_Int_Tables_number	1
_symmetry_cell_setting	triclinic
loop_
_symmetry_equiv_pos_as_xyz
  x,y,z
_cell_length_a	19.121424
_cell_length_b	19.120786
_cell_length_c	17.077396
_cell_angle_alpha	87.527059
_cell_angle_beta	92.416339
_cell_angle_gamma	95.008527
loop_
_atom_site_label
_atom_site_type_symbol
_atom_site_fract_x
_atom_site_fract_y
_atom_site_fract_z
Zn1	Zn	1.063704	-0.234202	-0.382121
Zn2	Zn	1.563704	0.265798	0.117879
Zn3	Zn	1.058601	-0.351887	-0.245479
Zn4	Zn	1.558601	0.148113	0.254521
Zn5	Zn	0.946044	-0.239253	-0.256218
Zn6	Zn	1.446044	0.260747	0.243782
Zn7	Zn	0.940988	-0.356863	-0.382054
Zn8	Zn	1.440988	0.143137	0.117946
O9	O	1.002334	-0.295551	-0.316468
O10	O	1.502334	0.204449	0.183532
O11	O	1.161489	-0.245616	-0.359529
O12	O	1.661489	0.254384	0.140471
O13	O	1.043650	-0.336977	-0.137056
O14	O	1.543650	0.163023	0.362944
O15	O	0.965904	-0.140111	-0.277442
O16	O	1.465904	0.359889	0.222558
O17	O	1.157740	-0.332079	-0.259139
O18	O	1.657740	0.167921	0.240861
O19	O	1.052348	-0.136400	-0.369942
O20	O	1.552348	0.363600	0.130058
O21	O	0.960955	-0.254225	-0.144946
O22	O	1.460955	0.245775	0.355054
O23	O	0.846911	-0.259051	-0.277377
O24	O	1.346911	0.240949	0.222623
O25	O	0.957287	-0.340561	-0.491910
O26	O	1.457287	0.159439	0.008090
O27	O	0.843197	-0.345459	-0.369828
O28	O	1.343197	0.154541	0.130172
O29	O	1.047446	-0.250442	-0.491960
O30	O	1.547446	0.249558	0.008040
O31	O	1.038748	-0.451019	-0.259074
O32	O	1.538748	0.048981	0.240926
O33	O	0.952338	-0.454675	-0.359414
O34	O	1.452338	0.045325	0.140586
C35	C	0.819524	-0.303343	-0.324761
C36	C	1.319524	0.196657	0.175239
C37	C	0.741316	-0.306694	-0.328326
C38	C	1.241316	0.193306	0.171674
C39	C	0.298893	-0.327881	-0.350965
C40	C	0.798893	0.172119	0.149035
C41	C	0.372377	-0.324738	-0.347600
C42	C	0.872377	0.175262	0.152400
C43	C	0.411033	-0.278106	-0.297870
C44	C	0.911033	0.221894	0.202130
C45	C	0.376201	-0.234620	-0.251496
C46	C	0.876201	0.265380	0.248504
C47	C	0.302718	-0.237766	-0.254857
C48	C	0.802718	0.262234	0.245143
C49	C	0.633001	-0.266354	-0.285313
C50	C	1.133001	0.233646	0.214687
C51	C	0.706489	-0.263209	-0.281957
C52	C	1.206489	0.236791	0.218043
C53	C	0.702660	-0.353329	-0.378061
C54	C	1.202660	0.146671	0.121939
C55	C	0.629176	-0.356468	-0.381421
C56	C	1.129176	0.143532	0.118579
C57	C	0.594350	-0.312984	-0.335044
C58	C	1.094350	0.187016	0.164956
C59	C	0.486146	-0.274891	-0.294431
C60	C	0.986146	0.225109	0.205569
C61	C	0.519238	-0.316203	-0.338479
C62	C	1.019238	0.183797	0.161521
C63	C	0.994460	-0.478379	-0.308088
C64	C	1.494460	0.021621	0.191912
C65	C	0.991155	-0.556591	-0.304526
C66	C	1.491155	-0.056591	0.195474
C67	C	1.034576	-0.591344	-0.351055
C68	C	1.534576	-0.091344	0.148945
C69	C	1.031468	-0.664832	-0.347710
C70	C	1.531468	-0.164832	0.152290
C71	C	0.984943	-0.703566	-0.297831
C72	C	1.484943	-0.203566	0.202169
C73	C	0.941517	-0.668808	-0.251300
C74	C	1.441517	-0.168808	0.248700
C75	C	0.944622	-0.595321	-0.254650
C76	C	1.444622	-0.095321	0.245350
C77	C	0.973315	-0.925549	-0.285309
C78	C	1.473315	-0.425549	0.214691
C79	C	0.970215	-0.999041	-0.281961
C80	C	1.470215	-0.499041	0.218039
C81	C	1.060166	-0.995059	-0.378372
C82	C	1.560166	-0.495059	0.121628
C83	C	1.063270	-0.921571	-0.381713
C84	C	1.563270	-0.421571	0.118287
C85	C	1.019841	-0.886820	-0.335186
C86	C	1.519841	-0.386820	0.164814
C87	C	0.981766	-0.778683	-0.294409
C88	C	1.481766	-0.278683	0.205591
C89	C	1.023015	-0.811704	-0.338613
C90	C	1.523015	-0.311704	0.161387
C91	C	1.185859	-0.287729	-0.308144
C92	C	1.685859	0.212271	0.191856
C93	C	1.264066	-0.284396	-0.304596
C94	C	1.764066	0.215604	0.195404
C95	C	1.002372	-0.295493	-0.521214
C96	C	1.502372	0.204507	-0.021214
C97	C	1.002387	-0.295468	-0.608464
C98	C	1.502387	0.204532	-0.108464
C99	C	1.010259	-0.112009	-0.324897
C100	C	1.510259	0.387991	0.175103
C101	C	1.013636	-0.033794	-0.328490
C102	C	1.513636	0.466206	0.171510
C103	C	1.045514	-0.338472	-0.980173
C104	C	1.545514	0.161528	-0.480173
C105	C	1.045495	-0.338493	-0.898193
C106	C	1.545495	0.161507	-0.398193
C107	C	1.002435	-0.295416	-0.861313
C108	C	1.502435	0.204584	-0.361313
C109	C	0.959385	-0.252320	-0.906419
C110	C	1.459385	0.247680	-0.406419
C111	C	0.959400	-0.252303	-0.988398
C112	C	1.459400	0.247697	-0.488398
C113	C	0.959357	-0.252358	-0.735548
C114	C	1.459357	0.247642	-0.235548
C115	C	0.959342	-0.252374	-0.653563
C116	C	1.459342	0.247626	-0.153563
C117	C	1.045452	-0.338548	-0.645343
C118	C	1.545452	0.161452	-0.145343
C119	C	1.045468	-0.338531	-0.727322
C120	C	1.545468	0.161469	-0.227322
C121	C	1.002418	-0.295434	-0.772422
C122	C	1.502418	0.204566	-0.272422
C123	C	1.002340	-0.295557	-0.112520
C124	C	1.502340	0.204443	0.387480
C125	C	1.002469	-0.295378	-0.025273
C126	C	1.502469	0.204622	0.474727
H127	H	0.267424	-0.365849	-0.391465
H128	H	0.767424	0.134151	0.108535
H129	H	1.060893	-0.780165	-0.379227
H130	H	1.560893	-0.280165	0.120773
H131	H	0.932325	-1.030576	-0.241343
H132	H	1.432325	-0.530576	0.258657
F133	F	0.913564	-0.206467	-0.867166
F134	F	1.413564	0.293533	-0.367166
F135	F	1.091266	-0.384417	-0.597344
F136	F	1.591266	0.115583	-0.097344
F137	F	1.091350	-0.384317	-1.019416
F138	F	1.591350	0.115683	-0.519416
H139	H	0.517628	-0.236922	-0.253942
H140	H	1.017628	0.263078	0.246058
H141	H	1.101154	-0.890035	-0.422329
H142	H	1.601154	-0.390035	0.077671
F143	F	0.913589	-0.206433	-1.036396
F144	F	1.413589	0.293567	-0.536396
F145	F	0.898406	-0.558335	-0.205129
F146	F	1.398406	-0.058335	0.294871
F147	F	0.932249	-0.819913	-0.241329
F148	F	1.432249	-0.319913	0.258671
H149	H	1.066832	-0.693124	-0.385592
H150	H	1.566832	-0.193124	0.114408
H151	H	0.400730	-0.360149	-0.385357
H152	H	0.900730	0.139851	0.114643
H153	H	1.080538	-0.373594	-0.861476
H154	H	1.580538	0.126406	-0.361476
F155	F	1.091299	-0.384376	-0.766571
F156	F	1.591299	0.115624	-0.266571
F157	F	0.913511	-0.206528	-0.614315
F158	F	1.413511	0.293472	-0.114315
H159	H	0.487761	-0.354173	-0.378967
H160	H	0.987761	0.145827	0.121033
F161	F	0.927089	-0.888574	-0.235796
F162	F	1.427089	-0.388574	0.264204
H163	H	0.597706	-0.394442	-0.421915
H164	H	1.097706	0.105558	0.078085
H165	H	0.924302	-0.217264	-0.772266
H166	H	1.424302	0.282736	-0.272266
H167	H	1.072465	-0.559811	-0.391668
H168	H	1.572465	-0.059811	0.108332
H169	H	0.903632	-0.700352	-0.210691
H170	H	1.403632	-0.200352	0.289309
F171	F	0.747629	-0.213577	-0.229023
F172	F	1.247629	0.286423	0.270977
F173	F	0.739729	-0.399609	-0.427409
F174	F	1.239729	0.100391	0.072591
H175	H	0.604655	-0.230949	-0.247547
H176	H	1.104655	0.269051	0.252453
H177	H	0.407681	-0.196654	-0.211001
H178	H	0.907681	0.303346	0.288999
F179	F	0.265653	-0.191486	-0.205502
F180	F	0.765653	0.308514	0.294498
F181	F	1.106380	-1.032050	-0.427888
F182	F	1.606380	-0.532050	0.072112
