data_functionalizedCrystal
_audit_creation_method	'MofGen! by Chris Wilmer'
_symmetry_space_group_name_H-M	'P1'
_symmetry_Int_Tables_number	1
_symmetry_cell_setting	triclinic
loop_
_symmetry_equiv_pos_as_xyz
  x,y,z
_cell_length_a	12.837942
_cell_length_b	10.723023
_cell_length_c	9.198806
_cell_angle_alpha	89.995599
_cell_angle_beta	89.998045
_cell_angle_gamma	89.648244
loop_
_atom_site_label
_atom_site_type_symbol
_atom_site_fract_x
_atom_site_fract_y
_atom_site_fract_z
O1	O	0.145508	1.672993	-0.120888
O2	O	0.159437	1.311353	-0.120891
O3	O	0.001513	1.484154	-0.120881
O4	O	0.303432	1.500192	-0.120898
O5	O	0.001514	1.484137	0.120904
O6	O	0.159439	1.311336	0.120894
O7	O	0.145509	1.672976	0.120897
Cu8	Cu	0.152474	1.492154	0.142972
Cu9	Cu	0.152472	1.492175	-0.142966
O10	O	0.303434	1.500175	0.120887
C11	C	0.158425	1.264735	0.000001
C12	C	0.155392	1.125851	-0.000001
C13	C	0.154040	1.063942	-0.125253
C14	C	0.150905	0.920398	-0.125257
C15	C	-0.037146	1.478728	0.000011
C16	C	-0.152338	1.462569	0.000008
C17	C	-0.391915	1.656825	-0.000020
C18	C	-0.500149	1.641649	-0.000023
C19	C	-0.477041	1.417040	-0.000010
C20	C	-0.368807	1.432217	-0.000007
C21	C	-0.326248	1.552113	-0.000010
C22	C	-0.218013	1.567289	0.000003
C23	C	-0.194907	1.342681	0.000005
C24	C	-0.303140	1.327505	0.000003
C25	C	0.342092	1.505601	-0.000008
C26	C	0.457284	1.521760	-0.000015
C27	C	0.146522	1.719594	0.000002
C28	C	0.149554	1.858478	-0.000006
N29	N	0.152475	1.492149	0.344086
C30	C	0.085875	1.564671	0.416288
C31	C	0.085873	1.564688	0.583700
N32	N	0.152472	1.492180	0.655920
H33	H	0.154236	1.072585	0.107229
O34	O	0.017727	1.638592	0.342220
C35	C	-0.162184	1.689784	0.295324
C36	C	-0.085133	1.605959	0.379285
H37	H	-0.245362	1.663448	0.325282
H38	H	-0.150124	1.676543	0.173500
H39	H	-0.148097	1.791490	0.325108
H40	H	-0.099172	1.504222	0.349623
H41	H	-0.097211	1.619308	0.501088
H42	H	-0.183363	1.664914	0.000006
O43	O	-0.350738	1.773373	-0.000086
C44	C	-0.385076	1.994553	-0.000004
C45	C	-0.431844	1.862633	0.000040
H46	H	-0.450628	2.066755	0.000128
H47	H	-0.335017	2.007357	-0.101216
H48	H	-0.334947	2.007203	0.101157
H49	H	-0.482021	1.849892	-0.101053
H50	H	-0.481843	1.849890	0.101318
O51	O	-0.563980	1.743327	-0.000286
C52	C	-0.699627	1.856511	-0.125515
C53	C	-0.627381	1.741317	-0.125411
H54	H	-0.750920	1.854910	-0.226653
H55	H	-0.650664	1.944847	-0.125612
H56	H	-0.750833	1.855009	-0.024284
H57	H	-0.576161	1.742697	-0.226625
H58	H	-0.676406	1.653031	-0.125238
H59	H	-0.511712	1.319426	-0.000023
H60	H	0.209497	1.430093	0.593839
H61	H	0.028858	1.626782	0.645790
O62	O	0.220356	1.418019	0.418349
C63	C	0.241413	1.250243	0.590344
C64	C	0.164422	1.334132	0.506363
H65	H	0.196221	1.182383	0.661500
H66	H	0.293447	1.310488	0.661691
H67	H	0.291580	1.195696	0.509918
H68	H	0.114187	1.388695	0.586684
H69	H	0.112460	1.273820	0.434994
O70	O	0.150805	0.922117	0.127843
C71	C	0.064264	1.073009	0.280658
C72	C	0.062733	1.001031	0.135804
H73	H	-0.006945	1.136808	0.287155
H74	H	0.138029	1.131398	0.287176
H75	H	0.062810	1.004029	0.374935
H76	H	0.064149	1.069923	0.041444
H77	H	-0.011026	0.942623	0.129412
O78	O	-0.131266	1.240822	0.000080
C79	C	-0.119772	1.016440	0.000017
C80	C	-0.191964	1.131682	-0.000044
H81	H	-0.168817	0.928171	-0.000114
H82	H	-0.068552	1.017841	0.101234
H83	H	-0.068491	1.018001	-0.101139
H84	H	-0.243310	1.130196	0.101043
H85	H	-0.243114	1.130238	-0.101328
O86	O	0.149479	0.857088	-0.253323
C87	C	0.149845	0.870595	-0.514806
C88	C	0.151437	0.942452	-0.369872
H89	H	0.151449	0.939580	-0.609073
H90	H	0.076015	0.812330	-0.521408
H91	H	0.220974	0.806661	-0.521225
H92	H	0.080359	1.006452	-0.363355
H93	H	0.225313	1.000637	-0.363331
H94	H	0.155207	1.117208	-0.232483
H95	H	-0.337807	1.229888	-0.000001
