data_functionalizedCrystal
_audit_creation_method	'MofGen! by Chris Wilmer'
_symmetry_space_group_name_H-M	'P1'
_symmetry_Int_Tables_number	1
_symmetry_cell_setting	triclinic
loop_
_symmetry_equiv_pos_as_xyz
  x,y,z
_cell_length_a	21.395362
_cell_length_b	16.959454
_cell_length_c	21.395355
_cell_angle_alpha	90.012996
_cell_angle_beta	90.043940
_cell_angle_gamma	90.035955
loop_
_atom_site_label
_atom_site_type_symbol
_atom_site_fract_x
_atom_site_fract_y
_atom_site_fract_z
Zn1	Zn	0.957906	-0.314438	0.354610
Zn2	Zn	1.457906	0.185562	0.854610
Zn3	Zn	0.957828	-0.446599	0.249842
Zn4	Zn	1.457828	0.053401	0.749842
Zn5	Zn	0.853121	-0.314475	0.249811
Zn6	Zn	1.353121	0.185525	0.749811
Zn7	Zn	0.853109	-0.446615	0.354547
Zn8	Zn	1.353109	0.053385	0.854547
O9	O	0.905491	-0.380532	0.302202
O10	O	1.405491	0.119468	0.802202
O11	O	1.045573	-0.331947	0.340751
O12	O	1.545573	0.168053	0.840751
O13	O	0.943910	-0.429081	0.162160
O14	O	1.443910	0.070919	0.662160
O15	O	0.867058	-0.203859	0.263726
O16	O	1.367058	0.296141	0.763726
O17	O	1.045516	-0.429045	0.263779
O18	O	1.545516	0.070955	0.763779
O19	O	0.944043	-0.203832	0.340721
O20	O	1.444043	0.296168	0.840721
O21	O	0.866982	-0.332010	0.162137
O22	O	1.366982	0.167990	0.662137
O23	O	0.765441	-0.332026	0.263665
O24	O	1.265441	0.167974	0.763665
O25	O	0.867039	-0.429073	0.442233
O26	O	1.367039	0.070927	0.942233
O27	O	0.765433	-0.429109	0.340614
O28	O	1.265433	0.070891	0.840614
O29	O	0.944032	-0.331963	0.442279
O30	O	1.444032	0.168037	0.942279
O31	O	0.943899	-0.557212	0.263718
O32	O	1.443899	-0.057212	0.763718
O33	O	0.866963	-0.557224	0.340645
O34	O	1.366963	-0.057224	0.840645
C35	C	0.742703	-0.380574	0.302130
C36	C	1.242703	0.119426	0.802130
C37	C	0.673062	-0.380610	0.302114
C38	C	1.173062	0.119390	0.802114
C39	C	0.640361	-0.431228	0.342121
C40	C	1.140361	0.068772	0.842121
C41	C	0.574925	-0.431209	0.342149
C42	C	1.074925	0.068791	0.842149
C43	C	0.542194	-0.380580	0.302158
C44	C	1.042194	0.119420	0.802158
C45	C	0.574903	-0.329952	0.262148
C46	C	1.074903	0.170048	0.762148
C47	C	0.640337	-0.329967	0.262126
C48	C	1.140337	0.170033	0.762126
C49	C	0.438468	-0.374212	0.245752
C50	C	0.938468	0.125788	0.745752
C51	C	0.373035	-0.374203	0.245774
C52	C	0.873035	0.125797	0.745774
C53	C	0.340373	-0.380528	0.302227
C54	C	0.840373	0.119472	0.802227
C55	C	0.373152	-0.386881	0.358661
C56	C	0.873152	0.113119	0.858661
C57	C	0.438586	-0.386896	0.358639
C58	C	0.938586	0.113104	0.858639
C59	C	0.471241	-0.380557	0.302178
C60	C	0.971241	0.119443	0.802178
C61	C	0.236719	-0.431128	0.342268
C62	C	0.736719	0.068872	0.842268
C63	C	0.171283	-0.431103	0.342297
C64	C	0.671283	0.068897	0.842297
C65	C	0.171261	-0.329850	0.262291
C66	C	0.671261	0.170150	0.762291
C67	C	0.236697	-0.329871	0.262267
C68	C	0.736697	0.170129	0.762267
C69	C	0.269422	-0.380514	0.302255
C70	C	0.769422	0.119486	0.802255
C71	C	0.905438	-0.585898	0.302192
C72	C	1.405438	-0.085898	0.802192
C73	C	0.905473	-0.673755	0.302208
C74	C	1.405473	-0.173755	0.802208
C75	C	0.865488	-1.045266	0.342254
C76	C	1.365488	-0.545266	0.842254
C77	C	0.945668	-1.045194	0.262215
C78	C	1.445668	-0.545194	0.762215
C79	C	0.945646	-0.962648	0.262209
C80	C	1.445646	-0.462648	0.762209
C81	C	0.905544	-0.921407	0.302226
C82	C	1.405544	-0.421407	0.802226
C83	C	0.865464	-0.962713	0.342248
C84	C	1.365464	-0.462713	0.842248
C85	C	0.985721	-0.921337	0.222184
C86	C	1.485721	-0.421337	0.722184
C87	C	0.985700	-0.838786	0.222176
C88	C	1.485700	-0.338786	0.722176
C89	C	0.945601	-0.797544	0.262196
C90	C	1.445601	-0.297544	0.762196
C91	C	0.905520	-0.838854	0.302220
C92	C	1.405520	-0.338854	0.802220
C93	C	0.865418	-0.797613	0.342236
C94	C	1.365418	-0.297613	0.842236
C95	C	0.825339	-0.838922	0.382264
C96	C	1.325339	-0.338922	0.882264
C97	C	0.825365	-0.921471	0.382268
C98	C	1.325365	-0.421471	0.882268
C99	C	0.945575	-0.714995	0.262192
C100	C	1.445575	-0.214995	0.762192
C101	C	0.865393	-0.715060	0.342230
C102	C	1.365393	-0.215060	0.842230
C103	C	1.068914	-0.380490	0.302276
C104	C	1.568914	0.119510	0.802276
C105	C	1.138555	-0.380473	0.302307
C106	C	1.638555	0.119527	0.802307
C107	C	0.905543	-0.380516	0.465626
C108	C	1.405543	0.119484	0.965626
C109	C	0.905565	-0.380509	0.535267
C110	C	1.405565	0.119491	1.035267
C111	C	0.905561	-0.174363	0.302227
C112	C	1.405561	0.325637	0.802227
C113	C	0.905590	-0.086507	0.302237
C114	C	1.405590	0.413493	0.802237
C115	C	0.905475	-0.380491	0.139415
C116	C	1.405475	0.119509	0.639415
C117	C	0.905574	-0.380275	0.069774
C118	C	1.405574	0.119725	0.569774
C119	C	0.945654	-0.329942	0.568005
C120	C	1.445654	0.170058	1.068005
C121	C	0.945653	-0.329908	0.633441
C122	C	1.445653	0.170092	1.133441
C123	C	0.905570	-0.380455	0.666135
C124	C	1.405570	0.119545	1.166135
C125	C	0.865473	-0.431026	0.633389
C126	C	1.365473	0.068974	1.133389
C127	C	0.865471	-0.431053	0.567955
C128	C	1.365471	0.068947	1.067955
C129	C	0.900604	-0.451628	0.769805
C130	C	1.400604	0.048372	1.269805
C131	C	0.900611	-0.451602	0.835238
C132	C	1.400611	0.048398	1.335238
C133	C	0.905574	-0.380371	0.867956
C134	C	1.405574	0.119629	1.367956
C135	C	0.910543	-0.309164	0.835234
C136	C	1.410543	0.190836	1.335234
C137	C	0.910540	-0.309191	0.769800
C138	C	1.410540	0.190809	1.269800
C139	C	0.905568	-0.380431	0.737088
C140	C	1.405568	0.119569	1.237088
C141	C	0.945664	-0.329763	0.971647
C142	C	1.445664	0.170237	1.471647
C143	C	0.945659	-0.329728	1.037084
C144	C	1.445659	0.170272	1.537084
C145	C	0.865482	-0.430853	1.037031
C146	C	1.365482	0.069147	1.537031
C147	C	0.865484	-0.430881	0.971596
C148	C	1.365484	0.069119	1.471596
C149	C	0.905578	-0.380337	0.938908
C150	C	1.405578	0.119663	1.438908
H151	H	0.144659	-0.472321	0.374880
H152	H	0.644659	0.027679	0.874880
H153	H	0.978313	-1.078777	0.229632
H154	H	1.478313	-0.578777	0.729632
F155	F	0.473223	-0.367481	0.185662
F156	F	0.973223	0.132519	0.685662
H157	H	1.018365	-0.954921	0.189600
H158	H	1.518365	-0.454921	0.689600
F159	F	1.028359	-0.794829	0.179579
F160	F	1.528359	-0.294829	0.679579
F161	F	0.782658	-0.795022	0.424848
F162	F	1.282658	-0.295022	0.924848
F163	F	0.136430	-0.275963	0.219733
F164	F	0.636430	0.224037	0.719733
F165	F	0.540066	-0.276066	0.219590
F166	F	1.040066	0.223934	0.719590
F167	F	0.822818	-0.484705	0.936752
F168	F	1.322818	0.015295	1.436752
H169	H	0.465272	-0.392066	0.404590
H170	H	0.965272	0.107934	0.904590
H171	H	0.832835	-0.472179	0.660014
H172	H	1.332835	0.027821	1.160014
F173	F	0.988221	-0.671035	0.219589
F174	F	1.488221	-0.171035	0.719589
F175	F	0.895337	-0.527449	0.734990
F176	F	1.395337	-0.027449	1.234990
F177	F	0.988312	-0.276072	0.668290
F178	F	1.488312	0.223928	1.168290
H179	H	0.978301	-0.288784	0.541395
H180	H	1.478301	0.211216	1.041395
F181	F	0.895328	-0.527387	0.870057
F182	F	1.395328	-0.027387	1.370057
H183	H	0.667002	-0.472465	0.374683
H184	H	1.167002	0.027535	0.874683
F185	F	0.540115	-0.485086	0.384732
F186	F	1.040115	0.014914	0.884732
H187	H	0.914584	-0.251211	0.743160
H188	H	1.414584	0.248789	1.243160
F189	F	0.915827	-0.233349	0.870050
F190	F	1.415827	0.266651	1.370050
H191	H	0.978303	-0.288545	1.063738
H192	H	1.478303	0.211455	1.563738
H193	H	0.666962	-0.288746	0.229547
H194	H	1.166962	0.211254	0.729547
F195	F	0.988332	-0.275968	0.936856
F196	F	1.488332	0.224032	1.436856
F197	F	0.822801	-0.484876	0.533112
F198	F	1.322801	0.015124	1.033112
F199	F	0.271501	-0.275998	0.219684
F200	F	0.771501	0.224002	0.719684
F201	F	0.822839	-1.089229	0.384855
F202	F	1.322839	-0.589229	0.884855
H203	H	0.832839	-0.472002	1.063651
H204	H	1.332839	0.027998	1.563651
H205	H	0.346351	-0.369035	0.199822
H206	H	0.846351	0.130965	0.699822
H207	H	0.346560	-0.392030	0.404632
H208	H	0.846560	0.107970	0.904632
F209	F	0.271550	-0.485022	0.384829
F210	F	0.771550	0.014978	0.884829
H211	H	0.792734	-0.955112	0.414855
H212	H	1.292734	-0.455112	0.914855
F213	F	0.822713	-0.671175	0.384825
F214	F	1.322713	-0.171175	0.884825
