data_functionalizedCrystal
_audit_creation_method	'MofGen! by Chris Wilmer'
_symmetry_space_group_name_H-M	'P1'
_symmetry_Int_Tables_number	1
_symmetry_cell_setting	triclinic
loop_
_symmetry_equiv_pos_as_xyz
  x,y,z
_cell_length_a	18.101398
_cell_length_b	25.639239
_cell_length_c	25.639234
_cell_angle_alpha	89.978894
_cell_angle_beta	89.983678
_cell_angle_gamma	90.033952
loop_
_atom_site_label
_atom_site_type_symbol
_atom_site_fract_x
_atom_site_fract_y
_atom_site_fract_z
Zn1	Zn	1.132023	-0.208268	-0.295694
Zn2	Zn	1.131920	-0.295691	-0.208259
Zn3	Zn	1.008200	-0.208264	-0.208264
Zn4	Zn	1.008117	-0.295667	-0.295654
O5	O	1.070065	-0.251972	-0.251968
O6	O	1.235643	-0.219877	-0.284111
O7	O	1.115500	-0.284101	-0.135094
O8	O	1.024703	-0.135099	-0.219880
O9	O	1.235567	-0.284106	-0.219872
O10	O	1.115676	-0.135102	-0.284115
O11	O	1.024603	-0.219869	-0.135098
O12	O	0.904556	-0.219846	-0.219841
O13	O	1.024562	-0.284066	-0.368824
O14	O	0.904495	-0.284061	-0.284046
O15	O	1.115595	-0.219854	-0.368854
O16	O	1.115420	-0.368853	-0.219833
O17	O	1.024462	-0.368836	-0.284042
C18	C	0.877654	-0.251951	-0.251940
C19	C	0.795340	-0.251955	-0.251941
C20	C	0.496249	-0.251987	-0.251985
C21	C	0.527588	-0.211383	-0.211786
C22	C	0.613206	-0.211492	-0.211614
C23	C	0.644632	-0.251971	-0.251963
C24	C	0.613506	-0.307045	-0.236906
C25	C	0.527861	-0.306819	-0.236626
C26	C	0.527856	-0.237996	-0.307336
C27	C	0.613507	-0.236770	-0.307034
C28	C	0.728491	-0.251965	-0.251952
C29	C	0.412390	-0.251997	-0.251995
C30	C	1.069940	-0.387815	-0.251944
C31	C	1.069955	-0.445929	-0.251951
C32	C	1.117550	-0.806289	-0.218591
C33	C	1.117579	-0.860893	-0.218598
O34	O	1.157917	-0.889126	-0.190208
N35	N	1.070195	-0.888212	-0.252002
C36	C	1.022785	-0.860923	-0.285405
O37	O	0.982484	-0.889174	-0.313819
C38	C	1.022760	-0.806320	-0.285401
C39	C	1.070142	-0.779004	-0.251990
C40	C	1.164929	-0.778973	-0.185184
C41	C	1.164899	-0.724372	-0.185176
C42	C	1.117491	-0.697087	-0.218576
C43	C	1.070112	-0.724403	-0.251983
C44	C	0.975354	-0.779032	-0.318806
C45	C	0.975334	-0.724425	-0.318799
C46	C	1.022716	-0.697109	-0.285388
C47	C	1.022674	-0.642518	-0.285375
N48	N	1.070058	-0.615200	-0.251971
C49	C	1.117466	-0.642484	-0.218571
C50	C	1.022841	-0.975594	-0.285413
C51	C	1.022861	-1.030196	-0.285416
C52	C	1.117656	-1.030162	-0.218609
C53	C	1.117632	-0.975559	-0.218604
C54	C	1.070224	-0.948275	-0.252009
C55	C	1.117399	-0.527819	-0.218557
C56	C	1.117363	-0.473214	-0.218551
C57	C	1.022571	-0.473253	-0.285360
C58	C	1.022604	-0.527853	-0.285364
C59	C	1.070024	-0.555135	-0.251961
O60	O	0.982359	-0.614250	-0.313752
O61	O	1.157767	-0.614227	-0.190167
C62	C	1.263227	-0.251994	-0.251995
C63	C	1.345541	-0.252003	-0.252007
C64	C	1.070081	-0.251958	-0.388341
C65	C	1.070088	-0.251951	-0.446455
C66	C	1.070210	-0.115599	-0.252003
C67	C	1.070272	-0.057485	-0.252018
C68	C	1.022736	-0.285321	-0.697627
C69	C	1.022723	-0.285332	-0.643023
O70	O	0.982392	-0.313756	-0.614768
N71	N	1.070116	-0.251909	-0.615729
C72	C	1.117520	-0.218468	-0.643042
O73	O	1.157829	-0.190040	-0.614812
C74	C	1.117528	-0.218454	-0.697645
C75	C	1.070137	-0.251883	-0.724936
C76	C	0.975348	-0.318747	-0.724918
C77	C	0.975362	-0.318736	-0.779519
C78	C	1.022764	-0.285298	-0.806828
C79	C	1.070152	-0.251872	-0.779537
C80	C	1.164928	-0.185011	-0.724957
C81	C	1.164932	-0.185000	-0.779564
C82	C	1.117541	-0.218429	-0.806855
C83	C	1.117567	-0.218424	-0.861447
N84	N	1.070174	-0.251847	-0.888741
C85	C	1.022773	-0.285284	-0.861431
C86	C	1.117497	-0.218500	-0.528371
C87	C	1.117492	-0.218516	-0.473769
C88	C	1.022694	-0.285380	-0.473753
C89	C	1.022703	-0.285366	-0.528357
C90	C	1.070104	-0.251923	-0.555665
C91	C	1.022806	-0.285258	-0.976097
C92	C	1.022827	-0.285246	-1.030702
C93	C	1.117622	-0.218380	-1.030713
C94	C	1.117605	-0.218395	-0.976112
C95	C	1.070191	-0.251836	-0.948805
O96	O	1.157876	-0.190013	-0.889736
O97	O	0.982463	-0.313703	-0.889668
C98	C	1.070092	-0.251949	-0.116125
C99	C	1.070229	-0.251809	-0.058011
H100	H	0.507855	-0.318685	-0.196162
H101	H	0.983969	-0.451029	-0.312552
C102	C	0.970479	-0.557901	-0.322115
N103	N	0.931224	-0.580530	-0.349801
H104	H	0.634927	-0.319117	-0.196879
C105	C	1.169757	-0.945516	-0.181853
N106	N	1.209021	-0.922891	-0.154170
C107	C	0.923232	-0.809068	-0.355562
N108	N	0.883971	-0.831689	-0.383250
H109	H	0.633666	-0.220741	-0.170600
H110	H	0.984096	-0.312605	-0.451508
H111	H	0.984191	-0.312484	-0.953870
C112	C	0.641641	-0.156317	-0.224358
N113	N	0.663054	-0.114756	-0.233953
C114	C	1.217055	-0.148230	-0.694949
N115	N	1.256316	-0.120522	-0.672348
H116	H	1.203538	-0.801182	-0.157986
C117	C	1.217080	-0.148211	-0.809600
N118	N	1.256360	-0.120503	-0.832222
H119	H	1.156199	-0.191178	-0.953890
C120	C	1.169560	-0.557821	-0.181809
N121	N	1.208843	-0.580419	-0.154128
C122	C	1.169754	-0.181596	-1.060763
N123	N	1.209013	-0.153885	-1.083399
C124	C	1.169631	-0.181744	-0.443754
N125	N	1.208899	-0.154044	-0.421150
H126	H	0.984235	-0.312470	-1.052920
H127	H	0.507128	-0.338096	-0.264629
C128	C	0.923198	-0.355534	-0.694887
N129	N	0.883918	-0.383247	-0.672270
C130	C	0.499803	-0.156040	-0.224393
N131	N	0.478870	-0.114355	-0.233890
H132	H	0.633860	-0.338108	-0.265269
H133	H	0.936770	-0.345956	-0.801734
C134	C	0.498473	-0.223728	-0.156701
N135	N	0.476541	-0.233028	-0.115211
H136	H	0.634901	-0.264189	-0.338590
C137	C	1.217017	-0.694332	-0.148418
N138	N	1.256273	-0.671709	-0.120728
H139	H	1.156261	-1.052387	-0.191415
C140	C	0.970565	-0.322136	-0.558372
N141	N	0.931290	-0.349832	-0.580977
C142	C	0.970730	-1.060237	-0.322165
N143	N	0.931466	-1.082863	-0.349847
C144	C	0.923181	-0.694417	-0.355548
N145	N	0.883899	-0.671815	-0.383226
C146	C	0.498726	-0.184684	-0.325827
N147	N	0.476788	-0.144526	-0.339748
H148	H	1.156102	-0.191267	-0.550602
C149	C	0.970688	-0.945587	-0.322166
N150	N	0.931412	-0.922988	-0.349851
H151	H	0.507588	-0.267571	-0.337288
H152	H	0.633856	-0.196241	-0.318387
H153	H	1.155947	-0.450975	-0.191343
