data_functionalizedCrystal
_audit_creation_method	'MofGen! by Chris Wilmer'
_symmetry_space_group_name_H-M	'P1'
_symmetry_Int_Tables_number	1
_symmetry_cell_setting	triclinic
loop_
_symmetry_equiv_pos_as_xyz
  x,y,z
_cell_length_a	10.967926
_cell_length_b	23.532357
_cell_length_c	22.610064
_cell_angle_alpha	89.989969
_cell_angle_beta	102.113953
_cell_angle_gamma	83.791997
loop_
_atom_site_label
_atom_site_type_symbol
_atom_site_fract_x
_atom_site_fract_y
_atom_site_fract_z
O1	O	1.654586	0.079870	0.119452
O2	O	1.987919	0.413203	0.452786
O3	O	2.321252	0.746536	0.786119
O4	O	1.291215	0.087516	0.082414
O5	O	1.624548	0.420849	0.415747
O6	O	1.957882	0.754182	0.749080
O7	O	1.483890	0.000830	0.102065
O8	O	1.817224	0.334164	0.435399
O9	O	2.150557	0.667497	0.768732
O10	O	1.461910	0.166555	0.099801
O11	O	1.795244	0.499888	0.433134
O12	O	2.128577	0.833222	0.766467
O13	O	1.483834	0.000830	0.200429
O14	O	1.817167	0.334163	0.533762
O15	O	2.150501	0.667497	0.867096
O16	O	1.291159	0.087515	0.180777
O17	O	1.624492	0.420849	0.514110
O18	O	1.957825	0.754182	0.847444
O19	O	1.654530	0.079869	0.217816
O20	O	1.987863	0.413203	0.551149
O21	O	2.321196	0.746536	0.884483
Zn22	Zn	1.472835	0.083692	0.214914
Zn23	Zn	1.806169	0.417026	0.548247
Zn24	Zn	2.139502	0.750359	0.881581
Zn25	Zn	1.472909	0.083693	0.085316
Zn26	Zn	1.806243	0.417026	0.418649
Zn27	Zn	2.139576	0.750359	0.751982
O28	O	1.461854	0.166555	0.198164
O29	O	1.795188	0.499888	0.531497
O30	O	2.128521	0.833221	0.864831
C31	C	1.244708	0.086959	0.126858
C32	C	1.578041	0.420293	0.460191
C33	C	1.911374	0.753626	0.793525
C34	C	1.106214	0.085295	0.112742
C35	C	1.439548	0.418628	0.446075
C36	C	1.772881	0.751962	0.779408
C37	C	1.044441	0.084553	0.157403
C38	C	1.377774	0.417886	0.490737
C39	C	1.711107	0.751219	0.824070
C40	C	0.901301	0.082832	0.142815
C41	C	1.234634	0.416166	0.476148
C42	C	1.567967	0.749499	0.809481
C43	C	1.483312	-0.020390	0.151193
C44	C	1.816646	0.312943	0.484526
C45	C	2.149979	0.646277	0.817860
C46	C	1.481659	-0.083619	0.151030
C47	C	1.814993	0.249714	0.484363
C48	C	2.148326	0.583047	0.817697
C49	C	1.471313	-0.475698	0.096322
C50	C	1.804646	-0.142364	0.429656
C51	C	2.137980	0.190969	0.762989
C52	C	1.469742	-0.535107	0.096159
C53	C	1.803075	-0.201774	0.429492
C54	C	2.136408	0.131559	0.762826
O55	O	1.468913	-0.565829	0.050472
O56	O	1.802246	-0.232496	0.383805
O57	O	2.135579	0.100838	0.717138
N58	N	1.468932	-0.564824	0.149697
N59	N	1.802265	-0.231490	0.483030
N60	N	2.135599	0.101843	0.816363
C61	C	1.469681	-0.535127	0.203400
C62	C	1.803014	-0.201793	0.536734
C63	C	2.136347	0.131540	0.870067
O64	O	1.468846	-0.565858	0.248923
O65	O	1.802180	-0.232525	0.582256
O66	O	2.135513	0.100809	0.915590
C67	C	1.471243	-0.475718	0.203562
C68	C	1.804576	-0.142384	0.536896
C69	C	2.137910	0.190949	0.870229
C70	C	1.472066	-0.446005	0.150022
C71	C	1.805399	-0.112672	0.483356
C72	C	2.138732	0.220662	0.816689
C73	C	1.472134	-0.445985	0.042787
C74	C	1.805467	-0.112652	0.376120
C75	C	2.138801	0.220682	0.709453
C76	C	1.473708	-0.386580	0.042951
C77	C	1.807041	-0.053246	0.376284
C78	C	2.140374	0.280087	0.709617
C79	C	1.474460	-0.356887	0.096650
C80	C	1.807793	-0.023554	0.429984
C81	C	2.141127	0.309780	0.763317
C82	C	1.473639	-0.386600	0.150186
C83	C	1.806972	-0.053266	0.483520
C84	C	2.140306	0.280067	0.816853
C85	C	1.471983	-0.446021	0.257264
C86	C	1.805316	-0.112688	0.590598
C87	C	2.138650	0.220645	0.923931
C88	C	1.473544	-0.386608	0.257421
C89	C	1.806878	-0.053275	0.590755
C90	C	2.140211	0.280058	0.924088
C91	C	1.474367	-0.356896	0.203881
C92	C	1.807700	-0.023562	0.537215
C93	C	2.141034	0.309771	0.870548
C94	C	1.475965	-0.297502	0.204050
C95	C	1.809298	0.035832	0.537383
C96	C	2.142632	0.369165	0.870717
N97	N	1.476775	-0.267785	0.150512
N98	N	1.810108	0.065548	0.483846
N99	N	2.143442	0.398881	0.817179
C100	C	1.476022	-0.297478	0.096812
C101	C	1.809356	0.035855	0.430146
C102	C	2.142689	0.369189	0.763479
C103	C	1.466398	-0.659890	0.203056
C104	C	1.799731	-0.326556	0.536389
C105	C	2.133064	0.006777	0.869722
C106	C	1.464844	-0.719298	0.202895
C107	C	1.798178	-0.385965	0.536229
C108	C	2.131511	-0.052631	0.869562
C109	C	1.464903	-0.719274	0.095653
C110	C	1.798236	-0.385941	0.428987
C111	C	2.131570	-0.052608	0.762320
C112	C	1.466465	-0.659865	0.095815
C113	C	1.799799	-0.326532	0.429149
C114	C	2.133132	0.006801	0.762482
C115	C	1.467207	-0.630173	0.149518
C116	C	1.800541	-0.296840	0.482851
C117	C	2.133874	0.036493	0.816185
C118	C	1.479328	-0.172722	0.097161
C119	C	1.812661	0.160611	0.430494
C120	C	2.145995	0.493944	0.763828
C121	C	1.480907	-0.113312	0.097330
C122	C	1.814240	0.220021	0.430664
C123	C	2.147574	0.553355	0.763997
C124	C	1.480842	-0.113340	0.204571
C125	C	1.814175	0.219993	0.537904
C126	C	2.147508	0.553326	0.871238
C127	C	1.479269	-0.172746	0.204403
C128	C	1.812603	0.160587	0.537736
C129	C	2.145936	0.493921	0.871069
C130	C	1.478508	-0.202435	0.150693
C131	C	1.811842	0.130898	0.484026
C132	C	2.145175	0.464231	0.817359
O133	O	1.476790	-0.266742	0.249713
O134	O	1.810123	0.066591	0.583047
O135	O	2.143457	0.399925	0.916380
O136	O	1.476840	-0.266738	0.051296
O137	O	1.810174	0.066595	0.384629
O138	O	2.143507	0.399928	0.717962
C139	C	1.701037	0.080426	0.173370
C140	C	2.034370	0.413759	0.506704
C141	C	2.367704	0.747093	0.840037
C142	C	1.839530	0.082090	0.187483
C143	C	2.172863	0.415424	0.520816
C144	C	2.506197	0.748757	0.854149
C145	C	1.462432	0.187775	0.149035
C146	C	1.795765	0.521108	0.482369
C147	C	2.129099	0.854442	0.815702
C148	C	1.464085	0.251004	0.149194
C149	C	1.797418	0.584338	0.482528
C150	C	2.130752	0.917671	0.815861
N151	N	1.472794	0.083692	0.303362
N152	N	1.806127	0.417025	0.636695
N153	N	2.139461	0.750358	0.970029
N154	N	1.472961	0.083689	-0.003131
N155	N	1.806294	0.417022	0.330202
N156	N	2.139627	0.750356	0.663535
C157	C	1.548137	0.118542	0.719678
C158	C	1.881470	0.451875	1.053011
C159	C	2.214803	0.785209	1.386345
C160	C	1.548152	0.118541	0.781600
C161	C	1.881486	0.451874	1.114933
C162	C	2.214819	0.785207	1.448266
O163	O	1.612162	0.148168	0.820138
O164	O	1.945495	0.481501	1.153472
O165	O	2.278829	0.814835	1.486805
N166	N	1.472933	0.083686	0.804913
N167	N	1.806267	0.417020	1.138247
N168	N	2.139600	0.750353	1.471580
C169	C	1.397703	0.048827	0.766303
C170	C	1.731036	0.382160	1.099636
C171	C	2.064370	0.715493	1.432970
O172	O	1.333726	0.019180	0.791819
O173	O	1.667059	0.352513	1.125153
O174	O	2.000392	0.685846	1.458486
C175	C	1.397695	0.048825	0.704384
C176	C	1.731028	0.382159	1.037717
C177	C	2.064362	0.715492	1.371050
C178	C	1.472910	0.083686	0.681072
C179	C	1.806243	0.417020	1.014406
C180	C	2.139576	0.750353	1.347739
C181	C	1.623346	0.153400	0.696366
C182	C	1.956679	0.486733	1.029700
C183	C	2.290013	0.820067	1.363033
C184	C	1.623328	0.153402	0.634449
C185	C	1.956662	0.486735	0.967782
C186	C	2.289995	0.820069	1.301115
C187	C	1.548101	0.118546	0.595843
C188	C	1.881435	0.451879	0.929176
C189	C	2.214768	0.785213	1.262510
C190	C	1.472892	0.083688	0.619155
C191	C	1.806225	0.417022	0.952488
C192	C	2.139558	0.750355	1.285822
C193	C	1.322472	0.013963	0.665775
C194	C	1.655806	0.347296	0.999108
C195	C	1.989139	0.680630	1.332442
C196	C	1.322472	0.013965	0.603852
C197	C	1.655805	0.347298	0.937185
C198	C	1.989138	0.680631	1.270519
C199	C	1.397686	0.048826	0.580541
C200	C	1.731019	0.382159	0.913874
C201	C	2.064353	0.715492	1.247207
C202	C	1.397647	0.048835	0.518632
C203	C	1.730980	0.382168	0.851965
C204	C	2.064314	0.715501	1.185298
N205	N	1.472866	0.083689	0.495318
N206	N	1.806199	0.417022	0.828651
N207	N	2.139533	0.750356	1.161984
C208	C	1.548093	0.118545	0.533924
C209	C	1.881426	0.451878	0.867257
C210	C	2.214760	0.785212	1.200590
C211	C	1.397727	0.048831	0.896339
C212	C	1.731061	0.382165	1.229673
C213	C	2.064394	0.715498	1.563006
C214	C	1.397728	0.048835	0.958257
C215	C	1.731061	0.382169	1.291590
C216	C	2.064395	0.715502	1.624924
C217	C	1.548179	0.118549	0.973549
C218	C	1.881513	0.451882	1.306883
C219	C	2.214846	0.785215	1.640216
C220	C	1.548171	0.118547	0.911630
C221	C	1.881505	0.451881	1.244963
C222	C	2.214838	0.785214	1.578296
C223	C	1.472947	0.083686	0.873025
C224	C	1.806280	0.417019	1.206359
C225	C	2.139613	0.750352	1.539692
C226	C	1.548049	0.118547	0.403892
C227	C	1.881383	0.451880	0.737225
C228	C	2.214716	0.785213	1.070558
C229	C	1.548021	0.118547	0.341968
C230	C	1.881354	0.451881	0.675301
C231	C	2.214688	0.785214	1.008634
C232	C	1.397575	0.048832	0.326681
C233	C	1.730909	0.382165	0.660015
C234	C	2.064242	0.715499	0.993348
C235	C	1.397598	0.048833	0.388599
C236	C	1.730931	0.382167	0.721933
C237	C	2.064265	0.715500	1.055266
C238	C	1.472845	0.083692	0.427204
C239	C	1.806178	0.417026	0.760537
C240	C	2.139512	0.750359	1.093871
O241	O	1.333674	0.019221	0.480057
O242	O	1.667007	0.352554	0.813391
O243	O	2.000340	0.685888	1.146724
O244	O	1.612072	0.148181	0.508400
O245	O	1.945406	0.481515	0.841733
O246	O	2.278739	0.814848	1.175067
H247	H	1.481579	-0.089123	0.053730
H248	H	1.814913	0.244211	0.387063
H249	H	2.148246	0.577544	0.720397
N250	N	1.704479	0.191004	0.737997
N251	N	2.037812	0.524338	1.071330
N252	N	2.371145	0.857671	1.404663
H253	H	1.693084	0.185724	0.780763
H254	H	2.026417	0.519058	1.114096
H255	H	2.359750	0.852391	1.447430
H256	H	1.795360	0.180134	0.736422
H257	H	2.128693	0.513468	1.069755
H258	H	2.462026	0.846801	1.403088
H259	H	1.261214	-0.014425	0.572423
H260	H	1.594547	0.318908	0.905756
H261	H	1.927881	0.652242	1.239089
H262	H	1.609269	0.146938	0.322991
H263	H	1.942603	0.480271	0.656325
H264	H	2.275936	0.813605	0.989658
H265	H	0.848222	0.082193	0.093775
H266	H	1.181556	0.415526	0.427108
H267	H	1.514889	0.748860	0.760441
N268	N	0.909835	0.082939	0.252441
N269	N	1.243168	0.416272	0.585775
N270	N	1.576501	0.749605	0.919108
H271	H	0.876674	0.117909	0.272512
H272	H	1.210007	0.451242	0.605845
H273	H	1.543340	0.784575	0.939178
H274	H	0.897786	0.047404	0.274631
H275	H	1.231119	0.380737	0.607964
H276	H	1.564453	0.714070	0.941298
N277	N	1.035908	0.084445	0.047786
N278	N	1.369241	0.417778	0.381119
N279	N	1.702575	0.751112	0.714453
H280	H	0.971347	0.119036	0.038842
H281	H	1.304680	0.452369	0.372175
H282	H	1.638013	0.785702	0.705509
H283	H	1.096880	0.085155	0.020026
H284	H	1.430214	0.418488	0.353360
H285	H	1.763547	0.751822	0.686693
H286	H	1.478702	-0.196888	0.053424
H287	H	1.812036	0.136445	0.386758
H288	H	2.145369	0.469779	0.720091
H289	H	1.478611	-0.196940	0.248000
H290	H	1.811945	0.136393	0.581334
H291	H	2.145278	0.469727	0.914667
H292	H	1.609417	0.146935	0.892654
H293	H	1.942750	0.480268	1.225988
H294	H	2.276083	0.813601	1.559321
H295	H	1.481460	-0.089154	0.248293
H296	H	1.814793	0.244179	0.581626
H297	H	2.148127	0.577512	0.914959
H298	H	1.684581	0.181787	0.615476
H299	H	2.017915	0.515120	0.948809
H300	H	2.351248	0.848454	1.282142
N301	N	1.629366	0.156131	1.015190
N302	N	1.962700	0.489464	1.348523
N303	N	2.296033	0.822798	1.681856
H304	H	1.604245	0.197467	1.001856
H305	H	1.937579	0.530801	1.335189
H306	H	2.270912	0.864134	1.668523
H307	H	1.617946	0.150792	1.057942
H308	H	1.951279	0.484126	1.391275
H309	H	2.284613	0.817459	1.724608
N310	N	1.474588	-0.354536	-0.014797
N311	N	1.807921	-0.021203	0.318536
N312	N	2.141254	0.312131	0.651870
H313	H	1.473868	-0.382368	-0.048836
H314	H	1.807202	-0.049035	0.284497
H315	H	2.140535	0.284299	0.617831
H316	H	1.397880	-0.325570	-0.024953
H317	H	1.731214	0.007763	0.308381
H318	H	2.064547	0.341097	0.641714
H319	H	1.471517	-0.470154	-0.000945
H320	H	1.804850	-0.136821	0.332388
H321	H	2.138183	0.196513	0.665722
H322	H	1.467133	-0.635677	0.052218
H323	H	1.800466	-0.302344	0.385552
H324	H	2.133800	0.030990	0.718885
H325	H	1.467006	-0.635718	0.246790
H326	H	1.800339	-0.302385	0.580123
H327	H	2.133672	0.030948	0.913456
N328	N	1.464091	-0.751306	0.037732
N329	N	1.797424	-0.417972	0.371065
N330	N	2.130757	-0.084639	0.704399
H331	H	1.462972	-0.793449	0.045758
H332	H	1.796305	-0.460115	0.379091
H333	H	2.129639	-0.126782	0.712424
H334	H	1.387020	-0.736601	0.006460
H335	H	1.720353	-0.403268	0.339793
H336	H	2.053687	-0.069934	0.673127
N337	N	1.463984	-0.751344	0.260644
N338	N	1.797318	-0.418010	0.593977
N339	N	2.130651	-0.084677	0.927311
H340	H	1.464702	-0.723513	0.294685
H341	H	1.798035	-0.390180	0.628018
H342	H	2.131369	-0.056847	0.961351
H343	H	1.385975	-0.771674	0.255032
H344	H	1.719309	-0.438341	0.588365
H345	H	2.052642	-0.105007	0.921698
H346	H	1.336466	0.020455	0.977229
H347	H	1.669799	0.353788	1.310563
H348	H	2.003132	0.687121	1.643896
N349	N	1.114736	0.085402	0.222361
N350	N	1.448069	0.418736	0.555694
N351	N	1.781403	0.752069	0.889028
H352	H	1.102706	0.049891	0.244599
H353	H	1.436040	0.383224	0.577932
H354	H	1.769373	0.716557	0.911265
H355	H	1.206997	0.086533	0.223524
H356	H	1.540330	0.419867	0.556857
H357	H	1.873663	0.753200	0.890190
H358	H	1.261226	-0.014425	0.684744
H359	H	1.594560	0.318908	1.018077
H360	H	1.927893	0.652241	1.351410
H361	H	1.471315	-0.470203	0.300862
H362	H	1.804649	-0.136870	0.634196
H363	H	2.137982	0.196463	0.967529
N364	N	1.316455	0.011233	0.285038
N365	N	1.649788	0.344566	0.618371
N366	N	1.983121	0.677899	0.951704
H367	H	1.255064	0.035767	0.253091
H368	H	1.588398	0.369101	0.586425
H369	H	1.921731	0.702434	0.919758
H370	H	1.371242	-0.016403	0.264966
H371	H	1.704575	0.316930	0.598299
H372	H	2.037908	0.650264	0.931632
N373	N	1.474340	-0.354583	0.315344
N374	N	1.807674	-0.021250	0.648678
N375	N	2.141007	0.312084	0.982011
H376	H	1.473582	-0.382424	0.349233
H377	H	1.806915	-0.049091	0.682566
H378	H	2.140249	0.284242	1.015899
H379	H	1.552347	-0.334254	0.325637
H380	H	1.885680	-0.000921	0.658971
H381	H	2.219014	0.332413	0.992304
H382	H	1.336458	0.020445	0.864909
H383	H	1.669792	0.353778	1.198243
H384	H	2.003125	0.687111	1.531576
N385	N	1.316451	0.011246	0.413744
N386	N	1.649785	0.344580	0.747078
N387	N	1.983118	0.677913	1.080411
H388	H	1.268786	-0.010831	0.379889
H389	H	1.602119	0.322503	0.713222
H390	H	1.935452	0.655836	1.046555
H391	H	1.371207	-0.016371	0.445010
H392	H	1.704541	0.316962	0.778343
H393	H	2.037874	0.650296	1.111677
H394	H	1.609323	0.146932	0.435317
H395	H	1.942657	0.480265	0.768650
H396	H	2.275990	0.813599	1.101984
