data_functionalizedCrystal
_audit_creation_method	'MofGen! by Chris Wilmer'
_symmetry_space_group_name_H-M	'P1'
_symmetry_Int_Tables_number	1
_symmetry_cell_setting	triclinic
loop_
_symmetry_equiv_pos_as_xyz
  x,y,z
_cell_length_a	19.805407
_cell_length_b	15.297510
_cell_length_c	19.805399
_cell_angle_alpha	99.651501
_cell_angle_beta	90.020409
_cell_angle_gamma	80.289054
loop_
_atom_site_label
_atom_site_type_symbol
_atom_site_fract_x
_atom_site_fract_y
_atom_site_fract_z
Zn1	Zn	0.988094	0.359145	0.429355
Zn2	Zn	1.488094	0.859145	0.929355
Zn3	Zn	0.968416	0.510015	0.335752
Zn4	Zn	1.468416	1.010015	0.835752
Zn5	Zn	0.874905	0.359175	0.316182
Zn6	Zn	1.374905	0.859175	0.816182
Zn7	Zn	0.855285	0.509972	0.448891
Zn8	Zn	1.355285	1.009972	0.948891
O9	O	0.921675	0.434576	0.382545
O10	O	1.421675	0.934576	0.882545
O11	O	1.080200	0.379163	0.416953
O12	O	1.580200	0.879163	0.916953
O13	O	0.955987	0.490036	0.238443
O14	O	1.455987	0.990036	0.738443
O15	O	0.906367	0.232922	0.314829
O16	O	1.406367	0.732922	0.814829
O17	O	1.065742	0.490007	0.348182
O18	O	1.565742	0.990007	0.848182
O19	O	0.989526	0.232900	0.397977
O20	O	1.489526	0.732900	0.897977
O21	O	0.887285	0.379214	0.224065
O22	O	1.387285	0.879214	0.724065
O23	O	0.777587	0.379173	0.333772
O24	O	1.277587	0.879173	0.833772
O25	O	0.872927	0.489934	0.541012
O26	O	1.372927	0.989934	1.041012
O27	O	0.763172	0.489963	0.431273
O28	O	1.263172	0.989963	0.931273
O29	O	0.970501	0.379122	0.526659
O30	O	1.470501	0.879122	1.026659
O31	O	0.936963	0.636258	0.367125
O32	O	1.436963	1.136258	0.867125
O33	O	0.853846	0.636226	0.450248
O34	O	1.353846	1.136226	0.950248
C35	C	0.745820	0.434567	0.382519
C36	C	1.245820	0.934567	0.882519
C37	C	0.670586	0.434585	0.382527
C38	C	1.170586	0.934585	0.882527
C39	C	0.891158	0.668977	0.412945
C40	C	1.391158	1.168977	0.912945
C41	C	0.878165	0.769254	0.425973
C42	C	1.378165	1.269254	0.925973
C43	C	0.216314	0.376968	0.418460
C44	C	0.716314	0.876968	0.918460
C45	C	0.287002	0.376970	0.418456
C46	C	0.787002	0.876970	0.918456
C47	C	0.314824	0.434590	0.382569
C48	C	0.814824	0.934590	0.882569
C49	C	0.271952	0.492219	0.346690
C50	C	0.771952	0.992219	0.846690
C51	C	0.201265	0.492221	0.346699
C52	C	0.701265	0.992221	0.846699
C53	C	0.557026	0.492212	0.346653
C54	C	1.057026	0.992212	0.846653
C55	C	0.627720	0.492204	0.346645
C56	C	1.127720	0.992204	0.846645
C57	C	0.642764	0.376961	0.418410
C58	C	1.142764	0.876961	0.918410
C59	C	0.572076	0.376963	0.418419
C60	C	1.072076	0.876963	0.918419
C61	C	0.529210	0.434595	0.382543
C62	C	1.029210	0.934595	0.882543
C63	C	0.452562	0.434593	0.382550
C64	C	0.952562	0.934593	0.882550
C65	C	0.391471	0.434588	0.382558
C66	C	0.891471	0.934588	0.882558
C67	C	1.014786	1.051860	0.289702
C68	C	1.514786	1.551860	0.789702
C69	C	1.026994	0.957645	0.277459
C70	C	1.526994	1.457645	0.777459
C71	C	0.989788	0.910542	0.314586
C72	C	1.489788	1.410542	0.814586
C73	C	0.940372	0.957665	0.363960
C74	C	1.440372	1.457665	0.863960
C75	C	0.928159	1.051890	0.376201
C76	C	1.428159	1.551890	0.876201
C77	C	0.903161	0.910572	0.401085
C78	C	1.403161	1.410572	0.901085
C79	C	0.853744	0.957695	0.450458
C80	C	1.353744	1.457695	0.950458
C81	C	0.841534	1.051911	0.462697
C82	C	1.341534	1.551911	0.962697
C83	C	0.878740	1.099013	0.425570
C84	C	1.378740	1.599013	0.925570
C85	C	0.915373	0.816347	0.388843
C86	C	1.415373	1.316347	0.888843
C87	C	0.828746	0.816377	0.475342
C88	C	1.328746	1.316377	0.975342
C89	C	0.816538	0.910593	0.487586
C90	C	1.316538	1.410593	0.987586
C91	C	1.098217	0.434586	0.382571
C92	C	1.598217	0.934586	0.882571
C93	C	1.173448	0.434591	0.382582
C94	C	1.673448	0.934591	0.882582
C95	C	0.921721	0.434520	0.559080
C96	C	1.421721	0.934520	1.059080
C97	C	0.921740	0.434495	0.634309
C98	C	1.421740	0.934495	1.134309
C99	C	0.952324	1.199261	0.352048
C100	C	1.452324	1.699261	0.852048
C101	C	0.965368	1.098983	0.339071
C102	C	1.465368	1.598983	0.839071
C103	C	0.921677	0.434568	0.206688
C104	C	1.421677	0.934568	0.706688
C105	C	0.921822	0.434338	0.131427
C106	C	1.421822	0.934338	0.631427
C107	C	0.972548	0.376793	0.662181
C108	C	1.472548	0.876793	1.162181
C109	C	0.972559	0.376767	0.732866
C110	C	1.472559	0.876767	1.232866
C111	C	0.921763	0.434448	0.775679
C112	C	1.421763	0.934448	1.275679
C113	C	0.870949	0.492154	0.747803
C114	C	1.370949	0.992154	1.247803
C115	C	0.870937	0.492175	0.677118
C116	C	1.370937	0.992175	1.177118
C117	C	0.870998	0.492069	1.032865
C118	C	1.370998	0.992069	1.532865
C119	C	0.871016	0.492046	1.103555
C120	C	1.371016	0.992046	1.603555
C121	C	0.972620	0.376661	1.088613
C122	C	1.472620	0.876661	1.588613
C123	C	0.972608	0.376682	1.017928
C124	C	1.472608	0.876682	1.517928
C125	C	0.921793	0.434384	0.990058
C126	C	1.421793	0.934384	1.490058
C127	C	0.921781	0.434410	0.913413
C128	C	1.421781	0.934410	1.413413
C129	C	0.921776	0.434427	0.852323
C130	C	1.421776	0.934427	1.352323
H131	H	0.321900	0.330051	0.447673
H132	H	0.821900	0.830051	0.947673
H133	H	0.999730	0.833828	0.304614
H134	H	1.499730	1.333828	0.804614
H135	H	0.868805	1.175731	0.435538
H136	H	1.368805	1.675731	0.935538
C137	C	1.025464	0.223921	0.976379
C138	C	1.525464	0.723921	1.476379
C139	C	1.028442	0.313268	0.970872
C140	C	1.528442	0.813268	1.470872
H141	H	1.059931	0.184768	0.947326
H142	H	1.559931	0.684768	1.447326
H143	H	1.032743	0.215662	1.022461
H144	H	1.532743	0.715662	1.522461
H145	H	0.981701	0.210735	0.963072
H146	H	1.481701	0.710735	1.463072
H147	H	1.072204	0.326456	0.984184
H148	H	1.572204	0.826456	1.484184
H149	H	1.021169	0.321531	0.924779
H150	H	1.521169	0.821531	1.424779
C151	C	1.111399	0.967086	0.193198
C152	C	1.611399	1.467086	0.693198
C153	C	1.081316	0.905850	0.223197
C154	C	1.581316	1.405850	0.723197
H155	H	1.144941	0.935108	0.159702
H156	H	1.644941	1.435108	0.659702
H157	H	1.077156	1.003886	0.172059
H158	H	1.577156	1.503886	0.672059
H159	H	1.132511	1.003785	0.227489
H160	H	1.632511	1.503785	0.727489
H161	H	1.060199	0.869155	0.188907
H162	H	1.560199	1.369155	0.688907
H163	H	1.115565	0.869035	0.244336
H164	H	1.615565	1.369035	0.744336
C165	C	0.845720	0.613544	0.613345
C166	C	1.345720	1.113544	1.113345
C167	C	0.815093	0.555604	0.646473
C168	C	1.315093	1.055604	1.146473
H169	H	0.811242	0.652697	0.594422
H170	H	1.311242	1.152697	1.094422
H171	H	0.870710	0.648047	0.645400
H172	H	1.370710	1.148047	1.145400
H173	H	0.875971	0.579178	0.577738
H174	H	1.375971	1.079178	1.077738
H175	H	0.784845	0.589969	0.682084
H176	H	1.284845	1.089969	1.182084
H177	H	0.790091	0.521097	0.614415
H178	H	1.290091	1.021097	1.114415
H179	H	0.955608	0.777988	0.348643
H180	H	1.455608	1.277988	0.848643
H181	H	0.677673	0.330036	0.447624
H182	H	1.177673	0.830036	0.947624
H183	H	1.045070	1.090219	0.259474
H184	H	1.545070	1.590219	0.759474
H185	H	0.650369	0.539129	0.317421
H186	H	1.150369	1.039129	0.817421
H187	H	0.193668	0.330041	0.447679
H188	H	0.693668	0.830041	0.947679
H189	H	0.829630	0.539067	1.010184
H190	H	1.329630	1.039067	1.510184
H191	H	0.801288	1.090276	0.502893
H192	H	1.301288	1.590276	1.002893
H193	H	0.829588	0.539116	0.782667
H194	H	1.329588	1.039116	1.282667
H195	H	0.294610	0.539138	0.317473
H196	H	0.794610	1.039138	0.817473
H197	H	0.549428	0.330039	0.447639
H198	H	1.049428	0.830039	0.947639
H199	H	0.166363	0.539145	0.317485
H200	H	0.666363	1.039145	0.817485
C201	C	0.515384	0.644923	0.333297
C202	C	1.015384	1.144923	0.833297
C203	C	0.509920	0.555555	0.307211
C204	C	1.009920	1.055555	0.807211
H205	H	0.486304	0.684028	0.308940
H206	H	0.986304	1.184028	0.808940
H207	H	0.502084	0.658205	0.380474
H208	H	1.002084	1.158205	0.880474
H209	H	0.561470	0.653147	0.328156
H210	H	1.061470	1.153147	0.828156
H211	H	0.463835	0.547329	0.312356
H212	H	0.963835	1.047329	0.812356
H213	H	0.523216	0.542269	0.260022
H214	H	1.023216	1.042269	0.760022
C215	C	0.759357	1.055041	0.544750
C216	C	1.259357	1.555041	1.044750
C217	C	0.762216	0.962397	0.541851
C218	C	1.262216	1.462397	1.041851
H219	H	0.725817	1.087021	0.578249
H220	H	1.225817	1.587021	1.078249
H221	H	0.802831	1.070414	0.556697
H222	H	1.302831	1.570414	1.056697
H223	H	0.747471	1.070519	0.501272
H224	H	1.247471	1.570519	1.001272
H225	H	0.774106	0.946918	0.585328
H226	H	1.274106	1.446918	1.085328
H227	H	0.718732	0.947018	0.529908
H228	H	1.218732	1.447018	1.029908
H229	H	0.798448	0.778027	0.505573
H230	H	1.298448	1.278027	1.005573
C231	C	1.072980	0.262727	0.654517
C232	C	1.572980	0.762727	1.154517
C233	C	1.028384	0.313384	0.615123
C234	C	1.528384	0.813384	1.115123
H235	H	1.107447	0.223576	0.625465
H236	H	1.607447	0.723576	1.125465
H237	H	1.093754	0.302028	0.687185
H238	H	1.593754	0.802028	1.187185
H239	H	1.047981	0.228213	0.677610
H240	H	1.547981	0.728213	1.177610
H241	H	1.053382	0.347904	0.592035
H242	H	1.553382	0.847904	1.092035
H243	H	1.007609	0.274079	0.582443
H244	H	1.507609	0.774079	1.082443
H245	H	1.013933	0.329781	0.755555
H246	H	1.513933	0.829781	1.255555
C247	C	0.845813	0.613385	1.198769
C248	C	1.345813	1.113385	1.698769
C249	C	0.815175	0.555455	1.150615
C250	C	1.315175	1.055455	1.650615
H251	H	0.811340	0.652533	1.227818
H252	H	1.311340	1.152533	1.727818
H253	H	0.876070	0.579018	1.225482
H254	H	1.376070	1.079018	1.725482
H255	H	0.870796	0.647902	1.175663
H256	H	1.370796	1.147902	1.675663
H257	H	0.790196	0.520933	1.173721
H258	H	1.290196	1.020933	1.673721
H259	H	0.784906	0.589826	1.123899
H260	H	1.284906	1.089826	1.623899
H261	H	1.013995	0.329675	1.111313
H262	H	1.513995	0.829675	1.611313
