data_functionalizedCrystal
_audit_creation_method	'MofGen! by Chris Wilmer'
_symmetry_space_group_name_H-M	'P1'
_symmetry_Int_Tables_number	1
_symmetry_cell_setting	triclinic
loop_
_symmetry_equiv_pos_as_xyz
  x,y,z
_cell_length_a	18.215407
_cell_length_b	15.297327
_cell_length_c	18.215399
_cell_angle_alpha	99.645421
_cell_angle_beta	89.983176
_cell_angle_gamma	99.707397
loop_
_atom_site_label
_atom_site_type_symbol
_atom_site_fract_x
_atom_site_fract_y
_atom_site_fract_z
Zn1	Zn	1.074338	-0.359142	-0.466791
Zn2	Zn	1.407672	-0.025809	-0.133457
Zn3	Zn	1.741005	0.307525	0.199876
Zn4	Zn	1.052949	-0.510019	-0.365013
Zn5	Zn	1.386282	-0.176686	-0.031680
Zn6	Zn	1.719616	0.156647	0.301653
Zn7	Zn	0.951272	-0.359178	-0.343743
Zn8	Zn	1.284606	-0.025844	-0.010410
Zn9	Zn	1.617939	0.307489	0.322924
Zn10	Zn	0.929941	-0.509963	-0.488030
Zn11	Zn	1.263274	-0.176629	-0.154697
Zn12	Zn	1.596607	0.156704	0.178637
O13	O	1.002125	-0.434575	-0.415894
O14	O	1.335458	-0.101242	-0.082561
O15	O	1.668792	0.232091	0.250772
O16	O	1.174484	-0.379165	-0.453303
O17	O	1.507817	-0.045831	-0.119969
O18	O	1.841151	0.287502	0.213364
O19	O	1.039437	-0.490049	-0.259213
O20	O	1.372771	-0.156715	0.074120
O21	O	1.706104	0.176618	0.407454
O22	O	0.985476	-0.232926	-0.342275
O23	O	1.318810	0.100407	-0.008942
O24	O	1.652143	0.433741	0.324391
O25	O	1.158769	-0.490014	-0.378527
O26	O	1.492103	-0.156680	-0.045194
O27	O	1.825436	0.176653	0.288140
O28	O	1.075892	-0.232900	-0.432678
O29	O	1.409226	0.100434	-0.099345
O30	O	1.742559	0.433767	0.233989
O31	O	0.964736	-0.379226	-0.243586
O32	O	1.298069	-0.045892	0.089748
O33	O	1.631403	0.287441	0.423081
O34	O	0.845460	-0.379171	-0.362870
O35	O	1.178793	-0.045838	-0.029537
O36	O	1.512126	0.287496	0.303796
O37	O	0.949119	-0.489917	-0.588192
O38	O	1.282453	-0.156584	-0.254858
O39	O	1.615786	0.176749	0.078475
O40	O	0.829787	-0.489952	-0.468877
O41	O	1.163121	-0.156619	-0.135544
O42	O	1.496454	0.176715	0.197789
O43	O	1.055208	-0.379110	-0.572587
O44	O	1.388541	-0.045777	-0.239254
O45	O	1.721875	0.287557	0.094080
O46	O	1.018753	-0.636259	-0.399122
O47	O	1.352086	-0.302925	-0.065789
O48	O	1.685419	0.030408	0.267545
O49	O	0.928379	-0.636217	-0.489502
O50	O	1.261712	-0.302884	-0.156169
O51	O	1.595046	0.030450	0.177165
C52	C	0.810921	-0.434560	-0.415871
C53	C	1.144254	-0.101227	-0.082538
C54	C	1.477588	0.232107	0.250796
C55	C	0.729120	-0.434575	-0.415882
C56	C	1.062453	-0.101242	-0.082548
C57	C	1.395787	0.232092	0.250785
C58	C	0.532772	-0.492350	-0.471033
C59	C	0.866105	-0.159016	-0.137700
C60	C	1.199439	0.174317	0.195633
C61	C	0.455913	-0.492352	-0.471043
C62	C	0.789246	-0.159019	-0.137709
C63	C	1.122579	0.174314	0.195624
C64	C	0.472228	-0.376818	-0.360774
C65	C	0.805561	-0.043484	-0.027441
C66	C	1.138895	0.289849	0.305893
C67	C	0.549086	-0.376811	-0.360768
C68	C	0.882420	-0.043478	-0.027435
C69	C	1.215753	0.289856	0.305899
C70	C	0.579356	-0.434582	-0.415897
C71	C	0.912689	-0.101249	-0.082564
C72	C	1.246022	0.232085	0.250769
C73	C	0.425638	-0.434592	-0.415913
C74	C	0.758971	-0.101258	-0.082579
C75	C	1.092305	0.232075	0.250754
C76	C	0.342304	-0.434594	-0.415923
C77	C	0.675637	-0.101261	-0.082589
C78	C	1.008971	0.232073	0.250744
C79	C	0.662695	-0.434578	-0.415888
C80	C	0.996028	-0.101245	-0.082555
C81	C	1.329362	0.232088	0.250778
C82	C	0.968950	-0.668972	-0.448941
C83	C	1.302283	-0.335639	-0.115608
C84	C	1.635617	-0.002306	0.217726
C85	C	0.954825	-0.769248	-0.463103
C86	C	1.288158	-0.435915	-0.129770
C87	C	1.621492	-0.102581	0.203564
C88	C	1.103383	-1.051871	-0.314927
C89	C	1.436716	-0.718537	0.018407
C90	C	1.770050	-0.385204	0.351740
C91	C	1.116654	-0.957656	-0.301617
C92	C	1.449987	-0.624323	0.031716
C93	C	1.783320	-0.290990	0.365050
C94	C	1.076198	-0.910550	-0.341987
C95	C	1.409531	-0.577216	-0.008654
C96	C	1.742865	-0.243883	0.324679
C97	C	1.022468	-0.957666	-0.395670
C98	C	1.355802	-0.624333	-0.062336
C99	C	1.689135	-0.291000	0.270997
C100	C	1.009192	-1.051890	-0.408977
C101	C	1.342525	-0.718557	-0.075643
C102	C	1.675859	-0.385223	0.257690
C103	C	0.982007	-0.910569	-0.436037
C104	C	1.315341	-0.577236	-0.102704
C105	C	1.648674	-0.243902	0.230629
C106	C	0.928278	-0.957686	-0.489720
C107	C	1.261611	-0.624352	-0.156386
C108	C	1.594944	-0.291019	0.176947
C109	C	0.915004	-1.051900	-0.503025
C110	C	1.248338	-0.718567	-0.169691
C111	C	1.581671	-0.385233	0.163642
C112	C	0.955460	-1.099007	-0.462654
C113	C	1.288793	-0.765673	-0.129321
C114	C	1.622127	-0.432340	0.204013
C115	C	0.995284	-0.816346	-0.422730
C116	C	1.328617	-0.483012	-0.089397
C117	C	1.661950	-0.149679	0.243936
C118	C	0.901093	-0.816365	-0.516781
C119	C	1.234426	-0.483032	-0.183447
C120	C	1.567759	-0.149698	0.149886
C121	C	0.887822	-0.910579	-0.530090
C122	C	1.221155	-0.577246	-0.196757
C123	C	1.554489	-0.243912	0.136576
C124	C	1.194076	-0.434592	-0.415918
C125	C	1.527409	-0.101258	-0.082585
C126	C	1.860742	0.232075	0.250748
C127	C	1.275874	-0.434598	-0.415928
C128	C	1.609207	-0.101265	-0.082595
C129	C	1.942540	0.232068	0.250738
C130	C	1.002170	-0.434503	-0.607837
C131	C	1.335503	-0.101170	-0.274504
C132	C	1.668837	0.232163	0.058830
C133	C	1.002189	-0.434473	-0.689632
C134	C	1.335523	-0.101139	-0.356298
C135	C	1.668856	0.232194	-0.022965
C136	C	1.035450	-0.199263	-0.382735
C137	C	1.368783	0.134070	-0.049401
C138	C	1.702116	0.467403	0.283932
C139	C	1.049651	-0.098987	-0.368604
C140	C	1.382984	0.234346	-0.035271
C141	C	1.716317	0.567679	0.298063
C142	C	0.963337	-0.376728	-0.869684
C143	C	1.296671	-0.043395	-0.536351
C144	C	1.630004	0.289938	-0.203018
C145	C	0.963353	-0.376710	-0.946540
C146	C	1.296686	-0.043377	-0.613207
C147	C	1.630019	0.289957	-0.279874
C148	C	1.041144	-0.492109	-0.962802
C149	C	1.374477	-0.158776	-0.629469
C150	C	1.707811	0.174557	-0.296135
C151	C	1.041124	-0.492131	-0.885948
C152	C	1.374457	-0.158798	-0.552614
C153	C	1.707791	0.174535	-0.219281
C154	C	1.002222	-0.434436	-0.839390
C155	C	1.335556	-0.101102	-0.506057
C156	C	1.668889	0.232231	-0.172723
C157	C	1.002258	-0.434396	-0.993101
C158	C	1.335591	-0.101062	-0.659767
C159	C	1.668925	0.232271	-0.326434
C160	C	1.002275	-0.434376	-1.076432
C161	C	1.335608	-0.101043	-0.743098
C162	C	1.668942	0.232290	-0.409765
C163	C	1.002204	-0.434456	-0.756054
C164	C	1.335538	-0.101123	-0.422721
C165	C	1.668871	0.232211	-0.089387
C166	C	1.002132	-0.434582	-0.224689
C167	C	1.335465	-0.101249	0.108644
C168	C	1.668799	0.232085	0.441978
C169	C	1.002291	-0.434359	-0.142859
C170	C	1.335625	-0.101025	0.190474
C171	C	1.668958	0.232308	0.523808
H172	H	0.417987	-0.539391	-0.515941
H173	H	0.751320	-0.206058	-0.182608
H174	H	1.084654	0.127275	0.150726
H175	H	0.871246	-1.090260	-0.546728
H176	H	1.204579	-0.756927	-0.213394
H177	H	1.537912	-0.423593	0.119939
C178	C	0.920569	-0.313245	-0.979866
C179	C	1.253903	0.020088	-0.646533
C180	C	1.587236	0.353421	-0.313200
H181	H	0.926140	-0.321504	-1.032307
H182	H	1.259474	0.011829	-0.698974
H183	H	1.592807	0.345163	-0.365641
H184	H	0.939909	-0.252629	-0.958740
H185	H	1.273243	0.080704	-0.625407
H186	H	1.606576	0.414038	-0.292074
H187	H	0.869249	-0.326468	-0.969120
H188	H	1.202582	0.006865	-0.635787
H189	H	1.535916	0.340199	-0.302454
H190	H	0.447573	-0.329784	-0.315889
H191	H	0.780906	0.003549	0.017445
H192	H	1.114240	0.336883	0.350778
C193	C	1.175755	-0.905834	-0.242577
C194	C	1.509089	-0.572501	0.090757
C195	C	1.842422	-0.239168	0.424090
H196	H	1.197953	-0.947381	-0.220444
H197	H	1.531287	-0.614047	0.112889
H198	H	1.864620	-0.280714	0.446222
H199	H	1.152796	-0.869134	-0.205302
H200	H	1.486129	-0.535800	0.128031
H201	H	1.819463	-0.202467	0.461364
H202	H	1.212992	-0.869026	-0.265565
H203	H	1.546325	-0.535693	0.067768
H204	H	1.879659	-0.202359	0.401102
C205	C	1.147875	-1.103684	-0.270521
C206	C	1.481208	-0.770350	0.062813
C207	C	1.814542	-0.437017	0.396146
H208	H	1.181774	-1.062132	-0.236641
H209	H	1.515107	-0.728798	0.096692
H210	H	1.848440	-0.395465	0.430025
H211	H	1.174751	-1.140388	-0.303881
H212	H	1.508084	-0.807054	0.029452
H213	H	1.841417	-0.473721	0.362785
H214	H	1.114546	-1.140488	-0.243627
H215	H	1.447880	-0.807154	0.089706
H216	H	1.781213	-0.473821	0.423040
H217	H	0.931661	-0.329749	-0.831779
H218	H	1.264995	0.003584	-0.498445
H219	H	1.598328	0.336918	-0.165112
C220	C	0.940860	-1.202643	-0.477290
C221	C	1.274193	-0.869310	-0.143957
C222	C	1.607527	-0.535977	0.189376
H223	H	0.972649	-1.223946	-0.445556
H224	H	1.305982	-0.890612	-0.112223
H225	H	1.639315	-0.557279	0.221110
H226	H	0.950559	-1.223907	-0.527795
H227	H	1.283892	-0.890574	-0.194462
H228	H	1.617225	-0.557241	0.138871
H229	H	0.890364	-1.224015	-0.467532
H230	H	1.223697	-0.890681	-0.134199
H231	H	1.557030	-0.557348	0.199135
H232	H	1.039030	-0.777991	-0.379022
H233	H	1.372364	-0.444658	-0.045688
H234	H	1.705697	-0.111325	0.287645
C235	C	1.083940	-0.555561	-1.014016
C236	C	1.417274	-0.222227	-0.680682
C237	C	1.750607	0.111106	-0.347349
H238	H	1.078391	-0.547277	-1.064126
H239	H	1.411724	-0.213943	-0.730792
H240	H	1.745057	0.119390	-0.397459
H241	H	1.064587	-0.616181	-1.009960
H242	H	1.397921	-0.282848	-0.676627
H243	H	1.731254	0.050486	-0.343294
H244	H	1.135256	-0.542354	-0.999561
H245	H	1.468589	-0.209020	-0.666228
H246	H	1.801923	0.124313	-0.332894
H247	H	1.087006	-0.833836	-0.331147
H248	H	1.420339	-0.500503	0.002187
H249	H	1.753672	-0.167169	0.335520
H250	H	0.557415	-0.539388	-0.515925
H251	H	0.890748	-0.206055	-0.182591
H252	H	1.224081	0.127278	0.150742
C253	C	0.600331	-0.313265	-0.300115
C254	C	0.933665	0.020069	0.033219
C255	C	1.266998	0.353402	0.366552
H256	H	0.571296	-0.278869	-0.267276
H257	H	0.904630	0.054465	0.066057
H258	H	1.237963	0.387798	0.399390
H259	H	0.635881	-0.273997	-0.322780
H260	H	0.969214	0.059336	0.010553
H261	H	1.302547	0.392669	0.343886
H262	H	0.625424	-0.347732	-0.272860
H263	H	0.958757	-0.014399	0.060473
H264	H	1.292091	0.318934	0.393806
H265	H	1.072790	-0.539127	-0.861283
H266	H	1.406123	-0.205794	-0.527950
H267	H	1.739457	0.127539	-0.194616
H268	H	0.868149	-0.778011	-0.549652
H269	H	1.201482	-0.444678	-0.216319
H270	H	1.534815	-0.111345	0.117014
H271	H	0.844075	-0.948955	-0.573799
H272	H	1.177408	-0.615622	-0.240465
H273	H	1.510741	-0.282288	0.092868
