data_functionalizedCrystal
_audit_creation_method	'MofGen! by Chris Wilmer'
_symmetry_space_group_name_H-M	'P1'
_symmetry_Int_Tables_number	1
_symmetry_cell_setting	triclinic
loop_
_symmetry_equiv_pos_as_xyz
  x,y,z
_cell_length_a	10.723023
_cell_length_b	10.723022
_cell_length_c	16.053802
_cell_angle_alpha	92.591234
_cell_angle_beta	87.394764
_cell_angle_gamma	84.467387
loop_
_atom_site_label
_atom_site_type_symbol
_atom_site_fract_x
_atom_site_fract_y
_atom_site_fract_z
O1	O	1.662407	0.169814	-0.069418
O2	O	1.299255	0.186569	-0.069422
O3	O	1.489208	-0.003385	-0.069417
O4	O	1.472453	0.359768	-0.069423
O5	O	1.478752	0.007027	0.069442
O6	O	1.288799	0.196981	0.069437
O7	O	1.651951	0.180227	0.069440
Zn8	Zn	1.468715	0.190257	0.091485
Zn9	Zn	1.482491	0.176538	-0.091467
O10	O	1.461997	0.370180	0.069435
C11	C	1.247527	0.190556	0.000007
C12	C	1.108973	0.186908	0.000006
C13	C	1.041784	0.190676	0.071938
C14	C	0.898581	0.186906	0.071938
C15	C	1.482761	-0.044678	0.000011
C16	C	1.479115	-0.183233	0.000008
C17	C	1.369575	-0.231794	0.000006
C18	C	1.365803	-0.374997	0.000003
C19	C	1.703679	0.176239	0.000009
C20	C	1.842233	0.179886	0.000005
C21	C	1.468444	0.411473	0.000005
C22	C	1.472091	0.550027	0.000003
N23	N	1.459322	0.199618	0.216345
N24	N	1.491893	0.167167	-0.216327
C25	C	1.540178	0.118822	0.260041
C26	C	1.533619	0.125383	0.347448
C27	C	1.446210	0.212747	0.391157
C28	C	1.365346	0.293546	0.347455
C29	C	1.371899	0.286979	0.260050
C30	C	1.417583	0.241399	0.652566
C31	C	1.411038	0.247963	0.739977
C32	C	1.579310	0.079797	0.739964
C33	C	1.585861	0.073243	0.652557
C34	C	1.504993	0.154038	0.608863
N35	N	1.439506	0.219457	0.480501
N36	N	1.511691	0.147320	0.519521
H37	H	0.899984	0.176674	-0.061582
O38	O	1.634450	0.024589	0.212899
H39	H	1.689561	-0.030500	0.257971
O40	O	1.596334	-0.394604	-0.000003
H41	H	1.673618	-0.471318	-0.000012
H42	H	1.599457	0.059592	0.383025
O43	O	1.680127	-0.020995	0.605413
H44	H	1.735242	-0.076087	0.650483
O45	O	0.822245	0.191307	0.153590
H46	H	0.834211	0.279641	0.189799
O47	O	1.106004	0.198658	0.153519
H48	H	1.175457	0.115588	0.157093
H49	H	1.060478	0.180888	-0.061578
H50	H	1.645148	0.014016	0.775548
H51	H	1.278586	-0.167351	0.000010
H52	H	1.570103	-0.247675	0.000012
H53	H	1.339855	0.319110	0.775561
O54	O	1.330377	0.328549	0.605442
H55	H	1.268509	0.390410	0.650523
O56	O	1.241560	-0.430363	0.000007
H57	H	1.258094	-0.534150	0.000013
H58	H	1.294169	0.364675	0.383048
H59	H	1.306057	0.352770	0.224473
