data_functionalizedCrystal
_audit_creation_method	'MofGen! by Chris Wilmer'
_symmetry_space_group_name_H-M	'P1'
_symmetry_Int_Tables_number	1
_symmetry_cell_setting	triclinic
loop_
_symmetry_equiv_pos_as_xyz
  x,y,z
_cell_length_a	15.625950
_cell_length_b	14.044190
_cell_length_c	14.750779
_cell_angle_alpha	76.178157
_cell_angle_beta	120.090508
_cell_angle_gamma	88.497992
loop_
_atom_site_label
_atom_site_type_symbol
_atom_site_fract_x
_atom_site_fract_y
_atom_site_fract_z
O1	O	1.288760	0.028993	0.368632
O2	O	1.788760	0.528993	0.868632
O3	O	1.005367	0.069096	0.270012
O4	O	1.505367	0.569096	0.770012
O5	O	1.142811	-0.088570	0.317861
O6	O	1.642811	0.411430	0.817861
O7	O	1.151316	0.186658	0.320783
O8	O	1.651316	0.686658	0.820783
O9	O	1.181665	-0.133136	0.491037
O10	O	1.681665	0.366864	0.991037
O11	O	1.044221	0.024530	0.443188
O12	O	1.544221	0.524530	0.943188
O13	O	1.327614	-0.015573	0.541808
O14	O	1.827614	0.484427	1.041808
Zn15	Zn	1.192086	-0.002597	0.519994
Zn16	Zn	1.692086	0.497403	1.019994
Zn17	Zn	1.140894	0.056120	0.291826
Zn18	Zn	1.640894	0.556120	0.791826
O19	O	1.190170	0.142093	0.493959
O20	O	1.690170	0.642093	0.993959
C21	C	0.988307	0.049410	0.343903
C22	C	1.488307	0.549410	0.843903
C23	C	0.879585	0.057136	0.306069
C24	C	1.379585	0.557136	0.806069
C25	C	0.627794	-0.038831	0.653505
C26	C	1.127794	0.461169	1.153505
C27	C	0.525622	-0.031539	0.617906
C28	C	1.025622	0.468461	1.117906
C29	C	0.483315	0.017041	0.429133
C30	C	0.983315	0.517041	0.929133
C31	C	0.585486	0.009758	0.464716
C32	C	1.085486	0.509758	0.964716
C33	C	0.657718	-0.018179	0.576903
C34	C	1.157718	0.481821	1.076903
C35	C	0.615409	0.030410	0.388115
C36	C	1.115409	0.530410	0.888115
C37	C	0.717571	0.023122	0.423696
C38	C	1.217571	0.523122	0.923696
C39	C	0.789808	-0.004817	0.535878
C40	C	1.289808	0.495183	1.035878
C41	C	0.759879	-0.025467	0.612484
C42	C	1.259879	0.474533	1.112484
C43	C	0.543176	0.058340	0.275928
C44	C	1.043176	0.558340	0.775928
C45	C	0.573100	0.078992	0.199327
C46	C	1.073100	0.578992	0.699327
C47	C	0.675262	0.071711	0.234907
C48	C	1.175262	0.571711	0.734907
C49	C	0.747500	0.043772	0.347089
C50	C	1.247500	0.543772	0.847089
C51	C	0.705192	0.092361	0.158301
C52	C	1.205192	0.592361	0.658301
C53	C	0.807353	0.085074	0.193882
C54	C	1.307353	0.585074	0.693882
C55	C	0.849662	0.036485	0.382670
C56	C	1.349662	0.536485	0.882670
C57	C	1.158513	-0.145840	0.403156
C58	C	1.658513	0.354160	0.903156
C59	C	1.147405	-0.250087	0.399298
C60	C	1.647405	0.249913	0.899298
C61	C	1.205883	-0.505526	0.419611
C62	C	1.705883	-0.005526	0.919611
C63	C	1.127100	-0.440944	0.392201
C64	C	1.627100	0.059056	0.892201
C65	C	1.138400	-0.334742	0.396151
C66	C	1.638400	0.165258	0.896151
C67	C	1.194584	-0.611738	0.415662
C68	C	1.694584	-0.111738	0.915662
C69	C	1.344674	0.004113	0.467915
C70	C	1.844674	0.504113	0.967915
C71	C	1.453393	-0.003612	0.505742
C72	C	1.953393	0.496388	1.005742
C73	C	1.174467	0.199363	0.408662
C74	C	1.674467	0.699363	0.908662
C75	C	1.185574	0.303612	0.412513
C76	C	1.685574	0.803612	0.912513
N77	N	1.227030	-0.042672	0.675715
N78	N	1.727030	0.457328	1.175715
N79	N	1.105957	0.096186	0.136108
N80	N	1.605957	0.596186	0.636108
C81	C	1.008359	0.208066	0.951406
C82	C	1.508359	0.708066	1.451406
C83	C	1.032854	0.179990	1.060432
C84	C	1.532854	0.679990	1.560432
C85	C	1.154592	0.040422	1.102776
C86	C	1.654592	0.540422	1.602776
C87	C	1.130104	0.068483	0.993750
C88	C	1.630104	0.568483	1.493750
C89	C	1.056988	0.152306	0.918073
C90	C	1.556988	0.652306	1.418073
C91	C	1.178733	0.012724	0.960417
C92	C	1.678733	0.512724	1.460417
C93	C	1.154250	0.040786	0.851402
C94	C	1.654250	0.540786	1.351402
C95	C	1.081140	0.124608	0.775719
C96	C	1.581140	0.624608	1.275719
C97	C	1.032506	0.180369	0.809057
C98	C	1.532506	0.680369	1.309057
C99	C	1.251853	-0.071095	1.036098
C100	C	1.751853	0.428905	1.536098
C101	C	1.300482	-0.126855	1.002765
C102	C	1.800482	0.373145	1.502765
C103	C	1.275995	-0.098797	0.893746
C104	C	1.775995	0.401203	1.393746
C105	C	1.202884	-0.014975	0.818063
C106	C	1.702884	0.485025	1.318063
C107	C	1.324629	-0.154558	0.860408
C108	C	1.824629	0.345442	1.360408
C109	C	1.300146	-0.126495	0.751392
C110	C	1.800146	0.373505	1.251392
C111	C	1.178402	0.013088	0.709048
C112	C	1.678402	0.513088	1.209048
H113	H	0.908478	0.013750	0.474024
H114	H	1.408478	0.513750	0.974024
Br115	Br	1.285084	-0.109171	1.184051
Br116	Br	1.785084	0.390829	1.684051
H117	H	0.993249	0.225404	1.087563
H118	H	1.493249	0.725404	1.587563
H119	H	1.360017	-0.195103	1.064394
H120	H	1.860017	0.304897	1.564394
Br121	Br	1.000537	-0.481727	0.348153
Br122	Br	1.500537	0.018273	0.848153
H123	H	0.818695	-0.048202	0.703838
H124	H	1.318695	0.451798	1.203838
H125	H	1.281813	-0.481057	0.446044
H126	H	1.781813	0.018943	0.946044
Br127	Br	0.475066	0.116868	0.047078
Br128	Br	0.975066	0.616868	0.547078
Br129	Br	1.079156	0.126839	0.606332
Br130	Br	1.579156	0.626839	1.106332
H131	H	0.831716	0.101895	0.131505
H132	H	1.331716	0.601895	0.631505
Br133	Br	0.933260	0.294121	0.706342
Br134	Br	1.433260	0.794121	1.206342
Br135	Br	1.423869	-0.268303	0.963125
Br136	Br	1.923869	0.231697	1.463125
H137	H	1.061210	0.147458	0.686954
H138	H	1.561210	0.647458	1.186954
H139	H	0.948814	0.276317	0.889783
H140	H	1.448814	0.776317	1.389783
Br141	Br	0.485017	-0.059592	0.721878
Br142	Br	0.985017	0.440408	1.221878
Br143	Br	0.928460	-0.014720	0.584171
Br144	Br	1.428460	0.485280	1.084171
Br145	Br	0.725832	-0.076730	0.805761
Br146	Br	1.225832	0.423270	1.305761
H147	H	1.214126	-0.027826	1.164406
H148	H	1.714126	0.472174	1.664406
H149	H	1.339746	-0.171900	0.724254
H150	H	1.839746	0.328100	1.224254
Br151	Br	0.385281	0.054917	0.276885
Br152	Br	0.885281	0.554917	0.776885
H153	H	0.646367	0.115098	0.066958
H154	H	1.146367	0.615098	0.566958
H155	H	0.459991	0.064277	0.246962
H156	H	0.959991	0.564277	0.746962
