data_functionalizedCrystal
_audit_creation_method	'MofGen! by Chris Wilmer'
_symmetry_space_group_name_H-M	'P1'
_symmetry_Int_Tables_number	1
_symmetry_cell_setting	triclinic
loop_
_symmetry_equiv_pos_as_xyz
  x,y,z
_cell_length_a	19.288840
_cell_length_b	23.532407
_cell_length_c	18.366186
_cell_angle_alpha	89.992445
_cell_angle_beta	90.013590
_cell_angle_gamma	97.012658
loop_
_atom_site_label
_atom_site_type_symbol
_atom_site_fract_x
_atom_site_fract_y
_atom_site_fract_z
O1	O	0.921143	-0.070974	0.060681
O2	O	1.254476	0.262360	0.394014
O3	O	1.587809	0.595693	0.727347
O4	O	0.718850	-0.080572	0.060657
O5	O	1.052183	0.252761	0.393990
O6	O	1.385517	0.586094	0.727323
O7	O	0.826097	0.007146	0.060654
O8	O	1.159430	0.340480	0.393987
O9	O	1.492763	0.673813	0.727320
O10	O	0.813896	-0.158692	0.060684
O11	O	1.147230	0.174641	0.394017
O12	O	1.480563	0.507974	0.727351
O13	O	0.826083	0.007143	-0.060446
O14	O	1.159416	0.340477	0.272888
O15	O	1.492749	0.673810	0.606221
O16	O	0.718836	-0.080575	-0.060443
O17	O	1.052170	0.252758	0.272891
O18	O	1.385503	0.586091	0.606224
O19	O	0.921129	-0.070977	-0.060419
O20	O	1.254462	0.262357	0.272915
O21	O	1.587796	0.595690	0.606248
Zn22	Zn	0.819980	-0.075777	-0.079658
Zn23	Zn	1.153314	0.257557	0.253676
Zn24	Zn	1.486647	0.590890	0.587009
Zn25	Zn	0.819999	-0.075773	0.079896
Zn26	Zn	1.153332	0.257561	0.413229
Zn27	Zn	1.486665	0.590894	0.746563
O28	O	0.813882	-0.158696	-0.060416
O29	O	1.147216	0.174638	0.272918
O30	O	1.480549	0.507971	0.606251
C31	C	0.692967	-0.080267	0.000104
C32	C	1.026301	0.253066	0.333437
C33	C	1.359634	0.586399	0.666770
C34	C	0.615866	-0.079347	0.000094
C35	C	0.949199	0.253986	0.333427
C36	C	1.282532	0.587319	0.666761
C37	C	0.579671	-0.078904	0.066107
C38	C	0.913004	0.254430	0.399440
C39	C	1.246338	0.587763	0.732774
C40	C	0.507227	-0.078033	0.066116
C41	C	0.840560	0.255300	0.399449
C42	C	1.173894	0.588634	0.732782
C43	C	0.470982	-0.077594	0.000108
C44	C	0.804315	0.255739	0.333441
C45	C	1.137649	0.589072	0.666774
C46	C	0.507185	-0.078041	-0.065914
C47	C	0.840518	0.255292	0.267419
C48	C	1.173851	0.588625	0.600753
C49	C	0.579627	-0.078918	-0.065921
C50	C	0.912960	0.254415	0.267412
C51	C	1.246293	0.587749	0.600746
C52	C	0.361756	-0.042849	-0.050460
C53	C	0.695089	0.290484	0.282873
C54	C	1.028422	0.623818	0.616207
C55	C	0.289316	-0.041969	-0.050450
C56	C	0.622649	0.291364	0.282883
C57	C	0.955982	0.624698	0.616216
C58	C	0.247547	-0.074894	0.000126
C59	C	0.580880	0.258440	0.333460
C60	C	0.914213	0.591773	0.666793
C61	C	0.278228	-0.108691	0.050705
C62	C	0.611561	0.224643	0.384039
C63	C	0.944894	0.557976	0.717372
C64	C	0.350670	-0.109567	0.050698
C65	C	0.684003	0.223766	0.384032
C66	C	1.017336	0.557100	0.717365
C67	C	0.392431	-0.076644	0.000108
C68	C	0.725764	0.256689	0.333441
C69	C	1.059098	0.590022	0.666774
C70	C	0.132800	-0.073506	0.066153
C71	C	0.466133	0.259827	0.399487
C72	C	0.799466	0.593160	0.732820
C73	C	0.060353	-0.072639	0.066159
C74	C	0.393687	0.260694	0.399493
C75	C	0.727020	0.594027	0.732826
C76	C	0.060314	-0.072642	-0.065872
C77	C	0.393647	0.260692	0.267461
C78	C	0.726980	0.594025	0.600794
C79	C	0.132758	-0.073515	-0.065877
C80	C	0.466091	0.259819	0.267457
C81	C	0.799424	0.593152	0.600790
C82	C	0.168997	-0.073944	0.000138
C83	C	0.502330	0.259389	0.333472
C84	C	0.835663	0.592722	0.666805
C85	C	0.825779	0.028362	0.000101
C86	C	1.159112	0.361695	0.333435
C87	C	1.492446	0.695028	0.666768
C88	C	0.824845	0.091581	0.000094
C89	C	1.158178	0.424914	0.333427
C90	C	1.491512	0.758247	0.666760
C91	C	0.882453	0.490568	0.000129
C92	C	1.215786	0.823902	0.333462
C93	C	1.549119	1.157235	0.666795
C94	C	0.881585	0.549970	0.000132
C95	C	1.214918	0.883304	0.333466
C96	C	1.548251	1.216637	0.666799
O97	O	0.934988	0.586608	0.000164
O98	O	1.268321	0.919942	0.333498
O99	O	1.601654	1.253275	0.666831
N100	N	0.817827	0.572724	0.000123
N101	N	1.151160	0.906057	0.333457
N102	N	1.484493	1.239391	0.666790
C103	C	0.754932	0.536072	0.000118
C104	C	1.088266	0.869406	0.333452
C105	C	1.421599	1.202739	0.666785
O106	O	0.700622	0.560880	0.000112
O107	O	1.033955	0.894214	0.333445
O108	O	1.367288	1.227547	0.666778
C109	C	0.755801	0.476671	0.000120
C110	C	1.089134	0.810005	0.333453
C111	C	1.422468	1.143338	0.666787
C112	C	0.819563	0.453921	0.000121
C113	C	1.152896	0.787255	0.333455
C114	C	1.486230	1.120588	0.666788
C115	C	0.946209	0.467818	0.000131
C116	C	1.279543	0.801151	0.333464
C117	C	1.612876	1.134484	0.666798
C118	C	0.947077	0.408420	0.000126
C119	C	1.280410	0.741753	0.333459
C120	C	1.613744	1.075087	0.666793
C121	C	0.884187	0.371773	0.000119
C122	C	1.217521	0.705106	0.333452
C123	C	1.550854	1.038439	0.666785
C124	C	0.820430	0.394523	0.000116
C125	C	1.153764	0.727857	0.333450
C126	C	1.487097	1.061190	0.666783
C127	C	0.692907	0.440021	0.000120
C128	C	1.026241	0.773354	0.333453
C129	C	1.359574	1.106687	0.666787
C130	C	0.693781	0.380616	0.000122
C131	C	1.027115	0.713950	0.333455
C132	C	1.360448	1.047283	0.666789
C133	C	0.757543	0.357866	0.000124
C134	C	1.090877	0.691200	0.333457
C135	C	1.424210	1.024533	0.666790
C136	C	0.758408	0.298478	0.000104
C137	C	1.091742	0.631812	0.333437
C138	C	1.425075	0.965145	0.666771
N139	N	0.822166	0.275725	0.000113
N140	N	1.155500	0.609058	0.333446
N141	N	1.488833	0.942391	0.666780
C142	C	0.885056	0.312372	0.000120
C143	C	1.218389	0.645705	0.333454
C144	C	1.551722	0.979039	0.666787
C145	C	0.753113	0.660818	0.000116
C146	C	1.086447	0.994152	0.333450
C147	C	1.419780	1.327485	0.666783
C148	C	0.752244	0.720218	0.000110
C149	C	1.085578	1.053551	0.333443
C150	C	1.418911	1.386885	0.666776
C151	C	0.878897	0.734112	0.000125
C152	C	1.212230	1.067446	0.333458
C153	C	1.545564	1.400779	0.666792
C154	C	0.879765	0.674711	0.000126
C155	C	1.213099	1.008045	0.333460
C156	C	1.546432	1.341378	0.666793
C157	C	0.816871	0.638065	0.000125
C158	C	1.150205	0.971398	0.333459
C159	C	1.483538	1.304731	0.666792
C160	C	0.886873	0.187631	0.000109
C161	C	1.220206	0.520965	0.333442
C162	C	1.553539	0.854298	0.666776
C163	C	0.887734	0.128228	0.000101
C164	C	1.221068	0.461561	0.333434
C165	C	1.554401	0.794894	0.666768
C166	C	0.761082	0.114339	0.000090
C167	C	1.094416	0.447672	0.333423
C168	C	1.427749	0.781005	0.666756
C169	C	0.760220	0.173737	0.000094
C170	C	1.093553	0.507071	0.333427
C171	C	1.426887	0.840404	0.666760
C172	C	0.823121	0.210383	0.000106
C173	C	1.156454	0.543716	0.333439
C174	C	1.489788	0.877049	0.666773
O175	O	0.705034	0.261806	0.000075
O176	O	1.038367	0.595139	0.333408
O177	O	1.371700	0.928473	0.666742
O178	O	0.939358	0.287555	0.000136
O179	O	1.272691	0.620889	0.333470
O180	O	1.606024	0.954222	0.666803
C181	C	0.947012	-0.071282	0.000136
C182	C	1.280345	0.262052	0.333469
C183	C	1.613678	0.595385	0.666803
C184	C	1.024113	-0.072202	0.000151
C185	C	1.357447	0.261132	0.333484
C186	C	1.690780	0.594465	0.666817
C187	C	0.814200	0.820089	0.000131
C188	C	1.147533	1.153423	0.333464
C189	C	1.480867	1.486756	0.666797
C190	C	0.815134	0.756870	0.000121
C191	C	1.148468	1.090204	0.333454
C192	C	1.481801	1.423537	0.666787
N193	N	0.819973	-0.075779	-0.188549
N194	N	1.153306	0.257554	0.144784
N195	N	1.486640	0.590888	0.478118
C196	C	0.861898	-0.110211	-0.773087
C197	C	1.195232	0.223123	-0.439753
C198	C	1.528565	0.556456	-0.106420
C199	C	0.861891	-0.110216	-0.696859
C200	C	1.195225	0.223117	-0.363525
C201	C	1.528558	0.556450	-0.030192
C202	C	0.820005	-0.075766	-0.658760
C203	C	1.153339	0.257567	-0.325427
C204	C	1.486672	0.590900	0.007906
C205	C	0.778110	-0.041319	-0.696896
C206	C	1.111443	0.292014	-0.363562
C207	C	1.444776	0.625348	-0.030229
C208	C	0.778113	-0.041319	-0.773122
C209	C	1.111446	0.292015	-0.439789
C210	C	1.444780	0.625348	-0.106456
C211	C	0.818437	-0.024419	-0.538004
C212	C	1.151770	0.308914	-0.204671
C213	C	1.485103	0.642248	0.128663
C214	C	0.818438	-0.024418	-0.461779
C215	C	1.151772	0.308915	-0.128446
C216	C	1.485105	0.642248	0.204888
C217	C	0.819991	-0.075768	-0.423653
C218	C	1.153325	0.257566	-0.090319
C219	C	1.486658	0.590899	0.243014
C220	C	0.821557	-0.127119	-0.461761
C221	C	1.154890	0.206214	-0.128427
C222	C	1.488224	0.539548	0.204906
C223	C	0.821560	-0.127119	-0.537987
C224	C	1.154894	0.206215	-0.204654
C225	C	1.488227	0.539548	0.128680
C226	C	0.819997	-0.075763	-0.576106
C227	C	1.153330	0.257570	-0.242772
C228	C	1.486663	0.590904	0.090561
C229	C	0.861873	-0.110222	-0.302871
C230	C	1.195206	0.223112	0.030462
C231	C	1.528539	0.556445	0.363795
C232	C	0.861860	-0.110229	-0.226642
C233	C	1.195194	0.223105	0.106691
C234	C	1.528527	0.556438	0.440024
C235	C	0.778083	-0.041326	-0.226681
C236	C	1.111416	0.292007	0.106653
C237	C	1.444750	0.625341	0.439986
C238	C	0.778091	-0.041324	-0.302908
C239	C	1.111425	0.292009	0.030425
C240	C	1.444758	0.625342	0.363758
C241	C	0.819990	-0.075771	-0.340999
C242	C	1.153323	0.257562	-0.007666
C243	C	1.486656	0.590895	0.325667
N244	N	0.820012	-0.075766	0.188787
N245	N	1.153345	0.257568	0.522120
N246	N	1.486678	0.590901	0.855454
H247	H	0.375647	-0.137087	0.091880
H248	H	0.708980	0.196246	0.425213
H249	H	1.042313	0.529579	0.758547
Br250	Br	0.972239	0.237356	0.000126
Br251	Br	1.305572	0.570689	0.333460
Br252	Br	1.638906	0.904022	0.666793
H253	H	0.931686	0.656193	0.000128
H254	H	1.265019	0.989526	0.333462
H255	H	1.598353	1.322859	0.666795
H256	H	0.743986	-0.013273	-0.333951
H257	H	1.077319	0.320061	-0.000618
H258	H	1.410652	0.653394	0.332715
Br259	Br	0.418435	0.001836	-0.119108
Br260	Br	0.751768	0.335169	0.214225
Br261	Br	1.085102	0.668502	0.547558
H262	H	0.701894	0.630983	0.000109
H263	H	1.035228	0.964316	0.333442
H264	H	1.368561	1.297650	0.666776
H265	H	0.609172	-0.079254	0.119861
H266	H	0.942506	0.254080	0.453195
H267	H	1.275839	0.587413	0.786528
H268	H	0.609096	-0.079280	-0.119678
H269	H	0.942429	0.254054	0.213655
H270	H	1.275763	0.587387	0.546988
H271	H	0.998999	0.389903	0.000130
H272	H	1.332332	0.723236	0.333463
H273	H	1.665665	1.056569	0.666797
Br274	Br	0.918693	-0.156996	-0.174897
Br275	Br	1.252026	0.176338	0.158436
Br276	Br	1.585360	0.509671	0.491769
Br277	Br	0.458094	-0.077432	0.155711
Br278	Br	0.791428	0.255901	0.489045
Br279	Br	1.124761	0.589234	0.822378
Br280	Br	0.816328	0.045276	-0.589739
Br281	Br	1.149662	0.378609	-0.256406
Br282	Br	1.482995	0.711942	0.076927
Br283	Br	0.816310	0.045271	-0.410069
Br284	Br	1.149643	0.378604	-0.076735
Br285	Br	1.482976	0.711937	0.256598
Br286	Br	0.823671	-0.196812	-0.410028
Br287	Br	1.157004	0.136521	-0.076695
Br288	Br	1.490338	0.469855	0.256639
Br289	Br	0.918732	-0.156971	-0.354571
Br290	Br	1.252065	0.176362	-0.021237
Br291	Br	1.585399	0.509696	0.312096
H292	H	0.997425	0.497651	0.000140
H293	H	1.330758	0.830984	0.333473
H294	H	1.664091	1.164317	0.666806
H295	H	0.477669	-0.077686	-0.119658
H296	H	0.811003	0.255648	0.213675
H297	H	1.144336	0.588981	0.547008
Br298	Br	0.721261	0.005431	-0.824869
Br299	Br	1.054594	0.338764	-0.491536
Br300	Br	1.387927	0.672098	-0.158202
Br301	Br	0.918756	-0.156964	-0.824778
Br302	Br	1.252089	0.176370	-0.491445
Br303	Br	1.585422	0.509703	-0.158111
Br304	Br	0.964248	0.783859	0.000138
Br305	Br	1.297581	1.117193	0.333471
Br306	Br	1.630915	1.450526	0.666804
Br307	Br	0.665707	0.751085	0.000090
Br308	Br	0.999040	1.084419	0.333424
Br309	Br	1.332373	1.417752	0.666757
H310	H	0.640985	0.458533	0.000123
H311	H	0.974319	0.791866	0.333457
H312	H	1.307652	1.125200	0.666790
Br313	Br	0.181883	-0.074115	-0.155471
Br314	Br	0.515216	0.259218	0.177862
Br315	Br	0.848549	0.592551	0.511196
Br316	Br	0.721228	0.005422	-0.174984
Br317	Br	1.054562	0.338756	0.158349
Br318	Br	1.387895	0.672089	0.491683
Br319	Br	0.247682	0.003884	-0.119107
Br320	Br	0.581015	0.337217	0.214227
Br321	Br	0.914349	0.670550	0.547560
H322	H	0.744004	-0.013271	-0.665871
H323	H	1.077338	0.320063	-0.332538
H324	H	1.410671	0.653396	0.000796
H325	H	0.822833	-0.168931	-0.569011
H326	H	1.156166	0.164403	-0.235678
H327	H	1.489500	0.497736	0.097655
Br328	Br	0.181985	-0.074094	0.155742
Br329	Br	0.515318	0.259240	0.489076
Br330	Br	0.848651	0.592573	0.822409
H331	H	0.896000	-0.138268	-0.665810
H332	H	1.229333	0.195065	-0.332477
H333	H	1.562666	0.528399	0.000856
H334	H	0.642564	0.350781	0.000122
H335	H	0.975897	0.684114	0.333456
H336	H	1.309231	1.017448	0.666789
H337	H	0.939659	0.109708	0.000100
H338	H	1.272993	0.443042	0.333434
H339	H	1.606326	0.776375	0.666767
Br340	Br	0.673685	0.204614	0.000075
Br341	Br	1.007019	0.537947	0.333408
Br342	Br	1.340352	0.871281	0.666742
Br343	Br	0.675736	0.064592	0.000079
Br344	Br	1.009070	0.397926	0.333413
Br345	Br	1.342403	0.731259	0.666746
H346	H	0.030803	-0.072288	-0.119618
H347	H	0.364137	0.261045	0.213716
H348	H	0.697470	0.594378	0.547049
Br349	Br	0.011229	-0.072044	0.155757
Br350	Br	0.344562	0.261289	0.489090
Br351	Br	0.677896	0.594622	0.822423
Br352	Br	0.221550	-0.153379	0.119349
Br353	Br	0.554883	0.179955	0.452682
Br354	Br	0.888217	0.513288	0.786015
