data_functionalizedCrystal
_audit_creation_method	'MofGen! by Chris Wilmer'
_symmetry_space_group_name_H-M	'P1'
_symmetry_Int_Tables_number	1
_symmetry_cell_setting	triclinic
loop_
_symmetry_equiv_pos_as_xyz
  x,y,z
_cell_length_a	16.992694
_cell_length_b	19.188930
_cell_length_c	16.053802
_cell_angle_alpha	92.551696
_cell_angle_beta	87.249047
_cell_angle_gamma	86.906503
loop_
_atom_site_label
_atom_site_type_symbol
_atom_site_fract_x
_atom_site_fract_y
_atom_site_fract_z
O1	O	1.043197	0.145267	-0.069340
O2	O	0.814918	0.143642	-0.069364
O3	O	0.935644	0.043185	-0.069335
O4	O	0.922471	0.245724	-0.069369
O5	O	0.928999	0.048690	0.069522
O6	O	0.808273	0.149147	0.069493
O7	O	1.036552	0.150772	0.069517
Zn8	Zn	0.921357	0.150834	0.091552
Zn9	Zn	0.930113	0.143581	-0.091399
O10	O	0.915826	0.251229	0.069488
C11	C	0.782390	0.144306	0.000061
C12	C	0.695368	0.138072	0.000053
C13	C	0.644922	0.198212	0.000043
C14	C	0.563155	0.192351	0.000056
C15	C	0.531836	0.126351	0.000072
C16	C	0.582288	0.066208	0.000084
C17	C	0.664054	0.072069	0.000077
C18	C	0.288320	0.102059	0.000098
C19	C	0.206548	0.096203	0.000102
C20	C	0.187420	0.222347	0.000076
C21	C	0.269188	0.228202	0.000064
C22	C	0.319633	0.168059	0.000081
N23	N	0.448257	0.120359	0.000082
N24	N	0.403210	0.174051	0.000076
C25	C	0.931895	0.019902	0.000096
C26	C	0.930614	-0.057677	0.000103
C27	C	1.001452	-0.098456	0.000114
C28	C	1.000250	-0.171350	0.000101
C29	C	0.928204	-0.203463	0.000093
C30	C	0.857356	-0.162676	0.000076
C31	C	0.858561	-0.089783	0.000081
N32	N	0.870872	-0.312817	0.047342
N33	N	0.869732	-0.382063	0.047339
C34	C	0.924569	-0.423085	0.000075
N35	N	0.980600	-0.392247	-0.047175
N36	N	0.981742	-0.322995	-0.047168
C37	C	0.926889	-0.282503	0.000086
C38	C	0.994108	-0.542905	0.000071
C39	C	0.992903	-0.615801	0.000052
C40	C	0.850007	-0.607124	0.000036
C41	C	0.851215	-0.534230	0.000046
C42	C	0.923267	-0.502125	0.000068
C43	C	1.069080	0.150109	0.000090
C44	C	1.156102	0.156342	0.000093
C45	C	0.919575	0.274513	0.000055
C46	C	0.920856	0.352091	0.000043
N47	N	0.915388	0.155784	0.216410
N48	N	0.936088	0.138625	-0.216258
C49	C	0.966776	0.113057	0.260117
C50	C	0.962607	0.116526	0.347523
C51	C	0.907054	0.162727	0.391220
C52	C	0.855661	0.205456	0.347508
C53	C	0.859826	0.201983	0.260104
C54	C	0.888860	0.177881	0.652626
C55	C	0.884700	0.181353	0.740036
C56	C	0.991646	0.092421	0.740045
C57	C	0.995810	0.088955	0.652639
C58	C	0.944414	0.131681	0.608934
N59	N	0.902794	0.166276	0.480563
N60	N	0.948671	0.128128	0.519593
H61	H	0.705127	0.023097	0.000084
H62	H	0.329383	0.053086	0.000112
N63	N	0.827937	0.228533	0.784679
N64	N	0.777041	0.205571	0.833467
H65	H	0.736955	0.238889	0.864999
H66	H	1.060123	-0.072320	0.000129
N67	N	0.776412	-0.639917	0.000043
N68	N	0.725909	-0.626562	0.058572
H69	H	0.673930	-0.649724	0.058576
N70	N	1.072620	-0.213005	0.000112
N71	N	1.136944	-0.184330	0.000129
H72	H	1.188057	-0.213746	0.000138
H73	H	0.798696	-0.188827	0.000068
H74	H	0.146339	0.271312	0.000064
N75	N	0.550298	-0.001210	0.000118
N76	N	0.504015	-0.016231	0.058657
H77	H	0.481424	-0.063846	0.058680
N78	N	1.023477	0.065828	0.215470
N79	N	1.022104	0.001637	0.225256
H80	H	1.062132	-0.031731	0.193716
N81	N	0.786191	-0.048135	0.000065
N82	N	0.721868	-0.076812	0.000049
H83	H	0.670754	-0.047398	0.000038
H84	H	0.522084	0.241323	0.000047
H85	H	1.033489	0.057635	0.775637
H86	H	0.294682	0.281946	0.000042
N87	N	0.836379	0.221543	0.607994
N88	N	0.863426	0.264340	0.559211
H89	H	0.826361	0.295181	0.527688
N90	N	0.798913	0.252640	0.392154
N91	N	0.795201	0.255737	0.470193
H92	H	0.755123	0.289063	0.501724
H93	H	0.181053	0.042455	0.000114
H94	H	1.052778	-0.516763	0.000085
H95	H	0.793530	-0.501027	0.000042
N96	N	1.065275	-0.657448	0.000053
N97	N	1.129597	-0.628769	0.000069
H98	H	1.180712	-0.658182	0.000068
H99	H	0.817980	0.236775	0.224519
N100	N	1.015102	0.072873	0.392154
N101	N	1.064701	0.031627	0.353129
H102	H	1.101777	0.000794	0.384649
N103	N	1.052679	0.041819	0.608097
N104	N	1.051515	-0.022385	0.617881
H105	H	1.091729	-0.055648	0.586454
N106	N	0.676897	0.265635	0.000019
N107	N	0.631842	0.319325	0.000013
H108	H	0.654421	0.366946	-0.000002
