data_functionalizedCrystal
_audit_creation_method	'MofGen! by Chris Wilmer'
_symmetry_space_group_name_H-M	'P1'
_symmetry_Int_Tables_number	1
_symmetry_cell_setting	triclinic
loop_
_symmetry_equiv_pos_as_xyz
  x,y,z
_cell_length_a	10.654534
_cell_length_b	15.995292
_cell_length_c	9.130313
_cell_angle_alpha	89.998674
_cell_angle_beta	90.004310
_cell_angle_gamma	96.026490
loop_
_atom_site_label
_atom_site_type_symbol
_atom_site_fract_x
_atom_site_fract_y
_atom_site_fract_z
O1	O	-1.666279	0.117542	-0.121816
O2	O	-1.300648	0.128761	-0.121811
O3	O	-1.493496	0.001318	-0.121816
O4	O	-1.473430	0.244984	-0.121811
O5	O	-1.493483	0.001314	0.121783
O6	O	-1.300635	0.128757	0.121788
O7	O	-1.666266	0.117538	0.121783
Cu8	Cu	-1.483449	0.123147	0.144028
Cu9	Cu	-1.483464	0.123152	-0.144056
O10	O	-1.473417	0.244981	0.121788
C11	C	-1.253854	0.127938	-0.000012
C12	C	-1.114442	0.125482	-0.000010
C13	C	-1.048946	0.124323	0.132778
C14	C	-0.917957	0.122002	0.132781
C15	C	-0.917972	0.122000	-0.132804
C16	C	-1.048960	0.124316	-0.132805
C17	C	-1.492673	-0.029884	-0.000020
C18	C	-1.490224	-0.122851	-0.000031
C19	C	-1.481224	-0.460641	-0.000018
C20	C	-1.620416	-0.436526	0.000525
C21	C	-1.623062	-0.339835	-0.000029
C22	C	-1.485690	-0.293060	-0.000023
C23	C	-1.416108	-0.322560	-0.139125
C24	C	-1.414432	-0.419360	-0.139236
C25	C	-1.411575	-0.419238	0.137781
C26	C	-1.416733	-0.322716	0.139615
C27	C	-1.488207	-0.198349	-0.000032
C28	C	-1.478703	-0.555352	-0.000019
C29	C	-0.713058	0.118368	-0.000013
C30	C	-0.852466	0.120844	-0.000005
C31	C	-1.474241	0.276183	-0.000011
C32	C	-1.476689	0.369150	-0.000010
N33	N	-1.483447	0.123144	0.346651
N34	N	-1.483476	0.123149	-0.346679
C35	C	-1.568869	0.066736	0.423300
C36	C	-1.568881	0.066736	0.576637
C37	C	-1.398045	0.179559	0.576661
C38	C	-1.398028	0.179554	0.423327
H39	H	-1.677557	-0.320497	0.099682
N40	N	-1.656034	0.009073	0.344950
N41	N	-1.654255	-0.068325	0.362096
H42	H	-1.715787	-0.109064	0.306748
N43	N	-0.851081	0.120800	-0.268443
N44	N	-0.789593	0.060588	-0.298067
H45	H	-0.742351	0.059740	-0.393865
N46	N	-1.115854	0.125490	-0.268467
N47	N	-1.057375	0.124454	-0.387022
H48	H	-1.104619	0.125279	-0.482829
H49	H	-1.638437	0.020803	0.639041
N50	N	-1.687709	-0.471270	0.125667
N51	N	-1.633874	-0.514214	0.215915
H52	H	-1.681401	-0.538759	0.304300
H53	H	-1.328501	0.225488	0.639106
N54	N	-1.310750	0.237176	0.345043
N55	N	-1.234495	0.287541	0.413517
H56	H	-1.172853	0.328233	0.358230
N57	N	-1.283046	-0.437532	0.138947
N58	N	-1.242768	-0.480860	0.038839
H59	H	-1.151998	-0.493784	0.039649
H60	H	-1.673775	-0.465235	-0.098672
H61	H	-1.102258	0.125273	0.240908
H62	H	-0.864635	0.121059	0.240911
H63	H	-1.677890	-0.321113	-0.099918
N64	N	-1.474898	-0.452643	-0.269689
N65	N	-1.518041	-0.404357	-0.360016
H66	H	-1.560749	-0.427858	-0.452152
H67	H	-1.312375	-0.434499	-0.145534
H68	H	-1.315020	-0.291275	-0.144292
N69	N	-1.476760	-0.297056	-0.268985
N70	N	-1.590015	-0.322267	-0.292467
H71	H	-1.632860	-0.304257	-0.384178
N72	N	-1.466245	-0.454377	0.270054
N73	N	-1.467406	-0.531334	0.294612
H74	H	-1.506026	-0.556153	0.388025
H75	H	-1.467399	-0.303860	0.242521
N76	N	-1.290934	-0.282105	0.150177
N77	N	-1.222058	-0.298314	0.255051
H78	H	-1.133205	-0.269635	0.262502
