data_functionalizedCrystal
_audit_creation_method	'MofGen! by Chris Wilmer'
_symmetry_space_group_name_H-M	'P1'
_symmetry_Int_Tables_number	1
_symmetry_cell_setting	triclinic
loop_
_symmetry_equiv_pos_as_xyz
  x,y,z
_cell_length_a	16.120297
_cell_length_b	12.759401
_cell_length_c	12.759399
_cell_angle_alpha	90.016641
_cell_angle_beta	87.125037
_cell_angle_gamma	87.120011
loop_
_atom_site_label
_atom_site_type_symbol
_atom_site_fract_x
_atom_site_fract_y
_atom_site_fract_z
Zn1	Zn	-0.471361	-1.576116	0.448371
Zn2	Zn	0.028639	-1.076116	0.948371
Zn3	Zn	-0.331955	-1.584922	0.615155
Zn4	Zn	0.168045	-1.084922	1.115155
Zn5	Zn	-0.331968	-1.409330	0.439497
Zn6	Zn	0.168032	-0.909330	0.939497
Zn7	Zn	-0.471326	-1.400408	0.624011
Zn8	Zn	0.028674	-0.900408	1.124011
O9	O	-0.401653	-1.492694	0.531759
O10	O	0.098347	-0.992694	1.031759
O11	O	-0.452877	-1.724305	0.470503
O12	O	0.047123	-1.224305	0.970503
O13	O	-0.215294	-1.569049	0.584434
O14	O	0.284706	-1.069049	1.084434
O15	O	-0.350479	-1.431503	0.293654
O16	O	0.149521	-0.931503	0.793654
O17	O	-0.350457	-1.730774	0.593039
O18	O	0.149543	-1.230774	1.093039
O19	O	-0.452890	-1.554040	0.300174
O20	O	0.047110	-1.054040	0.800174
O21	O	-0.215303	-1.440042	0.455378
O22	O	0.284697	-0.940042	0.955378
O23	O	-0.350445	-1.261126	0.463965
O24	O	0.149555	-0.761126	0.963965
O25	O	-0.587994	-1.416296	0.608132
O26	O	-0.087994	-0.916296	1.108132
O27	O	-0.452831	-1.254571	0.599527
O28	O	0.047169	-0.754571	1.099527
O29	O	-0.588019	-1.545389	0.479090
O30	O	-0.088019	-1.045389	0.979090
O31	O	-0.350423	-1.560397	0.763350
O32	O	0.149577	-1.060397	1.263350
O33	O	-0.452818	-1.424835	0.769856
O34	O	0.047182	-0.924835	1.269856
C35	C	-0.401636	-1.219728	0.531745
C36	C	0.098364	-0.719728	1.031745
C37	C	-0.401649	-1.102950	0.531765
C38	C	0.098351	-0.602950	1.031765
C39	C	-0.619102	-1.478865	0.545589
C40	C	-0.119102	-0.978865	1.045589
C41	C	-0.711766	-1.472972	0.551483
C42	C	-0.211766	-0.972972	1.051483
C43	C	-0.401634	-1.492631	0.804725
C44	C	0.098366	-0.992631	1.304725
C45	C	-0.401653	-1.492698	0.921503
C46	C	0.098347	-0.992698	1.421503
C47	C	-0.881424	-1.462174	0.562219
C48	C	-0.381424	-0.962174	1.062219
C49	C	-0.922733	-1.523421	0.500983
C50	C	-0.422733	-1.023421	1.000983
C51	C	-1.017137	-1.517413	0.506957
C52	C	-0.517137	-1.017413	1.006957
C53	C	-0.787012	-1.468181	0.556247
C54	C	-0.287012	-0.968181	1.056247
C55	C	-0.185049	-1.506530	0.517906
C56	C	0.314951	-1.006530	1.017906
C57	C	-0.092386	-1.512626	0.511717
C58	C	0.407614	-1.012626	1.011717
C59	C	-0.401670	-1.766726	0.531773
C60	C	0.098330	-1.266726	1.031773
C61	C	-0.401677	-1.883502	0.531780
C62	C	0.098323	-1.383502	1.031780
C63	C	-0.454877	-1.044708	0.602449
C64	C	0.045123	-0.544708	1.102449
C65	C	-0.454893	-0.934983	0.602454
C66	C	0.045107	-0.434983	1.102454
C67	C	-0.348446	-0.941753	0.461088
C68	C	0.151554	-0.441753	0.961088
C69	C	-0.348435	-1.051475	0.461079
C70	C	0.151565	-0.551475	0.961079
C71	C	-0.401690	-1.492785	0.257728
C72	C	0.098310	-0.992785	0.757728
C73	C	-0.401706	-1.492824	0.140952
C74	C	0.098294	-0.992824	0.640952
C75	C	-0.348397	-1.563358	0.972946
C76	C	0.151603	-1.063358	1.472946
C77	C	-0.348425	-1.563424	1.082672
C78	C	0.151575	-1.063424	1.582672
C79	C	-0.454968	-1.422160	1.089502
C80	C	0.045032	-0.922160	1.589502
C81	C	-0.454944	-1.422101	0.979778
C82	C	0.045056	-0.922101	1.479778
H83	H	-0.887200	-1.580367	0.444069
H84	H	-0.387200	-1.080367	0.944069
C85	C	-0.289788	-1.641021	0.908847
C86	C	0.210212	-1.141021	1.408847
H87	H	-0.258081	-1.683119	0.955204
H88	H	0.241919	-1.183119	1.455204
H89	H	-0.253424	-1.603162	0.863784
H90	H	0.246576	-1.103162	1.363784
H91	H	-0.321709	-1.684715	0.868020
H92	H	0.178291	-1.184715	1.368020
C93	C	-0.513409	-1.101332	0.680197
C94	C	-0.013409	-0.601332	1.180197
H95	H	-0.505773	-1.175022	0.670079
H96	H	-0.005773	-0.675022	1.170079
H97	H	-0.569448	-1.079808	0.668503
H98	H	-0.069448	-0.579808	1.168503
H99	H	-0.501103	-1.084110	0.749984
H100	H	-0.001103	-0.584110	1.249984
H101	H	-0.498315	-1.364560	0.937891
H102	H	0.001685	-0.864560	1.437891
C103	C	-0.289907	-0.885127	0.383351
C104	C	0.210093	-0.385127	0.883351
H105	H	-0.297529	-0.811439	0.393486
H106	H	0.202471	-0.311439	0.893486
H107	H	-0.302199	-0.902342	0.313563
H108	H	0.197801	-0.402342	0.813563
H109	H	-0.233868	-0.906659	0.395062
H110	H	0.266132	-0.406659	0.895062
C111	C	-0.929416	-1.385254	0.639108
C112	C	-0.429416	-0.885254	1.139108
H113	H	-0.891086	-1.347610	0.676745
H114	H	-0.391086	-0.847610	1.176745
H115	H	-0.963391	-1.423317	0.686987
H116	H	-0.463391	-0.923317	1.186987
H117	H	-0.963379	-1.337367	0.601020
H118	H	-0.463379	-0.837367	1.101020
H119	H	-0.305090	-1.098898	0.403513
H120	H	0.194910	-0.598898	0.903513
C121	C	-0.513446	-0.870920	0.680204
C122	C	-0.013446	-0.370920	1.180204
H123	H	-0.545132	-0.917295	0.722301
H124	H	-0.045132	-0.417295	1.222301
H125	H	-0.549832	-0.825826	0.642402
H126	H	-0.049832	-0.325826	1.142402
H127	H	-0.481495	-0.830128	0.723893
H128	H	0.018505	-0.330128	1.223893
C129	C	-0.289839	-1.641145	1.139254
C130	C	0.210161	-1.141145	1.639254
H131	H	-0.258096	-1.683173	1.088829
H132	H	0.241904	-1.183173	1.588829
H133	H	-0.321767	-1.684887	1.184030
H134	H	0.178233	-1.184887	1.684030
H135	H	-0.253495	-1.603318	1.179800
H136	H	0.246505	-1.103318	1.679800
H137	H	-0.498354	-1.364681	1.136962
H138	H	0.001646	-0.864681	1.636962
