data_functionalizedCrystal
_audit_creation_method	'MofGen! by Chris Wilmer'
_symmetry_space_group_name_H-M	'P1'
_symmetry_Int_Tables_number	1
_symmetry_cell_setting	triclinic
loop_
_symmetry_equiv_pos_as_xyz
  x,y,z
_cell_length_a	13.897449
_cell_length_b	12.645330
_cell_length_c	12.645323
_cell_angle_alpha	89.975130
_cell_angle_beta	89.978672
_cell_angle_gamma	90.018972
loop_
_atom_site_label
_atom_site_type_symbol
_atom_site_fract_x
_atom_site_fract_y
_atom_site_fract_z
Zn1	Zn	1.474708	-0.421995	-0.599408
Zn2	Zn	1.474601	-0.599283	-0.422148
Zn3	Zn	1.313396	-0.422038	-0.422157
Zn4	Zn	1.313379	-0.599221	-0.599368
O5	O	1.394021	-0.510634	-0.510770
O6	O	1.609676	-0.445520	-0.575908
O7	O	1.453178	-0.575815	-0.273802
O8	O	1.334846	-0.273685	-0.445690
O9	O	1.609596	-0.575773	-0.445676
O10	O	1.453362	-0.273653	-0.575916
O11	O	1.334742	-0.445594	-0.273808
O12	O	1.178412	-0.445533	-0.445651
O13	O	1.334818	-0.575667	-0.747721
O14	O	1.178400	-0.575709	-0.575847
O15	O	1.453346	-0.445460	-0.747750
O16	O	1.453162	-0.747622	-0.445636
O17	O	1.334713	-0.747576	-0.575839
C18	C	1.143407	-0.510620	-0.510746
C19	C	1.036193	-0.510639	-0.510761
C20	C	0.839898	-0.510643	-0.510789
C21	C	0.949130	-0.510638	-0.510770
C22	C	1.393951	-0.786064	-0.510755
C23	C	1.394009	-0.903894	-0.510785
C24	C	1.319800	-1.071473	-0.592947
C25	C	1.319420	-0.948914	-0.592683
C26	C	1.366488	-0.948488	-0.399063
C27	C	1.366035	-1.071087	-0.399562
C28	C	1.496192	-1.070981	-0.539437
C29	C	1.495566	-0.948374	-0.541880
C30	C	1.645614	-0.510649	-0.510795
C31	C	1.752828	-0.510655	-0.510806
C32	C	1.394092	-0.510552	-0.787276
C33	C	1.394122	-0.510517	-0.905106
C34	C	1.394118	-0.234129	-0.510808
C35	C	1.394159	-0.116299	-0.510825
C36	C	1.319326	-0.592044	-1.072651
C37	C	1.319522	-0.592448	-0.950091
C38	C	1.495758	-0.540833	-0.949623
C39	C	1.495348	-0.541344	-1.072221
C40	C	1.368243	-0.398218	-1.072304
C41	C	1.365976	-0.398891	-0.949698
C42	C	1.394006	-0.510639	-0.235341
C43	C	1.394162	-0.510375	-0.117511
H44	H	1.336639	-0.918759	-0.675524
F45	F	1.270013	-0.908486	-0.366808
F46	F	1.524969	-0.646876	-0.909512
H47	H	1.243778	-0.919681	-0.573728
H48	H	1.336860	-1.100885	-0.676060
H49	H	1.336632	-0.675595	-0.920777
F50	F	1.524062	-0.648510	-1.109620
H51	H	1.417845	-1.100743	-0.336288
F52	F	1.221550	-1.111883	-0.568506
H53	H	1.291449	-1.099780	-0.375323
H54	H	1.516320	-0.919223	-0.624101
H55	H	1.418931	-0.919329	-0.336203
F56	F	1.529006	-1.111294	-0.644110
F57	F	1.439487	-0.318687	-1.110224
H58	H	1.291181	-0.376028	-0.920601
F59	F	1.432023	-0.315152	-0.909685
F60	F	1.571797	-0.908303	-0.469398
H61	H	1.551591	-1.099967	-0.479623
H62	H	1.244156	-0.573477	-0.919991
F63	F	1.220520	-0.567483	-1.111167
H64	H	1.336270	-0.674672	-1.103470
F65	F	1.570658	-0.466923	-1.111015
F66	F	1.273058	-0.362098	-1.112697
F67	F	1.570595	-0.465544	-0.911543
