data_functionalizedCrystal
_audit_creation_method	'MofGen! by Chris Wilmer'
_symmetry_space_group_name_H-M	'P1'
_symmetry_Int_Tables_number	1
_symmetry_cell_setting	triclinic
loop_
_symmetry_equiv_pos_as_xyz
  x,y,z
_cell_length_a	10.723024
_cell_length_b	11.026607
_cell_length_c	9.798715
_cell_angle_alpha	89.998891
_cell_angle_beta	89.996609
_cell_angle_gamma	96.526943
loop_
_atom_site_label
_atom_site_type_symbol
_atom_site_fract_x
_atom_site_fract_y
_atom_site_fract_z
O1	O	1.693992	0.170518	-0.113478
O2	O	1.334363	0.186840	-0.113482
O3	O	1.484372	0.001778	-0.113475
O4	O	1.543983	0.355580	-0.113485
O5	O	1.484357	0.001777	0.113507
O6	O	1.334348	0.186840	0.113500
O7	O	1.693978	0.170518	0.113504
Zn8	Zn	1.514161	0.178679	0.149540
Zn9	Zn	1.514180	0.178679	-0.149518
O10	O	1.543969	0.355580	0.113498
C11	C	1.287599	0.185652	0.000008
C12	C	1.148278	0.182098	0.000007
C13	C	1.095646	0.285649	0.000003
C14	C	0.951650	0.281979	0.000001
C15	C	1.473367	-0.043525	0.000014
C16	C	1.440584	-0.178512	0.000009
C17	C	1.531104	-0.251564	0.000008
C18	C	1.497223	-0.391080	0.000002
C19	C	1.740741	0.171706	0.000011
C20	C	1.880062	0.175259	0.000003
C21	C	1.554973	0.400883	0.000005
C22	C	1.587756	0.535869	0.000001
N23	N	1.514157	0.178677	0.353640
N24	N	1.514191	0.178671	-0.353618
C25	C	1.577067	0.100633	0.421420
C26	C	1.577087	0.100628	0.578583
H27	H	1.157190	0.377021	0.000009
C28	C	1.066444	0.060135	0.000076
C29	C	1.142906	-0.034687	0.000111
C30	C	1.067568	-0.147059	0.000193
H31	H	1.014946	0.054126	-0.079056
H32	H	1.014979	0.054231	0.079262
H33	H	1.194349	-0.028785	-0.079066
H34	H	1.194403	-0.028718	0.079237
H35	H	1.016104	-0.152963	0.079378
H36	H	1.016074	-0.153055	-0.078941
H37	H	1.119437	-0.211409	0.000229
H38	H	1.460333	0.245496	0.588103
C39	C	1.667814	-0.197014	0.000081
C40	C	1.674240	-0.069479	0.000119
C41	C	1.800158	-0.019191	0.000205
H42	H	1.708398	-0.223171	-0.079049
H43	H	1.708285	-0.223244	0.079268
H44	H	1.633786	-0.043260	-0.079060
H45	H	1.633682	-0.043288	0.079244
H46	H	1.840629	-0.045420	0.079392
H47	H	1.840732	-0.045356	-0.078927
H48	H	1.804535	0.067346	0.000243
H49	H	0.906351	0.370627	-0.000007
C50	C	1.649030	0.011471	0.656045
C51	C	1.707072	-0.060509	0.563027
C52	C	1.773371	-0.142648	0.634337
H53	H	1.592645	-0.039468	0.711802
H54	H	1.711038	0.055526	0.711747
H55	H	1.645072	-0.104561	0.507349
H56	H	1.763477	-0.009603	0.507267
H57	H	1.835378	-0.098592	0.690039
H58	H	1.716977	-0.193578	0.690092
H59	H	1.812770	-0.191488	0.571236
H60	H	1.460305	0.245487	0.411962
H61	H	1.394636	-0.431820	-0.000008
C62	C	1.724571	-0.409894	-0.000274
C63	C	1.783886	-0.448809	-0.117068
C64	C	1.909912	-0.398859	-0.117377
H65	H	1.765172	-0.436160	0.078787
H66	H	1.729222	-0.323337	-0.000346
H67	H	1.779243	-0.535348	-0.116984
H68	H	1.743323	-0.422544	-0.196148
H69	H	1.914563	-0.312302	-0.117448
H70	H	1.950501	-0.425129	-0.038310
H71	H	1.950170	-0.425246	-0.196625
C72	C	1.303874	-0.233061	0.000071
C73	C	1.297448	-0.360597	0.000098
C74	C	1.171529	-0.410885	0.000173
H75	H	1.263303	-0.206896	-0.079060
H76	H	1.263389	-0.206841	0.079257
H77	H	1.337915	-0.386806	-0.079080
H78	H	1.337992	-0.386796	0.079224
H79	H	1.131045	-0.384664	0.079360
H80	H	1.130969	-0.384710	-0.078960
H81	H	1.167153	-0.497422	0.000204
H82	H	1.630909	0.033813	0.363100
H83	H	0.925352	0.086607	-0.000002
