data_functionalizedCrystal
_audit_creation_method	'MofGen! by Chris Wilmer'
_symmetry_space_group_name_H-M	'P1'
_symmetry_Int_Tables_number	1
_symmetry_cell_setting	triclinic
loop_
_symmetry_equiv_pos_as_xyz
  x,y,z
_cell_length_a	16.625547
_cell_length_b	16.625545
_cell_length_c	16.625539
_cell_angle_alpha	90.028234
_cell_angle_beta	90.027058
_cell_angle_gamma	90.023223
loop_
_atom_site_label
_atom_site_type_symbol
_atom_site_fract_x
_atom_site_fract_y
_atom_site_fract_z
Zn1	Zn	-1.232672	0.321018	-0.456049
Zn2	Zn	-1.232571	0.455861	-0.321217
Zn3	Zn	-1.097834	0.321044	-0.321215
Zn4	Zn	-1.097800	0.455810	-0.455991
O5	O	-1.165219	0.388433	-0.388618
O6	O	-1.345491	0.338915	-0.438189
O7	O	-1.214670	0.438009	-0.208384
O8	O	-1.115776	0.208208	-0.339124
O9	O	-1.345417	0.437984	-0.339128
O10	O	-1.214841	0.208189	-0.438187
O11	O	-1.115679	0.338960	-0.208382
O12	O	-0.984997	0.338911	-0.339068
O13	O	-1.115719	0.437897	-0.568831
O14	O	-0.984972	0.437923	-0.438088
O15	O	-1.214809	0.338866	-0.568874
O16	O	-1.214638	0.568686	-0.339071
O17	O	-1.115622	0.568649	-0.438090
C18	C	-0.955728	0.388415	-0.388572
C19	C	-0.866107	0.388426	-0.388571
C20	C	-0.793325	0.388427	-0.388578
C21	C	-0.702016	0.388430	-0.388595
C22	C	-0.629240	0.388436	-0.388612
C23	C	-0.537926	0.388441	-0.388628
C24	C	-1.165137	0.597924	-0.388592
C25	C	-1.165176	0.687545	-0.388608
C26	C	-0.375528	0.388449	-0.388655
C27	C	-0.465149	0.388447	-0.388646
C28	C	-1.165308	1.015721	-0.388704
C29	C	-1.165268	0.924412	-0.388680
C30	C	-1.165241	0.851636	-0.388656
C31	C	-1.165203	0.760321	-0.388632
C32	C	-1.165272	0.388373	-0.598927
C33	C	-1.165294	0.388347	-0.688548
C34	C	-1.165317	1.178124	-0.388671
C35	C	-1.165341	1.088503	-0.388718
C36	C	-1.165331	0.388257	-1.016724
C37	C	-1.165319	0.388285	-0.925416
C38	C	-1.165313	0.388303	-0.852639
C39	C	-1.165300	0.388329	-0.761325
C40	C	-1.165213	0.388435	-0.179127
C41	C	-1.165347	0.388233	-0.089507
