data_functionalizedCrystal
_audit_creation_method	'MofGen! by Chris Wilmer'
_symmetry_space_group_name_H-M	'P1'
_symmetry_Int_Tables_number	1
_symmetry_cell_setting	triclinic
loop_
_symmetry_equiv_pos_as_xyz
  x,y,z
_cell_length_a	16.992694
_cell_length_b	11.792241
_cell_length_c	15.455313
_cell_angle_alpha	92.683265
_cell_angle_beta	87.142206
_cell_angle_gamma	87.430819
loop_
_atom_site_label
_atom_site_type_symbol
_atom_site_fract_x
_atom_site_fract_y
_atom_site_fract_z
O1	O	1.044827	0.236106	-0.072022
O2	O	0.816531	0.233463	-0.072048
O3	O	0.936219	0.070068	-0.072029
O4	O	0.925139	0.399501	-0.072042
O5	O	0.929374	0.079370	0.072232
O6	O	0.809687	0.242766	0.072213
O7	O	1.037982	0.245409	0.072239
Cu8	Cu	0.923210	0.244937	0.085398
Cu9	Cu	0.931304	0.233935	-0.085207
O10	O	0.918295	0.408804	0.072219
C11	C	0.783882	0.234716	0.000079
C12	C	0.696795	0.224578	0.000070
C13	C	0.646971	0.322395	0.000066
C14	C	0.565143	0.312864	0.000079
C15	C	0.533142	0.205513	0.000088
C16	C	0.582973	0.107688	0.000094
C17	C	0.664799	0.117221	0.000088
C18	C	0.289375	0.166002	0.000113
C19	C	0.207543	0.156476	0.000117
C20	C	0.189719	0.361652	0.000103
C21	C	0.271548	0.371176	0.000091
C22	C	0.321371	0.273351	0.000102
N23	N	0.449501	0.195767	0.000098
N24	N	0.405010	0.283098	0.000098
C25	C	0.932101	0.032371	0.000102
C26	C	0.930017	-0.093813	0.000101
C27	C	0.926187	-0.324840	0.000086
C28	C	0.928315	-0.196280	0.000094
C29	C	1.070631	0.244155	0.000109
C30	C	1.157718	0.254293	0.000113
C31	C	0.922413	0.446501	0.000087
C32	C	0.924497	0.572684	0.000082
N33	N	0.917522	0.252674	0.205393
N34	N	0.936998	0.226189	-0.205202
C35	C	0.968388	0.183287	0.250795
C36	C	0.964094	0.189150	0.341602
C37	C	0.908938	0.264406	0.387005
C38	C	0.858067	0.333796	0.341597
C39	C	0.862358	0.327927	0.250791
C40	C	0.890417	0.289710	0.658584
C41	C	0.886132	0.295576	0.749396
C42	C	0.992158	0.150928	0.749395
C43	C	0.996447	0.145070	0.658588
C44	C	0.945574	0.214455	0.613187
N45	N	0.904549	0.270403	0.479825
N46	N	0.949959	0.208452	0.520369
H47	H	0.181491	0.069054	0.000123
C48	C	0.134912	0.469254	0.000100
C49	C	0.142350	0.550366	-0.074815
C50	C	0.087542	0.657973	-0.074815
C51	C	0.025296	0.684468	0.000101
C52	C	0.017855	0.603353	0.075021
C53	C	0.072663	0.495746	0.075021
H54	H	0.188431	0.530756	-0.130277
H55	H	0.093051	0.718019	-0.130277
H56	H	-0.015276	0.764125	0.000101
H57	H	-0.028226	0.622964	0.130483
H58	H	0.067154	0.435700	0.130483
H59	H	0.705366	0.037568	0.000090
H60	H	1.005512	0.132648	0.378568
H61	H	0.813154	0.395068	0.378569
C62	C	0.825453	0.378362	0.799337
C63	C	0.820736	0.384827	0.899220
C64	C	0.760061	0.467611	0.949160
C65	C	0.704103	0.543929	0.899218
C66	C	0.708818	0.537465	0.799330
C67	C	0.769493	0.454682	0.749389
H68	H	0.862161	0.328330	0.936195
H69	H	0.756571	0.472395	1.023104
H70	H	0.659188	0.605210	0.936186
H71	H	0.667392	0.593963	0.762354
H72	H	0.772983	0.449898	0.675445
C73	C	1.057115	0.062284	0.608641
C74	C	1.120234	0.108112	0.546198
C75	C	1.180904	0.025330	0.496249
C76	C	1.178455	-0.103281	0.508742
C77	C	1.115333	-0.149116	0.571188
C78	C	1.054664	-0.066333	0.621137
H79	H	1.122050	0.203323	0.536948
H80	H	1.227631	0.059261	0.450022
H81	H	1.223366	-0.164561	0.471766
H82	H	1.113518	-0.244327	0.580439
H83	H	1.007937	-0.100264	0.667364
H84	H	0.524579	0.392517	0.000075
C85	C	1.029061	0.100502	0.200856
C86	C	1.033787	0.094040	0.100974
C87	C	1.094461	0.011250	0.051038
C88	C	1.150408	-0.065079	0.100985
C89	C	1.145683	-0.058621	0.200873
C90	C	1.085010	0.024170	0.250809
H91	H	0.992371	0.150546	0.063995
H92	H	1.097958	0.006469	-0.022906
H93	H	1.195321	-0.126366	0.064020
H94	H	1.187100	-0.115126	0.237852
H95	H	1.081513	0.028951	0.324753
C96	C	0.344171	0.058393	0.000112
C97	C	0.336722	-0.022726	0.075022
C98	C	0.391521	-0.130342	0.075018
C99	C	0.453768	-0.156840	0.000104
C100	C	0.461219	-0.075720	-0.074811
C101	C	0.406420	0.031897	-0.074808
H102	H	0.290641	-0.003112	0.130483
H103	H	0.386005	-0.190393	0.130476
H104	H	0.494333	-0.236505	0.000101
H105	H	0.507301	-0.095333	-0.130272
H106	H	0.411937	0.091947	-0.130266
H107	H	0.556910	0.020282	0.000114
H108	H	1.033576	0.094436	0.786369
H109	H	0.673020	0.409812	0.000058
H110	H	0.297597	0.458591	0.000074
H111	H	0.848996	0.346209	0.621625
H112	H	0.820937	0.384428	0.213825
