data_functionalizedCrystal
_audit_creation_method	'MofGen! by Chris Wilmer'
_symmetry_space_group_name_H-M	'P1'
_symmetry_Int_Tables_number	1
_symmetry_cell_setting	triclinic
loop_
_symmetry_equiv_pos_as_xyz
  x,y,z
_cell_length_a	15.538191
_cell_length_b	15.625429
_cell_length_c	14.185569
_cell_angle_alpha	59.452262
_cell_angle_beta	97.875798
_cell_angle_gamma	66.736792
loop_
_atom_site_label
_atom_site_type_symbol
_atom_site_fract_x
_atom_site_fract_y
_atom_site_fract_z
O1	O	1.256218	-0.301274	0.026144
O2	O	0.971102	-0.183094	-0.016838
O3	O	1.135102	-0.393966	0.059862
O4	O	1.092218	-0.090402	-0.050556
O5	O	1.183549	-0.456254	0.249353
O6	O	1.019549	-0.245382	0.172653
O7	O	1.304664	-0.363562	0.215634
Cu8	Cu	1.166530	-0.310160	0.211446
Cu9	Cu	1.109236	-0.236497	-0.012649
O10	O	1.140664	-0.152691	0.138934
C11	C	0.959094	-0.201873	0.073411
C12	C	0.851137	-0.165043	0.060016
C13	C	0.596961	-0.530945	0.193094
C14	C	0.495512	-0.496310	0.180495
C15	C	0.455171	-0.301501	0.109635
C16	C	0.556619	-0.336121	0.122233
C17	C	0.627506	-0.450844	0.163962
C18	C	0.587165	-0.256020	0.093101
C19	C	0.688603	-0.290635	0.105693
C20	C	0.759495	-0.405352	0.147416
C21	C	0.728944	-0.485460	0.176553
C22	C	0.516274	-0.141294	0.051365
C23	C	0.546820	-0.061193	0.022233
C24	C	0.648261	-0.095811	0.034833
C25	C	0.719153	-0.210528	0.076556
C26	C	0.678812	-0.015704	0.005696
C27	C	0.780250	-0.050320	0.018287
C28	C	0.820591	-0.245144	0.089147
C29	C	1.162188	-0.463011	0.168392
C30	C	1.170703	-0.575942	0.209463
C31	C	1.066653	-0.777594	-0.171877
C32	C	1.074659	-0.883719	-0.133250
C33	C	1.127473	-0.951608	0.073319
C34	C	1.119475	-0.845489	0.034710
C35	C	1.089064	-0.758489	-0.087890
C36	C	1.141887	-0.826384	0.118698
C37	C	1.133885	-0.720271	0.080090
C38	C	1.103472	-0.633265	-0.042505
C39	C	1.081062	-0.652376	-0.126497
C40	C	1.172291	-0.913382	0.241296
C41	C	1.194702	-0.894277	0.325284
C42	C	1.186707	-0.788166	0.286678
C43	C	1.156294	-0.701160	0.164083
C44	C	1.209117	-0.769054	0.370670
C45	C	1.201115	-0.662942	0.332063
C46	C	1.148292	-0.595047	0.125475
C47	C	1.316672	-0.344782	0.125383
C48	C	1.424627	-0.381610	0.138771
C49	C	1.113578	-0.083644	0.030402
C50	C	1.105061	0.029289	-0.010676
N51	N	1.206835	-0.361974	0.369063
N52	N	1.068940	-0.184694	-0.170262
C53	C	0.950530	-0.032509	0.616877
C54	C	0.981066	-0.071753	0.736173
C55	C	1.126310	-0.258437	0.804036
C56	C	1.095783	-0.219211	0.684745
C57	C	1.007893	-0.106246	0.591173
C58	C	1.153146	-0.292948	0.659041
C59	C	1.122625	-0.253723	0.539759
C60	C	1.034740	-0.140760	0.446181
C61	C	0.977371	-0.067020	0.471891
C62	C	1.241041	-0.405910	0.752613
C63	C	1.298404	-0.479647	0.726909
C64	C	1.267878	-0.440425	0.607627
C65	C	1.179993	-0.327462	0.514049
C66	C	1.325247	-0.514165	0.581916
C67	C	1.294725	-0.474939	0.462634
C68	C	1.149471	-0.288237	0.394767
H69	H	0.470649	-0.561547	0.204219
F70	F	1.034298	-0.685001	-0.302360
H71	H	0.397440	-0.208091	0.075655
F72	F	0.471366	0.060902	-0.022183
F73	F	1.050799	-0.904042	-0.222652
F74	F	0.603353	0.106394	-0.038731
H75	H	0.786668	-0.578881	0.210540
H76	H	1.219343	-0.647378	0.400450
F77	F	0.867454	-0.442192	0.160811
F78	F	0.408314	-0.104455	0.037964
F79	F	1.219850	-0.378659	0.903629
F80	F	1.048708	-0.559784	-0.256980
F81	F	1.355781	-0.553419	0.435279
F82	F	1.180804	-1.026315	0.282383
H83	H	1.265891	-0.437841	0.849737
F84	F	1.094957	-0.520330	-0.083594
F85	F	1.159830	-1.044204	0.203794
F86	F	0.812761	0.034933	-0.012720
F87	F	0.896044	-0.367250	0.133573
F88	F	1.227059	-0.986873	0.455758
F89	F	1.391943	-0.599869	0.826502
F90	F	1.418791	-0.634382	0.681510
H91	H	1.123537	-0.524209	0.025644
F92	F	1.055919	-0.168010	0.295178
F93	F	1.241465	-0.861648	0.501142
H94	H	1.009893	-0.108822	0.349054
F95	F	0.883819	0.053206	0.372303
F96	F	0.856978	0.087717	0.517289
H97	H	0.654684	-0.624366	0.227080
H98	H	0.934347	-0.011696	0.757089
