data_functionalizedCrystal
_audit_creation_method	'MofGen! by Chris Wilmer'
_symmetry_space_group_name_H-M	'P1'
_symmetry_Int_Tables_number	1
_symmetry_cell_setting	triclinic
loop_
_symmetry_equiv_pos_as_xyz
  x,y,z
_cell_length_a	15.538191
_cell_length_b	19.188930
_cell_length_c	14.185328
_cell_angle_alpha	104.823376
_cell_angle_beta	108.252531
_cell_angle_gamma	65.208438
loop_
_atom_site_label
_atom_site_type_symbol
_atom_site_fract_x
_atom_site_fract_y
_atom_site_fract_z
O1	O	1.269869	-0.217697	0.083405
O2	O	0.995280	-0.136993	0.083415
O3	O	1.140495	-0.280993	0.083390
O4	O	1.124655	-0.073697	0.083430
O5	O	1.102429	-0.299608	-0.083457
O6	O	0.957215	-0.155609	-0.083432
O7	O	1.231804	-0.236312	-0.083442
Cu8	Cu	1.091034	-0.197660	-0.098671
Cu9	Cu	1.136051	-0.175645	0.098644
O10	O	1.086590	-0.092312	-0.083417
C11	C	0.941118	-0.137857	-0.000007
C12	C	0.836441	-0.112706	-0.000004
C13	C	1.120948	-0.316183	-0.000036
C14	C	1.119405	-0.393302	-0.000045
C15	C	0.549673	-0.362575	-0.000037
C16	C	0.451310	-0.338924	-0.000032
C17	C	0.428325	-0.205893	-0.000006
C18	C	0.526686	-0.229533	-0.000016
C19	C	0.587353	-0.307875	-0.000031
C20	C	0.564366	-0.174833	-0.000010
C21	C	0.662720	-0.198472	-0.000015
C22	C	0.723393	-0.276810	-0.000026
C23	C	0.685706	-0.331513	-0.000035
C24	C	0.503700	-0.096491	0.000011
C25	C	0.541380	-0.041791	0.000017
C26	C	0.639734	-0.065430	0.000005
C27	C	0.700407	-0.143768	-0.000006
C28	C	0.677421	-0.010726	0.000015
C29	C	0.775774	-0.034365	0.000010
C30	C	0.798761	-0.167406	-0.000011
C31	C	1.204614	-0.459628	-0.000053
C32	C	1.203170	-0.532087	-0.000037
C33	C	1.116509	-0.538216	-0.000033
C34	C	1.031290	-0.471876	-0.000019
C35	C	1.032739	-0.399419	-0.000025
N36	N	1.037312	-0.635918	-0.056811
N37	N	1.035941	-0.704752	-0.056808
C38	C	1.112140	-0.756524	-0.000012
N39	N	1.189773	-0.736869	0.056767
N40	N	1.191145	-0.668030	0.056759
C41	C	1.114929	-0.616781	-0.000025
C42	C	1.195789	-0.901421	-0.000001
C43	C	1.194343	-0.973879	0.000021
C44	C	1.022458	-0.913667	0.000028
C45	C	1.023909	-0.841210	0.000016
C46	C	1.110576	-0.835093	-0.000003
C47	C	1.285967	-0.235448	-0.000017
C48	C	1.390646	-0.260598	-0.000014
C49	C	1.106137	-0.057122	0.000012
C50	C	1.107681	0.019997	0.000027
N51	N	1.059378	-0.213146	-0.237453
C52	C	1.260641	-0.114630	-0.605037
C53	C	1.236684	-0.126376	-0.710066
C54	C	1.122668	-0.182220	-0.710065
C55	C	1.146612	-0.170474	-0.605033
C56	C	1.215600	-0.136680	-0.552528
C57	C	1.101571	-0.192524	-0.552524
C58	C	1.125516	-0.180783	-0.447501
C59	C	1.194503	-0.146992	-0.394988
C60	C	1.239545	-0.124939	-0.447505
C61	C	1.032588	-0.226324	-0.605031
C62	C	0.987547	-0.248374	-0.552522
C63	C	1.011487	-0.236628	-0.447497
C64	C	1.080474	-0.202837	-0.394985
C65	C	0.966445	-0.258682	-0.394981
C66	C	0.990391	-0.246941	-0.289958
C67	C	1.104420	-0.191096	-0.289962
N68	N	1.167714	-0.160167	0.237426
H69	H	0.848158	-0.231201	-0.000028
Cl70	Cl	1.224611	-0.132234	-0.262958
Cl71	Cl	0.403941	-0.407701	-0.000056
Cl72	Cl	1.191159	-0.148620	-0.223947
H73	H	1.266359	-0.896440	-0.000013
Cl74	Cl	1.326284	-0.082463	-0.381490
H75	H	0.491973	0.021995	0.000033
Cl76	Cl	0.925610	-0.316031	-0.000016
H77	H	1.275185	-0.454654	-0.000065
Cl78	Cl	1.002493	-0.241092	-0.737061
H79	H	1.263734	-1.027885	0.000020
H80	H	1.316807	-0.087101	-0.562284
H81	H	0.628014	0.053061	0.000036
H82	H	0.951898	-0.918656	0.000037
H83	H	1.273368	-0.108417	-0.752816
H84	H	1.066501	-0.209739	-0.752829
H85	H	0.378918	-0.142106	0.000009
Cl86	Cl	0.922346	-0.479580	-0.000006
Cl87	Cl	0.625944	-0.461065	-0.000067
H88	H	0.954522	-0.787204	0.000017
Cl89	Cl	0.900821	-0.290856	-0.618538
H90	H	0.910282	-0.286205	-0.437746
H91	H	0.806451	0.010177	0.000006
Cl92	Cl	0.847042	-0.306528	-0.000026
Cl93	Cl	0.380053	-0.066775	0.000017
Cl94	Cl	0.761978	-0.430004	-0.000066
Cl95	Cl	1.310298	-0.615482	-0.000046
Cl96	Cl	0.933787	-0.274680	-0.223941
