data_functionalizedCrystal
_audit_creation_method	'MofGen! by Chris Wilmer'
_symmetry_space_group_name_H-M	'P1'
_symmetry_Int_Tables_number	1
_symmetry_cell_setting	triclinic
loop_
_symmetry_equiv_pos_as_xyz
  x,y,z
_cell_length_a	16.992701
_cell_length_b	10.654550
_cell_length_c	15.455313
_cell_angle_alpha	92.692163
_cell_angle_beta	87.136501
_cell_angle_gamma	87.576036
loop_
_atom_site_label
_atom_site_type_symbol
_atom_site_fract_x
_atom_site_fract_y
_atom_site_fract_z
O1	O	1.045249	0.261265	-0.072134
O2	O	0.816948	0.258345	-0.072134
O3	O	0.936347	0.077520	-0.072131
O4	O	0.925850	0.442091	-0.072137
O5	O	0.929519	0.087815	0.072131
O6	O	0.810120	0.268640	0.072128
O7	O	1.038421	0.271560	0.072128
Cu8	Cu	0.923647	0.271040	0.085300
Cu9	Cu	0.931722	0.258865	-0.085306
O10	O	0.919022	0.452386	0.072125
C11	C	0.784301	0.259733	-0.000003
C12	C	0.697196	0.248515	-0.000003
C13	C	0.932163	0.035803	-0.000001
C14	C	0.929857	-0.103840	-0.000004
C15	C	0.207826	0.173140	-0.000005
C16	C	0.289670	0.183691	-0.000000
C17	C	0.321859	0.302492	-0.000006
C18	C	0.272200	0.410750	-0.000008
C19	C	0.190358	0.400199	-0.000007
C20	C	0.565694	0.346222	-0.000004
C21	C	0.647543	0.356765	-0.000008
C22	C	0.665007	0.129705	0.000002
C23	C	0.583163	0.119163	-0.000002
C24	C	0.533510	0.227422	-0.000000
N25	N	0.405517	0.313279	-0.000004
N26	N	0.449854	0.216634	0.000004
C27	C	1.000157	-0.177251	-0.000001
C28	C	0.997986	-0.308460	-0.000007
C29	C	0.855207	-0.292834	-0.000015
C30	C	0.857380	-0.161628	-0.000015
C31	C	1.072634	-0.119464	0.000010
C32	C	1.142940	-0.192876	0.000014
C33	C	1.140769	-0.324084	0.000008
C34	C	1.068291	-0.381881	-0.000002
C35	C	1.071068	0.270172	-0.000005
C36	C	1.158174	0.281390	-0.000010
C37	C	0.923206	0.494103	-0.000007
C38	C	0.925513	0.633745	-0.000010
N39	N	0.917973	0.279603	0.205296
N40	N	0.937402	0.250293	-0.205301
C41	C	0.968716	0.202814	0.250691
C42	C	0.964433	0.209302	0.341499
C43	C	0.909409	0.292587	0.386910
C44	C	0.858661	0.369379	0.341508
C45	C	0.862941	0.362884	0.250702
C46	C	0.890934	0.320590	0.658490
C47	C	0.886659	0.327082	0.749303
C48	C	0.992430	0.167003	0.749288
C49	C	0.996709	0.160520	0.658480
C50	C	0.945958	0.237308	0.613086
N51	N	0.905031	0.299224	0.479730
N52	N	0.950333	0.230664	0.520268
H53	H	0.330094	0.095542	0.000007
H54	H	1.198016	-0.383854	0.000002
C55	C	0.776445	-0.355349	-0.000063
C56	C	0.715342	-0.262975	-0.000088
C57	C	0.642776	-0.320514	-0.000141
H58	H	0.770137	-0.402612	0.050231
H59	H	0.774972	-0.409766	-0.050390
H60	H	0.716814	-0.208579	0.050234
H61	H	0.721624	-0.215706	-0.050378
H62	H	0.641302	-0.374932	-0.050468
H63	H	0.636476	-0.367777	0.050154
H64	H	0.601310	-0.257849	-0.000166
H65	H	1.066530	-0.488722	-0.000016
C66	C	1.019562	0.126152	0.390902
C67	C	1.065467	0.201688	0.443034
C68	C	1.116255	0.125133	0.488567
H69	H	1.053022	0.075603	0.350956
H70	H	0.989409	0.073543	0.426387
H71	H	1.095618	0.254276	0.407552
H72	H	1.032028	0.252237	0.482996
H73	H	1.086101	0.072523	0.524052
H74	H	1.149709	0.074587	0.448615
H75	H	1.147402	0.176372	0.523949
C76	C	0.835797	0.404113	0.609370
C77	C	0.786713	0.478465	0.668578
C78	C	0.735916	0.555438	0.623356
H79	H	0.804489	0.353214	0.573958
H80	H	0.865948	0.456813	0.573951
H81	H	0.756564	0.425771	0.703981
H82	H	0.817999	0.529390	0.703992
H83	H	0.766067	0.608138	0.587938
H84	H	0.704613	0.504529	0.587945
H85	H	0.702611	0.605903	0.663521
H86	H	1.013525	0.135001	0.213724
H87	H	0.556960	0.022423	0.000003
H88	H	0.705442	0.041567	0.000001
H89	H	0.673747	0.453513	-0.000001
H90	H	0.525277	0.434374	-0.000007
H91	H	0.800135	-0.101854	-0.000016
C92	C	0.798876	0.459605	0.390921
C93	C	0.748049	0.391539	0.443091
C94	C	0.692972	0.474617	0.488631
H95	H	0.769185	0.504444	0.350980
H96	H	0.825687	0.517286	0.426381
H97	H	0.721239	0.333880	0.407635
H98	H	0.777717	0.346704	0.483049
H99	H	0.719784	0.532298	0.524091
H100	H	0.663287	0.519452	0.448683
H101	H	0.658485	0.428448	0.524039
C102	C	0.307299	0.539621	-0.000055
C103	C	0.389602	0.525694	-0.000079
C104	C	0.421960	0.644384	-0.000136
H105	H	0.288006	0.588235	0.050237
H106	H	0.292723	0.580962	-0.050384
H107	H	0.404172	0.484373	0.050244
H108	H	0.408918	0.477103	-0.050368
H109	H	0.407384	0.685724	-0.050464
H110	H	0.402661	0.692988	0.050158
H111	H	0.477806	0.634950	-0.000160
C112	C	1.221658	-0.130211	-0.000160
C113	C	1.267703	-0.172104	-0.074392
C114	C	1.340220	-0.114395	-0.074591
H115	H	1.248352	-0.151299	0.050087
H116	H	1.212919	-0.041550	-0.000204
H117	H	1.276445	-0.260745	-0.074341
H118	H	1.241034	-0.151016	-0.124652
H119	H	1.331481	-0.025734	-0.074634
H120	H	1.366906	-0.135487	-0.024340
H121	H	1.371468	-0.142802	-0.124960
C122	C	1.047484	0.083411	0.798466
C123	C	1.035141	-0.042926	0.776373
C124	C	1.085847	-0.119976	0.821650
H125	H	1.037107	0.099034	0.859063
H126	H	1.100635	0.101210	0.783554
H127	H	0.982002	-0.060718	0.791291
H128	H	1.045523	-0.058588	0.715784
H129	H	1.138998	-0.102177	0.806739
H130	H	1.075466	-0.104342	0.882245
H131	H	1.077484	-0.205704	0.806661
H132	H	1.074410	-0.012627	0.000018
H133	H	0.149931	0.488348	-0.000008
C134	C	0.807809	0.446408	0.201568
C135	C	0.758720	0.520761	0.260770
C136	C	0.707925	0.597729	0.215541
H137	H	0.776504	0.395505	0.166155
H138	H	0.837961	0.499107	0.166150
H139	H	0.728570	0.468069	0.296173
H140	H	0.790003	0.571690	0.296185
H141	H	0.738077	0.650427	0.180123
H142	H	0.676626	0.546816	0.180130
H143	H	0.674617	0.648195	0.255703
H144	H	0.181625	0.076399	-0.000006
H145	H	1.041513	0.092703	0.621509
H146	H	0.841850	0.394907	0.786272
