data_functionalizedCrystal
_audit_creation_method	'MofGen! by Chris Wilmer'
_symmetry_space_group_name_H-M	'P1'
_symmetry_Int_Tables_number	1
_symmetry_cell_setting	triclinic
loop_
_symmetry_equiv_pos_as_xyz
  x,y,z
_cell_length_a	10.686285
_cell_length_b	10.685972
_cell_length_c	10.686551
_cell_angle_alpha	98.409768
_cell_angle_beta	80.915481
_cell_angle_gamma	90.336301
loop_
_atom_site_label
_atom_site_type_symbol
_atom_site_fract_x
_atom_site_fract_y
_atom_site_fract_z
Zn1	Zn	-0.282884	-2.015989	-0.846645
Zn2	Zn	-0.511473	-2.015887	-0.618134
Zn3	Zn	-0.317996	-1.789922	-0.615609
Zn4	Zn	-0.511344	-1.820001	-0.814049
O5	O	-0.405924	-1.910450	-0.723609
O6	O	-0.298566	-2.192564	-0.831031
O7	O	-0.500556	-1.973282	-0.439119
O8	O	-0.136757	-1.807365	-0.658841
O9	O	-0.466509	-2.192489	-0.663145
O10	O	-0.110960	-1.973455	-0.828582
O11	O	-0.358410	-1.807266	-0.437263
O12	O	-0.358285	-1.617324	-0.627234
O13	O	-0.466290	-1.858630	-0.997054
O14	O	-0.500336	-1.639423	-0.773027
O15	O	-0.298441	-2.002621	-1.021002
O16	O	-0.688037	-2.002448	-0.631538
O17	O	-0.687942	-1.858531	-0.775476
C18	C	-0.433107	-1.582586	-0.696320
C19	C	-0.444764	-1.442329	-0.684673
C20	C	-0.733770	-1.933778	-0.700275
C21	C	-0.874011	-1.943877	-0.690345
C22	C	-0.076793	-1.887067	-0.747066
C23	C	0.063464	-1.877102	-0.757061
C24	C	-0.378434	-1.933992	-1.056653
C25	C	-0.366720	-1.944025	-1.198577
C26	C	-0.378628	-1.239593	-0.751001
C27	C	-0.366975	-1.379852	-0.762659
C28	C	-0.433210	-1.887065	-0.391874
C29	C	-0.444548	-1.877252	-0.249997
H30	H	-0.291451	-1.433663	-0.838335
H31	H	-0.520146	-1.812413	-1.185444
O32	O	-0.534993	-1.378102	-0.594547
C33	C	-0.616857	-1.312798	-0.655040
H34	H	-0.613232	-1.360284	-0.758297
H35	H	-0.585687	-1.210495	-0.654078
C36	C	-0.757740	-1.257191	-0.456115
C37	C	-0.753295	-1.315521	-0.582934
H38	H	-0.841900	-1.258865	-0.411634
H39	H	-0.702584	-1.301183	-0.415357
H40	H	-0.731758	-1.171944	-0.455330
H41	H	-0.779261	-1.400771	-0.583717
H42	H	-0.808458	-1.271543	-0.623690
O43	O	-0.276560	-2.021284	-1.275769
C44	C	-0.284550	-2.014459	-1.405043
H45	H	-0.332481	-1.921276	-1.412080
H46	H	-0.342449	-2.096733	-1.444328
C47	C	-0.091449	-2.136186	-1.475039
C48	C	-0.150309	-2.021733	-1.483683
H49	H	-0.008645	-2.140679	-1.523551
H50	H	-0.086068	-2.140789	-1.387945
H51	H	-0.139711	-2.204735	-1.507775
H52	H	-0.102056	-1.953187	-1.450933
H53	H	-0.155679	-2.017118	-1.570773
O54	O	-0.872328	-1.799876	-0.834435
C55	C	-0.783223	-1.872058	-0.928261
H56	H	-0.814029	-1.974826	-0.941720
H57	H	-0.686301	-1.866547	-0.896138
C58	C	-0.737364	-1.693306	-1.039432
C59	C	-0.775206	-1.819526	-1.055971
H60	H	-0.732413	-1.660899	-1.118208
H61	H	-0.797391	-1.644673	-0.976217
H62	H	-0.656599	-1.688730	-1.012659
H63	H	-0.855976	-1.824098	-1.082727
H64	H	-0.715191	-1.868158	-1.119193
H65	H	-0.927777	-2.008765	-0.625613
