data_functionalizedCrystal
_audit_creation_method	'MofGen! by Chris Wilmer'
_symmetry_space_group_name_H-M	'P1'
_symmetry_Int_Tables_number	1
_symmetry_cell_setting	triclinic
loop_
_symmetry_equiv_pos_as_xyz
  x,y,z
_cell_length_a	10.908937
_cell_length_b	15.995292
_cell_length_c	10.065875
_cell_angle_alpha	98.790453
_cell_angle_beta	83.441416
_cell_angle_gamma	71.777286
loop_
_atom_site_label
_atom_site_type_symbol
_atom_site_fract_x
_atom_site_fract_y
_atom_site_fract_z
O1	O	1.722682	-0.144251	-0.113545
O2	O	1.348799	-0.078862	-0.113534
O3	O	1.546000	-0.234877	-0.113542
O4	O	1.525481	0.011763	-0.113537
O5	O	1.508396	-0.205029	0.113449
O6	O	1.311195	-0.049014	0.113457
O7	O	1.685079	-0.114403	0.113445
Zn8	Zn	1.492166	-0.076970	0.149491
Zn9	Zn	1.541711	-0.116296	-0.149579
O10	O	1.487877	0.041611	0.113453
C11	C	1.282153	-0.057827	-0.000037
C12	C	1.139596	-0.039629	-0.000033
C13	C	0.943273	-0.087234	-0.000058
C14	C	1.090611	-0.106042	-0.000042
C15	C	1.526364	-0.251032	-0.000050
C16	C	1.523862	-0.343638	-0.000060
C17	C	1.514656	-0.680093	-0.000047
C18	C	1.656906	-0.676533	0.000455
C19	C	1.659697	-0.580302	-0.000061
C20	C	1.519224	-0.513174	-0.000053
C21	C	1.469536	-0.549411	-0.129669
C22	C	1.467840	-0.645976	-0.129773
C23	C	1.422171	-0.611486	0.128358
C24	C	1.427162	-0.515503	0.130066
C25	C	1.521798	-0.418837	-0.000061
C26	C	1.512078	-0.774430	-0.000049
C27	C	1.751724	-0.135439	-0.000054
C28	C	1.894284	-0.153638	-0.000067
C29	C	1.507514	0.057766	-0.000041
C30	C	1.510017	0.150371	-0.000040
N31	N	1.458363	-0.050132	0.353598
N32	N	1.575524	-0.143141	-0.353686
C33	C	1.529941	-0.106963	0.421373
C34	C	1.503935	-0.086303	0.578542
H35	H	0.961422	-0.224414	-0.000071
H36	H	1.700035	-0.556820	0.092850
F37	F	1.051857	0.052886	-0.000046
H38	H	1.423391	-0.022351	0.636866
F39	F	1.681011	-0.226625	0.570087
H40	H	1.731176	-0.581943	-0.093141
F41	F	1.708492	-0.707135	0.121953
H42	H	1.463093	-0.491543	0.225955
H43	H	1.377824	0.013815	0.411927
F44	F	0.855529	0.005274	-0.000077
H45	H	1.726776	-0.725303	-0.091980
H46	H	1.157745	-0.176823	-0.000046
F47	F	1.553243	-0.706654	-0.256418
H48	H	1.534932	-0.548915	-0.226134
F49	F	1.332711	-0.647016	-0.137461
H50	H	1.366964	-0.503783	-0.134482
F51	F	1.459105	-0.639689	0.256770
F52	F	1.634979	-0.190667	0.345138
F53	F	1.291448	-0.452404	0.140308
H54	H	1.317257	-0.610772	0.129237
