data_functionalizedCrystal
_audit_creation_method	'MofGen! by Chris Wilmer'
_symmetry_space_group_name_H-M	'P1'
_symmetry_Int_Tables_number	1
_symmetry_cell_setting	triclinic
loop_
_symmetry_equiv_pos_as_xyz
  x,y,z
_cell_length_a	16.109302
_cell_length_b	6.394989
_cell_length_c	14.586319
_cell_angle_alpha	90.000822
_cell_angle_beta	89.994552
_cell_angle_gamma	95.020254
loop_
_atom_site_label
_atom_site_type_symbol
_atom_site_fract_x
_atom_site_fract_y
_atom_site_fract_z
O1	O	1.105973	-0.268487	-0.076276
O2	O	1.605973	0.231513	0.423724
O3	O	0.864264	-0.301898	-0.076268
O4	O	1.364264	0.198102	0.423732
O5	O	0.988549	0.018874	-0.076272
O6	O	1.488549	0.518874	0.423728
O7	O	0.981688	-0.589259	-0.076271
O8	O	1.481688	-0.089259	0.423729
O9	O	0.988540	0.018879	0.076208
O10	O	1.488540	0.518879	0.576208
O11	O	0.864255	-0.301893	0.076213
O12	O	1.364255	0.198107	0.576213
O13	O	1.105964	-0.268483	0.076205
O14	O	1.605964	0.231517	0.576205
Cu15	Cu	0.985109	-0.285187	0.090132
Cu16	Cu	1.485109	0.214813	0.590132
Cu17	Cu	0.985119	-0.285193	-0.090194
Cu18	Cu	1.485119	0.214807	0.409806
O19	O	0.981679	-0.589254	0.076210
O20	O	1.481679	-0.089254	0.576210
C21	C	0.833271	-0.300542	-0.000026
C22	C	1.333271	0.199458	0.499974
C23	C	0.740932	-0.296483	-0.000024
C24	C	1.240932	0.203517	0.499976
C25	C	0.528487	-0.287097	0.083085
C26	C	1.028487	0.212903	0.583085
C27	C	0.441727	-0.283261	0.083081
C28	C	0.941727	0.216739	0.583081
C29	C	0.441747	-0.283277	-0.083162
C30	C	0.941747	0.216723	0.416838
C31	C	0.528507	-0.287098	-0.083157
C32	C	1.028507	0.212902	0.416843
C33	C	0.571874	-0.289018	-0.000032
C34	C	1.071874	0.210982	0.499968
C35	C	0.398354	-0.281362	-0.000039
C36	C	0.898354	0.218638	0.499961
C37	C	0.304284	-0.277203	-0.000043
C38	C	0.804284	0.222797	0.499957
C39	C	0.665950	-0.293173	-0.000027
C40	C	1.165950	0.206827	0.499973
C41	C	1.136957	-0.269839	-0.000038
C42	C	1.636957	0.230161	0.499962
C43	C	1.229296	-0.273897	-0.000047
C44	C	1.729296	0.226103	0.499953
C45	C	0.987188	0.096697	-0.000035
C46	C	1.487188	0.596697	0.499965
C47	C	0.983042	0.332929	-0.000036
C48	C	1.483042	0.832929	0.499964
N49	N	0.985107	-0.285182	0.216964
N50	N	1.485107	0.214818	0.716964
N51	N	0.985127	-0.285182	-0.217026
N52	N	1.485127	0.214818	0.282974
C53	C	1.040160	-0.143192	0.451968
C54	C	1.540160	0.356808	0.951968
C55	C	1.040162	-0.143187	0.547949
C56	C	1.540162	0.356813	1.047949
C57	C	0.930069	-0.427179	0.547963
C58	C	1.430069	0.072821	1.047963
C59	C	0.930063	-0.427172	0.451983
C60	C	1.430063	0.072828	0.951983
C61	C	0.985113	-0.285181	0.403988
C62	C	1.485113	0.214819	0.903988
C63	C	0.985121	-0.285183	0.595949
C64	C	1.485121	0.214817	1.095949
C65	C	0.985123	-0.285178	0.700016
C66	C	1.485123	0.214822	1.200016
C67	C	0.985110	-0.285182	0.299915
C68	C	1.485110	0.214818	0.799915
H69	H	0.406427	-0.281716	-0.150840
H70	H	0.906427	0.218284	0.349160
H71	H	0.406405	-0.281697	0.150763
H72	H	0.906405	0.218303	0.650763
Cl73	Cl	0.583055	-0.289497	-0.187655
Cl74	Cl	1.083055	0.210503	0.312345
Cl75	Cl	0.860852	-0.605677	0.391660
Cl76	Cl	1.360852	-0.105677	0.891660
Cl77	Cl	0.860869	-0.605681	0.608303
Cl78	Cl	1.360869	-0.105681	1.108303
Cl79	Cl	1.109365	0.035325	0.608264
Cl80	Cl	1.609365	0.535325	1.108264
Cl81	Cl	0.583004	-0.289498	0.187585
Cl82	Cl	1.083004	0.210502	0.687585
Cl83	Cl	1.109363	0.035319	0.391635
Cl84	Cl	1.609363	0.535319	0.891635
