data_functionalizedCrystal
_audit_creation_method	'MofGen! by Chris Wilmer'
_symmetry_space_group_name_H-M	'P1'
_symmetry_Int_Tables_number	1
_symmetry_cell_setting	triclinic
loop_
_symmetry_equiv_pos_as_xyz
  x,y,z
_cell_length_a	14.853566
_cell_length_b	14.853567
_cell_length_c	13.330367
_cell_angle_alpha	90.000844
_cell_angle_beta	89.995295
_cell_angle_gamma	96.365328
loop_
_atom_site_label
_atom_site_type_symbol
_atom_site_fract_x
_atom_site_fract_y
_atom_site_fract_z
O1	O	1.196370	-0.117698	-0.083349
O2	O	1.696370	0.382302	0.416651
O3	O	0.933910	-0.131721	-0.083364
O4	O	1.433910	0.368279	0.416636
O5	O	1.072150	0.006520	-0.083359
O6	O	1.572150	0.506520	0.416641
O7	O	1.058129	-0.255939	-0.083354
O8	O	1.558129	0.244061	0.416646
O9	O	1.072130	0.006523	0.083488
O10	O	1.572130	0.506523	0.583488
O11	O	0.933890	-0.131718	0.083483
O12	O	1.433890	0.368282	0.583483
O13	O	1.196349	-0.117695	0.083499
O14	O	1.696349	0.382305	0.583499
Cu15	Cu	1.065118	-0.124706	0.098725
Cu16	Cu	1.565118	0.375294	0.598725
Cu17	Cu	1.065142	-0.124710	-0.098591
Cu18	Cu	1.565142	0.375290	0.401409
O19	O	1.058109	-0.255936	0.083493
O20	O	1.558109	0.244064	0.583493
C21	C	0.900311	-0.131084	0.000057
C22	C	1.400311	0.368916	0.500057
C23	C	0.800227	-0.129181	0.000051
C24	C	1.300227	0.370819	0.500051
C25	C	0.377053	-0.121132	-0.090880
C26	C	0.877053	0.378868	0.409120
C27	C	0.377053	-0.121129	0.091023
C28	C	0.877053	0.378871	0.591023
C29	C	0.471087	-0.122916	0.091020
C30	C	0.971087	0.377084	0.591020
C31	C	0.518108	-0.123813	0.000066
C32	C	1.018108	0.376187	0.500066
C33	C	0.471096	-0.122922	-0.090886
C34	C	0.971096	0.377078	0.409114
C35	C	0.518105	-0.123816	0.181970
C36	C	1.018105	0.376184	0.681970
C37	C	0.612145	-0.125605	0.181971
C38	C	1.112145	0.374395	0.681971
C39	C	0.659169	-0.126495	0.091015
C40	C	1.159169	0.373505	0.591015
C41	C	0.612151	-0.125603	0.000060
C42	C	1.112151	0.374397	0.500060
C43	C	0.659172	-0.126500	-0.090895
C44	C	1.159172	0.373500	0.409105
C45	C	0.612157	-0.125601	-0.181851
C46	C	1.112157	0.374399	0.318149
C47	C	0.518120	-0.123812	-0.181841
C48	C	1.018120	0.376188	0.318159
C49	C	0.753206	-0.128284	0.091006
C50	C	1.253206	0.371716	0.591006
C51	C	0.753215	-0.128290	-0.090900
C52	C	1.253215	0.371710	0.409100
C53	C	1.071505	0.040111	0.000062
C54	C	1.571505	0.540111	0.500062
C55	C	1.069601	0.140194	0.000053
C56	C	1.569601	0.640194	0.500053
C57	C	1.229948	-0.118332	0.000075
C58	C	1.729948	0.381668	0.500075
C59	C	1.330032	-0.120235	0.000075
C60	C	1.830032	0.379765	0.500075
C61	C	1.058754	-0.289526	0.000071
C62	C	1.558754	0.210474	0.500071
C63	C	1.060658	-0.389610	0.000073
C64	C	1.560658	0.110390	0.500073
N65	N	1.065108	-0.124703	0.237507
N66	N	1.565108	0.375297	0.737507
C67	C	0.979435	0.552728	0.000067
C68	C	1.479435	1.052728	0.500067
C69	C	1.143668	0.574009	0.000076
C70	C	1.643668	1.074009	0.500076
C71	C	1.145458	0.479976	0.000070
C72	C	1.645458	0.979976	0.500070
C73	C	1.064236	0.422313	0.000064
C74	C	1.564236	0.922313	0.500064
C75	C	0.981223	0.458685	0.000064
C76	C	1.481223	0.958685	0.500064
C77	C	1.228470	0.443597	0.000081
C78	C	1.728470	0.943597	0.500081
C79	C	1.230263	0.349558	0.000076
C80	C	1.730263	0.849558	0.500076
C81	C	1.149040	0.291894	0.000063
C82	C	1.649040	0.791894	0.500063
C83	C	1.066023	0.328271	0.000061
C84	C	1.566023	0.828271	0.500061
C85	C	0.984801	0.270608	0.000055
C86	C	1.484801	0.770608	0.500055
C87	C	0.901784	0.306984	0.000047
C88	C	1.401784	0.806984	0.500047
C89	C	0.899999	0.401021	0.000050
C90	C	1.399999	0.901021	0.500050
C91	C	1.150824	0.197856	0.000059
C92	C	1.650824	0.697856	0.500059
C93	C	0.986588	0.176566	0.000052
C94	C	1.486588	0.676566	0.500052
N95	N	1.065159	-0.124706	-0.237372
N96	N	1.565159	0.375294	0.262628
C97	C	1.003926	-0.185899	0.710127
C98	C	1.503926	0.314101	1.210127
C99	C	1.126381	-0.063514	0.710100
C100	C	1.626381	0.436486	1.210100
C101	C	1.126371	-0.063511	0.605082
C102	C	1.626371	0.436489	1.105082
C103	C	1.065138	-0.124704	0.552581
C104	C	1.565138	0.375296	1.052581
C105	C	1.003916	-0.185900	0.605099
C106	C	1.503916	0.314100	1.105099
C107	C	1.187599	-0.002322	0.552556
C108	C	1.687599	0.497678	1.052556
C109	C	1.187592	-0.002318	0.447531
C110	C	1.687592	0.497682	0.947531
C111	C	1.126354	-0.063507	0.395029
C112	C	1.626354	0.436493	0.895029
C113	C	1.065128	-0.124705	0.447553
C114	C	1.565128	0.375295	0.947553
C115	C	1.003895	-0.185898	0.395053
C116	C	1.503895	0.314102	0.895053
C117	C	0.942664	-0.247092	0.447575
C118	C	1.442664	0.252908	0.947575
C119	C	0.942678	-0.247089	0.552597
C120	C	1.442678	0.252911	1.052597
C121	C	1.126340	-0.063510	0.290007
C122	C	1.626340	0.436490	0.790007
C123	C	1.003885	-0.185899	0.290025
C124	C	1.503885	0.314101	0.790025
H125	H	0.338770	-0.120397	-0.164934
H126	H	0.838770	0.379603	0.335066
H127	H	1.209796	0.620963	0.000089
H128	H	1.709796	1.120963	0.500089
H129	H	0.650418	-0.126335	0.256033
H130	H	1.150418	0.373665	0.756033
Br131	Br	0.876351	0.098316	0.000032
Br132	Br	1.376351	0.598316	0.500032
H133	H	0.954070	-0.235720	0.752894
H134	H	1.454070	0.264280	1.252894
Br135	Br	0.787344	0.450393	0.000032
Br136	Br	1.287344	0.950393	0.500032
Br137	Br	0.866775	0.602090	0.000041
Br138	Br	1.366775	1.102090	0.500041
Br139	Br	0.454314	-0.122551	-0.305270
Br140	Br	0.954314	0.377449	0.194730
Br141	Br	0.791558	0.228717	0.000051
Br142	Br	1.291558	0.728717	0.500051
H143	H	0.791481	-0.129025	0.165061
H144	H	1.291481	0.370975	0.665061
H145	H	1.297861	0.319950	0.000082
H146	H	1.797861	0.819950	0.500082
H147	H	1.218415	0.168244	0.000073
H148	H	1.718415	0.668244	0.500073
H149	H	1.176240	-0.013696	0.752849
H150	H	1.676240	0.486304	1.252849
Br151	Br	0.920771	-0.268944	0.218782
Br152	Br	1.420771	0.231056	0.718782
H153	H	0.338762	-0.120405	0.165074
H154	H	0.838762	0.379595	0.665074
H155	H	1.237457	0.047495	0.595305
H156	H	1.737457	0.547495	1.095305
H157	H	1.237448	0.047510	0.404774
H158	H	1.737448	0.547510	0.904774
Br159	Br	0.454286	-0.122615	0.305401
Br160	Br	0.954286	0.377385	0.805401
H161	H	1.294597	0.490552	0.000095
H162	H	1.794597	0.990552	0.500095
Br163	Br	0.859574	-0.330145	0.376314
Br164	Br	1.359574	0.169855	0.876314
H165	H	0.892827	-0.296912	0.595367
H166	H	1.392827	0.203088	1.095367
H167	H	1.176198	-0.013691	0.247248
H168	H	1.676198	0.486309	0.747248
H169	H	0.791493	-0.129017	-0.164968
H170	H	1.291493	0.370983	0.335032
H171	H	0.650453	-0.126337	-0.255906
H172	H	1.150453	0.373663	0.244094
