data_functionalizedCrystal
_audit_creation_method	'MofGen! by Chris Wilmer'
_symmetry_space_group_name_H-M	'P1'
_symmetry_Int_Tables_number	1
_symmetry_cell_setting	triclinic
loop_
_symmetry_equiv_pos_as_xyz
  x,y,z
_cell_length_a	21.395364
_cell_length_b	19.805399
_cell_length_c	21.395361
_cell_angle_alpha	89.969097
_cell_angle_beta	90.045659
_cell_angle_gamma	89.981369
loop_
_atom_site_label
_atom_site_type_symbol
_atom_site_fract_x
_atom_site_fract_y
_atom_site_fract_z
Zn1	Zn	0.957823	-0.382687	-0.249203
Zn2	Zn	1.457823	0.117313	0.250797
Zn3	Zn	0.957736	-0.269492	-0.353980
Zn4	Zn	1.457736	0.230508	0.146020
Zn5	Zn	0.853048	-0.269514	-0.249248
Zn6	Zn	1.353048	0.230486	0.250752
Zn7	Zn	0.853007	-0.382641	-0.353974
Zn8	Zn	1.353007	0.117359	0.146026
O9	O	0.905403	-0.326084	-0.301601
O10	O	1.405403	0.173916	0.198399
O11	O	1.045489	-0.367682	-0.263086
O12	O	1.545489	0.132318	0.236914
O13	O	0.943830	-0.174779	-0.340108
O14	O	1.443830	0.325221	0.159892
O15	O	0.867001	-0.284555	-0.161564
O16	O	1.367001	0.215445	0.338436
O17	O	1.045425	-0.284518	-0.340065
O18	O	1.545425	0.215482	0.159935
O19	O	0.943978	-0.367703	-0.161531
O20	O	1.443978	0.132297	0.338469
O21	O	0.866917	-0.174794	-0.263162
O22	O	1.366917	0.325206	0.236838
O23	O	0.765365	-0.284510	-0.263156
O24	O	1.265365	0.215490	0.236844
O25	O	0.866930	-0.477364	-0.340055
O26	O	1.366930	0.022636	0.159945
O27	O	0.765334	-0.367624	-0.340098
O28	O	1.265334	0.132376	0.159902
O29	O	0.943937	-0.477398	-0.263080
O30	O	1.443937	0.022602	0.236920
O31	O	0.943790	-0.284474	-0.441657
O32	O	1.443790	0.215526	0.058343
O33	O	0.866846	-0.367603	-0.441653
O34	O	1.366846	0.132397	0.058347
C35	C	0.742616	-0.326064	-0.301632
C36	C	1.242616	0.173936	0.198368
C37	C	0.672975	-0.326072	-0.301660
C38	C	1.172975	0.173928	0.198340
C39	C	0.640317	-0.369443	-0.261642
C40	C	1.140317	0.130557	0.238358
C41	C	0.574882	-0.369445	-0.261626
C42	C	1.074882	0.130555	0.238374
C43	C	0.542106	-0.326085	-0.301638
C44	C	1.042106	0.173915	0.198362
C45	C	0.574772	-0.282706	-0.341658
C46	C	1.074772	0.217294	0.158342
C47	C	0.640206	-0.282700	-0.341669
C48	C	1.140206	0.217300	0.158331
C49	C	0.438382	-0.320640	-0.358063
C50	C	0.938382	0.179360	0.141937
C51	C	0.372949	-0.320650	-0.358053
C52	C	0.872949	0.179350	0.141947
C53	C	0.340286	-0.326100	-0.301603
C54	C	0.840286	0.173900	0.198397
C55	C	0.373063	-0.331552	-0.245162
C56	C	0.873063	0.168448	0.254838
C57	C	0.438497	-0.331546	-0.245173
C58	C	0.938497	0.168454	0.254827
C59	C	0.471154	-0.326086	-0.301630
C60	C	0.971154	0.173914	0.198370
C61	C	0.236675	-0.369475	-0.261564
C62	C	0.736675	0.130525	0.238436
C63	C	0.171239	-0.369473	-0.261547
C64	C	0.671239	0.130527	0.238453
C65	C	0.171130	-0.282737	-0.341585
C66	C	0.671130	0.217263	0.158415
C67	C	0.236566	-0.282736	-0.341597
C68	C	0.736566	0.217264	0.158403
C69	C	0.269334	-0.326108	-0.301587
C70	C	0.769334	0.173892	0.198413
C71	C	0.905439	-0.502626	-0.301562
C72	C	1.405439	-0.002626	0.198438
C73	C	0.905454	-0.577858	-0.301545
C74	C	1.405454	-0.077858	0.198455
C75	C	0.945552	-0.613221	-0.261462
C76	C	1.445552	-0.113221	0.238538
C77	C	0.945559	-0.683910	-0.261444
C78	C	1.445559	-0.183910	0.238556
C79	C	0.905469	-0.719234	-0.301512
C80	C	1.405469	-0.219234	0.198488
C81	C	0.865366	-0.683866	-0.341597
C82	C	1.365366	-0.183866	0.158403
C83	C	0.865357	-0.613179	-0.341611
C84	C	1.365357	-0.113179	0.158389
C85	C	0.865401	-0.968940	-0.341538
C86	C	1.365401	-0.468940	0.158462
C87	C	0.865415	-1.039632	-0.341522
C88	C	1.365415	-0.539632	0.158478
C89	C	0.945603	-1.039670	-0.261371
C90	C	1.445603	-0.539670	0.238629
C91	C	0.945594	-0.968983	-0.261386
C92	C	1.445594	-0.468983	0.238614
C93	C	0.905489	-0.933621	-0.301468
C94	C	1.405489	-0.433621	0.198532
C95	C	0.905482	-0.856973	-0.301486
C96	C	1.405482	-0.356973	0.198514
C97	C	0.905479	-0.795881	-0.301498
C98	C	1.405479	-0.295881	0.198502
C99	C	1.068827	-0.326103	-0.301571
C100	C	1.568827	0.173897	0.198429
C101	C	1.138468	-0.326111	-0.301558
C102	C	1.638468	0.173889	0.198442
C103	C	0.905321	-0.326046	-0.464389
C104	C	1.405321	0.173954	0.035611
C105	C	0.905343	-0.326052	-0.534030
C106	C	1.405343	0.173948	-0.034030
C107	C	0.905405	-0.150228	-0.301595
C108	C	1.405405	0.349772	0.198405
C109	C	0.905511	-0.074996	-0.301436
C110	C	1.405511	0.425004	0.198564
C111	C	0.945443	-0.282811	-0.566725
C112	C	1.445443	0.217189	-0.066725
C113	C	0.945472	-0.282826	-0.632160
C114	C	1.445472	0.217174	-0.132160
C115	C	0.905390	-0.326076	-0.664898
C116	C	1.405390	0.173924	-0.164898
C117	C	0.865287	-0.369325	-0.632196
C118	C	1.365287	0.130675	-0.132196
C119	C	0.865263	-0.369314	-0.566762
C120	C	1.365263	0.130686	-0.066762
C121	C	0.848975	-0.331380	-0.768628
C122	C	1.348975	0.168620	-0.268628
C123	C	0.848997	-0.331386	-0.834061
C124	C	1.348997	0.168614	-0.334061
C125	C	0.905463	-0.326115	-0.866719
C126	C	1.405463	0.173885	-0.366719
C127	C	0.961908	-0.320823	-0.833937
C128	C	1.461908	0.179177	-0.333937
C129	C	0.961884	-0.320811	-0.768503
C130	C	1.461884	0.179189	-0.268503
C131	C	0.905411	-0.326093	-0.735851
C132	C	1.405411	0.173907	-0.235851
C133	C	0.945598	-0.282888	-0.970366
C134	C	1.445598	0.217112	-0.470366
C135	C	0.945628	-0.282908	-1.035803
C136	C	1.445628	0.217092	-0.535803
C137	C	0.865437	-0.369404	-1.035837
C138	C	1.365437	0.130596	-0.535837
C139	C	0.865413	-0.369387	-0.970402
C140	C	1.365413	0.130613	-0.470402
C141	C	0.905492	-0.326126	-0.937670
C142	C	1.405492	0.173874	-0.437670
C143	C	0.905504	-0.326136	-0.138178
C144	C	1.405504	0.173864	0.361822
C145	C	0.905546	-0.326159	-0.068537
C146	C	1.405546	0.173841	0.431463
H147	H	0.346469	-0.335990	-0.199195
H148	H	0.846469	0.164010	0.300805
C149	C	0.989689	-0.235311	-0.934359
C150	C	1.489689	0.264689	-0.434359
H151	H	1.013584	-0.209567	-0.963205
H152	H	1.513584	0.290433	-0.463205
H153	H	0.965730	-0.205789	-0.908881
H154	H	1.465730	0.294211	-0.408881
H155	H	1.016966	-0.261231	-0.908784
H156	H	1.516966	0.238769	-0.408784
C157	C	0.821315	-1.078491	-0.385597
C158	C	1.321315	-0.578491	0.114403
H159	H	0.827071	-1.125654	-0.379852
H160	H	1.327071	-0.625654	0.120148
H161	H	0.779220	-1.066906	-0.376437
H162	H	1.279220	-0.566906	0.123563
H163	H	0.830459	-1.066892	-0.427698
H164	H	1.330459	-0.566892	0.072302
C165	C	0.135085	-0.235045	-0.385600
C166	C	0.635085	0.264955	0.114400
H167	H	0.091437	-0.241262	-0.379866
H168	H	0.591437	0.258738	0.120134
H169	H	0.145800	-0.189584	-0.376382
H170	H	0.645800	0.310416	0.123618
H171	H	0.145773	-0.244874	-0.427713
H172	H	0.645773	0.255126	0.072287
C173	C	0.821267	-0.722718	-0.385672
C174	C	1.321267	-0.222718	0.114328
H175	H	0.797380	-0.691531	-0.409542
H176	H	1.297380	-0.191531	0.090458
H177	H	0.845221	-0.750288	-0.412962
H178	H	1.345221	-0.250288	0.087038
H179	H	0.793983	-0.750295	-0.361700
H180	H	1.293983	-0.250295	0.138300
C181	C	0.821250	-0.574277	-0.385701
C182	C	1.321250	-0.074277	0.114299
H183	H	0.826981	-0.527119	-0.379967
H184	H	1.326981	-0.027119	0.120033
H185	H	0.830392	-0.585847	-0.427796
H186	H	1.330392	-0.085847	0.072204
H187	H	0.779158	-0.585857	-0.376531
H188	H	1.279158	-0.085857	0.123469
H189	H	1.007888	-0.316531	-0.860526
H190	H	1.507888	0.183469	-0.360526
H191	H	0.978213	-0.712699	-0.228806
H192	H	1.478213	-0.212699	0.271194
C193	C	0.821275	-0.930050	-0.385614
C194	C	1.321275	-0.430050	0.114386
H195	H	0.797401	-0.961214	-0.409473
H196	H	1.297401	-0.461214	0.090527
H197	H	0.793990	-0.902488	-0.361643
H198	H	1.293990	-0.402488	0.138357
H199	H	0.845208	-0.902462	-0.412924
H200	H	1.345208	-0.402462	0.087076
C201	C	0.989514	-0.235213	-0.530721
C202	C	1.489514	0.264787	-0.030721
H203	H	0.983750	-0.241388	-0.487067
H204	H	1.483750	0.258612	0.012933
H205	H	1.031616	-0.245142	-0.541381
H206	H	1.531616	0.254858	-0.041381
H207	H	0.980351	-0.189733	-0.541494
H208	H	1.480351	0.310267	-0.041494
C209	C	0.989579	-0.235254	-0.668132
C210	C	1.489579	0.264746	-0.168132
H211	H	1.013442	-0.209484	-0.639266
H212	H	1.513442	0.290516	-0.139266
H213	H	1.016875	-0.261171	-0.693613
H214	H	1.516875	0.238829	-0.193613
H215	H	0.965625	-0.205745	-0.693701
H216	H	1.465625	0.294255	-0.193701
H217	H	0.832757	-0.404596	-0.943780
H218	H	1.332757	0.095404	-0.443780
C219	C	0.989649	-0.574371	-0.217384
C220	C	1.489649	-0.074371	0.282616
H221	H	1.013526	-0.605558	-0.193504
H222	H	1.513526	-0.105558	0.306496
H223	H	1.016932	-0.546791	-0.241347
H224	H	1.516932	-0.046791	0.258653
H225	H	0.965687	-0.546803	-0.190092
H226	H	1.465687	-0.046803	0.309908
C227	C	0.786860	-0.337177	-0.732706
C228	C	1.286860	0.162823	-0.232706
H229	H	0.794929	-0.336419	-0.689042
H230	H	1.294929	0.163581	-0.189042
H231	H	0.760530	-0.300333	-0.743485
H232	H	1.260530	0.199667	-0.243485
H233	H	0.766807	-0.378368	-0.743426
H234	H	1.266807	0.121632	-0.243426
H235	H	1.007843	-0.316504	-0.741813
H236	H	1.507843	0.183496	-0.241813
C237	C	0.474309	-0.314641	-0.420160
C238	C	0.974309	0.185359	0.079840
H239	H	0.517973	-0.315411	-0.412084
H240	H	1.017973	0.184589	0.087916
H241	H	0.463576	-0.351408	-0.446561
H242	H	0.963576	0.148592	0.053439
H243	H	0.463549	-0.273392	-0.440140
H244	H	0.963549	0.226608	0.059860
H245	H	0.978242	-0.940226	-0.228760
H246	H	1.478242	-0.440226	0.271240
C247	C	0.538722	-0.235014	-0.385673
C248	C	1.038722	0.264986	0.114327
H249	H	0.495074	-0.241234	-0.379940
H250	H	0.995074	0.258766	0.120060
H251	H	0.549435	-0.189553	-0.376452
H252	H	1.049435	0.310447	0.123548
H253	H	0.549411	-0.244840	-0.427786
H254	H	1.049411	0.255160	0.072214
C255	C	0.989740	-0.235339	-1.071767
C256	C	1.489740	0.264661	-0.571767
H257	H	1.013601	-0.209570	-1.042899
H258	H	1.513601	0.290430	-0.542899
H259	H	1.017038	-0.261259	-1.097244
H260	H	1.517038	0.238741	-0.597244
H261	H	0.965792	-0.205830	-1.097340
H262	H	1.465792	0.294170	-0.597340
H263	H	0.803036	-0.335689	-0.860747
H264	H	1.303036	0.164311	-0.360747
H265	H	0.832804	-0.404621	-1.062492
H266	H	1.332804	0.095379	-0.562492
H267	H	0.978257	-1.068470	-0.228732
H268	H	1.478257	-0.568470	0.271268
H269	H	0.263156	-0.247422	-0.374186
H270	H	0.763156	0.252578	0.125814
H271	H	0.666993	-0.404760	-0.229063
H272	H	1.166993	0.095240	0.270937
C273	C	0.272724	-0.417176	-0.217552
C274	C	0.772724	0.082824	0.282448
H275	H	0.243899	-0.443001	-0.193709
H276	H	0.743899	0.056999	0.306291
H277	H	0.298236	-0.446619	-0.241560
H278	H	0.798236	0.053381	0.258440
H279	H	0.298267	-0.391333	-0.190224
H280	H	0.798267	0.108667	0.309776
H281	H	0.832653	-0.404540	-0.658856
H282	H	1.332653	0.095460	-0.158856
C283	C	0.821150	-0.416878	-0.530793
C284	C	1.321150	0.083122	-0.030793
H285	H	0.826879	-0.410678	-0.487135
H286	H	1.326879	0.089322	0.012865
H287	H	0.779062	-0.406936	-0.541573
H288	H	1.279062	0.093064	-0.041573
H289	H	0.830305	-0.462369	-0.541475
H290	H	1.330305	0.037631	-0.041475
C291	C	0.538951	-0.417162	-0.217612
C292	C	1.038951	0.082838	0.282388
H293	H	0.567838	-0.442995	-0.193790
H294	H	1.067838	0.057005	0.306210
H295	H	0.513437	-0.391336	-0.190274
H296	H	1.013437	0.108664	0.309726
H297	H	0.513418	-0.446605	-0.241625
H298	H	1.013418	0.053395	0.258375
H299	H	0.465181	-0.335984	-0.199216
H300	H	0.965181	0.164016	0.300784
H301	H	0.346267	-0.316214	-0.404011
H302	H	0.846267	0.183786	0.095989
C303	C	0.135315	-0.417183	-0.217525
C304	C	0.635315	0.082817	0.282475
H305	H	0.164205	-0.443015	-0.193705
H306	H	0.664205	0.056985	0.306295
H307	H	0.109807	-0.391352	-0.190186
H308	H	0.609807	0.108648	0.309814
H309	H	0.109777	-0.446627	-0.241530
H310	H	0.609777	0.053373	0.258470
C311	C	0.676131	-0.234996	-0.385696
C312	C	1.176131	0.265004	0.114304
H313	H	0.647242	-0.209174	-0.409527
H314	H	1.147242	0.290826	0.090473
H315	H	0.701673	-0.205552	-0.361700
H316	H	1.201673	0.294448	0.138300
H317	H	0.701635	-0.260839	-0.413034
H318	H	1.201635	0.239161	0.086966
