data_functionalizedCrystal
_audit_creation_method	'MofGen! by Chris Wilmer'
_symmetry_space_group_name_H-M	'P1'
_symmetry_Int_Tables_number	1
_symmetry_cell_setting	triclinic
loop_
_symmetry_equiv_pos_as_xyz
  x,y,z
_cell_length_a	23.532407
_cell_length_b	22.610064
_cell_length_c	12.837942
_cell_angle_alpha	90.002742
_cell_angle_beta	88.838843
_cell_angle_gamma	90.012594
loop_
_atom_site_label
_atom_site_type_symbol
_atom_site_fract_x
_atom_site_fract_y
_atom_site_fract_z
O1	O	0.762485	0.049147	0.125765
O2	O	0.597665	0.049156	0.143962
O3	O	0.676420	0.049148	-0.016002
O4	O	0.683730	0.049155	0.285729
O5	O	0.676395	-0.049221	-0.016002
O6	O	0.597640	-0.049213	0.143962
O7	O	0.762459	-0.049222	0.125765
Zn8	Zn	0.680045	-0.064836	0.134864
Zn9	Zn	0.680079	0.064770	0.134864
O10	O	0.683704	-0.049214	0.285729
C11	C	0.576410	-0.000027	0.143499
C12	C	0.513113	-0.000024	0.142105
C13	C	0.241184	-0.000042	0.041697
C14	C	0.300659	-0.000042	0.042991
O15	O	0.332833	-0.000064	-0.036662
N16	N	0.328741	-0.000036	0.138089
C17	C	0.297347	-0.000036	0.231900
O18	O	0.326694	-0.000031	0.312907
C19	C	0.237873	-0.000040	0.230604
C20	C	0.209794	-0.000041	0.135500
C21	C	0.213105	-0.000043	-0.053400
C22	C	0.153634	-0.000042	-0.054694
C23	C	0.122243	-0.000040	0.039109
C24	C	0.150323	-0.000040	0.134206
C25	C	0.206479	-0.000045	0.324414
C26	C	0.147002	-0.000049	0.323110
C27	C	0.118922	-0.000050	0.228006
C28	C	0.059462	-0.000037	0.226715
N29	N	0.031379	-0.000043	0.131617
C30	C	0.062770	-0.000045	0.037814
C31	C	0.422245	-0.000028	0.234613
C32	C	0.481717	-0.000019	0.235909
C33	C	0.485025	-0.000026	0.047000
C34	C	0.425552	-0.000031	0.045705
C35	C	0.394162	-0.000034	0.139514
C36	C	-0.062122	-0.000042	0.035104
C37	C	-0.121598	-0.000039	0.033819
C38	C	-0.124901	-0.000035	0.222727
C39	C	-0.065430	-0.000035	0.224013
C40	C	-0.034042	-0.000041	0.130193
O41	O	0.027251	-0.000017	0.306327
O42	O	0.033415	-0.000057	-0.043180
N43	N	0.680026	-0.153288	0.134863
C44	C	0.718010	-0.561930	0.197370
C45	C	0.718017	-0.623850	0.197368
O46	O	0.750289	-0.655870	0.250507
N47	N	0.680089	-0.654826	0.134852
C48	C	0.642156	-0.623878	0.072326
O49	O	0.609896	-0.655910	0.019150
C50	C	0.642152	-0.561959	0.072324
C51	C	0.680078	-0.530987	0.134852
C52	C	0.755934	-0.530958	0.259893
C53	C	0.755926	-0.469043	0.259896
C54	C	0.717994	-0.438099	0.197378
C55	C	0.680071	-0.469071	0.134856
C56	C	0.604222	-0.531012	0.009793
C57	C	0.604221	-0.469089	0.009796
C58	C	0.642148	-0.438117	0.072324
C59	C	0.642131	-0.376212	0.072341
N60	N	0.680059	-0.345237	0.134857
C61	C	0.717991	-0.376180	0.197376
C62	C	0.642167	-0.753911	0.072334
C63	C	0.642168	-0.815829	0.072341
C64	C	0.718030	-0.815797	0.197382
C65	C	0.718026	-0.753879	0.197380
C66	C	0.680095	-0.722936	0.134850
C67	C	0.717971	-0.246153	0.197380
C68	C	0.717958	-0.184232	0.197381
C69	C	0.642098	-0.184269	0.072337
C70	C	0.642109	-0.246185	0.072339
C71	C	0.680050	-0.277125	0.134864
O72	O	0.609877	-0.344153	0.019226
O73	O	0.750250	-0.344140	0.250532
C74	C	0.783714	-0.000038	0.126228
C75	C	0.847011	-0.000037	0.127622
C76	C	0.673938	-0.000036	-0.054597
C77	C	0.666574	-0.000035	-0.169598
N78	N	0.680102	0.153222	0.134856
C79	C	0.755107	-0.000027	-0.411468
C80	C	0.748190	-0.000026	-0.519523
C81	C	0.645824	-0.000026	-0.493764
C82	C	0.652741	-0.000028	-0.385709
C83	C	0.707384	-0.000029	-0.344566
C84	C	0.714300	-0.000035	-0.236509
C85	C	0.611934	-0.000031	-0.210752
C86	C	0.605018	-0.000030	-0.318807
C87	C	0.686186	-0.000029	0.324324
C88	C	0.693550	-0.000026	0.439325
H89	H	-0.036573	-0.000047	-0.041293
H90	H	0.748916	-0.841003	0.248289
H91	H	0.504574	-0.000011	0.313353
H92	H	0.238657	-0.000046	-0.129790
O93	O	0.236751	-0.000059	0.426997
H94	H	0.224543	0.040028	0.472057
O95	O	0.758935	-0.720474	0.264813
H96	H	0.785311	-0.752399	0.308279
O97	O	-0.158767	-0.000043	0.323894
H98	H	-0.185942	0.040045	0.327824
H99	H	0.402693	-0.000031	-0.031738
H100	H	0.573333	-0.443899	-0.041125
O101	O	0.799665	-0.000028	-0.591679
H102	H	0.785677	-0.000023	-0.673729
O103	O	0.113145	-0.000050	0.424292
H104	H	0.142666	-0.000044	0.490634
O105	O	0.601203	-0.279596	0.004904
H106	H	0.574827	-0.247674	-0.038571
H107	H	0.130777	-0.000045	-0.132138
H108	H	0.758794	-0.000038	-0.203012
O109	O	0.601223	-0.150868	0.004865
H110	H	0.573325	-0.122642	0.054778
H111	H	0.611278	-0.841041	0.021437
H112	H	0.573075	-0.000037	-0.156268
O113	O	0.814040	-0.000028	-0.367079
H114	H	0.846064	-0.000024	-0.431755
H115	H	0.510594	-0.000028	-0.029380
O116	O	0.758866	-0.150825	0.264824
H117	H	0.785246	-0.182749	0.308286
H118	H	0.396691	-0.000026	0.311009
H119	H	-0.042567	-0.000034	0.301455
O120	O	0.601245	-0.720538	0.004905
H121	H	0.574871	-0.752484	-0.038552
O122	O	0.586890	-0.000029	-0.538148
H123	H	0.590101	-0.000032	-0.624525
O124	O	0.563340	-0.564409	-0.057699
H125	H	0.536981	-0.532480	-0.101192
O126	O	0.796851	-0.564323	0.327335
H127	H	0.824759	-0.592523	0.277396
H128	H	0.560528	-0.000026	-0.352322
H129	H	-0.144457	-0.000038	-0.043630
H130	H	0.786812	-0.443831	0.310809
O131	O	0.758888	-0.279521	0.264822
H132	H	0.785250	-0.247574	0.308301
