data_functionalizedCrystal
_audit_creation_method	'MofGen! by Chris Wilmer'
_symmetry_space_group_name_H-M	'P1'
_symmetry_Int_Tables_number	1
_symmetry_cell_setting	triclinic
loop_
_symmetry_equiv_pos_as_xyz
  x,y,z
_cell_length_a	23.532355
_cell_length_b	23.532407
_cell_length_c	22.610064
_cell_angle_alpha	89.999397
_cell_angle_beta	89.997644
_cell_angle_gamma	82.838088
loop_
_atom_site_label
_atom_site_type_symbol
_atom_site_fract_x
_atom_site_fract_y
_atom_site_fract_z
O1	O	0.755283	0.068986	-0.049110
O2	O	0.589415	0.079020	-0.049130
O3	O	0.677351	-0.008929	-0.049108
O4	O	0.667347	0.156936	-0.049131
O5	O	0.677335	-0.008916	0.049261
O6	O	0.589400	0.079033	0.049239
O7	O	0.755267	0.068999	0.049259
Zn8	Zn	0.672331	0.074018	0.064868
Zn9	Zn	0.672351	0.074001	-0.064738
O10	O	0.667332	0.156949	0.049238
C11	C	0.568191	0.078776	0.000052
C12	C	0.504972	0.078022	0.000045
C13	C	0.677088	-0.030139	0.000078
C14	C	0.676322	-0.093356	0.000082
C15	C	0.112950	0.073291	0.053692
C16	C	0.053550	0.072573	0.053694
O17	O	0.022825	0.072189	0.099296
N18	N	0.023850	0.072211	0.000074
C19	C	0.053554	0.072560	-0.053553
O20	O	0.022837	0.072185	-0.099162
C21	C	0.112953	0.073273	-0.053555
C22	C	0.142649	0.073641	0.000069
C23	C	0.142646	0.073659	0.107312
C24	C	0.202041	0.074377	0.107309
C25	C	0.231740	0.074728	0.053687
C26	C	0.202044	0.074360	0.000067
C27	C	0.142655	0.073618	-0.107181
C28	C	0.202058	0.074331	-0.107178
C29	C	0.231754	0.074699	-0.053554
C30	C	0.291138	0.075429	-0.053558
N31	N	0.320838	0.075792	0.000062
C32	C	0.291139	0.075441	0.053685
C33	C	-0.071188	0.071061	-0.053545
C34	C	-0.130586	0.070351	-0.053544
C35	C	-0.130585	0.070364	0.053703
C36	C	-0.071186	0.071077	0.053702
C37	C	-0.041488	0.071423	0.000075
C38	C	0.415873	0.076951	0.053675
C39	C	0.475273	0.077671	0.053668
C40	C	0.475267	0.077656	-0.053579
C41	C	0.415872	0.076938	-0.053572
C42	C	0.386177	0.076583	0.000060
O43	O	0.321902	0.075812	-0.099137
O44	O	0.321864	0.075809	0.099286
C45	C	0.723557	-0.492468	0.000055
C46	C	0.722845	-0.551868	0.000051
O47	O	0.766632	-0.588620	0.000034
N48	N	0.670568	-0.574484	0.000045
C49	C	0.618998	-0.537697	0.000038
O50	O	0.574467	-0.562388	0.000032
C51	C	0.619710	-0.478298	0.000038
C52	C	0.671991	-0.455685	0.000050
C53	C	0.775834	-0.469854	0.000066
C54	C	0.776545	-0.410458	0.000072
C55	C	0.724979	-0.373676	0.000067
C56	C	0.672703	-0.396289	0.000055
C57	C	0.568141	-0.441512	0.000027
C58	C	0.568858	-0.382110	0.000026
C59	C	0.621139	-0.359497	0.000038
C60	C	0.621848	-0.300110	0.000056
N61	N	0.674126	-0.277494	0.000061
C62	C	0.725691	-0.314277	0.000067
C63	C	0.617507	-0.662439	0.000036
C64	C	0.616794	-0.721837	0.000040
C65	C	0.720642	-0.736004	0.000052
C66	C	0.721354	-0.676605	0.000052
C67	C	0.669784	-0.639823	0.000042
C68	C	0.727181	-0.189540	0.000079
C69	C	0.727888	-0.130138	0.000087
C70	C	0.624041	-0.115977	0.000072
C71	C	0.623334	-0.175373	0.000067
C72	C	0.674909	-0.212154	0.000069
O73	O	0.578084	-0.263323	0.000070
O74	O	0.770216	-0.289577	0.000065
C75	C	0.776491	0.069244	0.000076
C76	C	0.839710	0.069998	0.000079
C77	C	0.667594	0.178158	0.000050
C78	C	0.668360	0.241375	0.000042
N79	N	0.672321	0.074029	0.153320
N80	N	0.672366	0.073986	-0.153191
C81	C	0.711291	0.035063	0.561971
C82	C	0.711294	0.035059	0.623891
O83	O	0.744403	0.001937	0.655917
N84	N	0.672351	0.073990	0.654857
C85	C	0.633399	0.112923	0.623900
O86	O	0.600275	0.146036	0.655926
C87	C	0.633394	0.112924	0.561982
C88	C	0.672343	0.073995	0.531018
C89	C	0.750237	-0.003863	0.531007
C90	C	0.750234	-0.003858	0.469092
C91	C	0.711286	0.035073	0.438139
C92	C	0.672340	0.074000	0.469103
C93	C	0.594439	0.151854	0.531026
C94	C	0.594437	0.151851	0.469103
C95	C	0.633386	0.112922	0.438140
C96	C	0.633390	0.112936	0.376235
N97	N	0.672333	0.074006	0.345268
C98	C	0.711281	0.035074	0.376221
C99	C	0.633412	0.112917	0.753934
C100	C	0.633419	0.112919	0.815852
C101	C	0.711314	0.035055	0.815838
C102	C	0.711309	0.035056	0.753919
C103	C	0.672355	0.073987	0.722968
C104	C	0.711273	0.035088	0.246193
C105	C	0.711269	0.035098	0.184272
C106	C	0.633373	0.112960	0.184292
C107	C	0.633379	0.112953	0.246207
C108	C	0.672331	0.074012	0.277157
O109	O	0.600296	0.146040	0.344169
O110	O	0.744395	0.001962	0.344188
H111	H	0.499449	0.077973	0.097337
H112	H	0.562714	0.183553	0.443906
H113	H	0.499459	0.077943	-0.097237
C114	C	0.568039	-0.076063	0.000184
C115	C	0.536529	-0.086222	0.050791
C116	C	0.484940	-0.049458	0.050912
H117	H	0.546529	-0.082852	-0.034086
H118	H	0.575929	-0.037441	0.000217
H119	H	0.528637	-0.124835	0.050752
H120	H	0.558021	-0.079429	0.085069
H121	H	0.492831	-0.010836	0.050945
H122	H	0.463436	-0.056250	0.016640
H123	H	0.463557	-0.056342	0.085250
C124	C	0.783158	-0.229495	-0.000037
C125	C	0.785808	-0.263999	-0.050655
C126	C	0.837369	-0.300807	-0.050782
H127	H	0.785091	-0.253017	0.034225
H128	H	0.814407	-0.207533	-0.000061
H129	H	0.754568	-0.285959	-0.050626
H130	H	0.783886	-0.240493	-0.084925
H131	H	0.868617	-0.278845	-0.050806
H132	H	0.839296	-0.324324	-0.016518
H133	H	0.839176	-0.324218	-0.085128
C134	C	0.792324	-0.046234	0.435373
C135	C	0.783926	-0.037975	0.374520
C136	C	0.822619	-0.077074	0.343445
H137	H	0.786214	-0.084162	0.445554
H138	H	0.830383	-0.040422	0.445386
H139	H	0.745877	-0.043791	0.364512
H140	H	0.790041	-0.000054	0.364322
H141	H	0.860677	-0.071263	0.353458
H142	H	0.816505	-0.115000	0.353630
H143	H	0.816930	-0.071473	0.302153
H144	H	0.743027	0.003354	0.841050
C145	C	0.110318	0.073242	-0.165342
C146	C	0.051938	0.072554	-0.153878
C147	C	0.022132	0.072214	-0.207444
H148	H	0.124524	0.040146	-0.187408
H149	H	0.115488	0.106583	-0.187387
H150	H	0.046772	0.039217	-0.131842
H151	H	0.037716	0.105647	-0.131820
H152	H	0.027301	0.105555	-0.229489
H153	H	0.036342	0.039119	-0.229506
H154	H	-0.017483	0.071753	-0.199673
H155	H	0.770463	-0.111731	0.000099
C156	C	0.778175	-0.652167	0.000028
C157	C	0.823177	-0.697100	0.000019
C158	C	0.875530	-0.674614	-0.000014
H159	H	0.780691	-0.629297	0.034320
H160	H	0.780648	-0.629310	-0.034291
H161	H	0.820704	-0.719948	0.034334
H162	H	0.820679	-0.719974	-0.034272
H163	H	0.878004	-0.651757	-0.034333
H164	H	0.878041	-0.651744	0.034279
H165	H	0.906071	-0.705097	-0.000026
H166	H	0.781953	-0.035569	0.556203
H167	H	0.601668	0.144658	0.271418
H168	H	0.817827	-0.499797	0.000069
C169	C	0.552238	0.194182	0.564666
C170	C	0.582365	0.228904	0.600202
C171	C	0.543504	0.267908	0.631193
H172	H	0.528634	0.173882	0.588868
H173	H	0.529049	0.217396	0.537375
H174	H	0.605543	0.205693	0.627489
H175	H	0.605966	0.249216	0.576015
H176	H	0.520316	0.291122	0.603902
H177	H	0.519903	0.247604	0.655392
H178	H	0.563940	0.291475	0.655304
C179	C	-0.162824	0.070095	0.111941
C180	C	-0.155087	0.119282	0.144286
C181	C	-0.184785	0.119057	0.197930
H182	H	-0.148588	0.037036	0.134048
H183	H	-0.202461	0.069645	0.104281
H184	H	-0.115458	0.119726	0.151948
H185	H	-0.169326	0.152348	0.122197
H186	H	-0.224422	0.118607	0.190269
H187	H	-0.170546	0.085996	0.220031
H188	H	-0.179543	0.152432	0.219880
H189	H	0.226236	0.074613	-0.150848
C190	C	0.833291	-0.385878	0.000197
C191	C	0.836742	-0.352203	0.050813
C192	C	0.889013	-0.329561	0.050949
H193	H	0.835788	-0.362963	-0.034067
H194	H	0.863913	-0.416281	0.000229
H195	H	0.806128	-0.321804	0.050775
H196	H	0.834255	-0.375105	0.085085
H197	H	0.919635	-0.359965	0.050981
H198	H	0.891506	-0.306649	0.016683
H199	H	0.891364	-0.306715	0.085293
H200	H	0.601663	0.144660	0.159081
H201	H	0.743024	0.003356	0.728712
C202	C	0.383736	0.076600	0.111966
C203	C	0.422464	0.077091	0.158917
C204	C	0.392879	0.076780	0.212622
H205	H	0.365096	0.043114	0.114292
H206	H	0.356041	0.109550	0.114225
H207	H	0.450149	0.044144	0.156659
H208	H	0.441105	0.110575	0.156610
H209	H	0.365184	0.109731	0.214881
H210	H	0.374240	0.043294	0.214942
H211	H	0.419150	0.077119	0.244485
C212	C	0.383732	0.076521	-0.111854
C213	C	0.422459	0.076974	-0.158814
C214	C	0.392878	0.076580	-0.212512
H215	H	0.356023	0.109447	-0.114168
H216	H	0.365112	0.043011	-0.114114
H217	H	0.441070	0.110480	-0.156555
H218	H	0.450169	0.044050	-0.156519
H219	H	0.374258	0.043070	-0.214772
H220	H	0.365170	0.109506	-0.214820
H221	H	0.419151	0.076881	-0.244381
H222	H	0.526863	-0.352164	0.000017
H223	H	-0.154761	0.070060	-0.097211
C224	C	0.591108	0.155099	0.849540
C225	C	0.556427	0.124944	0.885100
C226	C	0.517444	0.163780	0.916145
H227	H	0.567858	0.178301	0.822301
H228	H	0.611442	0.178692	0.873729
H229	H	0.536094	0.101361	0.860913
H230	H	0.579660	0.101745	0.912350
H231	H	0.537779	0.187373	0.940334
H232	H	0.494198	0.186979	0.888902
H233	H	0.493912	0.143326	0.940280
H234	H	0.762629	-0.765963	0.000054
C235	C	0.559973	-0.746273	0.000004
C236	C	0.514970	-0.701340	-0.000014
C237	C	0.462617	-0.723826	-0.000059
H238	H	0.557446	-0.769143	0.034295
H239	H	0.557508	-0.769130	-0.034316
H240	H	0.517433	-0.678493	0.034302
H241	H	0.517478	-0.678466	-0.034303
H242	H	0.460152	-0.746684	-0.034379
H243	H	0.460096	-0.746696	0.034233
H244	H	0.432076	-0.693343	-0.000077
C245	C	0.561530	-0.622479	-0.000088
C246	C	0.558899	-0.587973	-0.050703
C247	C	0.507339	-0.551164	-0.050843
H248	H	0.559587	-0.598959	0.034176
H249	H	0.530281	-0.644440	-0.000123
H250	H	0.590139	-0.566013	-0.050663
H251	H	0.560832	-0.611477	-0.084975
H252	H	0.476090	-0.573125	-0.050877
H253	H	0.505400	-0.527648	-0.016576
H254	H	0.505544	-0.527751	-0.085187
H255	H	0.226215	0.074674	0.150976
H256	H	0.525569	-0.459912	0.000013
H257	H	0.580762	-0.193785	0.000074
C258	C	0.753583	-0.007236	0.150763
C259	C	0.787680	-0.041341	0.191128
C260	C	0.826659	-0.080350	0.160283
H261	H	0.777229	0.013060	0.126605
H262	H	0.733246	-0.030867	0.126621
H263	H	0.808016	-0.017713	0.215259
H264	H	0.764051	-0.061650	0.215286
H265	H	0.806322	-0.103981	0.136142
H266	H	0.850300	-0.060049	0.136127
H267	H	0.849794	-0.103498	0.187665
C268	C	0.591097	0.155259	0.720439
C269	C	0.557008	0.189359	0.760817
C270	C	0.518026	0.228375	0.729987
H271	H	0.567446	0.134969	0.696284
H272	H	0.611431	0.178893	0.696297
H273	H	0.536675	0.165728	0.784949
H274	H	0.580642	0.209662	0.784973
H275	H	0.538361	0.252009	0.705845
H276	H	0.494380	0.208080	0.705833
H277	H	0.494896	0.251520	0.757379
H278	H	0.118472	0.073372	0.150980
H279	H	0.742991	0.003378	0.271385
H280	H	-0.047012	0.071378	0.097367
H281	H	-0.047012	0.071348	-0.097217
