data_functionalizedCrystal
_audit_creation_method	'MofGen! by Chris Wilmer'
_symmetry_space_group_name_H-M	'P1'
_symmetry_Int_Tables_number	1
_symmetry_cell_setting	triclinic
loop_
_symmetry_equiv_pos_as_xyz
  x,y,z
_cell_length_a	14.971486
_cell_length_b	19.188930
_cell_length_c	14.048226
_cell_angle_alpha	89.988446
_cell_angle_beta	89.998499
_cell_angle_gamma	83.379455
loop_
_atom_site_label
_atom_site_type_symbol
_atom_site_fract_x
_atom_site_fract_y
_atom_site_fract_z
O1	O	1.186466	0.090988	-0.079062
O2	O	0.926009	0.101884	-0.079090
O3	O	1.063754	-0.005196	-0.079057
O4	O	1.048721	0.198067	-0.079095
O5	O	1.063737	-0.005202	0.079265
O6	O	0.925992	0.101878	0.079232
O7	O	1.186450	0.090982	0.079259
Zn8	Zn	1.056218	0.096429	0.104382
Zn9	Zn	1.056240	0.096437	-0.104213
O10	O	1.048705	0.198061	0.079226
C11	C	0.892678	0.101393	0.000068
C12	C	0.793389	0.099933	0.000058
C13	C	0.735831	0.162839	0.000048
C14	C	0.642539	0.161463	0.000062
C15	C	0.606806	0.097180	0.000080
C16	C	0.664371	0.034269	0.000094
C17	C	0.757662	0.035646	0.000086
C18	C	0.469924	0.031403	0.000108
C19	C	0.376627	0.030026	0.000113
C20	C	0.354801	0.157221	0.000083
C21	C	0.448092	0.158598	0.000076
C22	C	0.505650	0.095686	0.000088
C23	C	1.063259	-0.031211	0.000107
C24	C	1.061797	-0.108721	0.000115
C25	C	1.142622	-0.153384	0.000128
C26	C	1.141249	-0.226213	0.000112
C27	C	1.059047	-0.254374	0.000103
C28	C	0.978212	-0.209700	0.000085
C29	C	0.979587	-0.136874	0.000091
N30	N	0.996208	-0.362583	0.053976
N31	N	0.994907	-0.431766	0.053973
C32	C	1.054899	-0.473796	0.000084
N33	N	1.116254	-0.444031	-0.053790
N34	N	1.117558	-0.374842	-0.053782
C35	C	1.057547	-0.333341	0.000096
C36	C	1.134240	-0.597429	0.000078
C37	C	1.132864	-0.670258	0.000057
C38	C	0.969825	-0.653744	0.000039
C39	C	0.971203	-0.580916	0.000051
C40	C	1.053413	-0.552763	0.000075
C41	C	1.219780	0.091472	0.000100
C42	C	1.319070	0.092932	0.000103
C43	C	1.049200	0.224077	0.000061
C44	C	1.050661	0.301586	0.000046
N45	N	1.056210	0.096422	0.246743
N46	N	1.056256	0.096437	-0.246573
C47	C	1.117223	0.049027	0.296576
C48	C	1.117229	0.049027	0.396233
C49	C	1.056226	0.096426	0.446057
C50	C	0.995207	0.143823	0.396217
C51	C	0.995197	0.143819	0.296561
C52	C	0.995233	0.143828	0.603931
C53	C	0.995243	0.143833	0.703594
C54	C	1.117264	0.049035	0.703603
C55	C	1.117255	0.049032	0.603948
C56	C	1.056236	0.096430	0.554115
H57	H	0.347537	-0.022319	0.000130
C58	C	1.170295	-0.071771	0.734300
C59	C	1.184340	-0.003068	0.758369
H60	H	1.211711	-0.103933	0.768109
H61	H	1.110645	-0.079433	0.750652
H62	H	1.179017	-0.078543	0.667816
H63	H	1.175611	0.003705	0.824853
H64	H	1.244004	0.004596	0.742024
C65	C	0.307472	0.265213	-0.081329
C66	C	0.291538	0.226376	0.000074
H67	H	0.268409	0.307903	-0.081339
H68	H	0.368139	0.275229	-0.081332
H69	H	0.296658	0.238849	-0.136522
H70	H	0.302359	0.252738	0.055268
H71	H	0.230856	0.216362	0.000086
C72	C	0.587502	-0.040852	0.081502
C73	C	0.533192	-0.037751	0.000119
H74	H	0.626556	-0.083546	0.081506
H75	H	0.622132	-0.002376	0.081486
H76	H	0.550649	-0.038748	0.136709
H77	H	0.570045	-0.039850	-0.055088
H78	H	0.498559	-0.076237	0.000127
H79	H	0.905387	-0.544550	0.000046
C80	C	0.808810	-0.630101	0.000018
C81	C	0.879465	-0.684689	0.000025
H82	H	0.753025	-0.649209	0.000001
H83	H	0.812730	-0.602053	0.055229
H84	H	0.812752	-0.602027	-0.055191
H85	H	0.875527	-0.712760	0.055238
H86	H	0.875543	-0.712749	-0.055192
C87	C	0.745931	0.271683	-0.081363
C88	C	0.775101	0.233504	0.000027
H89	H	0.770169	0.315311	-0.081369
H90	H	0.765709	0.245782	-0.136559
H91	H	0.682132	0.279857	-0.081348
H92	H	0.838900	0.225325	0.000009
H93	H	0.755328	0.259411	0.055237
H94	H	0.635271	-0.018072	0.000122
H95	H	0.945567	0.182429	0.744155
H96	H	1.166902	0.010433	0.256016
H97	H	0.804525	-0.015579	0.000094
H98	H	1.198683	-0.706623	0.000063
C99	C	0.524961	0.233702	-0.081342
C100	C	0.579273	0.230613	0.000040
H101	H	0.485901	0.276393	-0.081351
H102	H	0.561807	0.231592	-0.136543
H103	H	0.490330	0.195219	-0.081313
H104	H	0.613909	0.269093	0.000008
H105	H	0.542423	0.232729	0.055256
C106	C	1.303639	-0.177029	0.000149
C107	C	1.232986	-0.122440	0.000144
H108	H	1.359425	-0.157922	0.000153
H109	H	1.299703	-0.205097	0.055354
H110	H	1.299711	-0.205082	-0.055067
H111	H	1.236910	-0.094389	0.055364
H112	H	1.236924	-0.094359	-0.055066
H113	H	0.477182	0.210943	0.000052
C114	C	1.237862	-0.044656	0.386233
C115	C	1.184310	-0.003061	0.451009
H116	H	1.279282	-0.076808	0.420051
H117	H	1.200736	-0.069829	0.347385
H118	H	1.269899	-0.015537	0.347343
H119	H	1.152268	-0.032179	0.489895
H120	H	1.221441	0.022114	0.489874
C121	C	1.234300	-0.317685	-0.081255
C122	C	1.230096	-0.275319	0.000132
H123	H	1.289154	-0.347996	-0.081242
H124	H	1.185150	-0.344871	-0.081261
H125	H	1.231464	-0.288916	-0.136459
H126	H	1.232926	-0.304088	0.055337
H127	H	1.279261	-0.248131	0.000147
H128	H	1.201180	-0.574506	0.000094
H129	H	1.166932	0.010440	0.563382
C130	C	0.903714	-0.314007	0.000083
C131	C	0.887854	-0.240652	0.000079
H132	H	0.847927	-0.333113	0.000082
H133	H	0.936982	-0.329321	-0.055120
H134	H	0.936977	-0.329335	0.055301
H135	H	0.854596	-0.225324	-0.055143
H136	H	0.854572	-0.225331	0.055287
C137	C	0.818294	-0.127867	0.000073
C138	C	0.890739	-0.087774	0.000086
H139	H	0.763443	-0.097552	0.000077
H140	H	0.821153	-0.156601	-0.055139
H141	H	0.821148	-0.156630	0.055282
H142	H	0.887888	-0.059014	-0.055127
H143	H	0.887878	-0.059028	0.055303
H144	H	0.945542	0.182423	0.563361
C145	C	0.873441	0.158818	0.508311
C146	C	0.928152	0.195923	0.450985
H147	H	0.832049	0.190985	0.542126
H148	H	0.841380	0.129719	0.469450
H149	H	0.909791	0.130593	0.552248
H150	H	0.891801	0.224144	0.407044
H151	H	0.960215	0.225034	0.489850
H152	H	0.945513	0.182413	0.255988
