data_functionalizedCrystal
_audit_creation_method	'MofGen! by Chris Wilmer'
_symmetry_space_group_name_H-M	'P1'
_symmetry_Int_Tables_number	1
_symmetry_cell_setting	triclinic
loop_
_symmetry_equiv_pos_as_xyz
  x,y,z
_cell_length_a	21.395362
_cell_length_b	16.120531
_cell_length_c	21.395355
_cell_angle_alpha	87.122773
_cell_angle_beta	89.956060
_cell_angle_gamma	87.050851
loop_
_atom_site_label
_atom_site_type_symbol
_atom_site_fract_x
_atom_site_fract_y
_atom_site_fract_z
Zn1	Zn	0.945215	0.331659	-0.367200
Zn2	Zn	0.939803	0.471058	-0.267724
Zn3	Zn	0.840428	0.331698	-0.262403
Zn4	Zn	0.835084	0.471075	-0.372430
O5	O	0.890133	0.401372	-0.317439
O6	O	1.032176	0.350127	-0.354043
O7	O	0.926592	0.452580	-0.179341
O8	O	0.858830	0.215024	-0.271888
O9	O	1.028200	0.452543	-0.280959
O10	O	0.935817	0.214995	-0.348883
O11	O	0.853582	0.350193	-0.175431
O12	O	0.752041	0.350210	-0.276960
O13	O	0.849721	0.452572	-0.459414
O14	O	0.748114	0.452609	-0.357796
O15	O	0.930634	0.350144	-0.455571
O16	O	0.921410	0.587729	-0.286030
O17	O	0.844473	0.587741	-0.362956
C18	C	0.727343	0.401416	-0.317368
C19	C	0.657700	0.401455	-0.317353
C20	C	0.622956	0.454845	-0.359388
C21	C	0.557522	0.454825	-0.359415
C22	C	0.526833	0.401423	-0.317397
C23	C	0.561586	0.348023	-0.275359
C24	C	0.627019	0.348039	-0.275338
C25	C	0.423365	0.394707	-0.260736
C26	C	0.357932	0.394696	-0.260757
C27	C	0.325015	0.401369	-0.317464
C28	C	0.357537	0.408069	-0.374152
C29	C	0.422971	0.408085	-0.374131
C30	C	0.455882	0.401399	-0.317416
C31	C	0.219319	0.454740	-0.359531
C32	C	0.153883	0.454713	-0.359559
C33	C	0.157948	0.347915	-0.275498
C34	C	0.223383	0.347937	-0.275476
C35	C	0.254064	0.401354	-0.317491
C36	C	0.881791	0.617986	-0.325652
C37	C	0.878280	0.710654	-0.329186
C38	C	0.871874	0.880320	-0.335651
C39	C	0.908415	0.921584	-0.299192
C40	C	0.904850	1.015992	-0.302789
C41	C	0.875438	0.785903	-0.332055
C42	C	1.053558	0.401329	-0.317511
C43	C	1.123200	0.401310	-0.317541
C44	C	0.898501	1.183913	-0.309197
C45	C	0.902010	1.091245	-0.305655
C46	C	0.890185	0.401355	-0.480862
C47	C	0.890208	0.401348	-0.550503
C48	C	0.932337	0.348011	-0.581216
C49	C	0.932338	0.347976	-0.646650
C50	C	0.890215	0.401291	-0.681369
C51	C	0.848077	0.454632	-0.650648
C52	C	0.848074	0.454660	-0.585215
C53	C	0.882377	0.476362	-0.787888
C54	C	0.882385	0.476335	-0.853320
C55	C	0.890222	0.401203	-0.883187
C56	C	0.898065	0.326096	-0.847613
C57	C	0.898061	0.326124	-0.782180
C58	C	0.890214	0.401266	-0.752321
C59	C	0.932355	0.347823	-0.984851
C60	C	0.932351	0.347786	-1.050286
C61	C	0.848093	0.454449	-1.054283
C62	C	0.848094	0.454479	-0.988849
C63	C	0.890228	0.401167	-0.954137
C64	C	0.890118	0.401329	-0.154650
C65	C	0.890226	0.401101	-0.085000
H66	H	0.529228	0.498301	-0.393646
H67	H	0.942375	0.886009	-0.265276
H68	H	0.876002	0.537492	-0.882280
H69	H	0.837915	0.915892	-0.369564
H70	H	0.966644	0.304538	-0.671662
N71	N	0.323912	0.414910	-0.432076
N72	N	0.265489	0.414904	-0.432090
H73	H	0.241737	0.419745	-0.472997
H74	H	0.251672	0.304465	-0.241244
N75	N	0.662514	0.293491	-0.232405
N76	N	0.658205	0.216565	-0.233746
H77	H	0.683275	0.178040	-0.203424
H78	H	0.647933	0.498340	-0.393601
N79	N	0.975380	0.293553	-0.545770
N80	N	1.012994	0.245934	-0.573206
H81	H	1.043394	0.207472	-0.548171
N82	N	0.906073	0.249404	-0.745852
N83	N	0.913073	0.182324	-0.772519
H84	H	0.918729	0.128138	-0.746862
H85	H	0.813778	0.498039	-0.678920
N86	N	0.805047	0.509159	-0.553839
N87	N	0.825042	0.562298	-0.519366
H88	H	0.794655	0.600790	-0.497205
N89	N	0.530252	0.293463	-0.232439
N90	N	0.540555	0.216542	-0.233773
H91	H	0.518427	0.178003	-0.203460
N92	N	0.906070	0.249351	-0.878121
N93	N	0.906066	0.249331	-0.936543
H94	H	0.911720	0.195133	-0.958093
N95	N	0.975392	0.293361	-0.949398
N96	N	1.013002	0.245733	-0.976832
H97	H	1.043398	0.207267	-0.951796
N98	N	0.975387	0.293289	-1.081651
N99	N	1.013000	0.245696	-1.050648
H100	H	1.043396	0.207206	-1.072799
N101	N	0.805063	0.508898	-1.089748
N102	N	0.805068	0.508862	-1.148170
H103	H	0.774675	0.547315	-1.173221
N104	N	0.456989	0.387870	-0.202809
N105	N	0.452078	0.325311	-0.166541
H106	H	0.475826	0.320478	-0.125633
H107	H	0.813791	0.497917	-0.963842
H108	H	0.875828	0.537528	-0.763576
H109	H	0.449448	0.413538	-0.420288
H110	H	0.125596	0.498188	-0.393792
N111	N	0.250665	0.509304	-0.402442
N112	N	0.240362	0.586226	-0.401111
H113	H	0.262499	0.624763	-0.431416
N114	N	0.126600	0.293361	-0.232588
N115	N	0.068178	0.293348	-0.232616
H116	H	0.046034	0.254814	-0.202312
H117	H	0.331457	0.389246	-0.214598
