data_functionalizedCrystal
_audit_creation_method	'MofGen! by Chris Wilmer'
_symmetry_space_group_name_H-M	'P1'
_symmetry_Int_Tables_number	1
_symmetry_cell_setting	triclinic
loop_
_symmetry_equiv_pos_as_xyz
  x,y,z
_cell_length_a	12.759401
_cell_length_b	12.594516
_cell_length_c	12.759393
_cell_angle_alpha	89.970876
_cell_angle_beta	89.981504
_cell_angle_gamma	90.016214
loop_
_atom_site_label
_atom_site_type_symbol
_atom_site_fract_x
_atom_site_fract_y
_atom_site_fract_z
Zn1	Zn	1.606246	-0.423675	-0.593999
Zn2	Zn	1.606136	-0.601694	-0.418327
Zn3	Zn	1.430547	-0.423730	-0.418339
Zn4	Zn	1.430532	-0.601612	-0.593968
O5	O	1.518365	-0.512678	-0.506158
O6	O	1.753252	-0.447300	-0.570704
O7	O	1.582804	-0.578144	-0.271307
O8	O	1.453907	-0.274777	-0.441658
O9	O	1.753171	-0.578090	-0.441638
O10	O	1.582991	-0.274736	-0.570715
O11	O	1.453800	-0.447395	-0.271316
O12	O	1.283524	-0.447316	-0.441628
O13	O	1.453880	-0.577951	-0.740993
O14	O	1.283513	-0.578005	-0.570663
O15	O	1.582976	-0.447221	-0.741016
O16	O	1.582789	-0.750629	-0.441608
O17	O	1.453774	-0.750569	-0.570651
C18	C	1.245398	-0.512658	-0.506144
C19	C	1.128621	-0.512676	-0.506163
C20	C	1.518296	-0.789219	-0.506148
C21	C	1.518363	-0.907524	-0.506179
C22	C	1.073781	-0.580834	-0.573240
C23	C	0.964057	-0.580848	-0.573251
C24	C	0.964023	-0.444541	-0.439099
C25	C	1.073745	-0.444523	-0.439094
C26	C	1.073799	-0.659533	-0.650688
C27	C	0.964075	-0.659547	-0.650700
C28	C	1.448185	-0.976783	-0.576316
C29	C	1.422585	-1.047654	-0.480449
C30	C	1.544058	-1.047453	-0.602062
C31	C	1.492713	-0.976836	-0.410261
C32	C	1.614230	-0.976629	-0.531938
C33	C	1.588667	-1.047468	-0.436006
C34	C	1.792398	-0.512698	-0.506173
C35	C	1.909175	-0.512707	-0.506179
C36	C	1.518439	-0.512570	-0.780192
C37	C	1.518470	-0.512525	-0.896968
C38	C	1.518463	-0.235057	-0.506192
C39	C	1.518505	-0.116752	-0.506206
C40	C	1.585700	-0.444447	-0.951844
C41	C	1.585725	-0.444409	-1.061568
C42	C	1.451288	-0.580534	-1.061531
C43	C	1.451258	-0.580567	-0.951809
C44	C	1.663319	-0.365859	-0.951866
C45	C	1.663344	-0.365821	-1.061590
C46	C	1.518352	-0.512708	-0.233191
C47	C	1.518525	-0.512454	-0.116415
H48	H	0.919330	-0.389052	-0.384496
H49	H	0.934278	-0.741961	-0.628771
H50	H	1.565734	-1.078472	-0.683138
H51	H	1.388731	-0.945746	-0.635542
H52	H	1.107811	-0.737797	-0.621407
C53	C	1.197087	-0.429525	-0.297795
C54	C	1.134027	-0.369593	-0.365369
H55	H	1.234305	-0.383260	-0.252284
H56	H	1.154263	-0.475843	-0.257529
H57	H	1.245471	-0.470102	-0.337746
H58	H	1.085637	-0.329021	-0.325418
H59	H	1.176855	-0.323256	-0.405639
H60	H	1.103608	-0.637550	-0.732094
H61	H	1.396510	-0.635998	-0.907134
C62	C	1.542898	-0.261233	-0.850700
C63	C	1.633927	-0.254591	-0.911678
H64	H	1.524758	-0.192543	-0.825885
H65	H	1.487220	-0.288595	-0.892053
H66	H	1.554991	-0.307054	-0.792795
H67	H	1.621832	-0.208776	-0.969587
H68	H	1.689618	-0.227214	-0.870322
H69	H	1.341578	-1.078874	-0.458684
H70	H	1.396564	-0.635930	-1.106196
C71	C	1.836173	-0.431890	-0.987638
C72	C	1.767634	-0.405734	-0.905909
H73	H	1.900573	-0.456502	-0.959263
H74	H	1.805757	-0.486073	-1.029517
H75	H	1.848682	-0.370827	-1.029552
H76	H	1.755119	-0.466799	-0.864000
H77	H	1.798055	-0.351547	-0.864013
H78	H	1.634232	-0.287500	-1.095635
H79	H	0.930078	-0.630122	-0.728050
C80	C	1.463460	-0.823970	-0.301772
C81	C	1.463315	-0.935144	-0.300781
H82	H	1.445302	-0.798233	-0.234187
H83	H	1.531292	-0.799067	-0.320164
H84	H	1.413869	-0.799215	-0.351628
H85	H	1.512911	-0.959900	-0.250931
H86	H	1.395473	-0.960057	-0.282376
H87	H	1.744714	-0.387898	-1.091369
H88	H	1.648075	-1.078309	-0.376636
H89	H	1.695219	-0.945412	-0.553750
