data_functionalizedCrystal
_audit_creation_method	'MofGen! by Chris Wilmer'
_symmetry_space_group_name_H-M	'P1'
_symmetry_Int_Tables_number	1
_symmetry_cell_setting	triclinic
loop_
_symmetry_equiv_pos_as_xyz
  x,y,z
_cell_length_a	10.489716
_cell_length_b	23.532357
_cell_length_c	22.010155
_cell_angle_alpha	89.998697
_cell_angle_beta	89.991829
_cell_angle_gamma	83.678714
loop_
_atom_site_label
_atom_site_type_symbol
_atom_site_fract_x
_atom_site_fract_y
_atom_site_fract_z
O1	O	1.691380	0.080272	-0.050529
O2	O	1.319926	0.087828	-0.050532
O3	O	1.516888	0.001190	-0.050517
O4	O	1.494419	0.166909	-0.050543
O5	O	1.516852	0.001203	0.050533
O6	O	1.319891	0.087841	0.050519
O7	O	1.691344	0.080284	0.050522
Cu8	Cu	1.505614	0.084064	0.059747
Cu9	Cu	1.505657	0.084048	-0.059757
O10	O	1.494383	0.166922	0.050508
C11	C	1.272395	0.087267	-0.000007
C12	C	1.130822	0.085568	-0.000007
C13	C	1.031360	0.138697	-0.000017
C14	C	0.954941	0.110629	0.049813
C15	C	0.954983	0.110604	-0.049814
C16	C	1.056267	0.057522	0.049864
C17	C	1.056315	0.057505	-0.049809
C18	C	0.979946	0.029397	0.000034
C19	C	1.516308	-0.020024	0.000010
C20	C	1.514618	-0.083254	0.000015
C21	C	1.504030	-0.475342	-0.055100
C22	C	1.502423	-0.534752	-0.055104
O23	O	1.501566	-0.565480	-0.101949
N24	N	1.501607	-0.564461	-0.000022
C25	C	1.502385	-0.534757	0.055067
O26	O	1.501542	-0.565482	0.101918
C27	C	1.503982	-0.475347	0.055070
C28	C	1.504811	-0.445642	-0.000016
C29	C	1.504857	-0.445636	-0.110181
C30	C	1.506466	-0.386230	-0.110177
C31	C	1.507247	-0.356530	-0.055093
C32	C	1.506419	-0.386236	-0.000012
C33	C	1.504750	-0.445643	0.110158
C34	C	1.506346	-0.386230	0.110156
C35	C	1.507175	-0.356524	0.055071
C36	C	1.508809	-0.297130	0.055076
N37	N	1.509625	-0.267421	-0.000005
C38	C	1.508844	-0.297121	-0.055090
C39	C	1.499029	-0.659520	0.055057
C40	C	1.497441	-0.718929	0.055055
C41	C	1.497477	-0.718920	-0.055116
C42	C	1.499074	-0.659511	-0.055113
C43	C	1.499845	-0.629811	-0.000025
C44	C	1.512223	-0.172364	-0.055078
C45	C	1.513837	-0.112954	-0.055069
C46	C	1.513794	-0.112968	0.055101
C47	C	1.512187	-0.172374	0.055093
C48	C	1.511397	-0.202070	-0.000002
O49	O	1.509662	-0.266364	0.101898
O50	O	1.509670	-0.266387	-0.101933
C51	C	1.738875	0.080846	-0.000004
C52	C	1.880449	0.082544	-0.000008
C53	C	1.494963	0.188136	-0.000021
C54	C	1.496653	0.251366	-0.000030
N55	N	1.505594	0.084074	0.143799
N56	N	1.505687	0.084034	-0.143809
C57	C	1.592876	0.045691	0.563585
C58	C	1.592882	0.045687	0.627193
O59	O	1.667041	0.013059	0.660089
N60	N	1.505656	0.084037	0.659007
C61	C	1.418410	0.122389	0.627210
O62	O	1.344217	0.155007	0.660110
C63	C	1.418399	0.122389	0.563603
C64	C	1.505639	0.084041	0.531793
C65	C	1.680108	0.007345	0.531774
C66	C	1.680104	0.007350	0.468171
C67	C	1.592867	0.045700	0.436379
C68	C	1.505634	0.084046	0.468189
C69	C	1.331147	0.160738	0.531807
C70	C	1.331143	0.160735	0.468196
C71	C	1.418383	0.122387	0.436386
C72	C	1.418393	0.122401	0.372794
N73	N	1.505619	0.084051	0.340980
C74	C	1.592856	0.045701	0.372772
C75	C	1.418438	0.122384	0.760787
C76	C	1.418454	0.122386	0.824393
C77	C	1.592925	0.045683	0.824371
C78	C	1.592914	0.045684	0.760765
C79	C	1.505664	0.084034	0.728973
C80	C	1.592840	0.045714	0.239201
C81	C	1.592831	0.045724	0.175592
C82	C	1.418356	0.122424	0.175619
C83	C	1.418369	0.122417	0.239222
C84	C	1.505616	0.084057	0.271012
O85	O	1.344268	0.155011	0.339856
O86	O	1.667025	0.013083	0.339864
H87	H	1.511574	-0.196536	-0.099941
O88	O	1.333641	0.159700	0.730002
C89	C	1.256645	0.193535	0.771727
H90	H	1.308942	0.194397	0.817060
H91	H	1.236588	0.238934	0.753357
H92	H	1.162146	0.174636	0.778503
H93	H	1.663883	0.014477	0.265077
O94	O	1.514316	-0.084068	0.108589
C95	C	1.404776	-0.043690	0.111859
H96	H	1.327102	-0.057405	0.080597
H97	H	1.367674	-0.040989	0.160574
H98	H	1.430972	-0.000025	0.097051
H99	H	0.910760	0.133037	-0.091935
H100	H	1.751139	-0.023878	0.442275
H101	H	1.260108	0.191965	0.557699
H102	H	1.507136	-0.362049	-0.155034
H103	H	1.347342	0.153649	0.265123
O104	O	1.677612	0.008347	0.855194
C105	C	1.657596	-0.048118	0.839667
H106	H	1.608440	-0.048260	0.793486
H107	H	1.753829	-0.075752	0.837488
H108	H	1.594338	-0.066000	0.875469
O109	O	1.246340	0.198046	0.437409
C110	C	1.169329	0.231879	0.479131
H111	H	1.221618	0.232744	0.524467
H112	H	1.149265	0.277277	0.460760
H113	H	1.074834	0.212975	0.485904
O114	O	1.109016	0.030687	-0.100041
C115	C	1.081463	-0.026618	-0.100458
H116	H	0.992538	-0.030726	-0.071709
H117	H	1.063228	-0.040232	-0.149113
H118	H	1.166342	-0.055232	-0.080892
H119	H	1.663952	0.014457	0.734868
H120	H	1.347332	0.153650	0.149723
O121	O	1.059021	0.193817	-0.000078
C122	C	1.129922	0.203917	-0.052664
H123	H	1.110870	0.171632	-0.089263
H124	H	1.099642	0.249045	-0.069976
H125	H	1.236582	0.199241	-0.041276
H126	H	1.504077	-0.469820	0.155015
H127	H	1.751147	-0.023887	0.557654
O128	O	1.677626	0.008414	0.144786
C129	C	1.754640	-0.025426	0.186492
H130	H	1.702358	-0.026296	0.231836
H131	H	1.774696	-0.070822	0.168113
H132	H	1.849138	-0.006525	0.193251
O133	O	1.333665	0.159563	0.855357
C134	C	1.255361	0.128724	0.892142
H135	H	1.306743	0.084381	0.901670
H136	H	1.234865	0.152408	0.936870
H137	H	1.161157	0.124447	0.867632
H138	H	1.100323	0.035112	0.092033
O139	O	0.902171	0.137482	0.100016
C140	C	0.927806	0.195052	0.099839
H141	H	0.947485	0.208721	0.051352
H142	H	0.841371	0.223184	0.118657
H143	H	1.015288	0.199804	0.129365
H144	H	0.957072	-0.016851	0.000070
H145	H	1.514515	-0.088770	-0.099928
H146	H	1.504216	-0.469811	-0.155040
O147	O	1.496540	-0.747704	-0.108667
C148	C	1.386449	-0.727192	-0.142171
H149	H	1.350778	-0.682053	-0.126511
H150	H	1.411364	-0.726513	-0.192564
H151	H	1.308185	-0.756421	-0.134532
H152	H	1.499747	-0.635328	-0.099969
H153	H	1.496785	-0.743112	0.099911
H154	H	1.499660	-0.635343	0.099919
H155	H	1.506954	-0.362051	0.155017
O156	O	1.511338	-0.201143	0.108656
C157	C	1.512413	-0.162188	0.157275
H158	H	1.473191	-0.117641	0.141126
H159	H	1.450000	-0.175983	0.195799
H160	H	1.614915	-0.161440	0.174214
