data_functionalizedCrystal
_audit_creation_method	'MofGen! by Chris Wilmer'
_symmetry_space_group_name_H-M	'P1'
_symmetry_Int_Tables_number	1
_symmetry_cell_setting	triclinic
loop_
_symmetry_equiv_pos_as_xyz
  x,y,z
_cell_length_a	14.971506
_cell_length_b	14.519731
_cell_length_c	12.996460
_cell_angle_alpha	89.998729
_cell_angle_beta	89.993480
_cell_angle_gamma	83.655621
loop_
_atom_site_label
_atom_site_type_symbol
_atom_site_fract_x
_atom_site_fract_y
_atom_site_fract_z
O1	O	1.187013	0.120263	-0.085576
O2	O	1.687013	0.620263	0.414424
O3	O	0.926624	0.134636	-0.085577
O4	O	1.426624	0.634636	0.414423
O5	O	1.063713	-0.006791	-0.085567
O6	O	1.563713	0.493209	0.414433
O7	O	1.049925	0.261690	-0.085586
O8	O	1.549925	0.761690	0.414414
O9	O	1.063695	-0.006783	0.085566
O10	O	1.563695	0.493217	0.585566
O11	O	0.926607	0.134644	0.085557
O12	O	1.426607	0.634644	0.585557
O13	O	1.186995	0.120271	0.085557
O14	O	1.686995	0.620271	0.585557
Cu15	Cu	1.056799	0.127458	0.101183
Cu16	Cu	1.556799	0.627458	0.601183
Cu17	Cu	1.056820	0.127449	-0.101203
Cu18	Cu	1.556820	0.627449	0.398797
O19	O	1.049907	0.261698	0.085548
O20	O	1.549907	0.761698	0.585548
C21	C	0.893291	0.133994	-0.000010
C22	C	1.393291	0.633994	0.499990
C23	C	0.793993	0.132057	-0.000010
C24	C	1.293993	0.632057	0.499990
C25	C	0.355759	0.207754	-0.000026
C26	C	0.855759	0.707754	0.499974
C27	C	0.449060	0.209566	-0.000031
C28	C	0.949060	0.709566	0.499969
C29	C	0.506227	0.126473	-0.000020
C30	C	1.006227	0.626473	0.499980
C31	C	0.470089	0.041561	-0.000016
C32	C	0.970089	0.541561	0.499984
C33	C	0.376789	0.039750	-0.000019
C34	C	0.876789	0.539750	0.499981
C35	C	0.664554	0.045342	-0.000007
C36	C	1.164554	0.545342	0.499993
C37	C	0.757861	0.047153	-0.000003
C38	C	1.257861	0.547153	0.499997
C39	C	0.736826	0.215158	-0.000020
C40	C	1.236826	0.715158	0.499980
C41	C	0.643526	0.213347	-0.000022
C42	C	1.143526	0.713347	0.499978
C43	C	0.607394	0.128435	-0.000016
C44	C	1.107394	0.628435	0.499984
C45	C	1.063058	-0.041146	-0.000000
C46	C	1.563058	0.458854	0.500000
C47	C	1.061122	-0.143526	0.000000
C48	C	1.561122	0.356474	0.500000
C49	C	1.059549	-0.226669	-0.000002
C50	C	1.559549	0.273331	0.499998
C51	C	1.057583	-0.330977	-0.000010
C52	C	1.557583	0.169023	0.499990
C53	C	1.056023	-0.414115	-0.000017
C54	C	1.556023	0.085885	0.499983
C55	C	1.054058	-0.518429	-0.000022
C56	C	1.554058	-0.018429	0.499978
C57	C	1.220329	0.120913	-0.000012
C58	C	1.720329	0.620913	0.499988
C59	C	1.319626	0.122849	-0.000019
C60	C	1.819626	0.622849	0.499981
C61	C	1.050562	0.296053	-0.000022
C62	C	1.550562	0.796053	0.499978
C63	C	1.052498	0.398432	-0.000029
C64	C	1.552498	0.898432	0.499971
N65	N	1.056791	0.127465	0.243530
N66	N	1.556791	0.627465	0.743530
N67	N	1.056836	0.127435	-0.243550
N68	N	1.556836	0.627435	0.256450
C69	C	1.056795	0.127467	0.336636
C70	C	1.556795	0.627467	0.836636
C71	C	1.056803	0.127461	0.453441
C72	C	1.556803	0.627461	0.953441
C73	C	1.056815	0.127450	0.546539
C74	C	1.556815	0.627450	1.046539
C75	C	1.056824	0.127445	0.663352
C76	C	1.556824	0.627445	1.163352
H77	H	0.478475	0.278704	-0.000046
H78	H	0.978475	0.778704	0.499954
H79	H	0.347372	-0.029388	-0.000014
H80	H	0.847372	0.470612	0.499986
Cl81	Cl	0.541956	-0.062900	-0.000005
Cl82	Cl	1.041956	0.437100	0.499995
H83	H	0.309219	0.275419	-0.000027
H84	H	0.809219	0.775419	0.499973
H85	H	0.596982	0.281009	-0.000024
H86	H	1.096982	0.781009	0.499976
H87	H	0.635140	-0.023802	-0.000007
H88	H	1.135140	0.476198	0.499993
H89	H	0.766248	0.284296	-0.000024
H90	H	1.266248	0.784296	0.499976
H91	H	0.804404	-0.020510	-0.000003
H92	H	1.304404	0.479490	0.499997
