data_functionalizedCrystal
_audit_creation_method	'MofGen! by Chris Wilmer'
_symmetry_space_group_name_H-M	'P1'
_symmetry_Int_Tables_number	1
_symmetry_cell_setting	triclinic
loop_
_symmetry_equiv_pos_as_xyz
  x,y,z
_cell_length_a	10.685980
_cell_length_b	14.908178
_cell_length_c	10.686551
_cell_angle_alpha	97.435690
_cell_angle_beta	98.408259
_cell_angle_gamma	97.409567
loop_
_atom_site_label
_atom_site_type_symbol
_atom_site_fract_x
_atom_site_fract_y
_atom_site_fract_z
Zn1	Zn	1.977920	-0.204185	0.848828
Zn2	Zn	2.477920	0.295815	1.348828
Zn3	Zn	1.947056	-0.369216	0.622116
Zn4	Zn	2.447056	0.130784	1.122116
Zn5	Zn	1.747128	-0.229539	0.618072
Zn6	Zn	2.247128	0.270461	1.118072
Zn7	Zn	1.751187	-0.369127	0.818034
Zn8	Zn	2.251187	0.130873	1.318034
O9	O	1.855823	-0.293017	0.726762
O10	O	2.355823	0.206983	1.226762
O11	O	2.152385	-0.215502	0.833333
O12	O	2.652385	0.284498	1.333333
O13	O	1.905919	-0.361335	0.443015
O14	O	2.405919	0.138665	0.943015
O15	O	1.788962	-0.098691	0.659878
O16	O	2.288962	0.401309	1.159878
O17	O	2.129709	-0.336750	0.666769
O18	O	2.629709	0.163250	1.166769
O19	O	1.958523	-0.080063	0.829413
O20	O	2.458523	0.419937	1.329413
O21	O	1.759034	-0.258716	0.440044
O22	O	2.259034	0.241284	0.940044
O23	O	1.569108	-0.258630	0.630018
O24	O	2.069108	0.241370	1.130018
O25	O	1.795879	-0.336599	1.000683
O26	O	2.295879	0.163401	1.500683
O27	O	1.572090	-0.361185	0.776929
O28	O	2.072090	0.138815	1.276929
O29	O	1.962459	-0.215417	1.023307
O30	O	2.462459	0.284583	1.523307
O31	O	1.909855	-0.496688	0.636909
O32	O	2.409855	0.003312	1.136909
O33	O	1.765951	-0.496623	0.780850
O34	O	2.265951	0.003377	1.280850
C35	C	1.524301	-0.312649	0.699694
C36	C	2.024301	0.187351	1.199694
C37	C	1.382474	-0.321069	0.688142
C38	C	1.882474	0.178931	1.188142
C39	C	1.835031	-0.529708	0.706007
C40	C	2.335031	-0.029708	1.206007
C41	C	1.826257	-0.630955	0.697181
C42	C	2.326257	-0.130955	1.197181
C43	C	1.986224	-0.801661	0.857296
C44	C	2.486224	-0.301661	1.357296
C45	C	1.977984	-0.896792	0.849007
C46	C	2.477984	-0.396792	1.349007
C47	C	1.801533	-0.916350	0.672321
C48	C	2.301533	-0.416350	1.172321
C49	C	1.809772	-0.821219	0.680610
C50	C	2.309772	-0.321219	1.180610
C51	C	1.902122	-0.763877	0.773099
C52	C	2.402122	-0.263877	1.273099
C53	C	1.910367	-0.668745	0.781381
C54	C	2.410367	-0.168745	1.281381
C55	C	1.733911	-0.688304	0.604702
C56	C	2.233911	-0.188304	1.104702
C57	C	1.725671	-0.783435	0.596413
C58	C	2.225671	-0.283435	1.096413
C59	C	2.188639	-0.273308	0.753937
C60	C	2.688639	0.226692	1.253937
C61	C	2.330466	-0.264909	0.765517
C62	C	2.830466	0.235091	1.265517
C63	C	1.883065	-0.273170	1.059589
C64	C	2.383065	0.226830	1.559589
C65	C	1.894673	-0.264712	1.201420
C66	C	2.394673	0.235288	1.701420
C67	C	1.876733	-0.055398	0.747629
C68	C	2.376733	0.444602	1.247629
C69	C	1.885643	0.045861	0.756521
C70	C	2.385643	0.545861	1.256521
C71	C	1.828766	-0.312716	0.395242
C72	C	2.328766	0.187284	0.895242
C73	C	1.817427	-0.320903	0.253454
C74	C	2.317427	0.179097	0.753454
H75	H	1.985566	-0.622058	0.856687
H76	H	2.485566	-0.122058	1.356687
H77	H	1.394441	-0.210383	0.840597
H78	H	1.894441	0.289617	1.340597
H79	H	2.061427	-0.754972	0.932596
H80	H	2.561427	-0.254972	1.432596
H81	H	1.318492	-0.375593	0.613050
H82	H	1.818492	0.124407	1.113050
H83	H	1.969699	-0.210135	1.265384
H84	H	2.469699	0.289865	1.765384
F85	F	2.067494	-0.937000	0.938623
F86	F	2.567494	-0.437000	1.438623
H87	H	1.726341	-0.963053	0.597026
H88	H	2.226341	-0.463053	1.097026
H89	H	1.650480	-0.830135	0.521114
H90	H	2.150480	-0.330135	1.021114
F91	F	1.644405	-0.648087	0.515080
F92	F	2.144405	-0.148087	1.015080
F93	F	1.719378	-0.392244	1.169861
F94	F	2.219378	0.107756	1.669861
