data_functionalizedCrystal
_audit_creation_method	'MofGen! by Chris Wilmer'
_symmetry_space_group_name_H-M	'P1'
_symmetry_Int_Tables_number	1
_symmetry_cell_setting	triclinic
loop_
_symmetry_equiv_pos_as_xyz
  x,y,z
_cell_length_a	10.686220
_cell_length_b	12.827892
_cell_length_c	10.685880
_cell_angle_alpha	94.339956
_cell_angle_beta	89.641569
_cell_angle_gamma	94.396976
loop_
_atom_site_label
_atom_site_type_symbol
_atom_site_fract_x
_atom_site_fract_y
_atom_site_fract_z
Zn1	Zn	1.972253	-0.326209	-0.562376
Zn2	Zn	1.956034	-0.488709	-0.352625
Zn3	Zn	1.746382	-0.328338	-0.368698
Zn4	Zn	1.762451	-0.515271	-0.578397
O5	O	1.859280	-0.414632	-0.465524
O6	O	2.145644	-0.335757	-0.521120
O7	O	1.914711	-0.457210	-0.179216
O8	O	1.776407	-0.181817	-0.394412
O9	O	2.133729	-0.455145	-0.367017
O10	O	1.942353	-0.180253	-0.536706
O11	O	1.760681	-0.339387	-0.191025
O12	O	1.572971	-0.365143	-0.409947
O13	O	1.803795	-0.500416	-0.751813
O14	O	1.584777	-0.502481	-0.564012
O15	O	1.957935	-0.361513	-0.740042
O16	O	1.930293	-0.638471	-0.382552
O17	O	1.788068	-0.657986	-0.548426
C18	C	1.533358	-0.436926	-0.490463
C19	C	1.393929	-0.446491	-0.501161
C20	C	1.859200	-0.686146	-0.465508
C21	C	1.859284	-0.802295	-0.465534
C22	C	1.929758	-0.844387	-0.383532
C23	C	1.929846	-0.964434	-0.383557
C24	C	2.186475	-0.392251	-0.440488
C25	C	2.325906	-0.382713	-0.429820
C26	C	1.884466	-0.433690	-0.792716
C27	C	1.895199	-0.441812	-0.932146
C28	C	1.859397	-0.142057	-0.465565
C29	C	1.859447	-0.025901	-0.465582
C30	C	1.834264	-0.395567	-0.139599
C31	C	1.823775	-0.387135	-0.000151
H32	H	1.345493	-0.508421	-0.570422
C33	C	2.011188	-0.773016	-0.288663
C34	C	1.949201	-0.696010	-0.194360
C35	C	2.030635	-0.624640	-0.099490
C36	C	2.174056	-0.630277	-0.098923
C37	C	2.236050	-0.707286	-0.193230
C38	C	2.154616	-0.778656	-0.288100
H39	H	1.843025	-0.691835	-0.194777
H40	H	1.984741	-0.567633	-0.029678
H41	H	2.234338	-0.577445	-0.028695
H42	H	2.342226	-0.711461	-0.192813
H43	H	2.200510	-0.835663	-0.357912
C44	C	1.777857	-0.873664	-0.560408
C45	C	1.675356	-0.952369	-0.513432
C46	C	1.593926	-1.023735	-0.608309
C47	C	1.614997	-1.016395	-0.750163
C48	C	1.717503	-0.937686	-0.797146
C49	C	1.798933	-0.866320	-0.702269
H50	H	1.659753	-0.957806	-0.408417
H51	H	1.518044	-1.082001	-0.573528
H52	H	1.554718	-1.069224	-0.820396
H53	H	1.733106	-0.932250	-0.902161
H54	H	1.874815	-0.808055	-0.737049
H55	H	1.374336	-0.320794	-0.360555
C56	C	1.730055	-0.315494	-0.934711
C57	C	1.719075	-0.307192	-0.790600
C58	C	1.625358	-0.235553	-0.725159
C59	C	1.542620	-0.172215	-0.803829
C60	C	1.553598	-0.180515	-0.947948
C61	C	1.647315	-0.252154	-1.013389
H62	H	1.780325	-0.354080	-0.732356
H63	H	1.617233	-0.229409	-0.618472
H64	H	1.473245	-0.119184	-0.755386
H65	H	1.492348	-0.133627	-1.006192
H66	H	1.655440	-0.258298	-1.120076
C67	C	2.011361	-1.013375	-0.288708
C68	C	2.011333	-1.133432	-0.288869
C69	C	2.092852	-1.182376	-0.194017
C70	C	2.174398	-1.111262	-0.099004
C71	C	2.174429	-0.991197	-0.098840
C72	C	2.092911	-0.942254	-0.193692
H73	H	1.950965	-1.186082	-0.359206
H74	H	2.092828	-1.271256	-0.194139
H75	H	2.234743	-1.147492	-0.028789
H76	H	2.234797	-0.938548	-0.028503
H77	H	2.092934	-0.853374	-0.193570
H78	H	1.799102	-0.989674	-0.535787
H79	H	1.964564	-0.494838	-0.980590
