data_functionalizedCrystal
_audit_creation_method	'MofGen! by Chris Wilmer'
_symmetry_space_group_name_H-M	'P1'
_symmetry_Int_Tables_number	1
_symmetry_cell_setting	triclinic
loop_
_symmetry_equiv_pos_as_xyz
  x,y,z
_cell_length_a	18.101398
_cell_length_b	29.839125
_cell_length_c	18.101395
_cell_angle_alpha	90.013262
_cell_angle_beta	89.973339
_cell_angle_gamma	89.997005
loop_
_atom_site_label
_atom_site_type_symbol
_atom_site_fract_x
_atom_site_fract_y
_atom_site_fract_z
Zn1	Zn	1.132072	-0.253911	0.295021
Zn2	Zn	1.465405	0.079422	0.628355
Zn3	Zn	1.798738	0.412755	0.961688
Zn4	Zn	1.131982	-0.178787	0.418839
Zn5	Zn	1.465315	0.154546	0.752173
Zn6	Zn	1.798649	0.487880	1.085506
Zn7	Zn	1.008245	-0.178806	0.295006
Zn8	Zn	1.341578	0.154528	0.628340
Zn9	Zn	1.674912	0.487861	0.961673
Zn10	Zn	1.008181	-0.253900	0.418816
Zn11	Zn	1.341515	0.079433	0.752149
Zn12	Zn	1.674848	0.412766	1.085483
O13	O	1.070120	-0.216351	0.356921
O14	O	1.403453	0.116982	0.690254
O15	O	1.736787	0.450315	1.023587
O16	O	1.235693	-0.243943	0.311462
O17	O	1.569026	0.089391	0.644795
O18	O	1.902359	0.422724	0.978129
O19	O	1.115557	-0.115923	0.402416
O20	O	1.448891	0.217411	0.735749
O21	O	1.782224	0.550744	1.069083
O22	O	1.024735	-0.188781	0.191376
O23	O	1.358068	0.144552	0.524709
O24	O	1.691402	0.477886	0.858042
O25	O	1.235627	-0.188749	0.402430
O26	O	1.568960	0.144584	0.735764
O27	O	1.902293	0.477917	1.069097
O28	O	1.115710	-0.243961	0.191386
O29	O	1.449043	0.089372	0.524720
O30	O	1.782377	0.422706	0.858053
O31	O	1.024648	-0.115936	0.311437
O32	O	1.357982	0.217397	0.644770
O33	O	1.691315	0.550730	0.978103
O34	O	0.904604	-0.188771	0.311414
O35	O	1.237937	0.144563	0.644747
O36	O	1.571270	0.477896	0.978081
O37	O	1.024626	-0.316769	0.402391
O38	O	1.357960	0.016564	0.735724
O39	O	1.691293	0.349898	1.069057
O40	O	0.904557	-0.243942	0.402376
O41	O	1.237890	0.089391	0.735710
O42	O	1.571224	0.422724	1.069043
O43	O	1.115648	-0.316777	0.311439
O44	O	1.448981	0.016556	0.644773
O45	O	1.782315	0.349890	0.978106
O46	O	1.115495	-0.188739	0.522469
O47	O	1.448829	0.144595	0.855802
O48	O	1.782162	0.477928	1.189136
O49	O	1.024540	-0.243924	0.522452
O50	O	1.357873	0.089409	0.855785
O51	O	1.691206	0.422743	1.189119
C52	C	0.877709	-0.216357	0.356892
C53	C	1.211043	0.116976	0.690225
C54	C	1.544376	0.450309	1.023558
C55	C	0.795395	-0.216371	0.356897
C56	C	1.128729	0.116963	0.690230
C57	C	1.462062	0.450296	1.023564
C58	C	0.496304	-0.216352	0.356941
C59	C	0.829638	0.116981	0.690274
C60	C	1.162971	0.450315	1.023607
C61	C	0.527625	-0.250893	0.414448
C62	C	0.860958	0.082440	0.747781
C63	C	1.194291	0.415773	1.081115
C64	C	0.613243	-0.251035	0.414268
C65	C	0.946577	0.082298	0.747602
C66	C	1.279910	0.415631	1.080935
C67	C	0.644687	-0.216361	0.356920
C68	C	0.978020	0.116972	0.690253
C69	C	1.311354	0.450305	1.023586
C70	C	0.613630	-0.229298	0.278922
C71	C	0.946963	0.104035	0.612256
C72	C	1.280297	0.437369	0.945589
C73	C	0.527985	-0.229544	0.279268
C74	C	0.861318	0.103790	0.612601
C75	C	1.194652	0.437123	0.945934
C76	C	0.527861	-0.168791	0.376743
C77	C	0.861194	0.164543	0.710076
C78	C	1.194528	0.497876	1.043409
C79	C	0.613511	-0.169045	0.378454
C80	C	0.946844	0.164288	0.711788
C81	C	1.280178	0.497622	1.045121
C82	C	0.728546	-0.216366	0.356903
C83	C	1.061880	0.116967	0.690236
C84	C	1.395213	0.450301	1.023570
C85	C	0.412445	-0.216349	0.356952
C86	C	0.745778	0.116985	0.690285
C87	C	1.079112	0.450318	1.023619
C88	C	1.070140	-0.333530	0.356914
C89	C	1.403473	-0.000196	0.690247
C90	C	1.736807	0.333137	1.023581
C91	C	1.070149	-0.383464	0.356911
C92	C	1.403482	-0.050131	0.690245
C93	C	1.736815	0.283203	1.023578
C94	C	1.117593	-0.693115	0.309429
C95	C	1.450927	-0.359781	0.642762
C96	C	1.784260	-0.026448	0.976096
C97	C	1.117630	-0.880788	0.309366
C98	C	1.450963	-0.547455	0.642699
C99	C	1.784297	-0.214121	0.976032
O100	O	1.157914	-0.905059	0.269065
O101	O	1.491248	-0.571725	0.602398
O102	O	1.824581	-0.238392	0.935731
N103	N	1.070247	-0.904249	0.356713
N104	N	1.403580	-0.570916	0.690046
N105	N	1.736913	-0.237583	1.023380
C106	C	1.022847	-0.880790	0.404076
C107	C	1.356181	-0.547456	0.737409
C108	C	1.689514	-0.214123	1.070743
O109	O	0.982540	-0.905051	0.444341
O110	O	1.315874	-0.571718	0.777674
O111	O	1.649207	-0.238385	1.111007
C112	C	1.022807	-0.693117	0.404135
C113	C	1.356141	-0.359784	0.737468
C114	C	1.689474	-0.026451	1.070801
C115	C	1.070199	-0.669658	0.356790
C116	C	1.403533	-0.336325	0.690123
C117	C	1.736866	-0.002992	1.023456
C118	C	1.164981	-0.669656	0.262087
C119	C	1.498314	-0.336322	0.595420
C120	C	1.831647	-0.002989	0.928754
C121	C	1.164974	-0.622740	0.262106
C122	C	1.498307	-0.289407	0.595440
C123	C	1.831641	0.043927	0.928773
C124	C	1.117580	-0.599284	0.309467
C125	C	1.450913	-0.265950	0.642800
C126	C	1.784246	0.067383	0.976134
C127	C	1.070192	-0.622743	0.356809
C128	C	1.403526	-0.289410	0.690142
C129	C	1.736859	0.043924	1.023475
C130	C	0.975405	-0.669659	0.451493
C131	C	1.308738	-0.336325	0.784827
C132	C	1.642072	-0.002992	1.118160
C133	C	0.975398	-0.622737	0.451503
C134	C	1.308731	-0.289404	0.784836
C135	C	1.642065	0.043929	1.118169
C136	C	1.022790	-0.599278	0.404158
C137	C	1.356123	-0.265945	0.737491
C138	C	1.689456	0.067388	1.070824
C139	C	1.022791	-0.552371	0.404189
C140	C	1.356125	-0.219038	0.737522
C141	C	1.689458	0.114296	1.070855
N142	N	1.070175	-0.528910	0.356842
N143	N	1.403508	-0.195576	0.690175
N144	N	1.736842	0.137757	1.023508
C145	C	1.117569	-0.552366	0.309481
C146	C	1.450902	-0.219033	0.642814
C147	C	1.784236	0.114301	0.976147
C148	C	1.022873	-0.979320	0.404043
C149	C	1.356206	-0.645987	0.737376
C150	C	1.689539	-0.312654	1.070709
C151	C	1.022884	-1.026238	0.404029
C152	C	1.356217	-0.692905	0.737362
C153	C	1.689550	-0.359571	1.070696
C154	C	1.117665	-1.026233	0.309318
C155	C	1.450999	-0.692900	0.642651
C156	C	1.784332	-0.359566	0.975984
C157	C	1.117658	-0.979314	0.309336
C158	C	1.450991	-0.645981	0.642669
C159	C	1.784325	-0.312648	0.976002
C160	C	1.070256	-0.955859	0.356695
C161	C	1.403589	-0.622525	0.690029
C162	C	1.736923	-0.289192	1.023362
C163	C	1.117552	-0.453840	0.309525
C164	C	1.450885	-0.120507	0.642858
C165	C	1.784218	0.212827	0.976192
C166	C	1.117543	-0.406920	0.309550
C167	C	1.450876	-0.073587	0.642884
C168	C	1.784209	0.259746	0.976217
C169	C	1.022758	-0.406930	0.404259
C170	C	1.356092	-0.073596	0.737592
C171	C	1.689425	0.259737	1.070925
C172	C	1.022770	-0.453845	0.404236
C173	C	1.356103	-0.120512	0.737570
C174	C	1.689436	0.212822	1.070903
C175	C	1.070169	-0.477299	0.356863
C176	C	1.403502	-0.143966	0.690197
C177	C	1.736835	0.189368	1.023530
O178	O	0.982523	-0.528071	0.444463
O179	O	1.315856	-0.194738	0.777796
O180	O	1.649189	0.138596	1.111130
O181	O	1.157858	-0.528096	0.269210
O182	O	1.491192	-0.194763	0.602544
O183	O	1.824525	0.138571	0.935877
C184	C	1.117600	-0.740030	0.309410
C185	C	1.450934	-0.406697	0.642743
C186	C	1.784267	-0.073364	0.976076
C187	C	1.070213	-0.763489	0.356751
C188	C	1.403546	-0.430156	0.690085
C189	C	1.736880	-0.096823	1.023418
C190	C	1.022819	-0.740033	0.404112
C191	C	1.356152	-0.406700	0.737446
C192	C	1.689485	-0.073366	1.070779
C193	C	1.070224	-0.810407	0.356738
C194	C	1.403557	-0.477074	0.690071
C195	C	1.736890	-0.143740	1.023405
C196	C	1.117618	-0.833864	0.309377
C197	C	1.450951	-0.500530	0.642710
C198	C	1.784284	-0.167197	0.976044
C199	C	1.165001	-0.810402	0.262030
C200	C	1.498335	-0.477069	0.595363
C201	C	1.831668	-0.143735	0.928696
C202	C	1.164994	-0.763487	0.262049
C203	C	1.498328	-0.430153	0.595382
C204	C	1.831661	-0.096820	0.928716
C205	C	0.975435	-0.763494	0.451460
C206	C	1.308769	-0.430161	0.784793
C207	C	1.642102	-0.096828	1.118126
C208	C	0.975447	-0.810410	0.451437
C209	C	1.308780	-0.477077	0.784770
C210	C	1.642113	-0.143743	1.118104
C211	C	1.022841	-0.833866	0.404076
C212	C	1.356174	-0.500533	0.737410
C213	C	1.689507	-0.167200	1.070743
C214	C	1.263282	-0.216345	0.356950
C215	C	1.596615	0.116988	0.690284
C216	C	1.929949	0.450321	1.023617
C217	C	1.345596	-0.216343	0.356963
C218	C	1.678929	0.116991	0.690296
C219	C	2.012263	0.450324	1.023630
C220	C	1.070021	-0.216338	0.549331
C221	C	1.403354	0.116995	0.882665
C222	C	1.736688	0.450329	1.215998
C223	C	1.070046	-0.216347	0.631645
C224	C	1.403380	0.116986	0.964979
C225	C	1.736713	0.450319	1.298312
C226	C	1.070143	-0.099629	0.356874
C227	C	1.403476	0.233705	0.690207
C228	C	1.736809	0.567038	1.023541
C229	C	1.070278	-0.049695	0.356668
C230	C	1.403611	0.283639	0.690001
C231	C	1.736944	0.616972	1.023335
C232	C	1.070240	-0.216374	0.163759
C233	C	1.403573	0.116959	0.497092
C234	C	1.736906	0.450292	0.830425
C235	C	1.070291	-0.216384	0.081445
C236	C	1.403624	0.116949	0.414778
C237	C	1.736957	0.450283	0.748111
C238	C	1.070209	-0.216372	0.930736
C239	C	1.403542	0.116962	1.264070
C240	C	1.736875	0.450295	1.597403
C241	C	1.013114	-0.251179	0.899431
C242	C	1.346448	0.082154	1.232765
C243	C	1.679781	0.415488	1.566098
C244	C	1.012843	-0.251070	0.813813
C245	C	1.346177	0.082263	1.147147
C246	C	1.679510	0.415597	1.480480
C247	C	1.070128	-0.216360	0.782354
C248	C	1.403461	0.116973	1.115687
C249	C	1.736795	0.450307	1.449020
C250	C	1.049008	-0.169015	0.813484
C251	C	1.382341	0.164319	1.146818
C252	C	1.715675	0.497652	1.480151
C253	C	1.048640	-0.169223	0.899130
C254	C	1.381973	0.164110	1.232463
C255	C	1.715307	0.497444	1.565796
C256	C	1.148548	-0.228493	0.899091
C257	C	1.481881	0.104841	1.232424
C258	C	1.815215	0.438174	1.565758
C259	C	1.148087	-0.229531	0.813440
C260	C	1.481421	0.103802	1.146774
C261	C	1.814754	0.437136	1.480107
C262	C	1.070084	-0.216350	0.698494
C263	C	1.403417	0.116983	1.031828
C264	C	1.736750	0.450316	1.365161
C265	C	1.070251	-0.216378	1.014596
C266	C	1.403585	0.116955	1.347929
C267	C	1.736918	0.450289	1.681262
H268	H	1.156137	-0.387822	0.270996
H269	H	1.489471	-0.054489	0.604329
H270	H	1.822804	0.278845	0.937662
F271	F	0.500677	-0.240417	0.490297
F272	F	0.834011	0.092916	0.823631
F273	F	1.167344	0.426249	1.156964
F274	F	0.925007	-0.835372	0.501837
F275	F	1.258340	-0.502038	0.835170
F276	F	1.591674	-0.168705	1.168504
F277	F	0.936944	-0.240578	0.787105
F278	F	1.270278	0.092755	1.120438
F279	F	1.603611	0.426088	1.453772
H280	H	0.955400	-0.243252	0.921010
H281	H	1.288734	0.090082	1.254343
H282	H	1.622067	0.423415	1.587677
H283	H	0.936841	-0.744401	0.490028
H284	H	1.270175	-0.411068	0.823362
H285	H	1.603508	-0.077734	1.156695
H286	H	0.506250	-0.157034	0.432644
H287	H	0.839583	0.176299	0.765978
H288	H	1.172916	0.509633	1.099311
F289	F	0.972453	-1.051200	0.454430
F290	F	1.305787	-0.717867	0.787764
F291	F	1.639120	-0.384533	1.121097
F292	F	1.167996	-0.478795	0.259102
F293	F	1.501329	-0.145462	0.592435
F294	F	1.834662	0.187872	0.925769
H295	H	0.633999	-0.204925	0.234914
H296	H	0.967332	0.128409	0.568248
H297	H	1.300666	0.461742	0.901581
H298	H	0.507268	-0.205539	0.234886
H299	H	0.840601	0.127794	0.568219
H300	H	1.173934	0.461128	0.901553
F301	F	0.973791	-0.155801	0.925318
F302	F	1.307124	0.177532	1.258652
F303	F	1.640457	0.510866	1.591985
F304	F	1.215435	-0.738526	0.211657
F305	F	1.548768	-0.405192	0.544990
F306	F	1.882102	-0.071859	0.878323
H307	H	0.635088	-0.263690	0.261821
H308	H	0.968421	0.069644	0.595154
H309	H	1.301755	0.402977	0.928488
F310	F	1.173719	-0.272849	0.927275
F311	F	1.507053	0.060484	1.260608
F312	F	1.840386	0.393818	1.593941
H313	H	0.992349	-0.158562	0.792091
H314	H	1.325683	0.174772	1.125424
H315	H	1.659016	0.508105	1.458758
F316	F	1.215411	-0.597779	0.211711
F317	F	1.548745	-0.264446	0.545044
F318	F	1.882078	0.068888	0.878378
F319	F	1.100631	-0.134167	0.926201
F320	F	1.433964	0.199166	1.259534
F321	F	1.767297	0.532499	1.592868
F322	F	1.204150	-0.195362	0.925561
F323	F	1.537484	0.137971	1.258895
F324	F	1.870817	0.471305	1.592228
H325	H	0.633817	-0.159288	0.435849
H326	H	0.967150	0.174045	0.769182
H327	H	1.300484	0.507379	1.102515
H328	H	1.026056	-0.286176	0.792764
H329	H	1.359389	0.047157	1.126098
H330	H	1.692722	0.380490	1.459431
F331	F	0.641484	-0.133599	0.327677
F332	F	0.974818	0.199734	0.661011
F333	F	1.308151	0.533068	0.994344
H334	H	1.089285	-0.142374	0.793106
H335	H	1.422618	0.190960	1.126440
H336	H	1.755952	0.524293	1.459773
F337	F	0.501387	-0.135151	0.321994
F338	F	0.834720	0.198182	0.655327
F339	F	1.168054	0.531516	0.988660
H340	H	0.984273	-0.960227	0.442614
H341	H	1.317606	-0.626894	0.775947
H342	H	1.650940	-0.293560	1.109280
F343	F	1.215435	-0.694613	0.211681
F344	F	1.548768	-0.361279	0.545014
F345	F	1.882102	-0.027946	0.878348
F346	F	1.168097	-0.954352	0.258944
F347	F	1.501431	-0.621018	0.592278
F348	F	1.834764	-0.287685	0.925611
F349	F	1.168106	-1.051205	0.258912
F350	F	1.501439	-0.717872	0.592246
F351	F	1.834773	-0.384538	0.925579
F352	F	0.924944	-0.597777	0.501910
F353	F	1.258277	-0.264444	0.835243
F354	F	1.591610	0.068890	1.168576
H355	H	0.936813	-0.688751	0.490047
H356	H	1.270147	-0.355418	0.823380
H357	H	1.603480	-0.022084	1.156713
F358	F	1.206631	-0.198812	0.785440
F359	F	1.539965	0.134522	1.118774
F360	F	1.873298	0.467855	1.452107
F361	F	1.030209	-0.297215	0.926310
F362	F	1.363542	0.036118	1.259643
F363	F	1.696876	0.369452	1.592976
F364	F	1.168907	-0.275074	0.786845
F365	F	1.502240	0.058259	1.120179
F366	F	1.835574	0.391592	1.453512
F367	F	0.972320	-0.381957	0.454660
F368	F	1.305653	-0.048624	0.787993
F369	F	1.638987	0.284709	1.121327
F370	F	0.640690	-0.240452	0.489875
F371	F	0.974023	0.092881	0.823208
F372	F	1.307356	0.426214	1.156541
H373	H	0.506108	-0.285929	0.401514
H374	H	0.839441	0.047404	0.734848
H375	H	1.172774	0.380737	1.068181
H376	H	0.508017	-0.264313	0.262470
H377	H	0.841350	0.069020	0.595803
H378	H	1.174684	0.402354	0.929137
F379	F	0.640036	-0.297096	0.397144
F380	F	0.973369	0.036237	0.730478
F381	F	1.306702	0.369570	1.063811
H382	H	0.984186	-0.472946	0.442795
H383	H	1.317520	-0.139613	0.776129
H384	H	1.650853	0.193720	1.109462
F385	F	1.215444	-0.835374	0.211627
F386	F	1.548777	-0.502041	0.544961
F387	F	1.882111	-0.168708	0.878294
