data_functionalizedCrystal
_audit_creation_method	'MofGen! by Chris Wilmer'
_symmetry_space_group_name_H-M	'P1'
_symmetry_Int_Tables_number	1
_symmetry_cell_setting	triclinic
loop_
_symmetry_equiv_pos_as_xyz
  x,y,z
_cell_length_a	12.827893
_cell_length_b	12.594516
_cell_length_c	12.827885
_cell_angle_alpha	89.971946
_cell_angle_beta	89.980538
_cell_angle_gamma	90.016213
loop_
_atom_site_label
_atom_site_type_symbol
_atom_site_fract_x
_atom_site_fract_y
_atom_site_fract_z
Zn1	Zn	1.597667	-0.423686	-0.590861
Zn2	Zn	1.931000	-0.090353	-0.257528
Zn3	Zn	2.264333	0.242981	0.075805
Zn4	Zn	1.597558	-0.601702	-0.416127
Zn5	Zn	1.930892	-0.268369	-0.082794
Zn6	Zn	2.264225	0.064965	0.250540
Zn7	Zn	1.422908	-0.423738	-0.416135
Zn8	Zn	1.756241	-0.090405	-0.082802
Zn9	Zn	2.089574	0.242928	0.250532
Zn10	Zn	1.422891	-0.601623	-0.590827
Zn11	Zn	1.756225	-0.268290	-0.257493
Zn12	Zn	2.089558	0.065043	0.075840
O13	O	1.510256	-0.512687	-0.503487
O14	O	1.843589	-0.179354	-0.170154
O15	O	2.176923	0.153979	0.163179
O16	O	1.743888	-0.447311	-0.567693
O17	O	2.077222	-0.113978	-0.234360
O18	O	2.410555	0.219355	0.098973
O19	O	1.574352	-0.578150	-0.269892
O20	O	1.907685	-0.244816	0.063442
O21	O	2.241019	0.088517	0.396775
O22	O	1.446142	-0.274786	-0.439330
O23	O	1.779475	0.058548	-0.105997
O24	O	2.112809	0.391881	0.227336
O25	O	1.743809	-0.578099	-0.439317
O26	O	2.077142	-0.244765	-0.105983
O27	O	2.410475	0.088568	0.227350
O28	O	1.574537	-0.274747	-0.567701
O29	O	1.907870	0.058586	-0.234368
O30	O	2.241203	0.391920	0.098965
O31	O	1.446037	-0.447400	-0.269898
O32	O	1.779370	-0.114067	0.063436
O33	O	2.112703	0.219266	0.396769
O34	O	1.276669	-0.447324	-0.439297
O35	O	1.610003	-0.113991	-0.105964
O36	O	1.943336	0.219342	0.227370
O37	O	1.446114	-0.577965	-0.737067
O38	O	1.779448	-0.244631	-0.403734
O39	O	2.112781	0.088702	-0.070401
O40	O	1.276658	-0.578016	-0.567642
O41	O	1.609991	-0.244682	-0.234309
O42	O	1.943324	0.088651	0.099024
O43	O	1.574521	-0.447235	-0.737093
O44	O	1.907854	-0.113902	-0.403759
O45	O	2.241188	0.219432	-0.070426
O46	O	1.574336	-0.750637	-0.439283
O47	O	1.907670	-0.417304	-0.105950
O48	O	2.241003	-0.083971	0.227383
O49	O	1.446009	-0.750580	-0.567635
O50	O	1.779343	-0.417246	-0.234301
O51	O	2.112676	-0.083913	0.099032
C52	C	1.238746	-0.512668	-0.503468
C53	C	1.572079	-0.179335	-0.170134
C54	C	1.905413	0.153999	0.163199
C55	C	1.122593	-0.512685	-0.503484
C56	C	1.455926	-0.179352	-0.170150
C57	C	1.789260	0.153982	0.163183
C58	C	1.070848	-0.448082	-0.567108
C59	C	1.404181	-0.114749	-0.233774
C60	C	1.737514	0.218585	0.099559
C61	C	0.950797	-0.448098	-0.567126
C62	C	1.284131	-0.114765	-0.233793
C63	C	1.617464	0.218568	0.099541
C64	C	1.510188	-0.789228	-0.503477
C65	C	1.843521	-0.455895	-0.170144
C66	C	2.176854	-0.122562	0.163189
C67	C	1.510254	-0.907534	-0.503508
C68	C	1.843587	-0.574201	-0.170174
C69	C	2.176921	-0.240867	0.163159
C70	C	1.440450	-0.976794	-0.573269
C71	C	1.773783	-0.643461	-0.239936
C72	C	2.107117	-0.310128	0.093398
C73	C	1.414988	-1.047663	-0.477914
C74	C	1.748321	-0.714329	-0.144580
C75	C	2.081654	-0.380996	0.188753
C76	C	1.535811	-1.047464	-0.598879
C77	C	1.869145	-0.714131	-0.265546
C78	C	2.202478	-0.380798	0.067787
C79	C	1.484741	-0.976844	-0.408102
C80	C	1.818074	-0.643511	-0.074769
C81	C	2.151408	-0.310178	0.258565
C82	C	1.605609	-0.976639	-0.529132
C83	C	1.938942	-0.643306	-0.195799
C84	C	2.272276	-0.309973	0.137535
C85	C	1.580183	-1.047476	-0.433711
C86	C	1.913516	-0.714143	-0.100378
C87	C	2.246850	-0.380809	0.232956
C88	C	1.782826	-0.512708	-0.503508
C89	C	2.116159	-0.179375	-0.170175
C90	C	2.449493	0.153959	0.163159
C91	C	1.898979	-0.512717	-0.503517
C92	C	2.232313	-0.179383	-0.170183
C93	C	2.565646	0.153950	0.163150
C94	C	1.510328	-0.512585	-0.776058
C95	C	1.843661	-0.179252	-0.442724
C96	C	2.176995	0.154081	-0.109391
C97	C	1.510359	-0.512542	-0.892211
C98	C	1.843692	-0.179208	-0.558878
C99	C	2.177025	0.154125	-0.225544
C100	C	1.510353	-0.235067	-0.503521
C101	C	1.843687	0.098267	-0.170187
C102	C	2.177020	0.431600	0.163146
C103	C	1.510395	-0.116761	-0.503535
C104	C	1.843728	0.216572	-0.170201
C105	C	2.177061	0.549906	0.163132
C106	C	1.446885	-0.447830	-0.943999
C107	C	1.780218	-0.114497	-0.610665
C108	C	2.113551	0.218836	-0.277332
C109	C	1.446915	-0.447784	-1.064049
C110	C	1.780248	-0.114450	-0.730716
C111	C	2.113582	0.218883	-0.397382
C112	C	1.510244	-0.512712	-0.231978
C113	C	1.843578	-0.179379	0.101356
C114	C	2.176911	0.153954	0.434689
C115	C	1.510416	-0.512456	-0.115825
C116	C	1.843749	-0.179123	0.217508
C117	C	2.177083	0.154211	0.550842
H118	H	1.115423	-0.392757	-0.621561
H119	H	1.448756	-0.059424	-0.288228
H120	H	1.782090	0.273910	0.045106
H121	H	1.381314	-0.945758	-0.632178
H122	H	1.714647	-0.612425	-0.298845
H123	H	2.047980	-0.279091	0.034489
H124	H	1.392516	-0.392467	-0.899459
H125	H	1.725849	-0.059134	-0.566126
H126	H	2.059182	0.274200	-0.232793
H127	H	1.639274	-1.078316	-0.374660
H128	H	1.972607	-0.744982	-0.041326
H129	H	2.305941	-0.411649	0.292007
H130	H	1.334413	-1.078883	-0.456263
H131	H	1.667746	-0.745550	-0.122929
H132	H	2.001080	-0.412216	0.210404
H133	H	1.078017	-0.568004	-0.449025
H134	H	1.411351	-0.234671	-0.115691
H135	H	1.744684	0.098663	0.217642
H136	H	0.906297	-0.392793	-0.621600
H137	H	1.239630	-0.059459	-0.288267
H138	H	1.572964	0.273874	0.045067
H139	H	1.463088	-0.945951	-0.327436
H140	H	1.796422	-0.612618	0.005897
H141	H	2.129755	-0.279285	0.339230
H142	H	1.392577	-0.392377	-1.108585
H143	H	1.725910	-0.059044	-0.775252
H144	H	2.059244	0.274289	-0.441919
H145	H	1.686165	-0.945422	-0.550829
H146	H	2.019499	-0.612089	-0.217495
H147	H	2.352832	-0.278756	0.115838
H148	H	1.557371	-1.078485	-0.679523
H149	H	1.890704	-0.745152	-0.346190
H150	H	2.224038	-0.411819	-0.012856
H151	H	1.564766	-0.567857	-1.071295
H152	H	1.898099	-0.234523	-0.737962
H153	H	2.231432	0.098810	-0.404629
H154	H	0.943473	-0.568034	-0.449049
H155	H	1.276806	-0.234701	-0.115716
H156	H	1.610139	0.098632	0.217618
H157	H	1.564722	-0.567910	-0.936750
H158	H	1.898056	-0.234577	-0.603417
H159	H	2.231389	0.098756	-0.270084
