data_functionalizedCrystal
_audit_creation_method	'MofGen! by Chris Wilmer'
_symmetry_space_group_name_H-M	'P1'
_symmetry_Int_Tables_number	1
_symmetry_cell_setting	triclinic
loop_
_symmetry_equiv_pos_as_xyz
  x,y,z
_cell_length_a	12.759401
_cell_length_b	12.759393
_cell_length_c	12.759400
_cell_angle_alpha	90.031877
_cell_angle_beta	90.012834
_cell_angle_gamma	90.018101
loop_
_atom_site_label
_atom_site_type_symbol
_atom_site_fract_x
_atom_site_fract_y
_atom_site_fract_z
Zn1	Zn	-1.606240	-0.594011	0.418253
Zn2	Zn	-1.606139	-0.418331	0.593973
Zn3	Zn	-1.430547	-0.418347	0.418303
Zn4	Zn	-1.430531	-0.593969	0.593885
O5	O	-1.518364	-0.506165	0.506103
O6	O	-1.753248	-0.570718	0.441579
O7	O	-1.582811	-0.271312	0.570727
O8	O	-1.453902	-0.441674	0.271275
O9	O	-1.753174	-0.441646	0.570679
O10	O	-1.582983	-0.570733	0.271239
O11	O	-1.453804	-0.271324	0.441663
O12	O	-1.283524	-0.441633	0.441578
O13	O	-1.453875	-0.740996	0.570529
O14	O	-1.283512	-0.570662	0.570577
O15	O	-1.582968	-0.741027	0.441493
O16	O	-1.582795	-0.441606	0.740982
O17	O	-1.453777	-0.570647	0.740917
C18	C	-1.245397	-0.506145	0.506074
C19	C	-1.128620	-0.506162	0.506087
C20	C	-1.073780	-0.573235	0.573363
C21	C	-0.964056	-0.573245	0.573372
C22	C	-0.964022	-0.439099	0.438828
C23	C	-1.073745	-0.439095	0.438814
C24	C	-1.073798	-0.650680	0.651045
C25	C	-0.964074	-0.650690	0.651054
C26	C	-1.518302	-0.506143	0.779071
C27	C	-1.518371	-0.506169	0.895847
C28	C	-1.518431	-0.780198	0.505996
C29	C	-1.518459	-0.896975	0.505950
C30	C	-0.792398	-0.506180	0.506124
C31	C	-0.909174	-0.506175	0.506111
C32	C	-1.451306	-1.061548	0.573084
C33	C	-1.451266	-0.951824	0.573115
C34	C	-1.585690	-0.951856	0.438743
C35	C	-1.585724	-1.061578	0.438708
C36	C	-1.373701	-1.061528	0.650666
C37	C	-1.373661	-0.951804	0.650697
C38	C	-1.518358	-0.233197	0.506135
C39	C	-1.518534	-0.116421	0.505884
C40	C	-1.518456	-0.506210	0.232070
C41	C	-1.518494	-0.506229	0.115293
C42	C	-1.585626	-0.439051	0.950708
C43	C	-1.585690	-0.439084	1.060432
C44	C	-1.451237	-0.573354	1.060425
C45	C	-1.451179	-0.573326	0.950703
C46	C	-1.663249	-0.361529	0.950713
C47	C	-1.663313	-0.361561	1.060437
H48	H	-1.640459	-1.106252	0.383979
C49	C	-1.334192	-1.169243	0.799767
C50	C	-1.413043	-1.107473	0.754981
H51	H	-1.358493	-1.197616	0.864159
H52	H	-1.273933	-1.127337	0.812287
H53	H	-1.316689	-1.224678	0.753234
H54	H	-1.430541	-1.052033	0.801512
H55	H	-1.473320	-1.149381	0.742466
H56	H	-1.640392	-0.907190	0.384049
C57	C	-1.223789	-0.760555	0.621762
C58	C	-1.114048	-0.760573	0.621760
H59	H	-1.248636	-0.828400	0.603691
H60	H	-1.248585	-0.711020	0.572063
H61	H	-1.248572	-0.742250	0.689541
H62	H	-1.089265	-0.778871	0.553978
H63	H	-1.089242	-0.810125	0.671460
H64	H	-1.292347	-1.091309	0.628858
C65	C	-1.329815	-0.948124	0.833671
C66	C	-1.403009	-0.911550	0.760555
H67	H	-1.347929	-0.923271	0.901489
H68	H	-1.262024	-0.923333	0.815470
H69	H	-1.329867	-1.022575	0.833651
H70	H	-1.402951	-0.837098	0.760569
H71	H	-1.470817	-0.936335	0.778761
C72	C	-1.037982	-0.585203	0.823838
C73	C	-1.119728	-0.611157	0.755333
H74	H	-1.066340	-0.560807	0.888222
H75	H	-0.996073	-0.531762	0.793371
H76	H	-0.996103	-0.645446	0.836394
H77	H	-1.161603	-0.550912	0.742771
H78	H	-1.161654	-0.664602	0.785806
H79	H	-1.396424	-0.627987	0.906036
C80	C	-1.391628	-0.633018	1.228619
C81	C	-1.377375	-0.647164	1.120726
H82	H	-1.346021	-0.678582	1.265842
H83	H	-1.462212	-0.648462	1.246526
H84	H	-1.376299	-0.562416	1.246661
H85	H	-1.392712	-0.717764	1.102682
H86	H	-1.306775	-0.631727	1.102812
C87	C	-1.839707	-0.408969	0.995693
C88	C	-1.773051	-0.391036	0.910399
H89	H	-1.907490	-0.427191	0.970802
H90	H	-1.844188	-0.347243	1.037093
H91	H	-1.812655	-0.464647	1.037021
H92	H	-1.800099	-0.335352	0.869075
H93	H	-1.768574	-0.452769	0.868982
H94	H	-1.634125	-0.284202	0.916765
H95	H	-1.296360	-0.917781	0.621559
H96	H	-1.740616	-0.390774	1.094384
C97	C	-1.534013	-0.224846	1.064293
C98	C	-1.633965	-0.251709	1.100766
H99	H	-1.515894	-0.157035	1.089198
H100	H	-1.533975	-0.224821	0.989852
H101	H	-1.484382	-0.274458	1.089110
H102	H	-1.683597	-0.202101	1.075942
H103	H	-1.634011	-0.251726	1.175222
C104	C	-1.062686	-0.306513	0.305813
C105	C	-1.134026	-0.365377	0.364853
H106	H	-1.099904	-0.260998	0.260154
H107	H	-1.019911	-0.352364	0.265696
H108	H	-1.019872	-0.266241	0.351552
H109	H	-1.176835	-0.405655	0.319113
H110	H	-1.176820	-0.319519	0.404973
H111	H	-0.919329	-0.384496	0.384055
H112	H	-0.930074	-0.728041	0.622008
H113	H	-0.934279	-0.628757	0.732403
