data_functionalizedCrystal
_audit_creation_method	'MofGen! by Chris Wilmer'
_symmetry_space_group_name_H-M	'P1'
_symmetry_Int_Tables_number	1
_symmetry_cell_setting	triclinic
loop_
_symmetry_equiv_pos_as_xyz
  x,y,z
_cell_length_a	29.839134
_cell_length_b	29.839131
_cell_length_c	29.839125
_cell_angle_alpha	90.017709
_cell_angle_beta	90.021980
_cell_angle_gamma	90.036281
loop_
_atom_site_label
_atom_site_type_symbol
_atom_site_fract_x
_atom_site_fract_y
_atom_site_fract_z
Zn1	Zn	0.686720	-0.178978	0.254125
Zn2	Zn	1.020053	0.154355	0.587458
Zn3	Zn	1.353386	0.487689	0.920792
Zn4	Zn	0.686652	-0.254090	0.178995
Zn5	Zn	1.019985	0.079243	0.512328
Zn6	Zn	1.353318	0.412577	0.845662
Zn7	Zn	0.611602	-0.178968	0.178995
Zn8	Zn	0.944936	0.154365	0.512328
Zn9	Zn	1.278269	0.487699	0.845661
Zn10	Zn	0.611550	-0.254075	0.254083
Zn11	Zn	0.944883	0.079258	0.587417
Zn12	Zn	1.278217	0.412592	0.920750
O13	O	0.649131	-0.216528	0.216549
O14	O	0.982464	0.116806	0.549883
O15	O	1.315798	0.450139	0.883216
O16	O	0.749578	-0.188952	0.244176
O17	O	1.082911	0.144381	0.577510
O18	O	1.416244	0.477715	0.910843
O19	O	0.676690	-0.244127	0.116128
O20	O	1.010023	0.089206	0.449461
O21	O	1.343356	0.422540	0.782794
O22	O	0.621617	-0.116102	0.188978
O23	O	0.954950	0.217231	0.522311
O24	O	1.288284	0.550564	0.855645
O25	O	0.749528	-0.244137	0.188979
O26	O	1.082861	0.089197	0.522312
O27	O	1.416195	0.422530	0.855645
O28	O	0.676805	-0.116109	0.244176
O29	O	1.010139	0.217224	0.577509
O30	O	1.343472	0.550557	0.910843
O31	O	0.621551	-0.188935	0.116127
O32	O	0.954885	0.144398	0.449461
O33	O	1.288218	0.477731	0.782794
O34	O	0.548728	-0.188921	0.188938
O35	O	0.882062	0.144413	0.522271
O36	O	1.215395	0.477746	0.855604
O37	O	0.621528	-0.244111	0.316956
O38	O	0.954861	0.089222	0.650289
O39	O	1.288195	0.422556	0.983623
O40	O	0.548690	-0.244101	0.244105
O41	O	0.882023	0.089232	0.577438
O42	O	1.215357	0.422565	0.910772
O43	O	0.676755	-0.188937	0.316987
O44	O	1.010088	0.144396	0.650320
O45	O	1.343421	0.477729	0.983653
O46	O	0.676639	-0.316955	0.188938
O47	O	1.009972	0.016378	0.522272
O48	O	1.343306	0.349712	0.855605
O49	O	0.621462	-0.316944	0.244105
O50	O	0.954796	0.016389	0.577439
O51	O	1.288129	0.349723	0.910772
C52	C	0.532408	-0.216509	0.216517
C53	C	0.865742	0.116825	0.549850
C54	C	1.199075	0.450158	0.883184
C55	C	0.482474	-0.216511	0.216514
C56	C	0.815807	0.116822	0.549847
C57	C	1.149141	0.450155	0.883181
C58	C	0.649050	-0.333250	0.216527
C59	C	0.982383	0.000083	0.549861
C60	C	1.315717	0.333416	0.883194
C61	C	0.649056	-0.383185	0.216533
C62	C	0.982390	-0.049851	0.549866
C63	C	1.315723	0.283482	0.883199
C64	C	0.172820	-0.245303	0.245240
C65	C	0.506153	0.088031	0.578573
C66	C	0.839487	0.421364	0.911907
C67	C	-0.014853	-0.245315	0.245260
C68	C	0.318480	0.088018	0.578593
C69	C	0.651814	0.421351	0.911927
O70	O	-0.039127	-0.269774	0.269665
O71	O	0.294207	0.063560	0.602998
O72	O	0.627540	0.396893	0.936331
N73	N	-0.038311	-0.216544	0.216583
N74	N	0.295022	0.116789	0.549917
N75	N	0.628356	0.450123	0.883250
C76	C	-0.014848	-0.187766	0.187902
C77	C	0.318485	0.145568	0.521235
C78	C	0.651819	0.478901	0.854568
O79	O	-0.039107	-0.163291	0.163514
O80	O	0.294226	0.170042	0.496848
O81	O	0.627560	0.503376	0.830181
C82	C	0.172824	-0.187751	0.187884
C83	C	0.506157	0.145582	0.521218
C84	C	0.839491	0.478916	0.854551
C85	C	0.196280	-0.216527	0.216560
C86	C	0.529613	0.116806	0.549893
C87	C	0.862946	0.450139	0.883226
C88	C	0.196276	-0.274076	0.273913
C89	C	0.529609	0.059257	0.607247
C90	C	0.862942	0.392590	0.940580
C91	C	0.243191	-0.274075	0.273906
C92	C	0.576525	0.059259	0.607240
C93	C	0.909858	0.392592	0.940573
C94	C	0.266651	-0.245299	0.245226
C95	C	0.599984	0.088034	0.578559
C96	C	0.933318	0.421367	0.911893
C97	C	0.243195	-0.216526	0.216553
C98	C	0.576529	0.116808	0.549886
C99	C	0.909862	0.450141	0.883219
C100	C	0.196286	-0.158971	0.159205
C101	C	0.529620	0.174363	0.492539
C102	C	0.862953	0.507696	0.825872
C103	C	0.243207	-0.158969	0.159204
C104	C	0.576541	0.174365	0.492538
C105	C	0.909874	0.507698	0.825871
C106	C	0.266663	-0.187745	0.187880
C107	C	0.599996	0.145588	0.521213
C108	C	0.933330	0.478922	0.854546
C109	C	0.313570	-0.187749	0.187865
C110	C	0.646904	0.145585	0.521199
C111	C	0.980237	0.478918	0.854532
N112	N	0.337029	-0.216520	0.216542
N113	N	0.670362	0.116814	0.549875
N114	N	1.003695	0.450147	0.883209
C115	C	0.313569	-0.245295	0.245222
C116	C	0.646902	0.088038	0.578556
C117	C	0.980235	0.421372	0.911889
C118	C	-0.113379	-0.187776	0.187912
C119	C	0.219955	0.145557	0.521246
C120	C	0.553288	0.478891	0.854579
C121	C	-0.160297	-0.187780	0.187916
C122	C	0.173037	0.145553	0.521249
C123	C	0.506370	0.478887	0.854583
C124	C	-0.160298	-0.245329	0.245275
C125	C	0.173035	0.088004	0.578608
C126	C	0.506368	0.421337	0.911942
C127	C	-0.113380	-0.245327	0.245269
C128	C	0.219954	0.088006	0.578602
C129	C	0.553287	0.421339	0.911935
C130	C	-0.089921	-0.216547	0.216589
C131	C	0.243413	0.116786	0.549922
C132	C	0.576746	0.450119	0.883256
C133	C	0.412095	-0.245290	0.245205
C134	C	0.745428	0.088044	0.578538
C135	C	1.078761	0.421377	0.911872
C136	C	0.459014	-0.245287	0.245194
C137	C	0.792348	0.088047	0.578528
C138	C	1.125681	0.421380	0.911861
C139	C	0.459012	-0.187736	0.187837
C140	C	0.792345	0.145597	0.521170
C141	C	1.125678	0.478931	0.854504
C142	C	0.412096	-0.187740	0.187846
C143	C	0.745430	0.145593	0.521179
C144	C	1.078763	0.478926	0.854513
C145	C	0.388639	-0.216519	0.216534
C146	C	0.721972	0.116815	0.549867
C147	C	1.055306	0.450148	0.883200
O148	O	0.337873	-0.163299	0.163477
O149	O	0.671206	0.170034	0.496810
O150	O	1.004540	0.503367	0.830144
O151	O	0.337836	-0.269759	0.269613
O152	O	0.671169	0.063574	0.602946
O153	O	1.004502	0.396908	0.936280
C154	C	0.125905	-0.245304	0.245247
C155	C	0.459238	0.088029	0.578580
C156	C	0.792571	0.421362	0.911914
C157	C	0.102449	-0.216531	0.216574
C158	C	0.435782	0.116803	0.549907
C159	C	0.769116	0.450136	0.883240
C160	C	0.125909	-0.187755	0.187893
C161	C	0.459242	0.145578	0.521227
C162	C	0.792575	0.478911	0.854560
C163	C	0.055531	-0.216535	0.216577
C164	C	0.388864	0.116798	0.549911
C165	C	0.722198	0.450132	0.883244
C166	C	0.032071	-0.245310	0.245258
C167	C	0.365405	0.088023	0.578591
C168	C	0.698738	0.421356	0.911924
C169	C	0.055529	-0.274082	0.273934
C170	C	0.388863	0.059252	0.607268
C171	C	0.722196	0.392585	0.940601
C172	C	0.102445	-0.274080	0.273927
C173	C	0.435778	0.059253	0.607261
C174	C	0.769112	0.392587	0.940594
C175	C	0.102451	-0.158984	0.159217
C176	C	0.435784	0.174349	0.492550
C177	C	0.769117	0.507682	0.825883
C178	C	0.055535	-0.158989	0.159226
C179	C	0.388868	0.174345	0.492559
C180	C	0.722202	0.507678	0.825892
C181	C	0.032075	-0.187764	0.187906
C182	C	0.365409	0.145569	0.521239
C183	C	0.698742	0.478903	0.854573
C184	C	0.677914	-0.692821	0.187866
C185	C	1.011247	-0.359488	0.521199
C186	C	1.344580	-0.026155	0.854533
C187	C	0.677969	-0.880494	0.187883
C188	C	1.011303	-0.547161	0.521217
C189	C	1.344636	-0.213828	0.854550
O190	O	0.702441	-0.904753	0.163493
O191	O	1.035774	-0.571420	0.496826
O192	O	1.369107	-0.238087	0.830159
N193	N	0.649224	-0.903970	0.216583
N194	N	0.982557	-0.570636	0.549917
N195	N	1.315891	-0.237303	0.883250
C196	C	0.620465	-0.880524	0.245283
C197	C	0.953799	-0.547191	0.578616
C198	C	1.287132	-0.213857	0.911950
O199	O	0.596020	-0.904798	0.269698
O200	O	0.929354	-0.571464	0.603031
O201	O	1.262687	-0.238131	0.936365
C202	C	0.620412	-0.692852	0.245268
C203	C	0.953746	-0.359519	0.578601
C204	C	1.287079	-0.026185	0.911934
C205	C	0.649156	-0.669379	0.216563
C206	C	0.982489	-0.336045	0.549896
C207	C	1.315823	-0.002712	0.883229
C208	C	0.706656	-0.669348	0.159164
C209	C	1.039989	-0.336015	0.492497
C210	C	1.373322	-0.002681	0.825830
C211	C	0.706640	-0.622433	0.159158
C212	C	1.039973	-0.289099	0.492491
C213	C	1.373306	0.044234	0.825824
C214	C	0.677882	-0.598990	0.187854
C215	C	1.011215	-0.265657	0.521188
C216	C	1.344549	0.067676	0.854521
C217	C	0.649140	-0.622463	0.216557
C218	C	0.982474	-0.289130	0.549890
C219	C	1.315807	0.044203	0.883223
C220	C	0.591656	-0.669407	0.273969
C221	C	0.924989	-0.336074	0.607303
C222	C	1.258323	-0.002740	0.940636
C223	C	0.591646	-0.622486	0.273964
C224	C	0.924979	-0.289153	0.607297
C225	C	1.258313	0.044181	0.940630
C226	C	0.620390	-0.599013	0.245259
C227	C	0.953723	-0.265680	0.578592
C228	C	1.287057	0.067654	0.911925
C229	C	0.620367	-0.552106	0.245248
C230	C	0.953700	-0.218772	0.578581
C231	C	1.287033	0.114561	0.911914
N232	N	0.649112	-0.528630	0.216548
N233	N	0.982445	-0.195297	0.549881
N234	N	1.315778	0.138037	0.883214
C235	C	0.677869	-0.552072	0.187851
C236	C	1.011203	-0.218739	0.521184
C237	C	1.344536	0.114594	0.854518
C238	C	0.620494	-0.979055	0.245289
C239	C	0.953828	-0.645721	0.578622
C240	C	1.287161	-0.312388	0.911955
C241	C	0.620507	-1.025973	0.245292
C242	C	0.953840	-0.692639	0.578625
C243	C	1.287174	-0.359306	0.911959
C244	C	0.678012	-1.025939	0.187893
C245	C	1.011345	-0.692606	0.521226
C246	C	1.344678	-0.359273	0.854559
C247	C	0.677996	-0.979021	0.187887
C248	C	1.011330	-0.645687	0.521221
C249	C	1.344663	-0.312354	0.854554
C250	C	0.649239	-0.955579	0.216589
C251	C	0.982573	-0.622246	0.549922
C252	C	1.315906	-0.288913	0.883255
C253	C	0.677834	-0.453547	0.187841
C254	C	1.011167	-0.120213	0.521174
C255	C	1.344500	0.213120	0.854507
C256	C	0.677814	-0.406627	0.187836
C257	C	1.011147	-0.073294	0.521169
C258	C	1.344481	0.260040	0.854503
C259	C	0.620311	-0.406664	0.245237
C260	C	0.953644	-0.073331	0.578570
C261	C	1.286978	0.260002	0.911903
C262	C	0.620329	-0.453580	0.245240
C263	C	0.953662	-0.120246	0.578573
C264	C	1.286996	0.213087	0.911907
C265	C	0.649094	-0.477020	0.216540
C266	C	0.982427	-0.143686	0.549874
C267	C	1.315761	0.189647	0.883207
O268	O	0.595912	-0.527818	0.269629
O269	O	0.929245	-0.194484	0.602962
O270	O	1.262578	0.138849	0.936296
O271	O	0.702318	-0.527791	0.163447
O272	O	1.035651	-0.194457	0.496780
O273	O	1.368984	0.138876	0.830114
C274	C	0.677930	-0.739737	0.187872
C275	C	1.011263	-0.406403	0.521205
C276	C	1.344596	-0.073070	0.854538
C277	C	0.649188	-0.763210	0.216574
C278	C	0.982521	-0.429876	0.549907
C279	C	1.315855	-0.096543	0.883241
C280	C	0.620430	-0.739767	0.245271
C281	C	0.953764	-0.406434	0.578604
C282	C	1.287097	-0.073101	0.911937
C283	C	0.649200	-0.810128	0.216578
C284	C	0.982534	-0.476794	0.549911
C285	C	1.315867	-0.143461	0.883244
C286	C	0.677958	-0.833570	0.187881
C287	C	1.011291	-0.500237	0.521214
C288	C	1.344625	-0.166903	0.854548
C289	C	0.706703	-0.810094	0.159181
C290	C	1.040037	-0.476761	0.492514
C291	C	1.373370	-0.143428	0.825848
C292	C	0.706687	-0.763179	0.159175
C293	C	1.040021	-0.429846	0.492508
C294	C	1.373354	-0.096512	0.825842
C295	C	0.591685	-0.763243	0.273971
C296	C	0.925018	-0.429910	0.607304
C297	C	1.258352	-0.096576	0.940637
C298	C	0.591703	-0.810158	0.273974
C299	C	0.925036	-0.476825	0.607307
C300	C	1.258370	-0.143492	0.940640
C301	C	0.620461	-0.833601	0.245277
C302	C	0.953794	-0.500267	0.578611
C303	C	1.287127	-0.166934	0.911944
C304	C	0.766309	-0.216547	0.216582
C305	C	1.099643	0.116786	0.549916
C306	C	1.432976	0.450120	0.883249
C307	C	0.816244	-0.216555	0.216596
C308	C	1.149577	0.116778	0.549930
C309	C	1.482910	0.450111	0.883263
C310	C	0.649143	-0.216524	0.333728
C311	C	0.982476	0.116810	0.667061
C312	C	1.315810	0.450143	1.000395
C313	C	0.649148	-0.216522	0.383662
C314	C	0.982482	0.116811	0.716996
C315	C	1.315815	0.450145	1.050329
C316	C	0.649225	-0.099349	0.216582
C317	C	0.982558	0.233984	0.549915
C318	C	1.315891	0.567317	0.883248
C319	C	0.649265	-0.049415	0.216595
C320	C	0.982598	0.283918	0.549929
C321	C	1.315931	0.617252	0.883262
C322	C	0.649145	-0.216499	0.099827
C323	C	0.982478	0.116834	0.433160
C324	C	1.315811	0.450167	0.766494
C325	C	0.649227	-0.216374	0.049893
C326	C	0.982560	0.116959	0.383226
C327	C	1.315893	0.450292	0.716560
C328	C	0.677935	-0.187718	0.693325
C329	C	1.011268	0.145615	1.026658
C330	C	1.344602	0.478949	1.359991
C331	C	0.677957	-0.187680	0.880998
C332	C	1.011291	0.145654	1.214331
C333	C	1.344624	0.478987	1.547665
O334	O	0.702399	-0.163232	0.905279
O335	O	1.035733	0.170101	1.238612
O336	O	1.369066	0.503435	1.571946
N337	N	0.649208	-0.216402	0.904448
N338	N	0.982541	0.116932	1.237781
N339	N	1.315875	0.450265	1.571114
C340	C	0.620449	-0.245133	0.880976
C341	C	0.953782	0.088200	1.214310
C342	C	1.287115	0.421533	1.547643
O343	O	0.595993	-0.269559	0.905228
O344	O	0.929326	0.063774	1.238561
O345	O	1.262659	0.397108	1.571895
C346	C	0.620424	-0.245169	0.693304
C347	C	0.953758	0.088164	1.026637
C348	C	1.287091	0.421498	1.359971
C349	C	0.649179	-0.216448	0.669857
C350	C	0.982512	0.116885	1.003190
C351	C	1.315846	0.450218	1.336523
C352	C	0.706687	-0.158999	0.669877
C353	C	1.040020	0.174334	1.003211
C354	C	1.373354	0.507667	1.336544
C355	C	0.706683	-0.159011	0.622962
C356	C	1.040016	0.174323	0.956295
C357	C	1.373349	0.507656	1.289629
C358	C	0.677927	-0.187741	0.599494
C359	C	1.011260	0.145592	0.932827
C360	C	1.344593	0.478926	1.266160
C361	C	0.649175	-0.216460	0.622941
C362	C	0.982508	0.116874	0.956274
C363	C	1.315842	0.450207	1.289608
C364	C	0.591663	-0.273898	0.669833
C365	C	0.924997	0.059435	1.003167
C366	C	1.258330	0.392769	1.336500
C367	C	0.591659	-0.273903	0.622912
C368	C	0.924992	0.059430	0.956246
C369	C	1.258326	0.392763	1.289579
C370	C	0.620414	-0.245183	0.599465
C371	C	0.953747	0.088151	0.932798
C372	C	1.287080	0.421484	1.266132
C373	C	0.620415	-0.245202	0.552558
C374	C	0.953748	0.088132	0.885891
C375	C	1.287081	0.421465	1.219224
N376	N	0.649164	-0.216480	0.529108
N377	N	0.982498	0.116854	0.862441
N378	N	1.315831	0.450187	1.195774
C379	C	0.677920	-0.187749	0.552576
C380	C	1.011254	0.145584	0.885909
C381	C	1.344587	0.478917	1.219243
C382	C	0.620464	-0.245113	0.979507
C383	C	0.953797	0.088220	1.312840
C384	C	1.287131	0.421554	1.646173
C385	C	0.620471	-0.245105	1.026425
C386	C	0.953804	0.088229	1.359758
C387	C	1.287137	0.421562	1.693091
C388	C	0.677979	-0.187650	1.026443
C389	C	1.011312	0.145683	1.359777
C390	C	1.344645	0.479016	1.693110
C391	C	0.677974	-0.187661	0.979524
C392	C	1.011308	0.145672	1.312858
C393	C	1.344641	0.479005	1.646191
C394	C	0.649214	-0.216391	0.956057
C395	C	0.982547	0.116942	1.289390
C396	C	1.315880	0.450276	1.622724
C397	C	0.677910	-0.187776	0.454050
C398	C	1.011243	0.145557	0.787383
C399	C	1.344576	0.478891	1.120717
C400	C	0.677904	-0.187792	0.407130
C401	C	1.011238	0.145542	0.740464
C402	C	1.344571	0.478875	1.073797
C403	C	0.620395	-0.245244	0.407116
C404	C	0.953728	0.088089	0.740449
C405	C	1.287061	0.421423	1.073783
C406	C	0.620401	-0.245230	0.454032
C407	C	0.953735	0.088103	0.787365
C408	C	1.287068	0.421436	1.120698
C409	C	0.649161	-0.216493	0.477497
C410	C	0.982494	0.116840	0.810831
C411	C	1.315827	0.450174	1.144164
O412	O	0.595982	-0.269633	0.528248
O413	O	0.929315	0.063700	0.861581
O414	O	1.262649	0.397034	1.194914
O415	O	0.702366	-0.163320	0.528316
O416	O	1.035699	0.170013	0.861650
O417	O	1.369032	0.503346	1.194983
C418	C	0.677939	-0.187706	0.740240
C419	C	1.011273	0.145627	1.073574
C420	C	1.344606	0.478960	1.406907
C421	C	0.649187	-0.216425	0.763688
C422	C	0.982521	0.116908	1.097021
C423	C	1.315854	0.450242	1.430354
C424	C	0.620431	-0.245155	0.740219
C425	C	0.953765	0.088178	1.073553
C426	C	1.287098	0.421511	1.406886
C427	C	0.649194	-0.216417	0.810605
C428	C	0.982527	0.116917	1.143939
C429	C	1.315861	0.450250	1.477272
C430	C	0.677950	-0.187686	0.834074
C431	C	1.011283	0.145647	1.167407
C432	C	1.344617	0.478980	1.500740
C433	C	0.706699	-0.158964	0.810624
C434	C	1.040033	0.174369	1.143957
C435	C	1.373366	0.507702	1.477291
C436	C	0.706695	-0.158976	0.763708
C437	C	1.040029	0.174357	1.097042
C438	C	1.373362	0.507691	1.430375
C439	C	0.591682	-0.273877	0.763669
C440	C	0.925015	0.059456	1.097002
C441	C	1.258349	0.392789	1.430336
C442	C	0.591689	-0.273864	0.810585
C443	C	0.925022	0.059470	1.143918
C444	C	1.258355	0.392803	1.477251
C445	C	0.620445	-0.245133	0.834053
C446	C	0.953778	0.088200	1.167386
C447	C	1.287111	0.421533	1.500719
H448	H	0.478110	-0.268721	0.268545
H449	H	0.811443	0.064612	0.601879
H450	H	1.144776	0.397945	0.935212
H451	H	0.568229	-0.603402	0.297337
H452	H	0.901562	-0.270069	0.630670
H453	H	1.234896	0.063264	0.964004
O454	O	0.589474	-0.953771	0.276243
O455	O	0.922807	-0.620438	0.609577
O456	O	1.256141	-0.287105	0.942910
H457	H	0.566629	-0.932422	0.256107
H458	H	0.899963	-0.599089	0.589440
H459	H	1.233296	-0.265756	0.922774
O460	O	0.737708	-0.127995	0.738424
O461	O	1.071042	0.205338	1.071758
O462	O	1.404375	0.538671	1.405091
H463	H	0.760552	-0.148109	0.717056
H464	H	1.093885	0.185224	1.050390
H465	H	1.427219	0.518558	1.383723
H466	H	0.597097	-1.045080	0.268662
H467	H	0.930430	-0.711747	0.601996
H468	H	1.263763	-0.378414	0.935329
O469	O	0.560655	-0.694715	0.304935
O470	O	0.893988	-0.361381	0.638268
O471	O	1.227322	-0.028048	0.971601
H472	H	0.537811	-0.716118	0.284811
H473	H	0.871144	-0.382784	0.618145
H474	H	1.204477	-0.049451	0.951478
O475	O	0.030241	-0.305135	0.304869
O476	O	0.363574	0.028199	0.638202
O477	O	0.696907	0.361532	0.971535
H478	H	0.008888	-0.285077	0.327777
H479	H	0.342221	0.048256	0.661110
H480	H	0.675555	0.381590	0.994444
O481	O	0.030238	-0.127948	0.128297
O482	O	0.363571	0.205385	0.461630
O483	O	0.696904	0.538719	0.794963
H484	H	0.054438	-0.107937	0.108358
H485	H	0.387771	0.225397	0.441691
H486	H	0.721104	0.558730	0.775025
O487	O	0.589294	-0.381373	0.276185
O488	O	0.922628	-0.048039	0.609518
O489	O	1.255961	0.285294	0.942851
H490	H	0.569305	-0.405574	0.296144
H491	H	0.902638	-0.072241	0.629478
H492	H	1.235972	0.261092	0.962811
O493	O	0.709005	-0.953702	0.156935
O494	O	1.042338	-0.620369	0.490269
O495	O	1.375671	-0.287036	0.823602
H496	H	0.701332	-0.962728	0.121667
H497	H	1.034666	-0.629394	0.455001
H498	H	1.367999	-0.296061	0.788334
H499	H	0.478121	-0.164309	0.164485
H500	H	0.811455	0.169024	0.497818
H501	H	1.144788	0.502358	0.831152
H502	H	0.597044	-0.268511	0.960404
H503	H	0.930377	0.064822	1.293737
H504	H	1.263711	0.398156	1.627071
O505	O	0.560657	-0.737961	0.304914
O506	O	0.893990	-0.404628	0.638247
O507	O	1.227324	-0.071294	0.971580
H508	H	0.540669	-0.762171	0.324864
H509	H	0.874002	-0.428838	0.658197
H510	H	1.207335	-0.095505	0.991531
H511	H	0.701220	-0.387517	0.164459
H512	H	1.034554	-0.054183	0.497793
H513	H	1.367887	0.279150	0.831126
H514	H	0.701388	-0.164274	0.960437
H515	H	1.034721	0.169060	1.293770
H516	H	1.368055	0.502393	1.627103
H517	H	-0.179407	-0.268759	0.268628
H518	H	0.153926	0.064574	0.601961
H519	H	0.487260	0.397907	0.935294
H520	H	0.393001	-0.268723	0.268566
H521	H	0.726334	0.064611	0.601900
H522	H	1.059668	0.397944	0.935233
H523	H	0.177197	-0.135539	0.135854
H524	H	0.510530	0.197794	0.469187
H525	H	0.843863	0.531128	0.802520
O526	O	-0.185594	-0.156746	0.156986
O527	O	0.147739	0.176588	0.490319
O528	O	0.481073	0.509921	0.823652
H529	H	-0.161394	-0.136734	0.137047
H530	H	0.171939	0.196600	0.470380
H531	H	0.505273	0.529933	0.803714
H532	H	0.568248	-0.297285	0.688916
H533	H	0.901582	0.036048	1.022249
H534	H	1.234915	0.369381	1.355583
O535	O	0.268510	-0.127932	0.128265
O536	O	0.601844	0.205401	0.461598
O537	O	0.935177	0.538734	0.794932
H538	H	0.244315	-0.107930	0.108325
H539	H	0.577648	0.225404	0.441658
H540	H	0.910981	0.558737	0.774991
H541	H	0.568265	-0.297274	0.744566
H542	H	0.901599	0.036059	1.077899
H543	H	1.234932	0.369393	1.411233
O544	O	0.708995	-0.156659	1.051758
O545	O	1.042328	0.176674	1.385091
O546	O	1.375661	0.510007	1.718424
H547	H	0.701313	-0.121402	1.042751
H548	H	1.034646	0.211931	1.376085
H549	H	1.367980	0.545264	1.709418
O550	O	0.268488	-0.305105	0.304841
O551	O	0.601821	0.028228	0.638174
O552	O	0.935155	0.361561	0.971508
H553	H	0.244286	-0.325108	0.324787
H554	H	0.577620	0.008225	0.658120
H555	H	0.910953	0.341559	0.991454
O556	O	0.560671	-0.304844	0.835869
O557	O	0.894004	0.028489	1.169202
O558	O	1.227338	0.361822	1.502536
H559	H	0.565502	-0.300015	0.872438
H560	H	0.898836	0.033319	1.205771
H561	H	1.232169	0.366652	1.539105
O562	O	0.708854	-0.478826	0.156884
O563	O	1.042187	-0.145492	0.490217
O564	O	1.375521	0.187841	0.823550
H565	H	0.728831	-0.454615	0.136923
H566	H	1.062164	-0.121282	0.470256
H567	H	1.395498	0.212052	0.803590
H568	H	-0.094283	-0.164339	0.164556
H569	H	0.239051	0.168994	0.497889
H570	H	0.572384	0.502327	0.831222
O571	O	0.386793	-0.156705	0.156918
O572	O	0.720126	0.176628	0.490251
O573	O	1.053460	0.509961	0.823585
H574	H	0.410990	-0.136695	0.136975
H575	H	0.744324	0.196639	0.470309
H576	H	1.077657	0.529972	0.803642
H577	H	-0.094285	-0.268759	0.268619
H578	H	0.239048	0.064575	0.601953
H579	H	0.572382	0.397908	0.935286
O580	O	0.589376	-0.276225	0.381798
O581	O	0.922709	0.057108	0.715131
O582	O	1.256042	0.390441	1.048464
H583	H	0.597048	-0.311487	0.390793
H584	H	0.930382	0.021846	0.724127
H585	H	1.263715	0.355180	1.057460
O586	O	0.589327	-0.478902	0.276198
O587	O	0.922660	-0.145568	0.609531
O588	O	1.255994	0.187765	0.942865
H589	H	0.569329	-0.454716	0.296153
H590	H	0.902662	-0.121383	0.629486
H591	H	1.235996	0.211950	0.962819
O592	O	0.737645	-0.597118	0.128200
O593	O	1.070979	-0.263785	0.461533
O594	O	1.404312	0.069548	0.794867
H595	H	0.760480	-0.575712	0.148331
H596	H	1.093813	-0.242379	0.481664
H597	H	1.427147	0.090954	0.814998
H598	H	0.730093	-0.744071	0.135801
H599	H	1.063427	-0.410737	0.469134
H600	H	1.396760	-0.077404	0.802468
H601	H	0.730076	-0.688430	0.135795
H602	H	1.063409	-0.355097	0.469129
H603	H	1.396743	-0.021763	0.802462
O604	O	0.709038	-1.051227	0.156948
O605	O	1.042372	-0.717894	0.490282
O606	O	1.375705	-0.384560	0.823615
H607	H	0.704220	-1.087795	0.161781
H608	H	1.037553	-0.754461	0.495114
H609	H	1.370887	-0.421128	0.828447
H610	H	0.177180	-0.297509	0.297271
H611	H	0.510513	0.035824	0.630604
H612	H	0.843847	0.369158	0.963937
H613	H	0.597061	-0.268497	1.045512
H614	H	0.930394	0.064836	1.378845
H615	H	1.263727	0.398170	1.712178
H616	H	0.568233	-0.297294	0.603808
H617	H	0.901567	0.036039	0.937141
H618	H	1.234900	0.369372	1.270474
O619	O	0.737731	-0.835382	0.128237
O620	O	1.071064	-0.502049	0.461571
O621	O	1.404397	-0.168716	0.794904
H622	H	0.732914	-0.871950	0.133073
H623	H	1.066248	-0.538616	0.466406
H624	H	1.399581	-0.205283	0.799739
O625	O	0.589388	-0.276205	0.479326
O626	O	0.922722	0.057128	0.812660
O627	O	1.256055	0.390461	1.145993
H628	H	0.597059	-0.311470	0.470323
H629	H	0.930393	0.021864	0.803656
H630	H	1.263726	0.355197	1.136990
O631	O	0.127741	-0.305113	0.304860
O632	O	0.461075	0.028221	0.638193
O633	O	0.794408	0.361554	0.971527
H634	H	0.103540	-0.325116	0.324805
H635	H	0.436873	0.008217	0.658138
H636	H	0.770206	0.341551	0.991472
O637	O	0.560699	-0.835474	0.304937
O638	O	0.894033	-0.502141	0.638270
O639	O	1.227366	-0.168808	0.971603
H640	H	0.540705	-0.811286	0.324892
H641	H	0.874038	-0.477953	0.658225
H642	H	1.207372	-0.144620	0.991558
H643	H	0.701321	-0.164403	0.388042
H644	H	1.034655	0.168930	0.721375
H645	H	1.367988	0.502263	1.054708
H646	H	0.701327	-0.164374	0.473150
H647	H	1.034660	0.168960	0.806484
H648	H	1.367993	0.502293	1.139817
H649	H	0.730097	-0.135623	0.603875
H650	H	1.063430	0.197711	0.937209
H651	H	1.396764	0.531044	1.270542
O652	O	0.737708	-0.128012	0.695186
O653	O	1.071041	0.205321	1.028520
O654	O	1.404374	0.538655	1.361853
H655	H	0.757699	-0.108050	0.670992
H656	H	1.091032	0.225284	1.004326
H657	H	1.424366	0.558617	1.337659
O658	O	0.127751	-0.127956	0.128272
O659	O	0.461084	0.205377	0.461605
O660	O	0.794418	0.538710	0.794938
H661	H	0.103553	-0.107958	0.108330
H662	H	0.436886	0.225375	0.441663
H663	H	0.770220	0.558709	0.774996
O664	O	0.737707	-0.127966	0.835940
O665	O	1.071040	0.205367	1.169273
O666	O	1.404373	0.538701	1.502606
H667	H	0.732870	-0.132782	0.872503
H668	H	1.066203	0.200552	1.205836
H669	H	1.399537	0.533885	1.539169
