data_functionalizedCrystal
_audit_creation_method	'MofGen! by Chris Wilmer'
_symmetry_space_group_name_H-M	'P1'
_symmetry_Int_Tables_number	1
_symmetry_cell_setting	triclinic
loop_
_symmetry_equiv_pos_as_xyz
  x,y,z
_cell_length_a	31.640172
_cell_length_b	14.446369
_cell_length_c	14.446369
_cell_angle_alpha	60.000250
_cell_angle_beta	90.005514
_cell_angle_gamma	59.999358
loop_
_atom_site_label
_atom_site_type_symbol
_atom_site_fract_x
_atom_site_fract_y
_atom_site_fract_z
Zr1	Zr	0.407186	1.013123	-0.121401
O2	O	0.339697	1.206252	-0.269231
O3	O	0.427875	0.820000	-0.076077
O4	O	0.427875	1.013109	-0.269196
O5	O	0.339696	1.013152	0.076217
O6	O	0.497433	1.013090	-0.269176
O7	O	0.339696	1.013144	-0.076112
O8	O	0.497431	0.667654	0.076279
O9	O	0.339698	1.358588	-0.269238
O10	O	0.488608	0.899417	-0.056739
O11	O	0.436699	0.899438	0.056927
O12	O	0.436700	1.126798	-0.170446
O13	O	0.384790	1.126819	-0.056780
Zr14	Zr	0.518121	1.013105	0.121578
Zr15	Zr	0.518122	1.013092	-0.121369
Zr16	Zr	0.407186	1.013136	0.121546
Zr17	Zr	0.407187	1.256081	-0.121412
Zr18	Zr	0.518120	0.770147	0.121589
O19	O	0.497433	1.206228	0.076254
O20	O	0.497433	1.206209	-0.269185
O21	O	0.339697	1.206271	0.076208
O22	O	0.585610	0.819976	0.269408
O23	O	0.585610	0.819957	-0.076031
O24	O	0.427874	0.820019	0.269362
O25	O	0.585611	1.013076	-0.076040
O26	O	0.497432	1.013119	0.269373
O27	O	0.427875	1.013138	0.269353
O28	O	0.585611	1.013084	0.076289
O29	O	0.427877	1.358564	-0.269212
O30	O	0.497431	0.667664	0.269389
O31	O	0.585610	0.667640	0.269415
O32	O	0.585610	0.667629	0.076305
O33	O	0.339698	1.358599	-0.076128
O34	O	0.427877	1.358574	-0.076102
O35	O	0.488608	0.899430	0.170623
O36	O	0.540518	0.899409	0.056957
O37	O	0.488609	1.126790	-0.056750
O38	O	0.436699	1.126811	0.056916
C39	C	0.462653	0.709211	0.000102
C40	C	0.462652	0.606069	0.000107
C41	C	0.430070	0.459072	0.072125
C42	C	0.429892	0.566692	0.071834
C43	C	0.438769	0.655065	-0.123435
C44	C	0.438524	0.547832	-0.123061
C45	C	0.519141	0.372598	0.050569
C46	C	0.519058	0.478749	0.053089
C47	C	0.323891	1.013152	0.000048
C48	C	0.276796	1.013165	0.000034
C49	C	0.011885	0.894411	0.059465
C50	C	-0.165100	0.894388	0.059488
O51	O	-0.164942	0.793446	0.110007
N52	N	-0.214325	1.013078	0.000132
C53	C	-0.219304	1.131782	-0.059227
O54	O	-0.265234	1.232734	-0.109702
C55	C	-0.042319	1.131803	-0.059242
C56	C	0.006906	1.013106	0.000108
C57	C	0.061108	0.775723	0.118811
C58	C	0.105351	0.775730	0.118800
C59	C	0.100372	0.894425	0.059443
C60	C	0.051149	1.013113	0.000097
C61	C	-0.047298	1.250506	-0.118594
C62	C	-0.003047	1.250500	-0.118590
C63	C	0.046178	1.131803	-0.059240
C64	C	0.090413	1.131814	-0.059272
N65	N	0.139639	1.013124	0.000084
C66	C	0.144618	0.894430	0.059441
C67	C	-0.312221	1.131762	-0.059216
C68	C	-0.356467	1.131757	-0.059214
C69	C	-0.302260	0.894363	0.059502
C70	C	-0.258014	0.894370	0.059493
C71	C	-0.262996	1.013073	0.000139
C72	C	0.237530	0.894453	0.059412
C73	C	0.281775	0.894471	0.059392
C74	C	0.227564	1.131864	-0.059319
C75	C	0.183323	1.131847	-0.059304
C76	C	0.188310	1.013131	0.000070
O77	O	0.090294	1.232704	-0.109754
O78	O	0.190552	0.793493	0.109929
C79	C	-0.032358	0.894404	0.059476
C80	C	-0.081581	1.013092	0.000130
C81	C	-0.086560	1.131787	-0.059227
C82	C	-0.125827	1.013087	0.000132
C83	C	-0.120847	0.894392	0.059490
C84	C	-0.071622	0.775703	0.118845
C85	C	-0.027379	0.775710	0.118834
C86	C	-0.135786	1.250476	-0.118582
C87	C	-0.180027	1.250460	-0.118567
C88	C	-0.175048	1.131765	-0.059210
C89	C	0.601417	1.013076	0.000129
C90	C	0.648512	1.013063	0.000143
C91	C	0.462654	1.013097	-0.303801
C92	C	0.462654	1.013092	-0.406938
C93	C	0.462655	1.317017	0.000075
C94	C	0.462656	1.420159	0.000070
C95	C	0.495556	0.869698	-0.481904
C96	C	0.495413	0.869601	-0.374576
C97	C	0.406251	1.084335	-0.481518
C98	C	0.406431	1.083425	-0.588376
C99	C	0.485700	1.086356	-0.589927
C100	C	0.486841	1.083653	-0.481255
C101	C	0.462654	1.013131	0.303978
C102	C	0.462654	1.013136	0.407115
C103	C	0.601416	0.709172	0.000143
C104	C	0.648510	0.606017	0.000161
C105	C	0.462652	0.709227	0.303992
C106	C	0.462652	0.606091	0.407134
C107	C	0.601416	0.709189	0.304032
C108	C	0.648510	0.606040	0.407188
C109	C	0.323892	1.317039	-0.303855
C110	C	0.276797	1.420188	-0.407011
C111	C	0.323892	1.317056	0.000034
C112	C	0.276797	1.420211	0.000016
C113	C	0.462655	1.317001	-0.303815
C114	C	0.462656	1.420137	-0.406957
C115	C	0.643530	0.557579	-0.059188
C116	C	0.687776	0.460667	-0.059194
C117	C	0.737002	0.412189	0.000158
C118	C	0.741981	0.460637	0.059510
C119	C	0.697736	0.557554	0.059508
C120	C	0.697727	0.557589	0.396299
C121	C	0.741982	0.460683	0.493215
C122	C	0.737018	0.412222	0.601020
C123	C	0.687796	0.460683	0.611907
C124	C	0.643543	0.557594	0.514992
C125	C	0.227580	1.468651	-0.396122
C126	C	0.183326	1.565587	-0.493038
C127	C	0.188289	1.614053	-0.600843
C128	C	0.237512	1.565586	-0.611730
C129	C	0.281765	1.468658	-0.514815
C130	C	0.281777	1.468659	0.059355
C131	C	0.237531	1.565598	0.059334
C132	C	0.188305	1.614079	-0.000021
C133	C	0.183326	1.565627	-0.059368
C134	C	0.227572	1.468696	-0.059353
C135	C	0.429754	0.459786	0.482113
C136	C	0.429893	0.566706	0.374780
C137	C	0.519056	0.479223	0.481710
C138	C	0.518879	0.371848	0.588573
C139	C	0.439611	0.546842	0.590128
C140	C	0.438466	0.655312	0.481451
H141	H	0.388227	0.655502	0.036824
O142	O	0.334843	1.416427	-0.526598
H143	H	0.356300	1.435040	-0.485301
O144	O	0.334868	1.416397	0.123359
H145	H	0.330889	1.466402	0.164596
H146	H	0.536947	0.813705	-0.320288
H147	H	0.773026	0.333272	0.000151
O148	O	0.242907	1.617831	0.123362
H149	H	0.284571	1.567808	0.164655
H150	H	0.782057	0.421236	0.484330
O151	O	0.222196	1.416443	-0.123356
H152	H	0.241057	1.309537	-0.063438
O153	O	0.795075	0.408344	0.123529
H154	H	0.816524	0.301438	0.189122
H155	H	0.537329	0.281089	0.588309
O156	O	-0.296891	0.766337	0.123534
H157	H	-0.335930	0.786287	0.113566
H158	H	-0.396545	1.228413	-0.107558
O159	O	0.242857	1.617864	-0.728013
H160	H	0.264340	1.662025	-0.737889
H161	H	-0.316286	1.228430	-0.107557
H162	H	0.388359	0.656066	0.320496
H163	H	0.537636	0.440657	0.430110
H164	H	0.683762	0.421212	0.699695
O165	O	0.590458	0.609822	0.526742
H166	H	0.594447	0.559820	0.617990
H167	H	0.152282	1.693006	-0.000025
H168	H	0.701798	0.596980	0.107844
O169	O	0.383468	0.601734	-0.176600
H170	H	0.357268	0.703992	-0.202508
H171	H	0.537197	0.813393	-0.479551
H172	H	0.479717	0.813688	-0.480873
H173	H	-0.087372	1.347162	-0.166921
O174	O	0.703087	0.609862	0.280029
H175	H	0.744749	0.559893	0.288758
H176	H	0.461363	0.683841	-0.179443
H177	H	0.321856	0.797809	0.107725
H178	H	0.145429	0.679074	0.167124
O179	O	0.130232	1.617922	-0.123386
H180	H	0.100306	1.693452	-0.113411
O181	O	0.381634	1.018817	-0.413182
H182	H	0.371093	0.982266	-0.454274
H183	H	0.683712	0.421233	-0.107525
H184	H	0.544635	0.501464	0.508947
H185	H	0.388113	0.497036	0.479765
H186	H	0.536900	0.439148	0.144103
H187	H	0.380671	1.189840	-0.508761
H188	H	0.773056	0.333311	0.679926
H189	H	0.445591	0.370115	0.481087
H190	H	0.545382	0.500241	0.006068
O191	O	0.451017	0.517138	0.303471
H192	H	0.461185	0.416605	0.345617
O193	O	0.553123	0.332136	0.692681
H194	H	0.569739	0.389630	0.666547
O195	O	0.474232	0.795125	-0.303332
H196	H	0.464045	0.759049	-0.345498
O197	O	0.385423	0.599292	0.595555
H198	H	0.374313	0.535662	0.600423
O199	O	0.130240	1.617845	-0.481284
H200	H	0.108779	1.599269	-0.522617
H201	H	0.463463	0.522049	0.668351
O202	O	0.383424	0.775201	0.413329
H203	H	0.373330	0.799646	0.326897
O204	O	0.242910	0.766414	0.123435
H205	H	0.284574	0.683895	0.164683
H206	H	0.526607	1.040446	-0.594029
O207	O	0.451172	0.341353	0.192924
H208	H	0.491930	0.300394	0.231658
H209	H	0.223529	1.429196	-0.308350
O210	O	0.466913	0.697846	0.515288
H211	H	0.498879	0.684499	0.479511
H212	H	0.461841	1.192033	-0.668137
O213	O	0.372188	1.222817	-0.692489
H214	H	0.355570	1.290577	-0.666360
O215	O	0.451104	0.518090	0.192332
H216	H	0.461580	0.417330	0.251339
H217	H	-0.220107	1.347125	-0.166908
H218	H	0.388650	0.494844	0.037408
H219	H	0.397601	0.747381	-0.164136
O220	O	-0.008420	1.378532	-0.182617
H221	H	-0.050083	1.461059	-0.223889
H222	H	0.460726	0.525854	-0.179665
O223	O	0.545566	0.248465	0.169245
H224	H	0.518731	0.219283	0.193561
O225	O	0.140557	1.718611	-0.705371
H226	H	0.105501	1.744158	-0.679676
H227	H	-0.217935	0.797716	0.107831
O228	O	0.551458	0.338164	-0.018604
H229	H	0.527439	0.354803	-0.088602
O230	O	0.541886	1.014851	-0.413136
H231	H	0.551980	0.930754	-0.326706
H232	H	0.065171	0.679063	0.167153
H233	H	0.143241	1.228500	-0.107647
H234	H	-0.139848	1.347134	-0.166921
H235	H	0.223519	1.228502	-0.107651
H236	H	0.012699	0.679054	0.167165
O237	O	-0.066253	0.647676	0.182865
H238	H	-0.085110	0.642003	0.248459
O239	O	0.382086	1.016104	-0.587786
H240	H	0.341717	1.070004	-0.588804
H241	H	0.465368	1.188336	-0.506781
O242	O	0.590439	0.609869	-0.123220
H243	H	0.594418	0.559906	-0.164498
