data_functionalizedCrystal
_audit_creation_method	'MofGen! by Chris Wilmer'
_symmetry_space_group_name_H-M	'P1'
_symmetry_Int_Tables_number	1
_symmetry_cell_setting	triclinic
loop_
_symmetry_equiv_pos_as_xyz
  x,y,z
_cell_length_a	21.295418
_cell_length_b	21.295418
_cell_length_c	18.050582
_cell_angle_alpha	89.965893
_cell_angle_beta	89.974933
_cell_angle_gamma	90.043213
loop_
_atom_site_label
_atom_site_type_symbol
_atom_site_fract_x
_atom_site_fract_y
_atom_site_fract_z
Zn1	Zn	-0.250383	0.962310	-0.420280
Zn2	Zn	-0.355645	0.962235	-0.296085
Zn3	Zn	-0.250422	0.857050	-0.296062
Zn4	Zn	-0.355648	0.857008	-0.420191
O5	O	-0.303025	0.909651	-0.358155
O6	O	-0.264329	1.050389	-0.403851
O7	O	-0.341702	0.948269	-0.192157
O8	O	-0.162328	0.871062	-0.312568
O9	O	-0.341664	1.050335	-0.312606
O10	O	-0.162299	0.948396	-0.403830
O11	O	-0.264395	0.870990	-0.192141
O12	O	-0.264398	0.768955	-0.312482
O13	O	-0.341669	0.870990	-0.524128
O14	O	-0.341707	0.768924	-0.403679
O15	O	-0.264332	0.948354	-0.524193
O16	O	-0.443735	0.948228	-0.312520
O17	O	-0.443737	0.870918	-0.403701
C18	C	-0.466576	0.909577	-0.358119
C19	C	-0.536544	0.909603	-0.358129
C20	C	-0.303058	0.746099	-0.358069
C21	C	-0.303087	0.676131	-0.358050
C22	C	-1.035980	0.950057	-0.310797
C23	C	-0.970238	0.950033	-0.310779
C24	C	-0.937384	0.909739	-0.358207
C25	C	-0.970278	0.869455	-0.405642
C26	C	-1.036019	0.869476	-0.405653
N27	N	-0.834137	0.904841	-0.423190
N28	N	-0.771686	0.904825	-0.423177
C29	C	-0.739309	0.909674	-0.358175
N30	N	-0.771743	0.914551	-0.293185
N31	N	-0.834200	0.914570	-0.293199
C32	C	-0.866098	0.909712	-0.358200
C33	C	-0.635137	0.949927	-0.310720
C34	C	-0.569394	0.949898	-0.310702
C35	C	-0.569435	0.869323	-0.405571
C36	C	-0.635178	0.869348	-0.405583
C37	C	-0.668025	0.909653	-0.358159
C38	C	-0.343395	0.643265	-0.405465
C39	C	-0.343379	0.577522	-0.405499
C40	C	-0.303063	0.544648	-0.358104
C41	C	-0.262747	0.577523	-0.310685
C42	C	-0.262759	0.643264	-0.310658
N43	N	-0.298140	0.441381	-0.293148
N44	N	-0.298133	0.378930	-0.293176
C45	C	-0.303022	0.346574	-0.358182
N46	N	-0.307933	0.379028	-0.423162
N47	N	-0.307944	0.441485	-0.423133
C48	C	-0.303045	0.473363	-0.358128
C49	C	-0.343316	0.242422	-0.405638
C50	C	-0.343296	0.176678	-0.405672
C51	C	-0.262667	0.176680	-0.310852
C52	C	-0.262683	0.242423	-0.310824
C53	C	-0.303011	0.275290	-0.358216
C54	C	-0.138834	0.909742	-0.358206
C55	C	-0.068866	0.909781	-0.358229
C56	C	-0.302997	0.909675	-0.551860
C57	C	-0.302985	0.909686	-0.634406
C58	C	-0.302992	1.073841	-0.358241
C59	C	-0.302978	1.143809	-0.358278
C60	C	-0.344983	0.867647	-0.833822
C61	C	-0.360355	0.925079	-0.883235
C62	C	-0.302937	0.909717	-0.785537
C63	C	-0.287548	0.852317	-0.883205
C64	C	-0.302891	0.909742	-0.931522
C65	C	-0.318338	0.967179	-0.833863
C66	C	-0.245504	0.894378	-0.833829
C67	C	-0.260854	0.951849	-0.883220
C68	C	-0.302964	0.909702	-0.701438
C69	C	-0.302864	0.909764	-1.015618
C70	C	-0.303007	0.909662	-0.165203
C71	C	-0.302842	0.909774	-0.082657
H72	H	-1.062720	0.982875	-0.272177
H73	H	-0.229837	0.149915	-0.272265
H74	H	-0.661883	0.982745	-0.272104
H75	H	-0.229863	0.269183	-0.272210
F76	F	-0.182064	0.877380	-0.805440
H77	H	-0.274551	0.803764	-0.904881
H78	H	-0.661954	0.836552	-0.444210
H79	H	-0.331391	1.015746	-0.812279
F80	F	-0.423812	0.942057	-0.911602
F81	F	-0.391518	0.821189	-0.805470
F82	F	-0.214353	0.998417	-0.911394
F83	F	-0.534474	0.826432	-0.456040
F84	F	-0.935312	0.826570	-0.456116
F85	F	-1.071020	0.826607	-0.456140
F86	F	-0.935231	0.992900	-0.260290
H87	H	-0.376118	0.149919	-0.444288
F88	F	-0.386314	0.678240	-0.455907
F89	F	-0.534394	0.992768	-0.260214
F90	F	-0.386282	0.542536	-0.455967
H91	H	-0.229934	0.670024	-0.272047
F92	F	-0.386233	0.277403	-0.456079
F93	F	-0.219836	0.542536	-0.260247
