data_functionalizedCrystal
_audit_creation_method	'MofGen! by Chris Wilmer'
_symmetry_space_group_name_H-M	'P1'
_symmetry_Int_Tables_number	1
_symmetry_cell_setting	triclinic
loop_
_symmetry_equiv_pos_as_xyz
  x,y,z
_cell_length_a	17.699083
_cell_length_b	13.339070
_cell_length_c	16.776229
_cell_angle_alpha	89.996888
_cell_angle_beta	89.998886
_cell_angle_gamma	99.456154
loop_
_atom_site_label
_atom_site_type_symbol
_atom_site_fract_x
_atom_site_fract_y
_atom_site_fract_z
O1	O	1.031106	0.127864	-0.066171
O2	O	0.814244	0.144499	-0.066196
O3	O	0.897786	-0.011021	-0.066184
O4	O	0.947563	0.283384	-0.066183
O5	O	0.897768	-0.011031	0.066392
O6	O	0.814226	0.144489	0.066380
O7	O	1.031088	0.127854	0.066406
Zn8	Zn	0.922654	0.136170	0.087442
Zn9	Zn	0.922677	0.136183	-0.087233
O10	O	0.947546	0.283374	0.066394
C11	C	0.785912	0.143898	0.000089
C12	C	0.701516	0.142110	0.000079
C13	C	0.889369	-0.048694	0.000102
C14	C	0.864305	-0.160935	0.000096
C15	C	0.672191	0.233397	0.000079
C16	C	0.592891	0.231710	0.000090
C17	C	0.542918	0.138736	0.000094
C18	C	0.572248	0.047442	0.000096
C19	C	0.651546	0.049129	0.000091
C20	C	0.252446	0.040635	0.000115
C21	C	0.173143	0.038955	0.000117
C22	C	0.193791	0.223216	0.000114
C23	C	0.273089	0.224904	0.000109
C24	C	0.302412	0.133610	0.000115
C25	C	0.388398	0.135440	0.000106
C26	C	0.456933	0.136906	0.000098
C27	C	1.059185	-0.526207	0.000119
C28	C	1.082736	-0.420752	0.000129
C29	C	1.028130	-0.355792	0.000121
C30	C	0.949970	-0.396298	0.000102
C31	C	0.926417	-0.501763	0.000098
C32	C	0.895362	-0.331349	0.000100
C33	C	0.817202	-0.371855	0.000082
C34	C	0.793652	-0.477310	0.000077
C35	C	0.848258	-0.542269	0.000086
C36	C	0.918915	-0.225884	0.000104
C37	C	0.786147	-0.201441	0.000083
C38	C	0.762596	-0.306895	0.000073
C39	C	1.059420	0.128455	0.000119
C40	C	1.143816	0.130243	0.000124
C41	C	0.955963	0.321047	0.000106
C42	C	0.981027	0.433288	0.000107
N43	N	0.922644	0.136161	0.206654
N44	N	0.922692	0.136184	-0.206444
C45	C	0.959658	0.067325	0.248376
C46	C	0.959662	0.067324	0.331828
C47	C	0.922656	0.136165	0.373556
C48	C	0.885638	0.205004	0.331828
C49	C	0.885629	0.204999	0.248378
C50	C	0.885669	0.205024	0.668375
C51	C	0.885682	0.205026	0.751832
C52	C	0.959702	0.067349	0.751826
C53	C	0.959694	0.067344	0.668375
C54	C	0.922672	0.136179	0.626654
C55	C	0.922667	0.136178	0.536166
C56	C	0.922666	0.136172	0.464043
H57	H	0.712875	0.309107	0.000075
O58	O	0.849818	0.272037	0.627895
C59	C	0.883127	0.372105	0.648298
H60	H	0.943806	0.372491	0.671223
H61	H	0.885070	0.422870	0.593420
H62	H	0.847439	0.401870	0.696749
O63	O	0.165178	0.311809	0.000151
C64	C	0.084472	0.290391	0.000139
H65	H	0.064769	0.210981	0.025244
H66	H	0.060931	0.348593	0.038629
H67	H	0.062454	0.294280	-0.063463
O68	O	0.994825	-0.186495	0.000257
C69	C	1.012411	-0.126211	0.068911
H70	H	0.967637	-0.151056	0.116897
H71	H	1.071386	-0.135834	0.091965
H72	H	1.012433	-0.042999	0.053386
O73	O	0.849746	0.272013	0.372271
C74	C	0.883066	0.372085	0.351881
H75	H	0.912198	0.371908	0.291288
H76	H	0.836649	0.421969	0.349025
H77	H	0.927292	0.403298	0.398842
H78	H	0.730009	-0.510286	0.000068
H79	H	0.989801	0.011272	0.365798
O80	O	0.280796	-0.048137	0.000082
C81	C	0.219682	-0.130555	0.000105
H82	H	0.166184	-0.104742	-0.024996
H83	H	0.235371	-0.194507	-0.038383
H84	H	0.208071	-0.159064	0.063709
H85	H	0.675420	-0.025206	0.000090
H86	H	0.569019	0.306046	0.000089
O87	O	0.995618	0.000535	0.627740
C88	C	1.053627	0.054463	0.579347
H89	H	1.071826	0.134169	0.604488
H90	H	1.105007	0.012938	0.578270
H91	H	1.030958	0.059890	0.516154
H92	H	0.855487	0.261051	0.214408
O93	O	1.050909	-0.253336	0.000024
C94	C	1.022396	-0.211392	-0.068654
H95	H	0.970069	-0.265027	-0.091559
H96	H	1.005510	-0.134833	-0.053213
H97	H	1.068549	-0.200396	-0.116723
H98	H	0.989797	0.011271	0.214406
H99	H	0.313775	0.300613	0.000102
O100	O	0.523599	-0.042786	0.000065
C101	C	0.447319	-0.024703	0.000087
H102	H	0.445358	0.054248	-0.025013
H103	H	0.410589	-0.084183	-0.038401
H104	H	0.424326	-0.029552	0.063692
H105	H	1.146374	-0.387780	0.000146
O106	O	1.112292	-0.589205	0.000023
C107	C	1.158432	-0.570891	-0.068643
H108	H	1.156668	-0.490842	-0.091537
H109	H	1.219962	-0.578476	-0.053189
H110	H	1.135979	-0.628545	-0.116725
H111	H	0.989845	0.011296	0.785804
O112	O	0.686642	-0.346080	0.000024
C113	C	0.643490	-0.266142	0.000038
H114	H	0.679740	-0.194543	-0.025053
H115	H	0.590266	-0.288063	-0.038463
H116	H	0.625570	-0.251180	0.063638
O117	O	0.849852	0.271996	0.792403
C118	C	0.903464	0.334299	0.840678
H119	H	0.963484	0.335918	0.815518
H120	H	0.889462	0.414714	0.841626
H121	H	0.900798	0.302648	0.903925
O122	O	0.825284	-0.644693	0.000179
C123	C	0.781007	-0.673243	0.068843
H124	H	0.755816	-0.605337	0.091740
H125	H	0.732618	-0.737781	0.053387
H126	H	0.818783	-0.699698	0.116924
H127	H	0.741682	-0.148550	0.000080
H128	H	0.132455	-0.036760	0.000122
