data_functionalizedCrystal
_audit_creation_method	'MofGen! by Chris Wilmer'
_symmetry_space_group_name_H-M	'P1'
_symmetry_Int_Tables_number	1
_symmetry_cell_setting	triclinic
loop_
_symmetry_equiv_pos_as_xyz
  x,y,z
_cell_length_a	12.645331
_cell_length_b	18.101397
_cell_length_c	12.645323
_cell_angle_alpha	90.032474
_cell_angle_beta	90.022676
_cell_angle_gamma	90.019444
loop_
_atom_site_label
_atom_site_type_symbol
_atom_site_fract_x
_atom_site_fract_y
_atom_site_fract_z
Zn1	Zn	1.620711	-0.294844	0.599390
Zn2	Zn	1.620584	-0.418694	0.422107
Zn3	Zn	1.443425	-0.294869	0.422135
Zn4	Zn	1.443399	-0.418646	0.599322
O5	O	1.532030	-0.356763	0.510738
O6	O	1.769041	-0.311283	0.575890
O7	O	1.597042	-0.402299	0.273763
O8	O	1.467007	-0.191233	0.445688
O9	O	1.768948	-0.402275	0.445641
O10	O	1.597258	-0.191214	0.575917
O11	O	1.466884	-0.311325	0.273784
O12	O	1.295075	-0.311278	0.445622
O13	O	1.466961	-0.402193	0.747679
O14	O	1.295055	-0.402217	0.575801
O15	O	1.597232	-0.311236	0.747729
O16	O	1.597016	-0.522321	0.445575
O17	O	1.466838	-0.522285	0.575774
C18	C	1.256600	-0.356746	0.510708
C19	C	1.138770	-0.356756	0.510720
C20	C	0.971183	-0.299283	0.429276
C21	C	1.093743	-0.299432	0.428917
C22	C	1.094244	-0.434770	0.480190
C23	C	0.971646	-0.434456	0.479635
C24	C	0.971622	-0.336957	0.623008
C25	C	1.094228	-0.335215	0.622384
C26	C	1.531939	-0.549174	0.510687
C27	C	1.531997	-0.631488	0.510701
C28	C	1.532132	-0.930579	0.510797
C29	C	1.613808	-0.899245	0.428660
C30	C	1.614091	-0.813627	0.428873
C31	C	1.532065	-0.782196	0.510748
C32	C	1.562356	-0.813201	0.622490
C33	C	1.562988	-0.898846	0.622043
C34	C	1.419948	-0.899087	0.482160
C35	C	1.420502	-0.813438	0.479666
C36	C	1.532026	-0.698337	0.510728
C37	C	1.532175	-1.014438	0.510826
C38	C	1.808535	-0.356781	0.510770
C39	C	1.926365	-0.356789	0.510783
C40	C	1.532108	-0.356706	0.787244
C41	C	1.532141	-0.356682	0.905074
C42	C	1.532150	-0.163601	0.510813
C43	C	1.532201	-0.081287	0.510845
C44	C	1.532013	-0.356767	0.235309
C45	C	1.532185	-0.356583	0.117479
C46	C	1.449935	-0.413633	1.072607
C47	C	1.450150	-0.413915	0.950047
C48	C	1.643839	-0.377863	0.949590
C49	C	1.643388	-0.378220	1.072188
C50	C	1.503705	-0.278231	1.072287
C51	C	1.501213	-0.278701	0.949680
H52	H	0.941998	-0.478752	0.536411
N53	N	1.578852	-0.224912	1.108712
N54	N	1.590160	-0.213766	1.205621
H55	H	1.643235	-0.176115	1.231353
H56	H	1.123847	-0.241582	0.448055
H57	H	1.423673	-0.258923	1.103195
H58	H	0.942640	-0.378842	0.683738
N59	N	1.722899	-0.328379	1.109432
N60	N	1.796714	-0.351713	1.166055
H61	H	1.852874	-0.316517	1.192353
H62	H	1.706764	-0.337625	0.920462
N63	N	1.391861	-0.788027	0.376502
N64	N	1.453326	-0.747058	0.325999
H65	H	1.433103	-0.729109	0.253138
H66	H	1.644990	-0.918766	0.646300
H67	H	1.123411	-0.478761	0.537692
N68	N	0.932494	-0.315537	0.325557
N69	N	0.995927	-0.329916	0.252613
H70	H	0.968602	-0.341395	0.179361
H71	H	1.124898	-0.451877	0.399029
N72	N	1.490033	-0.787645	0.701338
N73	N	1.523002	-0.750215	0.777635
H74	H	1.471923	-0.732162	0.833322
N75	N	1.673673	-0.450066	1.108096
N76	N	1.753945	-0.457670	1.164764
H77	H	1.775334	-0.508413	1.190123
N78	N	0.935720	-0.455541	0.376705
N79	N	0.960982	-0.417900	0.297812
H80	H	0.935616	-0.432790	0.225114
N81	N	1.130727	-0.263196	0.651287
N82	N	1.104020	-0.235633	0.737903
H83	H	1.129798	-0.184767	0.758314
N84	N	1.398092	-0.258668	0.913178
N85	N	1.347506	-0.301623	0.854527
H86	H	1.274676	-0.287478	0.828742
N87	N	1.674638	-0.448962	0.911069
N88	N	1.614517	-0.484155	0.850845
H89	H	1.636263	-0.534370	0.823638
H90	H	0.940729	-0.281063	0.650770
H91	H	1.124883	-0.374044	0.686362
N92	N	1.664073	-0.786215	0.653430
N93	N	1.714431	-0.744158	0.593378
H94	H	1.786270	-0.725098	0.615224
N95	N	1.473850	-0.486747	0.913183
N96	N	1.408899	-0.520567	0.856466
H97	H	1.425670	-0.571998	0.830412
H98	H	0.941723	-0.241259	0.448208
N99	N	1.718331	-0.787836	0.452634
N100	N	1.736660	-0.720039	0.456908
H101	H	1.810285	-0.701823	0.473684
N102	N	1.590310	-0.787339	0.324931
N103	N	1.573390	-0.832246	0.251722
H104	H	1.556598	-0.813685	0.178307
H105	H	1.595085	-0.919890	0.345557
H106	H	1.392393	-0.920749	0.402091
H107	H	1.556744	-0.233948	0.919067
H108	H	1.356374	-0.792050	0.535110
H109	H	1.366861	-0.400505	1.102083
H110	H	1.359094	-0.919351	0.541984
H111	H	1.696454	-0.920714	0.447390
N112	N	1.491593	-0.924839	0.701431
N113	N	1.441465	-0.879725	0.756994
H114	H	1.391045	-0.898078	0.813064
H115	H	1.468552	-0.471356	1.103415
N116	N	1.130479	-0.315867	0.324590
N117	N	1.106142	-0.274639	0.249150
H118	H	1.132085	-0.286247	0.175464
N119	N	1.346241	-0.397283	0.912296
N120	N	1.273054	-0.385387	0.976495
H121	H	1.199662	-0.373645	0.949840
