data_functionalizedCrystal
_audit_creation_method	'MofGen! by Chris Wilmer'
_symmetry_space_group_name_H-M	'P1'
_symmetry_Int_Tables_number	1
_symmetry_cell_setting	triclinic
loop_
_symmetry_equiv_pos_as_xyz
  x,y,z
_cell_length_a	12.827893
_cell_length_b	21.295417
_cell_length_c	12.827885
_cell_angle_alpha	89.962947
_cell_angle_beta	89.980918
_cell_angle_gamma	90.029863
loop_
_atom_site_label
_atom_site_type_symbol
_atom_site_fract_x
_atom_site_fract_y
_atom_site_fract_z
Zn1	Zn	1.597566	-0.250576	-0.590791
Zn2	Zn	2.097566	0.249424	-0.090791
Zn3	Zn	1.597416	-0.355858	-0.416029
Zn4	Zn	2.097416	0.144142	0.083971
Zn5	Zn	1.422807	-0.250607	-0.416065
Zn6	Zn	1.922807	0.249393	0.083935
Zn7	Zn	1.422749	-0.355812	-0.590729
Zn8	Zn	1.922749	0.144188	-0.090729
O9	O	1.510134	-0.303213	-0.503403
O10	O	2.010134	0.196787	-0.003403
O11	O	1.743782	-0.264548	-0.567619
O12	O	2.243782	0.235452	-0.067619
O13	O	1.574216	-0.341929	-0.269797
O14	O	2.074216	0.158071	0.230203
O15	O	1.446076	-0.162514	-0.439283
O16	O	1.946076	0.337486	0.060717
O17	O	1.743672	-0.341899	-0.439222
O18	O	2.243672	0.158101	0.060778
O19	O	1.574471	-0.162491	-0.567654
O20	O	2.074471	0.337509	-0.067654
O21	O	1.445931	-0.264601	-0.269824
O22	O	1.945931	0.235399	0.230176
O23	O	1.276563	-0.264556	-0.439224
O24	O	1.776563	0.235444	0.060776
O25	O	1.445977	-0.341819	-0.736974
O26	O	1.945977	0.158181	-0.236974
O27	O	1.276520	-0.341850	-0.567549
O28	O	1.776520	0.158150	-0.067549
O29	O	1.574414	-0.264503	-0.737019
O30	O	2.074414	0.235497	-0.237019
O31	O	1.574159	-0.443941	-0.439162
O32	O	2.074159	0.056059	0.060838
O33	O	1.445832	-0.443907	-0.567514
O34	O	1.945832	0.056093	-0.067514
C35	C	1.238625	-0.303202	-0.503384
C36	C	1.738625	0.196798	-0.003384
C37	C	1.122471	-0.303212	-0.503401
C38	C	1.622471	0.196788	-0.003401
C39	C	1.070680	-0.264914	-0.440014
C40	C	1.570680	0.235086	0.059986
C41	C	0.950630	-0.264924	-0.440030
C42	C	1.450630	0.235076	0.059970
C43	C	1.510001	-0.466765	-0.503350
C44	C	2.010001	0.033235	-0.003350
C45	C	1.510040	-0.536733	-0.503363
C46	C	2.010040	-0.036733	-0.003363
C47	C	1.576857	-0.569531	-0.570253
C48	C	2.076857	-0.069531	-0.070253
C49	C	1.576893	-0.635273	-0.570279
C50	C	2.076893	-0.135273	-0.070279
C51	C	1.510125	-0.668215	-0.503396
C52	C	2.010125	-0.168215	-0.003396
C53	C	1.443295	-0.635410	-0.436501
C54	C	1.943295	-0.135410	0.063499
C55	C	1.443253	-0.569669	-0.436484
C56	C	1.943253	-0.069669	0.063516
N57	N	1.502229	-0.771484	-0.411940
N58	N	2.002229	-0.271484	0.088060
N59	N	1.502275	-0.833935	-0.411959
N60	N	2.002275	-0.333935	0.088041
C61	C	1.510247	-0.866290	-0.503443
C62	C	2.010247	-0.366290	-0.003443
N63	N	1.518191	-0.833834	-0.594910
N64	N	2.018191	-0.333834	-0.094910
N65	N	1.518150	-0.771377	-0.594890
N66	N	2.018150	-0.271377	-0.094890
C67	C	1.510163	-0.739501	-0.503407
C68	C	2.010163	-0.239501	-0.003407
C69	C	1.577107	-0.970373	-0.570367
C70	C	2.077107	-0.470373	-0.070367
C71	C	1.577136	-1.036117	-0.570394
C72	C	2.077136	-0.536117	-0.070394
C73	C	1.443543	-1.036252	-0.436607
C74	C	1.943543	-0.536252	0.063393
C75	C	1.443508	-0.970510	-0.436589
C76	C	1.943508	-0.470510	0.063411
C77	C	1.510296	-0.937574	-0.503467
C78	C	2.010296	-0.437574	-0.003467
C79	C	1.782704	-0.303225	-0.503423
C80	C	2.282704	0.196775	-0.003423
C81	C	1.898858	-0.303230	-0.503431
C82	C	2.398858	0.196770	-0.003431
C83	C	1.510206	-0.303153	-0.775974
C84	C	2.010206	0.196847	-0.275974
C85	C	1.510236	-0.303127	-0.892127
C86	C	2.010236	0.196873	-0.392127
C87	C	1.510297	-0.139023	-0.503479
C88	C	2.010297	0.360977	-0.003479
C89	C	1.510366	-0.069055	-0.503512
C90	C	2.010366	0.430945	-0.003512
C91	C	1.446734	-0.341342	-1.063934
C92	C	1.946734	0.158658	-0.563934
C93	C	1.446701	-0.341370	-0.943883
C94	C	1.946701	0.158630	-0.443883
C95	C	1.510124	-0.303228	-0.231893
C96	C	2.010124	0.196772	0.268107
C97	C	1.510296	-0.303076	-0.115741
C98	C	2.010296	0.196924	0.384259
H99	H	1.077935	-0.336009	-0.557677
H100	H	1.577935	0.163991	-0.057677
C101	C	1.369742	-0.533590	-0.362901
C102	C	1.869742	-0.033590	0.137099
N103	N	1.314371	-0.506415	-0.307477
N104	N	1.814371	-0.006415	0.192523
H105	H	1.115217	-0.232121	-0.385731
H106	H	1.615217	0.267879	0.114269
C107	C	0.959018	-0.347530	-0.576749
C108	C	1.459018	0.152470	-0.076749
N109	N	1.004339	-0.380898	-0.631971
N110	N	1.504339	0.119102	-0.131971
C111	C	0.890463	-0.220626	-0.366715
C112	C	1.390463	0.279374	0.133285
N113	N	0.845142	-0.187260	-0.311490
N114	N	1.345142	0.312740	0.188510
H115	H	1.631236	-0.542716	-0.624712
H116	H	2.131236	-0.042716	-0.124712
H117	H	1.392288	-0.374133	-0.899331
H118	H	1.892288	0.125867	-0.399331
C119	C	1.650559	-0.934142	-0.643948
C120	C	2.150559	-0.434142	-0.143948
N121	N	1.705881	-0.906854	-0.699373
N122	N	2.205881	-0.406854	-0.199373
C123	C	1.373238	-0.385569	-1.124077
C124	C	1.873238	0.114431	-0.624077
N125	N	1.317876	-0.418880	-1.169376
N126	N	1.817876	0.081120	-0.669376
H127	H	1.631295	-0.661982	-0.624761
H128	H	2.131295	-0.161982	-0.124761
H129	H	1.388929	-0.662236	-0.382047
H130	H	1.888929	-0.162236	0.117953
H131	H	1.564684	-0.270333	-1.071218
H132	H	2.064684	0.229667	-0.571218
H133	H	1.631546	-1.062820	-0.624869
H134	H	2.131546	-0.562820	-0.124869
C135	C	1.370082	-1.072485	-0.363049
C136	C	1.870082	-0.572485	0.136951
N137	N	1.314743	-1.099779	-0.307649
N138	N	1.814743	-0.599779	0.192351
C139	C	1.583755	-0.258863	-0.952306
C140	C	2.083755	0.241137	-0.452306
N141	N	1.639127	-0.225523	-0.997640
N142	N	2.139127	0.274477	-0.497640
C143	C	1.369998	-0.934431	-0.363009
C144	C	1.869998	-0.434431	0.136991
N145	N	1.314619	-0.907257	-0.307592
N146	N	1.814619	-0.407257	0.192408
