data_functionalizedCrystal
_audit_creation_method	'MofGen! by Chris Wilmer'
_symmetry_space_group_name_H-M	'P1'
_symmetry_Int_Tables_number	1
_symmetry_cell_setting	triclinic
loop_
_symmetry_equiv_pos_as_xyz
  x,y,z
_cell_length_a	23.532361
_cell_length_b	23.532407
_cell_length_c	12.503572
_cell_angle_alpha	93.496478
_cell_angle_beta	86.508879
_cell_angle_gamma	82.839173
loop_
_atom_site_label
_atom_site_type_symbol
_atom_site_fract_x
_atom_site_fract_y
_atom_site_fract_z
O1	O	0.758576	0.065698	-0.089223
O2	O	0.592710	0.075728	-0.089250
O3	O	0.680644	-0.012219	-0.089216
O4	O	0.670642	0.153645	-0.089257
O5	O	0.674031	-0.005594	0.089423
O6	O	0.586097	0.082353	0.089389
O7	O	0.751963	0.072323	0.089417
Cu8	Cu	0.668426	0.077943	0.105714
Cu9	Cu	0.676247	0.070108	-0.105548
O10	O	0.664029	0.160270	0.089382
C11	C	0.568187	0.078789	0.000066
C12	C	0.504969	0.078034	0.000057
C13	C	0.235330	0.071119	-0.097312
C14	C	0.294729	0.071834	-0.097315
O15	O	0.328521	0.069113	-0.180128
N16	N	0.320830	0.075807	0.000062
C17	C	0.287529	0.079059	0.097447
O18	O	0.315184	0.082503	0.180274
C19	C	0.228130	0.078340	0.097449
C20	C	0.202032	0.074373	0.000066
C21	C	0.209231	0.067152	-0.194687
C22	C	0.149835	0.066438	-0.194684
C23	C	0.116538	0.069692	-0.097306
C24	C	0.142636	0.073659	0.000069
C25	C	0.194831	0.081588	0.194834
C26	C	0.135429	0.080868	0.194827
C27	C	0.109330	0.076901	0.097444
C28	C	0.049943	0.076199	0.097451
N29	N	0.023842	0.072226	0.000074
C30	C	0.057140	0.068973	-0.097304
C31	C	0.412269	0.080567	0.097436
C32	C	0.471666	0.081290	0.097436
C33	C	0.478863	0.074065	-0.097327
C34	C	0.419464	0.073346	-0.097325
C35	C	0.386168	0.076595	0.000060
C36	C	-0.067597	0.067475	-0.097290
C37	C	-0.126998	0.066764	-0.097278
C38	C	-0.134190	0.073986	0.097484
C39	C	-0.074793	0.074701	0.097473
C40	C	-0.041498	0.071442	0.000077
O41	O	0.016115	0.078916	0.180222
O42	O	0.029478	0.065522	-0.180116
C43	C	0.677082	-0.030122	0.000107
C44	C	0.676316	-0.093339	0.000115
C45	C	0.723553	-0.492451	0.000064
C46	C	0.722841	-0.551852	0.000055
O47	O	0.766630	-0.588605	0.000023
N48	N	0.670564	-0.574470	0.000047
C49	C	0.618995	-0.537684	0.000037
O50	O	0.574464	-0.562376	0.000029
C51	C	0.619707	-0.478285	0.000038
C52	C	0.671988	-0.455670	0.000056
C53	C	0.775829	-0.469836	0.000081
C54	C	0.776540	-0.410440	0.000091
C55	C	0.724974	-0.373659	0.000084
C56	C	0.672698	-0.396274	0.000067
C57	C	0.568139	-0.441500	0.000019
C58	C	0.568856	-0.382098	0.000019
C59	C	0.621136	-0.359483	0.000038
C60	C	0.621844	-0.300096	0.000070
N61	N	0.674121	-0.277478	0.000077
C62	C	0.725686	-0.314260	0.000085
C63	C	0.617504	-0.662426	0.000034
C64	C	0.616791	-0.721824	0.000041
C65	C	0.720638	-0.735988	0.000057
C66	C	0.721350	-0.676589	0.000058
C67	C	0.669781	-0.639808	0.000042
C68	C	0.727175	-0.189522	0.000107
C69	C	0.727881	-0.130120	0.000122
C70	C	0.624035	-0.115961	0.000100
C71	C	0.623329	-0.175358	0.000091
C72	C	0.674903	-0.212138	0.000091
O73	O	0.578079	-0.263308	0.000098
O74	O	0.770211	-0.289559	0.000079
C75	C	0.776486	0.069262	0.000098
C76	C	0.839704	0.070017	0.000100
C77	C	0.667590	0.178173	0.000058
C78	C	0.668357	0.241390	0.000043
N79	N	0.662929	0.083453	0.254304
N80	N	0.681748	0.064594	-0.254138
C81	C	0.654843	0.091564	0.473416
C82	C	0.689832	0.056485	0.526757
C83	C	0.685333	0.060998	0.648679
C84	C	0.659342	0.087052	0.351484
H85	H	-0.040494	0.064823	-0.176599
O86	O	0.124432	0.062504	-0.289213
C87	C	0.097038	0.012534	-0.295039
H88	H	0.087253	-0.000880	-0.210485
H89	H	0.126427	-0.023516	-0.343074
C90	C	0.052651	0.041243	-0.454582
C91	C	0.040629	0.024770	-0.350731
H92	H	0.017856	0.048789	-0.488940
H93	H	0.071109	0.074908	-0.450660
H94	H	0.077143	0.011199	-0.494598
H95	H	0.016143	0.054817	-0.310714
H96	H	0.022166	-0.008890	-0.354648
O97	O	0.511264	0.070979	-0.191856
C98	C	0.539094	0.120513	-0.197708
H99	H	0.542616	0.140206	-0.113165
H100	H	0.513268	0.152996	-0.245782
C101	C	0.595298	0.079955	-0.357203
C102	C	0.599628	0.104139	-0.253365
H103	H	0.632637	0.069856	-0.391539
H104	H	0.576546	0.046584	-0.353264
H105	H	0.573773	0.107028	-0.397251
H106	H	0.621145	0.077063	-0.213315
H107	H	0.618384	0.137505	-0.257299
O108	O	0.729541	0.016492	0.472167
C109	C	0.719451	-0.038768	0.499740
H110	H	0.672701	-0.037536	0.530669
H111	H	0.748671	-0.053297	0.565020
C112	C	0.789530	-0.082680	0.361912
C113	C	0.732110	-0.081168	0.399890
H114	H	0.797341	-0.108835	0.300322
H115	H	0.796330	-0.045450	0.343337
H116	H	0.813873	-0.094785	0.416321
H117	H	0.707768	-0.069056	0.345487
H118	H	0.725307	-0.118397	0.418453
O119	O	0.517305	-0.463366	-0.000051
C120	C	0.471952	-0.418153	-0.000038
H121	H	0.488944	-0.379143	-0.033845
H122	H	0.452886	-0.406485	0.085659
C123	C	0.404343	-0.485136	-0.028594
C124	C	0.425212	-0.437225	-0.070126
H125	H	0.375510	-0.496900	-0.071824
H126	H	0.434898	-0.515597	-0.028600
H127	H	0.388459	-0.475406	0.042819
H128	H	0.441103	-0.446957	-0.141532
H129	H	0.394659	-0.406765	-0.070134
H130	H	0.492908	0.084530	0.176735
O131	O	0.518792	-0.346308	0.000149
C132	C	0.512658	-0.308112	0.092685
H133	H	0.556701	-0.304218	0.123545
H134	H	0.484362	-0.325115	0.157460
C135	C	0.430590	-0.253463	0.026678
C136	C	0.484685	-0.248677	0.064575
H137	H	0.413333	-0.216801	0.009341
H138	H	0.434721	-0.279197	-0.035664
H139	H	0.407017	-0.267634	0.080663
H140	H	0.508259	-0.234513	0.010585
H141	H	0.480558	-0.222939	0.126907
O142	O	0.825966	-0.505507	-0.000051
C143	C	0.861148	-0.498732	-0.092573
H144	H	0.848034	-0.454736	-0.123428
H145	H	0.855960	-0.533584	-0.157358
C146	C	0.940408	-0.557721	-0.026550
C147	C	0.924305	-0.503682	-0.064441
H148	H	0.979367	-0.560777	-0.009199
H149	H	0.916706	-0.562288	0.035782
H150	H	0.936080	-0.586758	-0.080544
H151	H	0.928626	-0.474646	-0.010442
H152	H	0.948010	-0.499110	-0.126763
H153	H	0.385162	0.083220	0.176744
H154	H	0.108321	0.083519	0.274132
O155	O	0.241532	0.064094	-0.289317
C156	C	0.222452	0.111046	-0.348567
H157	H	0.199314	0.147438	-0.291584
H158	H	0.191734	0.097226	-0.409268
C159	C	0.302778	0.087148	-0.478252
C160	C	0.274364	0.131847	-0.408263
H161	H	0.334799	0.099978	-0.515080
H162	H	0.315632	0.055514	-0.438337
H163	H	0.277174	0.075635	-0.528827
H164	H	0.299966	0.143354	-0.357682
H165	H	0.261515	0.163483	-0.448172
H166	H	0.621512	0.124983	0.519311
H167	H	0.580757	-0.193770	0.000106
H168	H	0.216069	0.084816	0.274134
H169	H	-0.148245	0.063535	-0.176582
H170	H	0.762625	-0.765946	0.000059
H171	H	0.398219	0.070116	-0.176623
O172	O	-0.049362	0.078481	0.191998
C173	C	-0.008500	0.029770	0.197848
H174	H	0.005766	0.010294	0.113304
H175	H	-0.028458	-0.003264	0.245915
C176	C	0.026300	0.071414	0.357354
C177	C	0.043826	0.047496	0.253514
H178	H	0.058576	0.082347	0.391695
H179	H	-0.001231	0.104231	0.353415
H180	H	0.009668	0.043882	0.397395
H181	H	0.060450	0.075030	0.213470
H182	H	0.071360	0.014684	0.257447
O183	O	-0.166471	0.077072	0.192141
C184	C	-0.147425	0.030102	0.251376
H185	H	-0.101027	0.013153	0.223700
H186	H	-0.175638	-0.005345	0.237869
C187	C	-0.208172	0.070394	0.405707
C188	C	-0.151183	0.049579	0.371721
H189	H	-0.210492	0.082406	0.479942
H190	H	-0.221005	0.102037	0.365798
H191	H	-0.231676	0.040851	0.394442
H192	H	-0.127681	0.079124	0.382974
H193	H	-0.138346	0.017941	0.411635
O194	O	0.573894	-0.080306	0.000132
C195	C	0.527596	-0.112999	0.000083
H196	H	0.541048	-0.156166	0.033912
H197	H	0.514736	-0.120311	-0.085628
C198	C	0.459699	-0.027506	0.028562
C199	C	0.476220	-0.080522	0.070120
H200	H	0.428007	-0.007472	0.071760
H201	H	0.490890	-0.005479	0.028591
H202	H	0.448986	-0.033606	-0.042863
H203	H	0.486940	-0.074421	0.141538
H204	H	0.445029	-0.102547	0.070104
O205	O	0.778721	-0.108250	0.000088
C206	C	0.824078	-0.153455	0.000115
H207	H	0.809598	-0.194970	-0.033714
H208	H	0.836796	-0.158783	0.085819
C209	C	0.893790	-0.088571	-0.028382
C210	C	0.876007	-0.139559	-0.069939
H211	H	0.925823	-0.079998	-0.071590
H212	H	0.863232	-0.058114	-0.028396
H213	H	0.904384	-0.093017	0.043037
H214	H	0.865407	-0.135110	-0.141352
H215	H	0.906564	-0.170014	-0.069939
H216	H	0.769173	-0.219462	0.000103
O217	O	0.565957	-0.743694	-0.000013
C218	C	0.520600	-0.698485	0.000012
H219	H	0.537586	-0.659472	-0.033798
H220	H	0.501539	-0.686819	0.085713
C221	C	0.452996	-0.765474	-0.028530
C222	C	0.473857	-0.717560	-0.070065
H223	H	0.424161	-0.777240	-0.071752
H224	H	0.483553	-0.795933	-0.028542
H225	H	0.437115	-0.755746	0.042887
H226	H	0.489743	-0.727290	-0.141474
H227	H	0.443301	-0.687103	-0.070065
H228	H	0.763921	-0.658181	0.000072
H229	H	0.575508	-0.632482	0.000030
O230	O	0.827296	-0.388416	-0.000048
C231	C	0.834249	-0.357920	-0.092582
H232	H	0.790417	-0.344003	-0.123426
H233	H	0.861987	-0.386712	-0.157367
C234	C	0.917420	-0.321608	-0.026597
C235	C	0.863584	-0.304511	-0.064475
H236	H	0.935517	-0.288664	-0.009262
H237	H	0.912737	-0.342155	0.035743
H238	H	0.940528	-0.345602	-0.080591
H239	H	0.840474	-0.280524	-0.010477
H240	H	0.868263	-0.283958	-0.126806
