data_functionalizedCrystal
_audit_creation_method	'MofGen! by Chris Wilmer'
_symmetry_space_group_name_H-M	'P1'
_symmetry_Int_Tables_number	1
_symmetry_cell_setting	triclinic
loop_
_symmetry_equiv_pos_as_xyz
  x,y,z
_cell_length_a	19.188930
_cell_length_b	19.188930
_cell_length_c	9.730223
_cell_angle_alpha	89.982832
_cell_angle_beta	89.990488
_cell_angle_gamma	83.144779
loop_
_atom_site_label
_atom_site_type_symbol
_atom_site_fract_x
_atom_site_fract_y
_atom_site_fract_z
O1	O	0.087167	0.926144	-0.114747
O2	O	0.098902	0.722832	-0.114655
O3	O	-0.008621	0.830355	-0.114677
O4	O	0.194690	0.818621	-0.114725
O5	O	-0.008624	0.830348	0.113903
O6	O	0.098899	0.722825	0.113925
O7	O	0.087165	0.926137	0.113833
Zn8	Zn	0.093031	0.824480	0.150171
Zn9	Zn	0.093035	0.824489	-0.150993
O10	O	0.194687	0.818614	0.113855
C11	C	0.098520	0.696818	-0.000353
C12	C	0.097380	0.619313	-0.000316
C13	C	0.160470	0.574389	-0.000353
C14	C	0.159399	0.501566	-0.000368
C15	C	0.095233	0.473669	-0.000374
C16	C	0.032133	0.518603	-0.000329
C17	C	0.033207	0.591425	-0.000301
N18	N	0.046187	0.365691	-0.078213
N19	N	0.045171	0.296513	-0.078243
C20	C	0.091994	0.254260	-0.000457
N21	N	0.139882	0.283799	0.077343
N22	N	0.140900	0.352984	0.077367
C23	C	0.094062	0.394707	-0.000404
C24	C	0.153928	0.130372	-0.000508
C25	C	0.152853	0.057547	-0.000514
C26	C	0.025586	0.074586	-0.000489
C27	C	0.026662	0.147409	-0.000469
C28	C	0.090835	0.175298	-0.000485
C29	C	-0.034634	0.829972	-0.000383
C30	C	-0.112138	0.828831	-0.000370
C31	C	-0.157062	0.891922	-0.000392
C32	C	-0.229886	0.890850	-0.000414
C33	C	-0.257782	0.826684	-0.000386
C34	C	-0.212849	0.763585	-0.000372
C35	C	-0.140026	0.764658	-0.000364
N36	N	-0.365788	0.777634	0.077427
N37	N	-0.434967	0.776619	0.077422
C38	C	-0.477191	0.823446	-0.000412
N39	N	-0.447625	0.871337	-0.078225
N40	N	-0.378440	0.872355	-0.078214
C41	C	-0.336745	0.825513	-0.000395
C42	C	-0.601079	0.885379	-0.000459
C43	C	-0.673904	0.884305	-0.000489
C44	C	-0.656865	0.757038	-0.000433
C45	C	-0.584042	0.758114	-0.000417
C46	C	-0.556154	0.822286	-0.000424
C47	C	0.220700	0.818997	-0.000442
C48	C	0.298204	0.820138	-0.000464
C49	C	0.087546	0.952151	-0.000472
C50	C	0.088687	1.029656	-0.000518
N51	N	0.093028	0.824479	0.355707
N52	N	0.093032	0.824496	-0.356529
C53	C	0.045437	0.872106	0.427624
C54	C	0.045437	0.872113	0.571507
C55	C	0.140626	0.776864	0.571544
C56	C	0.140622	0.776854	0.427664
H57	H	-0.020111	0.495885	-0.000353
H58	H	-0.018171	0.628003	-0.000272
O59	O	0.191957	0.725485	0.350081
H60	H	0.225060	0.692377	0.424286
O61	O	-0.005892	0.923482	0.649079
H62	H	0.023421	0.957319	0.714600
O63	O	0.223137	0.160461	-0.000497
H64	H	0.266830	0.116984	-0.000498
O65	O	0.220904	0.009087	-0.000548
H66	H	0.265704	0.040718	-0.000566
O67	O	-0.043625	0.044510	-0.000496
H68	H	-0.033773	-0.013676	-0.000529
H69	H	-0.578372	0.937632	-0.000471
H70	H	-0.547464	0.706738	-0.000391
O71	O	-0.722360	0.952358	-0.000500
H72	H	-0.712452	0.983090	-0.093661
H73	H	0.006682	0.910884	0.369040
O74	O	-0.126986	0.961136	-0.000410
H75	H	-0.068800	0.951286	-0.000390
H76	H	-0.679578	0.704792	-0.000417
H77	H	0.212725	0.597091	-0.000368
O78	O	-0.278354	0.958900	-0.000419
H79	H	-0.246727	1.003702	-0.000411
H80	H	-0.235567	0.711340	-0.000352
O81	O	0.191966	0.725505	0.649152
H82	H	0.183981	0.733518	0.761284
O83	O	-0.091569	0.696606	-0.000314
H84	H	-0.101450	0.665884	-0.093461
O85	O	0.227448	0.453098	-0.000422
H86	H	0.272251	0.484725	-0.000438
O87	O	-0.041386	0.195871	-0.000442
H88	H	-0.086186	0.164240	-0.000457
