data_functionalizedCrystal
_audit_creation_method	'MofGen! by Chris Wilmer'
_symmetry_space_group_name_H-M	'P1'
_symmetry_Int_Tables_number	1
_symmetry_cell_setting	triclinic
loop_
_symmetry_equiv_pos_as_xyz
  x,y,z
_cell_length_a	17.639762
_cell_length_b	17.637651
_cell_length_c	17.077396
_cell_angle_alpha	78.753225
_cell_angle_beta	101.179210
_cell_angle_gamma	114.333457
loop_
_atom_site_label
_atom_site_type_symbol
_atom_site_fract_x
_atom_site_fract_y
_atom_site_fract_z
Zn1	Zn	1.193613	-0.073042	-0.189900
Zn2	Zn	1.693613	0.426958	0.310100
Zn3	Zn	1.165673	-0.210926	-0.036524
Zn4	Zn	1.665673	0.289074	0.463476
Zn5	Zn	1.055796	-0.100981	-0.080659
Zn6	Zn	1.555796	0.399019	0.419341
Zn7	Zn	1.027925	-0.238770	-0.189764
Zn8	Zn	1.527925	0.261230	0.310236
O9	O	1.110752	-0.155930	-0.124211
O10	O	1.610752	0.344070	0.375789
O11	O	1.305232	-0.067987	-0.151141
O12	O	1.805232	0.432013	0.348859
O13	O	1.151069	-0.196382	0.067471
O14	O	1.651069	0.303618	0.567471
O15	O	1.097434	0.018095	-0.113678
O16	O	1.597434	0.518095	0.386322
O17	O	1.284705	-0.169290	-0.038456
O18	O	1.784705	0.330710	0.461544
O19	O	1.198688	0.038622	-0.193937
O20	O	1.698688	0.538622	0.306063
O21	O	1.070342	-0.115606	0.035045
O22	O	1.570342	0.384394	0.535045
O23	O	0.936773	-0.142605	-0.113545
O24	O	1.436773	0.357395	0.386455
O25	O	1.049933	-0.216745	-0.299631
O26	O	1.549933	0.283255	0.200369
O27	O	0.916297	-0.243837	-0.193704
O28	O	1.416297	0.256163	0.306296
O29	O	1.171663	-0.094986	-0.299731
O30	O	1.671663	0.405014	0.200269
O31	O	1.124044	-0.329990	-0.038323
O32	O	1.624044	0.170010	0.461677
O33	O	1.022841	-0.350446	-0.150908
O34	O	1.522841	0.149554	0.349092
C35	C	0.896633	-0.199274	-0.158400
C36	C	1.396633	0.300726	0.341600
C37	C	0.805027	-0.217837	-0.173041
C38	C	1.305027	0.282163	0.326959
C39	C	0.665260	-0.296779	-0.235314
C40	C	1.165260	0.203221	0.264686
C41	C	0.751338	-0.279330	-0.221551
C42	C	1.251338	0.220670	0.278449
C43	C	0.772654	-0.173765	-0.138278
C44	C	1.272654	0.326235	0.361722
C45	C	0.686577	-0.191202	-0.152037
C46	C	1.186577	0.308798	0.347963
C47	C	0.632886	-0.252710	-0.200555
C48	C	1.132886	0.247290	0.299445
C49	C	0.654203	-0.147134	-0.117278
C50	C	1.154203	0.352866	0.382722
C51	C	0.568132	-0.164573	-0.131032
C52	C	1.068132	0.335427	0.368968
C53	C	0.514435	-0.226080	-0.179546
C54	C	1.014435	0.273920	0.320454
C55	C	0.546815	-0.270149	-0.214309
C56	C	1.046815	0.229851	0.285691
C57	C	0.707894	-0.085630	-0.068755
C58	C	1.207894	0.414370	0.431245
C59	C	0.675520	-0.041562	-0.033996
C60	C	1.175520	0.458438	0.466004
C61	C	0.589449	-0.058996	-0.047755
C62	C	1.089449	0.441004	0.452245
C63	C	0.535753	-0.120503	-0.096269
C64	C	1.035753	0.379497	0.403731
C65	C	0.557070	-0.014927	-0.012992
C66	C	1.057070	0.485073	0.487008
C67	C	0.470999	-0.032366	-0.026747
C68	C	0.970999	0.467634	0.473253
C69	C	0.449682	-0.137942	-0.110024
C70	C	0.949682	0.362058	0.389976
C71	C	1.067409	-0.370127	-0.089825
C72	C	1.567409	0.129873	0.410175
C73	C	1.048942	-0.461747	-0.075129
C74	C	1.548942	0.038253	0.424871
C75	C	1.251578	-0.709384	-0.236020
C76	C	1.751578	-0.209384	0.263980
C77	C	1.234200	-0.795480	-0.222201
C78	C	1.734200	-0.295480	0.277799
C79	C	1.128834	-0.816948	-0.138519
C80	C	1.628834	-0.316948	0.361481
C81	C	1.146207	-0.730852	-0.152328
C82	C	1.646207	-0.230852	0.347672
C83	C	1.207579	-0.677076	-0.201080
C84	C	1.707579	-0.177076	0.298920
C85	C	1.102208	-0.698544	-0.117387
C86	C	1.602208	-0.198544	0.382613
C87	C	1.119576	-0.612456	-0.131199
C88	C	1.619576	-0.112456	0.368801
C89	C	1.180944	-0.558675	-0.179950
C90	C	1.680944	-0.058675	0.320050
C91	C	1.224948	-0.590988	-0.214891
C92	C	1.724948	-0.090988	0.285109
C93	C	1.040832	-0.752321	-0.068640
C94	C	1.540832	-0.252321	0.431360
C95	C	0.996832	-0.720013	-0.033700
C96	C	1.496832	-0.220013	0.466300
C97	C	1.014205	-0.633923	-0.047507
C98	C	1.514205	-0.133923	0.452493
C99	C	1.075572	-0.580143	-0.096258
C100	C	1.575572	-0.080143	0.403742
C101	C	0.970201	-0.601610	-0.012566
C102	C	1.470201	-0.101610	0.487434
C103	C	0.987569	-0.515522	-0.026377
C104	C	1.487569	-0.015522	0.473623
C105	C	1.092941	-0.494055	-0.110069
C106	C	1.592941	0.005945	0.389931
C107	C	1.325707	-0.112417	-0.089890
C108	C	1.825707	0.387583	0.410110
C109	C	1.417308	-0.093874	-0.075265
C110	C	1.917308	0.406126	0.424735
C111	C	1.110806	-0.155855	-0.328960
C112	C	1.610806	0.344145	0.171040
C113	C	1.110829	-0.155823	-0.416212
C114	C	1.610829	0.344177	0.083788
C115	C	1.154286	0.059109	-0.158746
C116	C	1.654286	0.559109	0.341254
C117	C	1.172838	0.150745	-0.173462
C118	C	1.672838	0.650745	0.326538
C119	C	1.152958	-0.197772	-0.775148
C120	C	1.652958	0.302228	-0.275148
C121	C	1.152932	-0.197800	-0.693167
C122	C	1.652932	0.302200	-0.193167
C123	C	1.110894	-0.155754	-0.669062
C124	C	1.610894	0.344246	-0.169062
C125	C	1.068872	-0.113684	-0.726943
C126	C	1.568872	0.386316	-0.226943
C127	C	1.068893	-0.113661	-0.808922
C128	C	1.568893	0.386339	-0.308922
C129	C	1.068832	-0.113733	-0.556071
C130	C	1.568832	0.386267	-0.056071
C131	C	1.068812	-0.113754	-0.474086
C132	C	1.568812	0.386246	0.025914
C133	C	1.152871	-0.197872	-0.440316
C134	C	1.652871	0.302128	0.059684
C135	C	1.152893	-0.197849	-0.522295
C136	C	1.652893	0.302151	-0.022295
C137	C	1.110871	-0.155777	-0.580170
C138	C	1.610871	0.344223	-0.080170
C139	C	1.110757	-0.155935	0.079739
C140	C	1.610757	0.344065	0.579739
C141	C	1.110941	-0.155703	0.166978
C142	C	1.610941	0.344297	0.666978
H143	H	0.444351	-0.240278	-0.190743
H144	H	0.944351	0.259722	0.309257
O145	O	0.614980	0.051401	0.039348
O146	O	1.114980	0.551401	0.539348
H147	H	0.611552	0.112743	0.012767
H148	H	1.111552	0.612743	0.512767
H149	H	1.187195	-0.232006	-0.794767
H150	H	1.687195	0.267994	-0.294767
H151	H	0.444641	0.003524	0.001553
H152	H	0.944641	0.503524	0.501553
H153	H	1.034639	-0.079454	-0.707310
H154	H	1.534639	0.420546	-0.207310
H155	H	1.270022	-0.821782	-0.250670
H156	H	1.770022	-0.321782	0.249330
O157	O	1.198233	-0.243205	-0.548285
O158	O	1.698233	0.256795	-0.048285
H159	H	1.247650	-0.197811	-0.584863
H160	H	1.747650	0.302189	-0.084863
O161	O	1.062649	-0.874958	-0.085934
O162	O	1.562649	-0.374958	0.414066
H163	H	1.001281	-0.871578	-0.112315
H164	H	1.501281	-0.371578	0.387685
O165	O	1.022105	-0.845173	-0.053744
O166	O	1.522105	-0.345173	0.446256
H167	H	0.955353	-0.880495	-0.075848
H168	H	1.455353	-0.380495	0.424152
O169	O	1.199681	-0.465821	-0.194848
O170	O	1.699681	0.034179	0.305152
H171	H	1.266441	-0.430508	-0.172758
H172	H	1.766441	0.069492	0.327242
H173	H	0.946861	-0.763809	0.005991
H174	H	1.446861	-0.263809	0.505991
H175	H	0.920226	-0.645408	0.027121
H176	H	1.420226	-0.145408	0.527121
O177	O	0.940123	-0.480664	0.011312
O178	O	1.440123	0.019336	0.511312
H179	H	0.894537	-0.532518	0.047540
H180	H	1.394537	-0.032518	0.547540
O181	O	1.198270	-0.243154	-0.630743
O182	O	1.698270	0.256846	-0.130743
H183	H	1.227521	-0.272371	-0.661277
H184	H	1.727521	0.227629	-0.161277
H185	H	1.142923	-0.450267	-0.149761
H186	H	1.642923	0.049733	0.350239
O187	O	1.317782	-0.651373	-0.288593
O188	O	1.817782	-0.151373	0.211407
H189	H	1.288787	-0.619616	-0.340684
H190	H	1.788787	-0.119616	0.159316
H191	H	1.187087	-0.232128	-0.393189
H192	H	1.687087	0.267872	0.106811
H193	H	1.034584	-0.079513	-0.454463
H194	H	1.534584	0.420487	0.045537
O195	O	1.023516	-0.068351	-0.618498
O196	O	1.523516	0.431649	-0.118498
H197	H	0.994290	-0.039108	-0.587965
H198	H	1.494290	0.460892	-0.087965
O199	O	1.291148	-0.532974	-0.267466
O200	O	1.791148	-0.032974	0.232534
H201	H	1.273649	-0.552326	-0.328684
H202	H	1.773649	-0.052326	0.171316
O203	O	0.391768	-0.204291	-0.162348
O204	O	0.891768	0.295709	0.337652
H205	H	0.411154	-0.186891	-0.223592
H206	H	0.911154	0.313109	0.276408
O207	O	0.488892	-0.336498	-0.266631
O208	O	0.988892	0.163502	0.233369
H209	H	0.525860	-0.364220	-0.288488
H210	H	1.025860	0.135780	0.211512
O211	O	0.607350	-0.363122	-0.287647
O212	O	1.107350	0.136878	0.212353
H213	H	0.575609	-0.334218	-0.339825
H214	H	1.075609	0.165782	0.160175
O215	O	1.023589	-0.068276	-0.871353
O216	O	1.523589	0.431724	-0.371353
H217	H	0.956041	-0.095500	-0.863679
H218	H	1.456041	0.404500	-0.363679
O219	O	0.786273	-0.326843	-0.259053
O220	O	1.286273	0.173157	0.240947
H221	H	0.756673	-0.394880	-0.237755
H222	H	1.256673	0.105120	0.262245
O223	O	0.830564	-0.107423	-0.085953
O224	O	1.330564	0.392577	0.414047
H225	H	0.895855	-0.102695	-0.082231
H226	H	1.395855	0.397305	0.417769
O227	O	0.800730	-0.066816	-0.053913
O228	O	1.300730	0.433184	0.446087
H229	H	0.826807	-0.045618	-0.112175
H230	H	1.326807	0.454382	0.387825
H231	H	0.719247	0.008516	0.005510
H232	H	1.219247	0.508516	0.505510
