data_functionalizedCrystal
_audit_creation_method	'MofGen! by Chris Wilmer'
_symmetry_space_group_name_H-M	'P1'
_symmetry_Int_Tables_number	1
_symmetry_cell_setting	triclinic
loop_
_symmetry_equiv_pos_as_xyz
  x,y,z
_cell_length_a	10.654550
_cell_length_b	16.992695
_cell_length_c	9.130313
_cell_angle_alpha	89.995176
_cell_angle_beta	89.999724
_cell_angle_gamma	87.576577
loop_
_atom_site_label
_atom_site_type_symbol
_atom_site_fract_x
_atom_site_fract_y
_atom_site_fract_z
O1	O	1.677362	0.110190	-0.121691
O2	O	1.312790	0.120688	-0.121718
O3	O	1.493615	0.001288	-0.121693
O4	O	1.496538	0.229590	-0.121716
O5	O	1.493601	0.001285	0.121906
O6	O	1.312777	0.120685	0.121881
O7	O	1.677348	0.110186	0.121908
Cu8	Cu	1.495061	0.115435	0.144137
Cu9	Cu	1.495077	0.115439	-0.143947
O10	O	1.496524	0.229586	0.121883
C11	C	1.265919	0.119916	0.000078
C12	C	1.126277	0.117609	0.000068
C13	C	1.052866	0.187910	0.000065
C14	C	0.921658	0.185738	0.000091
C15	C	0.937282	0.042959	0.000116
C16	C	1.068488	0.045132	0.000101
C17	C	1.489848	-0.027946	0.000106
C18	C	1.478628	-0.115051	0.000105
C19	C	1.586879	-0.164703	0.000114
C20	C	1.576330	-0.246547	0.000099
C21	C	1.457529	-0.278738	0.000086
C22	C	1.349270	-0.229080	0.000072
C23	C	1.359820	-0.147237	0.000076
C24	C	1.413802	-0.522573	0.000062
C25	C	1.403260	-0.604422	0.000062
C26	C	1.630321	-0.621884	0.000087
C27	C	1.640861	-0.540039	0.000100
C28	C	1.532602	-0.490388	0.000079
N29	N	1.446743	-0.362395	0.000075
N30	N	1.543389	-0.406733	0.000079
C31	C	1.724220	0.110959	0.000108
C32	C	1.863862	0.113265	0.000109
C33	C	1.500291	0.258821	0.000080
C34	C	1.511510	0.345926	0.000072
N35	N	1.495059	0.115432	0.346759
N36	N	1.495089	0.115437	-0.346570
C37	C	1.575159	0.062584	0.423422
C38	C	1.575171	0.062584	0.576759
C39	C	1.414980	0.168287	0.576756
C40	C	1.414963	0.168282	0.423422
H41	H	1.099913	0.246926	0.000049
O42	O	1.756169	-0.508642	0.000163
C43	C	1.742267	-0.425759	0.000125
H44	H	1.646139	-0.407079	0.046243
H45	H	1.818779	-0.400233	0.070848
H46	H	1.750641	-0.402943	-0.116742
H47	H	1.349730	0.211318	0.360999
H48	H	1.271671	-0.106811	0.000068
H49	H	1.349769	0.211318	0.639191
O50	O	1.653101	0.011221	0.651002
C51	C	1.723762	-0.035438	0.550450
H52	H	1.728393	-0.003265	0.441142
H53	H	1.822911	-0.046821	0.594741
H54	H	1.677124	-0.093958	0.534159
H55	H	1.128262	-0.012119	0.000107
O56	O	0.850534	0.254102	0.000018
C57	C	0.929681	0.318534	0.000025
H58	H	1.025493	0.299151	-0.046104
H59	H	0.886301	0.367834	-0.070703
H60	H	0.941247	0.340718	0.116884
O61	O	0.880942	-0.027375	0.000071
C62	C	0.749394	-0.014219	0.000117
H63	H	0.724756	0.046836	-0.046009
H64	H	0.704514	-0.060637	-0.070596
H65	H	0.712537	-0.018220	0.116987
O66	O	1.652749	0.011178	0.348822
C67	C	1.580548	-0.037626	0.260227
H68	H	1.485386	-0.006922	0.237228
H69	H	1.631730	-0.049788	0.152412
H70	H	1.566143	-0.095633	0.319398
H71	H	1.683620	-0.138501	0.000134
H72	H	1.718458	-0.662318	0.000102
O73	O	1.287753	-0.635563	-0.000032
C74	C	1.194461	-0.574191	-0.000020
H75	H	1.235265	-0.518407	-0.046128
H76	H	1.112029	-0.591732	-0.070765
H77	H	1.160652	-0.562808	0.116838
H78	H	1.664480	-0.286971	0.000110
O79	O	1.308677	-0.474320	-0.000209
C80	C	1.307998	-0.426439	-0.126354
H81	H	1.369254	-0.456050	-0.214528
H82	H	1.207709	-0.417794	-0.168711
H83	H	1.346477	-0.366755	-0.097830
O84	O	1.233962	-0.260477	0.000123
C85	C	1.247859	-0.343360	0.000089
H86	H	1.343983	-0.362046	0.046216
H87	H	1.171341	-0.368889	0.070807
H88	H	1.239491	-0.366167	-0.116777
