data_functionalizedCrystal
_audit_creation_method	'MofGen! by Chris Wilmer'
_symmetry_space_group_name_H-M	'P1'
_symmetry_Int_Tables_number	1
_symmetry_cell_setting	triclinic
loop_
_symmetry_equiv_pos_as_xyz
  x,y,z
_cell_length_a	19.121112
_cell_length_b	19.121063
_cell_length_c	12.759393
_cell_angle_alpha	92.404035
_cell_angle_beta	87.538969
_cell_angle_gamma	90.126867
loop_
_atom_site_label
_atom_site_type_symbol
_atom_site_fract_x
_atom_site_fract_y
_atom_site_fract_z
Zn1	Zn	1.059877	-0.324862	-0.682279
Zn2	Zn	1.559877	0.175138	-0.182279
Zn3	Zn	1.054776	-0.442110	-0.513734
Zn4	Zn	1.554776	0.057890	-0.013734
Zn5	Zn	0.942632	-0.319887	-0.498821
Zn6	Zn	1.442632	0.180113	0.001179
Zn7	Zn	0.937602	-0.437052	-0.681578
Zn8	Zn	1.437602	0.062948	-0.181578
O9	O	0.998722	-0.380978	-0.594103
O10	O	1.498722	0.119022	-0.094103
O11	O	1.157305	-0.344614	-0.666456
O12	O	1.657305	0.155386	-0.166456
O13	O	1.039870	-0.425932	-0.364735
O14	O	1.539870	0.074068	0.135265
O15	O	0.962424	-0.222443	-0.517209
O16	O	1.462424	0.277557	-0.017209
O17	O	1.153558	-0.430756	-0.542627
O18	O	1.653558	0.069244	-0.042627
O19	O	1.048564	-0.226099	-0.651995
O20	O	1.548564	0.273901	-0.151995
O21	O	0.957478	-0.336135	-0.353778
O22	O	1.457478	0.163865	0.146222
O23	O	0.843859	-0.331230	-0.516529
O24	O	1.343859	0.168770	-0.016529
O25	O	0.953852	-0.422135	-0.828692
O26	O	1.453852	0.077865	-0.328692
O27	O	0.840164	-0.417311	-0.650800
O28	O	1.340164	0.082689	-0.150800
O29	O	1.043687	-0.339709	-0.829207
O30	O	1.543687	0.160291	-0.329207
O31	O	1.034993	-0.539542	-0.541947
O32	O	1.534993	-0.039542	-0.041947
O33	O	0.948906	-0.535826	-0.665261
O34	O	1.448906	-0.035826	-0.165261
C35	C	0.816574	-0.373182	-0.581971
C36	C	1.316574	0.126818	-0.081971
C37	C	0.738650	-0.369864	-0.576806
C38	C	1.238650	0.130136	-0.076806
C39	C	0.990869	-0.563122	-0.605171
C40	C	1.490869	-0.063122	-0.105171
C41	C	0.987574	-0.641047	-0.609945
C42	C	1.487574	-0.141047	-0.109945
C43	C	0.298023	-0.348813	-0.544095
C44	C	0.798023	0.151187	-0.044095
C45	C	0.371241	-0.351934	-0.548954
C46	C	0.871241	0.148066	-0.048954
C47	C	0.405938	-0.398387	-0.621186
C48	C	0.905938	0.101613	-0.121186
C49	C	0.367415	-0.441715	-0.688571
C50	C	0.867415	0.058285	-0.188571
C51	C	0.294198	-0.438589	-0.683717
C52	C	0.794198	0.061411	-0.183717
C53	C	0.626909	-0.410067	-0.639338
C54	C	1.126909	0.089933	-0.139338
C55	C	0.700131	-0.413190	-0.644185
C56	C	1.200131	0.086810	-0.144185
C57	C	0.703952	-0.323409	-0.504568
C58	C	1.203952	0.176591	-0.004568
C59	C	0.630734	-0.320290	-0.499716
C60	C	1.130734	0.179710	0.000284
C61	C	0.592217	-0.363616	-0.567105
C62	C	1.092217	0.136384	-0.067105
C63	C	0.480779	-0.401580	-0.626151
C64	C	0.980779	0.098420	-0.126151
C65	C	0.517378	-0.360418	-0.562144
C66	C	1.017378	0.139582	-0.062144
C67	C	1.030881	-0.679569	-0.548043
C68	C	1.530881	-0.179569	-0.048043
C69	C	1.027786	-0.752788	-0.552539
C70	C	1.527786	-0.252788	-0.052539
C71	C	0.981379	-0.787483	-0.618933
C72	C	1.481379	-0.287483	-0.118933
C73	C	0.938070	-0.748955	-0.680842
C74	C	1.438070	-0.248955	-0.180842
C75	C	0.941169	-0.675738	-0.676350
C76	C	1.441169	-0.175738	-0.176350
C77	C	0.969781	-1.008456	-0.635709
C78	C	1.469781	-0.508456	-0.135709
C79	C	0.966684	-1.081679	-0.640194
C80	C	1.466684	-0.581679	-0.140194
C81	C	1.056402	-1.085506	-0.511892
C82	C	1.556402	-0.585506	-0.011892
C83	C	1.059494	-1.012287	-0.507402
C84	C	1.559494	-0.512287	-0.007402
C85	C	1.016187	-0.973766	-0.569315
C86	C	1.516187	-0.473766	-0.069315
C87	C	0.978213	-0.862324	-0.623528
C88	C	1.478213	-0.362324	-0.123528
C89	C	1.019357	-0.898927	-0.564724
C90	C	1.519357	-0.398927	-0.064724
C91	C	1.181580	-0.388804	-0.606283
C92	C	1.681580	0.111196	-0.106283
C93	C	1.259504	-0.392139	-0.611474
C94	C	1.759504	0.107861	-0.111474
C95	C	0.998777	-0.380913	-0.868136
C96	C	1.498777	0.119087	-0.368136
C97	C	0.998801	-0.380885	-0.984912
C98	C	1.498801	0.119115	-0.484912
C99	C	1.006624	-0.198123	-0.583016
C100	C	1.506624	0.301877	-0.083016
C101	C	1.009992	-0.120201	-0.578292
C102	C	1.509992	0.379799	-0.078292
C103	C	1.045581	-0.337959	-1.040044
C104	C	1.545581	0.162041	-0.540044
C105	C	1.045594	-0.337929	-1.149767
C106	C	1.545594	0.162071	-0.649767
C107	C	0.952044	-0.423757	-1.149217
C108	C	1.452044	0.076243	-0.649217
C109	C	0.952028	-0.423783	-1.039496
C110	C	1.452028	0.076217	-0.539496
C111	C	0.998709	-0.380994	-0.321136
C112	C	1.498709	0.119006	0.178864
C113	C	0.998830	-0.380830	-0.204357
C114	C	1.498830	0.119170	0.295643
H115	H	0.269777	-0.310987	-0.485275
H116	H	0.769777	0.189013	0.014725
H117	H	0.913965	-0.458685	-1.193673
H118	H	1.413965	0.041315	-0.693673
H119	H	1.097282	-0.984040	-0.453339
H120	H	1.597282	-0.484040	0.046661
H121	H	0.489124	-0.322594	-0.503337
H122	H	0.989124	0.177406	-0.003337
C123	C	1.097056	-0.290714	-1.210408
C124	C	1.597056	0.209286	-0.710408
H125	H	1.124911	-0.265175	-1.162182
H126	H	1.624911	0.234825	-0.662182
H127	H	1.071569	-0.259007	-1.249569
H128	H	1.571569	0.240993	-0.749569
H129	H	1.126450	-0.318835	-1.256874
H130	H	1.626450	0.181165	-0.756874
H131	H	1.091661	-1.116878	-0.461488
H132	H	1.591661	-0.616878	0.038512
H133	H	0.395671	-0.479535	-0.747388
H134	H	0.895671	0.020465	-0.247388
C135	C	0.927165	-0.900488	-0.696556
C136	C	1.427165	-0.400488	-0.196556
H137	H	0.901815	-0.867062	-0.732787
H138	H	1.401815	-0.367062	-0.232787
H139	H	0.895426	-0.927796	-0.656050
H140	H	1.395426	-0.427796	-0.156050
H141	H	0.952768	-0.930145	-0.745903
H142	H	1.452768	-0.430145	-0.245903
C143	C	0.915640	-1.119842	-0.713239
C144	C	1.415640	-0.619842	-0.213239
H145	H	0.890297	-1.086415	-0.749478
H146	H	1.390297	-0.586415	-0.249478
H147	H	0.883895	-1.147147	-0.672739
H148	H	1.383895	-0.647147	-0.172739
H149	H	0.941246	-1.149502	-0.762579
H150	H	1.441246	-0.649502	-0.262579
H151	H	0.509038	-0.439404	-0.684960
H152	H	1.009038	0.060596	-0.184960
C153	C	0.900568	-0.471002	-0.978842
C154	C	1.400568	0.028998	-0.478842
H155	H	0.907253	-0.464867	-0.905678
H156	H	1.407253	0.035133	-0.405678
H157	H	0.908790	-0.518542	-1.000359
H158	H	1.408790	-0.018542	-0.500359
H159	H	0.853908	-0.458715	-0.993057
H160	H	1.353908	0.041285	-0.493057
C161	C	1.075421	-0.795160	-0.484442
C162	C	1.575421	-0.295160	0.015558
H163	H	1.103496	-0.764010	-0.444247
H164	H	1.603496	-0.264010	0.055753
H165	H	1.104750	-0.824980	-0.528446
H166	H	1.604750	-0.324980	-0.028446
H167	H	1.047402	-0.822622	-0.438601
H168	H	1.547402	-0.322622	0.061399
C169	C	0.887025	-0.787114	-0.753879
C170	C	1.387025	-0.287114	-0.253879
H171	H	0.861681	-0.753684	-0.790110
H172	H	1.361681	-0.253684	-0.290110
H173	H	0.855280	-0.814419	-0.713377
H174	H	1.355280	-0.314419	-0.213377
H175	H	0.912626	-0.816774	-0.803226
H176	H	1.412626	-0.316774	-0.303226
C177	C	0.251829	-0.486221	-0.757873
C178	C	0.751829	0.013779	-0.257873
H179	H	0.282979	-0.514329	-0.801594
H180	H	0.782979	-0.014329	-0.301594
H181	H	0.224453	-0.458195	-0.800182
H182	H	0.724453	0.041805	-0.300182
H183	H	0.221923	-0.515526	-0.717602
H184	H	0.721923	-0.015526	-0.217602
H185	H	0.402599	-0.316656	-0.494082
H186	H	0.902599	0.183344	0.005918
C187	C	1.097022	-0.290769	-0.980000
C188	C	1.597022	0.209231	-0.480000
H189	H	1.090319	-0.296936	-0.906757
H190	H	1.590319	0.203064	-0.406757
H191	H	1.088802	-0.243223	-0.994442
H192	H	1.588802	0.256777	-0.494442
H193	H	1.143688	-0.303046	-1.001749
H194	H	1.643688	0.196954	-0.501749
H195	H	1.057144	-0.870676	-0.510670
H196	H	1.557144	-0.370676	-0.010670
H197	H	0.602488	-0.282469	-0.440890
H198	H	1.102488	0.217531	0.059110
H199	H	0.905904	-0.644374	-0.726759
H200	H	1.405904	-0.144374	-0.226759
C201	C	0.746322	-0.275748	-0.430457
C202	C	1.246322	0.224252	0.069543
H203	H	0.794897	-0.284256	-0.443696
H204	H	1.294897	0.215744	0.056304
H205	H	0.733861	-0.285432	-0.359662
H206	H	1.233861	0.214568	0.140338
H207	H	0.736356	-0.228144	-0.442308
H208	H	1.236356	0.271856	0.057692
H209	H	1.068668	-0.651326	-0.493973
H210	H	1.568668	-0.151326	0.006027
H211	H	0.728380	-0.451018	-0.703010
H212	H	1.228380	0.048982	-0.203010
H213	H	0.934518	-0.977098	-0.686119
H214	H	1.434518	-0.477098	-0.186119
H215	H	0.595557	-0.445348	-0.694208
H216	H	1.095557	0.054652	-0.194208
