data_functionalizedCrystal
_audit_creation_method	'MofGen! by Chris Wilmer'
_symmetry_space_group_name_H-M	'P1'
_symmetry_Int_Tables_number	1
_symmetry_cell_setting	triclinic
loop_
_symmetry_equiv_pos_as_xyz
  x,y,z
_cell_length_a	16.120530
_cell_length_b	18.101395
_cell_length_c	18.101389
_cell_angle_alpha	89.983159
_cell_angle_beta	87.084523
_cell_angle_gamma	87.126665
loop_
_atom_site_label
_atom_site_type_symbol
_atom_site_fract_x
_atom_site_fract_y
_atom_site_fract_z
Zn1	Zn	1.274487	-0.352401	-0.476079
Zn2	Zn	1.774487	0.147599	0.023921
Zn3	Zn	1.274370	-0.476222	-0.352236
Zn4	Zn	1.774370	0.023778	0.147764
Zn5	Zn	1.135073	-0.346115	-0.345980
Zn6	Zn	1.635073	0.153885	0.154020
Zn7	Zn	1.135017	-0.469914	-0.469767
Zn8	Zn	1.635017	0.030086	0.030233
O9	O	1.204737	-0.411163	-0.411016
O10	O	1.704737	0.088837	0.088984
O11	O	1.391137	-0.374097	-0.464911
O12	O	1.891137	0.125903	0.035089
O13	O	1.255866	-0.458972	-0.247772
O14	O	1.755866	0.041028	0.252228
O15	O	1.153639	-0.243319	-0.363262
O16	O	1.653639	0.256681	0.136738
O17	O	1.391050	-0.465068	-0.373924
O18	O	1.891050	0.034932	0.126076
O19	O	1.256066	-0.247938	-0.458845
O20	O	1.756066	0.252062	0.041155
O21	O	1.153525	-0.363383	-0.243176
O22	O	1.653525	0.136617	0.256824
O23	O	1.018401	-0.357266	-0.357141
O24	O	1.518401	0.142734	0.142859
O25	O	1.153544	-0.454317	-0.574238
O26	O	1.653544	0.045683	-0.074238
O27	O	1.018360	-0.448221	-0.448086
O28	O	1.518360	0.051779	0.051914
O29	O	1.256012	-0.367981	-0.578876
O30	O	1.756012	0.132019	-0.078876
O31	O	1.255812	-0.579015	-0.367803
O32	O	1.755812	-0.079015	0.132197
O33	O	1.153431	-0.574380	-0.454152
O34	O	1.653431	-0.074380	0.045848
C35	C	0.988130	-0.401377	-0.401250
C36	C	1.488130	0.098623	0.098750
C37	C	0.895465	-0.397209	-0.397090
C38	C	1.395465	0.102791	0.102910
C39	C	0.725805	-0.389581	-0.389501
C40	C	1.225805	0.110419	0.110499
C41	C	0.684509	-0.432799	-0.432585
C42	C	1.184509	0.067201	0.067415
C43	C	0.590105	-0.428555	-0.428362
C44	C	1.090105	0.071445	0.071638
C45	C	0.820218	-0.393824	-0.393722
C46	C	1.320218	0.106176	0.106278
C47	C	1.204625	-0.603568	-0.410989
C48	C	1.704625	-0.103568	0.089011
C49	C	1.204654	-0.685884	-0.411005
C50	C	1.704654	-0.185884	0.088995
C51	C	1.204837	-0.984983	-0.411054
C52	C	1.704837	-0.484983	0.088946
C53	C	1.140570	-0.950780	-0.465531
C54	C	1.640570	-0.450780	0.034469
C55	C	1.140265	-0.865148	-0.465338
C56	C	1.640265	-0.365148	0.034662
C57	C	1.204746	-0.836596	-0.411030
C58	C	1.704746	-0.336596	0.088970
C59	C	1.180960	-0.866660	-0.331911
C60	C	1.680960	-0.366660	0.168089
C61	C	1.180546	-0.952287	-0.332235
C62	C	1.680546	-0.452287	0.167765
C63	C	1.293030	-0.957309	-0.435015
C64	C	1.793030	-0.457309	0.064985
C65	C	1.292512	-0.871635	-0.436703
C66	C	1.792512	-0.371635	0.063297
C67	C	1.204696	-0.752735	-0.411013
C68	C	1.704696	-0.252735	0.088987
C69	C	1.204885	-1.068845	-0.411066
C70	C	1.704885	-0.568845	0.088934
C71	C	1.422189	-0.420987	-0.420820
C72	C	1.922189	0.079013	0.079180
C73	C	1.514854	-0.425174	-0.424998
C74	C	2.014854	0.074826	0.075002
C75	C	1.204785	-0.411146	-0.604180
C76	C	1.704785	0.088854	-0.104180
C77	C	1.204806	-0.411139	-0.686495
C78	C	1.704806	0.088861	-0.186495
C79	C	1.204872	-0.218007	-0.411060
C80	C	1.704872	0.281993	0.088940
C81	C	1.204929	-0.135696	-0.411078
C82	C	1.704929	0.364304	0.088922
C83	C	1.204854	-0.411003	-0.985588
C84	C	1.704854	0.088997	-0.485588
C85	C	1.140162	-0.465131	-0.951335
C86	C	1.640162	0.034869	-0.451335
C87	C	1.140337	-0.465403	-0.865724
C88	C	1.640337	0.034597	-0.365724
C89	C	1.204829	-0.411070	-0.837204
C90	C	1.704829	0.088930	-0.337204
C91	C	1.292667	-0.436217	-0.872255
C92	C	1.792667	0.063783	-0.372255
C93	C	1.292306	-0.436575	-0.957884
C94	C	1.792306	0.063425	-0.457884
C95	C	1.182473	-0.331635	-0.953005
C96	C	1.682473	0.168365	-0.453005
C97	C	1.180518	-0.332000	-0.867266
C98	C	1.680518	0.168000	-0.367266
C99	C	1.204821	-0.411108	-0.753344
C100	C	1.704821	0.088892	-0.253344
C101	C	1.204869	-0.410968	-1.069448
C102	C	1.704869	0.089032	-0.569448
C103	C	1.204737	-0.411128	-0.218605
C104	C	1.704737	0.088872	0.281395
C105	C	1.204878	-0.410934	-0.136298
C106	C	1.704878	0.089066	0.363702
H107	H	0.720056	-0.472987	-0.472642
H108	H	1.220056	0.027013	0.027358
H109	H	0.690261	-0.349397	-0.349447
H110	H	1.190261	0.150603	0.150553
F111	F	1.317105	-0.512563	-0.985122
F112	F	1.817105	-0.012563	-0.485122
F113	F	1.159714	-0.838504	-0.541857
F114	F	1.659714	-0.338504	-0.041857
H115	H	1.340911	-0.979711	-0.395385
H116	H	1.840911	-0.479711	0.104615
H117	H	1.155304	-0.972003	-0.524254
H118	H	1.655304	-0.472003	-0.024254
F119	F	1.357362	-0.386534	-0.848568
F120	F	1.857362	0.113466	-0.348568
H121	H	1.075597	-0.969433	-0.449531
H122	H	1.575597	-0.469433	0.050469
H123	H	1.074894	-0.841773	-0.449153
H124	H	1.574894	-0.341773	0.050847
H125	H	1.314716	-0.979845	-0.491934
H126	H	1.814716	-0.479845	0.008066
H127	H	1.116077	-0.969419	-0.312398
H128	H	1.616077	-0.469419	0.187602
H129	H	1.342140	-0.399077	-0.980861
H130	H	1.842140	0.100923	-0.480861
F131	F	1.239066	-0.981998	-0.277090
F132	F	1.739066	-0.481998	0.222910
F133	F	1.240216	-0.842700	-0.277181
F134	F	1.740216	-0.342700	0.222819
F135	F	1.096024	-0.307309	-0.836905
F136	F	1.596024	0.192691	-0.336905
F137	F	1.244060	-0.278860	-0.982270
F138	F	1.744060	0.221140	-0.482270
H139	H	1.117174	-0.842395	-0.311801
H140	H	1.617174	-0.342395	0.188199
F141	F	1.315959	-0.846091	-0.512837
F142	F	1.815959	-0.346091	-0.012837
F143	F	1.358411	-0.846606	-0.389038
F144	F	1.858411	-0.346606	0.110962
H145	H	1.075202	-0.449209	-0.841766
H146	H	1.575202	0.050791	-0.341766
H147	H	1.311968	-0.493759	-0.851681
H148	H	1.811968	0.006241	-0.351681
H149	H	1.119535	-0.309496	-0.971764
H150	H	1.619535	0.190504	-0.471764
H151	H	1.074831	-0.449063	-0.968987
H152	H	1.574831	0.050937	-0.468987
F153	F	1.159244	-0.541437	-0.980372
F154	F	1.659244	-0.041437	-0.480372
F155	F	1.159690	-0.542185	-0.839820
F156	F	1.659690	-0.042185	-0.339820
F157	F	1.237618	-0.276072	-0.841887
F158	F	1.737618	0.223928	-0.341887
