data_functionalizedCrystal
_audit_creation_method	'MofGen! by Chris Wilmer'
_symmetry_space_group_name_H-M	'P1'
_symmetry_Int_Tables_number	1
_symmetry_cell_setting	triclinic
loop_
_symmetry_equiv_pos_as_xyz
  x,y,z
_cell_length_a	14.971496
_cell_length_b	14.971475
_cell_length_c	13.448316
_cell_angle_alpha	90.005879
_cell_angle_beta	90.007882
_cell_angle_gamma	83.613898
loop_
_atom_site_label
_atom_site_type_symbol
_atom_site_fract_x
_atom_site_fract_y
_atom_site_fract_z
O1	O	-0.116518	-1.186957	-0.082674
O2	O	-0.130487	-0.926557	-0.082681
O3	O	0.006697	-1.063732	-0.082668
O4	O	-0.253702	-1.049782	-0.082688
O5	O	0.006706	-1.063715	0.082716
O6	O	-0.130478	-0.926539	0.082703
O7	O	-0.116509	-1.186940	0.082709
Cu8	Cu	-0.123493	-1.056738	0.097807
Cu9	Cu	-0.123503	-1.056759	-0.097779
O10	O	-0.253694	-1.049765	0.082696
C11	C	-0.129860	-0.893223	0.000010
C12	C	-0.127993	-0.793925	0.000008
C13	C	-0.127109	-0.747271	0.090159
C14	C	-0.125340	-0.653972	0.090160
C15	C	-0.124462	-0.607329	0.000008
C16	C	-0.125344	-0.653990	-0.090151
C17	C	-0.127106	-0.747288	-0.090150
C18	C	-0.121673	-0.459527	-0.090145
C19	C	-0.119913	-0.366222	-0.090146
C20	C	-0.119908	-0.366212	0.090165
C21	C	-0.121670	-0.459510	0.090165
C22	C	-0.122553	-0.506164	0.000006
C23	C	0.040026	-1.063098	0.000024
C24	C	0.139323	-1.061224	0.000026
C25	C	0.567022	-1.053165	-0.090148
C26	C	0.473723	-1.054931	-0.090145
C27	C	0.427084	-1.055798	0.000010
C28	C	0.473750	-1.054909	0.090166
C29	C	0.567048	-1.053150	0.090161
C30	C	0.279287	-1.058574	0.090170
C31	C	0.185982	-1.060332	0.090175
C32	C	0.185961	-1.060355	-0.090136
C33	C	0.279260	-1.058596	-0.090141
C34	C	0.325919	-1.057705	0.000016
C35	C	0.712978	-1.050399	0.000003
C36	C	0.613681	-1.052273	0.000001
N37	N	-0.123486	-1.056730	0.235371
C38	C	-0.117143	-0.220273	0.000014
C39	C	-0.119029	-0.319568	0.000006
N40	N	-0.123504	-1.056773	-0.235343
C41	C	-0.062765	-1.117490	0.287417
C42	C	-0.062765	-1.117496	0.391521
C43	C	-0.123489	-1.056745	0.443576
C44	C	-0.184212	-0.995978	0.391522
C45	C	-0.184208	-0.995969	0.287421
C46	C	-0.184218	-0.996003	0.608502
C47	C	-0.184224	-0.996013	0.712611
C48	C	-0.062775	-1.117530	0.712602
C49	C	-0.062771	-1.117521	0.608501
C50	C	-0.123495	-1.056755	0.556454
H51	H	-0.119190	-0.328221	0.163576
O52	O	-0.243294	-0.936944	0.558097
C53	C	-0.296880	-0.883313	0.626362
H54	H	-0.297950	-0.919989	0.700562
H55	H	-0.368291	-0.869745	0.596273
H56	H	-0.267734	-0.816838	0.637453
O57	O	-0.119027	-0.321054	-0.177807
C58	C	-0.120203	-0.382233	-0.257384
H59	H	-0.093153	-0.452411	-0.230959
H60	H	-0.076311	-0.360905	-0.320432
H61	H	-0.192095	-0.382854	-0.285108
O62	O	-0.003662	-1.176523	0.763042
C63	C	0.084910	-1.161884	0.737640
H64	H	0.084858	-1.127398	0.662065
H65	H	0.128843	-1.229072	0.734066
H66	H	0.112650	-1.117346	0.796246
H67	H	-0.122393	-0.497510	-0.163562
O68	O	-0.003566	-1.176318	0.557938
C69	C	0.051689	-1.128182	0.497928
H70	H	0.016011	-1.058320	0.482236
H71	H	0.066069	-1.165480	0.424759
H72	H	0.117665	-1.121822	0.538259
O73	O	-0.122404	-0.504933	0.177675
C74	C	-0.046004	-0.568934	0.183082
H75	H	-0.020467	-0.586264	0.104808
H76	H	-0.064648	-0.632280	0.221234
H77	H	0.008880	-0.540012	0.227576
H78	H	-0.127827	-0.785272	-0.163561
H79	H	-0.233671	-0.946543	0.754989
H80	H	-0.124606	-0.615992	0.163570
H81	H	-0.127831	-0.785241	0.163572
O82	O	-0.124616	-0.608763	-0.177787
C83	C	-0.202468	-0.621500	-0.232624
H84	H	-0.229547	-0.685891	-0.206993
H85	H	-0.185127	-0.626956	-0.315099
H86	H	-0.255681	-0.561956	-0.220125
O87	O	-0.243076	-0.936927	0.442197
C88	C	-0.195085	-0.881692	0.502421
H89	H	-0.125151	-0.917244	0.518021
H90	H	-0.232399	-0.867591	0.575621
H91	H	-0.188899	-0.815577	0.462321
H92	H	0.604987	-1.052450	-0.163563
H93	H	0.317230	-1.057884	-0.163552
H94	H	0.435737	-1.055659	-0.163553
O95	O	0.140560	-1.061020	-0.177680
C96	C	0.076611	-0.984575	-0.183028
H97	H	0.059262	-0.959107	-0.104731
H98	H	0.013264	-1.003134	-0.221271
H99	H	0.105594	-0.929671	-0.227408
H100	H	0.148007	-1.061009	0.163586
O101	O	0.324470	-1.057670	0.177836
C102	C	0.263304	-1.058831	0.257411
H103	H	0.193120	-1.031796	0.230981
H104	H	0.284636	-1.014918	0.320456
H105	H	0.262695	-1.130717	0.285142
H106	H	0.435770	-1.055621	0.163571
H107	H	-0.233651	-0.946491	0.245046
H108	H	0.605037	-1.052423	0.163570
O109	O	-0.003636	-1.176416	0.236923
C110	C	0.084917	-1.161776	0.262435
H111	H	0.085443	-1.090160	0.291053
H112	H	0.129819	-1.172016	0.194002
H113	H	0.111095	-1.211311	0.322878
O114	O	-0.003909	-1.176558	0.442193
C115	C	-0.051912	-1.231798	0.502370
H116	H	-0.121846	-1.196242	0.517954
H117	H	-0.014607	-1.245914	0.575581
H118	H	-0.058100	-1.297905	0.462238
