data_functionalizedCrystal
_audit_creation_method	'MofGen! by Chris Wilmer'
_symmetry_space_group_name_H-M	'P1'
_symmetry_Int_Tables_number	1
_symmetry_cell_setting	triclinic
loop_
_symmetry_equiv_pos_as_xyz
  x,y,z
_cell_length_a	16.625547
_cell_length_b	18.101397
_cell_length_c	16.625539
_cell_angle_alpha	90.031854
_cell_angle_beta	90.024822
_cell_angle_gamma	90.020402
loop_
_atom_site_label
_atom_site_type_symbol
_atom_site_fract_x
_atom_site_fract_y
_atom_site_fract_z
Zn1	Zn	1.232692	-0.294829	0.455981
Zn2	Zn	1.482692	-0.044829	0.705981
Zn3	Zn	1.732692	0.205171	0.955981
Zn4	Zn	1.982692	0.455171	1.205981
Zn5	Zn	1.232600	-0.418678	0.321140
Zn6	Zn	1.482600	-0.168678	0.571140
Zn7	Zn	1.732600	0.081322	0.821140
Zn8	Zn	1.982600	0.331322	1.071140
Zn9	Zn	1.097854	-0.294855	0.321151
Zn10	Zn	1.347854	-0.044855	0.571151
Zn11	Zn	1.597854	0.205145	0.821151
Zn12	Zn	1.847854	0.455145	1.071151
Zn13	Zn	1.097829	-0.418634	0.455920
Zn14	Zn	1.347829	-0.168634	0.705920
Zn15	Zn	1.597829	0.081366	0.955920
Zn16	Zn	1.847829	0.331366	1.205920
O17	O	1.165243	-0.356749	0.388548
O18	O	1.415243	-0.106749	0.638548
O19	O	1.665243	0.143251	0.888548
O20	O	1.915243	0.393251	1.138548
O21	O	1.345512	-0.311266	0.438115
O22	O	1.595512	-0.061266	0.688115
O23	O	1.845512	0.188734	0.938115
O24	O	2.095512	0.438734	1.188115
O25	O	1.214697	-0.402283	0.208309
O26	O	1.464697	-0.152283	0.458309
O27	O	1.714697	0.097717	0.708309
O28	O	1.964697	0.347717	0.958309
O29	O	1.115789	-0.191219	0.339067
O30	O	1.365789	0.058781	0.589067
O31	O	1.615789	0.308781	0.839067
O32	O	1.865789	0.558781	1.089067
O33	O	1.345444	-0.402258	0.339048
O34	O	1.595444	-0.152258	0.589048
O35	O	1.845444	0.097742	0.839048
O36	O	2.095444	0.347742	1.089048
O37	O	1.214854	-0.191200	0.438126
O38	O	1.464854	0.058800	0.688126
O39	O	1.714854	0.308800	0.938126
O40	O	1.964854	0.558800	1.188126
O41	O	1.115700	-0.311310	0.208317
O42	O	1.365700	-0.061310	0.458317
O43	O	1.615700	0.188690	0.708317
O44	O	1.865700	0.438690	0.958317
O45	O	0.985018	-0.311267	0.339008
O46	O	1.235018	-0.061267	0.589008
O47	O	1.485018	0.188733	0.839008
O48	O	1.735018	0.438733	1.089008
O49	O	1.115747	-0.402181	0.568760
O50	O	1.365747	-0.152181	0.818760
O51	O	1.615747	0.097819	1.068760
O52	O	1.865747	0.347819	1.318760
O53	O	0.985000	-0.402206	0.438022
O54	O	1.235000	-0.152206	0.688022
O55	O	1.485000	0.097794	0.938022
O56	O	1.735000	0.347794	1.188022
O57	O	1.214830	-0.311223	0.568805
O58	O	1.464830	-0.061223	0.818805
O59	O	1.714830	0.188777	1.068805
O60	O	1.964830	0.438777	1.318805
O61	O	1.214673	-0.522305	0.338988
O62	O	1.464673	-0.272305	0.588988
O63	O	1.714673	-0.022305	0.838988
O64	O	1.964673	0.227695	1.088988
O65	O	1.115657	-0.522272	0.438010
O66	O	1.365657	-0.272272	0.688010
O67	O	1.615657	-0.022272	0.938010
O68	O	1.865657	0.227728	1.188010
C69	C	0.955753	-0.356735	0.388510
C70	C	1.205753	-0.106735	0.638510
C71	C	1.455753	0.143265	0.888510
C72	C	1.705753	0.393265	1.138510
C73	C	0.866131	-0.356746	0.388513
C74	C	1.116131	-0.106746	0.638513
C75	C	1.366131	0.143254	0.888513
C76	C	1.616131	0.393254	1.138513
C77	C	0.793349	-0.356748	0.388523
C78	C	1.043349	-0.106748	0.638523
C79	C	1.293349	0.143252	0.888523
C80	C	1.543349	0.393252	1.138523
C81	C	0.702041	-0.356752	0.388543
C82	C	0.952041	-0.106752	0.638543
C83	C	1.202041	0.143248	0.888543
C84	C	1.452041	0.393248	1.138543
C85	C	0.629264	-0.356759	0.388563
C86	C	0.879264	-0.106759	0.638563
C87	C	1.129264	0.143241	0.888563
C88	C	1.379264	0.393241	1.138563
C89	C	0.537950	-0.356764	0.388583
C90	C	0.787950	-0.106764	0.638583
C91	C	1.037950	0.143236	0.888583
C92	C	1.287950	0.393236	1.138583
C93	C	1.165174	-0.549160	0.388509
C94	C	1.415174	-0.299160	0.638509
C95	C	1.665174	-0.049160	0.888509
C96	C	1.915174	0.200840	1.138509
C97	C	1.165219	-0.631474	0.388519
C98	C	1.415219	-0.381474	0.638519
C99	C	1.665219	-0.131474	0.888519
C100	C	1.915219	0.118526	1.138519
C101	C	1.165322	-0.930565	0.388593
C102	C	1.415322	-0.680565	0.638593
C103	C	1.665322	-0.430565	0.888593
C104	C	1.915322	-0.180565	1.138593
C105	C	1.227446	-0.899230	0.326124
C106	C	1.477446	-0.649230	0.576124
C107	C	1.727446	-0.399230	0.826124
C108	C	1.977446	-0.149230	1.076124
C109	C	1.227661	-0.813611	0.326286
C110	C	1.477661	-0.563611	0.576286
C111	C	1.727661	-0.313611	0.826286
C112	C	1.977661	-0.063611	1.076286
C113	C	1.165271	-0.782182	0.388556
C114	C	1.415271	-0.532182	0.638556
C115	C	1.665271	-0.282182	0.888556
C116	C	1.915271	-0.032182	1.138556
C117	C	1.188307	-0.813188	0.473547
C118	C	1.438307	-0.563188	0.723547
C119	C	1.688307	-0.313188	0.973547
C120	C	1.938307	-0.063188	1.223547
C121	C	1.188788	-0.898833	0.473207
C122	C	1.438788	-0.648833	0.723207
C123	C	1.688788	-0.398833	0.973207
C124	C	1.938788	-0.148833	1.223207
C125	C	1.079995	-0.899074	0.366805
C126	C	1.329995	-0.649074	0.616805
C127	C	1.579995	-0.399074	0.866805
C128	C	1.829995	-0.149074	1.116805
C129	C	1.080417	-0.813425	0.364908
C130	C	1.330417	-0.563425	0.614908
C131	C	1.580417	-0.313425	0.864908
C132	C	1.830417	-0.063425	1.114908
C133	C	1.165240	-0.698323	0.388540
C134	C	1.415240	-0.448323	0.638540
C135	C	1.665240	-0.198323	0.888540
C136	C	1.915240	0.051677	1.138540
C137	C	1.165354	-1.014424	0.388614
C138	C	1.415354	-0.764424	0.638614
C139	C	1.665354	-0.514424	0.888614
C140	C	1.915354	-0.264424	1.138614
C141	C	1.375552	-0.356764	0.388587
C142	C	1.625552	-0.106764	0.638587
C143	C	1.875552	0.143236	0.888587
C144	C	2.125552	0.393236	1.138587
C145	C	1.465173	-0.356771	0.388603
C146	C	1.715173	-0.106771	0.638603
C147	C	1.965173	0.143229	0.888603
C148	C	2.215173	0.393229	1.138603
C149	C	1.165296	-0.356694	0.598857
C150	C	1.415296	-0.106694	0.848857
C151	C	1.665296	0.143306	1.098857
C152	C	1.915296	0.393306	1.348857
C153	C	1.165318	-0.356670	0.688478
C154	C	1.415318	-0.106670	0.938478
C155	C	1.665318	0.143330	1.188478
C156	C	1.915318	0.393330	1.438478
C157	C	1.165335	-0.163587	0.388605
C158	C	1.415335	0.086413	0.638605
C159	C	1.665335	0.336413	0.888605
C160	C	1.915335	0.586413	1.138605
C161	C	1.165373	-0.081273	0.388629
C162	C	1.415373	0.168727	0.638629
C163	C	1.665373	0.418727	0.888629
C164	C	1.915373	0.668727	1.138629
C165	C	1.165238	-0.356751	0.179057
C166	C	1.415238	-0.106751	0.429057
C167	C	1.665238	0.143249	0.679057
C168	C	1.915238	0.393249	0.929057
C169	C	1.165371	-0.356566	0.089437
C170	C	1.415371	-0.106566	0.339437
C171	C	1.665371	0.143434	0.589437
C172	C	1.915371	0.393434	0.839437
C173	C	1.165355	-0.356588	1.016654
C174	C	1.415355	-0.106588	1.266654
C175	C	1.665355	0.143412	1.516654
C176	C	1.915355	0.393412	1.766654
C177	C	1.165343	-0.356613	0.925346
C178	C	1.415343	-0.106613	1.175346
C179	C	1.665343	0.143387	1.425346
C180	C	1.915343	0.393387	1.675346
C181	C	1.165337	-0.356630	0.852569
C182	C	1.415337	-0.106630	1.102569
C183	C	1.665337	0.143370	1.352569
C184	C	1.915337	0.393370	1.602569
C185	C	1.165324	-0.356654	0.761255
C186	C	1.415324	-0.106654	1.011255
C187	C	1.665324	0.143346	1.261255
C188	C	1.915324	0.393346	1.511255
H189	H	1.213249	-0.792651	0.263266
H190	H	1.463249	-0.542651	0.513266
H191	H	1.713249	-0.292651	0.763266
H192	H	1.963249	-0.042651	1.013266
H193	H	1.213208	-0.919874	0.262915
H194	H	1.463208	-0.669874	0.512915
H195	H	1.713208	-0.419874	0.762915
H196	H	1.963208	-0.169874	1.012915
H197	H	1.059039	-0.920736	0.305904
H198	H	1.309039	-0.670736	0.555904
H199	H	1.559039	-0.420736	0.805904
H200	H	1.809039	-0.170736	1.055904
H201	H	1.251157	-0.918751	0.491662
H202	H	1.501157	-0.668751	0.741662
H203	H	1.751157	-0.418751	0.991662
H204	H	2.001157	-0.168751	1.241662
O205	O	1.059794	-0.789164	0.290299
O206	O	1.309794	-0.539164	0.540299
O207	O	1.559794	-0.289164	0.790299
O208	O	1.809794	-0.039164	1.040299
C209	C	1.121811	-0.744170	0.259561
C210	C	1.371811	-0.494170	0.509561
C211	C	1.621811	-0.244170	0.759561
C212	C	1.871811	0.005830	1.009561
H213	H	1.158787	-0.720858	0.311464
H214	H	1.408787	-0.470858	0.561464
H215	H	1.658787	-0.220858	0.811464
H216	H	1.908787	0.029142	1.061464
H217	H	1.094481	-0.696794	0.223618
H218	H	1.344481	-0.446794	0.473618
H219	H	1.594481	-0.196794	0.723618
H220	H	1.844481	0.053206	0.973618
H221	H	1.162314	-0.778473	0.218745
H222	H	1.412314	-0.528473	0.468745
H223	H	1.662314	-0.278473	0.718745
H224	H	1.912314	-0.028473	0.968745
O225	O	1.302391	-0.924884	0.343246
O226	O	1.552391	-0.674884	0.593246
O227	O	1.802391	-0.424884	0.843246
O228	O	2.052391	-0.174884	1.093246
C229	C	1.298922	-0.971071	0.411417
C230	C	1.548922	-0.721071	0.661417
C231	C	1.798922	-0.471071	0.911417
C232	C	2.048922	-0.221071	1.161417
H233	H	1.243403	-0.956763	0.448495
H234	H	1.493403	-0.706763	0.698495
H235	H	1.743403	-0.456763	0.948495
H236	H	1.993403	-0.206763	1.198495
H237	H	1.355188	-0.962579	0.449535
H238	H	1.605188	-0.712579	0.699535
H239	H	1.855188	-0.462579	0.949535
H240	H	2.105188	-0.212579	1.199535
H241	H	1.295370	-1.031217	0.391347
H242	H	1.545370	-0.781217	0.641347
H243	H	1.795370	-0.531217	0.891347
H244	H	2.045370	-0.281217	1.141347
H245	H	1.031640	-0.792038	0.407075
H246	H	1.281640	-0.542038	0.657075
H247	H	1.531640	-0.292038	0.907075
H248	H	1.781640	-0.042038	1.157075
H249	H	1.145521	-0.919558	0.521356
H250	H	1.395521	-0.669558	0.771356
H251	H	1.645521	-0.419558	1.021356
H252	H	1.895521	-0.169558	1.271356
O253	O	1.261858	-0.787580	0.496077
O254	O	1.511858	-0.537580	0.746077
O255	O	1.761858	-0.287580	0.996077
O256	O	2.011858	-0.037580	1.246077
C257	C	1.281644	-0.815966	0.572520
C258	C	1.531644	-0.565966	0.822520
C259	C	1.781644	-0.315966	1.072520
C260	C	2.031644	-0.065966	1.322520
H261	H	1.224215	-0.831954	0.605669
H262	H	1.474215	-0.581954	0.855669
H263	H	1.724215	-0.331954	1.105669
H264	H	1.974215	-0.081954	1.355669
H265	H	1.315257	-0.772110	0.608521
H266	H	1.565257	-0.522110	0.858521
H267	H	1.815257	-0.272110	1.108521
H268	H	2.065257	-0.022110	1.358521
H269	H	1.321461	-0.866786	0.565186
H270	H	1.571461	-0.616786	0.815186
H271	H	1.821461	-0.366786	1.065186
H272	H	2.071461	-0.116786	1.315186
O273	O	1.303080	-0.789062	0.343347
O274	O	1.553080	-0.539062	0.593347
O275	O	1.803080	-0.289062	0.843347
O276	O	2.053080	-0.039062	1.093347
C277	C	1.331646	-0.745841	0.278867
C278	C	1.581646	-0.495841	0.528867
C279	C	1.831646	-0.245841	0.778867
C280	C	2.081646	0.004159	1.028867
H281	H	1.298057	-0.761468	0.221534
H282	H	1.548057	-0.511468	0.471534
H283	H	1.798057	-0.261468	0.721534
H284	H	2.048057	-0.011468	0.971534
H285	H	1.398723	-0.756225	0.270282
H286	H	1.648723	-0.506225	0.520282
H287	H	1.898723	-0.256225	0.770282
H288	H	2.148723	-0.006225	1.020282
H289	H	1.321259	-0.684884	0.292645
H290	H	1.571259	-0.434884	0.542645
H291	H	1.821259	-0.184884	0.792645
H292	H	2.071259	0.065116	1.042645
H293	H	1.033708	-0.919339	0.412304
H294	H	1.283708	-0.669339	0.662304
H295	H	1.533708	-0.419339	0.912304
H296	H	1.783708	-0.169339	1.162304
O297	O	1.135931	-0.788805	0.530479
O298	O	1.385931	-0.538805	0.780479
O299	O	1.635931	-0.288805	1.030479
O300	O	1.885931	-0.038805	1.280479
C301	C	1.077495	-0.743262	0.494200
C302	C	1.327495	-0.493262	0.744200
C303	C	1.577495	-0.243262	0.994200
C304	C	1.827495	0.006738	1.244200
H305	H	1.102337	-0.719872	0.435604
H306	H	1.352337	-0.469872	0.685604
H307	H	1.602337	-0.219872	0.935604
H308	H	1.852337	0.030128	1.185604
H309	H	1.061715	-0.695955	0.536639
H310	H	1.311715	-0.445955	0.786639
H311	H	1.561715	-0.195955	1.036639
H312	H	1.811715	0.054045	1.286639
H313	H	1.021181	-0.777131	0.481022
H314	H	1.271181	-0.527131	0.731022
H315	H	1.521181	-0.277131	0.981022
H316	H	1.771181	-0.027131	1.231022
