data_functionalizedCrystal
_audit_creation_method	'MofGen! by Chris Wilmer'
_symmetry_space_group_name_H-M	'P1'
_symmetry_Int_Tables_number	1
_symmetry_cell_setting	triclinic
loop_
_symmetry_equiv_pos_as_xyz
  x,y,z
_cell_length_a	21.395362
_cell_length_b	12.759394
_cell_length_c	21.395355
_cell_angle_alpha	89.987117
_cell_angle_beta	89.956060
_cell_angle_gamma	90.029736
loop_
_atom_site_label
_atom_site_type_symbol
_atom_site_fract_x
_atom_site_fract_y
_atom_site_fract_z
Zn1	Zn	0.957933	-0.417943	-0.354610
Zn2	Zn	1.457933	0.082057	0.145390
Zn3	Zn	0.957866	-0.593608	-0.249843
Zn4	Zn	1.457866	-0.093608	0.250157
Zn5	Zn	0.853148	-0.417992	-0.249811
Zn6	Zn	1.353148	0.082008	0.250189
Zn7	Zn	0.853148	-0.593629	-0.354548
Zn8	Zn	1.353148	-0.093629	0.145452
O9	O	0.905524	-0.505793	-0.302203
O10	O	1.405524	-0.005793	0.197797
O11	O	1.045602	-0.441216	-0.340752
O12	O	1.545602	0.058784	0.159248
O13	O	0.943947	-0.570323	-0.162161
O14	O	1.443947	-0.070323	0.337839
O15	O	0.867076	-0.270964	-0.263726
O16	O	1.367076	0.229036	0.236274
O17	O	1.045553	-0.570276	-0.263780
O18	O	1.545553	-0.070276	0.236220
O19	O	0.944061	-0.270928	-0.340721
O20	O	1.444061	0.229072	0.159279
O21	O	0.867011	-0.441299	-0.162138
O22	O	1.367011	0.058701	0.337862
O23	O	0.765470	-0.441320	-0.263666
O24	O	1.265470	0.058680	0.236334
O25	O	0.867076	-0.570313	-0.442234
O26	O	1.367076	-0.070313	0.057766
O27	O	0.765470	-0.570360	-0.340615
O28	O	1.265470	-0.070360	0.159385
O29	O	0.944061	-0.441237	-0.442280
O30	O	1.444061	0.058763	0.057720
O31	O	0.943947	-0.740631	-0.263719
O32	O	1.443947	-0.240631	0.236281
O33	O	0.867011	-0.740647	-0.340645
O34	O	1.367011	-0.240647	0.159355
C35	C	0.742736	-0.505848	-0.302130
C36	C	1.242736	-0.005848	0.197870
C37	C	0.673095	-0.505897	-0.302114
C38	C	1.173095	-0.005897	0.197886
C39	C	0.905489	-0.778760	-0.302193
C40	C	1.405489	-0.278760	0.197807
C41	C	0.905531	-0.895537	-0.302209
C42	C	1.405531	-0.395537	0.197791
C43	C	0.640398	-0.573178	-0.342122
C44	C	1.140398	-0.073178	0.157878
C45	C	0.574963	-0.573152	-0.342150
C46	C	1.074963	-0.073152	0.157850
C47	C	0.542226	-0.505857	-0.302159
C48	C	1.042226	-0.005857	0.197841
C49	C	0.574931	-0.438564	-0.262148
C50	C	1.074931	0.061436	0.237852
C51	C	0.640365	-0.438584	-0.262126
C52	C	1.140365	0.061416	0.237874
C53	C	0.438500	-0.497393	-0.245753
C54	C	0.938500	0.002607	0.254247
C55	C	0.373067	-0.497380	-0.245774
C56	C	0.873067	0.002620	0.254226
C57	C	0.340406	-0.505788	-0.302228
C58	C	0.840406	-0.005788	0.197772
C59	C	0.373185	-0.514231	-0.358662
C60	C	0.873185	-0.014231	0.141338
C61	C	0.438619	-0.514252	-0.358640
C62	C	0.938619	-0.014252	0.141360
C63	C	0.471274	-0.505827	-0.302179
C64	C	0.971274	-0.005827	0.197821
C65	C	0.236756	-0.573044	-0.342269
C66	C	0.736756	-0.073044	0.157731
C67	C	0.171320	-0.573011	-0.342298
C68	C	0.671320	-0.073011	0.157702
C69	C	0.171290	-0.438429	-0.262291
C70	C	0.671290	0.061571	0.237709
C71	C	0.236725	-0.438456	-0.262268
C72	C	0.736725	0.061544	0.237732
C73	C	0.269454	-0.505770	-0.302256
C74	C	0.769454	-0.005770	0.197744
C75	C	0.985636	-0.895341	-0.382444
C76	C	1.485636	-0.395341	0.117556
C77	C	1.025708	-0.950104	-0.422567
C78	C	1.525708	-0.450104	0.077433
C79	C	1.025745	-1.059826	-0.422580
C80	C	1.525745	-0.559826	0.077420
C81	C	0.985705	-1.114787	-0.382468
C82	C	1.485705	-0.614787	0.117532
C83	C	0.945633	-1.060024	-0.342346
C84	C	1.445633	-0.560024	0.157654
C85	C	0.945601	-0.950300	-0.342336
C86	C	1.445601	-0.450300	0.157664
C87	C	0.865526	-1.060220	-0.262115
C88	C	1.365526	-0.560220	0.237885
C89	C	0.865491	-0.950498	-0.262097
C90	C	1.365491	-0.450498	0.237903
C91	C	0.825485	-1.115181	-0.222003
C92	C	1.325485	-0.615181	0.277997
C93	C	0.785415	-1.060418	-0.181877
C94	C	1.285415	-0.560418	0.318123
C95	C	0.785380	-0.950690	-0.181865
C96	C	1.285380	-0.450690	0.318135
C97	C	0.825419	-0.895735	-0.221975
C98	C	1.325419	-0.395735	0.278025
C99	C	1.068947	-0.505738	-0.302276
C100	C	1.568947	-0.005738	0.197724
C101	C	1.138588	-0.505714	-0.302308
C102	C	1.638588	-0.005714	0.197692
C103	C	0.905576	-0.505772	-0.465626
C104	C	1.405576	-0.005772	0.034374
C105	C	0.905598	-0.505762	-0.535268
C106	C	1.405598	-0.005762	-0.035268
C107	C	0.905576	-0.231759	-0.302227
C108	C	1.405576	0.268241	0.197773
C109	C	0.905598	-0.114983	-0.302237
C110	C	1.405598	0.385017	0.197763
C111	C	0.945682	-0.438550	-0.568006
C112	C	1.445682	0.061450	-0.068006
C113	C	0.945681	-0.438505	-0.633441
C114	C	1.445681	0.061495	-0.133441
C115	C	0.905603	-0.505691	-0.666136
C116	C	1.405603	-0.005691	-0.166136
C117	C	0.865510	-0.572908	-0.633390
C118	C	1.365510	-0.072908	-0.133390
C119	C	0.865508	-0.572944	-0.567956
C120	C	1.365508	-0.072944	-0.067956
C121	C	0.900643	-0.600292	-0.769806
C122	C	1.400643	-0.100292	-0.269806
C123	C	0.900650	-0.600258	-0.835239
C124	C	1.400650	-0.100258	-0.335239
C125	C	0.905607	-0.505580	-0.867957
C126	C	1.405607	-0.005580	-0.367957
C127	C	0.910569	-0.410933	-0.835234
C128	C	1.410569	0.089067	-0.335234
C129	C	0.910567	-0.410968	-0.769800
C130	C	1.410567	0.089032	-0.269800
C131	C	0.905601	-0.505659	-0.737089
C132	C	1.405601	-0.005659	-0.237089
C133	C	0.945692	-0.438313	-0.971648
C134	C	1.445692	0.061687	-0.471648
C135	C	0.945687	-0.438266	-1.037084
C136	C	1.445687	0.061734	-0.537084
C137	C	0.865519	-0.572679	-1.037032
C138	C	1.365519	-0.072679	-0.537032
C139	C	0.865521	-0.572716	-0.971597
C140	C	1.365521	-0.072716	-0.471597
C141	C	0.905611	-0.505535	-0.938908
C142	C	1.405611	-0.005535	-0.438908
C143	C	0.905508	-0.505738	-0.139415
C144	C	1.405508	-0.005738	0.360585
C145	C	0.905607	-0.505451	-0.069775
C146	C	1.405607	-0.005451	0.430225
H147	H	0.667042	-0.627988	-0.374684
H148	H	1.167042	-0.127988	0.125316
H149	H	0.548273	-0.383770	-0.229589
H150	H	1.048273	0.116230	0.270411
C151	C	0.825522	-1.235871	-0.222016
C152	C	1.325522	-0.735871	0.277984
H153	H	0.795934	-1.260758	-0.192385
H154	H	1.295934	-0.760758	0.307615
H155	H	0.865966	-1.260631	-0.211231
H156	H	1.365966	-0.760631	0.288769
H157	H	0.814676	-1.260684	-0.262441
H158	H	1.314676	-0.760684	0.237559
C159	C	1.069739	-0.889651	-0.466699
C160	C	1.569739	-0.389651	0.033301
H161	H	1.093602	-0.937982	-0.490602
H162	H	1.593602	-0.437982	0.009398
H163	H	1.097038	-0.846806	-0.442770
H164	H	1.597038	-0.346806	0.057230
H165	H	1.045732	-0.846885	-0.493965
H166	H	1.545732	-0.346885	0.006035
H167	H	0.752815	-1.105176	-0.149224
H168	H	1.252815	-0.605176	0.350776
H169	H	0.263347	-0.383675	-0.229686
H170	H	0.763347	0.116325	0.270314
C171	C	0.337016	-0.488092	-0.183701
C172	C	0.837016	0.011908	0.316299
H173	H	0.365838	-0.483067	-0.150077
H174	H	0.865838	0.016933	0.349923
H175	H	0.311458	-0.548280	-0.178135
H176	H	0.811458	-0.048280	0.321865
H177	H	0.311517	-0.427179	-0.184591
H178	H	0.811517	0.072821	0.315409
C179	C	0.821437	-0.646589	-1.072988
C180	C	1.321437	-0.146589	-0.572988
H181	H	0.827183	-0.636949	-1.116648
H182	H	1.327183	-0.136949	-0.616648
H183	H	0.779341	-0.631243	-1.062234
H184	H	1.279341	-0.131243	-0.562234
H185	H	0.830602	-0.717184	-1.062274
H186	H	1.330602	-0.217184	-0.562274
C187	C	0.989778	-0.364400	-0.935688
C188	C	1.489778	0.135600	-0.435688
H189	H	1.013643	-0.324349	-0.964560
H190	H	1.513643	0.175651	-0.464560
H191	H	1.017072	-0.404586	-0.910183
H192	H	1.517072	0.095414	-0.410183
H193	H	0.965809	-0.318647	-0.910143
H194	H	1.465809	0.181353	-0.410143
C195	C	0.989783	-0.364328	-1.073096
C196	C	1.489783	0.135672	-0.573096
H197	H	1.013660	-0.324333	-1.044254
H198	H	1.513660	0.175667	-0.544254
H199	H	0.965828	-0.318540	-1.098601
H200	H	1.465828	0.181460	-0.598601
H201	H	1.017074	-0.404506	-1.098645
H202	H	1.517074	0.095494	-0.598645
C203	C	0.821433	-0.646659	-0.935583
C204	C	1.321433	-0.146659	-0.435583
H205	H	0.797565	-0.686672	-0.964425
H206	H	1.297565	-0.186672	-0.464425
H207	H	0.794141	-0.606493	-0.910034
H208	H	1.294141	-0.106493	-0.410034
H209	H	0.845394	-0.692446	-0.910078
H210	H	1.345394	-0.192446	-0.410078
C211	C	0.985597	-0.774651	-0.382431
C212	C	1.485597	-0.274651	0.117569
H213	H	1.015178	-0.749762	-0.412068
H214	H	1.515178	-0.249762	0.087932
H215	H	0.996437	-0.749835	-0.342008
H216	H	1.496437	-0.249835	0.157992
H217	H	0.945150	-0.749897	-0.393222
H218	H	1.445150	-0.249897	0.106778
C219	C	0.895199	-0.704362	-0.871230
C220	C	1.395199	-0.204362	-0.371230
H221	H	0.895921	-0.690784	-0.914886
H222	H	1.395921	-0.190784	-0.414886
H223	H	0.857049	-0.737977	-0.860485
H224	H	1.357049	-0.237977	-0.360485
H225	H	0.929278	-0.748547	-0.860530
H226	H	1.429278	-0.248547	-0.360530
C227	C	0.895054	-0.704425	-0.733821
C228	C	1.395054	-0.204425	-0.233821
H229	H	0.892067	-0.760780	-0.762680
H230	H	1.392067	-0.260780	-0.262680
H231	H	0.858702	-0.702935	-0.708319
H232	H	1.358702	-0.202935	-0.208319
H233	H	0.930915	-0.713800	-0.708272
H234	H	1.430915	-0.213800	-0.208272
H235	H	0.752746	-0.906107	-0.149195
H236	H	1.252746	-0.406107	0.350805
C237	C	0.676333	-0.364579	-0.218113
C238	C	1.176333	0.135421	0.281887
H239	H	0.647467	-0.324497	-0.194297
H240	H	1.147467	0.175503	0.305703
H241	H	0.701908	-0.318873	-0.242116
H242	H	1.201908	0.181127	0.257884
H243	H	0.701808	-0.404718	-0.190760
H244	H	1.201808	0.095282	0.309240
H245	H	0.465088	-0.490542	-0.199779
H246	H	0.965088	0.009458	0.300221
H247	H	0.832876	-0.627608	-0.660015
H248	H	1.332876	-0.127608	-0.160015
H249	H	0.346594	-0.521076	-0.404632
H250	H	0.846594	-0.021076	0.095368
C251	C	0.825379	-0.775045	-0.221967
C252	C	1.325379	-0.275045	0.278033
H253	H	0.854959	-0.750159	-0.251606
H254	H	1.354959	-0.250159	0.248394
H255	H	0.836218	-0.750221	-0.181546
H256	H	1.336218	-0.250221	0.318454
H257	H	0.784931	-0.750295	-0.232760
H258	H	1.284931	-0.250295	0.267240
H259	H	1.058369	-1.104414	-0.455258
H260	H	1.558369	-0.604414	0.044742
C261	C	0.821422	-0.646896	-0.531943
C262	C	1.321422	-0.146896	-0.031943
H263	H	0.797555	-0.686911	-0.560784
H264	H	1.297555	-0.186911	-0.060784
H265	H	0.794130	-0.606740	-0.506388
H266	H	1.294130	-0.106740	-0.006388
H267	H	0.845391	-0.692681	-0.506444
H268	H	1.345391	-0.192681	-0.006444
H269	H	0.144699	-0.627797	-0.374881
H270	H	0.644699	-0.127797	0.125119
H271	H	0.465306	-0.521123	-0.404590
H272	H	0.965306	-0.021123	0.095410
C273	C	0.135291	-0.364400	-0.218303
C274	C	0.635291	0.135600	0.281697
H275	H	0.164138	-0.324329	-0.194473
H276	H	0.664138	0.175671	0.305527
H277	H	0.109715	-0.404509	-0.190972
H278	H	0.609715	0.095491	0.309028
H279	H	0.109814	-0.318670	-0.242332
H280	H	0.609814	0.181330	0.257668
H281	H	0.548336	-0.627939	-0.374731
H282	H	1.048336	-0.127939	0.125269
C283	C	0.985744	-1.235477	-0.382486
C284	C	1.485744	-0.735477	0.117514
H285	H	1.015345	-1.260220	-0.412125
H286	H	1.515345	-0.760220	0.087875
H287	H	0.945315	-1.260363	-0.393274
H288	H	1.445315	-0.760363	0.106726
H289	H	0.996609	-1.260307	-0.342067
H290	H	1.496609	-0.760307	0.157933
C291	C	0.272762	-0.647073	-0.386260
C292	C	0.772762	-0.147073	0.113740
H293	H	0.243914	-0.687129	-0.410099
H294	H	0.743914	-0.187129	0.089901
H295	H	0.298241	-0.692801	-0.362239
H296	H	0.798241	-0.192801	0.137761
H297	H	0.298335	-0.606950	-0.413592
H298	H	0.798335	-0.106950	0.086408
C299	C	0.916018	-0.306869	-0.733805
C300	C	1.416018	0.193131	-0.233805
H301	H	0.915310	-0.320455	-0.690150
H302	H	1.415310	0.179545	-0.190150
H303	H	0.881943	-0.262681	-0.744500
H304	H	1.381943	0.237319	-0.244500
H305	H	0.954172	-0.273254	-0.744551
H306	H	1.454172	0.226746	-0.244551
H307	H	0.914606	-0.333837	-0.861872
H308	H	1.414606	0.166163	-0.361872
C309	C	0.989774	-0.364645	-0.532052
C310	C	1.489774	0.135355	-0.032052
H311	H	1.013643	-0.324602	-0.560925
H312	H	1.513643	0.175398	-0.060925
H313	H	1.017064	-0.404837	-0.506547
H314	H	1.517064	0.095163	-0.006547
H315	H	0.965811	-0.318883	-0.506508
H316	H	1.465811	0.181117	-0.006508
H317	H	0.978322	-0.383766	-0.660102
H318	H	1.478322	0.116234	-0.160102
