data_functionalizedCrystal
_audit_creation_method	'MofGen! by Chris Wilmer'
_symmetry_space_group_name_H-M	'P1'
_symmetry_Int_Tables_number	1
_symmetry_cell_setting	triclinic
loop_
_symmetry_equiv_pos_as_xyz
  x,y,z
_cell_length_a	10.723024
_cell_length_b	10.723022
_cell_length_c	13.101032
_cell_angle_alpha	93.392665
_cell_angle_beta	93.394933
_cell_angle_gamma	95.532452
loop_
_atom_site_label
_atom_site_type_symbol
_atom_site_fract_x
_atom_site_fract_y
_atom_site_fract_z
O1	O	-1.664003	0.168202	-0.085220
O2	O	-1.164003	0.668202	0.414780
O3	O	-1.300850	0.184956	-0.085220
O4	O	-0.800850	0.684956	0.414780
O5	O	-1.490804	-0.004997	-0.085217
O6	O	-0.990804	0.495003	0.414783
O7	O	-1.474049	0.358155	-0.085224
O8	O	-0.974049	0.858155	0.414776
O9	O	-1.477158	0.008646	0.085213
O10	O	-0.977158	0.508646	0.585213
O11	O	-1.287204	0.198599	0.085210
O12	O	-0.787204	0.698599	0.585210
O13	O	-1.650357	0.181846	0.085210
O14	O	-1.150357	0.681846	0.585210
Zn15	Zn	-1.466614	0.192388	0.112269
Zn16	Zn	-0.966614	0.692388	0.612269
Zn17	Zn	-1.484593	0.174413	-0.112280
Zn18	Zn	-0.984593	0.674413	0.387720
O19	O	-1.460403	0.371798	0.085206
O20	O	-0.960403	0.871798	0.585206
C21	C	-1.247528	0.190558	-0.000005
C22	C	-0.747528	0.690558	0.499995
C23	C	-1.108973	0.186910	-0.000005
C24	C	-0.608973	0.686910	0.499995
C25	C	-0.917217	0.073603	-0.000003
C26	C	-0.417217	0.573603	0.499997
C27	C	-1.060420	0.077371	-0.000003
C28	C	-0.560420	0.577371	0.499997
C29	C	-1.482762	-0.044675	-0.000003
C30	C	-0.982762	0.455325	0.499997
C31	C	-1.479115	-0.183230	-0.000006
C32	C	-0.979115	0.316770	0.499994
C33	C	-0.703679	0.176243	-0.000005
C34	C	-0.203679	0.676243	0.499995
C35	C	-0.842233	0.179891	-0.000005
C36	C	-0.342233	0.679891	0.499995
C37	C	-1.369576	-0.231791	-0.000008
C38	C	-0.869576	0.268209	0.499992
C39	C	-1.365804	-0.374994	-0.000012
C40	C	-0.865804	0.125006	0.499988
C41	C	-1.468445	0.411476	-0.000010
C42	C	-0.968445	0.911476	0.499990
C43	C	-1.472092	0.550030	-0.000013
C44	C	-0.972092	1.050030	0.499987
N45	N	-1.454353	0.204656	0.265518
N46	N	-0.954353	0.704656	0.765518
C47	C	-1.513532	0.145456	0.525428
C48	C	-1.013532	0.645456	1.025428
C49	C	-1.437682	0.221347	0.474554
C50	C	-0.937682	0.721347	0.974554
C51	C	-1.446960	0.212057	0.358236
C52	C	-0.946960	0.712057	0.858236
C53	C	-1.504255	0.154744	0.641758
C54	C	-1.004255	0.654744	1.141758
N55	N	-1.496857	0.162151	0.734471
N56	N	-0.996857	0.662151	1.234471
H57	H	-1.124853	-0.013620	-0.000008
H58	H	-0.624853	0.486380	0.499992
H59	H	-1.044548	0.277905	-0.000011
H60	H	-0.544548	0.777905	0.499989
F61	F	-0.896890	0.302481	-0.000001
F62	F	-0.396890	0.802481	0.499999
H63	H	-1.585434	0.073513	0.481630
H64	H	-1.085434	0.573513	0.981630
H65	H	-1.272017	-0.416807	-0.000019
H66	H	-0.772017	0.083193	0.499981
F67	F	-0.862559	-0.048986	0.000006
F68	F	-0.362559	0.451014	0.500006
H69	H	-1.570104	-0.247672	-0.000003
H70	H	-1.070104	0.252328	0.499997
H71	H	-1.365777	0.293296	0.518358
H72	H	-0.865777	0.793296	1.018358
H73	H	-1.565887	-0.408169	-0.000050
H74	H	-1.065887	0.091831	0.499950
F75	F	-1.250641	-0.147566	-0.000001
F76	F	-0.750641	0.352434	0.499999
