data_functionalizedCrystal
_audit_creation_method	'MofGen! by Chris Wilmer'
_symmetry_space_group_name_H-M	'P1'
_symmetry_Int_Tables_number	1
_symmetry_cell_setting	triclinic
loop_
_symmetry_equiv_pos_as_xyz
  x,y,z
_cell_length_a	19.121424
_cell_length_b	19.121063
_cell_length_c	13.033255
_cell_angle_alpha	99.873279
_cell_angle_beta	84.912480
_cell_angle_gamma	94.804615
loop_
_atom_site_label
_atom_site_type_symbol
_atom_site_fract_x
_atom_site_fract_y
_atom_site_fract_z
Zn1	Zn	1.107777	-0.278253	-0.538418
Zn2	Zn	1.088998	-0.382266	-0.371451
Zn3	Zn	0.976447	-0.269639	-0.371452
Zn4	Zn	0.986323	-0.402174	-0.553896
O5	O	1.039886	-0.333083	-0.458804
O6	O	1.203218	-0.287324	-0.509791
O7	O	1.062076	-0.355389	-0.225222
O8	O	0.997593	-0.171785	-0.387124
O9	O	1.189421	-0.363742	-0.387121
O10	O	1.094081	-0.178114	-0.509792
O11	O	0.979385	-0.272643	-0.225223
O12	O	0.879825	-0.291947	-0.402132
O13	O	1.014426	-0.397672	-0.698072
O14	O	0.887081	-0.389319	-0.536172
O15	O	1.103658	-0.306627	-0.686700
O16	O	1.071653	-0.483903	-0.402130
O17	O	0.996218	-0.498529	-0.536171
C18	C	0.858060	-0.341859	-0.470832
C19	C	0.780276	-0.345633	-0.476004
C20	C	0.340539	-0.369505	-0.508831
C21	C	0.413624	-0.365963	-0.503952
C22	C	0.446378	-0.313431	-0.431832
C23	C	0.406041	-0.264443	-0.364578
C24	C	0.332957	-0.267989	-0.369452
C25	C	0.666855	-0.300190	-0.413624
C26	C	0.739945	-0.296647	-0.408757
C27	C	0.747523	-0.398168	-0.548131
C28	C	0.674437	-0.401706	-0.553003
C29	C	0.634107	-0.352720	-0.485746
C30	C	0.521082	-0.309808	-0.426846
C31	C	0.559403	-0.356347	-0.490727
C32	C	1.032990	-0.516886	-0.470851
C33	C	1.030107	-0.595517	-0.476036
C34	C	1.068067	-0.624823	-0.408736
C35	C	1.065360	-0.698706	-0.413618
C36	C	1.024689	-0.743282	-0.485795
C37	C	0.986728	-0.713972	-0.553102
C38	C	0.989439	-0.640090	-0.548224
C39	C	1.014539	-0.966740	-0.504016
C40	C	1.011829	-1.040626	-0.508886
C41	C	1.090463	-1.025355	-0.369404
C42	C	1.093167	-0.951472	-0.364528
C43	C	1.055209	-0.922169	-0.431838
C44	C	1.021919	-0.818803	-0.490785
C45	C	1.057983	-0.846650	-0.426853
C46	C	1.222422	-0.324273	-0.446730
C47	C	1.300208	-0.320519	-0.441584
C48	C	1.062238	-0.355331	-0.731362
C49	C	1.071764	-0.364812	-0.847510
C50	C	1.046830	-0.148563	-0.446732
C51	C	1.049789	-0.069932	-0.441587
C52	C	1.044945	-0.337894	-1.019341
C53	C	1.035095	-0.328094	-0.899297
C54	C	1.017663	-0.310868	-0.187301
C55	C	1.008281	-0.301182	-0.071132
H56	H	0.446458	-0.405854	-0.558709
H57	H	1.110450	-0.403500	-0.892037
O58	O	0.962084	-0.255118	-1.017908
C59	C	0.910214	-0.292463	-0.960426
H60	H	0.931555	-0.343567	-0.946055
H61	H	0.895663	-0.257878	-0.882370
H62	H	0.861482	-0.306143	-1.006370
O63	O	0.308835	-0.420595	-0.578926
C64	C	0.360110	-0.463059	-0.637251
H65	H	0.408594	-0.459444	-0.591123
H66	H	0.337812	-0.520732	-0.653328
H67	H	0.375385	-0.443341	-0.714463
H68	H	0.647774	-0.444484	-0.611729
H69	H	0.958529	-0.616231	-0.603028
H70	H	0.953616	-0.750272	-0.611874
O71	O	1.091182	-0.384000	-1.072337
C72	C	1.159351	-0.363007	-1.040134
H73	H	1.155368	-0.329317	-0.958989
H74	H	1.188515	-0.412255	-1.037773
H75	H	1.189291	-0.330475	-1.097599
O76	O	0.988994	-0.281944	-0.846019
C77	C	0.989412	-0.282442	-0.738023
H78	H	1.041342	-0.301804	-0.721158
H79	H	0.983273	-0.226314	-0.693318
H80	H	0.943960	-0.319608	-0.712265
O81	O	0.977700	-0.938371	-0.569536
C82	C	1.000824	-0.964138	-0.673885
H83	H	1.025946	-1.016633	-0.677842
H84	H	0.954029	-0.972966	-0.724181
H85	H	1.041194	-0.923653	-0.704012
H86	H	0.780367	-0.438050	-0.602887
H87	H	1.091100	-0.810354	-0.368090
O88	O	0.771645	-0.245598	-0.338589
C89	C	0.720379	-0.203114	-0.280281
H90	H	0.666892	-0.234309	-0.281973
H91	H	0.735012	-0.187752	-0.196059
H92	H	0.717777	-0.152929	-0.315659
H93	H	0.432714	-0.221674	-0.305851
O94	O	0.627655	-0.252710	-0.348146
C95	C	0.578331	-0.289473	-0.286022
H96	H	0.597733	-0.343589	-0.281690
H97	H	0.571891	-0.257314	-0.204015
H98	H	0.525487	-0.297245	-0.322124
H99	H	0.300120	-0.228097	-0.314695
O100	O	0.982310	-0.862027	-0.560842
C101	C	0.911348	-0.845555	-0.541328
H102	H	0.908590	-0.788715	-0.497712
H103	H	0.886199	-0.850706	-0.618616
H104	H	0.881875	-0.883923	-0.491877
H105	H	1.101182	-0.588533	-0.349958
O106	O	0.527678	-0.407344	-0.560925
C107	C	0.554663	-0.399614	-0.662913
H108	H	0.608932	-0.370037	-0.659828
H109	H	0.559085	-0.454411	-0.712836
H110	H	0.517794	-0.368146	-0.698546
O111	O	0.552828	-0.258689	-0.356838
C112	C	0.539521	-0.190948	-0.376435
H113	H	0.489816	-0.195372	-0.420056
H114	H	0.532016	-0.153119	-0.299180
H115	H	0.585970	-0.169575	-0.425913
H116	H	1.096270	-0.722563	-0.358815
H117	H	1.121367	-1.049223	-0.314605
O118	O	1.132725	-0.908103	-0.294557
C119	C	1.184356	-0.868001	-0.348296
H120	H	1.166529	-0.864592	-0.428364
H121	H	1.192169	-0.812122	-0.301697
H122	H	1.236118	-0.894859	-0.358281
H123	H	0.978720	-1.076920	-0.567679
