data_functionalizedCrystal
_audit_creation_method	'MofGen! by Chris Wilmer'
_symmetry_space_group_name_H-M	'P1'
_symmetry_Int_Tables_number	1
_symmetry_cell_setting	triclinic
loop_
_symmetry_equiv_pos_as_xyz
  x,y,z
_cell_length_a	10.685976
_cell_length_b	12.759393
_cell_length_c	10.686409
_cell_angle_alpha	85.699167
_cell_angle_beta	90.276248
_cell_angle_gamma	94.348702
loop_
_atom_site_label
_atom_site_type_symbol
_atom_site_fract_x
_atom_site_fract_y
_atom_site_fract_z
Zn1	Zn	1.972550	0.579471	-0.561844
Zn2	Zn	1.956196	0.740892	-0.352126
Zn3	Zn	1.746561	0.552881	-0.368242
Zn4	Zn	1.762771	0.742751	-0.577924
O5	O	1.859519	0.653999	-0.465034
O6	O	2.145907	0.611234	-0.520550
O7	O	1.914759	0.704045	-0.178744
O8	O	1.776599	0.409392	-0.393939
O9	O	2.133892	0.729829	-0.366471
O10	O	1.942633	0.428928	-0.536177
O11	O	1.760741	0.565915	-0.190585
O12	O	1.573185	0.567718	-0.409532
O13	O	1.804227	0.732998	-0.751311
O14	O	1.585094	0.707215	-0.563584
O15	O	1.958351	0.613037	-0.739497
O16	O	1.930477	0.888155	-0.382063
O17	O	1.788369	0.889521	-0.547956
C18	C	1.533627	0.634784	-0.490052
C19	C	1.394212	0.626591	-0.500785
C20	C	1.859444	0.926961	-0.465031
C21	C	1.859529	1.043745	-0.465062
C22	C	2.007636	1.042285	-0.292429
C23	C	2.081724	1.096418	-0.206129
C24	C	2.081801	1.206147	-0.206166
C25	C	2.007785	1.261745	-0.292515
C26	C	1.933697	1.207612	-0.378815
C27	C	1.933625	1.097880	-0.378766
C28	C	1.785599	1.209073	-0.551452
C29	C	1.785513	1.099344	-0.551411
C30	C	1.711582	1.264671	-0.637801
C31	C	1.637486	1.210537	-0.724097
C32	C	1.637411	1.100801	-0.724056
C33	C	1.711425	1.045210	-0.637711
C34	C	2.186684	0.673290	-0.439919
C35	C	2.326102	0.681510	-0.429216
C36	C	1.859634	1.379976	-0.465082
C37	C	1.859686	1.263207	-0.465152
C38	C	1.834288	0.631822	-0.139148
C39	C	1.823706	0.622083	0.000283
C40	C	1.884922	0.676191	-0.792187
C41	C	1.895747	0.685648	-0.931600
H42	H	1.345866	0.573306	-0.570276
C43	C	1.391410	0.753502	-0.335338
H44	H	1.479688	0.749748	-0.340184
H45	H	1.371405	0.824108	-0.355180
H46	H	1.363439	0.731047	-0.252721
H47	H	1.577235	1.255814	-0.794401
H48	H	1.965512	0.747525	0.020049
H49	H	2.007564	0.952936	-0.292375
H50	H	2.142136	1.250223	-0.135899
C51	C	1.729453	0.538487	0.065597
H52	H	1.734475	0.542675	0.153887
H53	H	1.646894	0.550874	0.037926
H54	H	1.748862	0.470329	0.045289
H55	H	2.141990	1.051141	-0.135826
H56	H	2.007866	1.351093	-0.292547
H57	H	1.711656	1.354019	-0.637830
C58	C	1.555917	1.041263	-0.818991
H59	H	1.511848	1.090093	-0.870412
H60	H	1.608076	1.004935	-0.869976
H61	H	1.497529	0.992041	-0.775147
H62	H	1.711363	0.955862	-0.637662
