data_functionalizedCrystal
_audit_creation_method	'MofGen! by Chris Wilmer'
_symmetry_space_group_name_H-M	'P1'
_symmetry_Int_Tables_number	1
_symmetry_cell_setting	triclinic
loop_
_symmetry_equiv_pos_as_xyz
  x,y,z
_cell_length_a	12.759401
_cell_length_b	19.805405
_cell_length_c	12.759393
_cell_angle_alpha	89.963446
_cell_angle_beta	89.979062
_cell_angle_gamma	90.027935
loop_
_atom_site_label
_atom_site_type_symbol
_atom_site_fract_x
_atom_site_fract_y
_atom_site_fract_z
Zn1	Zn	1.606181	-0.269403	-0.593976
Zn2	Zn	1.606036	-0.382606	-0.418277
Zn3	Zn	1.430480	-0.269439	-0.418311
Zn4	Zn	1.430436	-0.382558	-0.593915
O5	O	1.518283	-0.326001	-0.506120
O6	O	1.753183	-0.284424	-0.570681
O7	O	1.582706	-0.367629	-0.271261
O8	O	1.453866	-0.174718	-0.441653
O9	O	1.753076	-0.367594	-0.441596
O10	O	1.582953	-0.174691	-0.570713
O11	O	1.453725	-0.284486	-0.271285
O12	O	1.283453	-0.284440	-0.441594
O13	O	1.453791	-0.367513	-0.740944
O14	O	1.283420	-0.367548	-0.570609
O15	O	1.582910	-0.284378	-0.740989
O16	O	1.582663	-0.477316	-0.441536
O17	O	1.453650	-0.477281	-0.570576
C18	C	1.245316	-0.325993	-0.506099
C19	C	1.128539	-0.326006	-0.506115
C20	C	1.518165	-0.501858	-0.506069
C21	C	1.518210	-0.577089	-0.506082
C22	C	1.073688	-0.369346	-0.573187
C23	C	0.963964	-0.369349	-0.573208
C24	C	0.963952	-0.282669	-0.439075
C25	C	1.073674	-0.282663	-0.439060
C26	C	1.585453	-0.612429	-0.438962
C27	C	1.585497	-0.683118	-0.438985
C28	C	1.518294	-0.718465	-0.506124
C29	C	1.451048	-0.683120	-0.573252
C30	C	1.451010	-0.612433	-0.573234
C31	C	1.451203	-0.968194	-0.573330
C32	C	1.451245	-1.038886	-0.573342
C33	C	1.585691	-1.038878	-0.439081
C34	C	1.585652	-0.968191	-0.439063
C35	C	1.518411	-0.932852	-0.506194
C36	C	1.518365	-0.856204	-0.506170
C37	C	1.518334	-0.795112	-0.506144
C38	C	1.792316	-0.326010	-0.506141
C39	C	1.909093	-0.326014	-0.506150
C40	C	1.518362	-0.325936	-0.780153
C41	C	1.518395	-0.325909	-0.896930
C42	C	1.518430	-0.149459	-0.506194
C43	C	1.518493	-0.074227	-0.506225
C44	C	1.585633	-0.282614	-0.951817
C45	C	1.585650	-0.282584	-1.061541
C46	C	1.451190	-0.369151	-1.061481
C47	C	1.451168	-0.369177	-0.951759
C48	C	1.518265	-0.326017	-0.233152
C49	C	1.518435	-0.325854	-0.116376
H50	H	0.919309	-0.404640	-0.627827
O51	O	1.385994	-0.411161	-1.114907
C52	C	1.326392	-0.449461	-1.283913
C53	C	1.400298	-0.401860	-1.223543
H54	H	1.337915	-0.441947	-1.371756
H55	H	1.344790	-0.504059	-1.262396
H56	H	1.241694	-0.437582	-1.262269
H57	H	1.485021	-0.413677	-1.245155
H58	H	1.381809	-0.347275	-1.245065
O59	O	0.910604	-0.240668	-0.373827
C60	C	0.786606	-0.231454	-0.232071
C61	C	0.846974	-0.279097	-0.305883
H62	H	0.735130	-0.262504	-0.177135
H63	H	0.844610	-0.200484	-0.184054
H64	H	0.735331	-0.196091	-0.280442
H65	H	0.898251	-0.314500	-0.257594
H66	H	0.788913	-0.310019	-0.353904
H67	H	1.396452	-0.939426	-0.627989
H68	H	1.640372	-0.939413	-0.384388
H69	H	1.118356	-0.404637	-0.627790
O70	O	1.385818	-0.411302	-0.898597
C71	C	1.252411	-0.497134	-0.910108
C72	C	1.326381	-0.449479	-0.970444
H73	H	1.204321	-0.528003	-0.968169
H74	H	1.300556	-0.532583	-0.858759
H75	H	1.197539	-0.466055	-0.858715
H76	H	1.381268	-0.480503	-1.021893
H77	H	1.278171	-0.414028	-1.021727
H78	H	1.640370	-0.247380	-0.907178
H79	H	1.640446	-1.067659	-0.384424
O80	O	1.650786	-0.578022	-0.373885
C81	C	1.792642	-0.498179	-0.359856
C82	C	1.718697	-0.537087	-0.433671
H83	H	1.847581	-0.465084	-0.408164
H84	H	1.744477	-0.465094	-0.304883
H85	H	1.840661	-0.535596	-0.311866
H86	H	1.670662	-0.499718	-0.481729
H87	H	1.766922	-0.570182	-0.488575
O88	O	1.126801	-0.240539	-0.373802
C89	C	1.115220	-0.154536	-0.240806
C90	C	1.054923	-0.202217	-0.314631
H91	H	1.057133	-0.123530	-0.192964
H92	H	1.166515	-0.185533	-0.185707
H93	H	1.166663	-0.119210	-0.289157
H94	H	1.003423	-0.237552	-0.266365
H95	H	1.003695	-0.171177	-0.369734
O96	O	1.650916	-0.240434	-1.114740
C97	C	1.701986	-0.125292	-1.148401
C98	C	1.628022	-0.172955	-1.088073
H99	H	1.683487	-0.070725	-1.126880
H100	H	1.786704	-0.137134	-1.126816
H101	H	1.690475	-0.132735	-1.236237
H102	H	1.639439	-0.165539	-1.000224
H103	H	1.543331	-0.161102	-1.109745
O104	O	1.650847	-0.717342	-0.373681
C105	C	1.784236	-0.709875	-0.240543
C106	C	1.710260	-0.671033	-0.314431
H107	H	1.832306	-0.672451	-0.192635
H108	H	1.736096	-0.743006	-0.185507
H109	H	1.839124	-0.742930	-0.288850
H110	H	1.655356	-0.637940	-0.266209
H111	H	1.758465	-0.637943	-0.369470
O112	O	1.385932	-1.073119	-0.638670
C113	C	1.252539	-1.065671	-0.771811
C114	C	1.326464	-1.026818	-0.697904
H115	H	1.204425	-1.028254	-0.819705
H116	H	1.300722	-1.098693	-0.826858
H117	H	1.197689	-1.098837	-0.723520
H118	H	1.381329	-0.993615	-0.746110
H119	H	1.278216	-0.993838	-0.642854
O120	O	1.385913	-0.717530	-0.638524
C121	C	1.371749	-0.797244	-0.780416
C122	C	1.445637	-0.758331	-0.706548
H123	H	1.420007	-0.830230	-0.835448
H124	H	1.316873	-0.830436	-0.732196
H125	H	1.323659	-0.759829	-0.828340
H126	H	1.493795	-0.795696	-0.658609
H127	H	1.500443	-0.725128	-0.754829
O128	O	1.385787	-0.577997	-0.638399
C129	C	1.326099	-0.469101	-0.697833
C130	C	1.400031	-0.508014	-0.623992
H131	H	1.337574	-0.412513	-0.686195
H132	H	1.344515	-0.482896	-0.782592
H133	H	1.241411	-0.483094	-0.679325
H134	H	1.484744	-0.494042	-0.642406
H135	H	1.381525	-0.494216	-0.539255
