data_functionalizedCrystal
_audit_creation_method	'MofGen! by Chris Wilmer'
_symmetry_space_group_name_H-M	'P1'
_symmetry_Int_Tables_number	1
_symmetry_cell_setting	triclinic
loop_
_symmetry_equiv_pos_as_xyz
  x,y,z
_cell_length_a	19.188925
_cell_length_b	19.188925
_cell_length_c	9.730223
_cell_angle_alpha	89.995959
_cell_angle_beta	89.995762
_cell_angle_gamma	83.142549
loop_
_atom_site_label
_atom_site_type_symbol
_atom_site_fract_x
_atom_site_fract_y
_atom_site_fract_z
O1	O	0.926144	0.087149	-0.114318
O2	O	0.722832	0.098888	-0.114315
O3	O	0.830357	-0.008637	-0.114309
O4	O	0.818619	0.194675	-0.114324
O5	O	0.830351	-0.008640	0.114271
O6	O	0.722825	0.098885	0.114265
O7	O	0.926137	0.087147	0.114262
Zn8	Zn	0.824480	0.093015	0.150555
Zn9	Zn	0.824489	0.093019	-0.150608
O10	O	0.818612	0.194672	0.114256
C11	C	0.696818	0.098507	-0.000024
C12	C	0.619313	0.097368	-0.000022
C13	C	0.829974	-0.034650	-0.000020
C14	C	0.828835	-0.112155	-0.000023
C15	C	0.057542	0.152832	-0.000030
C16	C	0.130365	0.153908	-0.000037
C17	C	0.175301	0.090816	-0.000030
C18	C	0.147408	0.026642	-0.000051
C19	C	0.074586	0.025568	-0.000057
N20	N	0.295976	0.045139	0.077784
N21	N	0.365154	0.046164	0.077792
C22	C	0.394710	0.094050	-0.000014
N23	N	0.352474	0.140883	-0.077813
N24	N	0.283290	0.139860	-0.077815
C25	C	0.254265	0.091974	-0.000024
C26	C	0.501557	0.159387	-0.000011
C27	C	0.574382	0.160461	-0.000027
C28	C	0.591424	0.033193	-0.000027
C29	C	0.518600	0.032121	-0.000025
C30	C	0.473671	0.095220	-0.000010
C31	C	0.884299	-0.673926	-0.000058
C32	C	0.885376	-0.601103	-0.000046
C33	C	0.822284	-0.556167	-0.000045
C34	C	0.758110	-0.584060	-0.000022
C35	C	0.757035	-0.656882	-0.000020
N36	N	0.776610	-0.435485	-0.077847
N37	N	0.777635	-0.366307	-0.077851
C38	C	0.825518	-0.336758	-0.000046
N39	N	0.872347	-0.379001	0.077746
N40	N	0.871324	-0.448184	0.077744
C41	C	0.823442	-0.477203	-0.000046
C42	C	0.890854	-0.229910	-0.000047
C43	C	0.891928	-0.157085	-0.000026
C44	C	0.764661	-0.140044	-0.000015
C45	C	0.763589	-0.212867	-0.000022
C46	C	0.826688	-0.257797	-0.000044
C47	C	0.952152	0.087528	-0.000032
C48	C	1.029657	0.088667	-0.000043
C49	C	0.818995	0.220684	-0.000036
C50	C	0.820134	0.298189	-0.000043
N51	N	0.824479	0.093012	0.356092
N52	N	0.824496	0.093017	-0.356145
C53	C	0.872107	0.045420	0.428020
C54	C	0.872114	0.045420	0.571903
C55	C	0.776863	0.140611	0.571917
C56	C	0.776853	0.140607	0.428036
H57	H	0.020964	0.204212	-0.000025
Br58	Br	0.036739	-0.061520	-0.000083
Br59	Br	0.976486	-0.290889	-0.000073
H60	H	0.738065	0.179363	0.369468
H61	H	0.153074	0.206161	-0.000014
Br62	Br	0.652400	-0.052434	-0.000046
H63	H	0.597084	0.212714	-0.000028
Br64	Br	0.208390	-0.058984	-0.000053
H65	H	0.495897	-0.020129	-0.000027
H66	H	0.935680	-0.710503	-0.000069
H67	H	0.910887	0.006664	0.369447
H68	H	0.944181	-0.134384	-0.000030
H69	H	0.464974	0.210766	-0.000002
Br70	Br	0.712231	0.205203	0.669560
H71	H	0.937628	-0.578394	-0.000059
Br72	Br	0.672484	-0.523078	-0.000008
Br73	Br	0.936752	-0.019175	0.669518
H74	H	0.704783	-0.679584	-0.000004
H75	H	0.711338	-0.235571	-0.000019
H76	H	0.713290	-0.103458	-0.000002
