data_functionalizedCrystal
_audit_creation_method	'MofGen! by Chris Wilmer'
_symmetry_space_group_name_H-M	'P1'
_symmetry_Int_Tables_number	1
_symmetry_cell_setting	triclinic
loop_
_symmetry_equiv_pos_as_xyz
  x,y,z
_cell_length_a	12.837943
_cell_length_b	14.044220
_cell_length_c	11.892095
_cell_angle_alpha	94.243827
_cell_angle_beta	85.689438
_cell_angle_gamma	94.008909
loop_
_atom_site_label
_atom_site_type_symbol
_atom_site_fract_x
_atom_site_fract_y
_atom_site_fract_z
O1	O	1.404549	0.242985	-0.093990
O2	O	1.904549	0.742985	0.406010
O3	O	1.101609	0.230709	-0.093996
O4	O	1.601609	0.730709	0.406004
O5	O	1.248531	0.098452	-0.093982
O6	O	1.748531	0.598452	0.406018
O7	O	1.257627	0.375241	-0.094004
O8	O	1.757627	0.875241	0.405996
O9	O	1.236280	0.109461	0.094025
O10	O	1.736280	0.609461	0.594025
O11	O	1.089357	0.241718	0.094010
O12	O	1.589357	0.741718	0.594010
O13	O	1.392297	0.253993	0.094017
O14	O	1.892297	0.753993	0.594017
Zn15	Zn	1.238882	0.249603	0.123864
Zn16	Zn	1.738882	0.749603	0.623864
Zn17	Zn	1.255024	0.235099	-0.123843
Zn18	Zn	1.755024	0.735099	0.376157
O19	O	1.245375	0.386250	0.094002
O20	O	1.745375	0.886250	0.594002
C21	C	1.056479	0.232067	0.000007
C22	C	1.556479	0.732067	0.500007
C23	C	0.940259	0.219699	0.000005
C24	C	1.440259	0.719699	0.500005
C25	C	0.713048	0.368378	0.000009
C26	C	1.213048	0.868378	0.500009
C27	C	0.603848	0.356763	0.000008
C28	C	1.103848	0.856763	0.500008
C29	C	0.612657	0.184853	0.000009
C30	C	1.112657	0.684853	0.500009
C31	C	0.721856	0.196469	0.000011
C32	C	1.221856	0.696469	0.500011
C33	C	0.772048	0.288234	0.000008
C34	C	1.272048	0.788234	0.500008
C35	C	0.881251	0.299849	0.000001
C36	C	1.381251	0.799849	0.500001
C37	C	0.890056	0.127940	0.000011
C38	C	1.390056	0.627940	0.500011
C39	C	0.780857	0.116324	0.000010
C40	C	1.280857	0.616324	0.500010
C41	C	1.238425	0.068282	0.000022
C42	C	1.738425	0.568282	0.500022
C43	C	1.226550	-0.038016	0.000023
C44	C	1.726550	0.461984	0.500023
C45	C	1.204843	-0.232639	0.000006
C46	C	1.704843	0.267361	0.500006
C47	C	1.289060	-0.282665	0.000005
C48	C	1.789060	0.217335	0.500005
C49	C	1.276982	-0.390960	-0.000005
C50	C	1.776982	0.109040	0.499995
C51	C	1.216919	-0.124334	0.000016
C52	C	1.716919	0.375666	0.500016
C53	C	1.437428	0.252635	0.000012
C54	C	1.937428	0.752635	0.500012
C55	C	1.553649	0.265002	0.000006
C56	C	2.053649	0.765002	0.500006
C57	C	1.255482	0.416420	-0.000004
C58	C	1.755482	0.916420	0.499996
C59	C	1.267357	0.522717	-0.000012
C60	C	1.767357	1.022717	0.499988
N61	N	1.227873	0.259502	0.292917
N62	N	1.727873	0.759502	0.792917
N63	N	1.266041	0.225193	-0.292896
N64	N	1.766041	0.725193	0.207104
C65	C	1.342643	0.156258	0.529576
C66	C	1.842643	0.656258	1.029576
C67	C	1.334956	0.163185	0.647917
C68	C	1.834956	0.663185	1.147917
C69	C	1.204807	0.280277	0.647942
C70	C	1.704807	0.780277	1.147942
C71	C	1.212494	0.273350	0.529601
C72	C	1.712494	0.773350	1.029601
C73	C	1.281415	0.211340	0.470422
C74	C	1.781415	0.711340	0.970422
C75	C	1.289107	0.204418	0.352079
C76	C	1.789107	0.704418	0.852079
C77	C	1.158954	0.321505	0.352106
C78	C	1.658954	0.821505	0.852106
C79	C	1.151267	0.328432	0.470447
C80	C	1.651267	0.828432	0.970447
H81	H	0.922115	0.374569	0.000002
H82	H	1.422115	0.874569	0.500002
C83	C	0.954959	0.039778	0.000009
C84	C	1.454959	0.539778	0.500009
H85	H	1.027183	0.059836	0.000014
H86	H	1.527183	0.559836	0.500014
H87	H	0.943139	-0.001277	-0.065552
H88	H	1.443139	0.498723	0.434448
H89	H	0.934603	0.006394	0.065580
H90	H	1.434603	0.506394	0.565580
C91	C	1.398715	-0.230657	0.000032
C92	C	1.898715	0.269343	0.500032
H93	H	1.392555	-0.163637	0.000051
H94	H	1.892555	0.336363	0.500051
H95	H	1.439904	-0.251943	-0.065522
H96	H	1.939904	0.248057	0.434478
H97	H	1.431326	-0.244290	0.065610
H98	H	1.931326	0.255710	0.565610
H99	H	1.095149	0.378917	0.518645
H100	H	1.595149	0.878917	1.018645
H101	H	0.739974	0.041612	0.000025
H102	H	1.239974	0.541612	0.500025
C103	C	0.768263	0.469313	-0.000003
C104	C	1.268263	0.969313	0.499997
H105	H	0.717484	0.515382	-0.000002
H106	H	1.217484	1.015382	0.499998
H107	H	0.814952	0.473575	-0.065565
H108	H	1.314952	0.973575	0.434435
H109	H	0.806405	0.481257	0.065567
H110	H	1.306405	0.981257	0.565567
H111	H	1.398769	0.105774	0.481391
H112	H	1.898769	0.605774	0.981391
C113	C	0.538952	0.444920	-0.000002
C114	C	1.038952	0.944920	0.499998
H115	H	0.584489	0.501232	-0.000012
H116	H	1.084489	1.001232	0.499988
H117	H	0.491894	0.447801	0.065557
H118	H	0.991894	0.947801	0.565557
H119	H	0.500448	0.440123	-0.065575
H120	H	1.000448	0.940123	0.434425
C121	C	1.095191	-0.284642	0.000002
C122	C	1.595191	0.215358	0.500002
H123	H	1.043935	-0.239016	-0.000002
H124	H	1.543935	0.260984	0.499998
H125	H	1.082722	-0.319666	0.065560
H126	H	1.582722	0.180334	0.565560
H127	H	1.091266	-0.327325	-0.065572
H128	H	1.591266	0.172675	0.434428
H129	H	1.345229	0.153929	0.303896
H130	H	1.845229	0.653929	0.803896
C131	C	1.402308	0.102598	0.712982
C132	C	1.902308	0.602598	1.212982
H133	H	1.444459	0.064682	0.660785
H134	H	1.944459	0.564682	1.160785
H135	H	1.358027	0.062097	0.759160
H136	H	1.858027	0.562097	1.259160
H137	H	1.446011	0.143643	0.759132
H138	H	1.946011	0.643643	1.259132
C139	C	1.129000	0.348478	0.713052
C140	C	1.629000	0.848478	1.213052
H141	H	1.133196	0.344714	0.792003
H142	H	1.633196	0.844714	1.292003
H143	H	1.059532	0.330631	0.693673
H144	H	1.559532	0.830631	1.193673
H145	H	1.147518	0.412174	0.693660
H146	H	1.647518	0.912174	1.193660
C147	C	1.091614	0.382109	0.287035
C148	C	1.591614	0.882109	0.787035
H149	H	1.106061	0.369105	0.208079
H150	H	1.606061	0.869105	0.708079
H151	H	1.107617	0.448065	0.306435
H152	H	1.607617	0.948065	0.806435
H153	H	1.019618	0.366533	0.306435
H154	H	1.519618	0.866533	0.806435
H155	H	0.571765	0.110147	0.000104
H156	H	1.071765	0.610147	0.500104
