data_functionalizedCrystal
_audit_creation_method	'MofGen! by Chris Wilmer'
_symmetry_space_group_name_H-M	'P1'
_symmetry_Int_Tables_number	1
_symmetry_cell_setting	triclinic
loop_
_symmetry_equiv_pos_as_xyz
  x,y,z
_cell_length_a	19.805407
_cell_length_b	25.639240
_cell_length_c	19.805399
_cell_angle_alpha	89.976292
_cell_angle_beta	89.982197
_cell_angle_gamma	90.029375
loop_
_atom_site_label
_atom_site_type_symbol
_atom_site_fract_x
_atom_site_fract_y
_atom_site_fract_z
Zn1	Zn	1.034709	-0.208200	-0.382706
Zn2	Zn	1.534709	0.291800	0.117294
Zn3	Zn	1.034613	-0.295634	-0.269525
Zn4	Zn	1.534613	0.204366	0.230475
Zn5	Zn	0.921524	-0.208211	-0.269534
Zn6	Zn	1.421524	0.291789	0.230466
Zn7	Zn	0.921476	-0.295602	-0.382676
Zn8	Zn	1.421476	0.204398	0.117324
O9	O	0.978080	-0.251912	-0.326110
O10	O	1.478080	0.248088	0.173890
O11	O	1.129413	-0.219808	-0.367701
O12	O	1.629413	0.280192	0.132299
O13	O	1.019591	-0.284055	-0.174810
O14	O	1.519591	0.215945	0.325190
O15	O	0.936598	-0.135044	-0.284563
O16	O	1.436598	0.364956	0.215437
O17	O	1.129342	-0.284045	-0.284548
O18	O	1.629342	0.215955	0.215452
O19	O	1.019755	-0.135036	-0.367710
O20	O	1.519755	0.364964	0.132290
O21	O	0.936505	-0.219825	-0.174816
O22	O	1.436505	0.280175	0.325184
O23	O	0.826801	-0.219794	-0.284533
O24	O	1.326801	0.280206	0.215467
O25	O	0.936517	-0.283991	-0.477396
O26	O	1.436517	0.216009	0.022604
O27	O	0.826766	-0.284001	-0.367658
O28	O	1.326766	0.215999	0.132342
O29	O	1.019709	-0.219777	-0.477418
O30	O	1.519709	0.280223	0.022582
O31	O	1.019545	-0.368795	-0.284519
O32	O	1.519545	0.131205	0.215481
O33	O	0.936424	-0.368772	-0.367650
O34	O	1.436424	0.131228	0.132350
C35	C	0.802224	-0.251896	-0.326094
C36	C	1.302224	0.248104	0.173906
C37	C	0.726992	-0.251901	-0.326103
C38	C	1.226992	0.248099	0.173897
C39	C	0.691686	-0.218512	-0.369466
C40	C	1.191686	0.281488	0.130534
C41	C	0.620997	-0.218515	-0.369469
C42	C	1.120997	0.281485	0.130531
C43	C	0.585617	-0.251910	-0.326111
C44	C	1.085617	0.248090	0.173889
C45	C	0.620928	-0.285300	-0.282742
C46	C	1.120928	0.214700	0.217258
C47	C	0.691616	-0.285295	-0.282737
C48	C	1.191616	0.214705	0.217263
C49	C	0.335855	-0.285324	-0.282763
C50	C	0.835855	0.214676	0.217237
C51	C	0.265163	-0.285328	-0.282773
C52	C	0.765163	0.214672	0.217227
C53	C	0.265237	-0.218544	-0.369495
C54	C	0.765237	0.281456	0.130505
C55	C	0.335924	-0.218538	-0.369490
C56	C	0.835924	0.281462	0.130510
C57	C	0.371229	-0.251927	-0.326119
C58	C	0.871229	0.248073	0.173881
C59	C	0.447878	-0.251923	-0.326116
C60	C	0.947878	0.248077	0.173884
C61	C	0.508970	-0.251917	-0.326117
C62	C	1.008970	0.248083	0.173883
C63	C	0.977987	-0.387755	-0.326095
C64	C	1.477987	0.112245	0.173905
C65	C	0.978009	-0.445869	-0.326111
C66	C	1.478009	0.054131	0.173889
C67	C	1.021376	-0.697007	-0.369449
C68	C	1.521376	-0.197007	0.130551
C69	C	1.021356	-0.642402	-0.369444
C70	C	1.521356	-0.142402	0.130556
O71	O	1.058151	-0.614119	-0.406269
O72	O	1.558151	-0.114119	0.093731
N73	N	0.978083	-0.615142	-0.326119
N74	N	1.478083	-0.115142	0.173881
C75	C	0.934832	-0.642490	-0.282792
C76	C	1.434832	-0.142490	0.217208
O77	O	0.898024	-0.614289	-0.245939
O78	O	1.398024	-0.114289	0.254061
C79	C	0.934857	-0.697093	-0.282794
C80	C	1.434857	-0.197093	0.217206
C81	C	0.978128	-0.724350	-0.326126
C82	C	1.478128	-0.224350	0.173874
C83	C	1.064644	-0.724264	-0.412777
C84	C	1.564644	-0.224264	0.087223
C85	C	1.064664	-0.778865	-0.412783
C86	C	1.564664	-0.278865	0.087217
C87	C	1.021415	-0.806208	-0.369461
C88	C	1.521415	-0.306208	0.130539
C89	C	0.978147	-0.778951	-0.326132
C90	C	1.478147	-0.278951	0.173868
C91	C	0.891610	-0.724439	-0.239463
C92	C	1.391610	-0.224439	0.260537
C93	C	0.891638	-0.779046	-0.239469
C94	C	1.391638	-0.279046	0.260531
C95	C	0.934909	-0.806303	-0.282802
C96	C	1.434909	-0.306303	0.217198
C97	C	0.934917	-0.860894	-0.282815
C98	C	1.434917	-0.360894	0.217185
N99	N	0.978190	-0.888154	-0.326140
N100	N	1.478190	-0.388154	0.173860
C101	C	1.021439	-0.860811	-0.369463
C102	C	1.521439	-0.360811	0.130537
C103	C	0.934785	-0.527819	-0.282789
C104	C	1.434785	-0.027819	0.217211
C105	C	0.934757	-0.473217	-0.282790
C106	C	1.434757	0.026783	0.217210
C107	C	1.021282	-0.473133	-0.369442
C108	C	1.521282	0.026867	0.130558
C109	C	1.021306	-0.527737	-0.369444
C110	C	1.521306	-0.027737	0.130556
C111	C	0.978058	-0.555079	-0.326114
C112	C	1.478058	-0.055079	0.173886
C113	C	1.021476	-0.975476	-0.369472
C114	C	1.521476	-0.475476	0.130528
C115	C	1.021489	-1.030082	-0.369476
C116	C	1.521489	-0.530082	0.130524
C117	C	0.934967	-1.030160	-0.282822
C118	C	1.434967	-0.530160	0.217178
C119	C	0.934951	-0.975560	-0.282821
C120	C	1.434951	-0.475560	0.217179
C121	C	0.978211	-0.948219	-0.326148
C122	C	1.478211	-0.448219	0.173852
O123	O	0.898143	-0.889213	-0.246007
O124	O	1.398143	-0.389213	0.253993
O125	O	1.058248	-0.889019	-0.406303
O126	O	1.558248	-0.389019	0.093697
C127	C	1.154623	-0.251929	-0.326127
C128	C	1.654623	0.248071	0.173873
C129	C	1.229855	-0.251936	-0.326134
C130	C	1.729855	0.248064	0.173866
C131	C	0.978118	-0.251879	-0.502653
C132	C	1.478118	0.248121	-0.002653
C133	C	0.978135	-0.251865	-0.577885
C134	C	1.478135	0.248135	-0.077885
C135	C	0.978193	-0.115539	-0.326141
C136	C	1.478193	0.384461	0.173859
C137	C	0.978241	-0.057425	-0.326154
C138	C	1.478241	0.442575	0.173846
C139	C	1.021453	-0.218427	-0.613242
C140	C	1.521453	0.281573	-0.113242
C141	C	1.021460	-0.218412	-0.683930
C142	C	1.521460	0.281588	-0.183930
C143	C	0.978151	-0.251838	-0.719261
C144	C	1.478151	0.248162	-0.219261
C145	C	0.934828	-0.285277	-0.683899
C146	C	1.434828	0.214723	-0.183899
C147	C	0.934818	-0.285289	-0.613212
C148	C	1.434818	0.214711	-0.113212
C149	C	0.934866	-0.285228	-0.968972
C150	C	1.434866	0.214772	-0.468972
C151	C	0.934881	-0.285215	-1.039664
C152	C	1.434881	0.214785	-0.539664
C153	C	1.021509	-0.218351	-1.039691
C154	C	1.521509	0.281649	-0.539691
C155	C	1.021499	-0.218363	-0.969004
C156	C	1.521499	0.281637	-0.469004
C157	C	0.978173	-0.251800	-0.933648
C158	C	1.478173	0.248200	-0.433648
C159	C	0.978165	-0.251816	-0.857000
C160	C	1.478165	0.248184	-0.357000
C161	C	0.978162	-0.251825	-0.795908
C162	C	1.478162	0.248175	-0.295908
C163	C	0.978082	-0.251907	-0.150254
C164	C	1.478082	0.248093	0.349746
C165	C	0.978197	-0.251774	-0.075023
C166	C	1.478197	0.248226	0.424977
H167	H	1.056725	-1.052272	-0.404767
H168	H	1.556725	-0.552272	0.095233
C169	C	1.068618	-0.182022	-1.077956
C170	C	1.568618	0.317978	-0.577956
C171	C	1.106557	-0.152764	-1.031885
C172	C	1.606557	0.347236	-0.531885
C173	C	1.149967	-0.119299	-1.067108
C174	C	1.649967	0.380701	-0.567108
H175	H	1.042826	-0.159185	-1.105534
H176	H	1.542826	0.340815	-0.605534
H177	H	1.098132	-0.202008	-1.105518
H178	H	1.598132	0.297992	-0.605518
H179	H	1.077047	-0.132779	-1.004334
H180	H	1.577047	0.367221	-0.504334
H181	H	1.132363	-0.175587	-1.004306
H182	H	1.632363	0.324413	-0.504306
H183	H	1.179482	-0.139286	-1.094670
H184	H	1.679482	0.360714	-0.594670
H185	H	1.124170	-0.096466	-1.094684
H186	H	1.624170	0.403534	-0.594684
H187	H	1.175719	-0.099447	-1.035854
H188	H	1.675719	0.400553	-0.535854
H189	H	0.592116	-0.312489	-0.247436
H190	H	1.092116	0.187511	0.252564
H191	H	0.236483	-0.191355	-0.404808
H192	H	0.736483	0.308645	0.095192
H193	H	0.364592	-0.312511	-0.247449
H194	H	0.864592	0.187489	0.252551
C195	C	1.068270	-0.443534	-0.416549
C196	C	1.568270	0.056466	0.083451
C197	C	1.106164	-0.479087	-0.454509
C198	C	1.606164	0.020913	0.045491
C199	C	1.149447	-0.451838	-0.497914
C200	C	1.649447	0.048162	0.002086
H201	H	1.097824	-0.422222	-0.390752
H202	H	1.597824	0.077778	0.109248
H203	H	1.042368	-0.422249	-0.446050
H204	H	1.542368	0.077751	0.053950
H205	H	1.132065	-0.500363	-0.425011
H206	H	1.632065	-0.000363	0.074989
H207	H	1.076629	-0.500400	-0.480319
H208	H	1.576629	-0.000400	0.019681
H209	H	1.123544	-0.430553	-0.527415
H210	H	1.623544	0.069447	-0.027415
H211	H	1.178996	-0.430528	-0.472112
H212	H	1.678996	0.069472	0.027888
H213	H	1.175159	-0.475957	-0.523679
H214	H	1.675159	0.024043	-0.023679
H215	H	1.056703	-0.953222	-0.404752
H216	H	1.556703	-0.453222	0.095248
C217	C	0.844566	-0.808704	-0.192509
C218	C	1.344566	-0.308704	0.307491
C219	C	0.777583	-0.795465	-0.207196
C220	C	1.277583	-0.295465	0.292804
C221	C	0.734201	-0.822779	-0.163960
C222	C	1.234201	-0.322779	0.336040
H223	H	0.854407	-0.799787	-0.147017
H224	H	1.354407	-0.299787	0.352983
H225	H	0.850726	-0.845133	-0.198721
H226	H	1.350726	-0.345133	0.301279
H227	H	0.771427	-0.759044	-0.200979
H228	H	1.271427	-0.259044	0.299021
H229	H	0.767721	-0.804382	-0.252681
H230	H	1.267721	-0.304382	0.247319
H231	H	0.740361	-0.859208	-0.170171
H232	H	1.240361	-0.359208	0.329829
H233	H	0.744049	-0.813860	-0.118469
H234	H	1.244049	-0.313860	0.381531
H235	H	0.688749	-0.813804	-0.173923
H236	H	1.188749	-0.313804	0.326077
H237	H	0.720361	-0.312483	-0.247425
H238	H	1.220361	0.187517	0.252575
C239	C	1.111731	-0.808359	-0.459844
C240	C	1.611731	-0.308359	0.040156
C241	C	1.149614	-0.772717	-0.497761
C242	C	1.649614	-0.272717	0.002239
C243	C	1.192994	-0.799864	-0.541111
C244	C	1.692994	-0.299864	-0.041111
H245	H	1.085920	-0.829672	-0.489381
H246	H	1.585920	-0.329672	0.010619
H247	H	1.141283	-0.829635	-0.433989
H248	H	1.641283	-0.329635	0.066011
H249	H	1.120067	-0.751450	-0.523614
H250	H	1.620067	-0.251450	-0.023614
H251	H	1.175439	-0.751403	-0.468242
H252	H	1.675439	-0.251403	0.031758
H253	H	1.222545	-0.821139	-0.515255
H254	H	1.722545	-0.321139	-0.015255
H255	H	1.167177	-0.821176	-0.570643
H256	H	1.667177	-0.321176	-0.070643
H257	H	1.218707	-0.775685	-0.566838
H258	H	1.718707	-0.275685	-0.066838
H259	H	0.899597	-0.312463	-0.940194
H260	H	1.399597	0.187537	-0.440194
H261	H	1.099866	-0.702006	-0.448056
H262	H	1.599866	-0.202006	0.051944
C263	C	0.887879	-0.321686	-0.574852
C264	C	1.387879	0.178314	-0.074852
C265	C	0.902595	-0.373414	-0.592023
C266	C	1.402595	0.126586	-0.092023
C267	C	0.859375	-0.406958	-0.556692
C268	C	1.359375	0.093042	-0.056692
H269	H	0.842382	-0.314102	-0.586397
H270	H	1.342382	0.185898	-0.086397
H271	H	0.894085	-0.316939	-0.527688
H272	H	1.394085	0.183061	-0.027688
H273	H	0.896383	-0.378159	-0.639176
H274	H	1.396383	0.121841	-0.139176
H275	H	0.948083	-0.381015	-0.580477
H276	H	1.448083	0.118985	-0.080477
H277	H	0.865581	-0.402212	-0.509528
H278	H	1.365581	0.097788	-0.009528
H279	H	0.813881	-0.399369	-0.568239
H280	H	1.313881	0.100631	-0.068239
H281	H	0.869358	-0.442060	-0.568332
H282	H	1.369358	0.057940	-0.068332
H283	H	0.236358	-0.312524	-0.247463
H284	H	0.736358	0.187476	0.252537
H285	H	0.720487	-0.191319	-0.404776
H286	H	1.220487	0.308681	0.095224
H287	H	0.899610	-0.312435	-1.068428
H288	H	1.399610	0.187565	-0.568428
C289	C	1.068175	-0.557357	-0.416570
C290	C	1.568175	-0.057357	0.083430
C291	C	1.029840	-0.588706	-0.459931
C292	C	1.529840	-0.088706	0.040069
C293	C	1.072994	-0.615993	-0.503360
C294	C	1.572994	-0.115993	-0.003360
H295	H	1.097707	-0.578689	-0.390787
H296	H	1.597707	-0.078689	0.109213
H297	H	1.093915	-0.533266	-0.442412
H298	H	1.593915	-0.033266	0.057588
H299	H	1.004112	-0.612795	-0.434093
H300	H	1.504112	-0.112795	0.065907
H301	H	1.000310	-0.567387	-0.485730
H302	H	1.500310	-0.067387	0.014270
H303	H	1.098734	-0.591901	-0.529201
H304	H	1.598734	-0.091901	-0.029201
H305	H	1.102524	-0.637322	-0.477571
H306	H	1.602524	-0.137322	0.022429
H307	H	1.046990	-0.637262	-0.532789
H308	H	1.546990	-0.137262	-0.032789
H309	H	0.899562	-0.550078	-0.247507
H310	H	1.399562	-0.050078	0.252493
C311	C	0.844657	-0.694761	-0.192486
C312	C	1.344657	-0.194761	0.307514
C313	C	0.853871	-0.641086	-0.201755
C314	C	1.353871	-0.141086	0.298245
C315	C	0.810622	-0.613732	-0.158494
C316	C	1.310622	-0.113732	0.341506
H317	H	0.854557	-0.703662	-0.146994
H318	H	1.354557	-0.203662	0.353006
H319	H	0.799163	-0.703708	-0.202354
H320	H	1.299163	-0.203708	0.297646
H321	H	0.899355	-0.632143	-0.191882
H322	H	1.399355	-0.132143	0.308118
H323	H	0.843966	-0.632170	-0.247238
H324	H	1.343966	-0.132170	0.252762
H325	H	0.765128	-0.622679	-0.168362
H326	H	1.265128	-0.122679	0.331638
H327	H	0.820526	-0.622637	-0.113004
H328	H	1.320526	-0.122637	0.386996
H329	H	0.816863	-0.577311	-0.164781
H330	H	1.316863	-0.077311	0.335219
H331	H	0.899562	-0.312491	-0.712670
H332	H	1.399562	0.187509	-0.212670
C333	C	0.888091	-1.059948	-0.235810
C334	C	1.388091	-0.559948	0.264190
C335	C	0.897391	-1.113600	-0.245079
C336	C	1.397391	-0.613600	0.254921
C337	C	0.854231	-1.141058	-0.201773
C338	C	1.354231	-0.641058	0.298227
H339	H	0.842573	-1.051092	-0.245623
H340	H	1.342573	-0.551092	0.254377
H341	H	0.898033	-1.051041	-0.190328
H342	H	1.398033	-0.551041	0.309672
H343	H	0.887444	-1.122504	-0.290552
H344	H	1.387444	-0.622504	0.209448
H345	H	0.942899	-1.122471	-0.235262
H346	H	1.442899	-0.622471	0.264738
H347	H	0.864173	-1.132150	-0.156290
H348	H	1.364173	-0.632150	0.343710
H349	H	0.808716	-1.132198	-0.211589
H350	H	1.308716	-0.632198	0.288411
H351	H	0.860539	-1.177463	-0.208051
H352	H	1.360539	-0.677463	0.291949
H353	H	0.592254	-0.191327	-0.404782
H354	H	1.092254	0.308673	0.095218
H355	H	0.364727	-0.191346	-0.404799
H356	H	0.864727	0.308654	0.095201
C357	C	0.887745	-0.443721	-0.235675
C358	C	1.387745	0.056279	0.264325
C359	C	0.849888	-0.479361	-0.197728
C360	C	1.349888	0.020639	0.302272
C361	C	0.806582	-0.452211	-0.154308
C362	C	1.306582	0.047789	0.345692
H363	H	0.858169	-0.422427	-0.261460
H364	H	1.358169	0.077573	0.238540
H365	H	0.913629	-0.422427	-0.206165
H366	H	1.413629	0.077573	0.293835
H367	H	0.824006	-0.500646	-0.227234
H368	H	1.324006	-0.000646	0.272766
H369	H	0.879447	-0.500656	-0.171929
H370	H	1.379447	-0.000656	0.328071
H371	H	0.832465	-0.430917	-0.124799
H372	H	1.332465	0.069083	0.375201
H373	H	0.777010	-0.430918	-0.180099
H374	H	1.277010	0.069082	0.319901
H375	H	0.780895	-0.476389	-0.128552
H376	H	1.280895	0.023611	0.371448
C377	C	0.887936	-0.946057	-0.235711
C378	C	1.387936	-0.446057	0.264289
C379	C	0.850072	-0.981693	-0.197766
C380	C	1.350072	-0.481693	0.302234
C381	C	0.806763	-0.954539	-0.154353
C382	C	1.306763	-0.454539	0.345647
H383	H	0.858365	-0.924762	-0.261501
H384	H	1.358365	-0.424762	0.238499
H385	H	0.913819	-0.924763	-0.206200
H386	H	1.413819	-0.424763	0.293800
H387	H	0.824191	-1.002978	-0.227273
H388	H	1.324191	-0.502978	0.272727
H389	H	0.879625	-1.002989	-0.171962
H390	H	1.379625	-0.502989	0.328038
H391	H	0.832645	-0.933245	-0.124842
H392	H	1.332645	-0.433245	0.375158
H393	H	0.777196	-0.933245	-0.180148
H394	H	1.277196	-0.433245	0.319852
H395	H	0.781071	-0.978714	-0.128598
H396	H	1.281071	-0.478714	0.371402
C397	C	1.068502	-0.182078	-0.575008
C398	C	1.568502	0.317922	-0.075008
C399	C	1.106426	-0.152781	-0.621106
C400	C	1.606426	0.347219	-0.121106
C401	C	1.149767	-0.119284	-0.585913
C402	C	1.649767	0.380716	-0.085913
H403	H	1.098034	-0.202026	-0.547431
H404	H	1.598034	0.297974	-0.047431
H405	H	1.042640	-0.159271	-0.547449
H406	H	1.542640	0.340729	-0.047449
H407	H	1.132287	-0.175585	-0.648654
H408	H	1.632287	0.324415	-0.148654
H409	H	1.076912	-0.132822	-0.648685
H410	H	1.576912	0.367178	-0.148685
H411	H	1.123905	-0.096477	-0.558354
H412	H	1.623905	0.403523	-0.058354
H413	H	1.179295	-0.139237	-0.558336
H414	H	1.679295	0.360763	-0.058336
H415	H	1.175500	-0.099399	-0.617184
H416	H	1.675500	0.400601	-0.117184
H417	H	1.056737	-0.191185	-0.712715
H418	H	1.556737	0.308815	-0.212715
C419	C	1.068404	-0.182033	-0.930565
C420	C	1.568404	0.317967	-0.430565
C421	C	1.030092	-0.148535	-0.889980
C422	C	1.530092	0.351465	-0.389980
C423	C	1.073274	-0.115060	-0.854558
C424	C	1.573274	0.384940	-0.354558
H425	H	1.094214	-0.162065	-0.961674
H426	H	1.594214	0.337935	-0.461674
H427	H	1.097870	-0.202018	-0.902946
H428	H	1.597870	0.297982	-0.402946
H429	H	1.000638	-0.128552	-0.917597
H430	H	1.500638	0.371448	-0.417597
H431	H	1.004283	-0.168489	-0.858859
H432	H	1.504283	0.331511	-0.358859
H433	H	1.102739	-0.135045	-0.826939
H434	H	1.602739	0.364955	-0.326939
H435	H	1.099082	-0.095096	-0.885672
H436	H	1.599082	0.404904	-0.385672
H437	H	1.047286	-0.092331	-0.827013
H438	H	1.547286	0.407669	-0.327013
