data_functionalizedCrystal
_audit_creation_method	'MofGen! by Chris Wilmer'
_symmetry_space_group_name_H-M	'P1'
_symmetry_Int_Tables_number	1
_symmetry_cell_setting	triclinic
loop_
_symmetry_equiv_pos_as_xyz
  x,y,z
_cell_length_a	6.817900
_cell_length_b	17.982959
_cell_length_c	12.200875
_cell_angle_alpha	94.640534
_cell_angle_beta	107.143593
_cell_angle_gamma	102.451857
loop_
_atom_site_label
_atom_site_type_symbol
_atom_site_fract_x
_atom_site_fract_y
_atom_site_fract_z
V1	V	-4.063264	-0.105586	-0.358141
O2	O	-4.055274	0.004896	-0.350830
O3	O	-4.009540	-0.209188	-0.356165
O4	O	-4.033062	-0.104040	-0.514122
O5	O	-4.031589	-0.100980	-0.191780
V6	V	-4.545224	-0.092362	-0.338185
O7	O	-4.327951	-0.134594	-0.401915
O8	O	-4.730735	-0.063354	-0.294411
O9	O	-4.375743	0.011240	-0.340160
O10	O	-4.670612	-0.202843	-0.345496
O11	O	-4.694297	-0.096968	-0.504546
O12	O	-4.352221	-0.093908	-0.182204
C13	C	-3.852656	-0.234441	-0.350638
C14	C	-3.890138	-0.319137	-0.350063
C15	C	-4.090333	-0.362811	-0.355532
C16	C	-4.125543	-0.442393	-0.354998
C17	C	-3.960550	-0.478299	-0.348987
C18	C	-3.760340	-0.434619	-0.343520
C19	C	-3.725137	-0.355040	-0.344063
C20	C	-3.902305	-0.755554	-0.341335
C21	C	-3.937523	-0.835139	-0.340790
C22	C	-4.302711	-0.842907	-0.352271
C23	C	-4.267508	-0.763328	-0.352813
C24	C	-4.067305	-0.719656	-0.347353
C25	C	-4.029130	-0.633365	-0.347934
C26	C	-3.998718	-0.564587	-0.348397
C27	C	-3.882660	-0.100314	-0.552126
C28	C	-3.939214	-0.099735	-0.679644
C29	C	-4.042716	-0.098677	-0.913114
C30	C	-3.985112	-0.099265	-0.783195
C31	C	-4.195968	0.036490	-0.345685
C32	C	-4.137725	0.121185	-0.346268
C33	C	-4.165964	-0.097636	-0.144194
C34	C	-4.088648	-0.098211	-0.016674
H35	H	-3.803158	-0.864371	-0.335903
C36	C	-3.504918	-0.306998	-0.338036
H37	H	-3.411688	-0.339776	-0.334366
H38	H	-3.516807	-0.282783	-0.405243
H39	H	-3.450376	-0.268800	-0.270763
C40	C	-4.522945	-0.890946	-0.358289
H41	H	-4.616155	-0.858161	-0.361934
H42	H	-4.577503	-0.929144	-0.425553
H43	H	-4.511038	-0.915156	-0.291072
C44	C	-4.345751	-0.490430	-0.361003
H45	H	-4.438963	-0.457647	-0.364644
H46	H	-4.400314	-0.528629	-0.428266
H47	H	-4.333833	-0.514640	-0.293784
C48	C	-4.449003	-0.723836	-0.359430
H49	H	-4.573284	-0.761246	-0.362622
H50	H	-4.409647	-0.685958	-0.292646
H51	H	-4.476077	-0.699951	-0.427127
H52	H	-4.224689	-0.333582	-0.360416
H53	H	-3.739290	-0.720005	-0.336883
H54	H	-3.626006	-0.463861	-0.338633
