data_functionalizedCrystal
_audit_creation_method	'MofGen! by Chris Wilmer'
_symmetry_space_group_name_H-M	'P1'
_symmetry_Int_Tables_number	1
_symmetry_cell_setting	triclinic
loop_
_symmetry_equiv_pos_as_xyz
  x,y,z
_cell_length_a	12.759401
_cell_length_b	19.121063
_cell_length_c	12.759393
_cell_angle_alpha	87.595965
_cell_angle_beta	90.022037
_cell_angle_gamma	92.469224
loop_
_atom_site_label
_atom_site_type_symbol
_atom_site_fract_x
_atom_site_fract_y
_atom_site_fract_z
Zn1	Zn	1.588332	-0.279574	0.611841
Zn2	Zn	1.580688	-0.397041	0.443635
Zn3	Zn	1.412629	-0.279609	0.436175
Zn4	Zn	1.405091	-0.396989	0.619266
O5	O	1.496685	-0.338303	0.527729
O6	O	1.734339	-0.295163	0.589543
O7	O	1.558350	-0.381499	0.295627
O8	O	1.442290	-0.181320	0.453247
O9	O	1.728723	-0.381466	0.465963
O10	O	1.571379	-0.181294	0.582308
O11	O	1.434878	-0.295223	0.290145
O12	O	1.264608	-0.295172	0.460447
O13	O	1.429443	-0.381377	0.765300
O14	O	1.259070	-0.381411	0.594964
O15	O	1.564069	-0.295113	0.759844
O16	O	1.551041	-0.495318	0.473163
O17	O	1.422031	-0.495280	0.602198
C18	C	1.223718	-0.338291	0.527702
C19	C	1.106941	-0.338302	0.527717
C20	C	1.049155	-0.383168	0.463278
C21	C	0.939431	-0.383180	0.463306
C22	C	0.945287	-0.293454	0.592215
C23	C	1.055010	-0.293446	0.592191
C24	C	0.784127	-0.465992	0.430854
C25	C	0.726338	-0.510852	0.366398
C26	C	0.761199	-0.521550	0.264530
C27	C	0.853848	-0.487378	0.227095
C28	C	0.911632	-0.442513	0.291545
C29	C	0.876771	-0.431828	0.393429
C30	C	1.210315	-0.210633	0.624632
C31	C	1.268101	-0.165764	0.689077
C32	C	1.233243	-0.155059	0.790947
C33	C	1.140591	-0.189218	0.828378
C34	C	1.082805	-0.234087	0.763933
C35	C	1.117671	-0.244794	0.662063
C36	C	1.484917	-0.520783	0.539319
C37	C	1.479978	-0.598849	0.544312
C38	C	1.544880	-0.635521	0.479532
C39	C	1.540241	-0.708872	0.484234
C40	C	1.470696	-0.745549	0.553712
C41	C	1.405792	-0.708872	0.618499
C42	C	1.410437	-0.635523	0.613801
C43	C	1.453315	-0.967018	0.571259
C44	C	1.448673	-1.040373	0.575949
C45	C	1.583124	-1.040367	0.441685
C46	C	1.587758	-0.967016	0.436989
C47	C	1.522858	-0.930345	0.501780
C48	C	1.465951	-0.820526	0.558517
C49	C	1.527609	-0.855370	0.496979
C50	C	1.770717	-0.338316	0.527757
C51	C	1.887494	-0.338322	0.527768
C52	C	1.496768	-0.338236	0.801758
C53	C	1.496803	-0.338207	0.918533
C54	C	1.508528	-0.155111	0.516117
C55	C	1.513574	-0.077045	0.511169
C56	C	1.496666	-0.338320	0.254763
C57	C	1.496847	-0.338150	0.137976
C58	C	1.566909	-0.293282	0.970556
C59	C	1.566929	-0.293252	1.080278
C60	C	1.426734	-0.383077	1.085946
C61	C	1.426710	-0.383104	0.976225
C62	C	1.609856	-0.210387	1.224984
C63	C	1.679978	-0.165468	1.277011
C64	C	1.783181	-0.154699	1.240736
C65	C	1.816284	-0.188860	1.152437
C66	C	1.746167	-0.233784	1.100416
C67	C	1.642950	-0.244539	1.136689
C68	C	1.383793	-0.465970	0.831517
C69	C	1.313681	-0.510898	0.779495
C70	C	1.210475	-0.521673	0.815768
C71	C	1.177376	-0.487525	0.904071
C72	C	1.247488	-0.442597	0.956093
C73	C	1.350693	-0.431820	0.919813
H74	H	0.650902	-0.538674	0.396887
H75	H	1.093338	-0.496301	0.933608
H76	H	1.644387	-0.937154	0.380415
O77	O	0.746527	-0.454451	0.540732
H78	H	0.672388	-0.485738	0.555920
H79	H	1.593090	-0.738727	0.431482
O80	O	1.781838	-0.270621	1.005172
H81	H	1.847956	-0.304125	1.027135
O82	O	0.891432	-0.498925	0.117213
H83	H	0.895869	-0.448156	0.071615
H84	H	0.902991	-0.256933	0.644706
H85	H	1.007355	-0.261894	0.794412
H86	H	1.635963	-1.070232	0.388937
O87	O	1.390925	-0.860092	0.633431
H88	H	1.435801	-0.893464	0.689058
O89	O	1.642497	-0.244855	0.908325
H90	H	1.691242	-0.213607	0.962938
O91	O	1.011560	-0.405662	0.251190
H92	H	1.026099	-0.420639	0.169524
O93	O	1.102983	-0.177679	0.938255
H94	H	1.158735	-0.140746	0.976783
H95	H	1.601506	-0.605662	0.422951
H96	H	1.343539	-0.137945	0.658589
O97	O	1.373669	-1.079937	0.650897
H98	H	1.329327	-1.042116	0.695170
O99	O	1.330781	-0.748436	0.693429
H100	H	1.349654	-0.734314	0.775002
H101	H	1.220530	-0.414792	1.027995
O102	O	1.858805	-0.106241	1.296841
H103	H	1.867845	-0.125854	1.379320
H104	H	1.153394	-0.558264	0.773407
H105	H	1.400469	-0.937167	0.624012
H106	H	1.525818	-0.219145	1.254522
H107	H	1.280296	-0.118514	0.843412
H108	H	1.357589	-0.605665	0.666553
O109	O	1.644277	-0.128612	1.372233
H110	H	1.560722	-0.143632	1.388705
H111	H	1.340643	-0.538709	0.707601
O112	O	1.351136	-0.431502	1.148169
H113	H	1.362934	-0.423941	1.233205
O114	O	0.698869	-0.569927	0.195000
H115	H	0.628591	-0.591889	0.238142
O116	O	1.247909	-0.222180	0.514750
H117	H	1.322032	-0.190879	0.499543
H118	H	1.900326	-0.180093	1.122915
H119	H	1.584237	-0.825505	0.440414
H120	H	1.467830	-0.457194	0.801969
H121	H	1.091434	-0.419694	0.410781
