data_functionalizedCrystal
_audit_creation_method	'MofGen! by Chris Wilmer'
_symmetry_space_group_name_H-M	'P1'
_symmetry_Int_Tables_number	1
_symmetry_cell_setting	triclinic
loop_
_symmetry_equiv_pos_as_xyz
  x,y,z
_cell_length_a	12.759400
_cell_length_b	12.759401
_cell_length_c	12.759393
_cell_angle_alpha	89.979062
_cell_angle_beta	89.970739
_cell_angle_gamma	90.015554
loop_
_atom_site_label
_atom_site_type_symbol
_atom_site_fract_x
_atom_site_fract_y
_atom_site_fract_z
Zn1	Zn	-0.418173	1.606271	-0.594029
Zn2	Zn	-0.593888	1.606164	-0.418353
Zn3	Zn	-0.418229	1.430570	-0.418364
Zn4	Zn	-0.593815	1.430564	-0.593990
O5	O	-0.506026	1.518392	-0.506184
O6	O	-0.441489	1.753278	-0.570737
O7	O	-0.570641	1.582829	-0.271333
O8	O	-0.271200	1.453924	-0.441688
O9	O	-0.570587	1.753200	-0.441668
O10	O	-0.271159	1.583011	-0.570748
O11	O	-0.441584	1.453821	-0.271342
O12	O	-0.441513	1.283548	-0.441650
O13	O	-0.570461	1.453914	-0.741017
O14	O	-0.570516	1.283544	-0.570682
O15	O	-0.441418	1.583005	-0.741045
O16	O	-0.740900	1.582823	-0.441631
O17	O	-0.740846	1.453810	-0.570671
C18	C	-0.506013	1.245425	-0.506163
C19	C	-0.506033	1.128648	-0.506179
C20	C	-0.573307	1.073812	-0.573260
C21	C	-0.573311	0.964088	-0.573281
C22	C	-0.438764	0.964047	-0.439131
C23	C	-0.438756	1.073769	-0.439116
C24	C	-0.778993	1.518333	-0.506168
C25	C	-0.895770	1.518404	-0.506196
C26	C	-1.060258	1.585642	-0.573478
C27	C	-0.950534	1.585588	-0.573454
C28	C	-0.950736	1.451277	-0.438951
C29	C	-1.060458	1.451337	-0.438970
C30	C	-0.231993	1.518480	-0.506223
C31	C	-0.115216	1.518518	-0.506240
C32	C	-0.505925	1.518471	-0.780218
C33	C	-0.505882	1.518505	-0.896994
C34	C	-0.506040	1.792426	-0.506206
C35	C	-0.506046	1.909202	-0.506215
C36	C	-0.438679	1.585727	-0.951873
C37	C	-0.438633	1.585745	-1.061597
C38	C	-0.573004	1.451314	-1.061554
C39	C	-0.573044	1.451292	-0.951832
C40	C	-0.506051	1.518375	-0.233217
C41	C	-0.505798	1.518545	-0.116441
H42	H	-0.383991	0.919350	-0.384529
H43	H	-0.383967	1.118418	-0.384491
N44	N	-1.116176	1.654270	-0.642196
N45	N	-1.067087	1.714198	-0.702223
H46	H	-1.106576	1.762671	-0.750757
H47	H	-0.627687	1.396595	-1.106217
N48	N	-0.894784	1.382668	-0.370242
N49	N	-0.796819	1.382625	-0.370230
H50	H	-0.757303	1.334169	-0.321703
N51	N	-0.369973	1.654399	-1.117654
N52	N	-0.273032	1.647461	-1.105409
H53	H	-0.224535	1.695948	-1.144999
H54	H	-1.105207	1.396675	-0.384211
N55	N	-0.370070	1.654386	-0.895873
N56	N	-0.310071	1.714400	-0.944890
H57	H	-0.261611	1.762891	-0.905344
N58	N	-0.894412	1.654166	-0.642138
N59	N	-0.943319	1.714144	-0.702186
H60	H	-0.903685	1.762583	-0.750696
H61	H	-0.627768	1.396544	-0.907149
H62	H	-0.628086	1.118491	-0.627870
H63	H	-0.628090	0.919444	-0.627907
