data_functionalizedCrystal
_audit_creation_method	'MofGen! by Chris Wilmer'
_symmetry_space_group_name_H-M	'P1'
_symmetry_Int_Tables_number	1
_symmetry_cell_setting	triclinic
loop_
_symmetry_equiv_pos_as_xyz
  x,y,z
_cell_length_a	16.974885
_cell_length_b	16.974885
_cell_length_c	18.366186
_cell_angle_alpha	93.642976
_cell_angle_beta	93.647587
_cell_angle_gamma	83.160210
loop_
_atom_site_label
_atom_site_type_symbol
_atom_site_fract_x
_atom_site_fract_y
_atom_site_fract_z
O1	O	0.100747	1.049024	0.007142
O2	O	0.600747	1.549024	0.507142
O3	O	0.113590	0.818807	-0.005656
O4	O	0.613590	1.318807	0.494344
O5	O	-0.007940	0.940334	-0.005654
O6	O	0.492060	1.440334	0.494346
O7	O	0.222277	0.927497	0.007140
O8	O	0.722277	1.427497	0.507140
O9	O	-0.007946	0.940314	0.115444
O10	O	0.492054	1.440314	0.615444
O11	O	0.113584	0.818787	0.115442
O12	O	0.613584	1.318787	0.615442
O13	O	0.100741	1.049003	0.128240
O14	O	0.600741	1.549003	0.628240
Zn15	Zn	0.107162	0.933892	0.141068
Zn16	Zn	0.607162	1.433892	0.641068
Zn17	Zn	0.107170	0.933919	-0.018484
Zn18	Zn	0.607170	1.433919	0.481516
O19	O	0.222271	0.927476	0.128238
O20	O	0.722271	1.427476	0.628238
C21	C	0.113100	0.789340	0.053130
C22	C	0.613100	1.289340	0.553130
C23	C	0.111638	0.701566	0.047876
C24	C	0.611638	1.201566	0.547876
C25	C	-0.037401	0.939836	0.053131
C26	C	0.462599	1.439836	0.553131
C27	C	-0.125174	0.938372	0.047873
C28	C	0.374826	1.438372	0.547873
C29	C	0.103383	0.207499	0.011164
C30	C	0.603383	0.707499	0.511164
C31	C	0.104757	0.289971	0.016111
C32	C	0.604757	0.789971	0.516111
C33	C	0.105446	0.331188	0.084596
C34	C	0.605446	0.831188	0.584596
C35	C	0.104754	0.289928	0.148137
C36	C	0.604754	0.789928	0.648137
C37	C	0.103375	0.207458	0.143190
C38	C	0.603375	0.707458	0.643190
C39	C	0.109566	0.577836	0.106470
C40	C	0.609566	1.077836	0.606470
C41	C	0.110948	0.660312	0.111413
C42	C	0.610948	1.160312	0.611413
C43	C	0.110949	0.660350	-0.020614
C44	C	0.610949	1.160350	0.479386
C45	C	0.109575	0.577877	-0.025555
C46	C	0.609575	1.077877	0.474445
C47	C	0.108878	0.536625	0.037986
C48	C	0.608878	1.036625	0.537986
N49	N	0.106853	0.415488	0.089653
N50	N	0.606853	0.915488	0.589653
N51	N	0.107466	0.452328	0.032928
N52	N	0.607466	0.952328	0.532928
C53	C	-0.166421	0.937672	0.111411
C54	C	0.333579	1.437672	0.611411
C55	C	-0.248895	0.936301	0.106465
C56	C	0.251105	1.436301	0.606465
C57	C	-0.290119	0.935626	0.037981
C58	C	0.209881	1.435626	0.537981
C59	C	-0.248867	0.936329	-0.025561
C60	C	0.251133	1.436329	0.474439
C61	C	-0.166396	0.937705	-0.020614
C62	C	0.333604	1.437705	0.479386
C63	C	-0.536771	0.931518	0.016109
C64	C	-0.036771	1.431518	0.516109
C65	C	-0.619248	0.930139	0.011167
C66	C	-0.119248	1.430139	0.511167
C67	C	-0.619270	0.930113	0.143193
C68	C	-0.119270	1.430113	0.643193
C69	C	-0.536796	0.931484	0.148134
C70	C	-0.036796	1.431484	0.648134
C71	C	-0.495552	0.932191	0.084592
C72	C	0.004448	1.432191	0.584592
N73	N	-0.374420	0.934223	0.032924
N74	N	0.125580	1.434223	0.532924
N75	N	-0.411253	0.933600	0.089650
N76	N	0.088747	1.433600	0.589650
C77	C	0.251732	0.927975	0.069452
C78	C	0.751732	1.427975	0.569452
C79	C	0.339506	0.929438	0.074704
C80	C	0.839506	1.429438	0.574704
C81	C	0.101232	1.078471	0.069453
C82	C	0.601232	1.578471	0.569453
C83	C	0.102694	1.166245	0.074702
C84	C	0.602694	1.666245	0.574702
N85	N	0.107156	0.933879	0.249958
N86	N	0.607156	1.433879	0.749958
N87	N	0.107169	0.933938	-0.127374
N88	N	0.607169	1.433938	0.372626
C89	C	0.053369	0.987709	0.288062
C90	C	0.553369	1.487709	0.788062
C91	C	0.053365	0.987714	0.364290
C92	C	0.553365	1.487714	0.864290
C93	C	0.107162	0.933897	0.402412
C94	C	0.607162	1.433897	0.902412
C95	C	0.160954	0.880057	0.364299
C96	C	0.660954	1.380057	0.864299
C97	C	0.160950	0.880048	0.288071
C98	C	0.660950	1.380048	0.788071
C99	C	0.179185	0.923459	0.526797
C100	C	0.679185	1.423459	1.026797
C101	C	0.179189	0.923473	0.603023
C102	C	0.679189	1.423473	1.103023
C103	C	0.107172	0.933919	0.637521
C104	C	0.607172	1.433919	1.137521
C105	C	0.035148	0.944368	0.595785
C106	C	0.535148	1.444368	1.095785
C107	C	0.035144	0.944359	0.519558
C108	C	0.535144	1.444359	1.019558
C109	C	0.107172	0.933900	0.485067
C110	C	0.607172	1.433900	0.985067
C111	C	0.053377	0.987757	0.758280
C112	C	0.553377	1.487757	1.258280
C113	C	0.053372	0.987757	0.834509
C114	C	0.553372	1.487757	1.334509
C115	C	0.160968	0.880103	0.834517
C116	C	0.660968	1.380103	1.334517
C117	C	0.160965	0.880100	0.758289
C118	C	0.660965	1.380100	1.258289
C119	C	0.107171	0.933931	0.720175
C120	C	0.607171	1.433931	1.220175
H121	H	0.102828	0.173946	-0.044603
H122	H	0.602828	0.673946	0.455397
C123	C	0.105490	0.335263	0.223470
C124	C	0.605490	0.835263	0.723470
H125	H	0.104868	0.298881	0.260601
H126	H	0.604868	0.798881	0.760601
H127	H	0.152109	0.361359	0.230510
H128	H	0.652109	0.861359	0.730510
H129	H	0.059930	0.373510	0.225777
H130	H	0.559930	0.873510	0.725777
H131	H	0.105314	0.323557	-0.035628
H132	H	0.605314	0.823557	0.464372
H133	H	0.204767	0.836270	0.727263
H134	H	0.704767	1.336270	1.227263
C135	C	-0.294264	0.935516	0.176353
C136	C	0.205736	1.435516	0.676353
H137	H	-0.349286	0.934605	0.163602
H138	H	0.150714	1.434605	0.663602
H139	H	-0.274670	0.889645	0.201923
H140	H	0.225330	1.389645	0.701923
H141	H	-0.286837	0.981823	0.206650
H142	H	0.213163	1.481823	0.706650
C143	C	-0.121024	0.938474	-0.090505
C144	C	0.378976	1.438474	0.409495
H145	H	-0.157385	0.937868	-0.132001
H146	H	0.342615	1.437868	0.367999
H147	H	-0.094933	0.985098	-0.088963
H148	H	0.405067	1.485098	0.411037
H149	H	-0.082770	0.892920	-0.093676
H150	H	0.417230	1.392920	0.406324
C151	C	-0.005798	1.046930	0.406216
C152	C	0.494202	1.546930	0.906216
H153	H	0.001907	1.039222	0.457073
H154	H	0.501907	1.539222	0.957073
H155	H	0.002765	1.099685	0.397320
H156	H	0.502765	1.599685	0.897320
H157	H	-0.058571	1.038405	0.390127
H158	H	0.441429	1.538405	0.890127
H159	H	0.204755	0.836236	0.395341
H160	H	0.704755	1.336236	0.895341
C161	C	-0.294212	0.935585	-0.100892
C162	C	0.205788	1.435585	0.399108
H163	H	-0.349235	0.934656	-0.094740
H164	H	0.150765	1.434656	0.405260
H165	H	-0.286773	0.981900	-0.124851
H166	H	0.213227	1.481900	0.375149
H167	H	-0.274606	0.889722	-0.129557
H168	H	0.225394	1.389722	0.370443
H169	H	0.109012	0.544325	-0.081323
H170	H	0.609012	1.044325	0.418677
H171	H	0.204751	0.836212	0.257047
H172	H	0.704751	1.336212	0.757047
H173	H	0.102821	0.173869	0.194929
H174	H	0.602821	0.673869	0.694929
C175	C	-0.664599	0.929440	-0.064167
C176	C	-0.164599	1.429440	0.435833
H177	H	-0.628227	0.930077	-0.101301
H178	H	-0.128227	1.430077	0.398699
H179	H	-0.690704	0.882828	-0.071221
H180	H	-0.190704	1.382828	0.428779
H181	H	-0.702841	0.975007	-0.066454
H182	H	-0.202841	1.475007	0.433546
H183	H	0.237834	0.914938	0.498714
H184	H	0.737834	1.414938	0.998714
C185	C	0.111706	0.705729	-0.090504
C186	C	0.611706	1.205729	0.409496
H187	H	0.112619	0.760750	-0.077752
H188	H	0.612619	1.260750	0.422248
H189	H	0.157563	0.686140	-0.116089
H190	H	0.657563	1.186140	0.383911
H191	H	0.065385	0.698304	-0.120785
H192	H	0.565385	1.198304	0.379215
C193	C	-0.005811	1.046912	0.246140
C194	C	0.494189	1.546912	0.746140
H195	H	-0.037850	1.078967	0.279754
H196	H	0.462150	1.578967	0.779754
H197	H	0.022610	1.079788	0.219997
H198	H	0.522610	1.579788	0.719997
H199	H	-0.038716	1.018498	0.212809
H200	H	0.461284	1.518498	0.712809
C201	C	-0.491411	0.932282	-0.053785
C202	C	0.008589	1.432282	0.446215
H203	H	-0.527775	0.931671	-0.095279
H204	H	-0.027775	1.431671	0.404721
H205	H	-0.465317	0.978903	-0.052252
H206	H	0.034683	1.478903	0.447748
H207	H	-0.453159	0.886725	-0.056953
H208	H	0.046841	1.386725	0.443047
H209	H	-0.652860	0.929538	0.194925
H210	H	-0.152860	1.429538	0.694925
C211	C	0.111666	0.705654	0.186747
C212	C	0.611666	1.205654	0.686747
H213	H	0.111036	0.669278	0.223881
H214	H	0.611036	1.169278	0.723881
H215	H	0.158281	0.731755	0.193796
H216	H	0.658281	1.231755	0.693796
H217	H	0.066102	0.743898	0.189040
H218	H	0.566102	1.243898	0.689040
H219	H	-0.023496	0.952874	0.623872
H220	H	0.476504	1.452874	1.123872
C221	C	-0.005802	1.046956	0.716347
C222	C	0.494198	1.546956	1.216347
H223	H	0.001906	1.039248	0.665492
H224	H	0.501906	1.539248	1.165492
H225	H	-0.058567	1.038427	0.725239
H226	H	0.441433	1.538427	1.225239
H227	H	0.002758	1.099718	0.732437
H228	H	0.502758	1.599718	1.232437
C229	C	-0.121081	0.938414	0.186744
C230	C	0.378919	1.438414	0.686744
H231	H	-0.157462	0.937808	0.223876
H232	H	0.342538	1.437808	0.723876
H233	H	-0.082828	0.892865	0.189065
H234	H	0.417172	1.392865	0.689065
H235	H	-0.094993	0.985043	0.193773
H236	H	0.405007	1.485043	0.693773
C237	C	-0.005798	1.046968	0.876427
C238	C	0.494202	1.546968	1.376427
H239	H	0.001900	1.039258	0.927283
H240	H	0.501900	1.539258	1.427283
H241	H	0.002762	1.099724	0.867534
H242	H	0.502762	1.599724	1.367534
H243	H	-0.058568	1.038438	0.860330
H244	H	0.441432	1.538438	1.360330
H245	H	0.108987	0.544260	0.158210
H246	H	0.608987	1.044260	0.658210
C247	C	-0.491456	0.932236	0.223467
C248	C	0.008544	1.432236	0.723467
H249	H	-0.527835	0.931631	0.260600
H250	H	-0.027835	1.431631	0.760600
H251	H	-0.453201	0.886689	0.225788
H252	H	0.046799	1.386689	0.725788
H253	H	-0.465370	0.978867	0.230491
H254	H	0.034630	1.478867	0.730491
H255	H	-0.023500	0.952865	0.485579
H256	H	0.476500	1.452865	0.985579
H257	H	0.204767	0.836281	0.865556
H258	H	0.704767	1.336281	1.365556
C259	C	0.258412	0.911985	0.648926
C260	C	0.758412	1.411985	1.148926
H261	H	0.301301	0.905750	0.617463
H262	H	0.801301	1.405750	1.117463
H263	H	0.262779	0.957161	0.681564
H264	H	0.762779	1.457161	1.181564
H265	H	0.260035	0.865945	0.676060
H266	H	0.760035	1.365945	1.176060
