data_functionalizedCrystal
_audit_creation_method	'MofGen! by Chris Wilmer'
_symmetry_space_group_name_H-M	'P1'
_symmetry_Int_Tables_number	1
_symmetry_cell_setting	triclinic
loop_
_symmetry_equiv_pos_as_xyz
  x,y,z
_cell_length_a	29.839131
_cell_length_b	12.827893
_cell_length_c	12.827885
_cell_angle_alpha	90.021189
_cell_angle_beta	89.963179
_cell_angle_gamma	89.960561
loop_
_atom_site_label
_atom_site_type_symbol
_atom_site_fract_x
_atom_site_fract_y
_atom_site_fract_z
Zn1	Zn	-0.178855	-1.597481	-0.590851
Zn2	Zn	0.321145	-1.097481	-0.090851
Zn3	Zn	-0.253992	-1.597295	-0.416090
Zn4	Zn	0.246008	-1.097295	0.083910
Zn5	Zn	-0.178875	-1.422722	-0.416119
Zn6	Zn	0.321125	-0.922722	0.083881
Zn7	Zn	-0.253956	-1.422628	-0.590784
Zn8	Zn	0.246044	-0.922628	-0.090784
O9	O	-0.216420	-1.510031	-0.503461
O10	O	0.283580	-1.010031	-0.003461
O11	O	-0.188829	-1.743692	-0.567684
O12	O	0.311171	-1.243692	-0.067684
O13	O	-0.244051	-1.574100	-0.269857
O14	O	0.255949	-1.074100	0.230143
O15	O	-0.116005	-1.446021	-0.439338
O16	O	0.383995	-0.946021	0.060662
O17	O	-0.244032	-1.743556	-0.439288
O18	O	0.255968	-1.243556	0.060712
O19	O	-0.115991	-1.574415	-0.567713
O20	O	0.384009	-1.074415	-0.067713
O21	O	-0.188862	-1.445841	-0.269879
O22	O	0.311138	-0.945841	0.230121
O23	O	-0.188827	-1.276473	-0.439273
O24	O	0.311173	-0.776473	0.060727
O25	O	-0.243971	-1.445861	-0.737029
O26	O	0.256029	-0.945861	-0.237029
O27	O	-0.243990	-1.276404	-0.567598
O28	O	0.256010	-0.776404	-0.067598
O29	O	-0.188794	-1.574324	-0.737078
O30	O	0.311206	-1.074324	-0.237078
O31	O	-0.316855	-1.574008	-0.439223
O32	O	0.183145	-1.074008	0.060777
O33	O	-0.316828	-1.445681	-0.567570
O34	O	0.183172	-0.945681	-0.067570
C35	C	-0.216407	-1.238522	-0.503432
C36	C	0.283593	-0.738522	-0.003432
C37	C	-0.216412	-1.122368	-0.503444
C38	C	0.283588	-0.622368	-0.003444
C39	C	-0.243750	-1.070577	-0.566844
C40	C	0.256250	-0.570577	-0.066844
C41	C	-0.243757	-0.950527	-0.566859
C42	C	0.256243	-0.450527	-0.066859
C43	C	-0.333142	-1.509843	-0.503409
C44	C	0.166858	-1.009843	-0.003409
C45	C	-0.383077	-1.509858	-0.503422
C46	C	0.116923	-1.009858	-0.003422
C47	C	-0.692721	-1.576973	-0.436728
C48	C	-0.192721	-1.076973	0.063272
C49	C	-0.880394	-1.577102	-0.436769
C50	C	-0.380394	-1.077102	0.063231
O51	O	-0.904660	-1.634016	-0.380024
O52	O	-0.404660	-1.134016	0.119976
N53	N	-0.903862	-1.510248	-0.503540
N54	N	-0.403862	-1.010248	-0.003540
C55	C	-0.880408	-1.443362	-0.570310
C56	C	-0.380408	-0.943362	-0.070310
O57	O	-0.904675	-1.386509	-0.627111
O58	O	-0.404675	-0.886509	-0.127111
C59	C	-0.692736	-1.443239	-0.570274
C60	C	-0.192736	-0.943239	-0.070274
C61	C	-0.669271	-1.510090	-0.503491
C62	C	-0.169271	-1.010090	-0.003491
C63	C	-0.669256	-1.643819	-0.369952
C64	C	-0.169256	-1.143819	0.130048
C65	C	-0.622341	-1.643782	-0.369938
C66	C	-0.122341	-1.143782	0.130062
C67	C	-0.598890	-1.576899	-0.436701
C68	C	-0.098890	-1.076899	0.063299
C69	C	-0.622355	-1.510053	-0.503478
C70	C	-0.122355	-1.010053	-0.003478
C71	C	-0.669283	-1.376359	-0.637049
C72	C	-0.169283	-0.876359	-0.137049
C73	C	-0.622362	-1.376336	-0.637036
C74	C	-0.122362	-0.876336	-0.137036
C75	C	-0.598897	-1.443187	-0.570253
C76	C	-0.098897	-0.943187	-0.070253
C77	C	-0.551990	-1.443133	-0.570227
C78	C	-0.051990	-0.943133	-0.070227
N79	N	-0.528522	-1.509987	-0.503456
N80	N	-0.028522	-1.009987	-0.003456
C81	C	-0.551972	-1.576870	-0.436693
C82	C	-0.051972	-1.076870	0.063307
C83	C	-0.978939	-1.443430	-0.570323
C84	C	-0.478939	-0.943430	-0.070323
C85	C	-1.025857	-1.443459	-0.570331
C86	C	-0.525857	-0.943459	-0.070331
C87	C	-1.025839	-1.577201	-0.436791
C88	C	-0.525839	-1.077201	0.063209
C89	C	-0.978921	-1.577165	-0.436778
C90	C	-0.478921	-1.077165	0.063222
C91	C	-0.955471	-1.510284	-0.503552
C92	C	-0.455471	-1.010284	-0.003552
C93	C	-0.453447	-1.576787	-0.436669
C94	C	0.046553	-1.076787	0.063331
C95	C	-0.406527	-1.576741	-0.436659
C96	C	0.093473	-1.076741	0.063341
C97	C	-0.406548	-1.443003	-0.570202
C98	C	0.093452	-0.943003	-0.070202
C99	C	-0.453464	-1.443045	-0.570210
C100	C	0.046536	-0.943045	-0.070210
C101	C	-0.476912	-1.509945	-0.503440
C102	C	0.023088	-1.009945	-0.003440
O103	O	-0.527695	-1.386257	-0.626951
O104	O	-0.027695	-0.886257	-0.126951
O105	O	-0.527698	-1.633731	-0.379917
O106	O	-0.027698	-1.133731	0.120083
C107	C	-0.739637	-1.577010	-0.436742
C108	C	-0.239637	-1.077010	0.063258
C109	C	-0.763102	-1.510164	-0.503518
C110	C	-0.263102	-1.010164	-0.003518
C111	C	-0.739651	-1.443281	-0.570281
C112	C	-0.239651	-0.943281	-0.070281
C113	C	-0.810020	-1.510193	-0.503526
C114	C	-0.310020	-1.010193	-0.003526
C115	C	-0.833470	-1.577076	-0.436763
C116	C	-0.333470	-1.077076	0.063237
C117	C	-0.810002	-1.643930	-0.369992
C118	C	-0.310002	-1.143930	0.130008
C119	C	-0.763087	-1.643893	-0.369979
C120	C	-0.263087	-1.143893	0.130021
C121	C	-0.763119	-1.376427	-0.637052
C122	C	-0.263119	-0.876427	-0.137052
C123	C	-0.810034	-1.376468	-0.637059
C124	C	-0.310034	-0.876468	-0.137059
C125	C	-0.833485	-1.443351	-0.570296
C126	C	-0.333485	-0.943351	-0.070296
C127	C	-0.099241	-1.510249	-0.503536
C128	C	0.400759	-1.010249	-0.003536
C129	C	-0.049307	-1.510342	-0.503568
C130	C	0.450693	-1.010342	-0.003568
C131	C	-0.216377	-1.510103	-0.776031
C132	C	0.283623	-1.010103	-0.276031
C133	C	-0.216358	-1.510133	-0.892184
C134	C	0.283642	-1.010133	-0.392184
C135	C	-0.216429	-0.782602	-0.503482
C136	C	0.283571	-0.282602	-0.003482
C137	C	-0.216424	-0.898755	-0.503470
C138	C	0.283576	-0.398755	-0.003470
C139	C	-0.189050	-1.573708	-0.943994
C140	C	0.310950	-1.073708	-0.443994
C141	C	-0.189030	-1.573740	-1.064044
C142	C	0.310970	-1.073740	-0.564044
C143	C	-0.216430	-1.510021	-0.231951
C144	C	0.283570	-1.010021	0.268049
C145	C	-0.216322	-1.510193	-0.115798
C146	C	0.283678	-1.010193	0.384202
H147	H	-0.193010	-1.077832	-0.449180
H148	H	0.306990	-0.577832	0.050820
H149	H	-0.603272	-1.321874	-0.691414
H150	H	-0.103272	-0.821874	-0.191414
N151	N	-0.247296	-1.438082	-1.056811
N152	N	0.252704	-0.938082	-0.556811
H153	H	-0.268109	-1.480535	-1.011516
H154	H	0.231891	-0.980535	-0.511516
H155	H	-0.228996	-1.389728	-1.011593
H156	H	0.271004	-0.889728	-0.511593
H157	H	-0.239720	-1.455722	-0.936705
H158	H	0.260280	-0.955722	-0.436705
N159	N	-1.051135	-1.649351	-0.364787
N160	N	-0.551135	-1.149351	0.135213
H161	H	-1.043003	-1.633169	-0.290100
H162	H	-0.543003	-1.133169	0.209900
H163	H	-1.084409	-1.639190	-0.375020
H164	H	-0.584409	-1.139190	0.124980
H165	H	-0.165683	-1.628108	-0.899472
H166	H	0.334317	-1.128108	-0.399472
N167	N	-0.381221	-1.648857	-0.364631
N168	N	0.118779	-1.148857	0.135369
H169	H	-0.361720	-1.697244	-0.407140
H170	H	0.138280	-1.197244	0.092860
H171	H	-0.361815	-1.606332	-0.316167
H172	H	0.138185	-1.106332	0.183833
N173	N	-0.185417	-0.957746	-0.431574
N174	N	0.314583	-0.457746	0.068426
H175	H	-0.153321	-0.938856	-0.447930
H176	H	0.346679	-0.438856	0.052070
H177	H	-0.192386	-0.938742	-0.356889
H178	H	0.307614	-0.438742	0.143111
N179	N	-0.274750	-1.129557	-0.638733
N180	N	0.225250	-0.629557	-0.138733
H181	H	-0.270352	-1.206956	-0.628531
H182	H	0.229648	-0.706956	-0.128531
H183	H	-0.306834	-1.110480	-0.622344
H184	H	0.193166	-0.610480	-0.122344
N185	N	-0.158061	-1.645849	-1.123049
N186	N	0.341939	-1.145849	-0.623049
H187	H	-0.162438	-1.635653	-1.200445
H188	H	0.337562	-1.135653	-0.700445
H189	H	-0.125971	-1.629656	-1.104046
H190	H	0.374029	-1.129656	-0.604046
N191	N	-0.478733	-1.648942	-0.364656
N192	N	0.021267	-1.148942	0.135344
H193	H	-0.456743	-1.691276	-0.322356
H194	H	0.043257	-1.191276	0.177644
H195	H	-0.498233	-1.606447	-0.316258
H196	H	0.001767	-1.106447	0.183742
N197	N	-0.835337	-1.304349	-0.709091
N198	N	-0.335337	-0.804349	-0.209091
H199	H	-0.827136	-1.320539	-0.783765
H200	H	-0.327136	-0.820539	-0.283765
H201	H	-0.868610	-1.314543	-0.698892
H202	H	-0.368610	-0.814543	-0.198892
H203	H	-0.267163	-0.905987	-0.621135
H204	H	0.232837	-0.405987	-0.121135
H205	H	-0.472570	-1.388613	-0.624593
H206	H	0.027430	-0.888613	-0.124593
H207	H	-0.603238	-1.698221	-0.315561
H208	H	-0.103238	-1.198221	0.184439
H209	H	-0.688344	-1.698289	-0.315585
H210	H	-0.188344	-1.198289	0.184415
H211	H	-0.959818	-1.631602	-0.382399
H212	H	-0.459818	-1.131602	0.117601
H213	H	-1.044958	-1.389013	-0.624702
H214	H	-0.544958	-0.889013	-0.124702
H215	H	-0.743985	-1.698329	-0.315598
H216	H	-0.243985	-1.198329	0.184402
N217	N	-0.953648	-1.371282	-0.642337
N218	N	-0.453648	-0.871282	-0.142337
H219	H	-0.961786	-1.387469	-0.717019
H220	H	-0.461786	-0.887469	-0.217019
H221	H	-0.961863	-1.296663	-0.625939
H222	H	-0.461863	-0.796663	-0.125939
N223	N	-0.694584	-1.304250	-0.709074
N224	N	-0.194584	-0.804250	-0.209074
H225	H	-0.672603	-1.261885	-0.751363
H226	H	-0.172603	-0.761885	-0.251363
H227	H	-0.714017	-1.346770	-0.757483
H228	H	-0.214017	-0.846770	-0.257483
H229	H	-0.387448	-1.388545	-0.624557
H230	H	0.112552	-0.888545	-0.124557
N231	N	-0.835300	-1.716060	-0.297973
N232	N	-0.335300	-1.216060	0.202027
H233	H	-0.868582	-1.705930	-0.308121
H234	H	-0.368582	-1.205930	0.191879
H235	H	-0.827065	-1.790682	-0.314301
H236	H	-0.327065	-1.290682	0.185699
H237	H	-0.744029	-1.321964	-0.691420
H238	H	-0.244029	-0.821964	-0.191420
