data_functionalizedCrystal
_audit_creation_method	'MofGen! by Chris Wilmer'
_symmetry_space_group_name_H-M	'P1'
_symmetry_Int_Tables_number	1
_symmetry_cell_setting	triclinic
loop_
_symmetry_equiv_pos_as_xyz
  x,y,z
_cell_length_a	27.732048
_cell_length_b	23.532407
_cell_length_c	22.610064
_cell_angle_alpha	90.000603
_cell_angle_beta	89.989356
_cell_angle_gamma	97.254334
loop_
_atom_site_label
_atom_site_type_symbol
_atom_site_fract_x
_atom_site_fract_y
_atom_site_fract_z
O1	O	0.641035	-0.067758	-0.049224
O2	O	0.500257	-0.078062	-0.049218
O3	O	0.574891	0.010031	-0.049210
O4	O	0.566401	-0.155851	-0.049232
O5	O	0.574878	0.010018	0.049159
O6	O	0.500244	-0.078075	0.049151
O7	O	0.641022	-0.067771	0.049145
Zn8	Zn	0.570631	-0.072925	0.064766
Zn9	Zn	0.570648	-0.072908	-0.064839
O10	O	0.566388	-0.155864	0.049137
C11	C	0.482243	-0.077852	-0.000033
C12	C	0.428587	-0.077201	-0.000031
C13	C	0.659035	-0.067981	-0.000041
C14	C	0.712691	-0.068632	-0.000048
C15	C	1.051433	-0.020675	-0.000021
C16	C	1.253096	-0.023092	-0.000020
O17	O	1.284284	0.020761	0.000011
N18	N	1.272300	-0.075327	-0.000028
C19	C	1.241085	-0.126962	-0.000033
O20	O	1.262046	-0.171447	-0.000034
C21	C	1.039422	-0.124545	-0.000030
C22	C	1.020221	-0.072306	-0.000028
C23	C	1.032231	0.031559	-0.000018
C24	C	0.981818	0.032163	-0.000022
C25	C	0.950607	-0.019468	-0.000028
C26	C	0.969809	-0.071703	-0.000032
C27	C	1.008208	-0.176179	-0.000031
C28	C	0.957790	-0.175570	-0.000029
C29	C	0.938589	-0.123332	-0.000027
C30	C	0.888184	-0.122730	-0.000042
N31	N	0.868980	-0.070495	-0.000034
C32	C	0.900192	-0.018864	-0.000027
C33	C	1.346961	-0.128227	-0.000036
C34	C	1.397376	-0.128832	-0.000037
C35	C	1.409384	-0.024961	-0.000023
C36	C	1.358968	-0.024358	-0.000025
C37	C	1.327757	-0.075992	-0.000027
C38	C	0.794320	-0.017600	-0.000035
C39	C	0.743903	-0.017001	-0.000041
C40	C	0.731899	-0.120871	-0.000052
C41	C	0.782313	-0.121471	-0.000049
C42	C	0.813523	-0.069831	-0.000039
O43	O	0.856968	-0.166560	-0.000066
O44	O	0.879221	0.025614	-0.000013
C45	C	1.101845	-0.021279	-0.000018
C46	C	1.121047	-0.073513	-0.000021
C47	C	1.089836	-0.125144	-0.000027
C48	C	1.171462	-0.074118	-0.000022
C49	C	1.202674	-0.022487	-0.000016
C50	C	1.183470	0.029748	-0.000007
C51	C	1.133057	0.030352	-0.000011
C52	C	1.109040	-0.177380	-0.000036
C53	C	1.159453	-0.177979	-0.000033
C54	C	1.190665	-0.126348	-0.000026
C55	C	0.574668	0.031240	-0.000024
C56	C	0.574018	0.094455	-0.000020
C57	C	0.566610	-0.177073	-0.000050
C58	C	0.567260	-0.240289	-0.000059
N59	N	0.570622	-0.072936	0.153219
C60	C	0.614108	0.493644	-0.000054
C61	C	0.613504	0.553043	-0.000058
O62	O	0.650668	0.589867	-0.000081
N63	N	0.569134	0.575574	-0.000056
C64	C	0.525365	0.538703	-0.000056
O65	O	0.487570	0.563322	-0.000055
C66	C	0.525970	0.479306	-0.000055
C67	C	0.570343	0.456778	-0.000051
C68	C	0.658477	0.471116	-0.000050
C69	C	0.659081	0.411721	-0.000045
C70	C	0.615315	0.374854	-0.000043
C71	C	0.570946	0.397383	-0.000046
C72	C	0.482201	0.442436	-0.000059
C73	C	0.482810	0.383035	-0.000059
C74	C	0.527182	0.360507	-0.000055
C75	C	0.527784	0.301122	-0.000038
N76	N	0.572154	0.278590	-0.000040
C77	C	0.615920	0.315457	-0.000042
C78	C	0.524100	0.663443	-0.000057
C79	C	0.523495	0.722840	-0.000053
C80	C	0.611634	0.737175	-0.000057
C81	C	0.612238	0.677778	-0.000057
C82	C	0.568469	0.640912	-0.000059
C83	C	0.617184	0.190723	-0.000030
C84	C	0.617784	0.131322	-0.000022
C85	C	0.529645	0.116991	-0.000021
C86	C	0.529045	0.176387	-0.000026
C87	C	0.572818	0.213252	-0.000033
O88	O	0.490640	0.264263	-0.000017
O89	O	0.653709	0.290829	-0.000051
N90	N	0.570660	-0.072892	-0.153292
C91	C	0.603697	-0.033907	0.561864
C92	C	0.603700	-0.033902	0.623784
O93	O	0.631801	-0.000727	0.655805
N94	N	0.570648	-0.072896	0.654756
C95	C	0.537588	-0.111893	0.623805
O96	O	0.509474	-0.145060	0.655835
C97	C	0.537583	-0.111894	0.561886
C98	C	0.570641	-0.072901	0.530917
C99	C	0.636752	0.005083	0.530895
C100	C	0.636750	0.005078	0.468979
C101	C	0.603693	-0.033917	0.438032
C102	C	0.570639	-0.072906	0.469002
C103	C	0.504521	-0.150887	0.530937
C104	C	0.504519	-0.150885	0.469014
C105	C	0.537577	-0.111892	0.438044
C106	C	0.537580	-0.111906	0.376139
N107	N	0.570632	-0.072912	0.345167
C108	C	0.603689	-0.033918	0.376114
C109	C	0.537599	-0.111887	0.753839
C110	C	0.537605	-0.111889	0.815756
C111	C	0.603717	-0.033898	0.815731
C112	C	0.603713	-0.033899	0.753812
C113	C	0.570651	-0.072893	0.722866
C114	C	0.603683	-0.033931	0.246086
C115	C	0.603679	-0.033941	0.184165
C116	C	0.537566	-0.111931	0.184196
C117	C	0.537571	-0.111923	0.246112
C118	C	0.570631	-0.072918	0.277055
O119	O	0.509492	-0.145064	0.344078
O120	O	0.631794	-0.000752	0.344076
H121	H	0.728272	0.025540	-0.000041
H122	H	0.630633	-0.002145	0.840938
F123	F	0.659465	0.653808	-0.000053
H124	H	0.494012	0.086964	-0.000017
F125	F	0.671932	0.046582	0.436025
H126	H	0.630600	-0.002189	0.158952
H127	H	0.510653	-0.143681	0.158990
F128	F	0.638869	0.007582	0.279010
F129	F	0.663773	0.229949	-0.000037
F130	F	0.671938	0.046591	0.563822
H131	H	0.630631	-0.002148	0.728600
F132	F	0.502427	-0.153397	0.848710
F133	F	0.502411	-0.153397	0.720909
F134	F	0.469336	-0.192388	0.563885
F135	F	0.502392	-0.153430	0.279071
F136	F	0.827529	0.037361	-0.000024
F137	F	0.961390	0.087763	-0.000024
F138	F	0.469328	-0.192388	0.436083
H139	H	1.057639	0.073606	-0.000011
H140	H	0.653919	0.112983	-0.000017
F141	F	1.442610	0.029988	-0.000017
F142	F	1.338537	0.031241	-0.000021
F143	F	0.706309	0.387753	-0.000054
H144	H	0.487362	0.741176	-0.000046
H145	H	1.413005	-0.171370	-0.000048
H146	H	0.488456	0.633430	-0.000054
F147	F	1.313749	-0.183188	-0.000041
H148	H	0.694118	0.501127	-0.000055
H149	H	0.932380	-0.217619	-0.000028
F150	F	1.028632	-0.231780	-0.000034
H151	H	0.492913	0.194730	-0.000013
H152	H	0.797947	-0.164008	-0.000052
H153	H	0.706478	-0.162908	-0.000061
H154	H	1.117428	0.072890	-0.000009
F155	F	1.216696	0.084698	-0.000003
H156	H	1.175082	-0.220521	-0.000039
H157	H	1.083632	-0.219425	-0.000041
F158	F	0.434973	0.466398	-0.000066
H159	H	0.647270	0.767203	-0.000061
F160	F	0.436224	0.343802	-0.000063
