data_functionalizedCrystal
_audit_creation_method	'MofGen! by Chris Wilmer'
_symmetry_space_group_name_H-M	'P1'
_symmetry_Int_Tables_number	1
_symmetry_cell_setting	triclinic
loop_
_symmetry_equiv_pos_as_xyz
  x,y,z
_cell_length_a	12.811457
_cell_length_b	14.853567
_cell_length_c	11.295501
_cell_angle_alpha	94.589730
_cell_angle_beta	89.163056
_cell_angle_gamma	83.839833
loop_
_atom_site_label
_atom_site_type_symbol
_atom_site_fract_x
_atom_site_fract_y
_atom_site_fract_z
O1	O	1.389580	0.118616	-0.051050
O2	O	1.086108	0.133623	-0.018276
O3	O	1.245951	-0.005136	-0.035535
O4	O	1.229738	0.257375	-0.033791
O5	O	1.233394	-0.015946	-0.232229
O6	O	1.073552	0.122813	-0.214970
O7	O	1.377023	0.107806	-0.247744
Cu8	Cu	1.224141	0.114322	-0.249317
Cu9	Cu	1.238991	0.127107	-0.016703
O10	O	1.217181	0.246565	-0.230486
C11	C	1.040993	0.127709	-0.112429
C12	C	0.925270	0.126180	-0.099931
C13	C	0.694125	0.111505	-0.290905
C14	C	0.585393	0.110069	-0.279168
C15	C	0.599073	0.121864	-0.064720
C16	C	0.707805	0.123301	-0.076458
C17	C	0.755326	0.118122	-0.189554
C18	C	0.864060	0.119565	-0.201290
C19	C	0.877739	0.131354	0.013157
C20	C	0.769006	0.129918	0.024894
C21	C	1.238938	-0.044127	-0.133799
C22	C	1.236737	-0.144203	-0.133551
C23	C	1.132481	-0.556400	-0.122315
C24	C	1.322377	-0.578298	-0.142823
C25	C	1.324447	-0.484270	-0.143039
C26	C	1.230533	-0.426303	-0.132895
C27	C	1.134548	-0.462364	-0.122534
C28	C	1.420429	-0.448203	-0.153412
C29	C	1.422503	-0.354170	-0.153630
C30	C	1.328588	-0.296201	-0.143477
C31	C	1.232600	-0.332267	-0.133115
C32	C	1.138685	-0.274300	-0.122971
C33	C	1.042696	-0.310364	-0.112600
C34	C	1.040633	-0.404395	-0.112382
C35	C	1.330651	-0.202170	-0.143695
C36	C	1.140753	-0.180264	-0.123191
C37	C	1.422139	0.113721	-0.153589
C38	C	1.537862	0.115249	-0.166079
C39	C	1.224194	0.285557	-0.132219
C40	C	1.226395	0.385633	-0.132459
N41	N	1.213704	0.105330	-0.412926
C42	C	1.324556	0.200867	-0.674191
C43	C	1.316677	0.194064	-0.798003
C44	C	1.190072	0.084917	-0.784366
C45	C	1.197952	0.091720	-0.660554
C46	C	1.265194	0.149698	-0.605471
C47	C	1.273068	0.156505	-0.481655
C48	C	1.146469	0.047353	-0.468021
C49	C	1.138590	0.040550	-0.591833
N50	N	1.249436	0.136092	0.146905
H51	H	0.535565	0.104685	-0.361700
C52	C	0.952836	-0.168064	-0.102894
C53	C	1.037516	-0.116550	-0.112041
H54	H	0.889104	-0.128729	-0.096018
H55	H	0.960360	-0.201423	-0.034645
H56	H	0.951607	-0.208968	-0.171830
H57	H	1.038750	-0.075650	-0.043101
H58	H	1.029990	-0.083176	-0.180297
C59	C	1.070220	-0.018286	-0.775564
C60	C	1.064673	-0.023174	-0.652383
H61	H	1.024578	-0.057622	-0.812938
H62	H	1.140207	-0.036247	-0.803581
H63	H	1.049617	0.042328	-0.793711
H64	H	1.085283	-0.083787	-0.634235
H65	H	0.994671	-0.005217	-0.624356
H66	H	0.560363	0.126065	0.027357
C67	C	1.442604	0.302639	-0.799041
C68	C	1.381924	0.250315	-0.873542
H69	H	1.482882	0.337370	-0.845677
H70	H	1.488329	0.263730	-0.755350
H71	H	1.397749	0.342314	-0.745581
H72	H	1.426780	0.210635	-0.926996
H73	H	1.336195	0.289228	-0.917252
C74	C	0.643057	0.212626	0.163737
C75	C	0.716763	0.135616	0.149205
H76	H	0.610811	0.216148	0.240486
H77	H	0.591052	0.208469	0.105062
H78	H	0.677329	0.265491	0.155538
H79	H	0.682489	0.082750	0.157395
H80	H	0.768776	0.139766	0.207897
H81	H	0.966231	-0.263155	-0.104349
C82	C	0.974214	0.014353	-0.411114
C83	C	1.081201	-0.008895	-0.392490
H84	H	0.933917	-0.020366	-0.364481
H85	H	0.959919	0.002004	-0.492730
H86	H	0.956246	0.077188	-0.388740
H87	H	1.099170	-0.071730	-0.414872
H88	H	1.095502	0.003447	-0.310856
H89	H	0.927580	0.136748	0.095685
C90	C	0.727560	0.024423	-0.478551
C91	C	0.746372	0.105815	-0.415213
H92	H	0.759821	0.020910	-0.555291
H93	H	0.654052	0.022629	-0.486070
H94	H	0.756065	-0.025470	-0.437253
H95	H	0.717860	0.155708	-0.456507
H96	H	0.819895	0.107617	-0.407699
C97	C	0.953149	-0.538815	-0.102964
C98	C	0.935128	-0.444039	-0.101000
H99	H	0.888014	-0.563290	-0.095949
H100	H	0.996189	-0.554953	-0.038550
H101	H	0.987451	-0.562476	-0.175736
H102	H	0.900833	-0.420377	-0.028224
H103	H	0.892071	-0.427893	-0.165419
C104	C	1.403519	-0.732162	-0.151597
C105	C	1.425603	-0.642012	-0.153975
H106	H	1.467252	-0.771497	-0.158474
H107	H	1.359797	-0.746831	-0.215938
H108	H	1.368544	-0.739298	-0.078753
H109	H	1.460571	-0.634875	-0.226823
H110	H	1.469342	-0.627338	-0.089628
C111	C	1.588105	-0.490268	-0.069716
C112	C	1.523653	-0.511921	-0.164561
H113	H	1.651835	-0.529607	-0.076604
H114	H	1.553131	-0.497410	0.003113
H115	H	1.603072	-0.429106	-0.071350
H116	H	1.508680	-0.573081	-0.162923
H117	H	1.558634	-0.504787	-0.237410
C118	C	1.541448	-0.255584	-0.064651
C119	C	1.528011	-0.314531	-0.165016
H120	H	1.606582	-0.231109	-0.071683
H121	H	1.541073	-0.288051	0.004435
H122	H	1.485808	-0.207607	-0.058653
H123	H	1.583646	-0.362513	-0.171010
H124	H	1.528395	-0.282064	-0.234121
C125	C	1.449591	-0.103573	-0.054734
C126	C	1.436148	-0.162523	-0.155094
H127	H	1.514722	-0.079094	-0.061776
H128	H	1.449228	-0.136039	0.014354
H129	H	1.393948	-0.055599	-0.048729
H130	H	1.491788	-0.210501	-0.161094
H131	H	1.436521	-0.130056	-0.224201
H132	H	1.054329	-0.585767	-0.113866
H133	H	1.135337	0.037703	-0.829238
H134	H	0.902749	0.115354	-0.293378
H135	H	1.327816	0.203718	-0.436808
C136	C	1.340090	0.329766	-0.535670
C137	C	1.398460	0.264600	-0.613634
H138	H	1.385716	0.369115	-0.498293
H139	H	1.305877	0.300259	-0.477029
H140	H	1.289099	0.364129	-0.578821
H141	H	1.449446	0.230232	-0.570482
H142	H	1.432689	0.294110	-0.672283
