data_functionalizedCrystal
_audit_creation_method	'MofGen! by Chris Wilmer'
_symmetry_space_group_name_H-M	'P1'
_symmetry_Int_Tables_number	1
_symmetry_cell_setting	triclinic
loop_
_symmetry_equiv_pos_as_xyz
  x,y,z
_cell_length_a	17.038272
_cell_length_b	14.971486
_cell_length_c	14.048226
_cell_angle_alpha	89.993360
_cell_angle_beta	89.999337
_cell_angle_gamma	87.362843
loop_
_atom_site_label
_atom_site_type_symbol
_atom_site_fract_x
_atom_site_fract_y
_atom_site_fract_z
O1	O	1.037595	0.194250	-0.079043
O2	O	0.809961	0.191166	-0.079071
O3	O	0.929879	0.062965	-0.079049
O4	O	0.917677	0.322451	-0.079064
O5	O	0.929865	0.062956	0.079272
O6	O	0.809946	0.191157	0.079251
O7	O	1.037581	0.194241	0.079279
Zn8	Zn	0.923761	0.192697	0.104402
Zn9	Zn	0.923780	0.192710	-0.104194
O10	O	0.917662	0.322442	0.079257
C11	C	0.780822	0.188356	0.000087
C12	C	0.694019	0.179986	0.000076
C13	C	0.929326	0.029595	0.000111
C14	C	0.927691	-0.069825	0.000110
C15	C	0.998140	-0.121776	0.000120
C16	C	0.996598	-0.215190	0.000110
C17	C	0.924607	-0.256653	0.000097
C18	C	0.854153	-0.204695	0.000085
C19	C	0.855695	-0.111282	0.000088
C20	C	0.850944	-0.399398	0.000081
C21	C	0.849402	-0.492817	0.000080
C22	C	0.991847	-0.503306	0.000103
C23	C	0.993389	-0.409893	0.000106
C24	C	0.922935	-0.357942	0.000096
C25	C	0.643995	0.256830	0.000072
C26	C	0.562435	0.248961	0.000086
C27	C	0.530901	0.164246	0.000096
C28	C	0.580933	0.087397	0.000103
C29	C	0.662491	0.095267	0.000096
C30	C	0.285111	0.136442	0.000124
C31	C	0.203547	0.128577	0.000127
C32	C	0.185054	0.290142	0.000112
C33	C	0.266615	0.298005	0.000100
C34	C	0.316639	0.221155	0.000111
C35	C	0.447535	0.156200	0.000107
C36	C	0.400004	0.229202	0.000107
C37	C	1.066719	0.197051	0.000119
C38	C	1.153522	0.205421	0.000124
C39	C	0.918215	0.355812	0.000095
C40	C	0.919850	0.455232	0.000090
N41	N	0.923754	0.192689	0.246762
N42	N	0.923794	0.192711	-0.246554
C43	C	0.976870	0.135948	0.296590
C44	C	0.976876	0.135948	0.396248
C45	C	0.923768	0.192694	0.446076
C46	C	0.870645	0.249438	0.396241
C47	C	0.870637	0.249433	0.296585
C48	C	0.870668	0.249446	0.603956
C49	C	0.870677	0.249452	0.703618
C50	C	0.976907	0.135961	0.703618
C51	C	0.976898	0.135956	0.603962
C52	C	0.923777	0.192701	0.554134
H53	H	1.053965	-0.257485	0.000119
H54	H	1.049214	-0.545610	0.000108
H55	H	0.827400	0.295638	0.436817
C56	C	0.812934	0.311138	0.242655
C57	C	0.766440	0.360854	0.307620
C58	C	0.713279	0.417713	0.257975
H59	H	0.780281	0.276557	0.203787
H60	H	0.841070	0.350581	0.203788
H61	H	0.738306	0.321417	0.346471
H62	H	0.799071	0.395453	0.346489
H63	H	0.741414	0.457156	0.219108
H64	H	0.680632	0.383125	0.219109
H65	H	0.681731	0.451458	0.302046
H66	H	1.020127	0.089745	0.436817
C67	C	0.771162	-0.537669	0.000001
C68	C	0.709790	-0.472181	-0.000046
C69	C	0.637705	-0.513465	-0.000136
H70	H	0.767474	-0.573895	0.055192
H71	H	0.767576	-0.573861	-0.055235
H72	H	0.713374	-0.436005	0.055185
H73	H	0.713452	-0.435951	-0.055233
H74	H	0.634119	-0.549656	-0.055373
H75	H	0.634025	-0.549690	0.055056
H76	H	0.596055	-0.469038	-0.000177
H77	H	0.793572	-0.357101	0.000070
H78	H	0.177876	0.059589	0.000135
C79	C	0.130835	0.373650	0.000256
C80	C	0.145114	0.424306	0.081692
C81	C	0.095190	0.501249	0.081854
H82	H	0.077719	0.356960	0.000311
H83	H	0.140412	0.408183	-0.054929
H84	H	0.135532	0.389779	0.136863
H85	H	0.198221	0.441019	0.081655
H86	H	0.104767	0.535783	0.026669
H87	H	0.042077	0.484550	0.081906
H88	H	0.104877	0.535633	0.137102
C89	C	0.546745	-0.004604	0.000308
C90	C	0.572148	-0.051422	0.081775
C91	C	0.540665	-0.136174	0.081998
H92	H	0.563890	-0.036611	-0.054836
H93	H	0.491004	0.001673	0.000359
H94	H	0.627878	-0.057703	0.081715
H95	H	0.555004	-0.019442	0.136932
H96	H	0.484924	-0.129896	0.082049
H97	H	0.557813	-0.168172	0.026850
H98	H	0.557891	-0.167947	0.137276
H99	H	0.325831	0.073865	0.000134
H100	H	1.056763	-0.088024	0.000135
C101	C	0.779147	-0.054984	-0.000069
C102	C	0.735805	-0.074549	-0.081518
C103	C	0.665279	-0.022714	-0.081694
H104	H	0.790265	0.006609	-0.000118
H105	H	0.749581	-0.068157	0.055107
H106	H	0.765366	-0.061369	-0.136680
H107	H	0.724667	-0.136132	-0.081486
H108	H	0.635712	-0.035888	-0.026518
H109	H	0.676405	0.038876	-0.081740
H110	H	0.635860	-0.035988	-0.136951
H111	H	0.521707	0.311535	0.000082
C112	C	0.812976	0.310906	0.757848
C113	C	0.765104	0.259570	0.815098
C114	C	0.711947	0.316149	0.865080
H115	H	0.781254	0.344719	0.714017
H116	H	0.841116	0.350291	0.796768
H117	H	0.736965	0.220201	0.776181
H118	H	0.796804	0.225759	0.858947
H119	H	0.740088	0.355534	0.904000
H120	H	0.680231	0.349958	0.821242
H121	H	0.679465	0.281326	0.903936
C122	C	1.034337	0.074071	0.549869
C123	C	0.992484	0.016139	0.492810
C124	C	1.045325	-0.040976	0.443016
H125	H	1.065896	0.040196	0.593812
H126	H	1.067005	0.108505	0.510835
H127	H	0.959830	-0.018291	0.531841
H128	H	0.960928	0.049990	0.448850
H129	H	1.077993	-0.006542	0.403982
H130	H	1.076882	-0.074846	0.486966
H131	H	1.016936	-0.080284	0.404289
C132	C	1.034442	0.074164	0.242571
C133	C	1.021651	-0.014699	0.266843
C134	C	1.074663	-0.071653	0.217105
H135	H	1.086668	0.087760	0.258861
H136	H	1.026842	0.082205	0.176068
H137	H	1.029257	-0.022735	0.333331
H138	H	0.969436	-0.028322	0.250551
H139	H	1.067063	-0.063612	0.150603
H140	H	1.126886	-0.058049	0.233399
H141	H	1.065987	-0.131953	0.233560
H142	H	1.052010	-0.376138	0.000123
C143	C	0.812961	0.311155	0.550027
C144	C	0.766468	0.360873	0.614991
C145	C	0.713313	0.417739	0.565347
H146	H	0.780306	0.276578	0.511157
H147	H	0.841100	0.350596	0.511162
H148	H	0.738331	0.321437	0.653840
H149	H	0.799101	0.395468	0.653864
H150	H	0.741453	0.457180	0.526483
H151	H	0.680664	0.383155	0.526479
H152	H	0.681767	0.451485	0.609418
C153	C	0.434281	0.321153	-0.000105
C154	C	0.480544	0.330388	-0.081575
C155	C	0.512130	0.415086	-0.081815
H156	H	0.465769	0.327675	0.055037
H157	H	0.392830	0.365824	-0.000162
H158	H	0.521989	0.285730	-0.081510
H159	H	0.449073	0.323884	-0.136730
H160	H	0.470680	0.459757	-0.081872
H161	H	0.543615	0.421600	-0.026670
H162	H	0.543517	0.421366	-0.137096
H163	H	0.703221	0.032693	0.000099
H164	H	0.795537	-0.238461	0.000069
C165	C	0.300878	0.389966	-0.000135
C166	C	0.347126	0.399199	-0.081619
C167	C	0.378686	0.483910	-0.081892
H168	H	0.332372	0.396515	0.054997
H169	H	0.259415	0.434622	-0.000196
H170	H	0.388583	0.354555	-0.081550
H171	H	0.315649	0.392667	-0.136764
H172	H	0.337223	0.528566	-0.081953
H173	H	0.410177	0.490451	-0.026757
H174	H	0.410063	0.490188	-0.137182
C175	C	1.034546	0.074204	0.757586
C176	C	1.021809	-0.014673	0.733340
C177	C	1.074900	-0.071581	0.783029
H178	H	1.027003	0.082206	0.824089
H179	H	1.086748	0.087879	0.741221
H180	H	0.969619	-0.028344	0.749711
H181	H	1.029357	-0.022704	0.666845
H182	H	1.127102	-0.057905	0.766664
H183	H	1.067353	-0.063570	0.849529
H184	H	1.066270	-0.131889	0.766578
H185	H	0.669662	0.325813	0.000063
H186	H	0.421851	0.087226	0.000143
