data_functionalizedCrystal
_audit_creation_method	'MofGen! by Chris Wilmer'
_symmetry_space_group_name_H-M	'P1'
_symmetry_Int_Tables_number	1
_symmetry_cell_setting	triclinic
loop_
_symmetry_equiv_pos_as_xyz
  x,y,z
_cell_length_a	15.944499
_cell_length_b	10.268362
_cell_length_c	11.792241
_cell_angle_alpha	89.999626
_cell_angle_beta	83.835512
_cell_angle_gamma	89.997962
loop_
_atom_site_label
_atom_site_type_symbol
_atom_site_fract_x
_atom_site_fract_y
_atom_site_fract_z
O1	O	0.115131	-0.108164	1.505931
O2	O	0.615131	0.391836	2.005931
O3	O	0.126996	-0.108193	1.175490
O4	O	0.626996	0.391807	1.675490
O5	O	-0.001173	-0.108180	1.349765
O6	O	0.498827	0.391820	1.849765
O7	O	0.243301	-0.108177	1.331656
O8	O	0.743301	0.391823	1.831656
O9	O	-0.001179	0.108421	1.349750
O10	O	0.498821	0.608421	1.849750
O11	O	0.126991	0.108408	1.175474
O12	O	0.626991	0.608408	1.675474
O13	O	0.115126	0.108437	1.505916
O14	O	0.615126	0.608437	2.005916
Cu15	Cu	0.121058	0.128200	1.340694
Cu16	Cu	0.621058	0.628200	1.840694
Cu17	Cu	0.121064	-0.127956	1.340712
Cu18	Cu	0.621064	0.372044	1.840712
O19	O	0.243295	0.108424	1.331641
O20	O	0.743295	0.608424	1.831641
C21	C	0.126248	0.000103	1.133197
C22	C	0.626248	0.500103	1.633197
C23	C	0.124017	0.000092	1.007203
C24	C	0.624017	0.500092	1.507203
C25	C	-0.032474	0.000117	1.349016
C26	C	0.467526	0.500117	1.849016
C27	C	-0.125732	0.000107	1.346793
C28	C	0.374268	0.500107	1.846793
N29	N	0.121053	0.308365	1.340690
N30	N	0.621053	0.808365	1.840690
C31	C	-0.416811	0.000123	1.448042
C32	C	0.083189	0.500123	1.948042
C33	C	-0.356026	0.106919	1.395403
C34	C	0.143974	0.606919	1.895403
C35	C	-0.461405	0.000122	1.338718
C36	C	0.038595	0.500122	1.838718
C37	C	-0.356027	-0.106632	1.395389
C38	C	0.143973	0.393368	1.895389
C39	C	-0.296479	0.000112	1.342691
C40	C	0.203521	0.500112	1.842691
C41	C	-0.401848	0.107005	1.286048
C42	C	0.098152	0.607005	1.786048
C43	C	-0.401856	-0.106642	1.286049
C44	C	0.098144	0.393358	1.786049
C45	C	-0.341089	0.000180	1.233330
C46	C	0.158911	0.500180	1.733330
C47	C	-0.556416	0.000128	1.336432
C48	C	-0.056416	0.500128	1.836432
C49	C	-0.201469	0.000115	1.344969
C50	C	0.298531	0.500115	1.844969
C51	C	0.274596	0.000124	1.332390
C52	C	0.774596	0.500124	1.832390
C53	C	0.367854	0.000125	1.334613
C54	C	0.867854	0.500125	1.834613
N55	N	0.121062	-0.308122	1.340725
N56	N	0.621062	0.191878	1.840725
C57	C	0.121062	0.574036	1.340706
C58	C	0.621062	1.074036	1.840706
C59	C	0.121060	0.426198	1.340693
C60	C	0.621060	0.926198	1.840693
C61	C	0.119915	0.000129	0.776525
C62	C	0.619915	0.500129	1.276525
C63	C	0.122195	0.000109	0.904891
C64	C	0.622195	0.500109	1.404891
C65	C	0.115874	0.000138	1.548208
C66	C	0.615874	0.500138	2.048208
C67	C	0.118104	0.000141	1.674203
C68	C	0.618104	0.500141	2.174203
H69	H	-0.449732	0.000234	1.538771
H70	H	0.050268	0.500234	2.038771
H71	H	-0.308316	0.000234	1.142523
H72	H	0.191684	0.500234	1.642523
H73	H	-0.335729	0.197212	1.441638
H74	H	0.164271	0.697212	1.941638
H75	H	-0.422175	-0.196939	1.239853
H76	H	0.077825	0.303061	1.739853
H77	H	-0.335736	-0.196911	1.441654
H78	H	0.164264	0.303089	1.941654
H79	H	-0.422041	0.197387	1.239839
H80	H	0.077959	0.697387	1.739839
