data_functionalizedCrystal
_audit_creation_method	'MofGen! by Chris Wilmer'
_symmetry_space_group_name_H-M	'P1'
_symmetry_Int_Tables_number	1
_symmetry_cell_setting	triclinic
loop_
_symmetry_equiv_pos_as_xyz
  x,y,z
_cell_length_a	18.215407
_cell_length_b	12.827892
_cell_length_c	18.215399
_cell_angle_alpha	90.023838
_cell_angle_beta	90.017368
_cell_angle_gamma	90.012645
loop_
_atom_site_label
_atom_site_type_symbol
_atom_site_fract_x
_atom_site_fract_y
_atom_site_fract_z
Zn1	Zn	1.125121	-0.416115	0.416088
Zn2	Zn	1.625121	0.083885	0.916088
Zn3	Zn	1.125051	-0.590874	0.293031
Zn4	Zn	1.625051	-0.090874	0.793031
Zn5	Zn	1.002054	-0.416140	0.293041
Zn6	Zn	1.502054	0.083860	0.793041
Zn7	Zn	1.002041	-0.590807	0.416061
Zn8	Zn	1.502041	-0.090807	0.916061
O9	O	1.063567	-0.503484	0.354555
O10	O	1.563567	-0.003484	0.854555
O11	O	1.228096	-0.439315	0.399772
O12	O	1.728096	0.060685	0.899772
O13	O	1.108711	-0.567734	0.190048
O14	O	1.608711	-0.067734	0.690048
O15	O	1.018414	-0.269901	0.309379
O16	O	1.518414	0.230099	0.809379
O17	O	1.228044	-0.567710	0.309362
O18	O	1.728044	-0.067710	0.809362
O19	O	1.108831	-0.269882	0.399782
O20	O	1.608831	0.230118	0.899782
O21	O	1.018346	-0.439358	0.190056
O22	O	1.518346	0.060642	0.690056
O23	O	0.899068	-0.439292	0.309353
O24	O	1.399068	0.060708	0.809353
O25	O	1.018392	-0.567595	0.519049
O26	O	1.518392	-0.067595	1.019049
O27	O	0.899058	-0.567619	0.399735
O28	O	1.399058	-0.067619	0.899735
O29	O	1.108819	-0.439250	0.519069
O30	O	1.608819	0.060750	1.019069
O31	O	1.108698	-0.737101	0.309336
O32	O	1.608698	-0.237101	0.809336
O33	O	1.018323	-0.737052	0.399725
O34	O	1.518323	-0.237052	0.899725
C35	C	0.872360	-0.503452	0.354543
C36	C	1.372360	-0.003452	0.854543
C37	C	0.790562	-0.503463	0.354555
C38	C	1.290562	-0.003463	0.854555
C39	C	0.602394	-0.436746	0.401705
C40	C	1.102394	0.063254	0.901705
C41	C	0.525535	-0.436755	0.401708
C42	C	1.025535	0.063245	0.901708
C43	C	0.525492	-0.570252	0.307419
C44	C	1.025492	-0.070252	0.807419
C45	C	0.602349	-0.570237	0.307413
C46	C	1.102349	-0.070237	0.807413
C47	C	0.640798	-0.503485	0.354560
C48	C	1.140798	-0.003485	0.854560
C49	C	0.487082	-0.503509	0.354569
C50	C	0.987082	-0.003509	0.854569
C51	C	0.403748	-0.503519	0.354571
C52	C	0.903748	-0.003519	0.854571
C53	C	0.724137	-0.503473	0.354557
C54	C	1.224137	-0.003473	0.854557
C55	C	1.063521	-0.774994	0.354542
C56	C	1.563521	-0.274994	0.854542
C57	C	1.063569	-0.891147	0.354562
C58	C	1.563569	-0.391147	0.854562
C59	C	1.108339	-1.062884	0.399354
C60	C	1.608339	-0.562884	0.899354
C61	C	1.108291	-0.942833	0.399336
C62	C	1.608291	-0.442833	0.899336
C63	C	1.255520	-0.503517	0.354569
C64	C	1.755520	-0.003517	0.854569
C65	C	1.337318	-0.503531	0.354575
C66	C	1.837318	-0.003531	0.854575
C67	C	1.063612	-0.503412	0.546508
C68	C	1.563612	-0.003412	1.046508
C69	C	1.063631	-0.503381	0.628307
C70	C	1.563631	-0.003381	1.128307
C71	C	1.063632	-0.230914	0.354585
C72	C	1.563632	0.269086	0.854585
C73	C	1.063660	-0.114761	0.354597
C74	C	1.563660	0.385239	0.854597
C75	C	1.063564	-0.503480	0.163349
C76	C	1.563564	-0.003480	0.663349
C77	C	1.063688	-0.503217	0.081551
C78	C	1.563688	-0.003217	0.581551
C79	C	1.110733	-0.436489	0.816513
C80	C	1.610733	0.063511	1.316513
C81	C	1.110742	-0.436459	0.893372
C82	C	1.610742	0.063541	1.393372
C83	C	1.016580	-0.570112	0.893340
C84	C	1.516580	-0.070112	1.393340
C85	C	1.016569	-0.570136	0.816482
C86	C	1.516569	-0.070136	1.316482
C87	C	1.063649	-0.503327	0.778071
C88	C	1.563649	-0.003327	1.278071
C89	C	1.063670	-0.503272	0.931787
C90	C	1.563670	-0.003272	1.431787
C91	C	1.063679	-0.503239	1.015121
C92	C	1.563679	-0.003239	1.515121
C93	C	1.063639	-0.503357	0.694732
C94	C	1.563639	-0.003357	1.194732
H95	H	0.633619	-0.624585	0.269018
H96	H	1.133619	-0.124585	0.769018
H97	H	1.149067	-0.382086	0.785241
H98	H	1.649067	0.117914	1.285241
O99	O	1.153902	-0.889459	0.444983
O100	O	1.653902	-0.389459	0.944983
C101	C	1.143690	-0.781478	0.434812
C102	C	1.643690	-0.281478	0.934812
H103	H	1.119605	-0.766753	0.377985
H104	H	1.619605	-0.266753	0.877985
H105	H	1.104442	-0.750509	0.478405
H106	H	1.604442	-0.250509	0.978405
C107	C	1.247670	-0.743334	0.511374
C108	C	1.747670	-0.243334	1.011374
C109	C	1.218094	-0.725249	0.441575
C110	C	1.718094	-0.225249	0.941575
H111	H	1.293565	-0.708648	0.515549
H112	H	1.793565	-0.208648	1.015549
H113	H	1.254549	-0.816083	0.518229
H114	H	1.754549	-0.316083	1.018229
H115	H	1.214956	-0.717526	0.547694
H116	H	1.714956	-0.217526	1.047694
H117	H	1.250804	-0.751068	0.405258
H118	H	1.750804	-0.251068	0.905258
H119	H	1.211223	-0.652503	0.434714
H120	H	1.711223	-0.152503	0.934714
H121	H	1.149081	-0.382032	0.924668
H122	H	1.649081	0.117968	1.424668
H123	H	0.978251	-0.624508	0.924624
H124	H	1.478251	-0.124508	1.424624
H125	H	1.146629	-1.107347	0.437684
H126	H	1.646629	-0.607347	0.937684
H127	H	0.978222	-0.624562	0.785182
H128	H	1.478222	-0.124562	1.285182
H129	H	0.633697	-0.382389	0.440093
H130	H	1.133697	0.117611	0.940093
H131	H	0.494270	-0.382407	0.440097
H132	H	0.994270	0.117593	0.940097
H133	H	0.494177	-0.624599	0.269034
H134	H	0.994177	-0.124599	0.769034
H135	H	1.025313	-0.935753	0.316245
H136	H	1.525313	-0.435753	0.816245
H137	H	1.025376	-1.070299	0.316262
H138	H	1.525376	-0.570299	0.816262
