data_functionalizedCrystal
_audit_creation_method	'MofGen! by Chris Wilmer'
_symmetry_space_group_name_H-M	'P1'
_symmetry_Int_Tables_number	1
_symmetry_cell_setting	triclinic
loop_
_symmetry_equiv_pos_as_xyz
  x,y,z
_cell_length_a	6.817900
_cell_length_b	16.305550
_cell_length_c	10.773890
_cell_angle_alpha	96.344786
_cell_angle_beta	96.645716
_cell_angle_gamma	103.455250
loop_
_atom_site_label
_atom_site_type_symbol
_atom_site_fract_x
_atom_site_fract_y
_atom_site_fract_z
V1	V	-3.991657	-0.261649	-0.173642
O2	O	-4.015287	-0.258082	0.007261
O3	O	-3.909321	-0.258499	-0.343261
O4	O	-3.943501	-0.376383	-0.171446
O5	O	-3.980871	-0.139382	-0.165743
V6	V	-4.479651	-0.247190	-0.151948
O7	O	-4.243109	-0.293365	-0.221230
O8	O	-4.678397	-0.215473	-0.104359
O9	O	-4.338781	-0.250339	0.017671
O10	O	-4.573418	-0.250757	-0.332850
O11	O	-4.607834	-0.369457	-0.159846
O12	O	-4.304601	-0.132455	-0.154143
C13	C	-3.746059	-0.254021	-0.384595
C14	C	-3.760028	-0.252210	-0.523264
C15	C	-3.938109	-0.255356	-0.591139
C16	C	-3.952551	-0.253485	-0.734460
C17	C	-3.789657	-0.404392	-0.165427
C18	C	-3.831343	-0.498180	-0.164754
C19	C	-3.982949	-0.838946	-0.162147
C20	C	-3.748443	-0.798079	-0.154407
C21	C	-3.705007	-0.700574	-0.155623
C22	C	-3.907734	-0.669888	-0.163440
C23	C	-4.050228	-0.719533	-0.286635
C24	C	-4.092230	-0.817088	-0.285939
C25	C	-4.060506	-0.794014	-0.047676
C26	C	-4.012771	-0.696179	-0.046701
C27	C	-3.865238	-0.574344	-0.164175
C28	C	-4.025453	-0.934491	-0.161421
C29	C	-4.165384	-0.254816	0.058999
C30	C	-4.130653	-0.256631	0.197667
C31	C	-4.121786	-0.104442	-0.160166
C32	C	-4.059340	-0.010654	-0.160833
H33	H	-3.810770	-0.249411	-0.782451
N34	N	-3.671298	-0.836772	-0.257580
N35	N	-3.591185	-0.792321	-0.334437
H36	H	-3.536697	-0.819650	-0.407301
N37	N	-3.582158	-0.247075	-0.583456
N38	N	-3.431371	-0.184843	-0.550725
H39	H	-3.305743	-0.181213	-0.593233
N40	N	-3.568456	-0.657529	-0.044499
N41	N	-3.504641	-0.699459	0.034498
H42	H	-3.408194	-0.669062	0.112984
N43	N	-4.115978	-0.260488	-0.530947
N44	N	-4.177076	-0.321995	-0.473644
H45	H	-4.302703	-0.325621	-0.431135
N46	N	-4.308516	-0.261732	-0.742135
N47	N	-4.402860	-0.204697	-0.746830
H48	H	-4.528472	-0.208299	-0.704311
H49	H	-3.660032	-0.811151	-0.065411
H50	H	-3.987698	-0.808125	0.045668
H51	H	-3.909875	-0.662526	0.044421
H52	H	-3.622010	-0.683618	-0.238815
H53	H	-4.201357	-0.700540	-0.296811
N54	N	-4.025235	-0.854329	-0.394656
N55	N	-3.947840	-0.808229	-0.470514
H56	H	-3.900519	-0.834526	-0.547298
H57	H	-3.977527	-0.702030	-0.373316
N58	N	-4.197979	-0.669459	-0.044740
N59	N	-4.217780	-0.619538	0.047025
H60	H	-4.348617	-0.600688	0.048402
H61	H	-4.231660	-0.820793	-0.052251
H62	H	-4.263914	-0.844994	-0.296743
