data_functionalizedCrystal
_audit_creation_method	'MofGen! by Chris Wilmer'
_symmetry_space_group_name_H-M	'P1'
_symmetry_Int_Tables_number	1
_symmetry_cell_setting	triclinic
loop_
_symmetry_equiv_pos_as_xyz
  x,y,z
_cell_length_a	8.559649
_cell_length_b	10.654549
_cell_length_c	7.088899
_cell_angle_alpha	96.912297
_cell_angle_beta	97.658681
_cell_angle_gamma	77.131721
loop_
_atom_site_label
_atom_site_type_symbol
_atom_site_fract_x
_atom_site_fract_y
_atom_site_fract_z
O1	O	0.209432	1.634590	-0.158934
O2	O	0.230790	1.266905	-0.158947
O3	O	-0.012132	1.483141	-0.158938
O4	O	0.452353	1.418354	-0.158944
O5	O	0.017372	1.503319	0.159038
O6	O	0.260294	1.287083	0.159029
O7	O	0.238935	1.654768	0.159042
Cu8	Cu	0.252309	1.472768	0.188069
Cu9	Cu	0.217417	1.448905	-0.187974
O10	O	0.481857	1.438532	0.159032
C11	C	0.243973	1.230357	0.000039
C12	C	0.239281	1.091399	0.000034
C13	C	0.377890	0.866566	0.000040
C14	C	0.382310	0.997129	0.000029
C15	C	0.091821	1.055098	0.000032
C16	C	0.087402	0.924536	0.000030
C17	C	-0.056856	1.498139	0.000047
C18	C	-0.234075	1.512753	0.000037
C19	C	0.526581	1.423533	0.000043
C20	C	0.703799	1.408919	0.000041
C21	C	0.225751	1.691315	0.000051
C22	C	0.230443	1.830273	0.000044
N23	N	0.276849	1.489561	0.452558
N24	N	0.192864	1.432123	-0.452463
H25	H	0.502376	1.026670	0.000024
H26	H	-0.213813	1.308841	0.000044
H27	H	-0.316470	1.612839	0.000056
H28	H	0.494363	0.789819	0.000050
Br29	Br	-0.102293	1.183033	0.000029
Br30	Br	0.421906	1.588782	0.588640
Br31	Br	0.047829	1.332872	0.411448
Br32	Br	-0.112723	0.875274	-0.000001
