data_functionalizedCrystal
_audit_creation_method	'MofGen! by Chris Wilmer'
_symmetry_space_group_name_H-M	'P1'
_symmetry_Int_Tables_number	1
_symmetry_cell_setting	triclinic
loop_
_symmetry_equiv_pos_as_xyz
  x,y,z
_cell_length_a	21.295418
_cell_length_b	29.839131
_cell_length_c	21.295411
_cell_angle_alpha	90.028018
_cell_angle_beta	90.043738
_cell_angle_gamma	90.051038
loop_
_atom_site_label
_atom_site_type_symbol
_atom_site_fract_x
_atom_site_fract_y
_atom_site_fract_z
Zn1	Zn	0.962335	-0.178715	0.356206
Zn2	Zn	0.962229	-0.253830	0.250919
Zn3	Zn	0.857058	-0.178736	0.250916
Zn4	Zn	0.857019	-0.253839	0.356116
O5	O	0.909660	-0.216280	0.303539
O6	O	1.050410	-0.188667	0.342279
O7	O	0.948250	-0.243874	0.162829
O8	O	0.871084	-0.115866	0.264918
O9	O	1.050332	-0.243854	0.264925
O10	O	0.948431	-0.115851	0.342275
O11	O	0.870981	-0.188703	0.162827
O12	O	0.768964	-0.188711	0.264831
O13	O	0.871017	-0.243869	0.444217
O14	O	0.768935	-0.243889	0.342122
O15	O	0.948393	-0.188675	0.444283
O16	O	0.948212	-0.316699	0.264838
O17	O	0.870914	-0.316705	0.342125
C18	C	0.746109	-0.216304	0.303467
C19	C	0.676141	-0.216325	0.303451
C20	C	0.643275	-0.245094	0.343635
C21	C	0.577533	-0.245083	0.343664
C22	C	0.544658	-0.216307	0.303496
C23	C	0.577531	-0.187532	0.263308
C24	C	0.643272	-0.187541	0.263286
N25	N	0.441382	-0.212791	0.248439
N26	N	0.378931	-0.212785	0.248462
C27	C	0.346583	-0.216279	0.303563
N28	N	0.379046	-0.219787	0.358640
N29	N	0.441504	-0.219795	0.358616
C30	C	0.473373	-0.216294	0.303516
C31	C	0.242433	-0.245037	0.343782
C32	C	0.176689	-0.245023	0.343811
C33	C	0.176689	-0.187475	0.263450
C34	C	0.242431	-0.187487	0.263426
C35	C	0.275299	-0.216271	0.303591
C36	C	0.909564	-0.333003	0.303486
C37	C	0.909581	-0.382937	0.303484
C38	C	0.949926	-0.692538	0.343876
C39	C	0.949994	-0.880211	0.343914
O40	O	0.984203	-0.904439	0.378217
N41	N	0.909767	-0.903722	0.303609
C42	C	0.869517	-0.880313	0.263295
O43	O	0.835299	-0.904617	0.229019
C44	C	0.869446	-0.692640	0.263261
C45	C	0.909680	-0.669131	0.303564
C46	C	0.990156	-0.669028	0.384176
C47	C	0.990141	-0.622113	0.384164
C48	C	0.949896	-0.598707	0.343851
C49	C	0.909665	-0.622216	0.303551
C50	C	0.829194	-0.669232	0.222950
C51	C	0.829179	-0.622311	0.222946
C52	C	0.869413	-0.598802	0.263249
C53	C	0.869405	-0.551894	0.263227
N54	N	0.909632	-0.528383	0.303531
C55	C	0.949877	-0.551789	0.343844
C56	C	0.869558	-0.978843	0.263315
C57	C	0.869577	-1.025761	0.263322
C58	C	0.950053	-1.025656	0.343942
C59	C	0.950037	-0.978737	0.343931
C60	C	0.909785	-0.955332	0.303620
C61	C	0.949843	-0.453263	0.343814
C62	C	0.949826	-0.406343	0.343797
C63	C	0.869348	-0.406453	0.263180
C64	C	0.869367	-0.453368	0.263195
C65	C	0.909616	-0.476772	0.303517
O66	O	0.835209	-0.527637	0.228947
O67	O	0.984081	-0.527476	0.378125
C68	C	0.949941	-0.739453	0.343888
C69	C	0.909711	-0.762962	0.303588
C70	C	0.869465	-0.739556	0.263276
C71	C	0.909729	-0.809880	0.303596
C72	C	0.949974	-0.833286	0.343908
C73	C	0.990201	-0.809775	0.384213
C74	C	0.990186	-0.762859	0.384201
C75	C	0.829238	-0.763068	0.222971
C76	C	0.829257	-0.809983	0.222986
C77	C	0.869503	-0.833389	0.263298
C78	C	1.073851	-0.216257	0.303612
C79	C	1.143819	-0.216247	0.303643
C80	C	0.909713	-0.216271	0.467729
C81	C	0.909735	-0.216267	0.537698
C82	C	0.909774	-0.099102	0.303606
C83	C	0.909822	-0.049167	0.303635
C84	C	0.909645	-0.216257	0.139988
C85	C	0.909744	-0.216135	0.070020
C86	C	0.950022	-0.187526	0.570600
C87	C	0.950022	-0.187507	0.636342
C88	C	0.909740	-0.216236	0.669180
C89	C	0.869444	-0.244978	0.636270
C90	C	0.869442	-0.244994	0.570529
N91	N	0.904879	-0.255537	0.772388
N92	N	0.904885	-0.255521	0.834839
C93	C	0.909744	-0.216190	0.867255
N94	N	0.914609	-0.176875	0.834860
N95	N	0.914606	-0.176891	0.772403
C96	C	0.909738	-0.216222	0.740466
C97	C	0.950033	-0.187426	0.971443
C98	C	0.950027	-0.187406	1.037186
C99	C	0.869453	-0.244882	1.037113
C100	C	0.869455	-0.244898	0.971371
C101	C	0.909748	-0.216171	0.938539
H102	H	0.550760	-0.164102	0.230604
H103	H	0.836583	-0.387388	0.230356
O104	O	0.144691	-0.272993	0.382761
C105	C	0.106589	-0.301969	0.346852
H106	H	0.096712	-0.286070	0.299196
H107	H	0.060379	-0.308011	0.372492
H108	H	0.131864	-0.335259	0.339830
O109	O	0.830303	-0.272861	0.939503
C110	C	0.794735	-0.298206	0.982582
H111	H	0.820519	-0.299749	1.029462
H112	H	0.787982	-0.333607	0.963573
H113	H	0.746944	-0.281758	0.989543
H114	H	0.796495	-0.829120	0.190161
O115	O	0.989055	-1.048417	0.383172
C116	C	0.953195	-1.075576	0.423770
H117	H	0.903611	-1.061471	0.427587
H118	H	0.975931	-1.076073	0.472247
H119	H	0.951047	-1.111143	0.404306
O120	O	0.790011	-0.599555	0.183876
C121	C	0.749338	-0.572423	0.219657
H122	H	0.745433	-0.586541	0.269235
H123	H	0.700903	-0.571942	0.196831
H124	H	0.768786	-0.536848	0.221839
O125	O	0.274392	-0.273041	0.382711
C126	C	0.312345	-0.302019	0.346781
H127	H	0.292473	-0.304741	0.297202
H128	H	0.313061	-0.336616	0.369455
H129	H	0.362189	-0.288136	0.344632
O130	O	0.830226	-0.272839	0.668138
C131	C	0.767496	-0.263041	0.652022
H132	H	0.764351	-0.227155	0.633957
H133	H	0.736396	-0.266906	0.695234
H134	H	0.751015	-0.287137	0.613844
H135	H	0.836649	-0.268269	1.063849
H136	H	0.836610	-0.472510	0.230372
H137	H	0.836632	-0.268397	0.543740
H138	H	0.796465	-0.744014	0.190145
H139	H	0.982592	-0.387204	0.376616
O140	O	0.675270	-0.159658	0.224214
C141	C	0.713198	-0.185201	0.183462
H142	H	0.723017	-0.219271	0.205566
H143	H	0.759448	-0.166901	0.175058
H144	H	0.687801	-0.190083	0.136808
O145	O	0.144665	-0.159575	0.224435
C146	C	0.079592	-0.165732	0.233076
H147	H	0.070587	-0.200417	0.253621
H148	H	0.054566	-0.162651	0.185935
H149	H	0.061001	-0.139108	0.266657
H150	H	0.982838	-0.164032	0.944710
H151	H	0.269190	-0.164062	0.230700
H152	H	0.982833	-0.163999	1.063974
H153	H	1.022948	-0.743722	0.417019
O154	O	0.675105	-0.273065	0.382714
C155	C	0.631994	-0.298463	0.418177
H156	H	0.585161	-0.280058	0.420422
H157	H	0.651034	-0.303312	0.467755
H158	H	0.624926	-0.332558	0.395032
O159	O	0.545568	-0.272967	0.382765
C160	C	0.507610	-0.247428	0.423495
H161	H	0.527483	-0.212054	0.427482
H162	H	0.506884	-0.263731	0.471892
H163	H	0.457769	-0.245849	0.404047
H164	H	0.836780	-0.959790	0.230487
O165	O	0.988998	-0.475924	0.383006
C166	C	1.024485	-0.445105	0.418581
H167	H	1.026664	-0.411674	0.392785
H168	H	1.074084	-0.458614	0.425369
H169	H	1.001404	-0.440107	0.466357
O170	O	0.989220	-0.159574	0.668215
C171	C	1.024770	-0.134213	0.625140
H172	H	1.026928	-0.152623	0.578273
H173	H	1.074372	-0.129415	0.644173
H174	H	1.001756	-0.100096	0.618142
O175	O	1.029242	-0.599349	0.423377
C176	C	1.064772	-0.630077	0.458944
H177	H	1.038994	-0.663540	0.461091
H178	H	1.071458	-0.616498	0.508550
H179	H	1.112594	-0.635039	0.435954
H180	H	1.022929	-0.688081	0.417007
O181	O	0.989061	-0.159585	0.538648
C182	C	0.953234	-0.130574	0.500627
H183	H	0.905521	-0.146438	0.490731
H184	H	0.978877	-0.124542	0.454421
H185	H	0.946334	-0.097285	0.525983
H186	H	1.022973	-0.828840	0.417034
H187	H	0.982799	-0.959599	0.376749
H188	H	0.836821	-1.044898	0.230497
H189	H	0.796431	-0.688365	0.190131
