data_functionalizedCrystal
_audit_creation_method	'MofGen! by Chris Wilmer'
_symmetry_space_group_name_H-M	'P1'
_symmetry_Int_Tables_number	1
_symmetry_cell_setting	triclinic
loop_
_symmetry_equiv_pos_as_xyz
  x,y,z
_cell_length_a	13.032831
_cell_length_b	21.295417
_cell_length_c	13.032268
_cell_angle_alpha	82.859352
_cell_angle_beta	89.113023
_cell_angle_gamma	82.834379
loop_
_atom_site_label
_atom_site_type_symbol
_atom_site_fract_x
_atom_site_fract_y
_atom_site_fract_z
Zn1	Zn	1.498336	-0.425102	0.780728
Zn2	Zn	1.520047	-0.518887	0.608724
Zn3	Zn	1.348204	-0.398806	0.586976
Zn4	Zn	1.326296	-0.515483	0.758850
O5	O	1.423221	-0.464570	0.683820
O6	O	1.645133	-0.449972	0.776169
O7	O	1.515506	-0.493377	0.461925
O8	O	1.368201	-0.314216	0.612731
O9	O	1.661084	-0.518875	0.649799
O10	O	1.478503	-0.333535	0.755080
O11	O	1.389253	-0.405155	0.445946
O12	O	1.201381	-0.401855	0.591517
O13	O	1.330864	-0.513075	0.905667
O14	O	1.185286	-0.487577	0.717793
O15	O	1.457261	-0.446672	0.921740
O16	O	1.494263	-0.606514	0.628585
O17	O	1.351916	-0.604014	0.738882
C18	C	1.156018	-0.441494	0.649922
C19	C	1.041704	-0.431638	0.635445
C20	C	0.982815	-0.469713	0.691375
C21	C	0.864665	-0.459528	0.676414
C22	C	1.423093	-0.628106	0.683746
C23	C	1.423128	-0.698078	0.683760
C24	C	1.497299	-0.732235	0.626403
C25	C	1.497344	-0.797983	0.626433
C26	C	1.423202	-0.829569	0.683806
C27	C	1.349025	-0.795405	0.741175
C28	C	1.348989	-0.729659	0.741152
N29	N	1.332239	-0.925592	0.680232
N30	N	1.332278	-0.988048	0.680248
C31	C	1.423310	-1.027658	0.683879
N32	N	1.514306	-1.002451	0.687474
N33	N	1.514267	-0.939990	0.687452
C34	C	1.423234	-0.900860	0.683837
C35	C	1.497535	-1.133107	0.626551
C36	C	1.497581	-1.198857	0.626588
C37	C	1.349254	-1.196276	0.741323
C38	C	1.349216	-1.130528	0.741293
C39	C	1.423356	-1.098947	0.683901
C40	C	1.691467	-0.487736	0.717850
C41	C	1.805778	-0.497609	0.732352
C42	C	1.389197	-0.482427	0.952062
C43	C	1.374697	-0.490036	1.066371
C44	C	1.423374	-0.300399	0.683920
C45	C	1.423439	-0.230439	0.683963
C46	C	1.457172	-0.446742	0.416628
C47	C	1.471870	-0.438972	0.302345
C48	C	1.430772	-0.460574	1.125287
C49	C	1.415788	-0.468438	1.243431
H50	H	1.557670	-0.706524	0.579675
H51	H	1.288660	-0.821126	0.787890
N52	N	1.273217	-0.694775	0.799753
N53	N	1.207028	-0.722981	0.850984
H54	H	1.153512	-0.698344	0.892372
N55	N	1.573270	-1.100853	0.567925
N56	N	1.639497	-1.131363	0.516723
H57	H	1.692986	-1.108586	0.475316
N58	N	1.573112	-0.832873	0.567828
N59	N	1.639297	-0.804667	0.516588
H60	H	1.692805	-0.829305	0.475193
N61	N	1.300537	-0.528972	1.112810
N62	N	1.227474	-0.505123	1.164471
H63	H	1.175093	-0.532620	1.197268
N64	N	0.818200	-0.409179	0.602427
N65	N	0.842128	-0.407966	0.509012
H66	H	0.809311	-0.372409	0.456758
H67	H	1.530970	-0.407920	1.265324
N68	N	1.029301	-0.520059	0.765350
N69	N	1.125212	-0.528258	0.777403
H70	H	1.158042	-0.563815	0.829651
H71	H	1.557986	-1.226668	0.579884
N72	N	1.273531	-1.228543	0.799931
N73	N	1.273575	-1.287244	0.799948
H74	H	1.220095	-1.310037	0.841343
N75	N	0.852259	-0.547962	0.806323
N76	N	0.948170	-0.556166	0.818373
H77	H	0.980999	-0.591728	0.870613
H78	H	1.004651	-0.391498	0.576488
N79	N	1.341636	-0.507391	1.289848
N80	N	1.288907	-0.535093	1.234518
H81	H	1.236535	-0.562602	1.267299
N82	N	1.273443	-1.095643	0.799887
N83	N	1.207252	-1.123850	0.851113
H84	H	1.153735	-1.099214	0.892501
N85	N	1.504904	-0.421623	1.078831
N86	N	1.516968	-0.415287	0.982924
H87	H	1.569324	-0.387777	0.950115
