data_functionalizedCrystal
_audit_creation_method	'MofGen! by Chris Wilmer'
_symmetry_space_group_name_H-M	'P1'
_symmetry_Int_Tables_number	1
_symmetry_cell_setting	triclinic
loop_
_symmetry_equiv_pos_as_xyz
  x,y,z
_cell_length_a	19.188930
_cell_length_b	19.188930
_cell_length_c	17.666332
_cell_angle_alpha	89.988397
_cell_angle_beta	89.976766
_cell_angle_gamma	83.144779
loop_
_atom_site_label
_atom_site_type_symbol
_atom_site_fract_x
_atom_site_fract_y
_atom_site_fract_z
O1	O	0.926150	0.087169	-0.063200
O2	O	1.426150	0.587169	0.436800
O3	O	0.722838	0.098903	-0.063149
O4	O	1.222838	0.598903	0.436851
O5	O	0.830361	-0.008620	-0.063161
O6	O	1.330361	0.491380	0.436839
O7	O	0.818627	0.194692	-0.063188
O8	O	1.318627	0.694692	0.436812
O9	O	0.830342	-0.008625	0.062735
O10	O	1.330342	0.491375	0.562735
O11	O	0.722820	0.098897	0.062747
O12	O	1.222820	0.598897	0.562747
O13	O	0.926131	0.087163	0.062697
O14	O	1.426131	0.587163	0.562697
Cu15	Cu	0.824473	0.093030	0.074217
Cu16	Cu	1.324473	0.593030	0.574217
Cu17	Cu	0.824496	0.093036	-0.074670
Cu18	Cu	1.324496	0.593036	0.425330
O19	O	0.818608	0.194686	0.062709
O20	O	1.318608	0.694686	0.562709
C21	C	0.696818	0.098520	-0.000194
C22	C	1.196818	0.598520	0.499806
C23	C	0.619313	0.097380	-0.000174
C24	C	1.119313	0.597380	0.499826
C25	C	0.574389	0.160470	-0.000194
C26	C	1.074389	0.660470	0.499806
C27	C	0.501566	0.159399	-0.000203
C28	C	1.001566	0.659399	0.499797
C29	C	0.473669	0.095233	-0.000206
C30	C	0.973669	0.595233	0.499794
C31	C	0.518603	0.032133	-0.000181
C32	C	1.018603	0.532133	0.499819
C33	C	0.591425	0.033207	-0.000166
C34	C	1.091425	0.533207	0.499834
N35	N	0.365695	0.046188	-0.043078
N36	N	0.865695	0.546188	0.456922
N37	N	0.296517	0.045172	-0.043095
N38	N	0.796517	0.545172	0.456905
C39	C	0.254260	0.091994	-0.000252
C40	C	0.754260	0.591994	0.499748
N41	N	0.283795	0.139881	0.042599
N42	N	0.783795	0.639881	0.542599
N43	N	0.352979	0.140899	0.042612
N44	N	0.852979	0.640899	0.542612
C45	C	0.394707	0.094062	-0.000222
C46	C	0.894707	0.594062	0.499778
C47	C	0.130372	0.153928	-0.000280
C48	C	0.630372	0.653928	0.499720
C49	C	0.057547	0.152853	-0.000283
C50	C	0.557547	0.652853	0.499717
C51	C	0.074586	0.025586	-0.000270
C52	C	0.574586	0.525586	0.499730
C53	C	0.147409	0.026662	-0.000258
C54	C	0.647409	0.526662	0.499742
C55	C	0.175298	0.090835	-0.000267
C56	C	0.675298	0.590835	0.499733
C57	C	0.829972	-0.034634	-0.000211
C58	C	1.329972	0.465366	0.499789
C59	C	0.828831	-0.112138	-0.000204
C60	C	1.328831	0.387862	0.499796
C61	C	0.891922	-0.157062	-0.000216
C62	C	1.391922	0.342938	0.499784
C63	C	0.890850	-0.229886	-0.000228
C64	C	1.390850	0.270114	0.499772
C65	C	0.826684	-0.257782	-0.000212
C66	C	1.326684	0.242218	0.499788
C67	C	0.763585	-0.212849	-0.000205
C68	C	1.263585	0.287151	0.499795
C69	C	0.764658	-0.140026	-0.000200
C70	C	1.264658	0.359974	0.499800
N71	N	0.777630	-0.365789	0.042645
N72	N	1.277630	0.134211	0.542645
N73	N	0.776615	-0.434968	0.042642
N74	N	1.276615	0.065032	0.542642
C75	C	0.823446	-0.477191	-0.000227
C76	C	1.323446	0.022809	0.499773
N77	N	0.871341	-0.447624	-0.043084
N78	N	1.371341	0.052376	0.456916
N79	N	0.872359	-0.378439	-0.043079
N80	N	1.372359	0.121561	0.456921
C81	C	0.825513	-0.336745	-0.000218
C82	C	1.325513	0.163255	0.499782
C83	C	0.885379	-0.601079	-0.000253
C84	C	1.385379	-0.101079	0.499747
C85	C	0.884305	-0.673904	-0.000270
C86	C	1.384305	-0.173904	0.499730
C87	C	0.757038	-0.656865	-0.000239
C88	C	1.257038	-0.156865	0.499761
C89	C	0.758114	-0.584042	-0.000230
C90	C	1.258114	-0.084042	0.499770
C91	C	0.822287	-0.556154	-0.000233
C92	C	1.322287	-0.056154	0.499767
C93	C	0.952151	0.087546	-0.000260
C94	C	1.452151	0.587546	0.499740
C95	C	1.029656	0.088687	-0.000285
C96	C	1.529656	0.588687	0.499715
C97	C	0.818997	0.220700	-0.000244
C98	C	1.318997	0.720700	0.499756
C99	C	0.820138	0.298204	-0.000255
C100	C	1.320138	0.798204	0.499745
N101	N	0.824463	0.093025	0.178937
N102	N	1.324463	0.593025	0.678937
N103	N	0.824512	0.093036	-0.179390
N104	N	1.324512	0.593036	0.320610
C105	C	0.872089	0.045437	0.218541
C106	C	1.372089	0.545437	0.718541
C107	C	0.872093	0.045433	0.297789
C108	C	1.372093	0.545433	0.797789
C109	C	0.824478	0.093030	0.337429
C110	C	1.324478	0.593030	0.837429
C111	C	0.776842	0.140621	0.297815
C112	C	1.276842	0.640621	0.797815
C113	C	0.776835	0.140619	0.218569
C114	C	1.276835	0.640619	0.718569
N115	N	0.815401	0.154837	0.461841
N116	N	1.315401	0.654837	0.961841
N117	N	0.815413	0.154837	0.537121
N118	N	1.315413	0.654837	1.037121
C119	C	0.824496	0.093040	0.576193
C120	C	1.324496	0.593040	1.076193
N121	N	0.833582	0.031239	0.537140
N122	N	1.333582	0.531239	1.037140
N123	N	0.833574	0.031240	0.461853
N124	N	1.333574	0.531240	0.961853
C125	C	0.824480	0.093038	0.423358
C126	C	1.324480	0.593038	0.923358
C127	C	0.872130	0.045444	0.701727
C128	C	1.372130	0.545444	1.201727
C129	C	0.872129	0.045440	0.780976
C130	C	1.372129	0.545440	1.280976
C131	C	0.776881	0.140634	0.781000
C132	C	1.276881	0.640634	1.281000
C133	C	0.776878	0.140632	0.701753
C134	C	1.276878	0.640632	1.201753
C135	C	0.824506	0.093038	0.662121
C136	C	1.324506	0.593038	1.162121
H137	H	0.020970	0.204232	-0.000295
H138	H	0.520970	0.704232	0.499705
O139	O	0.160458	0.223139	-0.000280
O140	O	0.660458	0.723139	0.499720
H141	H	0.193207	0.226664	0.051036
H142	H	0.693207	0.726664	0.551036
O143	O	0.958901	-0.278353	-0.000228
O144	O	1.458901	0.221647	0.499772
H145	H	0.989641	-0.268453	-0.051539
H146	H	1.489641	0.231547	0.448461
H147	H	0.937632	-0.578372	-0.000259
H148	H	1.437632	-0.078372	0.499741
H149	H	0.051874	-0.026659	-0.000319
H150	H	0.551874	0.473341	0.499681
O151	O	0.725542	0.191980	0.823759
O152	O	1.225542	0.691980	1.323759
H153	H	0.734282	0.246382	0.808522
H154	H	1.234282	0.746382	1.308522
H155	H	0.910910	0.006684	0.813222
H156	H	1.410910	0.506684	1.313222
O157	O	0.694375	-0.242930	-0.000179
O158	O	1.194375	0.257070	0.499821
H159	H	0.704227	-0.301116	-0.000174
H160	H	1.204227	0.198884	0.499826
O161	O	0.725508	0.191963	0.659035
O162	O	1.225508	0.691963	1.159035
H163	H	0.733497	0.183960	0.597271
H164	H	1.233497	0.683960	1.097271
O165	O	0.604471	0.229682	-0.000182
O166	O	1.104471	0.729682	0.499818
H167	H	0.560993	0.273373	-0.000186
H168	H	1.060993	0.773373	0.499814
H169	H	0.713281	-0.103448	-0.000190
H170	H	1.213281	0.396552	0.499810
O171	O	0.488521	-0.037077	-0.000185
O172	O	0.988521	0.462923	0.499815
H173	H	0.430335	-0.027225	-0.000207
H174	H	0.930335	0.472775	0.499793
O175	O	0.961133	-0.126980	-0.000241
O176	O	1.461133	0.373020	0.499759
H177	H	1.004825	-0.170458	-0.000263
H178	H	1.504825	0.329542	0.499737
O179	O	0.690066	-0.535581	-0.000198
O180	O	1.190066	-0.035581	0.499802
H181	H	0.645266	-0.567211	-0.000180
H182	H	1.145266	-0.067211	0.499820
H183	H	0.935683	-0.710481	-0.000284
H184	H	1.435683	-0.210481	0.499716
H185	H	0.183988	-0.024713	-0.000246
H186	H	0.683988	0.475287	0.499754
O187	O	0.639886	-0.034843	-0.000148
O188	O	1.139886	0.465157	0.499852
H189	H	0.608257	-0.079644	-0.000153
H190	H	1.108257	0.420356	0.499847
O191	O	0.725467	0.191946	0.175840
O192	O	1.225467	0.691946	0.675840
H193	H	0.734195	0.246357	0.191023
H194	H	1.234195	0.746357	0.691023
O195	O	0.687827	-0.686941	-0.000218
O196	O	1.187827	-0.186941	0.499782
H197	H	0.697678	-0.745127	-0.000219
H198	H	1.197678	-0.245127	0.499781
H199	H	0.910869	0.006681	0.186275
H200	H	1.410869	0.506681	0.686275
H201	H	0.910878	0.006680	0.330041
H202	H	1.410878	0.506680	0.830041
O203	O	0.725487	0.191963	0.340563
O204	O	1.225487	0.691963	0.840563
H205	H	0.733499	0.183977	0.402322
H206	H	1.233499	0.683977	0.902322
O207	O	0.923487	-0.005894	0.658971
O208	O	1.423487	0.494106	1.158971
H209	H	0.956598	-0.038996	0.699828
H210	H	1.456598	0.461004	1.199828
H211	H	0.464982	0.210776	-0.000217
H212	H	0.964982	0.710776	0.499783
