data_functionalizedCrystal
_audit_creation_method	'MofGen! by Chris Wilmer'
_symmetry_space_group_name_H-M	'P1'
_symmetry_Int_Tables_number	1
_symmetry_cell_setting	triclinic
loop_
_symmetry_equiv_pos_as_xyz
  x,y,z
_cell_length_a	16.992694
_cell_length_b	15.538191
_cell_length_c	16.053802
_cell_angle_alpha	91.543625
_cell_angle_beta	87.249047
_cell_angle_gamma	68.970158
loop_
_atom_site_label
_atom_site_type_symbol
_atom_site_fract_x
_atom_site_fract_y
_atom_site_fract_z
O1	O	0.989072	0.191921	-0.069317
O2	O	0.761399	0.189774	-0.069342
O3	O	0.919554	0.057054	-0.069328
O4	O	0.830917	0.324641	-0.069330
O5	O	0.910858	0.064328	0.069530
O6	O	0.752703	0.197047	0.069517
O7	O	0.980376	0.199194	0.069541
Zn8	Zn	0.865158	0.199275	0.091576
Zn9	Zn	0.876616	0.189693	-0.091376
O10	O	0.822220	0.331914	0.069528
C11	C	0.728624	0.190651	0.000084
C12	C	0.643924	0.182415	0.000075
C13	C	0.924480	0.026294	0.000099
C14	C	0.952104	-0.076201	0.000094
C15	C	0.571070	0.261869	0.000075
C16	C	0.491487	0.254127	0.000086
C17	C	0.484759	0.166930	0.000092
C18	C	0.557620	0.087471	0.000094
C19	C	0.637202	0.095214	0.000089
C20	C	0.250294	0.134837	0.000114
C21	C	0.170704	0.127099	0.000117
C22	C	0.104576	0.293756	0.000111
C23	C	0.184163	0.301491	0.000101
C24	C	0.257017	0.222032	0.000107
N25	N	0.403412	0.159014	0.000101
N26	N	0.338361	0.229949	0.000104
C27	C	0.677671	-0.384652	0.000082
C28	C	0.703646	-0.480962	0.000086
C29	C	0.849754	-0.492405	0.000102
C30	C	0.823791	-0.396094	0.000093
C31	C	0.737748	-0.342225	0.000084
C32	C	0.883869	-0.353667	0.000095
C33	C	0.857907	-0.257364	0.000091
C34	C	0.771868	-0.203488	0.000084
C35	C	0.711787	-0.245922	0.000080
C36	C	0.969911	-0.407537	0.000110
C37	C	1.029988	-0.365110	0.000113
C38	C	1.004027	-0.268806	0.000102
C39	C	0.917988	-0.214931	0.000096
C40	C	1.064108	-0.226373	0.000107
C41	C	1.038147	-0.130070	0.000103
C42	C	0.892026	-0.118628	0.000091
C43	C	1.013151	0.198317	0.000114
C44	C	1.097851	0.206552	0.000118
C45	C	0.817295	0.362675	0.000099
C46	C	0.789671	0.465169	0.000099
N47	N	0.857345	0.205815	0.216435
N48	N	0.884438	0.183146	-0.216236
C49	C	0.924652	0.149366	0.260135
C50	C	0.919191	0.153950	0.347541
C51	C	0.846424	0.214988	0.391246
C52	C	0.779111	0.271440	0.347541
C53	C	0.784570	0.266851	0.260136
C54	C	0.822584	0.235009	0.652654
C55	C	0.817130	0.239596	0.740065
C56	C	0.957211	0.122103	0.740059
C57	C	0.962666	0.117523	0.652653
C58	C	0.895351	0.173972	0.608955
N59	N	0.840841	0.219677	0.480590
N60	N	0.900932	0.169277	0.519613
H61	H	0.576539	0.332874	0.000070
H62	H	0.719859	0.321136	0.383130
C63	C	0.717341	0.007815	0.000080
H64	H	0.701938	-0.045226	0.000075
H65	H	0.746738	0.009906	0.048499
H66	H	0.752782	0.004838	-0.048353
C67	C	0.411349	0.341522	0.000078
H68	H	0.362988	0.324426	0.000091
H69	H	0.413833	0.374485	-0.048350
H70	H	0.407779	0.379571	0.048502
H71	H	0.750731	-0.125073	0.000086
C72	C	0.637556	-0.527629	0.000072
H73	H	0.582597	-0.481751	0.000058
H74	H	0.641610	-0.562425	0.048493
H75	H	0.647683	-0.567493	-0.048359
C76	C	0.583025	-0.325390	0.000064
H77	H	0.550959	-0.364449	0.000064
H78	H	0.572899	-0.290123	-0.048361
H79	H	0.566827	-0.285047	0.048491
C80	C	0.550221	-0.008444	0.000099
H81	H	0.492392	-0.001678	0.000093
H82	H	0.573823	-0.038878	0.048521
H83	H	0.579876	-0.043946	-0.048331
H84	H	0.821962	-0.074765	0.000078
H85	H	0.165234	0.056089	0.000121
C86	C	0.944395	-0.551665	0.000108
H87	H	0.951255	-0.615097	0.000105
H88	H	0.967132	-0.535694	0.048529
H89	H	0.973186	-0.540772	-0.048323
C90	C	0.617142	-0.186656	0.000064
H91	H	0.610288	-0.123227	0.000057
H92	H	0.588339	-0.197546	0.048482
H93	H	0.594414	-0.202624	-0.048370
C94	C	1.124629	-0.424371	0.000119
H95	H	1.131489	-0.487802	0.000115
H96	H	1.147366	-0.408400	0.048540
H97	H	1.153420	-0.413478	-0.048312
C98	C	1.158748	-0.285635	0.000121
H99	H	1.165605	-0.349066	0.000121
H100	H	1.181481	-0.269661	0.048544
H101	H	1.187545	-0.274748	-0.048308
C102	C	0.191557	0.397408	0.000107
H103	H	0.136768	0.443621	0.000118
H104	H	0.224254	0.401361	-0.048316
H105	H	0.218201	0.406423	0.048536
H106	H	0.045252	0.358446	0.000107
C107	C	0.330422	0.047435	0.000116
H108	H	0.315015	-0.005603	0.000111
H109	H	0.359816	0.049525	0.048538
H110	H	0.365868	0.044451	-0.048314
H111	H	0.757871	0.289305	0.775646
C112	C	1.031246	0.060007	0.788129
H113	H	1.017573	0.071474	0.846443
H114	H	1.080512	0.073158	0.773796
H115	H	1.041318	-0.002931	0.773810
H116	H	0.991046	-0.485953	0.000106
C117	C	1.104229	-0.083397	0.000104
H118	H	1.159191	-0.129272	0.000102
H119	H	1.094105	-0.043528	0.048526
H120	H	1.100169	-0.048606	-0.048326
H121	H	0.983909	0.099665	0.224556
H122	H	0.973998	0.107983	0.383121
C123	C	1.042707	0.050375	0.604583
H124	H	1.082009	0.017405	0.643128
H125	H	1.067340	0.084186	0.570476
H126	H	1.028150	0.008093	0.570497
C127	C	0.748544	0.297108	0.604597
H128	H	0.704431	0.334124	0.643147
H129	H	0.728165	0.259719	0.570508
H130	H	0.767357	0.335811	0.570494
C131	C	0.710534	0.328949	0.212066
H132	H	0.666417	0.365966	0.250612
H133	H	0.690160	0.291556	0.177977
H134	H	0.729347	0.367652	0.177963
