data_functionalizedCrystal
_audit_creation_method	'MofGen! by Chris Wilmer'
_symmetry_space_group_name_H-M	'P1'
_symmetry_Int_Tables_number	1
_symmetry_cell_setting	triclinic
loop_
_symmetry_equiv_pos_as_xyz
  x,y,z
_cell_length_a	10.654550
_cell_length_b	10.654558
_cell_length_c	9.730223
_cell_angle_alpha	90.000691
_cell_angle_beta	89.996971
_cell_angle_gamma	84.486531
loop_
_atom_site_label
_atom_site_type_symbol
_atom_site_fract_x
_atom_site_fract_y
_atom_site_fract_z
O1	O	1.667838	0.176389	-0.114403
O2	O	1.302360	0.193195	-0.114381
O3	O	1.493497	0.002053	-0.114383
O4	O	1.476701	0.367530	-0.114401
O5	O	1.493497	0.002066	0.114196
O6	O	1.302360	0.193207	0.114198
O7	O	1.667838	0.176401	0.114176
Zn8	Zn	1.485099	0.184806	0.150479
Zn9	Zn	1.485099	0.184790	-0.150684
O10	O	1.476701	0.367543	0.114178
C11	C	1.255562	0.191967	-0.000089
C12	C	1.116119	0.188275	-0.000080
C13	C	1.492261	-0.044738	-0.000094
C14	C	1.488566	-0.184181	-0.000095
C15	C	1.036636	0.300816	-0.000106
C16	C	0.905615	0.297340	-0.000129
C17	C	0.933572	0.068771	-0.000107
C18	C	1.064590	0.072249	-0.000074
C19	C	1.020494	0.432779	-0.000124
C20	C	0.889473	0.429302	-0.000148
C21	C	1.486827	-0.249696	0.124498
C22	C	1.483365	-0.380718	0.124486
C23	C	1.483375	-0.380699	-0.124725
C24	C	1.486846	-0.249680	-0.124711
C25	C	1.552068	-0.568766	0.274161
C26	C	1.550308	-0.634282	0.398761
C27	C	1.477968	-0.582786	0.508780
C28	C	1.407357	-0.465771	0.494205
C29	C	1.409106	-0.400260	0.369603
C30	C	1.481475	-0.451758	0.259588
C31	C	1.418132	-0.061630	-0.274377
C32	C	1.419872	0.003885	-0.398981
C33	C	1.492205	-0.047608	-0.509012
C34	C	1.562796	-0.164624	-0.494450
C35	C	1.561057	-0.230139	-0.369846
C36	C	1.488727	-0.178637	-0.259815
C37	C	1.714636	0.177629	-0.000119
C38	C	1.854079	0.181321	-0.000137
C39	C	1.477936	0.414334	-0.000114
C40	C	1.481632	0.553777	-0.000122
N41	N	1.485108	0.184817	0.356016
N42	N	1.485100	0.184769	-0.356221
C43	C	1.400451	0.269390	0.571862
C44	C	1.400451	0.269412	0.427979
C45	C	1.569761	0.100187	0.427943
C46	C	1.569754	0.100161	0.571823
C47	C	1.302704	0.367095	0.571882
C48	C	1.302704	0.367116	0.427999
H49	H	0.891601	-0.025694	-0.000123
O50	O	1.661043	0.008910	0.350336
H51	H	1.646822	0.023136	0.238204
O52	O	0.828970	0.482131	0.130565
H53	H	0.725511	0.477130	0.125159
H54	H	1.348442	-0.423857	0.583793
H55	H	1.481972	-0.434045	-0.226182
O56	O	1.476083	-0.653448	0.643171
H57	H	1.378068	-0.673590	0.666675
O58	O	1.343796	0.130125	-0.414750
H59	H	1.242464	0.118820	-0.397904
O60	O	1.626487	-0.760471	0.414502
H61	H	1.677117	-0.785262	0.317076
O62	O	1.630099	-0.624305	0.155492
H63	H	1.678880	-0.716683	0.186558
O64	O	1.637210	-0.356342	-0.354121
H65	H	1.687813	-0.381142	-0.451560
H66	H	1.206187	0.345581	0.610920
H67	H	1.049827	0.484394	0.095539
O68	O	1.343142	0.487896	0.631035
H69	H	1.265909	0.534111	0.695242
H70	H	1.056151	0.474792	-0.098814
O71	O	1.640813	-0.220182	-0.613123
H72	H	1.630171	-0.154965	-0.702209
H73	H	1.493559	0.005715	-0.610494
H74	H	1.211514	0.336542	0.383366
H75	H	1.359237	-0.019686	-0.184781
H76	H	1.638671	0.031245	0.630377
H77	H	1.324151	0.463658	0.388972
H78	H	1.129301	-0.019393	-0.000033
H79	H	0.847742	0.479018	-0.095818
H80	H	1.351644	-0.304973	0.357748
O81	O	1.488707	-0.179047	0.258897
H82	H	1.486932	-0.246623	0.345531
