data_functionalizedCrystal
_audit_creation_method	'MofGen! by Chris Wilmer'
_symmetry_space_group_name_H-M	'P1'
_symmetry_Int_Tables_number	1
_symmetry_cell_setting	triclinic
loop_
_symmetry_equiv_pos_as_xyz
  x,y,z
_cell_length_a	8.497374
_cell_length_b	8.497374
_cell_length_c	12.645331
_cell_angle_alpha	89.999928
_cell_angle_beta	90.003750
_cell_angle_gamma	90.005237
loop_
_atom_site_label
_atom_site_type_symbol
_atom_site_fract_x
_atom_site_fract_y
_atom_site_fract_z
Zn1	Zn	0.892192	0.628372	1.620656
Zn2	Zn	0.628457	0.892118	1.620647
Zn3	Zn	0.628409	0.628341	1.443429
Zn4	Zn	0.892179	0.892100	1.443403
O5	O	0.760309	0.760233	1.532034
O6	O	0.857232	0.663380	1.769002
O7	O	0.407689	0.857122	1.597146
O8	O	0.663386	0.407583	1.466952
O9	O	0.663467	0.857153	1.768995
O10	O	0.857185	0.407606	1.597160
O11	O	0.407654	0.663326	1.466944
O12	O	0.663374	0.663309	1.295078
O13	O	1.112943	0.857121	1.466909
O14	O	0.857165	0.857091	1.295059
O15	O	1.112952	0.663362	1.597135
O16	O	0.663455	1.112878	1.597121
O17	O	0.857211	1.112864	1.466901
C18	C	0.760264	0.760195	1.256604
C19	C	0.760282	0.760217	1.138774
C20	C	1.171790	0.760235	1.532026
C21	C	1.350434	0.760252	1.532028
C22	C	0.760332	1.170113	1.532020
C23	C	0.760306	1.348757	1.532048
C24	C	0.639040	0.637749	0.971186
C25	C	0.638506	0.638065	1.093746
C26	C	0.714905	0.926390	1.094296
C27	C	0.714078	0.925721	0.971698
C28	C	0.927368	0.718095	0.971579
C29	C	0.926439	0.714382	1.094184
C30	C	0.760356	0.760272	1.808539
C31	C	0.760376	0.760288	1.926369
H32	H	0.666944	0.514840	1.123816
C33	C	0.972658	0.549171	1.133446
N34	N	1.007463	0.424731	1.163021
H35	H	0.800508	1.020129	1.123465
H36	H	0.594137	0.962793	1.124985
C37	C	0.983120	0.557248	0.929806
N38	N	1.025092	0.436089	0.898345
C39	C	0.677036	0.470772	0.931336
N40	N	0.705657	0.345001	0.901313
H41	H	0.516020	0.665322	0.940371
C42	C	1.049504	0.838665	0.932421
N43	N	1.141485	0.929481	0.902920
H44	H	0.592000	0.961508	0.943086
C45	C	0.471328	0.675743	1.133348
N46	N	0.345403	0.704129	1.163176
C47	C	0.828254	1.053243	0.931646
N48	N	0.914244	1.149298	0.901483
C49	C	1.055101	0.826178	1.135585
N50	N	1.152005	0.910399	1.166765
