data_functionalizedCrystal
_audit_creation_method	'MofGen! by Chris Wilmer'
_symmetry_space_group_name_H-M	'P1'
_symmetry_Int_Tables_number	1
_symmetry_cell_setting	triclinic
loop_
_symmetry_equiv_pos_as_xyz
  x,y,z
_cell_length_a	18.215407
_cell_length_b	19.077442
_cell_length_c	18.215399
_cell_angle_alpha	87.675289
_cell_angle_beta	89.980167
_cell_angle_gamma	87.726626
loop_
_atom_site_label
_atom_site_type_symbol
_atom_site_fract_x
_atom_site_fract_y
_atom_site_fract_z
Zn1	Zn	1.136838	-0.280195	-0.404360
Zn2	Zn	1.636838	0.219805	0.095640
Zn3	Zn	1.141689	-0.397895	-0.276355
Zn4	Zn	1.641689	0.102105	0.223645
Zn5	Zn	1.013772	-0.280218	-0.281306
Zn6	Zn	1.513772	0.219782	0.218694
Zn7	Zn	1.018677	-0.397856	-0.399381
Zn8	Zn	1.518677	0.102144	0.100619
O9	O	1.077744	-0.339041	-0.340350
O10	O	1.577744	0.160959	0.159650
O11	O	1.240466	-0.295815	-0.387391
O12	O	1.740466	0.204185	0.112609
O13	O	1.124697	-0.382311	-0.174026
O14	O	1.624697	0.117689	0.325974
O15	O	1.026013	-0.181726	-0.301785
O16	O	1.526013	0.318274	0.198215
O17	O	1.244030	-0.382289	-0.293346
O18	O	1.744030	0.117711	0.206654
O19	O	1.116430	-0.181709	-0.392192
O20	O	1.616430	0.318291	0.107808
O21	O	1.030717	-0.295854	-0.177664
O22	O	1.530717	0.204146	0.322336
O23	O	0.911438	-0.295816	-0.296958
O24	O	1.411438	0.204184	0.203042
O25	O	1.034375	-0.382222	-0.503027
O26	O	1.534375	0.117778	-0.003027
O27	O	0.915042	-0.382244	-0.383707
O28	O	1.415042	0.117756	0.116293
O29	O	1.121187	-0.295777	-0.506685
O30	O	1.621187	0.204223	-0.006685
O31	O	1.129454	-0.496379	-0.288519
O32	O	1.629454	0.003621	0.211481
O33	O	1.039078	-0.496350	-0.378906
O34	O	1.539078	0.003650	0.121094
C35	C	0.886537	-0.339029	-0.340330
C36	C	1.386537	0.160971	0.159670
C37	C	0.804739	-0.339041	-0.340338
C38	C	1.304739	0.160959	0.159662
C39	C	0.618444	-0.384115	-0.385446
C40	C	1.118444	0.115885	0.114554
C41	C	0.541585	-0.384117	-0.385455
C42	C	1.041585	0.115883	0.114545
C43	C	0.537797	-0.293980	-0.295270
C44	C	1.037797	0.206020	0.204730
C45	C	0.614654	-0.293975	-0.295265
C46	C	1.114654	0.206025	0.204735
C47	C	0.654976	-0.339046	-0.340352
C48	C	1.154976	0.160954	0.159648
C49	C	0.501260	-0.339054	-0.340366
C50	C	1.001260	0.160946	0.159634
C51	C	0.417926	-0.339056	-0.340375
C52	C	0.917926	0.160944	0.159625
C53	C	0.738314	-0.339043	-0.340344
C54	C	1.238314	0.160957	0.159656
C55	C	1.085345	-0.521902	-0.332651
C56	C	1.585345	-0.021902	0.167349
C57	C	1.088664	-0.600131	-0.329382
C58	C	1.588664	-0.100131	0.170618
C59	C	1.112418	-1.040474	-0.305913
C60	C	1.612418	-0.540474	0.194087
C61	C	1.109293	-0.966970	-0.308986
C62	C	1.609293	-0.466970	0.191014
C63	C	1.060643	-0.930231	-0.357547
C64	C	1.560643	-0.430231	0.142453
C65	C	1.015110	-0.967000	-0.403032
C66	C	1.515110	-0.467000	0.096968
C67	C	1.018232	-1.040502	-0.399954
C68	C	1.518232	-0.540502	0.100046
C69	C	1.046253	-0.710402	-0.371790
C70	C	1.546253	-0.210402	0.128210
C71	C	1.043136	-0.636894	-0.374865
C72	C	1.543136	-0.136894	0.125135
C73	C	1.137318	-0.636870	-0.280818
C74	C	1.637318	-0.136870	0.219182
C75	C	1.140439	-0.710374	-0.277748
C76	C	1.640439	-0.210374	0.222252
C77	C	1.094904	-0.747136	-0.323230
C78	C	1.594904	-0.247136	0.176770
N79	N	1.057449	-0.855098	-0.360691
N80	N	1.557449	-0.355098	0.139309
N81	N	1.098094	-0.822268	-0.320082
N82	N	1.598094	-0.322268	0.179918
C83	C	1.269697	-0.339054	-0.340371
C84	C	1.769697	0.160946	0.159629
C85	C	1.351497	-0.339059	-0.340380
C86	C	1.851497	0.160941	0.159620
C87	C	1.077787	-0.338993	-0.532305
C88	C	1.577787	0.161007	-0.032305
C89	C	1.077805	-0.338972	-0.614105
C90	C	1.577805	0.161028	-0.114105
C91	C	1.070133	-0.155466	-0.348096
C92	C	1.570133	0.344534	0.151904
C93	C	1.066890	-0.077238	-0.351396
C94	C	1.566890	0.422762	0.148604
C95	C	1.123023	-0.293918	-0.804207
C96	C	1.623023	0.206082	-0.304207
C97	C	1.123031	-0.293898	-0.881066
C98	C	1.623031	0.206102	-0.381066
C99	C	1.032634	-0.383917	-0.877246
C100	C	1.532634	0.116083	-0.377246
C101	C	1.032623	-0.383933	-0.800388
C102	C	1.532623	0.116067	-0.300388
C103	C	1.077822	-0.338935	-0.763870
C104	C	1.577822	0.161065	-0.263870
C105	C	1.077841	-0.338898	-0.917588
C106	C	1.577841	0.161102	-0.417588
C107	C	1.077849	-0.338876	-1.000923
C108	C	1.577849	0.161124	-0.500923
C109	C	1.077813	-0.338956	-0.680530
C110	C	1.577813	0.161044	-0.180530
C111	C	1.077742	-0.339039	-0.149144
C112	C	1.577742	0.160961	0.350856
C113	C	1.077858	-0.338861	-0.067353
C114	C	1.577858	0.161139	0.432647
H115	H	0.644398	-0.257271	-0.258545
H116	H	1.144398	0.242729	0.241455
C117	C	0.968155	-1.080942	-0.449989
C118	C	1.468155	-0.580942	0.050011
H119	H	0.938739	-1.048536	-0.479357
H120	H	1.438739	-0.548536	0.020643
H121	H	0.937324	-1.109660	-0.420609
H122	H	1.437324	-0.609660	0.079391
H123	H	0.997512	-1.109572	-0.480883
H124	H	1.497512	-0.609572	0.019117
C125	C	1.172730	-0.244414	-0.764039
C126	C	1.672730	0.255586	-0.264039
H127	H	1.199645	-0.217595	-0.799073
H128	H	1.699645	0.282405	-0.299073
H129	H	1.205910	-0.271338	-0.732924
H130	H	1.705910	0.228662	-0.232924
H131	H	1.143292	-0.213752	-0.735350
H132	H	1.643292	0.286248	-0.235350
C133	C	0.493441	-0.244414	-0.245671
C134	C	0.993441	0.255586	0.254329
H135	H	0.442435	-0.250877	-0.252125
H136	H	0.942435	0.249123	0.247875
H137	H	0.504071	-0.197136	-0.258505
H138	H	1.004071	0.302864	0.241495
H139	H	0.506446	-0.254663	-0.195773
H140	H	1.006446	0.245337	0.304227
C141	C	0.996172	-0.750832	-0.421824
C142	C	1.496172	-0.250832	0.078176
H143	H	0.966759	-0.718422	-0.451190
H144	H	1.466759	-0.218422	0.048810
H145	H	0.965338	-0.779548	-0.392445
H146	H	1.465338	-0.279548	0.107555
H147	H	1.025527	-0.779463	-0.452718
H148	H	1.525527	-0.279463	0.047282
C149	C	1.159378	-0.926533	-0.258959
C150	C	1.659378	-0.426533	0.241041
H151	H	1.188806	-0.958940	-0.229606
H152	H	1.688806	-0.458940	0.270394
H153	H	1.130032	-0.897901	-0.228065
H154	H	1.630032	-0.397901	0.271935
H155	H	1.190209	-0.897817	-0.288349
H156	H	1.690209	-0.397817	0.211651
H157	H	0.975495	-0.937082	-0.442568
H158	H	1.475495	-0.437082	0.057432
C159	C	1.172756	-0.244382	-0.925433
C160	C	1.672756	0.255618	-0.425433
H161	H	1.199675	-0.217591	-0.892674
H162	H	1.699675	0.282409	-0.392674
H163	H	1.143340	-0.213707	-0.956705
H164	H	1.643340	0.286293	-0.456705
H165	H	1.205945	-0.271306	-0.954284
H166	H	1.705945	0.228694	-0.454284
H167	H	1.174390	-0.606931	-0.243788
H168	H	1.674390	-0.106931	0.256212
H169	H	0.511845	-0.420815	-0.422176
H170	H	1.011845	0.079185	0.077824
H171	H	0.995837	-0.420554	-0.906989
H172	H	1.495837	0.079446	-0.406989
H173	H	0.995809	-0.420591	-0.767545
H174	H	1.495809	0.079409	-0.267545
H175	H	1.152038	-1.070382	-0.266374
H176	H	1.652038	-0.570382	0.233626
H177	H	1.180053	-0.740282	-0.238204
H178	H	1.680053	-0.240282	0.261796
C179	C	0.662795	-0.433684	-0.435046
C180	C	1.162795	0.066316	0.064954
H181	H	0.630027	-0.460520	-0.461909
H182	H	1.130027	0.039480	0.038091
H183	H	0.694041	-0.464316	-0.405556
H184	H	1.194041	0.035684	0.094444
H185	H	0.691669	-0.406790	-0.468289
H186	H	1.191669	0.093210	0.031711
H187	H	1.003518	-0.606985	-0.414412
H188	H	1.503518	-0.106985	0.085588
