data_functionalizedCrystal
_audit_creation_method	'MofGen! by Chris Wilmer'
_symmetry_space_group_name_H-M	'P1'
_symmetry_Int_Tables_number	1
_symmetry_cell_setting	triclinic
loop_
_symmetry_equiv_pos_as_xyz
  x,y,z
_cell_length_a	17.077402
_cell_length_b	16.959455
_cell_length_c	17.077396
_cell_angle_alpha	89.980622
_cell_angle_beta	90.029784
_cell_angle_gamma	89.982348
loop_
_atom_site_label
_atom_site_type_symbol
_atom_site_fract_x
_atom_site_fract_y
_atom_site_fract_z
Zn1	Zn	-0.312618	-1.208401	0.443833
Zn2	Zn	0.187382	-0.708401	0.943833
Zn3	Zn	-0.443893	-1.208307	0.312564
Zn4	Zn	0.056107	-0.708307	0.812564
Zn5	Zn	-0.312633	-1.076220	0.312581
Zn6	Zn	0.187367	-0.576220	0.812581
Zn7	Zn	-0.443833	-1.076187	0.443788
Zn8	Zn	0.056167	-0.576187	0.943788
O9	O	-0.378244	-1.142279	0.378191
O10	O	0.121756	-0.642279	0.878191
O11	O	-0.330050	-1.318999	0.426432
O12	O	0.169950	-0.818999	0.926432
O13	O	-0.426512	-1.190760	0.202719
O14	O	0.073488	-0.690760	0.702719
O15	O	-0.202784	-1.093806	0.330018
O16	O	0.297216	-0.593806	0.830018
O17	O	-0.426497	-1.318930	0.329989
O18	O	0.073503	-0.818930	0.829989
O19	O	-0.202773	-1.190919	0.426448
O20	O	0.297227	-0.690919	0.926448
O21	O	-0.330076	-1.093716	0.202732
O22	O	0.169924	-0.593716	0.702732
O23	O	-0.330018	-0.965604	0.329974
O24	O	0.169982	-0.465604	0.829974
O25	O	-0.426396	-1.093751	0.553641
O26	O	0.073604	-0.593751	1.053641
O27	O	-0.426411	-0.965581	0.426371
O28	O	0.073589	-0.465581	0.926371
O29	O	-0.329993	-1.190888	0.553674
O30	O	0.170007	-0.690888	1.053674
O31	O	-0.553732	-1.190729	0.329945
O32	O	-0.053732	-0.690729	0.829945
O33	O	-0.553688	-1.093661	0.426355
O34	O	-0.053688	-0.593661	0.926355
C35	C	-0.378210	-0.936912	0.378170
C36	C	0.121790	-0.436912	0.878170
C37	C	-0.378215	-0.849056	0.378180
C38	C	0.121785	-0.349056	0.878180
C39	C	-0.327986	-0.477568	0.328092
C40	C	0.172014	0.022432	0.828092
C41	C	-0.428516	-0.477592	0.428315
C42	C	0.071484	0.022408	0.928315
C43	C	-0.428508	-0.560138	0.428312
C44	C	0.071492	-0.060138	0.928312
C45	C	-0.378239	-0.601403	0.378197
C46	C	0.121761	-0.101403	0.878197
C47	C	-0.327978	-0.560122	0.328085
C48	C	0.172022	-0.060122	0.828085
C49	C	-0.478774	-0.601426	0.478416
C50	C	0.021226	-0.101426	0.978416
C51	C	-0.478768	-0.683976	0.478414
C52	C	0.021232	-0.183976	0.978414
C53	C	-0.428495	-0.725243	0.428303
C54	C	0.071505	-0.225243	0.928303
C55	C	-0.378231	-0.683956	0.378190
C56	C	0.121769	-0.183956	0.878190
C57	C	-0.327962	-0.725221	0.328075
C58	C	0.172038	-0.225221	0.828075
C59	C	-0.277694	-0.683936	0.277966
C60	C	0.222306	-0.183936	0.777966
C61	C	-0.277705	-0.601388	0.277974
C62	C	0.222295	-0.101388	0.777974
C63	C	-0.428484	-0.807791	0.428295
C64	C	0.071516	-0.307791	0.928295
C65	C	-0.327954	-0.807775	0.328068
C66	C	0.172046	-0.307775	0.828068
C67	C	-0.582192	-1.142202	0.378160
C68	C	-0.082192	-0.642202	0.878160
C69	C	-0.669442	-1.142242	0.378173
C70	C	-0.169442	-0.642242	0.878173
C71	C	-0.710428	-1.192837	0.328026
C72	C	-0.210428	-0.692837	0.828026
C73	C	-0.792409	-1.192876	0.328046
C74	C	-0.292409	-0.692876	0.828046
C75	C	-0.833401	-1.142315	0.378210
C76	C	-0.333401	-0.642315	0.878210
C77	C	-0.792409	-1.091718	0.428362
C78	C	-0.292409	-0.591718	0.928362
C79	C	-0.710430	-1.091684	0.428345
C80	C	-0.210430	-0.591684	0.928345
C81	C	-0.963279	-1.091791	0.428392
C82	C	-0.463279	-0.591791	0.928392
C83	C	-1.045263	-1.091824	0.428407
C84	C	-0.545263	-0.591824	0.928407
C85	C	-1.045258	-1.192983	0.328093
C86	C	-0.545258	-0.692983	0.828093
C87	C	-0.963279	-1.192949	0.328076
C88	C	-0.463279	-0.692949	0.828076
C89	C	-0.922292	-1.142350	0.378228
C90	C	-0.422292	-0.642350	0.878228
C91	C	-0.173500	-1.142377	0.378240
C92	C	0.326500	-0.642377	0.878240
C93	C	-0.086250	-1.142419	0.378261
C94	C	0.413750	-0.642419	0.878261
C95	C	-0.378186	-1.142327	0.582936
C96	C	0.121814	-0.642327	1.082936
C97	C	-0.378162	-1.142347	0.670186
C98	C	0.121838	-0.642347	1.170186
C99	C	-0.378269	-0.348447	0.378209
C100	C	0.121731	0.151553	0.878209
C101	C	-0.378255	-0.436303	0.378207
C102	C	0.121745	0.063697	0.878207
C103	C	-0.378245	-1.142277	0.174244
C104	C	0.121755	-0.642277	0.674244
C105	C	-0.378049	-1.142409	0.086994
C106	C	0.121951	-0.642409	0.586994
C107	C	-0.327960	-1.192928	0.711194
C108	C	0.172040	-0.692928	1.211194
C109	C	-0.327934	-1.192937	0.793175
C110	C	0.172066	-0.692937	1.293175
C111	C	-0.378114	-1.142369	0.834145
C112	C	0.121886	-0.642369	1.334145
C113	C	-0.428318	-1.091783	0.793131
C114	C	0.071682	-0.591783	1.293131
C115	C	-0.428339	-1.091770	0.711152
C116	C	0.071661	-0.591770	1.211152
C117	C	-0.428270	-1.091815	0.964001
C118	C	0.071730	-0.591815	1.464001
C119	C	-0.428250	-1.091828	1.045986
C120	C	0.071750	-0.591828	1.545986
C121	C	-0.327865	-1.192982	1.046024
C122	C	0.172135	-0.692982	1.546024
C123	C	-0.327887	-1.192969	0.964045
C124	C	0.172113	-0.692969	1.464045
C125	C	-0.378092	-1.142383	0.923036
C126	C	0.121908	-0.642383	1.423036
H127	H	-0.287014	-0.841367	0.287263
H128	H	0.212986	-0.341367	0.787263
H129	H	-0.929910	-1.050591	0.469233
H130	H	-0.429910	-0.550591	0.969233
C131	C	-0.837491	-1.248526	0.272881
C132	C	-0.337491	-0.748526	0.772881
H133	H	-0.801336	-1.278625	0.242996
H134	H	-0.301336	-0.778625	0.742996
H135	H	-0.869424	-1.282966	0.302943
H136	H	-0.369424	-0.782966	0.802943
H137	H	-0.869517	-1.218315	0.238658
H138	H	-0.369517	-0.718315	0.738658
C139	C	-0.534052	-0.729383	0.533538
C140	C	-0.034052	-0.229383	1.033538
H141	H	-0.563987	-0.692983	0.563389
H142	H	-0.063987	-0.192983	1.063389
H143	H	-0.568213	-0.761570	0.503453
H144	H	-0.068213	-0.261570	1.003453
H145	H	-0.504056	-0.761600	0.567795
H146	H	-0.004056	-0.261600	1.067795
H147	H	-0.287030	-1.234150	0.930689
H148	H	0.212970	-0.734150	1.430689
H149	H	-0.469448	-0.443990	0.469112
H150	H	0.030552	0.056010	0.969112
H151	H	-0.236768	-0.717545	0.237159
H152	H	0.263232	-0.217545	0.737159
C153	C	-0.272650	-1.248634	1.091130
C154	C	0.227350	-0.748634	1.591130
H155	H	-0.279819	-1.241398	1.145821
H156	H	0.220181	-0.741398	1.645821
H157	H	-0.284164	-1.301730	1.077697
H158	H	0.215836	-0.801730	1.577697
H159	H	-0.219903	-1.237099	1.077710
H160	H	0.280097	-0.737099	1.577710
C161	C	-0.222427	-0.555974	0.222849
C162	C	0.277573	-0.055974	0.722849
H163	H	-0.229641	-0.500901	0.230024
H164	H	0.270359	-0.000901	0.730024
H165	H	-0.169695	-0.569511	0.234422
H166	H	0.330305	-0.069511	0.734422
H167	H	-0.233859	-0.569482	0.170086
H168	H	0.266141	-0.069482	0.670086
C169	C	-0.483442	-1.036201	1.091052
C170	C	0.016558	-0.536201	1.591052
H171	H	-0.513338	-1.006064	1.054889
H172	H	-0.013338	-0.506064	1.554889
H173	H	-0.517643	-1.066423	1.123028
H174	H	-0.017643	-0.566423	1.623028
H175	H	-0.453390	-1.001783	1.123033
H176	H	0.046610	-0.501783	1.623033
H177	H	-0.469172	-1.050607	0.826495
H178	H	0.030828	-0.550607	1.326495
C179	C	-0.665341	-1.036031	0.483505
C180	C	-0.165341	-0.536031	0.983505
H181	H	-0.610647	-1.043257	0.476317
H182	H	-0.110647	-0.543257	0.976317
H183	H	-0.678820	-0.982933	0.471975
H184	H	-0.178820	-0.482933	0.971975
H185	H	-0.678731	-1.047582	0.536262
H186	H	-0.178731	-0.547582	1.036262
H187	H	-0.469141	-1.050610	0.930614
H188	H	0.030859	-0.550610	1.430614
H189	H	-0.287057	-0.443950	0.287296
H190	H	0.212943	0.056050	0.787296
H191	H	-0.287057	-1.234127	0.826561
H192	H	0.212943	-0.734127	1.326561
H193	H	-0.469211	-1.050574	0.677764
H194	H	0.030789	-0.550574	1.177764
C195	C	-1.090340	-1.248631	0.272918
C196	C	-0.590340	-0.748631	0.772918
H197	H	-1.145034	-1.241414	0.280114
H198	H	-0.645034	-0.741414	0.780114
H199	H	-1.076946	-1.237074	0.220168
H200	H	-0.576946	-0.737074	0.720168
H201	H	-1.076862	-1.301734	0.284443
H202	H	-0.576862	-0.801734	0.784443
H203	H	-0.519706	-0.567822	0.519212
H204	H	-0.019706	-0.067822	1.019212
C205	C	-0.483771	-0.853201	0.483408
C206	C	0.016229	-0.353201	0.983408
H207	H	-0.513709	-0.816802	0.513256
H208	H	-0.013709	-0.316802	1.013256
H209	H	-0.517929	-0.885387	0.453316
H210	H	-0.017929	-0.385387	0.953316
H211	H	-0.453779	-0.885420	0.517667
H212	H	0.046221	-0.385420	1.017667
H213	H	-0.677058	-1.234006	0.287174
H214	H	-0.177058	-0.734006	0.787174
H215	H	-0.929903	-1.234115	0.287226
H216	H	-0.429903	-0.734115	0.787226
C217	C	-1.090354	-1.036218	0.483595
C218	C	-0.590354	-0.536218	0.983595
H219	H	-1.054204	-1.006088	0.513471
H220	H	-0.554204	-0.506088	1.013471
H221	H	-1.122383	-1.001805	0.453550
H222	H	-0.622383	-0.501805	0.953550
H223	H	-1.122285	-1.066464	0.517827
H224	H	-0.622285	-0.566464	1.017827
H225	H	-0.825791	-1.050554	0.469209
H226	H	-0.325791	-0.550554	0.969209
H227	H	-0.287100	-1.234109	0.677842
H228	H	0.212900	-0.734109	1.177842
