data_functionalizedCrystal
_audit_creation_method	'MofGen! by Chris Wilmer'
_symmetry_space_group_name_H-M	'P1'
_symmetry_Int_Tables_number	1
_symmetry_cell_setting	triclinic
loop_
_symmetry_equiv_pos_as_xyz
  x,y,z
_cell_length_a	13.032831
_cell_length_b	29.839131
_cell_length_c	13.033109
_cell_angle_alpha	97.151620
_cell_angle_beta	76.665514
_cell_angle_gamma	82.845366
loop_
_atom_site_label
_atom_site_type_symbol
_atom_site_fract_x
_atom_site_fract_y
_atom_site_fract_z
Zn1	Zn	1.699796	-0.315802	-0.806302
Zn2	Zn	2.199796	0.184198	-0.306302
Zn3	Zn	1.677064	-0.379995	-0.628664
Zn4	Zn	2.177064	0.120005	-0.128664
Zn5	Zn	1.499642	-0.293953	-0.606203
Zn6	Zn	1.999642	0.206047	-0.106203
Zn7	Zn	1.522079	-0.379955	-0.783708
Zn8	Zn	2.022079	0.120045	-0.283708
O9	O	1.599645	-0.342426	-0.706219
O10	O	2.099645	0.157574	-0.206219
O11	O	1.845408	-0.333478	-0.801594
O12	O	2.345408	0.166522	-0.301594
O13	O	1.634625	-0.359454	-0.477056
O14	O	2.134625	0.140546	0.022944
O15	O	1.526317	-0.233994	-0.632802
O16	O	2.026317	0.266006	-0.132802
O17	O	1.828706	-0.380640	-0.671084
O18	O	2.328706	0.119360	-0.171084
O19	O	1.673369	-0.250047	-0.779815
O20	O	2.173369	0.249953	-0.279815
O21	O	1.504274	-0.296239	-0.460554
O22	O	2.004274	0.203761	0.039446
O23	O	1.353992	-0.296200	-0.610893
O24	O	1.853992	0.203800	-0.110893
O25	O	1.564557	-0.380573	-0.935334
O26	O	2.064557	0.119427	-0.435334
O27	O	1.370476	-0.359386	-0.741306
O28	O	1.870476	0.140614	-0.241306
O29	O	1.695125	-0.333440	-0.951934
O30	O	2.195125	0.166560	-0.451934
O31	O	1.656381	-0.442847	-0.649175
O32	O	2.156381	0.057153	-0.149175
O33	O	1.542514	-0.442818	-0.763085
O34	O	2.042514	0.057182	-0.263085
C35	C	1.323696	-0.325418	-0.671211
C36	C	1.823696	0.174582	-0.171211
C37	C	1.205647	-0.318155	-0.656260
C38	C	1.705647	0.181845	-0.156260
C39	C	1.161189	-0.346217	-0.714022
C40	C	1.661189	0.153783	-0.214022
C41	C	1.039179	-0.338711	-0.698571
C42	C	1.539179	0.161289	-0.198571
C43	C	1.599447	-0.459134	-0.706142
C44	C	2.099447	0.040866	-0.206142
C45	C	1.599464	-0.509070	-0.706157
C46	C	2.099464	-0.009070	-0.206157
C47	C	1.659072	-0.818743	-0.647021
C48	C	2.159072	-0.318743	-0.147021
C49	C	1.659208	-1.006427	-0.647079
C50	C	2.159208	-0.506427	-0.147079
O51	O	1.709732	-1.030705	-0.596740
O52	O	2.209732	-0.530705	-0.096740
N53	N	1.599876	-1.029887	-0.706327
N54	N	2.099876	-0.529887	-0.206327
C55	C	1.540510	-1.006424	-0.765571
C56	C	2.040510	-0.506424	-0.265571
O57	O	1.490056	-1.030686	-0.815975
O58	O	1.990056	-0.530686	-0.315975
C59	C	1.540381	-0.818742	-0.765518
C60	C	2.040381	-0.318742	-0.265518
C61	C	1.599709	-0.795283	-0.706258
C62	C	2.099709	-0.295283	-0.206258
C63	C	1.718396	-0.795284	-0.587766
C64	C	2.218396	-0.295284	-0.087766
C65	C	1.718357	-0.748366	-0.587748
C66	C	2.218357	-0.248366	-0.087748
C67	C	1.658993	-0.724906	-0.646984
C68	C	2.158993	-0.224906	-0.146984
C69	C	1.599669	-0.748364	-0.706239
C70	C	2.099669	-0.248364	-0.206239
C71	C	1.481022	-0.795280	-0.824767
C72	C	1.981022	-0.295280	-0.324767
C73	C	1.480997	-0.748357	-0.824751
C74	C	1.980997	-0.248357	-0.324751
C75	C	1.540325	-0.724898	-0.765490
C76	C	2.040325	-0.224898	-0.265490
C77	C	1.540267	-0.677986	-0.765457
C78	C	2.040267	-0.177986	-0.265457
N79	N	1.599599	-0.654526	-0.706209
N80	N	2.099599	-0.154526	-0.206209
C81	C	1.658963	-0.677985	-0.646972
C82	C	2.158963	-0.177985	-0.146972
C83	C	1.540581	-1.104960	-0.765593
C84	C	2.040581	-0.604960	-0.265593
C85	C	1.540612	-1.151880	-0.765604
C86	C	2.040612	-0.651880	-0.265604
C87	C	1.659311	-1.151879	-0.647114
C88	C	2.159311	-0.651879	-0.147114
C89	C	1.659274	-1.104958	-0.647097
C90	C	2.159274	-0.604958	-0.147097
C91	C	1.599913	-1.081499	-0.706344
C92	C	2.099913	-0.581499	-0.206344
C93	C	1.658875	-0.579453	-0.646937
C94	C	2.158875	-0.079453	-0.146937
C95	C	1.658827	-0.532530	-0.646921
C96	C	2.158827	-0.032530	-0.146921
C97	C	1.540132	-0.532535	-0.765415
C98	C	2.040132	-0.032535	-0.265415
C99	C	1.540175	-0.579453	-0.765428
C100	C	2.040175	-0.079453	-0.265428
C101	C	1.599555	-0.602912	-0.706187
C102	C	2.099555	-0.102912	-0.206187
O103	O	1.489779	-0.653680	-0.815780
O104	O	1.989779	-0.153680	-0.315780
O105	O	1.709428	-0.653718	-0.596594
O106	O	2.209428	-0.153718	-0.096594
C107	C	1.659111	-0.865661	-0.647040
C108	C	2.159111	-0.365661	-0.147040
C109	C	1.599787	-0.889120	-0.706295
C110	C	2.099787	-0.389120	-0.206295
C111	C	1.540424	-0.865660	-0.765531
C112	C	2.040424	-0.365660	-0.265531
C113	C	1.599818	-0.936040	-0.706306
C114	C	2.099818	-0.436040	-0.206306
C115	C	1.659181	-0.959500	-0.647070
C116	C	2.159181	-0.459500	-0.147070
C117	C	1.718514	-0.936040	-0.587822
C118	C	2.218514	-0.436040	-0.087822
C119	C	1.718474	-0.889121	-0.587803
C120	C	2.218474	-0.389121	-0.087803
C121	C	1.481091	-0.889121	-0.824779
C122	C	1.981091	-0.389121	-0.324779
C123	C	1.481135	-0.936039	-0.824792
C124	C	1.981135	-0.436039	-0.324792
C125	C	1.540498	-0.959499	-0.765556
C126	C	2.040498	-0.459499	-0.265556
C127	C	1.876672	-0.359501	-0.741365
C128	C	2.376672	0.140499	-0.241365
C129	C	1.994724	-0.366777	-0.756342
C130	C	2.494724	0.133223	-0.256342
C131	C	1.634879	-0.359439	-0.983249
C132	C	2.134879	0.140561	-0.483249
C133	C	1.649894	-0.366689	-1.101303
C134	C	2.149894	0.133311	-0.601303
C135	C	1.599876	-0.225266	-0.706323
C136	C	2.099876	0.274734	-0.206323
C137	C	1.599975	-0.175340	-0.706368
C138	C	2.099975	0.324660	-0.206368
C139	C	1.592093	-0.338644	-1.145770
C140	C	2.092093	0.161356	-0.645770
C141	C	1.607610	-0.346136	-1.267784
C142	C	2.107610	0.153864	-0.767784
C143	C	1.564610	-0.325451	-0.430275
C144	C	2.064610	0.174549	0.069725
C145	C	1.549801	-0.318087	-0.312248
C146	C	2.049801	0.181913	0.187752
H147	H	1.046984	-0.396360	-0.817245
H148	H	1.546984	0.103640	-0.317245
Br149	Br	1.460012	-1.073130	-0.846008
Br150	Br	1.960012	-0.573130	-0.346008
Br151	Br	1.118548	-0.268843	-0.554773
Br152	Br	1.618548	0.231157	-0.054773
Br153	Br	1.400607	-0.967870	-0.905222
Br154	Br	1.900607	-0.467870	-0.405222
H155	H	1.432660	-0.729260	-0.873001
H156	H	1.932660	-0.229260	-0.373001
H157	H	0.986919	-0.309124	-0.637679
H158	H	1.486919	0.190876	-0.137679
Br159	Br	1.448134	-0.268830	-1.225156
Br160	Br	1.948134	0.231170	-0.725156
H161	H	1.491869	-0.598555	-0.813687
H162	H	1.991869	-0.098555	-0.313687
H163	H	1.492290	-1.170975	-0.813849
H164	H	1.992290	-0.670975	-0.313849
H165	H	1.432705	-0.814372	-0.873018
H166	H	1.932705	-0.314372	-0.373018
H167	H	1.766846	-0.955149	-0.539586
H168	H	2.266846	-0.455149	-0.039586
H169	H	1.491795	-0.513426	-0.813641
H170	H	1.991795	-0.013426	-0.313641
H171	H	1.766670	-0.729268	-0.539496
H172	H	2.266670	-0.229268	-0.039496
Br173	Br	1.739346	-0.500695	-0.566488
Br174	Br	2.239346	-0.000695	-0.066488
H175	H	1.707230	-0.598547	-0.598700
H176	H	2.207230	-0.098547	-0.098700
Br177	Br	1.798974	-0.827114	-0.507365
Br178	Br	2.298974	-0.327114	-0.007365
Br179	Br	1.248288	-0.395527	-0.815515
Br180	Br	1.748288	0.104473	-0.315515
H181	H	1.766785	-0.870025	-0.539548
H182	H	2.266785	-0.370025	-0.039548
H183	H	1.531116	-0.309088	-1.093509
H184	H	2.031116	0.190912	-0.593509
H185	H	1.668586	-0.375696	-1.320042
H186	H	2.168586	0.124304	-0.820042
Br187	Br	1.751515	-0.415959	-1.188396
Br188	Br	2.251515	0.084041	-0.688396
H189	H	1.707584	-1.085860	-0.598842
H190	H	2.207584	-0.585860	-0.098842
H191	H	1.707648	-1.170988	-0.598881
H192	H	2.207648	-0.670988	-0.098881
H193	H	1.432752	-0.870023	-0.873018
H194	H	1.932752	-0.370023	-0.373018
