data_functionalizedCrystal
_audit_creation_method	'MofGen! by Chris Wilmer'
_symmetry_space_group_name_H-M	'P1'
_symmetry_Int_Tables_number	1
_symmetry_cell_setting	triclinic
loop_
_symmetry_equiv_pos_as_xyz
  x,y,z
_cell_length_a	8.559649
_cell_length_b	8.559649
_cell_length_c	16.053802
_cell_angle_alpha	92.204030
_cell_angle_beta	87.781031
_cell_angle_gamma	69.778664
loop_
_atom_site_label
_atom_site_type_symbol
_atom_site_fract_x
_atom_site_fract_y
_atom_site_fract_z
O1	O	2.134563	-0.062705	-0.069426
O2	O	1.659079	0.021076	-0.069427
O3	O	1.938711	-0.258557	-0.069426
O4	O	1.854930	0.216928	-0.069428
O5	O	1.923327	-0.243221	0.069433
O6	O	1.643694	0.036411	0.069431
O7	O	2.119178	-0.047370	0.069432
Zn8	Zn	1.878993	-0.003044	0.091479
Zn9	Zn	1.899264	-0.023249	-0.091474
O10	O	1.839546	0.232263	0.069431
C11	C	1.591077	0.035093	0.000002
C12	C	1.411378	0.053992	0.000001
C13	C	1.937368	-0.311198	0.000002
C14	C	1.956268	-0.490898	-0.000003
C15	C	2.187180	-0.061387	0.000001
C16	C	2.366880	-0.080286	-0.000004
C17	C	1.840889	0.284905	0.000001
C18	C	1.821990	0.464604	0.000000
N19	N	1.865172	0.010743	0.216339
N20	N	1.913100	-0.037050	-0.216334
C21	C	1.984190	-0.108209	0.260033
C22	C	1.974534	-0.098551	0.347440
C23	C	1.845866	0.030066	0.391151
C24	C	1.726836	0.149023	0.347450
C25	C	1.736486	0.139358	0.260045
C26	C	1.803720	0.072241	0.652560
C27	C	1.794082	0.081901	0.739971
C28	C	2.041779	-0.165676	0.739955
C29	C	2.051423	-0.175325	0.652549
C30	C	1.932388	-0.056373	0.608856
N31	N	1.835997	0.039944	0.480494
N32	N	1.942252	-0.066259	0.519514
H33	H	1.466268	-0.209714	-0.000004
Cl34	Cl	1.257950	0.253812	-0.000013
H35	H	1.692570	-0.436018	0.000003
H36	H	2.088971	-0.212936	0.224450
H37	H	2.085695	-0.590285	0.000004
Cl38	Cl	1.565072	0.310710	0.402399
Cl39	Cl	2.124158	-0.248094	0.402372
H40	H	2.156195	-0.280055	0.616961
H41	H	2.138690	-0.262523	0.775538
Cl42	Cl	1.632313	0.243609	0.794916
Cl43	Cl	1.654085	0.221782	0.597638
Cl44	Cl	1.586850	0.288899	0.205116
