data_functionalizedCrystal
_audit_creation_method	'MofGen! by Chris Wilmer'
_symmetry_space_group_name_H-M	'P1'
_symmetry_Int_Tables_number	1
_symmetry_cell_setting	triclinic
loop_
_symmetry_equiv_pos_as_xyz
  x,y,z
_cell_length_a	16.992694
_cell_length_b	10.540539
_cell_length_c	16.053802
_cell_angle_alpha	92.593658
_cell_angle_beta	87.249047
_cell_angle_gamma	87.596857
loop_
_atom_site_label
_atom_site_type_symbol
_atom_site_fract_x
_atom_site_fract_y
_atom_site_fract_z
O1	O	1.045174	0.264306	-0.069318
O2	O	0.816873	0.261349	-0.069343
O3	O	0.936232	0.078573	-0.069329
O4	O	0.925815	0.447082	-0.069332
O5	O	0.929662	0.088589	0.069529
O6	O	0.810303	0.271366	0.069516
O7	O	1.038604	0.274322	0.069540
Zn8	Zn	0.923410	0.274434	0.091575
Zn9	Zn	0.932067	0.261237	-0.091377
O10	O	0.919245	0.457098	0.069526
C11	C	0.784355	0.262556	0.000083
C12	C	0.697247	0.251215	0.000074
C13	C	0.932166	0.036210	0.000099
C14	C	0.929829	-0.104941	0.000094
C15	C	0.647620	0.360635	0.000073
C16	C	0.565773	0.349973	0.000085
C17	C	0.533555	0.229889	0.000091
C18	C	0.583189	0.120461	0.000094
C19	C	0.665034	0.131125	0.000088
C20	C	0.289709	0.185691	0.000114
C21	C	0.207858	0.175036	0.000117
C22	C	0.190447	0.404549	0.000110
C23	C	0.272294	0.415202	0.000099
C24	C	0.321921	0.305774	0.000106
N25	N	0.449895	0.218988	0.000100
N26	N	0.405579	0.316677	0.000103
C27	C	0.840283	-0.296162	-0.000227
C28	C	0.842638	-0.149316	0.000086
C29	C	0.968037	-0.157237	0.079393
C30	C	0.965058	-0.304035	0.079460
C31	C	0.974303	-0.315790	-0.078448
C32	C	0.975156	-0.168814	-0.079496
C33	C	1.071123	0.273115	0.000112
C34	C	1.158230	0.284456	0.000117
C35	C	0.923311	0.499461	0.000097
C36	C	0.925649	0.640612	0.000096
N37	N	0.917508	0.283440	0.216434
N38	N	0.937975	0.252222	-0.216237
C39	C	0.968315	0.205700	0.260134
C40	C	0.964193	0.212013	0.347540
C41	C	0.909269	0.296073	0.391245
C42	C	0.858458	0.373817	0.347539
C43	C	0.862576	0.367497	0.260134
C44	C	0.891281	0.323645	0.652653
C45	C	0.887169	0.329962	0.740063
C46	C	0.992904	0.168156	0.740059
C47	C	0.997020	0.161848	0.652652
C48	C	0.946206	0.239587	0.608954
N49	N	0.905057	0.302531	0.480588
N50	N	0.950415	0.233122	0.519612
H51	H	0.673844	0.458420	0.000068
H52	H	0.813733	0.442256	0.383129
H53	H	0.150032	0.493638	0.000105
N54	N	0.515074	0.461740	0.000105
N55	N	0.464713	0.485616	0.058653
H56	H	0.428908	0.564559	0.058675
N57	N	0.715742	0.019367	0.000076
N58	N	0.788816	0.028903	0.000071
H59	H	0.824630	-0.050028	0.000065
N60	N	0.940166	-0.126105	-0.153086
N61	N	0.882067	-0.048914	-0.147004
H62	H	0.857353	-0.018743	-0.198976
N63	N	0.340383	0.073905	0.000118
N64	N	0.311605	-0.033303	0.000118
H65	H	0.347396	-0.112259	0.000119
N66	N	0.174961	0.052356	0.000121
N67	N	0.219277	-0.045337	0.000127
H68	H	0.196044	-0.131976	0.000129
H69	H	0.842440	0.398419	0.775644
H70	H	0.556951	0.022687	0.000111
N71	N	1.044801	0.088724	0.784683
N72	N	1.093832	0.013670	0.745650
H73	H	1.130485	-0.042437	0.777165
H74	H	0.298520	0.512986	0.000084
H75	H	0.812311	-0.113678	-0.056760
H76	H	0.849907	0.386945	0.617080
N77	N	1.024373	0.119771	0.215480
N78	N	1.022127	0.002979	0.225256
H79	H	1.061700	-0.057733	0.193712
H80	H	0.821203	0.430799	0.224555
H81	H	0.803306	-0.325268	0.056314
H82	H	0.806696	-0.106338	0.057018
N83	N	0.800459	-0.340932	-0.071574
N84	N	0.834522	-0.419964	-0.123017
H85	H	0.806397	-0.451588	-0.173410
N86	N	0.922637	-0.337413	0.153817
N87	N	0.895431	-0.252337	0.205299
H88	H	0.865469	-0.275902	0.257816
N89	N	1.048183	-0.121946	0.083132
N90	N	1.088294	-0.155342	0.142281
H91	H	1.144897	-0.130411	0.144924
N92	N	1.043509	-0.357048	0.083993
N93	N	1.100284	-0.285606	0.087102
H94	H	1.155689	-0.323039	0.090310
N95	N	1.016083	0.132558	0.392156
N96	N	1.014800	0.014352	0.382372
H97	H	1.051449	-0.041782	0.413874
N98	N	0.927964	-0.101627	0.153411
N99	N	0.871266	-0.023481	0.147965
H100	H	0.842959	0.015793	0.200238
H101	H	0.948927	-0.354127	-0.138551
H102	H	1.038951	-0.139421	-0.084277
N103	N	1.053346	-0.368193	-0.079108
N104	N	1.095855	-0.342435	-0.019757
H105	H	1.151679	-0.379442	-0.020217
H106	H	1.041744	0.093400	0.617070
