data_functionalizedCrystal
_audit_creation_method	'MofGen! by Chris Wilmer'
_symmetry_space_group_name_H-M	'P1'
_symmetry_Int_Tables_number	1
_symmetry_cell_setting	triclinic
loop_
_symmetry_equiv_pos_as_xyz
  x,y,z
_cell_length_a	16.959455
_cell_length_b	12.645323
_cell_length_c	16.959454
_cell_angle_alpha	89.974464
_cell_angle_beta	90.017095
_cell_angle_gamma	89.972589
loop_
_atom_site_label
_atom_site_type_symbol
_atom_site_fract_x
_atom_site_fract_y
_atom_site_fract_z
Zn1	Zn	1.208439	-0.599575	-0.314738
Zn2	Zn	1.208345	-0.422313	-0.446928
Zn3	Zn	1.076251	-0.422305	-0.314760
Zn4	Zn	1.076232	-0.599514	-0.446872
O5	O	1.142317	-0.510927	-0.380824
O6	O	1.319037	-0.576090	-0.332288
O7	O	1.190791	-0.273965	-0.429428
O8	O	1.093833	-0.445842	-0.204146
O9	O	1.318968	-0.445857	-0.429407
O10	O	1.190951	-0.576082	-0.204130
O11	O	1.093742	-0.273959	-0.332325
O12	O	0.965638	-0.445783	-0.332271
O13	O	1.093801	-0.747870	-0.429311
O14	O	0.965624	-0.575978	-0.429333
O15	O	1.190932	-0.747915	-0.332233
O16	O	1.190773	-0.445797	-0.557531
O17	O	1.093710	-0.575986	-0.557490
C18	C	0.936950	-0.510874	-0.380799
C19	C	0.849094	-0.510876	-0.380807
C20	C	0.477572	-0.443080	-0.431344
C21	C	0.477665	-0.578903	-0.330370
C22	C	0.560211	-0.578877	-0.330357
C23	C	0.601441	-0.510953	-0.380839
C24	C	0.560125	-0.443054	-0.431335
C25	C	0.601532	-0.646783	-0.279869
C26	C	0.684083	-0.646760	-0.279854
C27	C	0.725315	-0.578830	-0.330333
C28	C	0.683994	-0.510927	-0.380830
C29	C	0.725225	-0.443003	-0.431312
C30	C	0.683905	-0.375094	-0.481805
C31	C	0.601357	-0.375123	-0.481813
C32	C	0.807864	-0.578800	-0.330324
C33	C	0.807778	-0.442977	-0.431302
C34	C	1.142375	-0.787432	-0.380763
C35	C	1.142400	-0.905263	-0.380737
C36	C	1.081106	-1.072798	-0.441521
C37	C	1.081266	-0.950238	-0.441822
C38	C	1.225684	-0.949791	-0.403348
C39	C	1.225348	-1.072389	-0.403729
C40	C	1.121197	-1.072459	-0.297003
C41	C	1.119338	-0.949853	-0.297505
C42	C	1.348485	-0.510981	-0.380851
C43	C	1.436341	-0.511004	-0.380862
C44	C	1.142250	-0.510909	-0.586191
C45	C	1.142294	-0.510937	-0.674047
C46	C	1.142304	-0.235497	-0.380828
C47	C	1.142432	-0.117668	-0.380632
C48	C	1.091849	-0.578709	-1.045531
C49	C	1.193004	-0.443253	-1.045514
C50	C	1.192977	-0.443243	-0.962968
C51	C	1.142384	-0.510966	-0.921700
C52	C	1.091818	-0.578699	-0.962978
C53	C	1.243535	-0.375504	-0.921685
C54	C	1.243509	-0.375491	-0.839134
C55	C	1.192919	-0.443220	-0.797864
C56	C	1.142353	-0.510956	-0.839147
C57	C	1.091760	-0.578679	-0.797878
C58	C	1.041197	-0.646422	-0.839160
C59	C	1.041229	-0.646428	-0.921708
C60	C	1.192887	-0.443214	-0.715316
C61	C	1.091729	-0.578669	-0.715325
C62	C	1.142405	-0.510968	-0.174656
C63	C	1.142442	-0.510986	-0.086800
H64	H	0.841342	-0.387660	-0.472408
C65	C	1.299124	-0.300967	-0.793732
N66	N	1.341013	-0.244833	-0.759535
C67	C	0.555900	-0.300436	-0.537355
N68	N	0.521658	-0.244186	-0.579191
C69	C	1.036081	-0.653184	-0.669936
N70	N	0.994169	-0.709313	-0.635750
H71	H	1.050684	-0.633866	-1.079146
C72	C	1.248645	-0.368751	-1.090912
N73	N	1.290556	-0.312633	-1.125109
H74	H	0.717718	-0.702055	-0.238739
C75	C	0.729269	-0.300378	-0.537332
N76	N	0.763441	-0.244101	-0.579153
C77	C	1.040575	-1.114189	-0.269165
N78	N	0.979847	-1.145619	-0.248207
C79	C	1.036554	-0.910489	-0.274449
N80	N	0.974207	-0.880818	-0.257080
C81	C	0.432309	-0.653600	-0.274831
N82	N	0.398143	-0.709855	-0.232990
H83	H	1.165864	-1.101479	-0.251638
C84	C	1.249659	-1.111045	-0.486320
N85	N	1.267968	-1.140156	-0.548531
H86	H	1.095284	-0.920925	-0.503820
C87	C	0.432121	-0.368384	-0.486884
N88	N	0.397886	-0.312123	-0.528718
H89	H	1.234051	-0.388054	-0.681708
H90	H	1.160743	-0.919237	-0.249740
H91	H	1.272591	-1.102074	-0.361305
H92	H	1.019507	-0.920130	-0.427673
H93	H	1.284719	-0.320360	-0.955291
C94	C	1.289072	-0.910434	-0.345334
N95	N	1.336815	-0.880786	-0.301638
H96	H	0.567957	-0.702090	-0.238774
C97	C	0.997421	-1.112597	-0.422586
N98	N	0.934388	-1.142580	-0.408323
C99	C	1.099866	-1.114418	-0.524757
N100	N	1.114002	-1.145761	-0.587451
C101	C	0.853311	-0.653496	-0.274786
N102	N	0.887541	-0.709759	-0.232950
H103	H	1.243993	-0.919104	-0.463841
H104	H	1.000000	-0.701558	-0.805549
C105	C	0.985605	-0.720926	-0.967123
N106	N	0.943706	-0.777032	-1.001333
