data_functionalizedCrystal
_audit_creation_method	'MofGen! by Chris Wilmer'
_symmetry_space_group_name_H-M	'P1'
_symmetry_Int_Tables_number	1
_symmetry_cell_setting	triclinic
loop_
_symmetry_equiv_pos_as_xyz
  x,y,z
_cell_length_a	10.654550
_cell_length_b	10.654551
_cell_length_c	9.130313
_cell_angle_alpha	89.998309
_cell_angle_beta	89.999724
_cell_angle_gamma	84.485146
loop_
_atom_site_label
_atom_site_type_symbol
_atom_site_fract_x
_atom_site_fract_y
_atom_site_fract_z
O1	O	1.667840	0.176399	-0.121680
O2	O	1.302362	0.193205	-0.121706
O3	O	1.493503	0.002063	-0.121693
O4	O	1.476699	0.367541	-0.121693
O5	O	1.493490	0.002057	0.121906
O6	O	1.302349	0.193199	0.121893
O7	O	1.667827	0.176393	0.121919
Cu8	Cu	1.485087	0.184796	0.144148
Cu9	Cu	1.485102	0.184802	-0.143935
O10	O	1.476685	0.367535	0.121906
C11	C	1.255557	0.191968	0.000090
C12	C	1.116114	0.188276	0.000080
C13	C	1.492262	-0.044738	0.000103
C14	C	1.488570	-0.184181	0.000093
C15	C	1.036629	0.300818	0.000084
C16	C	0.905608	0.297341	0.000110
C17	C	0.933570	0.068772	0.000120
C18	C	1.064588	0.072249	0.000105
C19	C	1.486845	-0.249690	-0.132690
C20	C	1.483365	-0.380711	-0.132684
C21	C	1.483340	-0.380702	0.132901
C22	C	1.486811	-0.249683	0.132893
C23	C	1.486865	-0.249697	-0.286024
C24	C	1.483384	-0.380717	-0.286018
C25	C	1.714631	0.177630	0.000120
C26	C	1.854075	0.181322	0.000120
C27	C	1.477926	0.414336	0.000107
C28	C	1.481619	0.553779	0.000107
N29	N	1.485085	0.184790	0.346771
N30	N	1.485114	0.184798	-0.346558
C31	C	1.569751	0.100188	0.423429
C32	C	1.569763	0.100189	0.576765
C33	C	1.400438	0.269404	0.576774
C34	C	1.400421	0.269396	0.423440
H35	H	0.840895	0.388984	0.000116
H36	H	1.331509	0.338290	0.639213
N37	N	1.661101	0.008956	0.659443
H38	H	1.645886	-0.080324	0.632768
H39	H	1.750306	0.024384	0.632696
N40	N	1.092206	0.425954	0.000055
H41	H	1.021966	0.496720	0.000063
H42	H	1.145967	0.432378	0.090351
N43	N	0.877996	-0.056366	0.000156
H44	H	0.782935	-0.041495	0.000165
H45	H	0.906994	-0.105671	-0.090146
H46	H	1.331470	0.338290	0.361021
N47	N	1.608183	-0.210505	-0.349050
H48	H	1.652818	-0.162574	-0.272662
H49	H	1.664161	-0.287992	-0.379506
N50	N	1.362049	-0.419896	-0.349020
H51	H	1.305985	-0.342461	-0.379475
H52	H	1.381560	-0.475697	-0.437123
H53	H	1.129309	-0.019401	0.000106
N54	N	1.481456	-0.451352	0.276129
H55	H	1.478996	-0.544294	0.255989
H56	H	1.559782	-0.437952	0.334113
N57	N	1.598349	-0.442059	-0.363971
H58	H	1.599245	-0.410587	-0.468277
H59	H	1.676886	-0.420084	-0.311749
N60	N	1.488656	-0.179022	0.276107
H61	H	1.487019	-0.240402	0.360231
H62	H	1.567816	-0.134167	0.281903
H63	H	1.400079	-0.203415	-0.344910
H64	H	1.638687	0.031295	0.361009
