data_functionalizedCrystal
_audit_creation_method	'MofGen! by Chris Wilmer'
_symmetry_space_group_name_H-M	'P1'
_symmetry_Int_Tables_number	1
_symmetry_cell_setting	triclinic
loop_
_symmetry_equiv_pos_as_xyz
  x,y,z
_cell_length_a	17.641079
_cell_length_b	13.897449
_cell_length_c	17.640618
_cell_angle_alpha	101.230265
_cell_angle_beta	87.818528
_cell_angle_gamma	101.177250
loop_
_atom_site_label
_atom_site_type_symbol
_atom_site_fract_x
_atom_site_fract_y
_atom_site_fract_z
Zn1	Zn	-0.215431	-1.648891	-0.490598
Zn2	Zn	-0.368056	-1.661413	-0.389301
Zn3	Zn	-0.241124	-1.462577	-0.363620
Zn4	Zn	-0.342349	-1.525181	-0.516243
O5	O	-0.291740	-1.574516	-0.439941
O6	O	-0.235683	-1.785539	-0.477176
O7	O	-0.372728	-1.614077	-0.279628
O8	O	-0.131478	-1.455852	-0.358983
O9	O	-0.347815	-1.794739	-0.402754
O10	O	-0.112602	-1.592736	-0.452273
O11	O	-0.279472	-1.467993	-0.260760
O12	O	-0.254546	-1.335895	-0.383850
O13	O	-0.304003	-1.562551	-0.619108
O14	O	-0.328916	-1.381890	-0.495982
O15	O	-0.210757	-1.653441	-0.600266
O16	O	-0.470883	-1.674782	-0.427621
O17	O	-0.451997	-1.574693	-0.520885
C18	C	-0.488983	-1.632919	-0.479839
C19	C	-0.573359	-1.657997	-0.496933
C20	C	-0.291730	-1.323892	-0.439913
C21	C	-0.291740	-1.216683	-0.439923
C22	C	-0.682385	-1.764544	-0.569621
C23	C	-0.603102	-1.740971	-0.553552
C24	C	-0.622892	-1.598560	-0.456363
C25	C	-0.702178	-1.622119	-0.472425
C26	C	-0.731918	-1.705112	-0.529055
C27	C	-0.751711	-1.562687	-0.431859
C28	C	-0.830990	-1.586247	-0.447918
C29	C	-0.860737	-1.669238	-0.504543
C30	C	-0.811197	-1.728672	-0.545114
C31	C	-0.721970	-1.479698	-0.375227
C32	C	-0.771503	-1.420266	-0.334661
C33	C	-0.850783	-1.443822	-0.350723
C34	C	-0.880529	-1.526813	-0.407348
C35	C	-0.900322	-1.384388	-0.310153
C36	C	-0.979601	-1.407948	-0.326212
C37	C	-0.959809	-1.550373	-0.423407
C38	C	-0.291736	-1.020390	-0.439937
C39	C	-0.291736	-1.129620	-0.439926
C40	C	-0.093724	-1.515914	-0.399903
C41	C	-0.009341	-1.490941	-0.382841
C42	C	-0.251646	-1.613583	-0.638011
C43	C	-0.234561	-1.630231	-0.722417
C44	C	-0.291747	-0.826115	-0.439961
C45	C	-0.291741	-0.933324	-0.439948
C46	C	-0.161935	-1.701011	-0.831575
C47	C	-0.177995	-1.685363	-0.752265
C48	C	-0.275086	-1.590721	-0.771875
C49	C	-0.259031	-1.606357	-0.851189
C50	C	-0.202455	-1.661504	-0.881032
C51	C	-0.299551	-1.566850	-0.900646
C52	C	-0.283500	-1.582490	-0.979953
C53	C	-0.226929	-1.637637	-1.009803
C54	C	-0.186404	-1.677144	-0.960340
C55	C	-0.356130	-1.511709	-0.870801
C56	C	-0.396651	-1.472202	-0.920258
C57	C	-0.380596	-1.487835	-0.999566
C58	C	-0.324025	-1.542983	-1.029416
C59	C	-0.421121	-1.448328	-1.049030
C60	C	-0.405070	-1.463968	-1.128337
C61	C	-0.307974	-1.558622	-1.108724
C62	C	-0.331623	-1.535640	-0.242629
C63	C	-0.348494	-1.519115	-0.158181
H64	H	-0.984021	-1.617938	-0.469535
H65	H	-0.598669	-1.530989	-0.410253
H66	H	-0.321152	-1.545823	-0.747565
H67	H	-0.562775	-1.789375	-0.586590
H68	H	-0.369201	-1.498982	-0.806224
H69	H	-0.657416	-1.460522	-0.362150
C70	C	-0.209269	-1.654846	-1.097039
H71	H	-0.169777	-1.693354	-1.107729
H72	H	-0.192506	-1.592253	-1.112321
H73	H	-0.254633	-1.689570	-1.124886
C74	C	-0.715105	-1.855836	-0.631912
H75	H	-0.674252	-1.887864	-0.653772
H76	H	-0.739356	-1.834622	-0.671237
H77	H	-0.751887	-1.901355	-0.609144
H78	H	-0.747279	-1.352695	-0.288551
C79	C	-0.458902	-1.411578	-0.887433
H80	H	-0.480745	-1.390304	-0.928251
H81	H	-0.436144	-1.354850	-0.850608
H82	H	-0.498239	-1.452199	-0.863202
C83	C	-0.449639	-1.420509	-1.182742
H84	H	-0.485626	-1.385418	-1.153609
H85	H	-0.476457	-1.473298	-1.220372
H86	H	-0.414327	-1.375984	-1.207800
H87	H	-0.115857	-1.745903	-0.855874
H88	H	-0.876098	-1.316820	-0.264040
H89	H	-0.467190	-1.403436	-1.024719
H90	H	-0.261896	-1.603515	-1.133022
C91	C	-0.947941	-1.695159	-0.522214
H92	H	-0.958558	-1.753102	-0.561746
H93	H	-0.963263	-1.640823	-0.538942
H94	H	-0.975801	-1.707564	-0.476854
H95	H	-0.835410	-1.796238	-0.591242
C96	C	-1.034089	-1.342571	-0.281596
H97	H	-1.005022	-1.289762	-0.245576
H98	H	-1.071698	-1.382165	-0.254797
H99	H	-1.059154	-1.315434	-0.316892
C100	C	-0.124170	-1.737802	-0.993173
H101	H	-0.102336	-1.759097	-0.952361
H102	H	-0.084832	-1.697216	-1.017422
H103	H	-0.146960	-1.794532	-1.029986
C104	C	-0.133410	-1.728811	-0.697862
H105	H	-0.097413	-1.763884	-0.726996
H106	H	-0.168710	-1.773332	-0.672795
H107	H	-0.106588	-1.676009	-0.660236
