data_functionalizedCrystal
_audit_creation_method	'MofGen! by Chris Wilmer'
_symmetry_space_group_name_H-M	'P1'
_symmetry_Int_Tables_number	1
_symmetry_cell_setting	triclinic
loop_
_symmetry_equiv_pos_as_xyz
  x,y,z
_cell_length_a	16.992694
_cell_length_b	10.654551
_cell_length_c	16.053942
_cell_angle_alpha	87.402692
_cell_angle_beta	92.746294
_cell_angle_gamma	87.576826
loop_
_atom_site_label
_atom_site_type_symbol
_atom_site_fract_x
_atom_site_fract_y
_atom_site_fract_z
O1	O	1.038573	0.271380	-0.069319
O2	O	1.538573	0.771380	0.430681
O3	O	0.810271	0.268458	-0.069343
O4	O	1.310271	0.768458	0.430657
O5	O	0.929671	0.087633	-0.069328
O6	O	1.429671	0.587633	0.430672
O7	O	0.919173	0.452205	-0.069333
O8	O	1.419173	0.952205	0.430667
O9	O	0.936206	0.077714	0.069528
O10	O	1.436206	0.577714	0.569528
O11	O	0.816806	0.258540	0.069514
O12	O	1.316806	0.758540	0.569514
O13	O	1.045108	0.261461	0.069538
O14	O	1.545108	0.761461	0.569538
Zn15	Zn	0.931995	0.258425	0.091573
Zn16	Zn	1.431995	0.758425	0.591573
Zn17	Zn	0.923384	0.271494	-0.091377
Zn18	Zn	1.423384	0.771494	0.408623
O19	O	0.925709	0.442286	0.069524
O20	O	1.425709	0.942286	0.569524
C21	C	0.784305	0.259739	0.000082
C22	C	1.284305	0.759739	0.500082
C23	C	0.697200	0.248520	0.000073
C24	C	1.197200	0.748520	0.500073
C25	C	0.647548	0.356771	0.000072
C26	C	1.147548	0.856771	0.500072
C27	C	0.565705	0.346221	0.000084
C28	C	1.065705	0.846221	0.500084
C29	C	0.533514	0.227420	0.000090
C30	C	1.033514	0.727420	0.500090
C31	C	0.583172	0.119161	0.000093
C32	C	1.083172	0.619161	0.500093
C33	C	0.665014	0.129711	0.000088
C34	C	1.165014	0.629711	0.500088
C35	C	0.289680	0.183691	0.000113
C36	C	0.789680	0.683691	0.500113
C37	C	0.207831	0.173148	0.000116
C38	C	0.707831	0.673148	0.500116
C39	C	0.190369	0.400210	0.000108
C40	C	0.690369	0.900210	0.500108
C41	C	0.272213	0.410751	0.000097
C42	C	0.772213	0.910751	0.500097
C43	C	0.321864	0.302491	0.000105
C44	C	0.821864	0.802491	0.500105
N45	N	0.449857	0.216633	0.000099
N46	N	0.949857	0.716633	0.500099
N47	N	0.405520	0.313279	0.000102
N48	N	0.905520	0.813279	0.500102
C49	C	0.932167	0.035809	0.000099
C50	C	1.432167	0.535809	0.500099
C51	C	0.929861	-0.103833	0.000094
C52	C	1.429861	0.396167	0.500094
C53	C	0.925216	-0.164023	-0.075597
C54	C	1.425216	0.335977	0.424403
C55	C	0.923042	-0.295232	-0.075598
C56	C	1.423042	0.204768	0.424402
C57	C	0.930161	-0.306048	0.075791
C58	C	1.430161	0.193952	0.575791
C59	C	0.932330	-0.174841	0.075791
C60	C	1.432330	0.325159	0.575791
C61	C	0.869918	-0.463029	-0.166542
C62	C	1.369918	0.036971	0.333458
C63	C	0.865287	-0.523225	-0.242238
C64	C	1.365287	-0.023225	0.257762
C65	C	0.908737	-0.480884	-0.309061
C66	C	1.408737	0.019116	0.190939
C67	C	0.956838	-0.378352	-0.300193
C68	C	1.456838	0.121648	0.199807
C69	C	0.961477	-0.318163	-0.224495
C70	C	1.461477	0.181837	0.275505
C71	C	0.918008	-0.360499	-0.157675
C72	C	1.418008	0.139501	0.342325
C73	C	0.985460	-0.007043	0.166729
C74	C	1.485460	0.492957	0.666729
C75	C	0.990104	0.053148	0.242427
C76	C	1.490104	0.553148	0.742427
C77	C	0.946658	0.010809	0.309258
C78	C	1.446658	0.510809	0.809258
C79	C	0.898569	-0.091730	0.300398
C80	C	1.398569	0.408270	0.800398
C81	C	0.893925	-0.151920	0.224700
C82	C	1.393925	0.348080	0.724700
C83	C	0.937369	-0.109572	0.157868
C84	C	1.437369	0.390428	0.657868
C85	C	1.071074	0.270180	0.000111
C86	C	1.571074	0.770180	0.500111
C87	C	1.158179	0.281399	0.000115
C88	C	1.658179	0.781399	0.500115
C89	C	0.923212	0.494110	0.000095
C90	C	1.423212	0.994110	0.500095
C91	C	0.925518	0.633752	0.000093
C92	C	1.425518	1.133752	0.500093
N93	N	0.937877	0.249506	0.216431
N94	N	1.437877	0.749506	0.716431
N95	N	0.917509	0.280404	-0.216236
N96	N	1.417509	0.780404	0.283764
C97	C	0.968323	0.203494	0.740055
C98	C	1.468323	0.703494	1.240055
C99	C	0.964190	0.209747	0.652649
C100	C	1.464190	0.709747	1.152649
C101	C	0.909238	0.292904	0.608955
C102	C	1.409238	0.792904	1.108955
C103	C	0.858421	0.369822	0.652670
C104	C	1.358421	0.869822	1.152670
C105	C	0.862559	0.363574	0.740074
C106	C	1.362559	0.863574	1.240074
C107	C	0.891197	0.320177	0.347551
C108	C	1.391197	0.820177	0.847551
C109	C	0.887062	0.326416	0.260141
C110	C	1.387062	0.826416	0.760141
C111	C	0.992833	0.166342	0.260125
C112	C	1.492833	0.666342	0.760125
C113	C	0.996962	0.160096	0.347531
C114	C	1.496962	0.660096	0.847531
C115	C	0.946148	0.237019	0.391239
C116	C	1.446148	0.737019	0.891239
N117	N	0.905011	0.299295	0.519612
N118	N	1.405011	0.799295	1.019612
N119	N	0.950380	0.230634	0.480580
N120	N	1.450380	0.730634	0.980580
H121	H	0.149935	0.488348	0.000103
H122	H	0.649935	0.988348	0.500103
Cl123	Cl	0.688007	0.506130	0.000058
Cl124	Cl	1.188007	1.006130	0.500058
H125	H	0.525281	0.434371	0.000082
H126	H	1.025281	0.934371	0.500082
H127	H	0.298416	0.507492	0.000082
H128	H	0.798416	1.007492	0.500082
Cl129	Cl	0.798677	0.460270	0.795023
Cl130	Cl	1.298677	0.960270	1.295023
Cl131	Cl	0.902923	-0.556576	-0.404216
Cl132	Cl	1.402923	-0.056576	0.095784
Cl133	Cl	0.167365	0.023785	0.000143
Cl134	Cl	0.667365	0.523785	0.500143
Cl135	Cl	0.352087	0.047592	0.000122
Cl136	Cl	0.852087	0.547592	0.500122
Cl137	Cl	0.542704	-0.030191	0.000107
Cl138	Cl	1.042704	0.469809	0.500107
Cl139	Cl	0.727434	-0.006382	0.000092
Cl140	Cl	1.227434	0.493618	0.500092
H141	H	0.950451	0.059820	0.370898
H142	H	1.450451	0.559820	0.870898
Cl143	Cl	1.021941	-0.189274	-0.213342
Cl144	Cl	1.521941	0.310726	0.286658
Cl145	Cl	1.028074	0.113061	0.597699
Cl146	Cl	1.528074	0.613061	1.097699
Cl147	Cl	0.827315	0.416871	0.402492
Cl148	Cl	1.327315	0.916871	0.902492
H149	H	0.923203	-0.106212	-0.137235
H150	H	1.423203	0.393788	0.362765
H151	H	0.813681	0.437537	0.617089
H152	H	1.313681	0.937537	1.117089
H153	H	0.992225	-0.343895	-0.354607
H154	H	1.492225	0.156105	0.145393
Cl155	Cl	0.804816	-0.652115	-0.253387
Cl156	Cl	1.304816	-0.152115	0.246613
H157	H	0.834526	-0.497502	-0.112137
H158	H	1.334526	0.002498	0.387863
Cl159	Cl	0.843954	-0.144969	0.384417
Cl160	Cl	1.343954	0.355031	0.884417
Cl161	Cl	0.817971	0.430964	0.205216
Cl162	Cl	1.317971	0.930964	0.705216
H163	H	1.020832	0.027451	0.112309
H164	H	1.520832	0.527451	0.612309
H165	H	1.041708	0.092384	0.383105
H166	H	1.541708	0.592384	0.883105
H167	H	0.932173	-0.363879	0.137421
H168	H	1.432173	0.136121	0.637421
Cl169	Cl	1.050569	0.182044	0.253570
Cl170	Cl	1.550569	0.682044	0.753570
Cl171	Cl	1.037406	0.098942	0.794976
Cl172	Cl	1.537406	0.598942	1.294976
Cl173	Cl	0.833471	-0.280832	0.213561
Cl174	Cl	1.333471	0.219168	0.713561
Cl175	Cl	1.056713	0.069650	0.205175
Cl176	Cl	1.556713	0.569650	0.705175
