data_functionalizedCrystal
_audit_creation_method	'MofGen! by Chris Wilmer'
_symmetry_space_group_name_H-M	'P1'
_symmetry_Int_Tables_number	1
_symmetry_cell_setting	triclinic
loop_
_symmetry_equiv_pos_as_xyz
  x,y,z
_cell_length_a	14.044220
_cell_length_b	13.101039
_cell_length_c	14.044220
_cell_angle_alpha	86.332523
_cell_angle_beta	93.188878
_cell_angle_gamma	93.659868
loop_
_atom_site_label
_atom_site_type_symbol
_atom_site_fract_x
_atom_site_fract_y
_atom_site_fract_z
O1	O	1.281968	0.085109	0.225348
O2	O	1.531968	0.335109	0.475348
O3	O	1.781968	0.585109	0.725348
O4	O	2.031968	0.835109	0.975348
O5	O	1.005298	0.085135	0.217041
O6	O	1.255298	0.335135	0.467041
O7	O	1.505298	0.585135	0.717041
O8	O	1.755298	0.835135	0.967041
O9	O	1.139480	0.085112	0.082860
O10	O	1.389480	0.335112	0.332860
O11	O	1.639480	0.585112	0.582860
O12	O	1.889480	0.835112	0.832860
O13	O	1.147787	0.085132	0.359530
O14	O	1.397787	0.335132	0.609530
O15	O	1.647787	0.585132	0.859530
O16	O	1.897787	0.835132	1.109530
O17	O	1.129854	-0.085316	0.092504
O18	O	1.379854	0.164684	0.342504
O19	O	1.629854	0.414684	0.592504
O20	O	1.879854	0.664684	0.842504
O21	O	0.995673	-0.085293	0.226686
O22	O	1.245673	0.164707	0.476686
O23	O	1.495673	0.414707	0.726686
O24	O	1.745673	0.664707	0.976686
O25	O	1.272343	-0.085319	0.234993
O26	O	1.522343	0.164681	0.484993
O27	O	1.772343	0.414681	0.734993
O28	O	2.022343	0.664681	0.984993
Zn29	Zn	1.132479	-0.112365	0.232371
Zn30	Zn	1.382479	0.137635	0.482371
Zn31	Zn	1.632479	0.387635	0.732371
Zn32	Zn	1.882479	0.637635	0.982371
Zn33	Zn	1.145162	0.112181	0.219663
Zn34	Zn	1.395162	0.362181	0.469663
Zn35	Zn	1.645162	0.612181	0.719663
Zn36	Zn	1.895162	0.862181	0.969663
O37	O	1.138161	-0.085296	0.369175
O38	O	1.388161	0.164704	0.619175
O39	O	1.638161	0.414704	0.869175
O40	O	1.888161	0.664704	1.119175
C41	C	0.964864	-0.000076	0.218228
C42	C	1.214864	0.249924	0.468228
C43	C	1.464864	0.499924	0.718228
C44	C	1.714864	0.749924	0.968228
C45	C	0.858722	-0.000066	0.207383
C46	C	1.108722	0.249934	0.457383
C47	C	1.358722	0.499934	0.707383
C48	C	1.608722	0.749934	0.957383
N49	N	1.123831	-0.265612	0.241043
N50	N	1.373831	-0.015612	0.491043
N51	N	1.623831	0.234388	0.741043
N52	N	1.873831	0.484388	0.991043
C53	C	0.664383	-0.000088	0.187558
C54	C	0.914383	0.249912	0.437558
C55	C	1.164383	0.499912	0.687558
C56	C	1.414383	0.749912	0.937558
C57	C	0.613253	-0.000087	0.264472
C58	C	0.863253	0.249913	0.514472
C59	C	1.113253	0.499913	0.764472
C60	C	1.363253	0.749913	1.014472
C61	C	0.505116	-0.000099	0.253441
C62	C	0.755116	0.249901	0.503441
C63	C	1.005116	0.499901	0.753441
C64	C	1.255116	0.749901	1.003441
C65	C	0.772529	-0.000076	0.198587
C66	C	1.022529	0.249924	0.448587
C67	C	1.272529	0.499924	0.698587
C68	C	1.522529	0.749924	0.948587
C69	C	1.112065	-0.474653	0.252851
C70	C	1.362065	-0.224653	0.502851
C71	C	1.612065	0.025347	0.752851
C72	C	1.862065	0.275347	1.002851
C73	C	1.165580	-0.525538	0.199179
C74	C	1.415580	-0.275538	0.449179
C75	C	1.665580	-0.025538	0.699179
C76	C	1.915580	0.224462	0.949179
C77	C	1.159034	-0.641855	0.205749
C78	C	1.409034	-0.391855	0.455749
C79	C	1.659034	-0.141855	0.705749
C80	C	1.909034	0.108145	0.955749
C81	C	1.118610	-0.358325	0.246282
C82	C	1.368610	-0.108325	0.496282
C83	C	1.618610	0.141675	0.746282
C84	C	1.868610	0.391675	0.996282
C85	C	1.312777	-0.000106	0.233806
C86	C	1.562777	0.249894	0.483806
C87	C	1.812777	0.499894	0.733806
C88	C	2.062777	0.749894	0.983806
C89	C	1.418920	-0.000109	0.244651
C90	C	1.668920	0.249891	0.494651
C91	C	1.918920	0.499891	0.744651
C92	C	2.168920	0.749891	0.994651
C93	C	1.131031	-0.000102	0.052060
C94	C	1.381031	0.249898	0.302060
C95	C	1.631031	0.499898	0.552060
C96	C	1.881031	0.749898	0.802060
C97	C	1.120187	-0.000102	-0.054083
C98	C	1.370187	0.249898	0.195917
C99	C	1.620187	0.499898	0.445917
C100	C	1.870187	0.749898	0.695917
N101	N	1.153817	0.265428	0.210984
N102	N	1.403817	0.515428	0.460984
N103	N	1.653817	0.765428	0.710984
N104	N	1.903817	1.015428	0.960984
C105	C	1.100362	-0.000086	-0.248421
C106	C	1.350362	0.249914	0.001579
C107	C	1.600362	0.499914	0.251579
C108	C	1.850362	0.749914	0.501579
C109	C	1.177276	-0.000090	-0.299551
C110	C	1.427276	0.249910	-0.049551
C111	C	1.677276	0.499910	0.200449
C112	C	1.927276	0.749910	0.450449
C113	C	1.166245	-0.000080	-0.407688
C114	C	1.416245	0.249920	-0.157688
C115	C	1.666245	0.499920	0.092312
C116	C	1.916245	0.749920	0.342312
C117	C	1.111391	-0.000095	-0.140275
C118	C	1.361391	0.249905	0.109725
C119	C	1.611391	0.499905	0.359725
C120	C	1.861391	0.749905	0.609725
C121	C	1.146610	-0.000080	0.399974
C122	C	1.396610	0.249920	0.649974
C123	C	1.646610	0.499920	0.899974
C124	C	1.896610	0.749920	1.149974
C125	C	1.157455	-0.000073	0.506116
C126	C	1.407455	0.249927	0.756116
C127	C	1.657455	0.499927	1.006116
C128	C	1.907455	0.749927	1.256116
H129	H	0.650693	-0.000077	0.338605
H130	H	0.900693	0.249923	0.588605
H131	H	1.150693	0.499923	0.838605
H132	H	1.400693	0.749923	1.088605
H133	H	1.026235	-0.000076	-0.285859
H134	H	1.276235	0.249924	-0.035859
H135	H	1.526235	0.499924	0.214141
H136	H	1.776235	0.749924	0.464141
H137	H	0.626945	-0.000099	0.113431
H138	H	0.876945	0.249901	0.363431
H139	H	1.126945	0.499901	0.613431
H140	H	1.376945	0.749901	0.863431
H141	H	1.216314	-0.481744	0.148295
H142	H	1.466314	-0.231744	0.398295
H143	H	1.716314	0.018256	0.648295
H144	H	1.966314	0.268256	0.898295
Cl145	Cl	1.033744	-0.542261	0.331413
Cl146	Cl	1.283744	-0.292261	0.581413
Cl147	Cl	1.533744	-0.042261	0.831413
Cl148	Cl	1.783744	0.207739	1.081413
Cl149	Cl	1.291732	-0.000111	-0.241751
Cl150	Cl	1.541732	0.249889	0.008249
Cl151	Cl	1.791732	0.499889	0.258249
Cl152	Cl	2.041732	0.749889	0.508249
