data_functionalizedCrystal
_audit_creation_method	'MofGen! by Chris Wilmer'
_symmetry_space_group_name_H-M	'P1'
_symmetry_Int_Tables_number	1
_symmetry_cell_setting	triclinic
loop_
_symmetry_equiv_pos_as_xyz
  x,y,z
_cell_length_a	29.839131
_cell_length_b	12.759401
_cell_length_c	12.759393
_cell_angle_alpha	89.979434
_cell_angle_beta	90.036816
_cell_angle_gamma	89.960371
loop_
_atom_site_label
_atom_site_type_symbol
_atom_site_fract_x
_atom_site_fract_y
_atom_site_fract_z
Zn1	Zn	-0.178853	-1.606071	0.593963
Zn2	Zn	-0.253990	-1.605880	0.418264
Zn3	Zn	-0.178873	-1.430370	0.418300
Zn4	Zn	-0.253954	-1.430280	0.593903
O5	O	-0.216418	-1.518150	0.506107
O6	O	-0.188827	-1.753067	0.570667
O7	O	-0.244049	-1.582556	0.271248
O8	O	-0.116003	-1.453795	0.441642
O9	O	-0.244030	-1.752927	0.441582
O10	O	-0.115989	-1.582882	0.570702
O11	O	-0.188860	-1.453610	0.271274
O12	O	-0.188826	-1.283337	0.441583
O13	O	-0.243969	-1.453641	0.740932
O14	O	-0.243988	-1.283271	0.570598
O15	O	-0.188792	-1.582794	0.740976
O16	O	-0.316853	-1.582469	0.441523
O17	O	-0.316826	-1.453456	0.570563
C18	C	-0.216405	-1.245183	0.506088
C19	C	-0.216411	-1.128406	0.506105
C20	C	-0.187718	-1.073618	0.573423
C21	C	-0.187721	-0.963894	0.573428
C22	C	-0.245113	-0.963756	0.438795
C23	C	-0.245108	-1.073478	0.438785
C24	C	-0.134764	-0.814032	0.611208
C25	C	-0.106075	-0.759240	0.678542
C26	C	-0.099229	-0.794906	0.781083
C27	C	-0.121078	-0.885362	0.816310
C28	C	-0.149770	-0.940149	0.748982
C29	C	-0.156608	-0.904485	0.646426
C30	C	-0.298065	-1.223342	0.401016
C31	C	-0.326760	-1.278131	0.333693
C32	C	-0.333611	-1.242467	0.231150
C33	C	-0.311770	-1.152007	0.195926
C34	C	-0.283075	-1.097218	0.263250
C35	C	-0.276223	-1.132890	0.365791
C36	C	-0.333140	-1.517961	0.506055
C37	C	-0.383075	-1.517976	0.506068
C38	C	-0.692719	-1.585450	0.439014
C39	C	-0.880392	-1.585579	0.439055
O40	O	-0.904658	-1.642798	0.382003
N41	N	-0.903860	-1.518368	0.506187
C42	C	-0.880406	-1.451125	0.573318
O43	O	-0.904673	-1.393968	0.630426
C44	C	-0.692734	-1.451001	0.573282
C45	C	-0.669269	-1.518209	0.506138
C46	C	-0.669254	-1.652653	0.371877
C47	C	-0.622338	-1.652616	0.371863
C48	C	-0.598888	-1.585375	0.438987
C49	C	-0.622353	-1.518172	0.506124
C50	C	-0.669281	-1.383764	0.640417
C51	C	-0.622360	-1.383741	0.640404
C52	C	-0.598895	-1.450949	0.573261
C53	C	-0.551988	-1.450895	0.573235
N54	N	-0.528520	-1.518106	0.506103
C55	C	-0.551970	-1.585346	0.438979
C56	C	-0.978937	-1.451193	0.573331
C57	C	-1.025855	-1.451222	0.573339
C58	C	-1.025837	-1.585678	0.439077
C59	C	-0.978919	-1.585643	0.439064
C60	C	-0.955469	-1.518404	0.506199
C61	C	-0.453444	-1.585262	0.438955
C62	C	-0.406525	-1.585216	0.438944
C63	C	-0.406546	-1.450764	0.573210
C64	C	-0.453462	-1.450806	0.573217
C65	C	-0.476910	-1.518064	0.506086
O66	O	-0.527693	-1.393715	0.630265
O67	O	-0.527695	-1.642510	0.381896
C68	C	-0.739634	-1.585487	0.439028
C69	C	-0.763100	-1.518283	0.506165
C70	C	-0.739649	-1.451043	0.573289
C71	C	-0.810017	-1.518313	0.506173
C72	C	-0.833468	-1.585553	0.439049
C73	C	-0.810000	-1.652764	0.371917
C74	C	-0.763085	-1.652727	0.371904
C75	C	-0.763117	-1.383832	0.640421
C76	C	-0.810032	-1.383874	0.640428
C77	C	-0.833483	-1.451114	0.573304
C78	C	-0.099239	-1.518369	0.506183
C79	C	-0.049305	-1.518463	0.506215
C80	C	-0.216374	-1.518229	0.780141
C81	C	-0.216356	-1.518263	0.896918
C82	C	-0.216426	-0.792184	0.506123
C83	C	-0.216419	-0.908960	0.506120
C84	C	-0.216428	-1.518133	0.233140
C85	C	-0.216320	-1.518303	0.116364
C86	C	-0.187621	-1.585518	0.951805
C87	C	-0.187602	-1.585535	1.061529
C88	C	-0.245056	-1.451040	1.061469
C89	C	-0.245073	-1.451018	0.951747
C90	C	-0.134598	-1.623205	1.211520
C91	C	-0.105867	-1.690477	1.266411
C92	C	-0.098980	-1.792997	1.230821
C93	C	-0.120832	-1.828267	1.140342
C94	C	-0.149566	-1.761001	1.085456
C95	C	-0.156444	-1.658466	1.121045
C96	C	-0.298077	-1.413359	0.801754
C97	C	-0.326814	-1.346098	0.746867
C98	C	-0.333705	-1.243575	0.782455
C99	C	-0.311862	-1.208310	0.872937
C100	C	-0.283125	-1.275571	0.927825
C101	C	-0.276233	-1.378092	0.892229
H102	H	-0.075869	-0.750287	0.835906
N103	N	-0.082292	-1.652431	1.363983
H104	H	-0.063047	-1.710604	1.393354
H105	H	-0.105287	-1.630854	1.417882
H106	H	-0.167359	-1.789718	1.011793
H107	H	-0.744027	-1.329078	0.695083
N108	N	-0.478725	-1.657796	0.366535
H109	H	-0.498224	-1.615137	0.317813
H110	H	-0.498132	-1.706475	0.409336
H111	H	-0.829134	-1.329136	0.695104
N112	N	-0.597034	-1.725123	0.299461
H113	H	-0.577599	-1.682458	0.250719
H114	H	-0.619044	-1.767708	0.257023
H115	H	-0.387421	-1.639945	0.384264
N116	N	-0.259559	-1.237549	1.025415
H117	H	-0.282529	-1.216009	1.079388
H118	H	-0.240045	-1.175475	1.007373
H119	H	-0.088286	-0.685590	0.649850
H120	H	-0.829101	-1.707511	0.317260
H121	H	-0.292485	-1.252395	0.484513
N122	N	-0.142140	-0.775578	0.500598
H123	H	-0.123948	-0.709961	0.488507
H124	H	-0.174977	-0.759571	0.489875
H125	H	-0.164237	-1.640270	0.907166
N126	N	-0.597070	-1.311204	0.712805
H127	H	-0.563787	-1.321373	0.702614
H128	H	-0.605240	-1.327523	0.787856
N129	N	-0.319286	-1.097725	0.911317
H130	H	-0.301087	-1.085590	0.976964
H131	H	-0.352126	-1.087093	0.927249
N132	N	-0.737782	-1.725229	0.299492
H133	H	-0.718283	-1.773882	0.342227
H134	H	-0.718375	-1.682481	0.250767
H135	H	-0.357110	-1.188816	0.737761
H136	H	-0.268438	-1.396294	1.106125
N137	N	-0.350380	-1.384134	0.649281
H138	H	-0.341653	-1.459287	0.635058
H139	H	-0.341388	-1.338940	0.587802
H140	H	-0.140199	-1.539723	1.240501
H141	H	-0.292466	-1.496839	0.772763
N142	N	-0.694545	-1.725176	0.299472
H143	H	-0.686341	-1.800229	0.315848
H144	H	-0.686395	-1.708793	0.224423
H145	H	-0.959816	-1.640370	0.384391
H146	H	-0.164349	-1.118337	0.628236
N147	N	-0.068000	-1.865552	1.290047
H148	H	-0.085268	-1.929068	1.314484
H149	H	-0.055219	-1.827560	1.352718
N150	N	-0.259516	-0.999648	0.225264
H151	H	-0.268210	-0.985364	0.150087
H152	H	-0.226025	-1.010161	0.229966
H153	H	-0.317350	-1.122964	0.112429
N154	N	-0.364566	-1.301551	0.158537
H155	H	-0.377367	-1.364264	0.196409
H156	H	-0.347250	-1.325910	0.095062
N157	N	-0.113408	-1.938849	1.101960
H158	H	-0.091888	-1.976109	1.150456
H159	H	-0.100454	-1.936894	1.028877
H160	H	-0.115505	-0.914388	0.899814
N161	N	-0.173339	-1.037701	0.786964
H162	H	-0.164651	-1.051981	0.862146
H163	H	-0.164308	-1.099174	0.741808
H164	H	-0.268478	-0.919021	0.383987
H165	H	-0.344538	-1.351798	0.362375
H166	H	-1.044938	-1.640429	0.384422
H167	H	-0.959847	-1.396436	0.628001
N168	N	-1.051161	-1.378717	0.645739
H169	H	-1.029182	-1.336120	0.688257
H170	H	-1.070595	-1.421463	0.694406
N171	N	-0.694583	-1.311269	0.712832
H172	H	-0.672601	-1.268678	0.755349
H173	H	-0.714015	-1.354019	0.761499
H174	H	-0.472568	-1.396083	0.627894
H175	H	-0.387446	-1.396015	0.627858
