data_functionalizedCrystal
_audit_creation_method	'MofGen! by Chris Wilmer'
_symmetry_space_group_name_H-M	'P1'
_symmetry_Int_Tables_number	1
_symmetry_cell_setting	triclinic
loop_
_symmetry_equiv_pos_as_xyz
  x,y,z
_cell_length_a	27.732048
_cell_length_b	16.776229
_cell_length_c	17.699083
_cell_angle_alpha	89.999799
_cell_angle_beta	82.962834
_cell_angle_gamma	89.998347
loop_
_atom_site_label
_atom_site_type_symbol
_atom_site_fract_x
_atom_site_fract_y
_atom_site_fract_z
O1	O	0.641253	-0.066175	0.090059
O2	O	0.500508	-0.066198	0.103753
O3	O	0.574857	-0.066193	-0.013318
O4	O	0.566904	-0.066179	0.207130
O5	O	0.574847	0.066383	-0.013325
O6	O	0.500499	0.066379	0.103746
O7	O	0.641243	0.066401	0.090052
Zn8	Zn	0.570869	0.087440	0.096898
Zn9	Zn	0.570882	-0.087236	0.096907
O10	O	0.566894	0.066397	0.207123
C11	C	0.482496	0.000088	0.103462
C12	C	0.428838	0.000078	0.102596
N13	N	0.570864	0.206651	0.096891
N14	N	0.570891	-0.206447	0.096908
C15	C	0.090252	0.000117	0.166329
C16	C	-0.111419	0.000124	0.163117
O17	O	-0.142466	0.000162	0.221396
N18	N	-0.130793	0.000118	0.093699
C19	C	-0.099745	0.000116	0.025079
O20	O	-0.120851	0.000119	-0.034039
C21	C	0.101925	0.000114	0.028291
C22	C	0.121296	0.000112	0.097714
C23	C	0.109623	0.000116	0.235746
C24	C	0.160037	0.000110	0.236548
C25	C	0.191081	0.000105	0.167933
C26	C	0.171710	0.000106	0.098516
C27	C	0.132972	0.000118	-0.040329
C28	C	0.183392	0.000119	-0.039519
C29	C	0.202763	0.000117	0.029903
C30	C	0.253169	0.000095	0.030703
N31	N	0.272543	0.000101	0.100121
C32	C	0.241499	0.000106	0.168736
C33	C	-0.205625	0.000115	0.023397
C34	C	-0.256042	0.000114	0.022594
C35	C	-0.267713	0.000124	0.160633
C36	C	-0.217295	0.000119	0.161435
C37	C	-0.186252	0.000121	0.092815
C38	C	0.347374	0.000093	0.170415
C39	C	0.397794	0.000083	0.171211
C40	C	0.409460	0.000078	0.033173
C41	C	0.359045	0.000083	0.032376
C42	C	0.328002	0.000093	0.101004
O43	O	0.284244	0.000066	-0.027545
O44	O	0.262614	0.000121	0.227845
C45	C	0.039837	0.000123	0.165526
C46	C	0.020466	0.000124	0.096109
C47	C	0.051510	0.000120	0.027494
C48	C	-0.029951	0.000123	0.095306
C49	C	-0.060995	0.000128	0.163921
C50	C	-0.041622	0.000134	0.233339
C51	C	0.008793	0.000128	0.234141
C52	C	0.032137	0.000114	-0.041924
C53	C	-0.018279	0.000119	-0.042720
C54	C	-0.049323	0.000124	0.025895
C55	C	0.659256	0.000115	0.090343
C56	C	0.712914	0.000118	0.091209
C57	C	0.603795	0.248370	0.045073
C58	C	0.603798	0.331822	0.045072
C59	C	0.570871	0.373554	0.096894
C60	C	0.537936	0.331829	0.148714
C61	C	0.537932	0.248378	0.148711
C62	C	0.537954	0.668376	0.148729
C63	C	0.537962	0.751833	0.148730
C64	C	0.603820	0.751820	0.045091
C65	C	0.603816	0.668369	0.045087
C66	C	0.570879	0.626652	0.096905
C67	C	0.570876	0.536163	0.096904
C68	C	0.570876	0.464041	0.096899
C69	C	0.567184	0.000111	0.235321
C70	C	0.568039	0.000117	0.319332
C71	C	0.574567	0.000091	-0.041516
C72	C	0.573712	0.000080	-0.125527
C73	C	0.524398	0.000110	0.368338
C74	C	0.525204	0.000101	0.447274
C75	C	0.569652	0.000104	0.477203
C76	C	0.613296	0.000109	0.428191
C77	C	0.612490	0.000112	0.349256
C78	C	0.616550	0.000094	0.746525
C79	C	0.617354	0.000092	0.825466
C80	C	0.529265	0.000082	0.844543
C81	C	0.528458	0.000086	0.765608
C82	C	0.572102	0.000086	0.716603
C83	C	0.571228	0.000094	0.631012
C84	C	0.570527	0.000102	0.562793
H85	H	0.322104	0.000104	0.226298
H86	H	-0.180353	0.000116	-0.032485
H87	H	0.653550	0.000094	0.849830
H88	H	0.648027	0.000115	0.309356
H89	H	0.488204	0.000117	0.343976
C90	C	0.454427	-0.068081	0.885098
C91	C	0.481288	0.000071	0.898410
H92	H	0.424808	-0.068082	0.918349
H93	H	0.472658	-0.114304	0.894115
H94	H	0.447592	-0.068068	0.833801
H95	H	0.488127	0.000055	0.949706
H96	H	0.463053	0.046306	0.889399
C97	C	-0.090377	0.000122	-0.105263
C98	C	-0.039567	0.000116	-0.119037
H99	H	-0.103517	0.000120	-0.152377
H100	H	-0.101034	0.046353	-0.077043
H101	H	-0.101036	-0.046112	-0.077037
H102	H	-0.028907	0.046354	-0.147258
H103	H	-0.028905	-0.046119	-0.147268
C104	C	0.046154	0.068265	0.314946
C105	C	0.075504	0.000116	0.311176
H106	H	0.025096	0.068260	0.361519
H107	H	0.027397	0.068259	0.273501
H108	H	0.066068	0.114495	0.312386
H109	H	0.055591	-0.046114	0.313730
H110	H	0.094263	0.000114	0.352633
C111	C	0.476440	0.068234	0.687912
C112	C	0.479600	0.000080	0.732711
H113	H	0.446275	0.068228	0.667609
H114	H	0.502313	0.068234	0.647433
H115	H	0.478580	0.114460	0.718319
H116	H	0.477464	-0.046147	0.702303
H117	H	0.453720	0.000072	0.773196
C118	C	0.149594	0.000138	-0.176687
C119	C	0.111690	0.000132	-0.116642
H120	H	0.136455	0.000154	-0.223802
H121	H	0.169012	-0.046095	-0.173504
H122	H	0.169017	0.046370	-0.173484
H123	H	0.092268	-0.046103	-0.119842
H124	H	0.092264	0.046370	-0.119827
H125	H	0.649486	0.000113	0.452565
H126	H	0.511115	0.214412	0.190905
C127	C	0.438050	0.000112	0.458202
C128	C	0.477233	0.000103	0.501141
H129	H	0.408433	0.000119	0.491459
H130	H	0.439567	-0.046116	0.427019
H131	H	0.439572	0.046349	0.427017
H132	H	0.475712	-0.046137	0.532323
H133	H	0.475715	0.046337	0.532338
H134	H	0.652088	0.000099	0.706634
C135	C	0.669573	0.154467	0.027886
C136	C	0.639968	0.202481	-0.011910
H137	H	0.691899	0.126138	-0.007302
H138	H	0.649960	0.117695	0.058758
H139	H	0.686946	0.187011	0.059183
H140	H	0.622593	0.169937	-0.043202
H141	H	0.659584	0.239257	-0.042794
H142	H	0.630613	0.365789	0.002878
H143	H	0.413562	0.000081	0.227746
H144	H	0.175804	0.000108	0.293079
H145	H	-0.271809	0.000103	-0.033937
H146	H	-0.292998	0.000128	0.216502
C147	C	-0.233907	0.000129	0.297796
C148	C	-0.196006	0.000126	0.237746
H149	H	-0.220765	0.000140	0.344909
H150	H	-0.253325	-0.046102	0.294612
H151	H	-0.253331	0.046363	0.294599
H152	H	-0.176584	-0.046111	0.240940
H153	H	-0.176580	0.046363	0.240932
H154	H	0.208666	0.000121	-0.095399
H155	H	0.343273	0.000073	-0.024153
C156	C	0.472848	0.743468	0.251167
C157	C	0.501761	0.797706	0.205690
H158	H	0.450499	0.771790	0.286326
H159	H	0.492928	0.710915	0.278182
H160	H	0.455501	0.710923	0.219836
H161	H	0.519110	0.830247	0.237021
H162	H	0.481679	0.830273	0.178674
C163	C	0.472940	-0.068074	-0.045992
C164	C	0.443592	0.000076	-0.042244
H165	H	0.494015	-0.068067	-0.092550
H166	H	0.453030	-0.114298	-0.043449
H167	H	0.491685	-0.068068	-0.004524
H168	H	0.424845	0.000067	-0.083710
H169	H	0.463504	0.046312	-0.044795
H170	H	0.511124	0.365812	0.190906
H171	H	0.024559	0.000127	0.290672
C172	C	0.632306	0.642844	-0.086271
C173	C	0.640007	0.622576	-0.011944
H174	H	0.654647	0.614593	-0.121500
H175	H	0.636993	0.698523	-0.093612
H176	H	0.600055	0.629149	-0.094111
H177	H	0.672257	0.636277	-0.004102
H178	H	0.635323	0.566885	-0.004600
C179	C	-0.124094	0.000149	0.293387
C180	C	-0.075752	0.000143	0.308763
H181	H	-0.145165	0.000163	0.339948
H182	H	-0.129954	-0.046083	0.264906
H183	H	-0.129948	0.046382	0.264889
H184	H	-0.069897	-0.046094	0.337256
H185	H	-0.069890	0.046379	0.337256
H186	H	0.057408	0.000112	-0.097800
H187	H	0.630637	0.785795	0.002896
C188	C	0.527338	0.574542	0.251852
C189	C	0.501757	0.622530	0.205698
H190	H	0.504990	0.546235	0.287023
H191	H	0.547426	0.607093	0.278851
H192	H	0.546941	0.537742	0.220981
H193	H	0.482157	0.659334	0.236569
H194	H	0.481660	0.589976	0.178697
