data_functionalizedCrystal
_audit_creation_method	'MofGen! by Chris Wilmer'
_symmetry_space_group_name_H-M	'P1'
_symmetry_Int_Tables_number	1
_symmetry_cell_setting	triclinic
loop_
_symmetry_equiv_pos_as_xyz
  x,y,z
_cell_length_a	14.908571
_cell_length_b	13.897449
_cell_length_c	14.908183
_cell_angle_alpha	86.690601
_cell_angle_beta	90.178529
_cell_angle_gamma	93.298820
loop_
_atom_site_label
_atom_site_type_symbol
_atom_site_fract_x
_atom_site_fract_y
_atom_site_fract_z
Zn1	Zn	1.353858	0.601770	0.437605
Zn2	Zn	1.853858	1.101770	0.937605
Zn3	Zn	1.345123	0.430652	0.587936
Zn4	Zn	1.845123	0.930652	1.087936
Zn5	Zn	1.203531	0.431765	0.428900
Zn6	Zn	1.703531	0.931765	0.928900
Zn7	Zn	1.194799	0.583181	0.579236
Zn8	Zn	1.694799	1.083181	1.079236
O9	O	1.274328	0.511842	0.508419
O10	O	1.774328	1.011842	1.008419
O11	O	1.478523	0.586385	0.464831
O12	O	1.978523	1.086385	0.964831
O13	O	1.326339	0.295818	0.566837
O14	O	1.826339	0.795818	1.066837
O15	O	1.230782	0.462562	0.304225
O16	O	1.730782	0.962562	0.804225
O17	O	1.472105	0.460665	0.575278
O18	O	1.972105	0.960665	1.075278
O19	O	1.341227	0.587464	0.310621
O20	O	1.841227	1.087464	0.810621
O21	O	1.222311	0.296636	0.449995
O22	O	1.722311	0.796636	0.949995
O23	O	1.076549	0.444536	0.441559
O24	O	1.576549	0.944536	0.941559
O25	O	1.215901	0.720628	0.560450
O26	O	1.715901	1.220628	1.060450
O27	O	1.070134	0.555781	0.552009
O28	O	1.570134	1.055781	1.052009
O29	O	1.332760	0.734286	0.456395
O30	O	1.832760	1.234286	0.956395
O31	O	1.317872	0.442640	0.712611
O32	O	1.817872	0.942640	1.212611
O33	O	1.207430	0.554702	0.706220
O34	O	1.707430	1.054702	1.206220
C35	C	1.040717	0.498263	0.494896
C36	C	1.540717	0.998263	0.994896
C37	C	0.940775	0.492475	0.489132
C38	C	1.440775	0.992475	0.989132
C39	C	0.746334	0.597261	0.593493
C40	C	1.246334	1.097261	1.093493
C41	C	0.652430	0.591826	0.588080
C42	C	1.152430	1.091826	1.088080
C43	C	0.659063	0.476176	0.472890
C44	C	1.159063	0.976176	0.972890
C45	C	0.752966	0.481611	0.478303
C46	C	1.252966	0.981611	0.978303
C47	C	0.796599	0.542154	0.538607
C48	C	1.296599	1.042154	1.038607
C49	C	0.890504	0.547583	0.544024
C50	C	1.390504	1.047583	1.044024
C51	C	0.897135	0.431939	0.428830
C52	C	1.397135	0.931939	0.928830
C53	C	0.803231	0.426504	0.423417
C54	C	1.303231	0.926504	0.923417
C55	C	1.274331	0.763435	0.508423
C56	C	1.774331	1.263435	1.008423
C57	C	1.274332	0.870649	0.508425
C58	C	1.774332	1.370649	1.008425
C59	C	1.274309	1.066942	0.508428
C60	C	1.774309	1.566942	1.008428
C61	C	1.274319	0.957710	0.508428
C62	C	1.774319	1.457710	1.008428
C63	C	1.508851	0.525475	0.521996
C64	C	2.008851	1.025475	1.021996
C65	C	1.608791	0.531284	0.527782
C66	C	2.108791	1.031284	1.027782
C67	C	1.260780	0.496555	0.742043
C68	C	1.760780	0.996555	1.242043
C69	C	1.255067	0.490053	0.841993
C70	C	1.755067	0.990053	1.341993
C71	C	1.274315	1.261226	0.508433
C72	C	1.774315	1.761226	1.008433
C73	C	1.274308	1.154012	0.508425
C74	C	1.774308	1.654012	1.008425
C75	C	1.287953	0.527211	0.273884
C76	C	1.787953	1.027211	0.773884
C77	C	1.293759	0.533760	0.173940
C78	C	1.793759	1.033760	0.673940
C79	C	1.189559	0.415810	0.979616
C80	C	1.689559	0.915810	1.479616
C81	C	1.194924	0.421917	0.885704
C82	C	1.694924	0.921917	1.385704
C83	C	1.309848	0.552087	0.892201
C84	C	1.809848	1.052087	1.392201
C85	C	1.304483	0.545979	0.986113
C86	C	1.804483	1.045979	1.486113
C87	C	1.244338	0.477837	1.029818
C88	C	1.744338	0.977837	1.529818
C89	C	1.238978	0.471726	1.123732
C90	C	1.738978	0.971726	1.623732
C91	C	1.353897	0.601899	1.130227
C92	C	1.853897	1.101899	1.630227
C93	C	1.359261	0.608007	1.036315
C94	C	1.859261	1.108007	1.536315
H95	H	0.781859	0.646552	0.642599
H96	H	1.281859	1.146552	1.142599
N97	N	1.124703	0.342310	1.026763
N98	N	1.624703	0.842310	1.526763
H99	H	1.090817	0.303937	0.980709
H100	H	1.590817	0.803937	1.480709
H101	H	1.080833	0.376576	1.063344
H102	H	1.580833	0.876576	1.563344
N103	N	0.756165	0.361199	0.358387
N104	N	1.256165	0.861199	0.858387
H105	H	0.802259	0.327112	0.324441
H106	H	1.302259	0.827112	0.824441
H107	H	0.719617	0.400994	0.314581
H108	H	1.219617	0.900994	0.814581
N109	N	0.951348	0.372491	0.369633
N110	N	1.451348	0.872491	0.869633
H111	H	1.017457	0.385116	0.382213
H112	H	1.517457	0.885116	0.882213
H113	H	0.938655	0.390859	0.304487
H114	H	1.438655	0.890859	0.804487
N115	N	1.135847	0.355017	0.831552
N116	N	1.635847	0.855017	1.331552
H117	H	1.070655	0.365137	0.844231
H118	H	1.570655	0.865137	1.344231
H119	H	1.149006	0.285890	0.848743
H120	H	1.649006	0.785890	1.348743
H121	H	1.190006	0.416240	1.159314
H122	H	1.690006	0.916240	1.659314
N123	N	1.424136	0.681490	0.989171
N124	N	1.924136	1.181490	1.489171
H125	H	1.458026	0.719855	1.035227
H126	H	1.958026	1.219855	1.535227
H127	H	1.389731	0.726504	0.948105
H128	H	1.889731	1.226504	1.448105
H129	H	0.611508	0.636701	0.632772
H130	H	1.111508	1.136701	1.132772
H131	H	1.358810	0.607572	0.856604
H132	H	1.858810	1.107572	1.356604
H133	H	1.398504	0.652405	1.171111
H134	H	1.898504	1.152405	1.671111
H135	H	0.926027	0.596879	0.593128
H136	H	1.426027	1.096879	1.093128
H137	H	0.623521	0.426891	0.423788
H138	H	1.123521	0.926891	0.923788
