data_functionalizedCrystal
_audit_creation_method	'MofGen! by Chris Wilmer'
_symmetry_space_group_name_H-M	'P1'
_symmetry_Int_Tables_number	1
_symmetry_cell_setting	triclinic
loop_
_symmetry_equiv_pos_as_xyz
  x,y,z
_cell_length_a	14.519709
_cell_length_b	14.519709
_cell_length_c	12.376457
_cell_angle_alpha	101.296542
_cell_angle_beta	78.691279
_cell_angle_gamma	83.680145
loop_
_atom_site_label
_atom_site_type_symbol
_atom_site_fract_x
_atom_site_fract_y
_atom_site_fract_z
O1	O	1.241497	0.103271	-0.093858
O2	O	0.973026	0.117501	-0.093893
O3	O	1.114378	-0.023850	-0.093864
O4	O	1.100145	0.244623	-0.093886
O5	O	1.079053	0.011440	0.094141
O6	O	0.937701	0.152791	0.094112
O7	O	1.206172	0.138561	0.094147
Zn8	Zn	1.066328	0.151279	0.123980
Zn9	Zn	1.112870	0.104783	-0.123725
O10	O	1.064820	0.279912	0.094119
C11	C	0.921005	0.134482	0.000106
C12	C	0.818626	0.132491	0.000093
C13	C	0.443720	0.125182	0.000145
C14	C	0.548031	0.127211	0.000130
C15	C	0.631170	0.128836	0.000118
C16	C	0.735487	0.130867	0.000105
C17	C	1.096052	-0.040565	0.000139
C18	C	1.094063	-0.142946	0.000139
C19	C	1.086750	-0.517848	0.000109
C20	C	1.088781	-0.413538	0.000117
C21	C	1.090406	-0.330400	0.000125
C22	C	1.092438	-0.226084	0.000132
C23	C	1.258194	0.121580	0.000147
C24	C	1.360574	0.123569	0.000152
C25	C	1.083147	0.296627	0.000114
C26	C	1.085136	0.399007	0.000106
N27	N	1.034570	0.183010	0.293032
N28	N	1.144635	0.073045	-0.292777
C29	C	1.218354	-0.000632	0.648054
C30	C	1.240576	-0.022842	0.529718
C31	C	1.189076	0.028619	0.470541
C32	C	1.115351	0.102294	0.529710
C33	C	1.093132	0.124510	0.648057
C34	C	1.063854	0.153762	0.470544
C35	C	0.990129	0.227436	0.529714
C36	C	0.967913	0.249648	0.648049
C37	C	1.019413	0.198187	0.707227
C38	C	1.086073	0.131545	0.352197
C39	C	0.960851	0.256688	0.352201
C40	C	0.938629	0.278897	0.470536
H41	H	1.146101	0.071560	0.304032
H42	H	1.260283	-0.042521	0.696244
N43	N	0.996719	0.220855	0.828107
N44	N	1.042704	0.174892	0.880923
H45	H	1.026678	0.190899	0.966296
H46	H	0.907889	0.309644	0.696225
H47	H	0.878601	0.338884	0.518727
N48	N	1.315949	-0.098047	0.469362
N49	N	1.312171	-0.180823	0.482592
H50	H	1.365436	-0.233921	0.439989
N51	N	0.908256	0.309257	0.291749
N52	N	0.928105	0.289415	0.186089
H53	H	0.890966	0.326541	0.143386
H54	H	1.207173	0.010533	0.374187
