data_functionalizedCrystal
_audit_creation_method	'MofGen! by Chris Wilmer'
_symmetry_space_group_name_H-M	'P1'
_symmetry_Int_Tables_number	1
_symmetry_cell_setting	triclinic
loop_
_symmetry_equiv_pos_as_xyz
  x,y,z
_cell_length_a	31.640172
_cell_length_b	14.560438
_cell_length_c	31.640172
_cell_angle_alpha	60.017797
_cell_angle_beta	90.002706
_cell_angle_gamma	59.993131
loop_
_atom_site_label
_atom_site_type_symbol
_atom_site_fract_x
_atom_site_fract_y
_atom_site_fract_z
Zr1	Zr	0.407194	1.005077	-0.055407
O2	O	0.339706	1.196647	-0.122870
O3	O	0.427880	0.813496	-0.034735
O4	O	0.427880	1.005043	-0.122887
O5	O	0.339708	1.005131	0.034827
O6	O	0.497436	1.005027	-0.122890
O7	O	0.339705	1.005101	-0.034719
O8	O	0.497436	0.662385	0.034798
O9	O	0.339708	1.347773	-0.122860
O10	O	0.488614	0.892288	-0.025910
O11	O	0.436707	0.892322	0.025993
O12	O	0.436707	1.117843	-0.077794
O13	O	0.384800	1.117878	-0.025891
Zr14	Zr	0.518132	1.005100	0.055506
Zr15	Zr	0.518128	1.005052	-0.055412
Zr16	Zr	0.407198	1.005125	0.055510
Zr17	Zr	0.407198	1.246104	-0.055391
Zr18	Zr	0.518128	0.764072	0.055489
O19	O	0.497446	1.196680	0.034834
O20	O	0.497440	1.196612	-0.122877
O21	O	0.339712	1.196715	0.034840
O22	O	0.585620	0.813529	0.122969
O23	O	0.585614	0.813461	-0.034742
O24	O	0.427886	0.813564	0.122975
O25	O	0.585617	1.005046	-0.034729
O26	O	0.497446	1.005134	0.122985
O27	O	0.427890	1.005149	0.122988
O28	O	0.585620	1.005076	0.034817
O29	O	0.427886	1.347753	-0.122864
O30	O	0.497439	0.662423	0.122962
O31	O	0.585617	0.662404	0.122959
O32	O	0.585614	0.662366	0.034794
O33	O	0.339712	1.347811	-0.034696
O34	O	0.427890	1.347791	-0.034699
O35	O	0.488618	0.892333	0.077892
O36	O	0.540525	0.892299	0.025989
O37	O	0.488618	1.117854	-0.025895
O38	O	0.436711	1.117888	0.026008
C39	C	0.462657	0.703599	0.000029
C40	C	0.462655	0.601277	0.000022
C41	C	0.424338	0.636395	-0.038270
C42	C	0.424346	0.540206	-0.038244
C43	C	0.500992	0.373781	0.038371
C44	C	0.500985	0.469969	0.038342
C45	C	0.380086	0.732479	-0.082502
C46	C	0.380094	0.636290	-0.082476
C47	C	0.323901	1.005119	0.000055
C48	C	0.276807	1.005130	0.000057
C49	C	-0.015200	1.005048	-0.038263
C50	C	-0.192187	1.005032	-0.038267
O51	O	-0.215061	1.004960	-0.070838
N52	N	-0.214316	1.005051	0.000046
C53	C	-0.192194	1.005066	0.038364
O54	O	-0.215074	1.005068	0.070955
C55	C	-0.015206	1.005073	0.038370
C56	C	0.006918	1.005067	0.000052
C57	C	0.006924	1.005041	-0.076578
C58	C	0.051166	1.005052	-0.076578
C59	C	0.073284	1.005070	-0.038264
C60	C	0.051160	1.005078	0.000051
C61	C	0.006917	1.005078	0.076690
C62	C	0.051168	1.005077	0.076689
C63	C	0.073292	1.005071	0.038370
C64	C	0.117521	1.005108	0.038366
N65	N	0.139650	1.005089	0.000053
C66	C	0.117532	1.005070	-0.038262
C67	C	-0.285116	1.005065	0.038358
C68	C	-0.329363	1.005065	0.038356
C69	C	-0.329352	1.005029	-0.038274
C70	C	-0.285106	1.005038	-0.038274
C71	C	-0.262986	1.005046	0.000045
C72	C	0.210444	1.005094	-0.038260
C73	C	0.254689	1.005111	-0.038258
C74	C	0.254676	1.005141	0.038374
C75	C	0.210433	1.005131	0.038371
C76	C	0.188319	1.005103	0.000052
O77	O	0.140425	1.005165	0.070923
O78	O	0.140426	1.005038	-0.070841
C79	C	-0.059443	1.005037	-0.038263
C80	C	-0.081567	1.005045	0.000052
C81	C	-0.059449	1.005063	0.038367
C82	C	-0.125814	1.005045	0.000050
C83	C	-0.147932	1.005026	-0.038264
C84	C	-0.125803	1.005007	-0.076577
C85	C	-0.081561	1.005018	-0.076577
C86	C	-0.081578	1.005082	0.076679
C87	C	-0.125821	1.005073	0.076676
C88	C	-0.147939	1.005054	0.038362
C89	C	0.601425	1.005057	0.000044
C90	C	0.648519	1.005047	0.000042
C91	C	0.462657	1.005028	-0.138692
C92	C	0.462656	1.005008	-0.185779
C93	C	0.462668	1.306577	0.000070
C94	C	0.462670	1.408900	0.000076
C95	C	0.489769	0.887340	-0.495002
C96	C	0.489761	0.887301	-0.318002
O97	O	0.512820	0.787167	-0.272085
N98	N	0.462665	1.005036	-0.322951
C99	C	0.435571	1.122789	-0.372155
O100	O	0.412528	1.222928	-0.372303
C101	C	0.435582	1.122827	-0.549153
C102	C	0.462676	1.005084	-0.544200
C103	C	0.516861	0.769608	-0.490051
C104	C	0.516861	0.769618	-0.534298
C105	C	0.489768	0.887362	-0.583496
C106	C	0.462676	1.005095	-0.588447
C107	C	0.408492	1.240578	-0.598356
C108	C	0.408498	1.240577	-0.642605
C109	C	0.435592	1.122835	-0.637652
C110	C	0.435582	1.122850	-0.681893
N111	N	0.462679	1.005115	-0.676944
C112	C	0.489771	0.887371	-0.627746
C113	C	0.435566	1.122761	-0.279226
C114	C	0.435563	1.122752	-0.234977
C115	C	0.489754	0.887263	-0.180828
C116	C	0.489754	0.887274	-0.225078
C117	C	0.462663	1.005026	-0.274277
C118	C	0.489768	0.887403	-0.720671
C119	C	0.489763	0.887425	-0.764924
C120	C	0.435574	1.122912	-0.819070
C121	C	0.435577	1.122891	-0.774820
C122	C	0.462677	1.005127	-0.725619
O123	O	0.412540	1.222932	-0.727825
O124	O	0.512820	0.787247	-0.627609
C125	C	0.489770	0.887329	-0.450754
C126	C	0.462677	1.005062	-0.455705
C127	C	0.435585	1.122806	-0.504903
C128	C	0.462674	1.005053	-0.411456
C129	C	0.489767	0.887309	-0.362257
C130	C	0.516863	0.769575	-0.357308
C131	C	0.516862	0.769586	-0.401556
C132	C	0.408488	1.240541	-0.509853
C133	C	0.408491	1.240520	-0.465603
C134	C	0.435583	1.122776	-0.416404
C135	C	0.462668	1.005148	0.138790
C136	C	0.462670	1.005169	0.185877
C137	C	0.601419	0.703568	0.000023
C138	C	0.648512	0.601235	0.000015
C139	C	0.462663	0.703659	0.138770
C140	C	0.462663	0.601357	0.185850
C141	C	0.601424	0.703628	0.138764
C142	C	0.648519	0.601316	0.185843
C143	C	0.323901	1.306548	-0.138666
C144	C	0.276807	1.408861	-0.185744
C145	C	0.323907	1.306608	0.000075
C146	C	0.276814	1.408941	0.000084
C147	C	0.462663	1.306517	-0.138671
C148	C	0.462663	1.408819	-0.185752
C149	C	0.643530	0.553173	-0.027085
C150	C	0.687774	0.457033	-0.027104
C151	C	0.736999	0.408952	-0.000019
C152	C	0.741980	0.457023	0.027081
C153	C	0.697737	0.553168	0.027096
C154	C	0.489760	0.553321	0.235055
C155	C	0.489758	0.457211	0.279296
C156	C	0.462661	0.409132	0.274332
C157	C	0.435561	0.457178	0.225121
C158	C	0.435560	0.553293	0.180881
C159	C	0.697734	0.553251	0.180858
C160	C	0.741989	0.457131	0.225089
C161	C	0.737027	0.409070	0.274304
C162	C	0.687806	0.457145	0.279288
C163	C	0.643552	0.553270	0.235057
C164	C	0.227591	1.456937	-0.180760
C165	C	0.183337	1.553087	-0.224991
C166	C	0.188299	1.601152	-0.274206
C167	C	0.237520	1.553072	-0.279189
C168	C	0.281773	1.456930	-0.234959
C169	C	0.281796	1.457013	0.027179
C170	C	0.237552	1.553179	0.027185
C171	C	0.188326	1.601265	0.000099
C172	C	0.183345	1.553188	-0.026999
C173	C	0.227589	1.457031	-0.027008
C174	C	0.489765	1.456867	-0.180770
C175	C	0.489775	1.552978	-0.225003
C176	C	0.462680	1.601046	-0.274217
C177	C	0.435578	1.552988	-0.279197
C178	C	0.435571	1.456872	-0.234965
H179	H	0.344894	0.792164	-0.074772
Br180	Br	0.526550	0.727579	-0.653904
H181	H	0.773021	0.330664	-0.000036
H182	H	0.511828	0.418103	0.319361
Br183	Br	0.462667	0.278689	0.334378
H184	H	0.603481	0.592392	0.239123
Br185	Br	0.808782	0.391904	0.218314
Br186	Br	0.398784	0.618468	0.114105
Br187	Br	0.576729	0.618409	-0.063848
Br188	Br	0.392975	0.636195	-0.141111
Br189	Br	0.398790	0.391914	0.218392
H190	H	0.773065	0.330799	0.310315
Br191	Br	0.681002	0.391811	-0.063884
H192	H	0.413518	1.592140	-0.319273
H193	H	0.342306	0.647114	-0.078651
H194	H	0.241554	1.592219	-0.319265
Br195	Br	0.284710	1.005110	-0.090266
H196	H	0.192415	1.005155	0.069569
H197	H	0.532198	0.266862	0.069569
H198	H	0.701785	0.592367	0.140789
H199	H	0.683773	0.418000	0.319364
H200	H	0.782066	0.417861	0.049132
H201	H	0.532191	0.441364	0.069519
H202	H	0.192444	1.005070	-0.069462
Br203	Br	0.704507	0.618377	0.063881
H204	H	0.511825	0.592456	0.239107
Br205	Br	0.526522	0.727469	-0.114050
H206	H	0.511828	1.417745	-0.140702
Br207	Br	0.398781	1.391686	-0.241735
H208	H	-0.347369	1.005016	-0.069472
Br209	Br	0.220818	1.391795	-0.063781
H210	H	0.383893	0.795437	-0.120294
H211	H	0.069178	1.005041	-0.107779
H212	H	0.223541	1.417808	-0.140690
H213	H	0.511844	1.592097	-0.220938
Br214	Br	0.116544	1.618316	-0.218215
H215	H	0.152261	1.679437	-0.310217
H216	H	0.069177	1.005079	0.107895
H217	H	0.321846	1.417787	-0.239023
Br218	Br	0.348597	1.391780	0.063941
H219	H	-0.011080	1.005021	-0.107779
H220	H	0.241617	1.592307	0.049254
H221	H	-0.267095	1.005032	-0.069476
Br222	Br	0.462694	1.731492	-0.334242
H223	H	0.152304	1.679562	0.000111
H224	H	-0.063572	1.005095	0.107880
H225	H	-0.347378	1.005091	0.069554
Br226	Br	-0.255101	1.005079	0.090367
Br227	Br	0.116535	1.618458	-0.063754
H228	H	-0.011089	1.005082	0.107892
Br229	Br	-0.051542	1.005011	-0.128584
Br230	Br	0.284699	1.005171	0.090370
Br231	Br	0.398814	1.282685	-0.781542
H232	H	-0.143820	1.004999	-0.107776
H233	H	-0.143833	1.005088	0.107879
H234	H	0.511826	0.791541	-0.760885
H235	H	0.538925	0.673740	-0.530259
H236	H	0.538926	0.673721	-0.449994
Br237	Br	0.526526	0.727476	-0.218350
H238	H	0.413493	1.218629	-0.239017
Br239	Br	0.371704	1.400382	-0.605091
Br240	Br	0.371732	1.400393	-0.709376
Br241	Br	0.398794	1.282583	-0.345995
Br242	Br	0.398803	1.282700	-0.885846
H243	H	0.538925	0.673707	-0.397516
H244	H	0.386422	1.336407	-0.469644
H245	H	0.538920	0.673703	-0.317242
H246	H	0.386426	1.336424	-0.549909
