data_functionalizedCrystal
_audit_creation_method	'MofGen! by Chris Wilmer'
_symmetry_space_group_name_H-M	'P1'
_symmetry_Int_Tables_number	1
_symmetry_cell_setting	triclinic
loop_
_symmetry_equiv_pos_as_xyz
  x,y,z
_cell_length_a	14.519731
_cell_length_b	19.188924
_cell_length_c	18.266242
_cell_angle_alpha	89.991576
_cell_angle_beta	89.990875
_cell_angle_gamma	83.415409
loop_
_atom_site_label
_atom_site_type_symbol
_atom_site_fract_x
_atom_site_fract_y
_atom_site_fract_z
O1	O	1.223289	0.091595	-0.060886
O2	O	1.723289	0.591595	0.439114
O3	O	0.954748	0.102358	-0.060888
O4	O	1.454748	0.602358	0.439112
O5	O	1.096771	-0.004651	-0.060878
O6	O	1.596771	0.495349	0.439122
O7	O	1.081266	0.198605	-0.060895
O8	O	1.581266	0.698605	0.439105
O9	O	1.096747	-0.004657	0.060884
O10	O	1.596747	0.495343	0.560884
O11	O	0.954724	0.102352	0.060874
O12	O	1.454724	0.602352	0.560874
O13	O	1.223265	0.091590	0.060876
O14	O	1.723265	0.591590	0.560876
Zn15	Zn	1.088991	0.096970	0.080208
Zn16	Zn	1.588991	0.596970	0.580208
Zn17	Zn	1.089022	0.096978	-0.080219
Zn18	Zn	1.589022	0.596978	0.419781
O19	O	1.081242	0.198599	0.060867
O20	O	1.581242	0.698599	0.560867
C21	C	0.920380	0.101851	-0.000007
C22	C	1.420380	0.601851	0.499993
C23	C	0.818009	0.100340	-0.000007
C24	C	1.318009	0.600340	0.499993
C25	C	0.734872	0.099112	-0.000010
C26	C	1.234872	0.599112	0.499990
C27	C	0.630573	0.097578	-0.000010
C28	C	1.130573	0.597578	0.499990
C29	C	0.547442	0.096360	-0.000010
C30	C	1.047442	0.596360	0.499990
C31	C	0.443136	0.094826	-0.000011
C32	C	0.943136	0.594826	0.499989
C33	C	1.096258	-0.030667	0.000004
C34	C	1.596258	0.469333	0.500004
C35	C	1.094754	-0.108177	0.000006
C36	C	1.594754	0.391823	0.500006
C37	C	1.094065	-0.144575	-0.066367
C38	C	1.594065	0.355425	0.433633
C39	C	1.092639	-0.217403	-0.066373
C40	C	1.592639	0.282597	0.433627
C41	C	1.091920	-0.253832	-0.000002
C42	C	1.591920	0.246168	0.499998
C43	C	1.092604	-0.217424	0.066380
C44	C	1.592604	0.282576	0.566380
C45	C	1.094021	-0.144597	0.066383
C46	C	1.594021	0.355403	0.566383
N47	N	1.142165	-0.373315	0.049397
N48	N	1.642165	0.126685	0.549397
N49	N	1.140821	-0.442499	0.049389
N50	N	1.640821	0.057501	0.549389
C51	C	1.087648	-0.473256	-0.000009
C52	C	1.587648	0.026744	0.499991
N53	N	1.035882	-0.432219	-0.049409
N54	N	1.535882	0.067781	0.450591
N55	N	1.037231	-0.363030	-0.049403
N56	N	1.537231	0.136970	0.450597
C57	C	1.090383	-0.332801	0.000002
C58	C	1.590383	0.167199	0.500002
C59	C	1.085411	-0.588623	-0.066392
C60	C	1.585411	-0.088623	0.433608
C61	C	1.083979	-0.661452	-0.066395
C62	C	1.583979	-0.161452	0.433605
C63	C	1.083954	-0.661472	0.066359
C64	C	1.583954	-0.161472	0.566359
C65	C	1.085376	-0.588644	0.066360
C66	C	1.585376	-0.088644	0.566360
C67	C	1.086110	-0.552224	-0.000018
C68	C	1.586110	-0.052224	0.499982
C69	C	1.257634	0.092097	-0.000007
C70	C	1.757634	0.592097	0.499993
C71	C	1.360004	0.093608	-0.000011
C72	C	1.860004	0.593608	0.499989
C73	C	1.081755	0.224615	-0.000017
C74	C	1.581755	0.724615	0.499983
C75	C	1.083259	0.302125	-0.000023
C76	C	1.583259	0.802125	0.499977
N77	N	1.088976	0.096965	0.189695
N78	N	1.588976	0.596965	0.689695
N79	N	1.089045	0.096978	-0.189706
N80	N	1.589045	0.596978	0.310294
C81	C	1.151884	0.049605	0.228008
C82	C	1.651884	0.549605	0.728008
C83	C	1.151890	0.049601	0.304652
C84	C	1.651890	0.549601	0.804652
C85	C	1.088996	0.096970	0.342981
C86	C	1.588996	0.596970	0.842981
C87	C	1.026076	0.144334	0.304659
C88	C	1.526076	0.644334	0.804659
C89	C	1.026066	0.144332	0.228016
C90	C	1.526066	0.644332	0.728016
N91	N	1.077007	0.158735	0.463308
N92	N	1.577007	0.658735	0.963308
N93	N	1.077022	0.158735	0.536117
N94	N	1.577022	0.658735	1.036117
C95	C	1.089022	0.096981	0.573904
C96	C	1.589022	0.596981	1.073904
N97	N	1.101025	0.035224	0.536132
N98	N	1.601025	0.535224	1.036132
N99	N	1.101014	0.035224	0.463318
N100	N	1.601014	0.535224	0.963318
C101	C	1.089000	0.096978	0.426088
C102	C	1.589000	0.596978	0.926088
C103	C	1.151941	0.049613	0.695324
C104	C	1.651941	0.549613	1.195324
C105	C	1.151940	0.049609	0.771970
C106	C	1.651940	0.549609	1.271970
C107	C	1.026130	0.144348	0.771976
C108	C	1.526130	0.644348	1.271976
C109	C	1.026126	0.144346	0.695331
C110	C	1.526126	0.644346	1.195331
C111	C	1.089036	0.096979	0.657010
C112	C	1.589036	0.596979	1.157010
H113	H	1.094660	-0.114927	-0.120417
H114	H	1.594660	0.385073	0.379583
H115	H	1.086003	-0.558968	-0.120441
H116	H	1.586003	-0.058968	0.379559
H117	H	0.974904	0.182914	0.664134
H118	H	1.474904	0.682914	1.164134
O119	O	1.219724	-0.001493	0.186678
O120	O	1.719724	0.498507	0.686678
H121	H	1.291577	0.007526	0.201375
H122	H	1.791577	0.507526	0.701375
H123	H	1.083414	-0.691086	-0.120446
H124	H	1.583414	-0.191086	0.379554
O125	O	1.086143	-0.549380	0.137948
O126	O	1.586143	-0.049380	0.637948
H127	H	1.085414	-0.586945	0.184100
H128	H	1.585414	-0.086945	0.684100
O129	O	1.083185	-0.700751	0.137949
O130	O	1.583185	-0.200751	0.637949
H131	H	1.082091	-0.757509	0.126797
H132	H	1.582091	-0.257509	0.626797
H133	H	0.974865	0.182902	0.335870
H134	H	1.474865	0.682902	0.835870
H135	H	1.203120	0.011033	0.335853
H136	H	1.703120	0.511033	0.835853
O137	O	1.091898	-0.256676	-0.137962
O138	O	1.591898	0.243324	0.362038
H139	H	1.092650	-0.219116	-0.184117
H140	H	1.592650	0.280884	0.315883
O141	O	1.094776	-0.105340	0.137978
O142	O	1.594776	0.394660	0.637978
H143	H	1.032580	-0.066018	0.141159
H144	H	1.532580	0.433982	0.641159
H145	H	1.092016	-0.247089	0.120419
H146	H	1.592016	0.252911	0.620419
O147	O	0.958219	0.195420	0.186685
O148	O	1.458219	0.695420	0.686685
H149	H	0.914487	0.228362	0.226210
H150	H	1.414487	0.728362	0.726210
O151	O	1.219777	-0.001480	0.653983
O152	O	1.719777	0.498520	1.153983
H153	H	1.263513	-0.034424	0.693505
H154	H	1.763513	0.465576	1.193505
H155	H	1.203165	0.011038	0.803165
H156	H	1.703165	0.511038	1.303165
O157	O	0.958293	0.195443	0.813303
O158	O	1.458293	0.695443	1.313303
H159	H	0.968871	0.187492	0.873036
H160	H	1.468871	0.687492	1.373036
