data_functionalizedCrystal
_audit_creation_method	'MofGen! by Chris Wilmer'
_symmetry_space_group_name_H-M	'P1'
_symmetry_Int_Tables_number	1
_symmetry_cell_setting	triclinic
loop_
_symmetry_equiv_pos_as_xyz
  x,y,z
_cell_length_a	12.827893
_cell_length_b	21.295417
_cell_length_c	12.827885
_cell_angle_alpha	90.037053
_cell_angle_beta	90.019272
_cell_angle_gamma	90.029863
loop_
_atom_site_label
_atom_site_type_symbol
_atom_site_fract_x
_atom_site_fract_y
_atom_site_fract_z
Zn1	Zn	1.597566	-0.250576	0.590796
Zn2	Zn	1.930899	0.082757	0.924129
Zn3	Zn	2.264232	0.416091	1.257463
Zn4	Zn	1.597416	-0.355858	0.416034
Zn5	Zn	1.930749	-0.022525	0.749367
Zn6	Zn	2.264083	0.310809	1.082701
Zn7	Zn	1.422807	-0.250607	0.416070
Zn8	Zn	1.756140	0.082726	0.749403
Zn9	Zn	2.089474	0.416060	1.082736
Zn10	Zn	1.422749	-0.355812	0.590734
Zn11	Zn	1.756082	-0.022478	0.924067
Zn12	Zn	2.089415	0.310855	1.257401
O13	O	1.510134	-0.303213	0.503408
O14	O	1.843468	0.030120	0.836742
O15	O	2.176801	0.363453	1.170075
O16	O	1.743782	-0.264548	0.567624
O17	O	2.077115	0.068785	0.900958
O18	O	2.410449	0.402118	1.234291
O19	O	1.574216	-0.341929	0.269803
O20	O	1.907549	-0.008595	0.603136
O21	O	2.240882	0.324738	0.936469
O22	O	1.446076	-0.162514	0.439288
O23	O	1.779410	0.170820	0.772621
O24	O	2.112743	0.504153	1.105955
O25	O	1.743672	-0.341899	0.439228
O26	O	2.077005	-0.008565	0.772561
O27	O	2.410339	0.324768	1.105894
O28	O	1.574471	-0.162491	0.567659
O29	O	1.907804	0.170843	0.900992
O30	O	2.241137	0.504176	1.234325
O31	O	1.445931	-0.264601	0.269829
O32	O	1.779264	0.068732	0.603162
O33	O	2.112598	0.402065	0.936495
O34	O	1.276563	-0.264556	0.439228
O35	O	1.609897	0.068777	0.772561
O36	O	1.943230	0.402111	1.105895
O37	O	1.445977	-0.341819	0.736978
O38	O	1.779310	-0.008486	1.070312
O39	O	2.112643	0.324847	1.403645
O40	O	1.276520	-0.341850	0.567553
O41	O	1.609854	-0.008516	0.900887
O42	O	1.943187	0.324817	1.234220
O43	O	1.574414	-0.264503	0.737024
O44	O	1.907747	0.068830	1.070357
O45	O	2.241081	0.402163	1.403690
O46	O	1.574159	-0.443941	0.439168
O47	O	1.907492	-0.110608	0.772501
O48	O	2.240826	0.222725	1.105834
O49	O	1.445832	-0.443907	0.567519
O50	O	1.779165	-0.110574	0.900852
O51	O	2.112498	0.222759	1.234186
C52	C	1.238625	-0.303202	0.503388
C53	C	1.571958	0.030132	0.836722
C54	C	1.905291	0.363465	1.170055
C55	C	1.122471	-0.303212	0.503405
C56	C	1.455805	0.030122	0.836738
C57	C	1.789138	0.363455	1.170071
C58	C	1.070741	-0.265004	0.567039
C59	C	1.404074	0.068329	0.900372
C60	C	1.737407	0.401662	1.233705
C61	C	0.950690	-0.265014	0.567057
C62	C	1.284024	0.068319	0.900390
C63	C	1.617357	0.401653	1.233723
C64	C	1.510001	-0.466765	0.503355
C65	C	1.843335	-0.133432	0.836689
C66	C	2.176668	0.199902	1.170022
C67	C	1.510040	-0.536733	0.503368
C68	C	1.843373	-0.203400	0.836701
C69	C	2.176707	0.129934	1.170034
C70	C	1.576857	-0.569531	0.570258
C71	C	1.910190	-0.236197	0.903591
C72	C	2.243523	0.097136	1.236925
C73	C	1.576893	-0.635273	0.570284
C74	C	1.910227	-0.301940	0.903617
C75	C	2.243560	0.031394	1.236951
C76	C	1.510125	-0.668215	0.503401
C77	C	1.843458	-0.334882	0.836734
C78	C	2.176791	-0.001549	1.170067
C79	C	1.443295	-0.635410	0.436506
C80	C	1.776628	-0.302077	0.769839
C81	C	2.109962	0.031257	1.103172
C82	C	1.443253	-0.569669	0.436489
C83	C	1.776586	-0.236335	0.769822
C84	C	2.109919	0.096998	1.103156
N85	N	1.502229	-0.771484	0.411945
N86	N	1.835562	-0.438150	0.745278
N87	N	2.168895	-0.104817	1.078612
N88	N	1.502275	-0.833935	0.411964
N89	N	1.835608	-0.500602	0.745297
N90	N	2.168942	-0.167268	1.078630
C91	C	1.510247	-0.866290	0.503448
C92	C	1.843580	-0.532957	0.836781
C93	C	2.176913	-0.199623	1.170115
N94	N	1.518191	-0.833834	0.594915
N95	N	1.851524	-0.500501	0.928248
N96	N	2.184857	-0.167168	1.261581
N97	N	1.518150	-0.771377	0.594895
N98	N	1.851483	-0.438044	0.928228
N99	N	2.184816	-0.104711	1.261562
C100	C	1.510163	-0.739501	0.503412
C101	C	1.843496	-0.406167	0.836745
C102	C	2.176829	-0.072834	1.170078
C103	C	1.577107	-0.970373	0.570372
C104	C	1.910440	-0.637040	0.903705
C105	C	2.243774	-0.303707	1.237039
C106	C	1.577136	-1.036117	0.570399
C107	C	1.910470	-0.702784	0.903733
C108	C	2.243803	-0.369450	1.237066
C109	C	1.443543	-1.036252	0.436612
C110	C	1.776877	-0.702919	0.769945
C111	C	2.110210	-0.369586	1.103278
C112	C	1.443508	-0.970510	0.436594
C113	C	1.776842	-0.637177	0.769927
C114	C	2.110175	-0.303843	1.103260
C115	C	1.510296	-0.937574	0.503472
C116	C	1.843629	-0.604241	0.836805
C117	C	2.176962	-0.270908	1.170139
C118	C	1.782704	-0.303225	0.503429
C119	C	2.116038	0.030108	0.836762
C120	C	2.449371	0.363441	1.170096
C121	C	1.898858	-0.303230	0.503438
C122	C	2.232191	0.030103	0.836771
C123	C	2.565524	0.363436	1.170104
C124	C	1.510206	-0.303153	0.775979
C125	C	1.843539	0.030181	1.109312
C126	C	2.176872	0.363514	1.442645
C127	C	1.510236	-0.303127	0.892132
C128	C	1.843569	0.030206	1.225465
C129	C	2.176903	0.363540	1.558799
C130	C	1.510297	-0.139023	0.503484
C131	C	1.843630	0.194310	0.836818
C132	C	2.176963	0.527644	1.170151
C133	C	1.510366	-0.069055	0.503517
C134	C	1.843699	0.264279	0.836850
C135	C	2.177032	0.597612	1.170183
C136	C	1.510124	-0.303228	0.231898
C137	C	1.843457	0.030105	0.565232
C138	C	2.176790	0.363439	0.898565
C139	C	1.510296	-0.303076	0.115746
C140	C	1.843629	0.030257	0.449079
C141	C	2.176963	0.363590	0.782413
C142	C	1.573798	-0.264861	0.943939
C143	C	1.907131	0.068472	1.277272
C144	C	2.240464	0.401806	1.610606
C145	C	1.573830	-0.264834	1.063990
C146	C	1.907164	0.068500	1.397323
C147	C	2.240497	0.401833	1.730656
H148	H	0.943338	-0.335946	0.448961
H149	H	1.276671	-0.002613	0.782295
H150	H	1.610005	0.330720	1.115628
F151	F	1.372480	-1.071308	0.365432
F152	F	1.705813	-0.737974	0.698765
F153	F	2.039146	-0.404641	1.032098
F154	F	1.439132	-0.345920	0.950321
F155	F	1.772465	-0.012586	1.283654
F156	F	2.105799	0.320747	1.616987
F157	F	0.892546	-0.222260	0.638273
F158	F	1.225880	0.111073	0.971607
F159	F	1.559213	0.444407	1.304940
H160	H	1.077883	-0.335928	0.448937
H161	H	1.411216	-0.002595	0.782270
H162	H	1.744550	0.330738	1.115604
H163	H	1.115329	-0.232284	0.621500
H164	H	1.448662	0.101049	0.954834
H165	H	1.781996	0.434383	1.288167
F166	F	1.644966	-0.222014	1.122220
F167	F	1.978300	0.111319	1.455553
F168	F	2.311633	0.444653	1.788886
F169	F	1.648245	-1.071022	0.641608
F170	F	1.981578	-0.737689	0.974942
F171	F	2.314912	-0.404356	1.308275
H172	H	1.455879	-0.335841	1.071200
H173	H	1.789213	-0.002508	1.404533
H174	H	2.122546	0.330825	1.737866
F175	F	1.647933	-0.534482	0.641442
F176	F	1.981266	-0.201148	0.974775
F177	F	2.314599	0.132185	1.308109
H178	H	1.631295	-0.661982	0.624766
H179	H	1.964628	-0.328649	0.958100
H180	H	2.297962	0.004685	1.291433
H181	H	1.628187	-0.232118	0.899416
H182	H	1.961520	0.101215	1.232750
H183	H	2.294854	0.434548	1.566083
F184	F	1.372133	-0.534762	0.365293
F185	F	1.705466	-0.201429	0.698627
F186	F	2.038799	0.131905	1.031960
F187	F	1.648183	-0.935318	0.641552
F188	F	1.981516	-0.601985	0.974886
F189	F	2.314850	-0.268652	1.308219
F190	F	1.372230	-0.670470	0.365329
F191	F	1.705563	-0.337137	0.698662
F192	F	2.038896	-0.003804	1.031996
H193	H	1.389104	-0.943804	0.382121
H194	H	1.722438	-0.610471	0.715454
H195	H	2.055771	-0.277138	1.048787
