data_functionalizedCrystal
_audit_creation_method	'MofGen! by Chris Wilmer'
_symmetry_space_group_name_H-M	'P1'
_symmetry_Int_Tables_number	1
_symmetry_cell_setting	triclinic
loop_
_symmetry_equiv_pos_as_xyz
  x,y,z
_cell_length_a	18.050590
_cell_length_b	18.050589
_cell_length_c	18.050582
_cell_angle_alpha	89.981795
_cell_angle_beta	89.999233
_cell_angle_gamma	89.982614
loop_
_atom_site_label
_atom_site_type_symbol
_atom_site_fract_x
_atom_site_fract_y
_atom_site_fract_z
Zn1	Zn	1.135292	0.295921	0.419624
Zn2	Zn	1.635292	0.795921	0.919624
Zn3	Zn	1.135203	0.420105	0.295444
Zn4	Zn	1.635203	0.920105	0.795444
Zn5	Zn	1.011112	0.295910	0.295482
Zn6	Zn	1.511112	0.795910	0.795482
Zn7	Zn	1.011060	0.420051	0.419626
Zn8	Zn	1.511060	0.920051	0.919626
O9	O	1.073167	0.357997	0.357544
O10	O	1.573167	0.857997	0.857544
O11	O	1.239205	0.312422	0.403134
O12	O	1.739205	0.812422	0.903134
O13	O	1.118727	0.403648	0.191524
O14	O	1.618727	0.903648	0.691524
O15	O	1.027644	0.191987	0.311965
O16	O	1.527644	0.691987	0.811965
O17	O	1.239140	0.403659	0.311899
O18	O	1.739140	0.903659	0.811899
O19	O	1.118879	0.191995	0.403172
O20	O	1.618879	0.691995	0.903172
O21	O	1.027557	0.312402	0.191553
O22	O	1.527557	0.812402	0.691553
O23	O	0.907180	0.312350	0.311967
O24	O	1.407180	0.812350	0.811967
O25	O	1.027555	0.403567	0.523550
O26	O	1.527555	0.903567	1.023550
O27	O	0.907142	0.403555	0.403175
O28	O	1.407142	0.903555	0.903175
O29	O	1.118828	0.312370	0.523549
O30	O	1.618828	0.812370	1.023549
O31	O	1.118676	0.524022	0.311901
O32	O	1.618676	1.024022	0.811901
O33	O	1.027468	0.523982	0.403138
O34	O	1.527468	1.023982	0.903138
C35	C	0.880215	0.357946	0.357576
C36	C	1.380215	0.857946	0.857576
C37	C	0.797669	0.357942	0.357607
C38	C	1.297669	0.857942	0.857607
C39	C	0.598219	0.407682	0.407088
C40	C	1.098219	0.907682	0.907088
C41	C	0.548826	0.339967	0.425358
C42	C	1.048826	0.839967	0.925358
C43	C	0.646538	0.357984	0.357571
C44	C	1.146538	0.857984	0.857571
C45	C	0.548850	0.425737	0.339300
C46	C	1.048850	0.925737	0.839300
C47	C	0.500553	0.358030	0.357537
C48	C	1.000553	0.858030	0.857537
C49	C	0.598233	0.290233	0.375876
C50	C	1.098233	0.790233	0.875876
C51	C	0.598261	0.376049	0.289787
C52	C	1.098261	0.876049	0.789787
C53	C	0.548890	0.308287	0.308031
C54	C	1.048890	0.808287	0.808031
C55	C	0.730637	0.357958	0.357592
C56	C	1.230637	0.857958	0.857592
C57	C	0.416457	0.358047	0.357516
C58	C	0.916457	0.858047	0.857516
C59	C	1.073077	0.550949	0.357532
C60	C	1.573077	1.050949	0.857532
C61	C	1.073107	0.633494	0.357551
C62	C	1.573107	1.133494	0.857551
C63	C	1.073196	0.357964	0.551250
C64	C	1.573196	0.857964	1.051250
C65	C	1.073208	0.357950	0.633796
C66	C	1.573208	0.857950	1.133796
C67	C	1.266872	0.358048	0.357512
C68	C	1.766872	0.858048	0.857512
C69	C	1.349418	0.358070	0.357499
C70	C	1.849418	0.858070	0.857499
C71	C	1.073277	0.164291	0.357573
C72	C	1.573277	0.664291	0.857573
C73	C	1.073324	0.081745	0.357585
C74	C	1.573324	0.581745	0.857585
C75	C	1.023557	0.832950	0.407148
C76	C	1.523557	1.332950	0.907148
C77	C	1.005459	0.882381	0.339386
C78	C	1.505459	1.382381	0.839386
C79	C	1.073180	0.784625	0.357561
C80	C	1.573180	1.284625	0.857561
C81	C	1.091314	0.882276	0.425331
C82	C	1.591314	1.382276	0.925331
C83	C	1.073249	0.930610	0.357576
C84	C	1.573249	1.430610	0.857576
C85	C	1.055046	0.832968	0.289763
C86	C	1.555046	1.332968	0.789763
C87	C	1.140933	0.832859	0.375754
C88	C	1.640933	1.332859	0.875754
C89	C	1.122861	0.882267	0.307945
C90	C	1.622861	1.382267	0.807945
C91	C	1.073138	0.700527	0.357553
C92	C	1.573138	1.200527	0.857553
C93	C	1.073290	1.014706	0.357576
C94	C	1.573290	1.514706	0.857576
C95	C	1.073180	0.357976	0.164592
C96	C	1.573180	0.857976	0.664592
C97	C	1.073312	0.357781	0.082047
C98	C	1.573312	0.857781	0.582047
C99	C	1.023612	0.407475	0.833247
C100	C	1.523612	0.907475	1.333247
C101	C	1.091367	0.425641	0.882621
C102	C	1.591367	0.925641	1.382621
C103	C	1.073245	0.357893	0.784926
C104	C	1.573245	0.857893	1.284926
C105	C	1.005527	0.339706	0.882634
C106	C	1.505527	0.839706	1.382634
C107	C	1.073274	0.357840	0.930911
C108	C	1.573274	0.857840	1.430911
C109	C	1.141036	0.376095	0.833213
C110	C	1.641036	0.876095	1.333213
C111	C	1.055150	0.290128	0.833221
C112	C	1.555150	0.790128	1.333221
C113	C	1.122952	0.308269	0.882573
C114	C	1.622952	0.808269	1.382573
C115	C	1.073227	0.357926	0.700828
C116	C	1.573227	0.857926	1.200828
C117	C	1.073300	0.357807	1.015008
C118	C	1.573300	0.857807	1.515008
H119	H	0.527154	0.483016	0.323863
H120	H	1.027154	0.983016	0.823863
H121	H	1.106690	0.482926	0.904320
H122	H	1.606690	0.982926	1.404320
H123	H	1.164986	0.266316	0.904094
H124	H	1.664986	0.766316	1.404094
H125	H	0.981678	0.449460	0.811589
H126	H	1.481678	0.949460	1.311589
C127	C	1.034428	0.212766	0.803877
C128	C	1.534428	0.712766	1.303877
H129	H	1.074068	0.193783	0.774919
H130	H	1.574068	0.693783	1.274919
H131	H	0.991123	0.216307	0.774183
H132	H	1.491123	0.716307	1.274183
H133	H	1.025317	0.180474	0.844434
H134	H	1.525317	0.680474	1.344434
H135	H	0.619834	0.232937	0.391380
H136	H	1.119834	0.732937	0.891380
H137	H	0.527112	0.324702	0.482668
H138	H	1.027112	0.824702	0.982668
H139	H	1.198333	0.391520	0.811596
H140	H	1.698333	0.891520	1.311596
H141	H	0.619992	0.391334	0.232494
H142	H	1.119992	0.891334	0.732494
H143	H	1.106625	0.903935	0.482637
H144	H	1.606625	1.403935	0.982637
C145	C	0.519806	0.251476	0.251445
C146	C	1.019806	0.751476	0.751445
H147	H	0.536807	0.203406	0.264533
H148	H	1.036807	0.703406	0.764533
H149	H	0.537481	0.263882	0.203451
H150	H	1.037481	0.763882	0.703451
H151	H	0.467179	0.252082	0.251455
H152	H	0.967179	0.752082	0.751455
C153	C	0.966788	0.803689	0.463715
C154	C	1.466788	1.303689	0.963715
H155	H	0.918695	0.820648	0.450670
H156	H	1.418695	1.320648	0.950670
H157	H	0.979172	0.821296	0.511730
H158	H	1.479172	1.321296	1.011730
H159	H	0.967464	0.751063	0.463629
H160	H	1.467464	1.251063	0.963629
C161	C	1.218272	0.803445	0.396561
C162	C	1.718272	1.303445	0.896561
H163	H	1.237289	0.774498	0.356936
H164	H	1.737289	1.274498	0.856936
H165	H	1.214688	0.773726	0.439852
H166	H	1.714688	1.273726	0.939852
H167	H	1.250560	0.843972	0.405724
H168	H	1.750560	1.343972	0.905724
C169	C	1.179588	0.911344	0.251243
C170	C	1.679588	1.411344	0.751243
H171	H	1.166609	0.894370	0.203150
H172	H	1.666609	1.394370	0.703150
H173	H	1.227549	0.893638	0.263750
H174	H	1.727549	1.393638	0.763750
H175	H	1.179589	0.963971	0.251837
H176	H	1.679589	1.463971	0.751837
C177	C	0.928099	0.911771	0.318601
C178	C	1.428099	1.411771	0.818601
H179	H	0.892872	0.894890	0.353875
H180	H	1.392872	1.394890	0.853875
H181	H	0.914899	0.894163	0.270804
H182	H	1.414899	1.394163	0.770804
H183	H	0.928798	0.964395	0.318318
H184	H	1.428798	1.464395	0.818318
C185	C	1.034266	0.803836	0.212328
C186	C	1.534266	1.303836	0.712328
H187	H	1.034341	0.751206	0.212802
H188	H	1.534341	1.251206	0.712802
H189	H	1.069316	0.821115	0.177079
H190	H	1.569316	1.321115	0.677079
H191	H	0.986306	0.821205	0.199338
H192	H	1.486306	1.321205	0.699338
C193	C	0.928149	0.318951	0.911958
C194	C	1.428149	0.818951	1.411958
H195	H	0.892938	0.354248	0.895060
H196	H	1.392938	0.854248	1.395060
H197	H	0.928822	0.318636	0.964579
H198	H	1.428822	0.818636	1.464579
H199	H	0.914942	0.271169	0.894310
H200	H	1.414942	0.771169	1.394310
H201	H	0.619881	0.449636	0.449011
H202	H	1.119881	0.949636	0.949011
