data_functionalizedCrystal
_audit_creation_method	'MofGen! by Chris Wilmer'
_symmetry_space_group_name_H-M	'P1'
_symmetry_Int_Tables_number	1
_symmetry_cell_setting	triclinic
loop_
_symmetry_equiv_pos_as_xyz
  x,y,z
_cell_length_a	10.723022
_cell_length_b	9.198806
_cell_length_c	10.723023
_cell_angle_alpha	89.997827
_cell_angle_beta	84.467387
_cell_angle_gamma	89.996352
loop_
_atom_site_label
_atom_site_type_symbol
_atom_site_fract_x
_atom_site_fract_y
_atom_site_fract_z
O1	O	1.657188	-0.120880	0.175015
O2	O	1.294036	-0.120884	0.191771
O3	O	1.483989	-0.120876	0.001817
O4	O	1.467235	-0.120888	0.364969
O5	O	1.483974	0.120909	0.001816
O6	O	1.294021	0.120901	0.191770
O7	O	1.657173	0.120905	0.175015
Cu8	Cu	1.475596	0.142980	0.183392
Cu9	Cu	1.475613	-0.142959	0.183393
O10	O	1.467220	0.120897	0.364969
C11	C	1.247529	0.000008	0.190551
C12	C	1.108974	0.000006	0.186904
C13	C	1.482763	0.000015	-0.044683
C14	C	1.479115	0.000010	-0.183238
C15	C	0.890796	-0.000000	0.289421
C16	C	1.033998	0.000001	0.293192
C17	C	1.703681	0.000010	0.176234
C18	C	1.842235	0.000003	0.179881
N19	N	1.475592	0.344094	0.183391
N20	N	1.475627	-0.344073	0.183384
C21	C	1.555348	0.416295	0.103283
C22	C	1.555367	0.583707	0.103279
C23	C	1.473712	0.125252	-0.388212
C24	C	1.477481	0.125260	-0.245009
C25	C	1.468446	0.000003	0.411469
C26	C	1.472094	-0.000002	0.550023
H27	H	0.826353	-0.000013	0.380409
H28	H	1.407319	0.406219	0.251967
H29	H	1.067171	-0.000030	0.093113
H30	H	1.623612	0.354171	0.034698
H31	H	1.477730	-0.107230	-0.236347
F32	F	1.471861	0.265413	-0.457658
H33	H	1.075810	0.000007	0.386980
F34	F	1.473922	-0.140163	-0.380528
F35	F	1.386376	0.574785	0.273041
F36	F	0.926460	-0.000003	0.060947
F37	F	1.479309	0.265428	-0.175587
F38	F	1.644626	0.664859	0.013638
