data_functionalizedCrystal
_audit_creation_method	'MofGen! by Chris Wilmer'
_symmetry_space_group_name_H-M	'P1'
_symmetry_Int_Tables_number	1
_symmetry_cell_setting	triclinic
loop_
_symmetry_equiv_pos_as_xyz
  x,y,z
_cell_length_a	21.295418
_cell_length_b	21.295417
_cell_length_c	21.295420
_cell_angle_alpha	90.017552
_cell_angle_beta	90.034650
_cell_angle_gamma	90.046319
loop_
_atom_site_label
_atom_site_type_symbol
_atom_site_fract_x
_atom_site_fract_y
_atom_site_fract_z
Zn1	Zn	0.962299	-0.250441	0.356233
Zn2	Zn	1.295633	0.082893	0.689567
Zn3	Zn	1.628966	0.416226	1.022900
Zn4	Zn	0.962218	-0.355685	0.250959
Zn5	Zn	1.295552	-0.022352	0.584292
Zn6	Zn	1.628885	0.310982	0.917626
Zn7	Zn	0.857039	-0.250463	0.250943
Zn8	Zn	1.190372	0.082871	0.584277
Zn9	Zn	1.523706	0.416204	0.917610
Zn10	Zn	0.856992	-0.355705	0.356155
Zn11	Zn	1.190325	-0.022372	0.689489
Zn12	Zn	1.523659	0.310962	1.022822
O13	O	0.909637	-0.303073	0.303573
O14	O	1.242970	0.030260	0.636906
O15	O	1.576304	0.363593	0.970239
O16	O	1.050378	-0.264384	0.342308
O17	O	1.383711	0.068949	0.675641
O18	O	1.717045	0.402283	1.008974
O19	O	0.948252	-0.341728	0.162867
O20	O	1.281585	-0.008395	0.496201
O21	O	1.614919	0.324939	0.829534
O22	O	0.871056	-0.162370	0.264936
O23	O	1.204389	0.170963	0.598270
O24	O	1.537722	0.504296	0.931603
O25	O	1.050319	-0.341707	0.264963
O26	O	1.383652	-0.008373	0.598296
O27	O	1.716985	0.324960	0.931630
O28	O	0.948390	-0.162354	0.342293
O29	O	1.281723	0.170979	0.675626
O30	O	1.615057	0.504312	1.008959
O31	O	0.870977	-0.264422	0.162856
O32	O	1.204311	0.068912	0.496189
O33	O	1.537644	0.402245	0.829523
O34	O	0.768943	-0.264441	0.264861
O35	O	1.102277	0.068892	0.598194
O36	O	1.435610	0.402226	0.931527
O37	O	0.870975	-0.341741	0.444255
O38	O	1.204308	-0.008407	0.777588
O39	O	1.537642	0.324926	1.110922
O40	O	0.768909	-0.341762	0.342159
O41	O	1.102242	-0.008429	0.675493
O42	O	1.435575	0.324905	1.008826
O43	O	0.948344	-0.264403	0.444312
O44	O	1.281677	0.068930	0.777646
O45	O	1.615011	0.402263	1.110979
O46	O	0.948206	-0.443777	0.264887
O47	O	1.281540	-0.110444	0.598221
O48	O	1.614873	0.222890	0.931554
O49	O	0.870897	-0.443792	0.342175
O50	O	1.204230	-0.110458	0.675508
O51	O	1.537563	0.222875	1.008841
C52	C	0.909555	-0.466625	0.303538
C53	C	1.242888	-0.133292	0.636871
C54	C	1.576221	0.200042	0.970204
C55	C	0.909577	-0.536593	0.303544
C56	C	1.242910	-0.203260	0.636877
C57	C	1.576244	0.130074	0.970211
C58	C	0.746085	-0.303106	0.303500
C59	C	1.079419	0.030227	0.636834
C60	C	1.412752	0.363560	0.970167
C61	C	0.676117	-0.303136	0.303484
C62	C	1.009451	0.030198	0.636818
C63	C	1.342784	0.363531	0.970151
C64	C	0.949868	-0.569431	0.263342
C65	C	1.283201	-0.236098	0.596675
C66	C	1.616534	0.097235	0.930008
C67	C	0.949897	-0.635174	0.263356
C68	C	1.283231	-0.301840	0.596689
C69	C	1.616564	0.031493	0.930023
C70	C	0.909625	-0.668076	0.303566
C71	C	1.242958	-0.334742	0.636899
C72	C	1.576291	-0.001409	0.970232
C73	C	0.869331	-0.635230	0.343776
C74	C	1.202664	-0.301896	0.677109
C75	C	1.535998	0.031437	1.010442
C76	C	0.869307	-0.569488	0.343765
C77	C	1.202641	-0.236155	0.677098
C78	C	1.535974	0.097178	1.010432
N79	N	0.854557	-0.771358	0.308340
N80	N	1.187890	-0.438024	0.641674
N81	N	1.521224	-0.104691	0.975007
N82	N	0.854581	-0.833809	0.308347
N83	N	1.187915	-0.500476	0.641680
N84	N	1.521248	-0.167143	0.975014
C85	C	0.909695	-0.866150	0.303602
C86	C	1.243029	-0.532817	0.636935
C87	C	1.576362	-0.199484	0.970268
N88	N	0.964785	-0.833681	0.298838
N89	N	1.298118	-0.500347	0.632171
N90	N	1.631452	-0.167014	0.965504
N91	N	0.964760	-0.771223	0.298828
N92	N	1.298093	-0.437890	0.632161
N93	N	1.631426	-0.104557	0.965494
C94	C	0.909646	-0.739361	0.303582
C95	C	1.242980	-0.406028	0.636916
C96	C	1.576313	-0.072694	0.970249
C97	C	0.950021	-0.970274	0.263413
C98	C	1.283355	-0.636941	0.596746
C99	C	1.616688	-0.303607	0.930079
C100	C	0.950052	-1.036018	0.263431
C101	C	1.283385	-0.702684	0.596765
C102	C	1.616719	-0.369351	0.930098
C103	C	0.869480	-1.036072	0.343848
C104	C	1.202813	-0.702739	0.677181
C105	C	1.536147	-0.369406	1.010515
C106	C	0.869455	-0.970330	0.343833
C107	C	1.202789	-0.636996	0.677166
C108	C	1.536122	-0.303663	1.010499
C109	C	0.909725	-0.937435	0.303612
C110	C	1.243058	-0.604101	0.636945
C111	C	1.576392	-0.270768	0.970278
C112	C	0.643249	-0.343450	0.343673
C113	C	0.976582	-0.010117	0.677007
C114	C	1.309916	0.323216	1.010340
C115	C	0.577507	-0.343435	0.343702
C116	C	0.910840	-0.010101	0.677035
C117	C	1.244173	0.323232	1.010368
C118	C	0.544635	-0.303111	0.303529
C119	C	0.877968	0.030222	0.636863
C120	C	1.211302	0.363555	0.970196
C121	C	0.577511	-0.262789	0.263337
C122	C	0.910844	0.070544	0.596671
C123	C	1.244178	0.403877	0.930004
C124	C	0.643252	-0.262801	0.263315
C125	C	0.976586	0.070532	0.596648
C126	C	1.309919	0.403865	0.929981
N127	N	0.441368	-0.298180	0.248472
N128	N	0.774701	0.035153	0.581805
N129	N	1.108034	0.368486	0.915139
N130	N	0.378916	-0.298172	0.248495
N131	N	0.712250	0.035161	0.581829
N132	N	1.045583	0.368494	0.915162
C133	C	0.346560	-0.303071	0.303596
C134	C	0.679894	0.030262	0.636930
C135	C	1.013227	0.363595	0.970263
N136	N	0.379015	-0.307991	0.358674
N137	N	0.712348	0.025343	0.692008
N138	N	1.045682	0.358676	1.025341
N139	N	0.441472	-0.308002	0.358650
N140	N	0.774805	0.025332	0.691984
N141	N	1.108139	0.358665	1.025317
C142	C	0.473350	-0.303093	0.303550
C143	C	0.806683	0.030240	0.636883
C144	C	1.140016	0.363573	0.970216
C145	C	0.242406	-0.343371	0.343820
C146	C	0.575740	-0.010038	0.677153
C147	C	0.909073	0.323296	1.010486
C148	C	0.176663	-0.343351	0.343849
C149	C	0.509996	-0.010018	0.677182
C150	C	0.843329	0.323316	1.010516
C151	C	0.176669	-0.262709	0.263479
C152	C	0.510002	0.070624	0.596812
C153	C	0.843335	0.403958	0.930146
C154	C	0.242411	-0.262725	0.263455
C155	C	0.575744	0.070608	0.596789
C156	C	0.909078	0.403941	0.930122
C157	C	0.275276	-0.303060	0.303625
C158	C	0.608609	0.030273	0.636958
C159	C	0.941943	0.363607	0.970291
C160	C	1.073827	-0.303041	0.303646
C161	C	1.407161	0.030293	0.636979
C162	C	1.740494	0.363626	0.970312
C163	C	1.143796	-0.303027	0.303677
C164	C	1.477129	0.030307	0.637010
C165	C	1.810462	0.363640	0.970344
C166	C	0.909663	-0.303072	0.467763
C167	C	1.242997	0.030262	0.801096
C168	C	1.576330	0.363595	1.134430
C169	C	0.909675	-0.303071	0.537731
C170	C	1.243008	0.030262	0.871064
C171	C	1.576341	0.363596	1.204398
C172	C	0.909737	-0.138883	0.303622
C173	C	1.243070	0.194450	0.636955
C174	C	1.576404	0.527784	0.970288
C175	C	0.909780	-0.068915	0.303642
C176	C	1.243113	0.264418	0.636976
C177	C	1.576446	0.597752	0.970309
C178	C	0.869444	-0.262821	0.570582
C179	C	1.202777	0.070513	0.903915
C180	C	1.536110	0.403846	1.237248
C181	C	0.869432	-0.262824	0.636324
C182	C	1.202766	0.070509	0.969658
C183	C	1.536099	0.403843	1.302991
C184	C	0.909663	-0.303071	0.669214
C185	C	1.242996	0.030262	1.002547
C186	C	1.576329	0.363595	1.335880
C187	C	0.949896	-0.343330	0.636355
C188	C	1.283230	-0.009996	0.969688
C189	C	1.616563	0.323337	1.303022
C190	C	0.949902	-0.343329	0.570614
C191	C	1.283236	-0.009996	0.903947
C192	C	1.616569	0.323337	1.237280
N193	N	0.964753	-0.307887	0.772470
N194	N	1.298086	0.025446	1.105804
N195	N	1.631419	0.358779	1.439137
N196	N	0.964745	-0.307884	0.834922
N197	N	1.298079	0.025450	1.168255
N198	N	1.631412	0.358783	1.501588
C199	C	0.909647	-0.303075	0.867288
C200	C	1.242980	0.030259	1.200622
C201	C	1.576313	0.363592	1.533955
N202	N	0.854554	-0.298257	0.834844
N203	N	1.187887	0.035076	1.168178
N204	N	1.521221	0.368409	1.501511
N205	N	0.854562	-0.298258	0.772387
N206	N	1.187896	0.035076	1.105720
N207	N	1.521229	0.368409	1.439054
C208	C	0.909661	-0.303076	0.740499
C209	C	1.242994	0.030257	1.073832
C210	C	1.576327	0.363591	1.407166
C211	C	0.869400	-0.262826	0.971425
C212	C	1.202733	0.070508	1.304758
C213	C	1.536067	0.403841	1.638091
C214	C	0.869387	-0.262833	1.037168
C215	C	1.202721	0.070500	1.370502
C216	C	1.536054	0.403833	1.703835
C217	C	0.949857	-0.343336	1.037198
C218	C	1.283191	-0.010002	1.370531
C219	C	1.616524	0.323331	1.703864
C220	C	0.949864	-0.343331	0.971455
C221	C	1.283198	-0.009998	1.304788
C222	C	1.616531	0.323335	1.638122
C223	C	0.909636	-0.303073	0.938573
C224	C	1.242970	0.030260	1.271906
C225	C	1.576303	0.363594	1.605239
C226	C	0.909612	-0.303087	1.140021
C227	C	1.242945	0.030246	1.473354
C228	C	1.576279	0.363580	1.806688
C229	C	0.909618	-0.303082	1.070053
C230	C	1.242951	0.030252	1.403386
C231	C	1.576284	0.363585	1.736720
H232	H	0.982659	-0.542650	0.230593
H233	H	1.315993	-0.209316	0.563926
H234	H	1.649326	0.124017	0.897260
H235	H	0.836497	-0.542751	0.376503
H236	H	1.169830	-0.209418	0.709837
H237	H	1.503164	0.123916	1.043170
H238	H	0.149905	-0.229874	0.230773
H239	H	0.483238	0.103459	0.564106
H240	H	0.816572	0.436793	0.897439
H241	H	0.269173	-0.229900	0.230725
H242	H	0.602506	0.103433	0.564059
H243	H	0.935839	0.436766	0.897392
H244	H	0.550743	-0.229957	0.230630
H245	H	0.884076	0.103377	0.563963
H246	H	1.217409	0.436710	0.897297
H247	H	0.982814	-0.943490	0.230664
H248	H	1.316147	-0.610156	0.563998
H249	H	1.649480	-0.276823	0.897331
H250	H	0.836542	-0.662023	0.376516
H251	H	1.169875	-0.328689	0.709849
H252	H	1.503209	0.004644	1.043183
Br253	Br	1.004491	-0.397956	0.680988
Br254	Br	1.337824	-0.064623	1.014322
Br255	Br	1.671157	0.268710	1.347655
H256	H	0.836685	-0.230042	0.543813
H257	H	1.170018	0.103292	0.877146
H258	H	1.503351	0.436625	1.210480
H259	H	0.836672	-0.230044	0.663077
H260	H	1.170006	0.103289	0.996410
H261	H	1.503339	0.436623	1.329743
Br262	Br	1.004744	-1.080585	0.208873
Br263	Br	1.338077	-0.747252	0.542206
Br264	Br	1.671411	-0.413919	0.875539
H265	H	0.269167	-0.376210	0.376531
H266	H	0.602500	-0.042877	0.709865
H267	H	0.935833	0.290456	1.043198
H268	H	0.836692	-1.062860	0.376590
H269	H	1.170026	-0.729527	0.709924
H270	H	1.503359	-0.396194	1.043257
H271	H	0.982666	-0.376106	0.543867
H272	H	1.315999	-0.042772	0.877200
H273	H	1.649333	0.290561	1.210534
Br274	Br	1.004582	-0.679750	0.208792
Br275	Br	1.337915	-0.346416	0.542125
Br276	Br	1.671248	-0.013083	0.875459
Br277	Br	0.687863	-0.208083	0.208769
Br278	Br	1.021196	0.125250	0.542102
Br279	Br	1.354529	0.458583	0.875436
H280	H	0.836622	-0.230059	1.063914
H281	H	1.169955	0.103275	1.397248
H282	H	1.503289	0.436608	1.730581
Br283	Br	0.814804	-0.208194	0.926794
Br284	Br	1.148138	0.125140	1.260128
Br285	Br	1.481471	0.458473	1.593461
Br286	Br	0.532890	-0.398150	0.398250
Br287	Br	0.866223	-0.064816	0.731583
Br288	Br	1.199556	0.268517	1.064916
H289	H	0.670004	-0.376293	0.376384
H290	H	1.003337	-0.042959	0.709717
H291	H	1.336670	0.290374	1.043050
H292	H	0.149903	-0.376179	0.376580
H293	H	0.483236	-0.042845	0.709913
H294	H	0.816569	0.290488	1.043246
H295	H	0.982626	-0.376106	0.944708
H296	H	1.315959	-0.042773	1.278041
H297	H	1.649293	0.290561	1.611374
Br298	Br	0.814770	-0.925760	0.398395
Br299	Br	1.148104	-0.592427	0.731728
Br300	Br	1.481437	-0.259094	1.065061
Br301	Br	1.004451	-0.397964	1.081826
Br302	Br	1.337784	-0.064631	1.415159
Br303	Br	1.671118	0.268702	1.748492
