data_functionalizedCrystal
_audit_creation_method	'MofGen! by Chris Wilmer'
_symmetry_space_group_name_H-M	'P1'
_symmetry_Int_Tables_number	1
_symmetry_cell_setting	triclinic
loop_
_symmetry_equiv_pos_as_xyz
  x,y,z
_cell_length_a	16.109302
_cell_length_b	15.995350
_cell_length_c	14.586319
_cell_angle_alpha	89.997955
_cell_angle_beta	90.007794
_cell_angle_gamma	83.477078
loop_
_atom_site_label
_atom_site_type_symbol
_atom_site_fract_x
_atom_site_fract_y
_atom_site_fract_z
O1	O	1.103163	0.107622	0.076277
O2	O	0.861104	0.121015	0.076269
O3	O	0.988750	-0.007571	0.076272
O4	O	0.975517	0.236208	0.076274
O5	O	0.988735	-0.007563	-0.076208
O6	O	0.861089	0.121023	-0.076212
O7	O	1.103147	0.107630	-0.076204
Cu8	Cu	0.982117	0.114327	-0.090130
Cu9	Cu	0.982135	0.114318	0.090196
O10	O	0.975501	0.236216	-0.076207
C11	C	0.830122	0.120476	0.000028
C12	C	0.737826	0.118850	0.000025
C13	C	0.525476	0.115092	-0.083083
C14	C	0.438755	0.113555	-0.083080
C15	C	0.438783	0.113551	0.083163
C16	C	0.525502	0.115082	0.083159
C17	C	0.568846	0.115857	0.000033
C18	C	0.395406	0.112788	0.000040
C19	C	0.301380	0.111121	0.000044
C20	C	0.662878	0.117523	0.000029
C21	C	0.988196	-0.038761	0.000034
C22	C	0.986555	-0.131711	0.000039
C23	C	0.980665	-0.469457	0.000036
C24	C	0.889758	-0.421999	0.000375
C25	C	0.891398	-0.325309	0.000031
C26	C	0.983587	-0.301898	0.000038
C27	C	1.028416	-0.342983	-0.087033
C28	C	1.026133	-0.439618	-0.087106
C29	C	1.028028	-0.439985	0.086293
C30	C	1.028007	-0.343040	0.087444
C31	C	0.985243	-0.207201	0.000036
C32	C	0.979012	-0.564155	0.000031
C33	C	1.134130	0.108169	0.000039
C34	C	1.226426	0.109795	0.000048
C35	C	0.976056	0.267407	0.000034
C36	C	0.977696	0.360357	0.000034
N37	N	0.982110	0.114333	-0.216962
C38	C	1.032546	0.165119	-0.451967
C39	C	1.032555	0.165113	-0.547948
C40	C	0.931710	0.063513	-0.547961
C41	C	0.931706	0.063515	-0.451982
C42	C	0.982123	0.114323	-0.403987
C43	C	0.982135	0.114315	-0.595948
C44	C	0.982144	0.114309	-0.700015
C45	C	0.982115	0.114329	-0.299913
N46	N	0.982149	0.114306	0.217027
H47	H	0.560763	0.115723	-0.150770
H48	H	1.095054	-0.471764	0.086883
H49	H	0.998313	-0.460520	0.152288
H50	H	0.890645	0.022147	-0.412916
H51	H	0.856159	-0.296880	0.062447
H52	H	0.560816	0.115703	0.150846
H53	H	0.403481	0.112920	0.150841
O54	O	0.882753	0.014244	-0.594725
C55	C	0.893531	0.025164	-0.689729
H56	H	0.917200	0.088607	-0.702821
H57	H	0.940899	-0.027312	-0.717004
C58	C	0.780272	-0.055642	-0.722897
C59	C	0.809336	0.022283	-0.738977
H60	H	0.728338	-0.057423	-0.753277
H61	H	0.773012	-0.063002	-0.658891
H62	H	0.819753	-0.099364	-0.745626
H63	H	0.769860	0.066002	-0.716237
H64	H	0.816587	0.029650	-0.802981
H65	H	0.993430	-0.457907	-0.152198
H66	H	0.403447	0.112932	-0.150762
H67	H	0.853430	-0.440524	0.062815
O68	O	0.846724	-0.445412	-0.073775
C69	C	0.898401	-0.504544	-0.125939
H70	H	0.966713	-0.497358	-0.111125
H71	H	0.885094	-0.570851	-0.106889
C72	C	0.796649	-0.498101	-0.246859
C73	C	0.880551	-0.489270	-0.228670
H74	H	0.785637	-0.488682	-0.310229
H75	H	0.761831	-0.458265	-0.211714
H76	H	0.785570	-0.553357	-0.230978
H77	H	0.891626	-0.434011	-0.244541
H78	H	0.915371	-0.529096	-0.263821
H79	H	0.855909	-0.297431	-0.062494
H80	H	1.073599	0.206490	-0.412892
H81	H	1.092875	-0.471884	-0.091052
O82	O	1.109185	-0.326044	-0.090782
C83	C	1.126419	-0.276701	-0.014497
H84	H	1.065610	-0.242181	0.012742
H85	H	1.157487	-0.319083	0.041489
C86	C	1.260105	-0.254579	-0.077044
C87	C	1.185419	-0.212175	-0.043594
H88	H	1.296502	-0.214779	-0.094990
H89	H	1.248497	-0.287825	-0.128437
H90	H	1.285985	-0.289896	-0.030383
H91	H	1.159535	-0.176868	-0.090257
H92	H	1.197024	-0.178922	0.007792
O93	O	0.991136	-0.309200	-0.164316
C94	C	0.906523	-0.324035	-0.165317
H95	H	0.898033	-0.380643	-0.120212
H96	H	0.866144	-0.266249	-0.138002
C97	C	0.890538	-0.272303	-0.319638
C98	C	0.880112	-0.341836	-0.264244
H99	H	0.874243	-0.283280	-0.380661
H100	H	0.947542	-0.262305	-0.318963
H101	H	0.856888	-0.224155	-0.296864
H102	H	0.913769	-0.389980	-0.287011
H103	H	0.823112	-0.351842	-0.264925
H104	H	1.073616	0.206476	-0.587009
H105	H	0.995231	-0.315786	0.151857
H106	H	1.095235	-0.327696	0.092706
