data_functionalizedCrystal
_audit_creation_method	'MofGen! by Chris Wilmer'
_symmetry_space_group_name_H-M	'P1'
_symmetry_Int_Tables_number	1
_symmetry_cell_setting	triclinic
loop_
_symmetry_equiv_pos_as_xyz
  x,y,z
_cell_length_a	19.121063
_cell_length_b	17.639504
_cell_length_c	17.640968
_cell_angle_alpha	109.667320
_cell_angle_beta	81.648500
_cell_angle_gamma	75.919471
loop_
_atom_site_label
_atom_site_type_symbol
_atom_site_fract_x
_atom_site_fract_y
_atom_site_fract_z
Zn1	Zn	0.092852	-1.358111	-0.717567
Zn2	Zn	0.592852	-0.858111	-0.217567
Zn3	Zn	-0.054391	-1.324240	-0.585580
Zn4	Zn	0.445609	-0.824240	-0.085580
Zn5	Zn	0.033334	-1.190014	-0.554203
Zn6	Zn	0.533334	-0.690014	-0.054203
Zn7	Zn	-0.054319	-1.214332	-0.695458
Zn8	Zn	0.445681	-0.714332	-0.195458
O9	O	0.004369	-1.271674	-0.638202
O10	O	0.504369	-0.771674	-0.138202
O11	O	0.098198	-1.469963	-0.722443
O12	O	0.598198	-0.969963	-0.222443
O13	O	-0.067693	-1.282083	-0.467065
O14	O	0.432307	-0.782083	0.032935
O15	O	0.139534	-1.216310	-0.571995
O16	O	0.639534	-0.716310	-0.071995
O17	O	-0.009981	-1.445079	-0.625472
O18	O	0.490019	-0.945079	-0.125472
O19	O	0.183262	-1.339810	-0.692018
O20	O	0.683262	-0.839810	-0.192018
O21	O	-0.003242	-1.183467	-0.444012
O22	O	0.496758	-0.683467	0.055988
O23	O	-0.003172	-1.076894	-0.550557
O24	O	0.496828	-0.576894	-0.050557
O25	O	-0.009857	-1.257757	-0.812744
O26	O	0.490143	-0.757757	-0.312744
O27	O	-0.067570	-1.094761	-0.654337
O28	O	0.432430	-0.594761	-0.154337
O29	O	0.098269	-1.363390	-0.828987
O30	O	0.598269	-0.863390	-0.328987
O31	O	-0.152686	-1.305663	-0.604034
O32	O	0.347314	-0.805663	-0.104034
O33	O	-0.152633	-1.224914	-0.684761
O34	O	0.347367	-0.724914	-0.184761
C35	C	-0.041822	-1.055660	-0.596643
C36	C	0.458178	-0.555660	-0.096643
C37	C	-0.061595	-0.963252	-0.578885
C38	C	0.438405	-0.463252	-0.078885
C39	C	0.154691	-0.724147	-0.773300
C40	C	0.654691	-0.224147	-0.273300
C41	C	0.136090	-0.637311	-0.756597
C42	C	0.636090	-0.137311	-0.256597
C43	C	0.023559	-0.611395	-0.655465
C44	C	0.523559	-0.111395	-0.155465
C45	C	0.042149	-0.698231	-0.672162
C46	C	0.542149	-0.198231	-0.172162
C47	C	0.107717	-0.754601	-0.731080
C48	C	0.607717	-0.254601	-0.231080
C49	C	-0.004825	-0.728685	-0.629942
C50	C	0.495175	-0.228685	-0.129942
C51	C	0.013765	-0.815512	-0.646636
C52	C	0.513765	-0.315512	-0.146636
C53	C	0.079331	-0.871887	-0.705549
C54	C	0.579331	-0.371887	-0.205549
C55	C	0.126307	-0.841429	-0.747773
C56	C	0.626307	-0.341429	-0.247773
C57	C	-0.070389	-0.672313	-0.571021
C58	C	0.429611	-0.172313	-0.071021
C59	C	-0.117364	-0.702766	-0.528801
C60	C	0.382636	-0.202766	-0.028801
C61	C	-0.098776	-0.789596	-0.545498
C62	C	0.401224	-0.289596	-0.045498
C63	C	-0.033211	-0.845971	-0.604411
C64	C	0.466789	-0.345971	-0.104411
C65	C	-0.145753	-0.820054	-0.503274
C66	C	0.354247	-0.320054	-0.003274
C67	C	-0.127162	-0.906882	-0.519967
C68	C	0.372838	-0.406882	-0.019967
C69	C	-0.014620	-0.932799	-0.621104
C70	C	0.485380	-0.432799	-0.121104
C71	C	-0.178140	-1.264279	-0.645425
C72	C	0.321860	-0.764279	-0.145425
C73	C	-0.256196	-1.261197	-0.648557
C74	C	0.243804	-0.761197	-0.148557
C75	C	-0.292853	-1.301841	-0.608050
C76	C	0.207147	-0.801841	-0.108050
C77	C	-0.366193	-1.298948	-0.611001
C78	C	0.133807	-0.798948	-0.111001
C79	C	-0.402876	-1.255406	-0.654456
C80	C	0.097124	-0.755406	-0.154456
C81	C	-0.366213	-1.214761	-0.694968
C82	C	0.133787	-0.714761	-0.194968
C83	C	-0.292873	-1.217659	-0.692021
C84	C	0.207127	-0.717659	-0.192021
C85	C	-0.624315	-1.244554	-0.665458
C86	C	-0.124315	-0.744554	-0.165458
C87	C	-0.697661	-1.241656	-0.668400
C88	C	-0.197661	-0.741656	-0.168400
C89	C	-0.697636	-1.325846	-0.584434
C90	C	-0.197636	-0.825846	-0.084434
C91	C	-0.624296	-1.328736	-0.581486
C92	C	-0.124296	-0.828736	-0.081486
C93	C	-0.587638	-1.288094	-0.622003
C94	C	-0.087638	-0.788094	-0.122003
C95	C	-0.477842	-1.252446	-0.657471
C96	C	0.022158	-0.752446	-0.157471
C97	C	-0.512671	-1.291060	-0.618992
C98	C	-0.012671	-0.791060	-0.118992
C99	C	0.187600	-1.279125	-0.630973
C100	C	0.687600	-0.779125	-0.130973
C101	C	0.265682	-1.282301	-0.627892
C102	C	0.765682	-0.782301	-0.127892
C103	C	0.050853	-1.317064	-0.851345
C104	C	0.550853	-0.817064	-0.351345
C105	C	0.070662	-1.336407	-0.942174
C106	C	0.570662	-0.836407	-0.442174
C107	C	0.050749	-0.488532	-0.679920
C108	C	0.550749	0.011468	-0.179920
C109	C	0.070538	-0.580943	-0.697689
C110	C	0.570538	-0.080943	-0.197689
C111	C	-0.145665	-1.125066	-1.198620
C112	C	0.354335	-0.625066	-0.698620
C113	C	-0.127039	-1.143259	-1.283970
C114	C	0.372961	-0.643259	-0.783970
C115	C	-0.014458	-1.253245	-1.300872
C116	C	0.485542	-0.753245	-0.800872
C117	C	-0.033072	-1.235059	-1.215521
C118	C	0.466928	-0.735059	-0.715521
C119	C	-0.098678	-1.170969	-1.164401
C120	C	0.401322	-0.670969	-0.664401
C121	C	0.013915	-1.280962	-1.181303
C122	C	0.513915	-0.780962	-0.681303
C123	C	-0.004700	-1.262779	-1.095959
C124	C	0.495300	-0.762779	-0.595959
C125	C	-0.070303	-1.198694	-1.044834
C126	C	0.429697	-0.698694	-0.544834
C127	C	-0.117293	-1.152786	-1.079058
C128	C	0.382707	-0.652786	-0.579058
C129	C	0.079517	-1.345055	-1.232425
C130	C	0.579517	-0.845055	-0.732425
C131	C	0.126505	-1.390958	-1.198206
C132	C	0.626505	-0.890958	-0.698206
C133	C	0.107893	-1.372772	-1.112861
C134	C	0.607893	-0.872772	-0.612861
C135	C	0.042289	-1.308687	-1.061736
C136	C	0.542289	-0.808687	-0.561736
C137	C	0.154882	-1.418680	-1.078637
C138	C	0.654882	-0.918680	-0.578637
C139	C	0.136267	-1.400497	-0.993294
C140	C	0.636267	-0.900497	-0.493294
C141	C	0.023674	-1.290504	-0.976392
C142	C	0.523674	-0.790504	-0.476392
C143	C	-0.041873	-1.226511	-0.425895
C144	C	0.458127	-0.726511	0.074105
C145	C	-0.061450	-1.207337	-0.335090
C146	C	0.438550	-0.707337	0.164910
H147	H	-0.085512	-0.601610	-0.557412
H148	H	0.414488	-0.101610	-0.057412
Cl149	Cl	0.068013	-1.333815	-1.365145
Cl150	Cl	0.568013	-0.833815	-0.865145
Cl151	Cl	-0.246788	-1.166564	-0.742951
Cl152	Cl	0.253212	-0.666564	-0.242951
H153	H	0.038769	-0.978699	-0.669084
H154	H	0.538769	-0.478699	-0.169084
H155	H	-0.396036	-1.332044	-0.578015
H156	H	0.103964	-0.832044	-0.078015
H157	H	-0.029824	-0.565487	-0.607491
H158	H	0.470176	-0.065487	-0.107491
H159	H	-0.170703	-1.100578	-1.037428
H160	H	0.329297	-0.600578	-0.537428
H161	H	0.179697	-0.887329	-0.795753
H162	H	0.679697	-0.387329	-0.295753
Cl163	Cl	-0.199787	-0.631894	-0.454733
Cl164	Cl	0.300213	-0.131894	0.045267
H165	H	-0.199075	-1.072858	-1.156990
H166	H	0.300925	-0.572858	-0.656990
H167	H	-0.727522	-1.206212	-0.703802
H168	H	-0.227522	-0.706212	-0.203802
H169	H	0.174530	-1.437875	-0.965433
H170	H	0.674530	-0.937875	-0.465433
H171	H	-0.727490	-1.358935	-0.551449
H172	H	-0.227490	-0.858935	-0.051449
H173	H	0.174350	-0.612521	-0.790977
H174	H	0.674350	-0.112521	-0.290977
Cl175	Cl	-0.228171	-0.749179	-0.429200
Cl176	Cl	0.271829	-0.249179	0.070800
Cl177	Cl	-0.186222	-0.945172	-0.466898
Cl178	Cl	0.313778	-0.445172	0.033102
Cl179	Cl	0.237116	-0.795020	-0.847376
Cl180	Cl	0.737116	-0.295020	-0.347376
H181	H	-0.482801	-1.326516	-0.583614
H182	H	0.017199	-0.826516	-0.083614
H183	H	-0.507718	-1.216991	-0.692850
H184	H	-0.007718	-0.716991	-0.192850
H185	H	0.094671	-1.359859	-1.301917
H186	H	0.594671	-0.859859	-0.801917
H187	H	-0.262992	-1.337293	-0.572660
H188	H	0.237008	-0.837293	-0.072660
Cl189	Cl	-0.578180	-1.383491	-0.526869
Cl190	Cl	-0.078180	-0.883491	-0.026869
Cl191	Cl	-0.578241	-1.193459	-0.716392
Cl192	Cl	-0.078241	-0.693459	-0.216392
Cl193	Cl	0.102708	-0.981043	-0.726530
Cl194	Cl	0.602708	-0.481043	-0.226530
H195	H	-0.396085	-1.179312	-0.730354
H196	H	0.103915	-0.679312	-0.230354
H197	H	-0.029736	-1.238296	-0.934763
H198	H	0.470264	-0.738296	-0.434763
H199	H	-0.085461	-1.183894	-0.975343
H200	H	0.414539	-0.683894	-0.475343
H201	H	-0.165308	-1.105874	-1.311826
H202	H	0.334692	-0.605874	-0.811826
H203	H	0.179920	-1.443143	-1.239840
H204	H	0.679920	-0.943143	-0.739840
H205	H	0.208294	-1.470867	-1.120273
H206	H	0.708294	-0.970867	-0.620273
