data_functionalizedCrystal
_audit_creation_method	'MofGen! by Chris Wilmer'
_symmetry_space_group_name_H-M	'P1'
_symmetry_Int_Tables_number	1
_symmetry_cell_setting	triclinic
loop_
_symmetry_equiv_pos_as_xyz
  x,y,z
_cell_length_a	16.109301
_cell_length_b	16.109301
_cell_length_c	14.586319
_cell_angle_alpha	89.992276
_cell_angle_beta	89.994111
_cell_angle_gamma	83.461532
loop_
_atom_site_label
_atom_site_type_symbol
_atom_site_fract_x
_atom_site_fract_y
_atom_site_fract_z
O1	O	1.103135	0.106877	-0.076180
O2	O	0.861073	0.120176	-0.076192
O3	O	0.988754	-0.007505	-0.076191
O4	O	0.975455	0.234557	-0.076182
O5	O	0.988736	-0.007526	0.076290
O6	O	0.861055	0.120155	0.076289
O7	O	1.103117	0.106855	0.076300
Cu8	Cu	0.982085	0.113503	0.090217
Cu9	Cu	0.982106	0.113528	-0.090109
O10	O	0.975437	0.234536	0.076299
C11	C	0.830089	0.119627	0.000047
C12	C	0.737794	0.118011	0.000042
C13	C	0.428796	0.188494	0.000060
C14	C	0.515516	0.190020	0.000055
C15	C	0.535389	0.038531	0.000037
C16	C	0.448671	0.037007	0.000036
C17	C	0.395376	0.111991	0.000052
C18	C	0.568815	0.115041	0.000048
C19	C	0.662841	0.116694	0.000042
C20	C	0.301344	0.110338	0.000056
C21	C	0.988206	-0.038490	0.000047
C22	C	0.986591	-0.130785	0.000037
C23	C	1.134101	0.107405	0.000060
C24	C	1.226396	0.109020	0.000059
C25	C	0.975984	0.265522	0.000060
C26	C	0.977599	0.357817	0.000063
N27	N	0.982076	0.113485	0.217049
C28	C	0.905592	0.580089	0.000046
C29	C	0.907116	0.666810	0.000040
C30	C	1.058605	0.646935	0.000051
C31	C	1.057080	0.560217	0.000051
C32	C	0.980571	0.526796	0.000054
C33	C	0.983620	0.700235	0.000047
C34	C	0.985273	0.794261	0.000039
C35	C	0.978917	0.432764	0.000059
N36	N	0.982121	0.113540	-0.216941
C37	C	0.931693	0.063080	0.548073
C38	C	0.931687	0.063068	0.452092
C39	C	1.032510	0.163947	0.452042
C40	C	1.032520	0.163953	0.548021
C41	C	0.982107	0.113521	0.596035
C42	C	0.982090	0.113503	0.404074
C43	C	0.982083	0.113491	0.300007
C44	C	0.982115	0.113532	0.700108
H45	H	0.542722	0.252317	0.000061
H46	H	0.843293	0.552881	0.000052
H47	H	1.073553	0.205008	0.412937
O48	O	0.587280	-0.034228	0.000071
C49	C	0.729682	-0.099018	0.000017
C50	C	0.671015	-0.016556	-0.000003
H51	H	0.797394	-0.084760	-0.000062
H52	H	0.717587	-0.136692	0.063841
H53	H	0.717489	-0.136659	-0.063785
H54	H	0.683173	0.021151	0.063756
H55	H	0.683121	0.021054	-0.063869
O56	O	0.882635	0.014210	0.594754
C57	C	0.770425	0.009372	0.703186
C58	C	0.825911	0.064821	0.650366
H59	H	0.724563	0.050266	0.748175
H60	H	0.734333	-0.026665	0.652456
H61	H	0.811351	-0.036551	0.748081
H62	H	0.785047	0.110790	0.605470
H63	H	0.862010	0.100799	0.701146
O64	O	1.081517	0.213033	0.594475
C65	C	1.181558	0.313052	0.584304
C66	C	1.126096	0.257531	0.531581
H67	H	1.217628	0.349029	0.533478
H68	H	1.140700	0.359016	0.629215
H69	H	1.227453	0.272160	0.629261
H70	H	1.080192	0.298356	0.486575
H71	H	1.167006	0.211561	0.486728
H72	H	0.421461	-0.025296	0.000026
H73	H	0.846060	0.710198	0.000032
O74	O	1.132849	0.679540	0.000098
C75	C	1.202337	0.804327	0.000055
C76	C	1.118196	0.767516	0.000019
H77	H	1.190520	0.875459	-0.000028
H78	H	1.239390	0.782428	0.063886
H79	H	1.239399	0.782334	-0.063740
H80	H	1.081067	0.789491	0.063770
H81	H	1.081207	0.789410	-0.063855
H82	H	1.118140	0.516823	0.000054
O83	O	0.882583	0.014168	0.405549
C84	C	0.742665	-0.018362	0.376285
C85	C	0.798179	0.037091	0.429031
H86	H	0.674414	0.000139	0.395265
H87	H	0.751238	-0.009705	0.299425
H88	H	0.761259	-0.086622	0.395164
H89	H	0.779620	0.105372	0.410229
H90	H	0.789599	0.028363	0.505878
O91	O	0.377144	0.261408	0.000026
C92	C	0.366589	0.411824	0.000087
C93	C	0.425177	0.329310	0.000109
H94	H	0.405400	0.466745	0.000174
H95	H	0.325514	0.414966	-0.063742
H96	H	0.325470	0.414843	0.063884
H97	H	0.466348	0.326236	-0.063645
H98	H	0.466195	0.326203	0.063980
