data_functionalizedCrystal
_audit_creation_method	'MofGen! by Chris Wilmer'
_symmetry_space_group_name_H-M	'P1'
_symmetry_Int_Tables_number	1
_symmetry_cell_setting	triclinic
loop_
_symmetry_equiv_pos_as_xyz
  x,y,z
_cell_length_a	19.805407
_cell_length_b	15.297327
_cell_length_c	19.805384
_cell_angle_alpha	99.587708
_cell_angle_beta	89.931692
_cell_angle_gamma	99.707092
loop_
_atom_site_label
_atom_site_type_symbol
_atom_site_fract_x
_atom_site_fract_y
_atom_site_fract_z
Zn1	Zn	0.988555	-0.358479	-0.429245
Zn2	Zn	1.488555	0.141521	0.070755
Zn3	Zn	0.968781	-0.509503	-0.335657
Zn4	Zn	1.468781	-0.009503	0.164343
Zn5	Zn	0.875246	-0.358691	-0.316097
Zn6	Zn	1.375246	0.141309	0.183903
Zn7	Zn	0.855771	-0.509268	-0.448774
Zn8	Zn	1.355771	-0.009268	0.051226
O9	O	0.922088	-0.433986	-0.382443
O10	O	1.422088	0.066014	0.117557
O11	O	1.080648	-0.378523	-0.416844
O12	O	1.580648	0.121477	0.083156
O13	O	0.956248	-0.489685	-0.238370
O14	O	1.456248	0.010315	0.261630
O15	O	0.906703	-0.232442	-0.314748
O16	O	1.406703	0.267558	0.185252
O17	O	1.066120	-0.489479	-0.348085
O18	O	1.566120	0.010521	0.151915
O19	O	0.989950	-0.232287	-0.397877
O20	O	1.489950	0.267713	0.102123
O21	O	0.887528	-0.378884	-0.223999
O22	O	1.387528	0.121116	0.276001
O23	O	0.777947	-0.378656	-0.333684
O24	O	1.277947	0.121344	0.166316
O25	O	0.873511	-0.489079	-0.540876
O26	O	1.373511	0.010921	-0.040876
O27	O	0.763639	-0.489284	-0.431161
O28	O	1.263639	0.010716	0.068839
O29	O	0.971066	-0.378295	-0.526528
O30	O	1.471066	0.121705	-0.026528
O31	O	0.937364	-0.635693	-0.367021
O32	O	1.437364	-0.135693	0.132979
O33	O	0.854337	-0.635521	-0.450127
O34	O	1.354337	-0.135521	0.049873
C35	C	0.746235	-0.433968	-0.382419
C36	C	1.246235	0.066032	0.117581
C37	C	0.671001	-0.433983	-0.382428
C38	C	1.171001	0.066017	0.117572
C39	C	0.628213	-0.491674	-0.433125
C40	C	1.128213	0.008326	0.066875
C41	C	0.557524	-0.491675	-0.433135
C42	C	1.057524	0.008325	0.066865
C43	C	0.529624	-0.433990	-0.382444
C44	C	1.029624	0.066010	0.117556
C45	C	0.572418	-0.376292	-0.331744
C46	C	1.072418	0.123708	0.168256
C47	C	0.643106	-0.376287	-0.331737
C48	C	1.143106	0.123713	0.168263
C49	C	0.287342	-0.376312	-0.331769
C50	C	0.787342	0.123688	0.168231
C51	C	0.216649	-0.376324	-0.331778
C52	C	0.716649	0.123676	0.168222
C53	C	0.201761	-0.491701	-0.433166
C54	C	0.701761	0.008299	0.066834
C55	C	0.272448	-0.491695	-0.433160
C56	C	0.772448	0.008305	0.066840
C57	C	0.315236	-0.433995	-0.382462
C58	C	0.815236	0.066005	0.117538
C59	C	0.391885	-0.433993	-0.382453
C60	C	0.891885	0.066007	0.117547
C61	C	0.452976	-0.433996	-0.382450
C62	C	0.952976	0.066004	0.117550
C63	C	0.891610	-0.668335	-0.412830
C64	C	1.391610	-0.168335	0.087170
C65	C	0.878633	-0.768590	-0.425853
C66	C	1.378633	-0.268590	0.074147
C67	C	1.015116	-1.051427	-0.289601
C68	C	1.515116	-0.551427	0.210399
C69	C	1.027308	-0.957232	-0.277363
C70	C	1.527308	-0.457232	0.222637
C71	C	0.990141	-0.910067	-0.314484
C72	C	1.490141	-0.410067	0.185516
C73	C	0.940778	-0.957106	-0.363846
C74	C	1.440778	-0.457106	0.136154
C75	C	0.928581	-1.051310	-0.376082
C76	C	1.428581	-0.551310	0.123918
C77	C	0.903606	-0.909950	-0.400965
C78	C	1.403606	-0.409950	0.099035
C79	C	0.854244	-0.956989	-0.450327
C80	C	1.354244	-0.456989	0.049673
C81	C	0.842049	-1.051184	-0.462561
C82	C	1.342049	-0.551184	0.037439
C83	C	0.879217	-1.098349	-0.425440
C84	C	1.379217	-0.598349	0.074560
C85	C	0.915803	-0.815746	-0.388729
C86	C	1.415803	-0.315746	0.111271
C87	C	0.829268	-0.815629	-0.475210
C88	C	1.329268	-0.315629	0.024790
C89	C	0.817076	-0.909824	-0.487449
C90	C	1.317076	-0.409824	0.012551
C91	C	1.098629	-0.434004	-0.382468
C92	C	1.598629	0.065996	0.117532
C93	C	1.173860	-0.434011	-0.382478
C94	C	1.673860	0.065989	0.117522
C95	C	0.922322	-0.433637	-0.558941
C96	C	1.422322	0.066363	-0.058941
C97	C	0.922421	-0.433488	-0.634154
C98	C	1.422421	0.066512	-0.134154
C99	C	0.952705	-0.198722	-0.351952
C100	C	1.452705	0.301278	0.148048
C101	C	0.965751	-0.098466	-0.338959
C102	C	1.465751	0.401534	0.161041
C103	C	0.921903	-0.434268	-0.206623
C104	C	1.421903	0.065732	0.293377
C105	C	0.921968	-0.434162	-0.131378
C106	C	1.421968	0.065838	0.368622
C107	C	0.885852	-0.376849	-0.088632
C108	C	1.385852	0.123151	0.411368
C109	C	0.885919	-0.376749	-0.017931
C110	C	1.385919	0.123251	0.482069
C111	C	0.922098	-0.433968	0.010023
C112	C	1.422098	0.066032	0.510023
C113	C	0.958218	-0.491284	-0.032728
C114	C	1.458218	0.008716	0.467272
C115	C	0.958155	-0.491379	-0.103428
C116	C	1.458155	0.008621	0.396572
C117	C	0.958475	-0.490904	0.252394
C118	C	1.458475	0.009096	0.752394
C119	C	0.958534	-0.490807	0.323098
C120	C	1.458534	0.009193	0.823098
C121	C	0.886239	-0.376275	0.337890
C122	C	1.386239	0.123725	0.837890
C123	C	0.886176	-0.376369	0.267191
C124	C	1.386176	0.123631	0.767191
C125	C	0.922298	-0.433681	0.224447
C126	C	1.422298	0.066319	0.724447
C127	C	0.922227	-0.433787	0.147785
C128	C	1.422227	0.066213	0.647785
C129	C	0.922166	-0.433867	0.086683
C130	C	1.422166	0.066133	0.586683
H131	H	0.955994	-0.777455	-0.348538
H132	H	1.455994	-0.277455	0.151462
H133	H	0.856829	-0.329605	0.372702
H134	H	1.356829	0.170395	0.872702
H135	H	1.045368	-1.089838	-0.259378
H136	H	1.545368	-0.589838	0.240622
O137	O	1.075304	-0.911681	-0.229418
O138	O	1.575304	-0.411681	0.270582
C139	C	1.105484	-0.973506	-0.199267
C140	C	1.605484	-0.473506	0.300733
H141	H	1.099149	-1.040583	-0.235705
H142	H	1.599149	-0.540583	0.264295
H143	H	1.162340	-0.946250	-0.188558
H144	H	1.662340	-0.446250	0.311442
H145	H	1.079369	-0.983677	-0.149158
H146	H	1.579369	-0.483677	0.350842
H147	H	0.799002	-0.777228	-0.505436
H148	H	1.299002	-0.277228	-0.005436
H149	H	0.869294	-1.175050	-0.435404
H150	H	1.369294	-0.675050	0.064596
O151	O	0.850696	-0.321181	-0.115668
O152	O	1.350696	0.178819	0.384332
C153	C	0.818821	-0.270590	-0.062777
C154	C	1.318821	0.229410	0.437223
H155	H	0.847014	-0.267135	-0.012001
H156	H	1.347014	0.232865	0.487999
H157	H	0.820434	-0.199621	-0.074120
H158	H	1.320434	0.300379	0.425880
H159	H	0.763241	-0.304101	-0.059441
H160	H	1.263241	0.195899	0.440559
H161	H	0.856713	-0.329779	0.244435
H162	H	1.356713	0.170221	0.744435
O163	O	0.160102	-0.547661	-0.482388
O164	O	0.660102	-0.047661	0.017612
C165	C	0.091726	-0.535315	-0.471520
C166	C	0.591726	-0.035315	0.028480
H167	H	0.091093	-0.465703	-0.440415
H168	H	0.591093	0.034297	0.059585
H169	H	0.064132	-0.541443	-0.523009
H170	H	0.564132	-0.041443	-0.023009
H171	H	0.064662	-0.588812	-0.442347
H172	H	0.564662	-0.088812	0.057653
H173	H	0.801847	-1.089480	-0.502747
H174	H	1.301847	-0.589480	-0.002747
H175	H	0.776885	-0.948136	-0.527640
H176	H	1.276885	-0.448136	-0.027640
H177	H	0.650923	-0.538651	-0.474402
H178	H	1.150923	-0.038651	0.025598
H179	H	0.677944	-0.329304	-0.290457
H180	H	1.177944	0.170696	0.209543
H181	H	0.856509	-0.330080	0.016870
H182	H	1.356509	0.169920	0.516870
O183	O	0.993743	-0.546418	0.350145
O184	O	1.493743	-0.046418	0.850145
C185	C	1.025599	-0.597039	0.297256
C186	C	1.525599	-0.097039	0.797256
H187	H	1.032510	-0.560142	0.251577
H188	H	1.532510	-0.060142	0.751577
H189	H	1.077811	-0.606117	0.316424
H190	H	1.577811	-0.106117	0.816424
H191	H	0.992239	-0.665792	0.281002
H192	H	1.492239	-0.165792	0.781002
O193	O	0.993659	-0.546442	0.210872
O194	O	1.493659	-0.046442	0.710872
C195	C	1.043789	-0.494717	0.176506
C196	C	1.543789	0.005283	0.676506
H197	H	1.056833	-0.423608	0.206882
H198	H	1.556833	0.076392	0.706882
H199	H	1.091882	-0.526825	0.171521
H200	H	1.591882	-0.026825	0.671521
H201	H	1.023191	-0.491894	0.123328
H202	H	1.523191	0.008106	0.623328
O203	O	0.993252	-0.546964	-0.005557
O204	O	1.493252	-0.046964	0.494443
C205	C	0.947442	-0.605518	0.027935
C206	C	1.447442	-0.105518	0.527935
H207	H	0.893356	-0.611627	0.005951
H208	H	1.393356	-0.111627	0.505951
H209	H	0.963297	-0.674696	0.019855
H210	H	1.463297	-0.174696	0.519855
H211	H	0.948630	-0.577581	0.085081
H212	H	1.448630	-0.077581	0.585081
O213	O	0.993248	-0.547139	-0.144860
O214	O	1.493248	-0.047139	0.355140
C215	C	1.025208	-0.597607	-0.105027
C216	C	1.525208	-0.097607	0.394973
H217	H	0.997105	-0.600931	-0.055011
H218	H	1.497105	-0.100931	0.444989
H219	H	1.023561	-0.668628	-0.134539
H220	H	1.523561	-0.168628	0.365461
H221	H	1.080800	-0.564072	-0.093322
H222	H	1.580800	-0.064072	0.406678
H223	H	0.522689	-0.538654	-0.474417
H224	H	1.022689	-0.038654	0.025583
H225	H	0.295160	-0.538672	-0.474436
H226	H	0.795160	-0.038672	0.025564
O227	O	1.002092	-0.818567	-0.302537
O228	O	1.502092	-0.318567	0.197463
C229	C	1.053618	-0.787162	-0.250998
C230	C	1.553618	-0.287162	0.249002
H231	H	1.086133	-0.841430	-0.248600
H232	H	1.586133	-0.341430	0.251400
H233	H	1.087481	-0.724067	-0.263251
H234	H	1.587481	-0.224067	0.236749
H235	H	1.028909	-0.770596	-0.199470
H236	H	1.528909	-0.270596	0.300530
H237	H	0.193936	-0.329344	-0.290498
H238	H	0.693936	0.170656	0.209502
H239	H	0.322171	-0.329336	-0.290483
H240	H	0.822171	0.170664	0.209517
H241	H	0.549697	-0.329320	-0.290472
H242	H	1.049697	0.170680	0.209528
