data_functionalizedCrystal
_audit_creation_method	'MofGen! by Chris Wilmer'
_symmetry_space_group_name_H-M	'P1'
_symmetry_Int_Tables_number	1
_symmetry_cell_setting	triclinic
loop_
_symmetry_equiv_pos_as_xyz
  x,y,z
_cell_length_a	12.759401
_cell_length_b	12.645330
_cell_length_c	12.759393
_cell_angle_alpha	90.031109
_cell_angle_beta	90.020938
_cell_angle_gamma	90.014171
loop_
_atom_site_label
_atom_site_type_symbol
_atom_site_fract_x
_atom_site_fract_y
_atom_site_fract_z
Zn1	Zn	1.606281	-0.421945	0.594016
Zn2	Zn	1.606179	-0.599246	0.418334
Zn3	Zn	1.430580	-0.422001	0.418351
Zn4	Zn	1.430578	-0.599171	0.593971
O5	O	1.518405	-0.510591	0.506168
O6	O	1.753289	-0.445472	0.570723
O7	O	1.582843	-0.575788	0.271315
O8	O	1.453931	-0.273647	0.441679
O9	O	1.753213	-0.575734	0.441650
O10	O	1.583018	-0.273605	0.570739
O11	O	1.453831	-0.445568	0.271327
O12	O	1.283559	-0.445496	0.441636
O13	O	1.453928	-0.575607	0.740998
O14	O	1.283557	-0.575662	0.570663
O15	O	1.583016	-0.445400	0.741031
O16	O	1.582841	-0.747583	0.441607
O17	O	1.453828	-0.747529	0.570647
C18	C	1.245437	-0.510578	0.506147
C19	C	1.128661	-0.510598	0.506163
C20	C	1.073825	-0.578479	0.573242
C21	C	0.964101	-0.578483	0.573263
C22	C	0.964057	-0.442722	0.439117
C23	C	1.073779	-0.442714	0.439102
C24	C	1.518352	-0.786021	0.506143
C25	C	1.518426	-0.903851	0.506168
C26	C	1.599457	-1.071405	0.424824
C27	C	1.599721	-0.948844	0.425023
C28	C	1.548455	-0.948224	0.616912
C29	C	1.549098	-1.070822	0.616481
C30	C	1.407332	-1.071183	0.477858
C31	C	1.407865	-0.948579	0.475374
C32	C	1.792438	-0.510605	0.506189
C33	C	1.909215	-0.510610	0.506199
C34	C	1.518483	-0.510489	0.780201
C35	C	1.518517	-0.510446	0.896978
C36	C	1.518486	-0.234086	0.506216
C37	C	1.518521	-0.116255	0.506236
C38	C	1.518387	-0.510616	0.233200
C39	C	1.518557	-0.510360	0.116424
C40	C	1.585738	-0.442636	0.951859
C41	C	1.585756	-0.442590	1.061583
C42	C	1.451328	-0.578173	1.061536
C43	C	1.451306	-0.578213	0.951814
H44	H	1.580932	-0.918848	0.342907
H45	H	1.396559	-0.633431	0.907129
C46	C	1.682199	-1.071865	0.749546
C47	C	1.658816	-1.109313	0.648921
H48	H	1.749939	-1.095620	0.769567
H49	H	1.631708	-1.097820	0.797795
H50	H	1.680823	-0.996756	0.749510
H51	H	1.660183	-1.184423	0.648958
H52	H	1.709320	-1.083364	0.600659
C53	C	1.197194	-0.721092	0.587583
C54	C	1.134151	-0.653088	0.646962
H55	H	1.234428	-0.767156	0.633100
H56	H	1.245555	-0.680667	0.547641
H57	H	1.154349	-0.761588	0.541748
H58	H	1.176997	-0.612587	0.692792
H59	H	1.085784	-0.693518	0.686922
C60	C	1.241959	-0.382418	0.379521
C61	C	1.134064	-0.368094	0.365364
H62	H	1.279175	-0.336346	0.334006
H63	H	1.259914	-0.453617	0.364016
H64	H	1.259964	-0.366988	0.450140
H65	H	1.116058	-0.383531	0.294746
H66	H	1.116102	-0.296879	0.380861
H67	H	0.919460	-0.633756	0.627887
C68	C	1.273639	-0.992743	0.599717
C69	C	1.322059	-0.907255	0.549554
H70	H	1.220665	-0.967231	0.645515
H71	H	1.324338	-1.030947	0.638913
H72	H	1.243059	-1.038018	0.548739
H73	H	1.352646	-0.861984	0.600532
H74	H	1.271352	-0.869034	0.510356
H75	H	1.640492	-0.387371	1.106262
C76	C	1.718605	-0.308604	0.962930
C77	C	1.659604	-0.368136	0.891582
H78	H	1.764201	-0.262604	0.925718
H79	H	1.758787	-0.354778	1.005720
H80	H	1.672837	-0.268042	1.005729
H81	H	1.705372	-0.408705	0.848789
H82	H	1.619419	-0.321957	0.848774
H83	H	1.492730	-1.100486	0.679229
C84	C	0.930195	-0.390863	0.261310
C85	C	0.903728	-0.368113	0.365399
H86	H	0.892955	-0.344798	0.215800
H87	H	0.912191	-0.462064	0.245821
H88	H	1.003392	-0.381138	0.251715
H89	H	0.830532	-0.377846	0.374997
H90	H	0.921725	-0.296895	0.380894
H91	H	1.580903	-1.100964	0.342468
C92	C	1.391678	-0.638321	1.229713
C93	C	1.377461	-0.652669	1.121816
H94	H	1.346079	-0.684319	1.266922
H95	H	1.376326	-0.567095	1.247700
H96	H	1.462271	-0.653836	1.247690
H97	H	1.306869	-0.637146	1.103836
H98	H	1.392806	-0.723911	1.103820
C99	C	1.781395	-1.072370	0.376833
C100	C	1.710041	-1.112872	0.449875
H101	H	1.849661	-1.097977	0.392300
H102	H	1.781212	-0.997337	0.380269
H103	H	1.761709	-1.094347	0.308395
H104	H	1.729722	-1.090888	0.518313
H105	H	1.710227	-1.187922	0.446449
C106	C	1.748006	-0.847697	0.366989
C107	C	1.710894	-0.909134	0.450367
H108	H	1.816645	-0.823190	0.382638
H109	H	1.702804	-0.788928	0.356774
H110	H	1.749753	-0.889315	0.305011
H111	H	1.709139	-0.867513	0.512344
H112	H	1.756108	-0.967911	0.460595
H113	H	1.347028	-1.100188	0.537154
H114	H	1.491300	-0.919075	0.679196
C115	C	1.276834	-1.169389	0.383327
C116	C	1.370466	-1.113041	0.370736
H117	H	1.254088	-1.195235	0.317192
H118	H	1.224785	-1.124013	0.411774
H119	H	1.288135	-1.227146	0.429543
H120	H	1.359163	-1.055279	0.324526
H121	H	1.422526	-1.158420	0.342275
C122	C	1.647596	-0.848873	0.743073
C123	C	1.656937	-0.906669	0.649906
H124	H	1.714570	-0.823216	0.763431
H125	H	1.620437	-0.893267	0.796599
H126	H	1.601458	-0.790928	0.732364
H127	H	1.703069	-0.964619	0.660616
H128	H	1.684110	-0.862272	0.596368
H129	H	1.385222	-0.919589	0.393875
