data_functionalizedCrystal
_audit_creation_method	'MofGen! by Chris Wilmer'
_symmetry_space_group_name_H-M	'P1'
_symmetry_Int_Tables_number	1
_symmetry_cell_setting	triclinic
loop_
_symmetry_equiv_pos_as_xyz
  x,y,z
_cell_length_a	19.188931
_cell_length_b	10.489741
_cell_length_c	9.565339
_cell_angle_alpha	89.999484
_cell_angle_beta	89.997993
_cell_angle_gamma	96.158023
loop_
_atom_site_label
_atom_site_type_symbol
_atom_site_fract_x
_atom_site_fract_y
_atom_site_fract_z
O1	O	0.927211	-0.159226	-0.116209
O2	O	0.724043	-0.180662	-0.116223
O3	O	0.830250	0.015758	-0.116207
O4	O	0.821004	-0.355645	-0.116224
O5	O	0.830242	0.015745	0.116313
O6	O	0.724035	-0.180674	0.116297
O7	O	0.927203	-0.159238	0.116311
Zn8	Zn	0.825618	-0.169958	0.153222
Zn9	Zn	0.825629	-0.169942	-0.153133
O10	O	0.820996	-0.355657	0.116296
C11	C	0.698024	-0.179974	0.000036
C12	C	0.620505	-0.177890	0.000031
C13	C	0.829548	0.063267	0.000052
C14	C	0.827459	0.204850	0.000049
C15	C	0.953223	-0.159926	0.000050
C16	C	1.030741	-0.162010	0.000046
C17	C	1.074893	-0.046758	0.000039
C18	C	1.147730	-0.048715	0.000047
C19	C	1.176412	-0.165932	0.000034
C20	C	1.132250	-0.281199	0.000049
C21	C	1.059415	-0.279238	0.000055
N22	N	1.285010	-0.255525	-0.079124
N23	N	1.354201	-0.257380	-0.079132
C24	C	1.395860	-0.171847	0.000020
N25	N	1.365716	-0.084369	0.079164
N26	N	1.296519	-0.082511	0.079166
C27	C	1.255389	-0.168071	0.000029
C28	C	1.518990	-0.058710	0.000024
C29	C	1.591828	-0.060672	0.000041
C30	C	1.576347	-0.293159	0.000029
C31	C	1.503511	-0.291194	0.000026
C32	C	1.474837	-0.173965	0.000017
C33	C	0.821698	-0.403167	0.000033
C34	C	0.823788	-0.544750	0.000027
N35	N	0.825615	-0.169968	0.362301
C36	C	0.759882	0.271479	0.000035
C37	C	0.791800	0.364310	0.114681
C38	C	0.791825	0.364297	-0.114565
C39	C	0.859405	0.295816	0.114791
C40	C	0.859419	0.295793	-0.114559
C41	C	0.891387	0.388597	0.000116
N42	N	0.825637	-0.169921	-0.362213
C43	C	0.776483	-0.260776	0.453497
C44	C	0.839698	-0.285172	0.546679
C45	C	0.762427	-0.145581	0.546675
C46	C	0.888862	-0.194422	0.453431
C47	C	0.811550	-0.054781	0.453419
C48	C	0.874810	-0.079128	0.546559
H49	H	1.051552	0.048699	0.000037
H50	H	0.763227	0.394626	-0.211499
H51	H	0.946998	0.439264	0.000183
Cl52	Cl	1.168306	-0.428557	0.000038
Cl53	Cl	0.903508	0.249200	0.264603
Cl54	Cl	1.612397	-0.440519	0.000035
Cl55	Cl	0.712394	-0.379440	0.390400
H56	H	1.023466	-0.373094	0.000061
Cl57	Cl	0.674102	0.192903	0.000198
Cl58	Cl	0.858090	-0.435534	0.609927
H59	H	0.799619	0.042579	0.412423
Cl60	Cl	0.939042	0.039470	0.609262
Cl61	Cl	0.971399	-0.226415	0.390471
Cl62	Cl	1.448002	-0.436091	0.000019
Cl63	Cl	0.679912	-0.113762	0.609914
H64	H	0.763204	0.394677	0.211603
Cl65	Cl	1.647335	0.084231	0.000048
H66	H	0.887992	0.265392	-0.211486
H67	H	1.495643	0.036745	0.000023
Cl68	Cl	1.203245	0.096184	0.000034
