data_functionalizedCrystal
_audit_creation_method	'MofGen! by Chris Wilmer'
_symmetry_space_group_name_H-M	'P1'
_symmetry_Int_Tables_number	1
_symmetry_cell_setting	triclinic
loop_
_symmetry_equiv_pos_as_xyz
  x,y,z
_cell_length_a	8.559649
_cell_length_b	14.853567
_cell_length_c	7.088929
_cell_angle_alpha	83.771294
_cell_angle_beta	95.324505
_cell_angle_gamma	76.706797
loop_
_atom_site_label
_atom_site_type_symbol
_atom_site_fract_x
_atom_site_fract_y
_atom_site_fract_z
O1	O	2.103681	-0.020178	-0.158982
O2	O	1.638580	0.026374	-0.158982
O3	O	1.883554	-0.129001	-0.158988
O4	O	1.858708	0.135196	-0.158976
O5	O	1.916292	-0.149807	0.158987
O6	O	1.671319	0.005568	0.158993
O7	O	2.136419	-0.040984	0.158992
Cu8	Cu	1.906858	-0.019608	0.188026
Cu9	Cu	1.868141	0.004997	-0.188016
O10	O	1.891446	0.114390	0.158998
C11	C	1.595427	0.019499	0.000005
C12	C	1.418071	0.030000	0.000005
C13	C	1.898796	-0.172913	-0.000006
C14	C	1.895421	-0.272760	-0.000023
C15	C	1.735643	-0.674120	0.000014
C16	C	2.026678	-0.715757	0.000013
C17	C	2.029849	-0.621945	0.000002
C18	C	1.885915	-0.554216	-0.000000
C19	C	1.738811	-0.580299	0.000008
C20	C	2.176953	-0.595855	0.000013
C21	C	2.180130	-0.502038	0.000004
C22	C	2.036193	-0.434306	-0.000013
C23	C	1.889083	-0.460394	-0.000006
C24	C	1.745149	-0.392665	-0.000008
C25	C	1.598035	-0.418750	-0.000015
C26	C	1.594874	-0.512567	-0.000008
C27	C	2.039354	-0.340489	-0.000020
C28	C	1.748316	-0.298843	-0.000014
C29	C	2.179572	-0.034109	0.000001
C30	C	2.356927	-0.044609	-0.000011
C31	C	1.876203	0.158303	0.000012
C32	C	1.879577	0.258150	0.000016
N33	N	1.934101	-0.036916	0.452513
N34	N	1.840911	0.022297	-0.452503
H35	H	1.631105	-0.243701	-0.000024
H36	H	1.744331	0.083659	0.465853
H37	H	2.030699	-0.098276	0.534167
H38	H	1.334732	0.101911	-0.000011
H39	H	1.440273	-0.116524	-0.000015
H40	H	1.480846	-0.363594	-0.000004
Br41	Br	1.535995	-0.709517	-0.000023
Br42	Br	1.395236	-0.547975	-0.000030
H43	H	2.143863	-0.770908	0.000031
Br44	Br	2.379776	-0.466642	-0.000016
H45	H	2.294137	-0.651007	0.000032
Br46	Br	2.238996	-0.305091	0.000035
