data_functionalizedCrystal
_audit_creation_method	'MofGen! by Chris Wilmer'
_symmetry_space_group_name_H-M	'P1'
_symmetry_Int_Tables_number	1
_symmetry_cell_setting	triclinic
loop_
_symmetry_equiv_pos_as_xyz
  x,y,z
_cell_length_a	8.497374
_cell_length_b	13.032831
_cell_length_c	13.032721
_cell_angle_alpha	89.097115
_cell_angle_beta	97.169095
_cell_angle_gamma	97.172717
loop_
_atom_site_label
_atom_site_type_symbol
_atom_site_fract_x
_atom_site_fract_y
_atom_site_fract_z
Zn1	Zn	1.299749	1.519982	0.609635
Zn2	Zn	1.064703	1.498071	0.781567
Zn3	Zn	0.998870	1.348061	0.587743
Zn4	Zn	1.291326	1.326132	0.759681
O5	O	1.163662	1.423062	0.684657
O6	O	1.299646	1.660983	0.650764
O7	O	0.835209	1.478179	0.755853
O8	O	1.014756	1.389213	0.446737
O9	O	1.126959	1.644885	0.777081
O10	O	1.235810	1.515523	0.462821
O11	O	0.786842	1.367967	0.613452
O12	O	1.006589	1.201245	0.592230
O13	O	1.513205	1.351839	0.739780
O14	O	1.221455	1.185134	0.718552
O15	O	1.519393	1.494260	0.629542
O16	O	1.118792	1.456916	0.922574
O17	O	1.285291	1.330593	0.906494
C18	C	1.105965	1.155876	0.650641
C19	C	1.081324	1.041569	0.636114
C20	C	1.176523	0.982652	0.692239
C21	C	1.151057	0.864510	0.677225
C22	C	1.208312	1.389026	0.951852
C23	C	1.227486	1.374559	1.066171
C24	C	1.575141	1.423054	0.684657
C25	C	1.753788	1.423055	0.684668
C26	C	1.221586	1.691291	0.718806
C27	C	1.246269	1.805594	0.733358
C28	C	1.118879	1.457259	0.416421
C29	C	1.099795	1.471831	0.302116
C30	C	1.153738	1.430666	1.125067
C31	C	1.173554	1.415716	1.243222
H32	H	1.050699	0.827493	0.618052
C33	C	0.870573	1.501430	1.183048
C34	C	0.994739	1.551627	1.252120
H35	H	0.805713	1.550692	1.152190
H36	H	0.914277	1.468180	1.130791
H37	H	0.807504	1.451386	1.219328
H38	H	1.057815	1.601666	1.215839
H39	H	0.951033	1.584893	1.304385
H40	H	1.305302	1.315459	1.103223
C41	C	1.416992	1.101772	0.722003
C42	C	1.312004	1.032622	0.772113
H43	H	1.500627	1.132624	0.771318
H44	H	1.461005	1.065561	0.671984
H45	H	1.360546	1.154038	0.688737
H46	H	1.368448	0.980352	0.805372
H47	H	1.267989	1.068834	0.822150
C48	C	1.464918	0.778484	0.862259
C49	C	1.381763	0.855553	0.813237
H50	H	1.548569	0.809329	0.911566
H51	H	1.393678	0.731583	0.896238
H52	H	1.508923	0.742282	0.812216
H53	H	1.337748	0.891749	0.863279
H54	H	1.453015	0.902471	0.779257
C55	C	0.946807	0.884235	0.556849
C56	C	0.945820	0.991600	0.556254
H57	H	0.863138	0.853390	0.507554
H58	H	1.046568	0.868597	0.539677
H59	H	0.931358	0.857904	0.623720
H60	H	0.961281	1.017932	0.489385
H61	H	0.846036	1.007247	0.573420
C62	C	0.924529	1.460256	1.005987
C63	C	1.048690	1.510456	1.075060
H64	H	0.859672	1.509517	0.975122
H65	H	0.968238	1.427003	0.953734
H66	H	0.861457	1.410215	1.042267
H67	H	1.111770	1.560493	1.038778
H68	H	1.004979	1.543726	1.127320
H69	H	1.251375	1.356612	1.280269
