data_functionalizedCrystal
_audit_creation_method	'MofGen! by Chris Wilmer'
_symmetry_space_group_name_H-M	'P1'
_symmetry_Int_Tables_number	1
_symmetry_cell_setting	triclinic
loop_
_symmetry_equiv_pos_as_xyz
  x,y,z
_cell_length_a	13.032831
_cell_length_b	12.759394
_cell_length_c	13.032268
_cell_angle_alpha	82.850556
_cell_angle_beta	89.113023
_cell_angle_gamma	82.819699
loop_
_atom_site_label
_atom_site_type_symbol
_atom_site_fract_x
_atom_site_fract_y
_atom_site_fract_z
Zn1	Zn	1.498516	-0.709531	0.780836
Zn2	Zn	1.520266	-0.866066	0.608856
Zn3	Zn	1.348372	-0.665642	0.587076
Zn4	Zn	1.326514	-0.860386	0.758981
O5	O	1.423417	-0.775406	0.683937
O6	O	1.645323	-0.751041	0.776283
O7	O	1.515714	-0.823489	0.462050
O8	O	1.368334	-0.524452	0.612811
O9	O	1.661303	-0.866047	0.649930
O10	O	1.478644	-0.556698	0.755165
O11	O	1.389424	-0.676238	0.446049
O12	O	1.201551	-0.670730	0.591619
O13	O	1.331080	-0.856365	0.905797
O14	O	1.185492	-0.813807	0.717916
O15	O	1.457449	-0.745533	0.921853
O16	O	1.494519	-1.012324	0.628738
O17	O	1.352170	-1.008150	0.739035
C18	C	1.156204	-0.736890	0.650033
C19	C	1.041886	-0.720441	0.635554
C20	C	1.423358	-1.048362	0.683904
C21	C	1.423423	-1.165151	0.683937
C22	C	0.983013	-0.783991	0.691494
C23	C	0.864859	-0.766992	0.676530
C24	C	1.571737	-1.169469	0.569196
C25	C	1.645919	-1.226494	0.511841
C26	C	1.645976	-1.336227	0.511877
C27	C	1.571844	-1.388938	0.569276
C28	C	1.497662	-1.331913	0.626631
C29	C	1.497612	-1.222177	0.626586
C30	C	1.349354	-1.327597	0.741376
C31	C	1.349291	-1.217862	0.741336
C32	C	1.275223	-1.380309	0.798775
C33	C	1.201034	-1.323282	0.856125
C34	C	1.200980	-1.213542	0.856086
C35	C	1.275109	-1.160838	0.798690
C36	C	1.691673	-0.814073	0.717974
C37	C	1.805988	-0.830551	0.732478
C38	C	1.389400	-0.805211	0.952184
C39	C	1.374904	-0.817912	1.066495
C40	C	1.423501	-0.501391	0.683996
C41	C	1.423537	-0.384622	0.684021
C42	C	1.457360	-0.745650	0.416741
C43	C	1.472056	-0.732682	0.302456
C44	C	1.430966	-0.768737	1.125403
C45	C	1.415986	-0.781863	1.243550
H46	H	1.020082	-0.850981	0.750469
H47	H	0.827794	-0.699990	0.617559
C48	C	1.295078	-0.887915	1.116510
H49	H	1.261843	-0.917059	1.064230
H50	H	1.329128	-0.943981	1.163403
H51	H	1.244999	-0.845882	1.152737
C52	C	0.991823	-0.629934	0.555888
H53	H	1.044080	-0.592263	0.522737
H54	H	0.955585	-0.659074	0.505739
H55	H	0.944930	-0.582612	0.590048
C56	C	1.336162	-0.851875	1.293565
H57	H	1.336572	-0.851521	1.366412
H58	H	1.269272	-0.824612	1.267248
H59	H	1.353415	-0.922699	1.277906
H60	H	0.843051	-0.897544	0.791460
H61	H	1.571687	-1.080115	0.569147
C62	C	1.119382	-1.150819	0.919179
H63	H	1.129965	-1.077916	0.910944
H64	H	1.052213	-1.157239	0.895324
H65	H	1.125642	-1.178601	0.990203
C66	C	1.727458	-1.168510	0.448707
H67	H	1.716798	-1.094988	0.456890
H68	H	1.794643	-1.198061	0.472578
H69	H	1.721221	-1.176698	0.377695
H70	H	1.531142	-0.680853	1.265427
C71	C	1.510792	-0.698737	1.075384
H72	H	1.510394	-0.699104	1.002538
H73	H	1.493557	-0.627917	1.091044
H74	H	1.577683	-0.726019	1.101703
H75	H	1.706386	-1.382658	0.465180
H76	H	1.571905	-1.478291	0.569310
H77	H	1.140686	-1.366210	0.902860
C78	C	1.275282	-1.501011	0.798813
H79	H	1.330071	-1.527424	0.756426
H80	H	1.284613	-1.535725	0.867449
H81	H	1.211193	-1.514348	0.772563
C82	C	1.275052	-1.040135	0.798652
H83	H	1.220254	-1.013718	0.841027
H84	H	1.339137	-1.026794	0.824892
H85	H	1.265712	-1.005424	0.730010
