data_functionalizedCrystal
_audit_creation_method	'MofGen! by Chris Wilmer'
_symmetry_space_group_name_H-M	'P1'
_symmetry_Int_Tables_number	1
_symmetry_cell_setting	triclinic
loop_
_symmetry_equiv_pos_as_xyz
  x,y,z
_cell_length_a	12.759401
_cell_length_b	19.121063
_cell_length_c	12.759393
_cell_angle_alpha	87.595350
_cell_angle_beta	90.020459
_cell_angle_gamma	92.470439
loop_
_atom_site_label
_atom_site_type_symbol
_atom_site_fract_x
_atom_site_fract_y
_atom_site_fract_z
Zn1	Zn	1.588328	-0.279555	0.611809
Zn2	Zn	2.088328	0.220445	1.111809
Zn3	Zn	1.580686	-0.397021	0.443604
Zn4	Zn	2.080686	0.102979	0.943604
Zn5	Zn	1.412626	-0.279591	0.436146
Zn6	Zn	1.912626	0.220409	0.936146
Zn7	Zn	1.405087	-0.396973	0.619238
Zn8	Zn	1.905087	0.103027	1.119238
O9	O	1.496682	-0.338285	0.527699
O10	O	1.996682	0.161715	1.027699
O11	O	1.734335	-0.295142	0.589508
O12	O	2.234335	0.204858	1.089508
O13	O	1.558349	-0.381478	0.295596
O14	O	2.058349	0.118522	0.795596
O15	O	1.442287	-0.181302	0.453218
O16	O	1.942287	0.318698	0.953218
O17	O	1.728720	-0.381444	0.465928
O18	O	2.228720	0.118556	0.965928
O19	O	1.571375	-0.181276	0.582277
O20	O	2.071375	0.318724	1.082277
O21	O	1.434876	-0.295204	0.290117
O22	O	1.934876	0.204796	0.790117
O23	O	1.264605	-0.295157	0.460422
O24	O	1.764605	0.204843	0.960422
O25	O	1.429437	-0.381362	0.765271
O26	O	1.929437	0.118638	1.265271
O27	O	1.259066	-0.381397	0.594938
O28	O	1.759066	0.118603	1.094938
O29	O	1.564064	-0.295096	0.759813
O30	O	2.064064	0.204904	1.259813
O31	O	1.551038	-0.495299	0.473132
O32	O	2.051038	0.004701	0.973132
O33	O	1.422027	-0.495264	0.602170
O34	O	1.922027	0.004736	1.102170
C35	C	1.223715	-0.338276	0.527678
C36	C	1.723715	0.161724	1.027678
C37	C	1.106937	-0.338290	0.527695
C38	C	1.606937	0.161710	1.027695
C39	C	1.049214	-0.383263	0.597636
C40	C	1.549214	0.116737	1.097636
C41	C	0.939490	-0.383266	0.597657
C42	C	1.439490	0.116734	1.097657
C43	C	0.945222	-0.293320	0.457786
C44	C	1.445222	0.206680	0.957786
C45	C	1.054944	-0.293314	0.457771
C46	C	1.554944	0.206686	0.957771
C47	C	1.484913	-0.520765	0.539289
C48	C	1.984913	-0.020765	1.039289
C49	C	1.479975	-0.598831	0.544282
C50	C	1.979975	-0.098831	1.044282
C51	C	1.544877	-0.635501	0.479501
C52	C	2.044877	-0.135501	0.979501
C53	C	1.540238	-0.708853	0.484203
C54	C	2.040238	-0.208853	0.984203
C55	C	1.470692	-0.745532	0.553682
C56	C	1.970692	-0.245532	1.053682
C57	C	1.405788	-0.708856	0.618471
C58	C	1.905788	-0.208856	1.118471
C59	C	1.410432	-0.635507	0.613773
C60	C	1.910432	-0.135507	1.113773
C61	C	1.453311	-0.967001	0.571230
C62	C	1.953311	-0.467001	1.071230
C63	C	1.448670	-1.040356	0.575920
C64	C	1.948670	-0.540356	1.075920
C65	C	1.583122	-1.040347	0.441653
C66	C	2.083122	-0.540347	0.941653
C67	C	1.587756	-0.966996	0.436957
C68	C	2.087756	-0.466996	0.936957
C69	C	1.522855	-0.930327	0.501750
C70	C	2.022855	-0.430327	1.001750
C71	C	1.465947	-0.820508	0.558488
C72	C	1.965947	-0.320508	1.058488
C73	C	1.527606	-0.855351	0.496948
C74	C	2.027606	-0.355351	0.996948
C75	C	1.770714	-0.338294	0.527721
C76	C	2.270714	0.161706	1.027721
C77	C	1.887491	-0.338298	0.527731
C78	C	2.387491	0.161702	1.027731
C79	C	1.496762	-0.338220	0.801729
C80	C	1.996762	0.161780	1.301729
C81	C	1.496797	-0.338192	0.918503
C82	C	1.996797	0.161808	1.418503
C83	C	1.508525	-0.155092	0.516087
C84	C	2.008525	0.344908	1.016087
C85	C	1.513571	-0.077026	0.511139
C86	C	2.013571	0.422974	1.011139
C87	C	1.496665	-0.338299	0.254733
C88	C	1.996665	0.161701	0.754733
C89	C	1.496847	-0.338129	0.137946
C90	C	1.996847	0.161871	0.637946
C91	C	1.561120	-0.383063	1.085950
C92	C	2.061120	0.116937	1.585950
C93	C	1.561092	-0.383096	0.976228
C94	C	2.061092	0.116904	1.476228
C95	C	1.432517	-0.293256	0.970506
C96	C	1.932517	0.206744	1.470506
C97	C	1.432540	-0.293227	1.080227
C98	C	1.932540	0.206773	1.580227
H99	H	0.902876	-0.256703	0.400855
H100	H	1.402876	0.243297	0.900855
H101	H	1.613482	-0.419626	1.132942
H102	H	2.113482	0.080374	1.632942
H103	H	0.892497	-0.419887	0.654612
H104	H	1.392497	0.080113	1.154612
H105	H	1.380196	-0.256636	1.122562
H106	H	1.880196	0.243364	1.622562
O107	O	1.630429	-0.431550	0.920143
O108	O	2.130429	0.068450	1.420143
H109	H	1.675156	-0.462760	0.978715
H110	H	2.175156	0.037240	1.478715
H111	H	1.101944	-0.256687	0.400816
H112	H	1.601944	0.243313	0.900816
H113	H	1.380161	-0.256698	0.923498
H114	H	1.880161	0.243302	1.423498
H115	H	1.409321	-0.850381	0.615056
H116	H	1.909321	-0.350381	1.115056
O117	O	1.619892	-0.595941	0.404566
O118	O	2.119892	-0.095941	0.904566
H119	H	1.664251	-0.633766	0.360319
H120	H	2.164251	-0.133766	0.860319
H121	H	1.593088	-0.738706	0.431450
H122	H	2.093088	-0.238706	0.931450
O123	O	1.662775	-0.927434	0.362029
O124	O	2.162775	-0.427434	0.862029
H125	H	1.707136	-0.965257	0.317779
H126	H	2.207136	-0.465257	0.817779
H127	H	1.635962	-1.070211	0.388905
H128	H	2.135962	-0.570211	0.888905
O129	O	1.340417	-0.595955	0.683635
O130	O	1.840417	-0.095955	1.183635
H131	H	1.357493	-0.609984	0.767007
H132	H	1.857493	-0.109984	1.267007
O133	O	1.105299	-0.431761	0.673061
O134	O	1.605299	0.068239	1.173061
H135	H	1.046722	-0.463028	0.721707
H136	H	1.546722	0.036972	1.221707
O137	O	1.373659	-1.079927	0.650859
O138	O	1.873659	-0.579927	1.150859
H139	H	1.392536	-1.065810	0.732432
H140	H	1.892536	-0.565810	1.232432
O141	O	1.383283	-0.927454	0.641077
O142	O	1.883283	-0.427454	1.141077
H143	H	1.334128	-0.965285	0.690158
H144	H	1.834128	-0.465285	1.190158
H145	H	1.349167	-0.738726	0.675047
H146	H	1.849167	-0.238726	1.175047
H147	H	1.584235	-0.825485	0.440382
H148	H	2.084235	-0.325485	0.940382
