data_functionalizedCrystal
_audit_creation_method	'MofGen! by Chris Wilmer'
_symmetry_space_group_name_H-M	'P1'
_symmetry_Int_Tables_number	1
_symmetry_cell_setting	triclinic
loop_
_symmetry_equiv_pos_as_xyz
  x,y,z
_cell_length_a	17.699077
_cell_length_b	10.654541
_cell_length_c	16.776229
_cell_angle_alpha	89.993604
_cell_angle_beta	89.993415
_cell_angle_gamma	83.882252
loop_
_atom_site_label
_atom_site_type_symbol
_atom_site_fract_x
_atom_site_fract_y
_atom_site_fract_z
O1	O	1.005090	0.158773	-0.066277
O2	O	0.784842	0.179442	-0.066281
O3	O	0.900031	-0.013721	-0.066274
O4	O	0.889901	0.351936	-0.066284
O5	O	0.900015	-0.013732	0.066302
O6	O	0.784827	0.179431	0.066295
O7	O	1.005074	0.158761	0.066299
Zn8	Zn	0.894948	0.169094	0.087347
Zn9	Zn	0.894969	0.169110	-0.087329
O10	O	0.889886	0.351924	0.066292
C11	C	0.756633	0.178697	0.000007
C12	C	0.672600	0.176479	0.000005
C13	C	0.633118	0.175428	0.072274
C14	C	0.554162	0.173323	0.072274
C15	C	0.514689	0.172280	0.000006
C16	C	0.554178	0.173328	-0.072268
C17	C	0.633133	0.175423	-0.072268
C18	C	0.235761	0.164877	-0.072269
C19	C	0.156800	0.162785	-0.072263
C20	C	0.156790	0.162777	0.072273
C21	C	0.235745	0.164872	0.072273
C22	C	0.275227	0.165913	-0.000000
C23	C	0.360840	0.168193	-0.000000
C24	C	0.429077	0.170010	0.000006
C25	C	0.899280	-0.060511	0.000014
C26	C	0.897056	-0.199916	0.000012
C27	C	1.034795	-0.230303	0.000025
C28	C	1.102617	-0.310987	0.000033
C29	C	1.100522	-0.441968	0.000030
C30	C	1.030599	-0.492267	0.000017
C31	C	0.962777	-0.411583	0.000009
C32	C	0.964879	-0.280600	0.000014
C33	C	0.825039	-0.381196	-0.000009
C34	C	0.827132	-0.250215	-0.000001
C35	C	0.755116	-0.431495	-0.000022
C36	C	0.687292	-0.350811	-0.000024
C37	C	0.689390	-0.219822	-0.000020
C38	C	0.759310	-0.169531	-0.000008
C39	C	1.033284	0.159507	0.000010
C40	C	1.117316	0.161725	0.000006
C41	C	0.890637	0.398715	0.000003
C42	C	0.892861	0.538120	-0.000001
N43	N	0.894940	0.169083	0.206558
N44	N	0.894983	0.169111	-0.206540
C45	C	0.945961	0.083585	0.248278
C46	C	0.945965	0.083584	0.331730
C47	C	0.894951	0.169088	0.373461
C48	C	0.843924	0.254589	0.331735
C49	C	0.843917	0.254583	0.248284
C50	C	0.843952	0.254614	0.668282
C51	C	0.843964	0.254616	0.751739
C52	C	0.946000	0.083615	0.751728
C53	C	0.945993	0.083609	0.668277
C54	C	0.894964	0.169105	0.626559
C55	C	0.894959	0.169104	0.536070
C56	C	0.894959	0.169096	0.463948
H57	H	0.124635	0.161924	0.131122
H58	H	0.267879	0.165728	0.131121
C59	C	0.510762	0.172200	-0.151763
H60	H	0.545587	0.173122	-0.194804
H61	H	0.474575	0.244593	-0.154763
H62	H	0.485349	0.098177	-0.154773
C63	C	0.510675	0.172929	0.151766
H64	H	0.457984	0.171748	0.141418
H65	H	0.518372	0.246709	0.181146
H66	H	0.528821	0.100289	0.181772
H67	H	0.753415	-0.538148	-0.000029
H68	H	0.802384	0.324204	0.365717
C69	C	1.028296	-0.636342	0.000009
H70	H	1.078702	-0.677190	0.000017
H71	H	1.002393	-0.660351	-0.046227
H72	H	1.002379	-0.660373	0.046244
H73	H	0.802420	0.324245	0.785714
H74	H	0.665250	0.176288	0.131123
H75	H	0.630366	-0.391776	-0.000039
C76	C	0.113381	0.161632	-0.151762
H77	H	0.148203	0.162541	-0.194806
H78	H	0.077191	0.234020	-0.154770
H79	H	0.087971	0.087604	-0.154757
H80	H	0.987549	0.013995	0.785704
H81	H	0.802369	0.324202	0.214316
H82	H	0.987536	0.013988	0.634303
C83	C	1.179527	-0.255656	0.000050
H84	H	1.171064	-0.166093	0.000058
H85	H	1.207493	-0.283354	-0.046178
H86	H	1.207467	-0.283374	0.046293
H87	H	0.634161	-0.154135	-0.000030
H88	H	0.267897	0.165721	-0.131118
H89	H	0.987510	0.013965	0.365698
H90	H	0.987506	0.013964	0.214306
C91	C	0.676563	0.176588	-0.151763
H92	H	0.641747	0.175679	-0.194804
H93	H	0.712755	0.104204	-0.154766
H94	H	0.701970	0.250620	-0.154767
H95	H	1.036507	-0.123652	0.000037
C96	C	1.175123	-0.530722	0.000039
H97	H	1.217067	-0.482013	0.000051
H98	H	1.177176	-0.582444	-0.046193
H99	H	1.177155	-0.582453	0.046278
H100	H	0.761025	-0.062881	-0.000001
H101	H	0.802403	0.324230	0.634321
