data_functionalizedCrystal
_audit_creation_method	'MofGen! by Chris Wilmer'
_symmetry_space_group_name_H-M	'P1'
_symmetry_Int_Tables_number	1
_symmetry_cell_setting	triclinic
loop_
_symmetry_equiv_pos_as_xyz
  x,y,z
_cell_length_a	19.288864
_cell_length_b	11.792241
_cell_length_c	18.366186
_cell_angle_alpha	89.993644
_cell_angle_beta	89.977106
_cell_angle_gamma	83.664831
loop_
_atom_site_label
_atom_site_type_symbol
_atom_site_fract_x
_atom_site_fract_y
_atom_site_fract_z
O1	O	0.922157	0.141582	-0.060784
O2	O	0.720005	0.160681	-0.060734
O3	O	0.825987	-0.014113	-0.060755
O4	O	0.816175	0.316377	-0.060763
O5	O	0.825968	-0.014122	0.060345
O6	O	0.719987	0.160673	0.060365
O7	O	0.922139	0.141574	0.060316
Zn8	Zn	0.821060	0.151122	0.079568
Zn9	Zn	0.821084	0.151133	-0.079986
O10	O	0.816157	0.316368	0.060337
C11	C	0.694116	0.160063	-0.000178
C12	C	0.617002	0.158218	-0.000159
C13	C	0.572888	0.260779	-0.000173
C14	C	0.500431	0.259046	-0.000181
C15	C	0.472091	0.154746	-0.000189
C16	C	0.516215	0.052171	-0.000171
C17	C	0.588670	0.053907	-0.000156
C18	C	0.363370	0.072757	-0.042638
C19	C	0.290915	0.071025	-0.042658
C20	C	0.248615	0.149387	-0.000233
C21	C	0.278777	0.229500	0.042202
C22	C	0.351232	0.231236	0.042217
C23	C	0.393526	0.152852	-0.000205
C24	C	0.125935	0.250076	-0.000255
C25	C	0.053477	0.248339	-0.000258
C26	C	0.069262	0.041460	-0.000256
C27	C	0.141718	0.043201	-0.000246
C28	C	0.170050	0.147512	-0.000248
C29	C	0.825361	-0.056399	-0.000205
C30	C	0.823517	-0.182385	-0.000206
C31	C	0.820125	-0.413045	-0.000217
C32	C	0.822009	-0.284689	-0.000211
C33	C	0.948028	0.142192	-0.000242
C34	C	1.025142	0.144037	-0.000266
C35	C	0.816783	0.358654	-0.000214
C36	C	0.818627	0.484640	-0.000219
N37	N	0.821049	0.151113	0.188459
N38	N	0.821101	0.151133	-0.188877
C39	C	0.867993	0.073752	0.226550
C40	C	0.867997	0.073747	0.302778
C41	C	0.821064	0.151123	0.340912
C42	C	0.774111	0.228490	0.302811
C43	C	0.774103	0.228485	0.226585
C44	C	0.812353	0.254534	0.461671
C45	C	0.812366	0.254540	0.537896
C46	C	0.821084	0.151137	0.576019
C47	C	0.829804	0.047723	0.537908
C48	C	0.829796	0.047719	0.461682
C49	C	0.821067	0.151136	0.423566
C50	C	0.868036	0.073764	0.696765
C51	C	0.868035	0.073757	0.772994
C52	C	0.774152	0.228510	0.773026
C53	C	0.774149	0.228507	0.696799
C54	C	0.821095	0.151135	0.658673
H55	H	0.244337	0.293309	0.076749
C56	C	0.919624	-0.011362	0.184609
C57	C	0.972900	0.032760	0.132170
C58	C	1.024529	-0.052356	0.090227
C59	C	1.022883	-0.181595	0.100722
C60	C	0.969606	-0.225724	0.153163
C61	C	0.917976	-0.140608	0.195107
H62	H	0.974120	0.128436	0.124399
H63	H	1.063969	-0.019688	0.051406
H64	H	1.061102	-0.244603	0.069672
H65	H	0.968385	-0.321400	0.160934
H66	H	0.878537	-0.173276	0.233928
H67	H	0.375787	0.296463	0.076772
H68	H	0.017560	0.331860	-0.000265
H69	H	0.735896	0.291488	0.333864
C70	C	0.257744	-0.017092	-0.089340
C71	C	0.277515	-0.145557	-0.076163
C72	C	0.244347	-0.233676	-0.122848
C73	C	0.191408	-0.193330	-0.182709
C74	C	0.171634	-0.064859	-0.195889
C75	C	0.204802	0.023260	-0.149204
H76	H	0.316707	-0.175429	-0.031847
H77	H	0.258985	-0.328779	-0.113091
H78	H	0.166855	-0.258561	-0.217268
H79	H	0.132442	-0.034987	-0.240204
H80	H	0.190164	0.118363	-0.158961
C81	C	0.485045	-0.062562	-0.000182
C82	C	0.501557	-0.147656	-0.063059
C83	C	0.470388	-0.262394	-0.063065
C84	C	0.422708	-0.292037	-0.000194
C85	C	0.406194	-0.206941	0.062688
C86	C	0.437363	-0.092204	0.062694
H87	H	0.536854	-0.125714	-0.109605
H88	H	0.482613	-0.325387	-0.109615
H89	H	0.399636	-0.376973	-0.000198
H90	H	0.370897	-0.228883	0.109234
H91	H	0.425137	-0.029210	0.109244
H92	H	0.624588	-0.029614	-0.000145
C93	C	0.919643	-0.011350	0.344688
C94	C	0.971300	-0.096419	0.302749
C95	C	1.022947	-0.181514	0.344656
C96	C	1.022937	-0.181541	0.428502
C97	C	0.971279	-0.096469	0.470446
C98	C	0.919632	-0.011374	0.428539
H99	H	0.971309	-0.096402	0.240677
H100	H	1.061188	-0.244490	0.313606
H101	H	1.061169	-0.244534	0.459524
H102	H	0.971270	-0.096486	0.532518
H103	H	0.881391	0.051602	0.459589
H104	H	0.836895	-0.036484	0.430655
C105	C	0.839447	-0.066029	0.579833
C106	C	0.839489	-0.066032	0.663679
C107	C	0.849160	-0.179778	0.705607
C108	C	0.858789	-0.293521	0.663689
C109	C	0.858748	-0.293523	0.579838
C110	C	0.849077	-0.179776	0.537910
H111	H	0.832360	0.018171	0.694713
H112	H	0.849190	-0.179777	0.767679
H113	H	0.865948	-0.377723	0.694726
H114	H	0.865876	-0.377726	0.548804
H115	H	0.849046	-0.179778	0.475838
C116	C	0.157106	0.364813	-0.000247
C117	C	0.108578	0.477634	-0.000250
C118	C	0.139746	0.592371	-0.000241
C119	C	0.219444	0.594287	-0.000230
C120	C	0.267977	0.481461	-0.000228
C121	C	0.236809	0.366724	-0.000236
H122	H	0.049576	0.476220	-0.000258
H123	H	0.103818	0.675892	-0.000243
H124	H	0.242517	0.679222	-0.000224
H125	H	0.326979	0.482875	-0.000220
H126	H	0.272737	0.283203	-0.000235
C127	C	0.919676	-0.011345	0.814900
C128	C	0.971328	-0.096423	0.772961
C129	C	1.022970	-0.181526	0.814868
C130	C	1.022960	-0.181552	0.898714
C131	C	0.971307	-0.096471	0.940658
C132	C	0.919665	-0.011367	0.898751
H133	H	0.971336	-0.096408	0.710889
H134	H	1.061207	-0.244509	0.783819
H135	H	1.061189	-0.244550	0.929737
H136	H	0.971299	-0.096486	1.002730
H137	H	0.881428	0.051615	0.929800
H138	H	0.735875	0.291483	0.195571
C139	C	0.722523	0.313623	0.814966
C140	C	0.722576	0.313704	0.898811
C141	C	0.670943	0.398815	0.940755
C142	C	0.619259	0.483846	0.898853
C143	C	0.619204	0.483768	0.815002
C144	C	0.670837	0.398657	0.773059
H145	H	0.760837	0.250756	0.929834
H146	H	0.670984	0.398872	1.002827
H147	H	0.581037	0.546851	0.929902
H148	H	0.580943	0.546716	0.783980
H149	H	0.670796	0.398600	0.710987
H150	H	0.397806	0.008943	-0.077190
C151	C	0.802773	0.368290	0.579814
C152	C	0.793168	0.482031	0.537884
C153	C	0.783574	0.595784	0.579801
C154	C	0.783585	0.595796	0.663647
C155	C	0.793191	0.482051	0.705581
C156	C	0.802785	0.368298	0.663665
H157	H	0.793159	0.482026	0.475812
H158	H	0.776463	0.679986	0.548758
H159	H	0.776483	0.680003	0.694676
H160	H	0.793200	0.482056	0.767653
H161	H	0.809896	0.284096	0.694708
H162	H	0.046188	-0.043463	-0.000309
H163	H	0.906259	0.010760	0.665722
H164	H	0.595951	0.345717	-0.000176
C165	C	0.802761	0.368284	0.419736
C166	C	0.860025	0.399446	0.367295
C167	C	0.850430	0.513190	0.325360
C168	C	0.783571	0.595771	0.335866
C169	C	0.726303	0.564611	0.388310
C170	C	0.735897	0.450867	0.430245
H171	H	0.909522	0.338313	0.359515
H172	H	0.892824	0.536256	0.286537
H173	H	0.776468	0.679971	0.304824
H174	H	0.676806	0.625744	0.396090
H175	H	0.693503	0.427801	0.469068
H176	H	0.464507	0.342567	-0.000190
H177	H	0.177637	-0.040316	-0.000238
H178	H	0.735925	0.291506	0.665783
