data_functionalizedCrystal
_audit_creation_method	'MofGen! by Chris Wilmer'
_symmetry_space_group_name_H-M	'P1'
_symmetry_Int_Tables_number	1
_symmetry_cell_setting	triclinic
loop_
_symmetry_equiv_pos_as_xyz
  x,y,z
_cell_length_a	12.759401
_cell_length_b	13.897448
_cell_length_c	12.759393
_cell_angle_alpha	90.030759
_cell_angle_beta	89.981504
_cell_angle_gamma	89.980270
loop_
_atom_site_label
_atom_site_type_symbol
_atom_site_fract_x
_atom_site_fract_y
_atom_site_fract_z
Zn1	Zn	1.606220	0.383954	-0.593987
Zn2	Zn	1.606099	0.545283	-0.418310
Zn3	Zn	1.430522	0.384004	-0.418327
Zn4	Zn	1.430496	0.545209	-0.593951
O5	O	1.518334	0.464613	-0.506144
O6	O	1.753225	0.405365	-0.570691
O7	O	1.582769	0.523942	-0.271291
O8	O	1.453890	0.249016	-0.441650
O9	O	1.753136	0.523893	-0.441622
O10	O	1.582975	0.248979	-0.570708
O11	O	1.453773	0.405451	-0.271303
O12	O	1.283497	0.405379	-0.441616
O13	O	1.453845	0.523766	-0.740977
O14	O	1.283478	0.523815	-0.570646
O15	O	1.582949	0.405293	-0.741004
O16	O	1.582744	0.680255	-0.441587
O17	O	1.453728	0.680201	-0.570630
C18	C	1.245367	0.464595	-0.506129
C19	C	1.128590	0.464611	-0.506148
C20	C	1.073746	0.526379	-0.573223
C21	C	0.964021	0.526391	-0.573235
C22	C	0.963996	0.402864	-0.439087
C23	C	1.073718	0.402847	-0.439082
C24	C	1.073759	0.597700	-0.650670
C25	C	0.964035	0.597712	-0.650681
C26	C	1.518249	0.715227	-0.506126
C27	C	1.518308	0.822441	-0.506153
C28	C	1.518411	1.018736	-0.506229
C29	C	1.518351	0.909503	-0.506190
C30	C	1.792367	0.464631	-0.506159
C31	C	1.909144	0.464639	-0.506165
C32	C	1.518408	0.464515	-0.780177
C33	C	1.518439	0.464474	-0.896954
C34	C	1.518440	1.213020	-0.506197
C35	C	1.518462	1.105806	-0.506252
C36	C	1.585673	0.402779	-0.951831
C37	C	1.585698	0.402744	-1.061556
C38	C	1.451252	0.526107	-1.061515
C39	C	1.451223	0.526137	-0.951793
C40	C	1.663297	0.331559	-0.951856
C41	C	1.663322	0.331524	-1.061580
C42	C	1.518321	0.464640	-0.233176
C43	C	1.518493	0.464410	-0.116400
H44	H	1.118369	0.352543	-0.384470
H45	H	1.740566	0.358339	-0.917820
H46	H	0.930040	0.571046	-0.728033
Br47	Br	1.614638	0.213287	-1.118338
H48	H	1.396525	0.576309	-1.106178
Br49	Br	1.798941	0.364853	-1.111223
Br50	Br	0.889521	0.319043	-0.348076
Br51	Br	1.627029	0.207056	-0.902248
H52	H	1.103569	0.577777	-0.732076
Br53	Br	1.359953	0.609849	-0.877318
Br54	Br	0.914352	0.722182	-0.614093
Br55	Br	1.130452	0.715949	-0.601971
