data_functionalizedCrystal
_audit_creation_method	'MofGen! by Chris Wilmer'
_symmetry_space_group_name_H-M	'P1'
_symmetry_Int_Tables_number	1
_symmetry_cell_setting	triclinic
loop_
_symmetry_equiv_pos_as_xyz
  x,y,z
_cell_length_a	8.559649
_cell_length_b	16.992694
_cell_length_c	16.053802
_cell_angle_alpha	92.750953
_cell_angle_beta	92.204030
_cell_angle_gamma	99.776556
loop_
_atom_site_label
_atom_site_type_symbol
_atom_site_fract_x
_atom_site_fract_y
_atom_site_fract_z
O1	O	0.329978	-1.023824	-0.069320
O2	O	0.326287	-0.795762	-0.069345
O3	O	0.098096	-0.929885	-0.069329
O4	O	0.558168	-0.889700	-0.069335
O5	O	0.110601	-0.922506	0.069529
O6	O	0.338792	-0.788383	0.069513
O7	O	0.342483	-1.016444	0.069538
Zn8	Zn	0.342623	-0.901242	0.091572
Zn9	Zn	0.326147	-0.910964	-0.091379
O10	O	0.570673	-0.882321	0.069523
C11	C	0.327794	-0.763145	0.000081
C12	C	0.313635	-0.676954	0.000072
C13	C	0.045208	-0.929241	0.000098
C14	C	-0.131015	-0.938306	0.000095
C15	C	0.340975	-1.049061	0.000110
C16	C	0.355134	-1.135252	0.000114
C17	C	0.623562	-0.882965	0.000093
C18	C	0.799784	-0.873901	0.000091
N19	N	0.353867	-0.894612	0.216432
C20	C	0.450242	-0.618488	0.000071
C21	C	0.436931	-0.537502	0.000082
C22	C	0.287010	-0.514985	0.000089
C23	C	0.150392	-0.573459	0.000093
C24	C	0.163706	-0.654442	0.000087
C25	C	0.231830	-0.274709	0.000112
C26	C	0.218527	-0.193719	0.000115
C27	C	0.505067	-0.157768	0.000106
C28	C	0.518367	-0.238755	0.000096
C29	C	0.381749	-0.297221	0.000104
N30	N	0.273399	-0.432206	0.000099
N31	N	0.395362	-0.379998	0.000100
N32	N	0.314891	-0.917601	-0.216239
C33	C	0.256811	-0.951698	0.260132
C34	C	0.264692	-0.947067	0.347539
C35	C	0.369639	-0.885353	0.391243
C36	C	0.466699	-0.828261	0.347536
C37	C	0.458808	-0.832890	0.260132
C38	C	0.404060	-0.865138	0.652650
C39	C	0.411947	-0.860515	0.740061
C40	C	0.209937	-0.979321	0.740057
C41	C	0.202063	-0.983946	0.652651
C42	C	0.299117	-0.926852	0.608952
N43	N	0.377701	-0.880619	0.480586
N44	N	0.291046	-0.931583	0.519610
H45	H	-0.124646	-0.811826	0.000087
N46	N	-0.231107	-1.020539	0.000117
H47	H	-0.347030	-1.015579	0.000123
H48	H	-0.211193	-1.053262	-0.051357
H49	H	0.116607	-1.034199	0.617069
H50	H	0.572324	-0.636813	0.000064
H51	H	0.640447	-0.257081	0.000080
H52	H	0.548171	-0.489901	0.000080
N53	N	0.084480	-0.337761	0.000101
H54	H	0.115651	-0.392482	0.000097
H55	H	0.024218	-0.328728	0.051576
N56	N	0.652424	-0.094717	0.000108
H57	H	0.648667	-0.063039	-0.051363
H58	H	0.657847	-0.057644	0.051621
H59	H	0.028324	-0.555119	0.000110
N60	N	0.160027	-1.008657	0.394660
H61	H	0.089231	-0.981256	0.430935
H62	H	0.092476	-1.048435	0.353645
N63	N	0.056818	-0.169431	0.000118
H64	H	-0.027709	-0.218757	0.000122
H65	H	0.049698	-0.133880	0.051593
H66	H	0.537840	-0.786403	0.224552
H67	H	0.052465	-0.702047	0.000088
H68	H	0.171359	-1.001956	0.224554
H69	H	0.130918	-1.025803	0.775645
N70	N	0.579880	-0.761696	0.394676
H71	H	0.657197	-0.785277	0.430930
H72	H	0.640056	-0.726254	0.353677
N73	N	0.525161	-0.793955	0.787202
H74	H	0.585450	-0.758489	0.746257
H75	H	0.463304	-0.761299	0.823484
N76	N	0.508726	-0.803557	0.605524
H77	H	0.576405	-0.763761	0.646476
H78	H	0.579397	-0.831032	0.569245
