data_functionalizedCrystal
_audit_creation_method	'MofGen! by Chris Wilmer'
_symmetry_space_group_name_H-M	'P1'
_symmetry_Int_Tables_number	1
_symmetry_cell_setting	triclinic
loop_
_symmetry_equiv_pos_as_xyz
  x,y,z
_cell_length_a	23.532353
_cell_length_b	12.996460
_cell_length_c	14.519709
_cell_angle_alpha	89.999398
_cell_angle_beta	96.746668
_cell_angle_gamma	90.006126
loop_
_atom_site_label
_atom_site_type_symbol
_atom_site_fract_x
_atom_site_fract_y
_atom_site_fract_z
O1	O	-0.074651	-0.085447	1.222964
O2	O	-0.083443	-0.085480	0.954380
O3	O	0.003851	-0.085440	1.096797
O4	O	-0.161944	-0.085486	1.080547
O5	O	0.003845	0.085694	1.096779
O6	O	-0.083448	0.085654	0.954362
O7	O	-0.074656	0.085687	1.222945
Cu8	Cu	-0.079052	0.101296	1.088652
Cu9	Cu	-0.079046	-0.101089	1.088674
O10	O	-0.161949	0.085648	1.080528
C11	C	-0.083035	0.000083	0.920016
C12	C	-0.081808	0.000072	0.817650
C13	C	0.025066	0.000130	1.096382
C14	C	0.088291	0.000140	1.095162
C15	C	0.480340	-0.093198	1.087512
C16	C	0.539745	-0.093203	1.086352
O17	O	0.570466	-0.172538	1.085729
N18	N	0.569456	0.000081	1.085767
C19	C	0.539758	0.093376	1.086332
O20	O	0.570485	0.172721	1.085727
C21	C	0.480354	0.093381	1.087485
C22	C	0.450647	0.000091	1.088080
C23	C	0.450633	-0.186480	1.088105
C24	C	0.391232	-0.186474	1.089267
C25	C	0.361539	-0.093186	1.089835
C26	C	0.391246	0.000096	1.089241
C27	C	0.450657	0.186675	1.088044
C28	C	0.391249	0.186671	1.089197
C29	C	0.361542	0.093381	1.089791
C30	C	0.302153	0.093391	1.090971
N31	N	0.272442	0.000107	1.091556
C32	C	0.302135	-0.093182	1.090988
C33	C	0.664511	0.093360	1.083908
C34	C	0.723915	0.093357	1.082762
C35	C	0.723897	-0.093223	1.082780
C36	C	0.664493	-0.093219	1.083933
C37	C	0.634800	0.000076	1.084494
C38	C	0.177389	-0.093162	1.093428
C39	C	0.117984	-0.093148	1.094594
C40	C	0.118006	0.093431	1.094571
C41	C	0.177407	0.093418	1.093410
C42	C	0.207097	0.000113	1.092836
O43	O	0.271393	0.172685	1.091591
O44	O	0.271400	-0.172513	1.091581
C45	C	0.816836	0.000078	1.080950
C46	C	0.753613	0.000068	1.082189
N47	N	-0.079056	0.243644	1.088643
N48	N	-0.079038	-0.243436	1.088689
C49	C	-0.079058	0.336750	1.088648
C50	C	-0.079054	0.453555	1.088656
C51	C	-0.079047	0.546653	1.088668
C52	C	-0.079044	0.663466	1.088678
C53	C	-0.077287	0.000120	0.442809
C54	C	-0.078543	0.000106	0.547102
C55	C	-0.079547	0.000095	0.630226
C56	C	-0.080803	0.000083	0.734525
C57	C	-0.075063	0.000122	1.257309
C58	C	-0.076291	0.000127	1.359676
H59	H	0.093799	-0.169120	1.095080
C60	C	0.171387	-0.277589	1.093543
C61	C	0.210017	-0.195724	1.092782
H62	H	0.191531	-0.340904	1.093147
H63	H	0.143923	-0.273695	1.040218
H64	H	0.152514	-0.273695	1.147790
H65	H	0.228887	-0.199613	1.038531
H66	H	0.237491	-0.199619	1.146112
H67	H	0.367049	-0.262441	1.089747
H68	H	0.748099	0.169323	1.082292
C69	C	0.541710	0.269544	1.086190
C70	C	0.483298	0.289224	1.087343
H71	H	0.561859	0.332859	1.085749
H72	H	0.547143	0.231178	1.032239
H73	H	0.555746	0.231261	1.139811
H74	H	0.469262	0.327500	1.033718
H75	H	0.477862	0.327606	1.141300
C76	C	0.397236	0.371099	1.089035
C77	C	0.358611	0.289227	1.089805
H78	H	0.377086	0.434411	1.089414
H79	H	0.416114	0.367195	1.034804
H80	H	0.424697	0.367225	1.142377
H81	H	0.331153	0.293097	1.036459
H82	H	0.339723	0.293134	1.144041
H83	H	0.474802	-0.262451	1.087639
C84	C	0.717927	-0.277659	1.082914
C85	C	0.756543	-0.195771	1.082152
H86	H	0.738084	-0.340962	1.082533
H87	H	0.690468	-0.273789	1.029583
H88	H	0.699048	-0.273768	1.137155
H89	H	0.775419	-0.199658	1.027907
H90	H	0.784012	-0.199643	1.135489
H91	H	0.640309	-0.169184	1.084416
C92	C	0.670506	0.277787	1.083784
C93	C	0.631877	0.195920	1.084538
H94	H	0.650360	0.341101	1.084176
H95	H	0.689383	0.273893	1.029551
H96	H	0.697967	0.273896	1.137124
H97	H	0.604418	0.199806	1.031195
H98	H	0.612990	0.199815	1.138777
H99	H	0.201597	0.169382	1.092935
C100	C	0.026946	0.176263	1.096324
C101	C	0.085359	0.195971	1.095189
H102	H	0.006790	0.239568	1.096695
H103	H	0.021504	0.137954	1.150305
H104	H	0.012926	0.137914	1.042733
H105	H	0.099380	0.234313	1.148784
H106	H	0.090804	0.234296	1.041202
