data_functionalizedCrystal
_audit_creation_method	'MofGen! by Chris Wilmer'
_symmetry_space_group_name_H-M	'P1'
_symmetry_Int_Tables_number	1
_symmetry_cell_setting	triclinic
loop_
_symmetry_equiv_pos_as_xyz
  x,y,z
_cell_length_a	16.120484
_cell_length_b	16.120542
_cell_length_c	12.759393
_cell_angle_alpha	92.919150
_cell_angle_beta	92.862621
_cell_angle_gamma	89.836765
loop_
_atom_site_label
_atom_site_type_symbol
_atom_site_fract_x
_atom_site_fract_y
_atom_site_fract_z
Zn1	Zn	-0.395636	-1.254485	-0.699406
Zn2	Zn	0.104364	-0.754485	-0.199406
Zn3	Zn	-0.534710	-1.247325	-0.532138
Zn4	Zn	-0.034710	-0.747325	-0.032138
Zn5	Zn	-0.388609	-1.115421	-0.514407
Zn6	Zn	0.111391	-0.615421	-0.014407
Zn7	Zn	-0.527578	-1.108337	-0.698440
Zn8	Zn	-0.027578	-0.608337	-0.198440
O9	O	-0.461633	-1.181392	-0.611098
O10	O	0.038367	-0.681392	-0.111098
O11	O	-0.420009	-1.369901	-0.685042
O12	O	0.079991	-0.869901	-0.185042
O13	O	-0.515373	-1.229797	-0.382765
O14	O	-0.015373	-0.729797	0.117235
O15	O	-0.273179	-1.139830	-0.531932
O16	O	0.226821	-0.639830	-0.031932
O17	O	-0.522187	-1.364641	-0.562151
O18	O	-0.022187	-0.864641	-0.062151
O19	O	-0.278341	-1.241999	-0.667849
O20	O	0.221659	-0.741999	-0.167849
O21	O	-0.408034	-1.132887	-0.369739
O22	O	0.091966	-0.632887	0.130261
O23	O	-0.401118	-0.998116	-0.530995
O24	O	0.098882	-0.498116	-0.030995
O25	O	-0.510032	-1.127755	-0.845588
O26	O	-0.010032	-0.627755	-0.345588
O27	O	-0.503218	-0.992911	-0.666203
O28	O	-0.003218	-0.492911	-0.166203
O29	O	-0.413094	-1.235129	-0.846298
O30	O	0.086906	-0.735129	-0.346298
O31	O	-0.650126	-1.222927	-0.561214
O32	O	-0.150126	-0.722927	-0.061214
O33	O	-0.644886	-1.120813	-0.683395
O34	O	-0.144886	-0.620813	-0.183395
C35	C	-0.450633	-0.965341	-0.596571
C36	C	0.049367	-0.465341	-0.096571
C37	C	-0.445947	-0.872913	-0.590382
C38	C	0.054053	-0.372913	-0.090382
C39	C	-0.485916	-0.659944	-0.643140
C40	C	0.014084	-0.159944	-0.143140
C41	C	-0.437399	-0.703689	-0.579083
C42	C	0.062601	-0.203689	-0.079083
C43	C	-0.442156	-0.797854	-0.585372
C44	C	0.057844	-0.297854	-0.085372
C45	C	-0.481160	-0.565771	-0.636852
C46	C	0.018840	-0.065771	-0.136852
C47	C	-0.677679	-1.170347	-0.624148
C48	C	-0.177679	-0.670347	-0.124148
C49	C	-0.770108	-1.165698	-0.629772
C50	C	-0.270108	-0.665698	-0.129772
C51	C	-0.939337	-1.157215	-0.640060
C52	C	-0.439337	-0.657215	-0.140060
C53	C	-0.983096	-1.205719	-0.582162
C54	C	-0.483096	-0.705719	-0.082162
C55	C	-1.077261	-1.200999	-0.587887
C56	C	-0.577261	-0.700999	-0.087887
C57	C	-0.845163	-1.161934	-0.634337
C58	C	-0.345163	-0.661934	-0.134337
C59	C	-0.244745	-1.192503	-0.598021
C60	C	0.255255	-0.692503	-0.098021
C61	C	-0.152321	-1.197238	-0.592448
C62	C	0.347679	-0.697238	-0.092448
C63	C	-0.461551	-1.181450	-0.885130
C64	C	0.038449	-0.681450	-0.385130
C65	C	-0.461516	-1.181475	-1.001906
C66	C	0.038484	-0.681475	-0.501906
C67	C	-0.472673	-0.398287	-0.625667
C68	C	0.027327	0.101713	-0.125667
C69	C	-0.477366	-0.490715	-0.631837
C70	C	0.022634	0.009285	-0.131837
C71	C	-0.405616	-1.131038	-1.049992
C72	C	0.094384	-0.631038	-0.549992
C73	C	-0.405592	-1.131064	-1.159716
C74	C	0.094408	-0.631064	-0.659716
C75	C	-0.517372	-1.231973	-1.173259
C76	C	-0.017372	-0.731973	-0.673259
C77	C	-0.517399	-1.231941	-1.063537
C78	C	-0.017399	-0.731941	-0.563537
C79	C	-0.349733	-1.080572	-0.988361
C80	C	0.150267	-0.580572	-0.488361
C81	C	-0.293827	-1.030131	-1.036446
C82	C	0.206173	-0.530131	-0.536446
C83	C	-0.293804	-1.030157	-1.146171
C84	C	0.206196	-0.530157	-0.646171
C85	C	-0.349686	-1.080624	-1.207809
C86	C	0.150314	-0.580624	-0.707809
C87	C	-0.461657	-1.181385	-0.338131
C88	C	0.038343	-0.681385	0.161869
C89	C	-0.461466	-1.181533	-0.221352
C90	C	0.038534	-0.681533	0.278648
H91	H	-0.392289	-0.670421	-0.519518
H92	H	0.107711	-0.170421	-0.019518
C93	C	-0.938170	-1.266601	-0.509381
C94	C	-0.438170	-0.766601	-0.009381
N95	N	-0.904327	-1.312453	-0.454560
N96	N	-0.404327	-0.812453	0.045440
C97	C	-0.984263	-1.096322	-0.712817
C98	C	-0.484263	-0.596322	-0.212817
N99	N	-1.018111	-1.050454	-0.767611
N100	N	-0.518111	-0.550454	-0.267611
C101	C	-0.546862	-0.704886	-0.723594
C102	C	-0.046862	-0.204886	-0.223594
N103	N	-0.592770	-0.738745	-0.784187
N104	N	-0.092770	-0.238745	-0.284187
H105	H	-0.349744	-1.080546	-0.899017
H106	H	0.150256	-0.580546	-0.399017
H107	H	-0.248335	-0.989037	-0.986253
H108	H	0.251665	-0.489037	-0.486253
H109	H	-0.248288	-0.989080	-1.185319
H110	H	0.251712	-0.489080	-0.685319
C111	C	-0.578898	-1.287420	-1.010639
C112	C	-0.078898	-0.787420	-0.510639
N113	N	-0.625224	-1.329203	-0.970796
N114	N	-0.125224	-0.829203	-0.470796
C115	C	-0.349658	-1.080649	-1.328510
C116	C	0.150342	-0.580649	-0.828510
N117	N	-0.349633	-1.080670	-1.419420
N118	N	0.150367	-0.580670	-0.919420
H119	H	-0.562867	-1.273063	-1.223454
H120	H	-0.062867	-0.773063	-0.723454
