data_functionalizedCrystal
_audit_creation_method	'MofGen! by Chris Wilmer'
_symmetry_space_group_name_H-M	'P1'
_symmetry_Int_Tables_number	1
_symmetry_cell_setting	triclinic
loop_
_symmetry_equiv_pos_as_xyz
  x,y,z
_cell_length_a	16.176319
_cell_length_b	16.109301
_cell_length_c	16.109301
_cell_angle_alpha	96.538519
_cell_angle_beta	89.991001
_cell_angle_gamma	89.998537
loop_
_atom_site_label
_atom_site_type_symbol
_atom_site_fract_x
_atom_site_fract_y
_atom_site_fract_z
O1	O	-0.068697	-1.103128	0.106871
O2	O	-0.068710	-0.861066	0.120170
O3	O	-0.068695	-0.988746	-0.007510
O4	O	-0.068712	-0.975447	0.234552
O5	O	0.068798	-0.988744	-0.007522
O6	O	0.068783	-0.861063	0.120159
O7	O	0.068796	-1.103125	0.106859
Cu8	Cu	0.081344	-0.982094	0.113508
Cu9	Cu	-0.081258	-0.982097	0.113522
O10	O	0.068781	-0.975445	0.234540
C11	C	0.000035	-0.830090	0.119626
C12	C	0.000030	-0.737794	0.118011
N13	N	-0.195623	-0.982099	0.113525
C14	C	0.000052	-0.988206	-0.038491
C15	C	0.000053	-0.986591	-0.130786
C16	C	-0.238880	-1.038741	0.057100
C17	C	-0.325428	-1.038745	0.057098
C18	C	-0.368716	-0.982101	0.113518
C19	C	-0.325452	-0.925456	0.169950
C20	C	-0.238907	-0.925458	0.169955
C21	C	-0.674481	-0.925450	0.169931
C22	C	-0.761032	-0.925451	0.169920
C23	C	-0.761001	-1.038737	0.057074
C24	C	-0.674456	-1.038738	0.057079
C25	C	-0.631200	-0.982097	0.113513
C26	C	-0.537356	-0.982095	0.113516
C27	C	-0.462558	-0.982098	0.113513
N28	N	0.195709	-0.982098	0.113498
C29	C	0.000049	-1.134101	0.107404
C30	C	0.000049	-1.226397	0.109019
C31	C	0.000034	-0.515522	0.190018
C32	C	0.000039	-0.428801	0.188494
C33	C	0.000047	-0.448676	0.037006
C34	C	0.000048	-0.535394	0.038530
C35	C	0.000037	-0.568815	0.115039
C36	C	0.000042	-0.395376	0.111990
C37	C	0.000048	-0.301350	0.110337
C38	C	0.000033	-0.662847	0.116693
C39	C	0.000044	-1.058599	-0.353059
C40	C	0.000037	-1.057075	-0.439779
C41	C	0.000032	-0.905586	-0.419905
C42	C	0.000033	-0.907111	-0.333186
C43	C	0.000043	-0.983620	-0.299766
C44	C	0.000035	-0.980571	-0.473205
C45	C	0.000028	-0.978918	-0.567231
C46	C	0.000049	-0.985273	-0.205734
C47	C	0.000032	-0.975984	0.265521
C48	C	0.000025	-0.977600	0.357816
H49	H	-0.203641	-1.084863	0.011153
C50	C	-0.808585	-1.101055	-0.004991
H51	H	-0.866328	-1.092953	0.003091
H52	H	-0.794393	-1.092156	-0.060512
H53	H	-0.794396	-1.156508	0.004174
C54	C	0.000035	-0.824630	-0.274560
H55	H	0.000040	-0.778846	-0.306882
H56	H	-0.047912	-0.822076	-0.240309
H57	H	0.047988	-0.822080	-0.240327
H58	H	-0.360703	-0.879339	0.215893
H59	H	0.000025	-0.843295	-0.447127
C60	C	-0.373007	-1.101046	-0.004975
H61	H	-0.334831	-1.134773	-0.038583
H62	H	-0.406775	-1.135584	0.025009
H63	H	-0.406760	-1.071214	-0.039660
H64	H	-0.203687	-0.879335	0.215904
H65	H	0.000036	-1.118130	-0.483168
C66	C	0.000049	-0.411914	-0.047149
H67	H	0.000057	-0.456076	-0.091586
H68	H	-0.047899	-0.378497	-0.050886
H69	H	0.048001	-0.378500	-0.050900
H70	H	0.000051	-1.120897	-0.325851
C71	C	-0.808648	-0.863147	0.231991
H72	H	-0.770492	-0.829419	0.265609
H73	H	-0.842403	-0.828610	0.202002
H74	H	-0.842416	-0.892982	0.266668
C75	C	-0.626843	-1.101048	-0.004981
H76	H	-0.665002	-1.134789	-0.038581
H77	H	-0.593072	-1.071229	-0.039662
H78	H	-0.593091	-1.135583	0.025022
C79	C	-0.626910	-0.863164	0.232022
H80	H	-0.665088	-0.829431	0.265622
H81	H	-0.593169	-0.893007	0.266701
H82	H	-0.593130	-0.828618	0.202052
C83	C	0.000031	-0.552282	0.274174
H84	H	0.000038	-0.508119	0.318610
H85	H	-0.047915	-0.585697	0.277927
H86	H	0.047985	-0.585699	0.277910
H87	H	0.000039	-0.385413	0.249550
C88	C	0.000047	-0.594021	-0.043951
H89	H	0.000041	-0.561698	-0.089735
H90	H	0.047993	-0.628266	-0.046510
H91	H	-0.047906	-0.628259	-0.046494
