data_functionalizedCrystal
_audit_creation_method	'MofGen! by Chris Wilmer'
_symmetry_space_group_name_H-M	'P1'
_symmetry_Int_Tables_number	1
_symmetry_cell_setting	triclinic
loop_
_symmetry_equiv_pos_as_xyz
  x,y,z
_cell_length_a	13.262390
_cell_length_b	13.262975
_cell_length_c	14.586319
_cell_angle_alpha	105.909330
_cell_angle_beta	74.079199
_cell_angle_gamma	88.762186
loop_
_atom_site_label
_atom_site_type_symbol
_atom_site_fract_x
_atom_site_fract_y
_atom_site_fract_z
O1	O	1.393318	0.141360	-0.388433
O2	O	1.087797	0.156732	-0.308418
O3	O	1.248237	-0.003699	-0.388414
O4	O	1.232877	0.301791	-0.308437
O5	O	1.248226	-0.003701	-0.235931
O6	O	1.087785	0.156729	-0.155935
O7	O	1.393306	0.141358	-0.235950
Cu8	Cu	1.240545	0.149043	-0.182020
Cu9	Cu	1.240558	0.149046	-0.362348
O10	O	1.232866	0.301788	-0.155954
C11	C	1.048682	0.155869	-0.222640
C12	C	0.932151	0.153290	-0.194225
C13	C	0.603703	0.146011	-0.446622
C14	C	0.713190	0.148429	-0.473322
C15	C	0.767936	0.149645	-0.403550
C16	C	0.713183	0.148441	-0.307074
C17	C	0.603686	0.146015	-0.280374
C18	C	0.767919	0.149649	-0.237302
C19	C	0.713167	0.148445	-0.140826
C20	C	0.603681	0.146019	-0.114131
C21	C	0.548935	0.144804	-0.183903
C22	C	0.877416	0.152075	-0.264002
C23	C	0.877400	0.152079	-0.097754
C24	C	0.767913	0.149661	-0.071054
C25	C	1.247368	-0.042804	-0.321707
C26	C	1.244784	-0.159323	-0.350112
C27	C	1.243589	-0.214037	-0.446586
C28	C	1.241173	-0.323514	-0.473299
C29	C	1.239960	-0.378287	-0.403543
C30	C	1.241162	-0.323574	-0.307069
C31	C	1.243570	-0.214086	-0.280351
C32	C	1.239941	-0.378336	-0.237307
C33	C	1.241143	-0.323623	-0.140833
C34	C	1.243552	-0.214145	-0.114120
C35	C	1.244765	-0.159371	-0.183877
C36	C	1.237533	-0.487824	-0.264025
C37	C	1.237514	-0.487873	-0.097790
C38	C	1.239930	-0.378397	-0.071077
C39	C	1.432420	0.142221	-0.321730
C40	C	1.548951	0.144800	-0.350150
C41	C	1.233735	0.340894	-0.222663
C42	C	1.236319	0.457412	-0.194264
N43	N	1.240543	0.149041	-0.055188
N44	N	1.240568	0.149041	-0.489184
C45	C	1.311610	0.078026	0.144396
C46	C	1.311613	0.078024	0.240376
C47	C	1.169494	0.220059	0.311228
C48	C	1.169486	0.220055	0.215249
C49	C	1.240550	0.149040	0.131835
C50	C	1.240561	0.149041	0.323793
C51	C	1.240563	0.149039	0.427859
C52	C	1.240547	0.149041	0.027762
H53	H	0.921985	0.153057	-0.342552
H54	H	1.369473	0.020200	0.076480
O55	O	1.244853	-0.155136	-0.010068
H56	H	1.172939	-0.167140	0.044731
H57	H	0.857085	0.151615	-0.425294
H58	H	0.757762	0.149403	-0.551874
H59	H	1.111616	0.277884	0.205025
O60	O	1.244892	-0.154956	-0.521811
H61	H	1.172973	-0.166922	-0.546717
O62	O	0.544661	0.144699	-0.521870
H63	H	0.459327	0.142815	-0.487093
H64	H	0.459781	0.142838	-0.162168
O65	O	1.388268	0.001444	0.253929
H66	H	1.437687	-0.047926	0.179799
O67	O	1.092863	0.296660	0.401199
H68	H	1.106597	0.378538	0.399746
O69	O	0.544621	0.144719	-0.010078
H70	H	0.601077	0.145982	0.033958
H71	H	0.723318	0.148680	0.007497
H72	H	0.921974	0.153068	-0.040940
O73	O	1.241221	-0.319373	0.032975
H74	H	1.312215	-0.349420	0.047633
O75	O	1.247480	-0.041303	-0.155248
H76	H	1.176703	-0.003233	-0.092277
H77	H	1.236551	-0.532361	-0.342574
O78	O	1.236221	-0.546944	-0.022551
H79	H	1.163677	-0.587810	-0.010688
O80	O	1.237396	-0.496372	-0.432377
H81	H	1.165324	-0.516221	-0.455252
O82	O	1.239830	-0.382521	-0.577331
H83	H	1.241069	-0.326043	-0.621347
