data_functionalizedCrystal
_audit_creation_method	'MofGen! by Chris Wilmer'
_symmetry_space_group_name_H-M	'P1'
_symmetry_Int_Tables_number	1
_symmetry_cell_setting	triclinic
loop_
_symmetry_equiv_pos_as_xyz
  x,y,z
_cell_length_a	12.759401
_cell_length_b	12.759400
_cell_length_c	13.032268
_cell_angle_alpha	97.151488
_cell_angle_beta	97.165524
_cell_angle_gamma	90.012209
loop_
_atom_site_label
_atom_site_type_symbol
_atom_site_fract_x
_atom_site_fract_y
_atom_site_fract_z
Zn1	Zn	1.530787	-0.493687	-0.590803
Zn2	Zn	1.553010	-0.647089	-0.416070
Zn3	Zn	1.377411	-0.471424	-0.416085
Zn4	Zn	1.355087	-0.669317	-0.590768
O5	O	1.454074	-0.570379	-0.503431
O6	O	1.680755	-0.514051	-0.567632
O7	O	1.548359	-0.605167	-0.269840
O8	O	1.397799	-0.327359	-0.439283
O9	O	1.697082	-0.626755	-0.439256
O10	O	1.510484	-0.343715	-0.567647
O11	O	1.419347	-0.476107	-0.269851
O12	O	1.227430	-0.497660	-0.439249
O13	O	1.359752	-0.664639	-0.737005
O14	O	1.211029	-0.643051	-0.567588
O15	O	1.488838	-0.535604	-0.737030
O16	O	1.526713	-0.797056	-0.439223
O17	O	1.381300	-0.813387	-0.567573
C18	C	1.181108	-0.570353	-0.503417
C19	C	1.064329	-0.570370	-0.503435
C20	C	1.000946	-0.511825	-0.570384
C21	C	0.891221	-0.511846	-0.570391
C22	C	0.908273	-0.628965	-0.436497
C23	C	1.017997	-0.628938	-0.436486
C24	C	1.047279	-0.453257	-0.637334
C25	C	0.983894	-0.394708	-0.704289
C26	C	0.874169	-0.394729	-0.704296
C27	C	0.827829	-0.453299	-0.637347
C28	C	1.454021	-0.843344	-0.503415
C29	C	1.454090	-0.960125	-0.503443
C30	C	1.512724	-1.023431	-0.570337
C31	C	1.512770	-1.133158	-0.570362
C32	C	1.395545	-1.116262	-0.436591
C33	C	1.395494	-1.006538	-0.436571
C34	C	1.571320	-0.977018	-0.637209
C35	C	1.629961	-1.040324	-0.704107
C36	C	1.630006	-1.150052	-0.704133
C37	C	1.571412	-1.196472	-0.637259
C38	C	1.728105	-0.570407	-0.503447
C39	C	1.844881	-0.570418	-0.503453
C40	C	1.419326	-0.605084	-0.775994
C41	C	1.404518	-0.619873	-0.892144
C42	C	1.454153	-0.296351	-0.503471
C43	C	1.454186	-0.179576	-0.503488
C44	C	1.461786	-0.562623	-0.943940
C45	C	1.446483	-0.577907	-1.063987
C46	C	1.488747	-0.535733	-0.231929
C47	C	1.503758	-0.520648	-0.115780
H48	H	0.822565	-0.347047	-0.758806
H49	H	0.738485	-0.453286	-0.637336
F50	F	1.367579	-0.656762	-1.122181
F51	F	0.858950	-0.691297	-0.365253
F52	F	1.582668	-0.441798	-1.057588
H53	H	1.069605	-0.676610	-0.381970
H54	H	1.344153	-0.680195	-0.936674
H55	H	1.347840	-1.154067	-0.382145
H56	H	1.347747	-0.954993	-0.382101
F57	F	1.540659	-0.483745	-0.885742
H58	H	1.136621	-0.453233	-0.637336
H59	H	1.677744	-1.201594	-0.758613
F60	F	1.033216	-0.332369	-0.775529
F61	F	1.571602	-1.313240	-0.637167
F62	F	1.571254	-0.860240	-0.637207
H63	H	1.677660	-1.002524	-0.758560
