data_functionalizedCrystal
_audit_creation_method	'MofGen! by Chris Wilmer'
_symmetry_space_group_name_H-M	'P1'
_symmetry_Int_Tables_number	1
_symmetry_cell_setting	triclinic
loop_
_symmetry_equiv_pos_as_xyz
  x,y,z
_cell_length_a	27.732048
_cell_length_b	10.654550
_cell_length_c	9.730223
_cell_angle_alpha	90.000193
_cell_angle_beta	90.005317
_cell_angle_gamma	96.436221
loop_
_atom_site_label
_atom_site_type_symbol
_atom_site_fract_x
_atom_site_fract_y
_atom_site_fract_z
O1	O	0.641855	-0.149411	-0.114110
O2	O	0.501203	-0.172130	-0.114151
O3	O	0.574763	0.022105	-0.114124
O4	O	0.568295	-0.343646	-0.114136
O5	O	0.574762	0.022100	0.114456
O6	O	0.501202	-0.172135	0.114429
O7	O	0.641854	-0.149416	0.114470
Zn8	Zn	0.571528	-0.160776	0.150742
Zn9	Zn	0.571529	-0.160770	-0.150422
O10	O	0.568294	-0.343651	0.114444
C11	C	0.483193	-0.171655	0.000134
C12	C	0.429529	-0.170219	0.000118
C13	C	0.574287	0.068880	0.000164
C14	C	0.572867	0.208264	0.000159
N15	N	0.571531	-0.160780	0.356278
C16	C	0.091372	-0.275959	0.000174
C17	C	-0.110321	-0.270631	0.000187
O18	O	-0.140974	-0.367322	0.000243
N19	N	-0.130162	-0.155458	0.000188
C20	C	-0.099576	-0.041609	0.000195
O21	O	-0.121080	0.056475	0.000211
C22	C	0.102116	-0.046938	0.000193
C23	C	0.121954	-0.162118	0.000177
C24	C	0.111211	-0.391130	0.000160
C25	C	0.161631	-0.392461	0.000150
C26	C	0.192213	-0.278620	0.000153
C27	C	0.172374	-0.163449	0.000167
C28	C	0.132701	0.066910	0.000210
C29	C	0.183126	0.065567	0.000213
C30	C	0.202964	-0.049613	0.000197
C31	C	0.253376	-0.050940	0.000159
N32	N	0.273217	-0.166113	0.000158
C33	C	0.242635	-0.279953	0.000155
C34	C	-0.205467	-0.038819	0.000194
C35	C	-0.255890	-0.037486	0.000192
C36	C	-0.266631	-0.266509	0.000186
C37	C	-0.216208	-0.267840	0.000178
C38	C	-0.185626	-0.153992	0.000193
C39	C	0.348522	-0.282739	0.000131
C40	C	0.398947	-0.284060	0.000115
C41	C	0.409684	-0.055038	0.000128
C42	C	0.359263	-0.053716	0.000137
C43	C	0.328683	-0.167577	0.000144
O44	O	0.284058	0.045700	0.000118
O45	O	0.264149	-0.378023	0.000170
C46	C	0.040952	-0.274628	0.000185
C47	C	0.021113	-0.159457	0.000199
C48	C	0.051695	-0.045616	0.000202
C49	C	-0.029309	-0.158124	0.000197
C50	C	-0.059891	-0.271965	0.000194
C51	C	-0.040050	-0.387138	0.000192
C52	C	0.010370	-0.388469	0.000182
C53	C	0.031854	0.069557	0.000203
C54	C	-0.018567	0.070878	0.000212
C55	C	-0.049148	-0.042962	0.000209
C56	C	0.659864	-0.149890	0.000182
C57	C	0.713528	-0.151326	0.000189
C58	C	0.568769	-0.390426	0.000152
C59	C	0.570190	-0.529810	0.000149
C60	C	0.616177	0.289570	0.000175
C61	C	0.614840	0.420535	0.000165
C62	C	0.526876	0.388874	0.000128
C63	C	0.528215	0.257912	0.000128
C64	C	0.660830	0.239922	0.000206
C65	C	0.704144	0.321230	0.000225
C66	C	0.702806	0.452195	0.000215
C67	C	0.658154	0.501852	0.000186
N68	N	0.571530	-0.160756	-0.355959
C69	C	0.604111	-0.074801	0.428216
C70	C	0.604110	-0.074786	0.572099
C71	C	0.538946	-0.246739	0.572093
C72	C	0.538945	-0.246747	0.428213
C73	C	0.636697	0.011166	0.356281
C74	C	0.669281	0.097151	0.428219
C75	C	0.669279	0.097166	0.572102
C76	C	0.636694	0.011197	0.644047
H77	H	0.415096	-0.377858	0.000102
N78	N	0.747053	0.535229	0.000242
N79	N	0.776647	0.531196	0.096612
H80	H	0.807898	0.589836	0.096638
H81	H	0.657068	0.608493	0.000163
H82	H	0.026517	-0.482260	0.000171
N83	N	0.317297	-0.399055	0.000145
N84	N	0.335025	-0.501870	0.000134
H85	H	0.312973	-0.584019	0.000138
H86	H	0.490522	0.429315	0.000107
N87	N	0.181883	-0.510127	0.000133
N88	N	0.154564	-0.611752	0.000131
H89	H	0.168864	-0.694862	0.000120
H90	H	0.492947	0.191709	0.000116
H91	H	0.661924	0.133286	0.000219
H92	H	0.740498	0.280791	0.000213
H93	H	0.636702	0.011159	0.239124
N94	N	0.702555	0.184966	0.354715
N95	N	0.702552	0.184946	0.226251
H96	H	0.726052	0.246969	0.174339
N97	N	0.505674	-0.334591	0.354719
N98	N	0.521269	-0.412267	0.274442
H99	H	0.497770	-0.474307	0.222535
N100	N	0.505666	-0.334538	0.645600
N101	N	0.505671	-0.334517	0.774063
H102	H	0.482167	-0.396528	0.825979
H103	H	0.695807	0.167186	0.630672
H104	H	0.086315	-0.483838	0.000163
N105	N	0.636683	0.011228	0.791020
N106	N	0.628362	0.108110	0.855224
H107	H	0.628354	0.108130	0.959023
H108	H	-0.200059	-0.361630	0.000173
H109	H	-0.291540	-0.359202	0.000184
H110	H	-0.272038	0.056305	0.000183
N111	N	-0.174233	0.077484	0.000225
N112	N	-0.176270	0.154303	0.096579
H113	H	-0.154213	0.236444	0.096597
N114	N	0.112455	0.184580	0.000251
N115	N	0.121699	0.261081	0.096620
H116	H	0.107403	0.344195	0.096655
H117	H	0.208024	0.158279	0.000225
N118	N	0.339003	0.063944	0.000157
N119	N	0.348241	0.140461	0.096514
H120	H	0.333936	0.223562	0.096540
N121	N	0.440929	0.061240	0.000170
N122	N	0.438901	0.138042	0.096544
H123	H	0.460970	0.220164	0.096587
H124	H	-0.064959	-0.479831	0.000184
H125	H	-0.034713	0.164679	0.000214
N126	N	0.063082	0.185860	0.000211
N127	N	0.045354	0.288676	0.000216
H128	H	0.067407	0.370824	0.000215
