data_functionalizedCrystal
_audit_creation_method	'MofGen! by Chris Wilmer'
_symmetry_space_group_name_H-M	'P1'
_symmetry_Int_Tables_number	1
_symmetry_cell_setting	triclinic
loop_
_symmetry_equiv_pos_as_xyz
  x,y,z
_cell_length_a	16.992694
_cell_length_b	10.540539
_cell_length_c	16.053802
_cell_angle_alpha	92.593658
_cell_angle_beta	87.249047
_cell_angle_gamma	87.596857
loop_
_atom_site_label
_atom_site_type_symbol
_atom_site_fract_x
_atom_site_fract_y
_atom_site_fract_z
O1	O	1.045174	0.264306	-0.069318
O2	O	0.816873	0.261349	-0.069343
O3	O	0.936232	0.078573	-0.069329
O4	O	0.925815	0.447082	-0.069332
O5	O	0.929662	0.088589	0.069529
O6	O	0.810303	0.271366	0.069516
O7	O	1.038604	0.274322	0.069540
Zn8	Zn	0.923410	0.274434	0.091575
Zn9	Zn	0.932067	0.261237	-0.091377
O10	O	0.919245	0.457098	0.069526
C11	C	0.784355	0.262556	0.000083
C12	C	0.697247	0.251215	0.000074
C13	C	0.932166	0.036210	0.000099
C14	C	0.929829	-0.104941	0.000094
C15	C	0.647620	0.360635	0.000073
C16	C	0.565773	0.349973	0.000085
C17	C	0.533555	0.229889	0.000091
C18	C	0.583189	0.120461	0.000094
C19	C	0.665034	0.131125	0.000088
C20	C	0.289709	0.185691	0.000114
C21	C	0.207858	0.175036	0.000117
C22	C	0.190447	0.404549	0.000110
C23	C	0.272294	0.415202	0.000099
C24	C	0.321921	0.305774	0.000106
N25	N	0.449895	0.218988	0.000100
N26	N	0.405579	0.316677	0.000103
C27	C	0.840283	-0.296162	-0.000227
C28	C	0.842638	-0.149316	0.000086
C29	C	0.968037	-0.157237	0.079393
C30	C	0.965058	-0.304035	0.079460
C31	C	0.974303	-0.315790	-0.078448
C32	C	0.975156	-0.168814	-0.079496
C33	C	1.071123	0.273115	0.000112
C34	C	1.158230	0.284456	0.000117
C35	C	0.923311	0.499461	0.000097
C36	C	0.925649	0.640612	0.000096
N37	N	0.917508	0.283440	0.216434
N38	N	0.937975	0.252222	-0.216237
C39	C	0.968315	0.205700	0.260134
C40	C	0.964193	0.212013	0.347540
C41	C	0.909269	0.296073	0.391245
C42	C	0.858458	0.373817	0.347539
C43	C	0.862576	0.367497	0.260134
C44	C	0.891281	0.323645	0.652653
C45	C	0.887169	0.329962	0.740063
C46	C	0.992904	0.168156	0.740059
C47	C	0.997020	0.161848	0.652652
C48	C	0.946206	0.239587	0.608954
N49	N	0.905057	0.302531	0.480588
N50	N	0.950415	0.233122	0.519612
H51	H	0.673844	0.458420	0.000068
N52	N	0.139752	0.516320	0.000129
N53	N	0.140305	0.598562	0.058665
H54	H	0.104501	0.677507	0.058683
N55	N	0.174961	0.052356	0.000121
N56	N	0.219277	-0.045337	0.000127
H57	H	0.196044	-0.131976	0.000129
N58	N	0.340383	0.073905	0.000118
N59	N	0.311605	-0.033303	0.000118
H60	H	0.347396	-0.112259	0.000119
H61	H	1.034274	0.104863	0.775646
N62	N	0.515091	0.461757	0.000089
N63	N	0.543866	0.568966	0.000080
H64	H	0.508072	0.647920	0.000084
H65	H	0.556951	0.022687	0.000111
N66	N	0.839388	0.403042	0.608006
N67	N	0.792764	0.354237	0.559242
H68	H	0.756114	0.410315	0.527705
N69	N	0.305188	0.537874	0.000082
N70	N	0.260868	0.635563	0.000077
H71	H	0.284099	0.722204	0.000059
N72	N	0.715719	0.019343	0.000098
N73	N	0.686946	-0.087868	0.000107
H74	H	0.722741	-0.166819	0.000119
N75	N	0.927982	-0.101648	0.153427
N76	N	0.964925	-0.037658	0.204739
H77	H	0.936632	0.001600	0.257025
N78	N	0.797544	-0.095391	0.071501
N79	N	0.725824	-0.116023	0.080774
H80	H	0.693974	-0.077940	0.131215
H81	H	1.031928	-0.129114	0.082349
H82	H	0.948927	-0.354127	-0.138551
N83	N	0.804589	-0.104619	-0.071227
N84	N	0.776104	-0.181914	-0.121575
H85	H	0.749226	-0.150354	-0.171940
H86	H	1.005563	0.148710	0.383120
H87	H	0.808532	-0.331853	-0.057095
N88	N	0.831048	0.415803	0.784713
N89	N	0.779839	0.374025	0.833499
H90	H	0.740206	0.434645	0.865035
N91	N	0.793900	-0.332683	0.070703
N92	N	0.823440	-0.405073	0.121492
H93	H	0.790683	-0.430870	0.171588
H94	H	0.931243	-0.330650	0.138731
H95	H	1.027595	-0.346303	0.083064
N96	N	0.810669	0.446910	0.215506
N97	N	0.761632	0.521958	0.254536
H98	H	0.724969	0.578043	0.223018
H99	H	0.947229	-0.134851	-0.138159
N100	N	1.053345	-0.368201	-0.079129
N101	N	1.109885	-0.296172	-0.077138
H102	H	1.165707	-0.333188	-0.077616
H103	H	1.038951	-0.139421	-0.084277
N104	N	1.024382	0.119754	0.215508
N105	N	1.069707	0.050295	0.254540
H106	H	1.109287	-0.010440	0.223026
H107	H	1.041744	0.093400	0.617070
N108	N	0.802352	0.459666	0.392193
N109	N	0.798682	0.465300	0.470232
H110	H	0.759057	0.525934	0.501768
