data_functionalizedCrystal
_audit_creation_method	'MofGen! by Chris Wilmer'
_symmetry_space_group_name_H-M	'P1'
_symmetry_Int_Tables_number	1
_symmetry_cell_setting	triclinic
loop_
_symmetry_equiv_pos_as_xyz
  x,y,z
_cell_length_a	12.594516
_cell_length_b	12.594517
_cell_length_c	12.827885
_cell_angle_alpha	89.977546
_cell_angle_beta	89.971756
_cell_angle_gamma	90.015485
loop_
_atom_site_label
_atom_site_type_symbol
_atom_site_fract_x
_atom_site_fract_y
_atom_site_fract_z
Zn1	Zn	-0.423705	1.627270	-0.590950
Zn2	Zn	-0.601721	1.627160	-0.416216
Zn3	Zn	-0.423755	1.449273	-0.416214
Zn4	Zn	-0.601640	1.449256	-0.590906
O5	O	-0.512705	1.538239	-0.503571
O6	O	-0.447332	1.776201	-0.567790
O7	O	-0.578169	1.603524	-0.269979
O8	O	-0.274803	1.472937	-0.439411
O9	O	-0.578120	1.776120	-0.439414
O10	O	-0.274766	1.603711	-0.567789
O11	O	-0.447418	1.472831	-0.269978
O12	O	-0.447339	1.300325	-0.439368
O13	O	-0.577981	1.472908	-0.737148
O14	O	-0.578030	1.300312	-0.567713
O15	O	-0.447253	1.603694	-0.737180
O16	O	-0.750656	1.603507	-0.439371
O17	O	-0.750596	1.472802	-0.567715
C18	C	-0.512682	1.261698	-0.503536
C19	C	-0.512698	1.143393	-0.503546
C20	C	-0.441537	1.003352	-0.433899
C21	C	-0.415600	1.074211	-0.529257
C22	C	-0.538587	1.074105	-0.408198
C23	C	-0.486753	1.003466	-0.599031
C24	C	-0.609784	1.003354	-0.477908
C25	C	-0.583885	1.074182	-0.573332
C26	C	-0.789246	1.538170	-0.503561
C27	C	-0.907552	1.538237	-0.503592
C28	C	-0.976811	1.467140	-0.573349
C29	C	-1.047679	1.441206	-0.477992
C30	C	-1.047482	1.564268	-0.598965
C31	C	-0.976862	1.512252	-0.408185
C32	C	-0.976658	1.635359	-0.529221
C33	C	-1.047495	1.609462	-0.433799
C34	C	-0.235084	1.538338	-0.503604
C35	C	-0.116779	1.538381	-0.503619
C36	C	-0.512602	1.538312	-0.776142
C37	C	-0.512558	1.538343	-0.892295
C38	C	-0.512729	1.815860	-0.503607
C39	C	-0.512739	1.934166	-0.503622
C40	C	-0.447802	1.473726	-1.064123
C41	C	-0.447846	1.473692	-0.944073
C42	C	-0.512731	1.538228	-0.232061
C43	C	-0.512475	1.538404	-0.115909
H44	H	-0.560466	1.105138	-0.327531
Cl45	Cl	-0.348534	0.955333	-0.343028
H46	H	-1.078336	1.669649	-0.374751
H47	H	-1.078503	1.586227	-0.679610
H48	H	-0.945442	1.717408	-0.550922
Cl49	Cl	-0.452822	0.955765	-0.723611
Cl50	Cl	-0.928887	1.374151	-0.664296
Cl51	Cl	-0.598010	1.623868	-1.047149
Cl52	Cl	-0.736483	0.955258	-0.444324
H53	H	-0.945969	1.490198	-0.327518
Cl54	Cl	-0.362256	1.388273	-1.132883
H55	H	-1.078899	1.359138	-0.456337
Cl56	Cl	-0.362361	1.388190	-0.875322
H57	H	-0.333510	1.105316	-0.550993
Cl58	Cl	-0.676826	1.121895	-0.664416
H59	H	-0.567931	1.593718	-0.936822
