data_functionalizedCrystal
_audit_creation_method	'MofGen! by Chris Wilmer'
_symmetry_space_group_name_H-M	'P1'
_symmetry_Int_Tables_number	1
_symmetry_cell_setting	triclinic
loop_
_symmetry_equiv_pos_as_xyz
  x,y,z
_cell_length_a	23.532407
_cell_length_b	27.732048
_cell_length_c	22.010155
_cell_angle_alpha	89.999275
_cell_angle_beta	89.996931
_cell_angle_gamma	82.745667
loop_
_atom_site_label
_atom_site_type_symbol
_atom_site_fract_x
_atom_site_fract_y
_atom_site_fract_z
O1	O	0.755138	0.058672	-0.050456
O2	O	1.255138	0.558672	0.449544
O3	O	0.589257	0.067162	-0.050475
O4	O	1.089257	0.567162	0.449525
O5	O	0.677350	-0.007472	-0.050453
O6	O	1.177350	0.492528	0.449547
O7	O	0.667046	0.133306	-0.050477
O8	O	1.167046	0.633306	0.449523
O9	O	0.677334	-0.007461	0.050597
O10	O	1.177334	0.492539	0.550597
O11	O	0.589241	0.067173	0.050576
O12	O	1.089241	0.567173	0.550576
O13	O	0.755122	0.058683	0.050595
O14	O	1.255122	0.558683	0.550595
Cu15	Cu	0.672180	0.062929	0.059812
Cu16	Cu	1.172180	0.562929	0.559812
Cu17	Cu	0.672199	0.062916	-0.059692
Cu18	Cu	1.172199	0.562916	0.440308
O19	O	0.667030	0.133317	0.050573
O20	O	1.167030	0.633317	0.550573
C21	C	0.568033	0.066952	0.000048
C22	C	1.068033	0.566952	0.500048
C23	C	0.504818	0.066302	0.000042
C24	C	1.004818	0.566302	0.500042
C25	C	0.105629	0.106391	0.000062
C26	C	0.605629	0.606391	0.500062
C27	C	0.046230	0.105787	0.000066
C28	C	0.546230	0.605787	0.500066
O29	O	0.009406	0.142951	0.000082
O30	O	0.509406	0.642951	0.500082
N31	N	0.023699	0.061418	0.000073
N32	N	0.523699	0.561418	0.500073
C33	C	0.060570	0.017649	0.000082
C34	C	0.560570	0.517649	0.500082
O35	O	0.035951	-0.020147	0.000088
O36	O	0.535951	0.479853	0.500088
C37	C	0.119967	0.018253	0.000082
C38	C	0.619967	0.518253	0.500082
C39	C	0.142495	0.062626	0.000070
C40	C	0.642495	0.562626	0.500070
C41	C	0.128158	0.150760	0.000050
C42	C	0.628158	0.650760	0.500050
C43	C	0.187552	0.151364	0.000045
C44	C	0.687552	0.651364	0.500045
C45	C	0.224419	0.107599	0.000052
C46	C	0.724419	0.607599	0.500052
C47	C	0.201890	0.063229	0.000065
C48	C	0.701890	0.563229	0.500065
C49	C	0.156837	-0.025515	0.000096
C50	C	0.656837	0.474485	0.500096
C51	C	0.216239	-0.024907	0.000097
C52	C	0.716239	0.475093	0.500097
C53	C	0.238766	0.019466	0.000084
C54	C	0.738766	0.519466	0.500084
C55	C	0.298151	0.020068	0.000067
C56	C	0.798151	0.520068	0.500067
N57	N	0.320683	0.064437	0.000060
N58	N	0.820683	0.564437	0.500060
C59	C	0.283817	0.108203	0.000053
C60	C	0.783817	0.608203	0.500053
C61	C	-0.064170	0.016383	0.000082
C62	C	0.435830	0.516383	0.500082
C63	C	-0.123567	0.015778	0.000077
C64	C	0.376433	0.515778	0.500077
C65	C	-0.137902	0.103917	0.000062
C66	C	0.362098	0.603917	0.500062
C67	C	-0.078505	0.104521	0.000063
C68	C	0.421495	0.604521	0.500063
C69	C	-0.041639	0.060753	0.000075
C70	C	0.458361	0.560753	0.500075
C71	C	0.408551	0.109467	0.000042
C72	C	0.908551	0.609467	0.500042
C73	C	0.467951	0.110067	0.000035
C74	C	0.967951	0.610067	0.500035
C75	C	0.482282	0.021928	0.000052
C76	C	0.982282	0.521928	0.500052
C77	C	0.422886	0.021328	0.000057
C78	C	0.922886	0.521328	0.500057
C79	C	0.386021	0.065102	0.000053
C80	C	0.886021	0.565102	0.500053
O81	O	0.335010	-0.017077	0.000054
O82	O	0.835010	0.482923	0.500054
O83	O	0.308444	0.145992	0.000054
O84	O	0.808444	0.645992	0.500054
C85	C	0.677125	-0.025473	0.000074
C86	C	1.177125	0.474527	0.500074
C87	C	0.676474	-0.079129	0.000079
C88	C	1.176474	0.420871	0.500079
C89	C	0.724431	-0.417871	0.000053
C90	C	1.224431	0.082129	0.500053
C91	C	0.722014	-0.619534	0.000044
C92	C	1.222014	-0.119534	0.500044
O93	O	0.765867	-0.650722	0.000023
O94	O	1.265867	-0.150722	0.500023
N95	N	0.669779	-0.638738	0.000039
N96	N	1.169779	-0.138738	0.500039
C97	C	0.618144	-0.607523	0.000032
C98	C	1.118144	-0.107523	0.500032
O99	O	0.573659	-0.628484	0.000021
O100	O	1.073659	-0.128484	0.500021
C101	C	0.620561	-0.405860	0.000036
C102	C	1.120561	0.094140	0.500036
C103	C	0.672800	-0.386659	0.000048
C104	C	1.172800	0.113341	0.500048
C105	C	0.776665	-0.398669	0.000064
C106	C	1.276665	0.101331	0.500064
C107	C	0.777269	-0.348256	0.000069
C108	C	1.277269	0.151744	0.500069
C109	C	0.725638	-0.317045	0.000064
C110	C	1.225638	0.182955	0.500064
C111	C	0.673403	-0.336247	0.000053
C112	C	1.173403	0.163753	0.500053
C113	C	0.568927	-0.374646	0.000025
C114	C	1.068927	0.125354	0.500025
C115	C	0.569536	-0.324228	0.000024
C116	C	1.069536	0.175772	0.500024
C117	C	0.621775	-0.305027	0.000036
C118	C	1.121775	0.194973	0.500036
C119	C	0.622376	-0.254622	0.000053
C120	C	1.122376	0.245378	0.500053
N121	N	0.674611	-0.235418	0.000059
N122	N	1.174611	0.264582	0.500059
C123	C	0.726242	-0.266630	0.000064
C124	C	1.226242	0.233370	0.500064
C125	C	0.616879	-0.713399	0.000031
C126	C	1.116879	-0.213399	0.500031
C127	C	0.616274	-0.763814	0.000031
C128	C	1.116274	-0.263814	0.500031
C129	C	0.720145	-0.775822	0.000042
C130	C	1.220145	-0.275822	0.500042
C131	C	0.720749	-0.725406	0.000046
C132	C	1.220749	-0.225406	0.500046
C133	C	0.669114	-0.694195	0.000036
C134	C	1.169114	-0.194195	0.500036
C135	C	0.727506	-0.160758	0.000076
C136	C	1.227506	0.339242	0.500076
C137	C	0.728105	-0.110341	0.000084
C138	C	1.228105	0.389659	0.500084
C139	C	0.624235	-0.098337	0.000069
C140	C	1.124235	0.401663	0.500069
C141	C	0.623635	-0.148751	0.000065
C142	C	1.123635	0.351249	0.500065
C143	C	0.675276	-0.179961	0.000066
C144	C	1.175276	0.320039	0.500066
O145	O	0.578547	-0.223406	0.000068
O146	O	1.078547	0.276594	0.500068
O147	O	0.770721	-0.245659	0.000061
O148	O	1.270721	0.254341	0.500061
C149	C	0.723827	-0.468283	0.000047
C150	C	1.223827	0.031717	0.500047
C151	C	0.671593	-0.487485	0.000037
C152	C	1.171593	0.012515	0.500037
C153	C	0.619962	-0.456274	0.000031
C154	C	1.119962	0.043726	0.500031
C155	C	0.670988	-0.537900	0.000037
C156	C	1.170988	-0.037900	0.500037
C157	C	0.722619	-0.569112	0.000042
C158	C	1.222619	-0.069112	0.500042
C159	C	0.774855	-0.549908	0.000047
C160	C	1.274855	-0.049908	0.500047
C161	C	0.775458	-0.499495	0.000053
C162	C	1.275458	0.000505	0.500053
C163	C	0.567727	-0.475478	0.000026
C164	C	1.067727	0.024522	0.500026
C165	C	0.567127	-0.525891	0.000021
C166	C	1.067127	-0.025891	0.500021
C167	C	0.618758	-0.557103	0.000026
C168	C	1.118758	-0.057103	0.500026
C169	C	0.776346	0.058894	0.000070
C170	C	1.276346	0.558894	0.500070
C171	C	0.839562	0.059544	0.000073
C172	C	1.339562	0.559544	0.500073
C173	C	0.667254	0.151319	0.000045
C174	C	1.167254	0.651319	0.500045
C175	C	0.667905	0.204975	0.000036
C176	C	1.167905	0.704975	0.500036
N177	N	0.672171	0.062938	0.143864
N178	N	1.172171	0.562938	0.643864
N179	N	0.672213	0.062903	-0.143744
N180	N	1.172213	0.562903	0.356256
C181	C	0.711209	0.029873	0.563653
C182	C	1.211209	0.529873	1.063653
C183	C	0.711211	0.029869	0.627261
C184	C	1.211211	0.529869	1.127261
O185	O	0.744380	0.001762	0.660160
O186	O	1.244380	0.501762	1.160160
N187	N	0.672199	0.062906	0.659071
N188	N	1.172199	0.562906	1.159071
C189	C	0.633177	0.095945	0.627271
C190	C	1.133177	0.595945	1.127271
O191	O	0.599994	0.124044	0.660169
O192	O	1.099994	0.624044	1.160169
C193	C	0.633172	0.095945	0.563665
C194	C	1.133172	0.595945	1.063665
C195	C	0.672191	0.062910	0.531857
C196	C	1.172191	0.562910	1.031857
C197	C	0.750224	-0.003160	0.531846
C198	C	1.250224	0.496840	1.031846
C199	C	0.750222	-0.003156	0.468243
C200	C	1.250222	0.496844	0.968243
C201	C	0.711205	0.029881	0.436447
C202	C	1.211205	0.529881	0.936447
C203	C	0.672189	0.062914	0.468254
C204	C	1.172189	0.562914	0.968254
C205	C	0.594148	0.128981	0.531866
C206	C	1.094148	0.628981	1.031866
C207	C	0.594147	0.128979	0.468255
C208	C	1.094147	0.628979	0.968255
C209	C	0.633166	0.095943	0.436447
C210	C	1.133166	0.595943	0.936447
C211	C	0.633170	0.095955	0.372855
C212	C	1.133170	0.595955	0.872855
N213	N	0.672182	0.062919	0.341045
N214	N	1.172182	0.562919	0.841045
C215	C	0.711200	0.029881	0.372840
C216	C	1.211200	0.529881	0.872840
C217	C	0.633190	0.095940	0.760849
C218	C	1.133190	0.595940	1.260849
C219	C	0.633197	0.095942	0.824454
C220	C	1.133197	0.595942	1.324454
C221	C	0.711231	0.029866	0.824440
C222	C	1.211231	0.529866	1.324440
C223	C	0.711226	0.029867	0.760833
C224	C	1.211226	0.529867	1.260833
C225	C	0.672202	0.062904	0.729038
C226	C	1.172202	0.562904	1.229038
C227	C	0.711193	0.029893	0.239269
C228	C	1.211193	0.529893	0.739269
C229	C	0.711189	0.029901	0.175660
C230	C	1.211189	0.529901	0.675660
C231	C	0.633153	0.095975	0.175680
C232	C	1.133153	0.595975	0.675680
C233	C	0.633159	0.095969	0.239284
C234	C	1.133159	0.595969	0.739284
C235	C	0.672181	0.062924	0.271076
C236	C	1.172181	0.562924	0.771076
O237	O	0.600017	0.124047	0.339915
O238	O	1.100017	0.624047	0.839915
O239	O	0.744372	0.001783	0.339935
O240	O	1.244372	0.501783	0.839935
H241	H	0.138506	-0.061648	0.000107
H242	H	0.638506	0.438352	0.500107
H243	H	0.762185	-0.801243	0.000047
H244	H	1.262185	-0.301243	0.500047
C245	C	0.556019	0.161276	0.232906
C246	C	1.056019	0.661276	0.732906
C247	C	0.590267	0.132279	0.274250
C248	C	1.090267	0.632279	0.774250
H249	H	0.529534	0.183687	0.254491
H250	H	1.029534	0.683687	0.754491
H251	H	0.579569	0.178569	0.208104
H252	H	1.079569	0.678569	0.708104
H253	H	0.535721	0.141238	0.208090
H254	H	1.035721	0.641238	0.708090
H255	H	0.610569	0.152318	0.299063
H256	H	1.110569	0.652318	0.799063
H257	H	0.566714	0.114986	0.299062
H258	H	1.066714	0.614986	0.799062
C259	C	0.838213	-0.298535	0.052020
C260	C	1.338213	0.201465	0.552020
C261	C	0.834691	-0.327154	0.000073
C262	C	1.334691	0.172846	0.500073
H263	H	0.873667	-0.285512	0.052020
H264	H	1.373667	0.214488	0.552020
H265	H	0.807558	-0.272729	0.052014
H266	H	1.307558	0.227271	0.552014
H267	H	0.835813	-0.317957	0.087254
H268	H	1.335813	0.182043	0.587254
H269	H	0.837088	-0.307731	-0.035162
H270	H	1.337088	0.192269	0.464838
H271	H	0.865355	-0.352963	0.000073
H272	H	1.365355	0.147037	0.500073
H273	H	0.512309	-0.013704	0.000056
H274	H	1.012309	0.486296	0.500056
C275	C	0.513666	-0.746869	0.000014
C276	C	1.013666	-0.246869	0.500014
C277	C	0.558852	-0.784916	0.000023
C278	C	1.058852	-0.284916	0.500023
H279	H	0.478215	-0.759896	0.000003
H280	H	0.978215	-0.259896	0.500003
H281	H	0.516057	-0.727457	0.035252
H282	H	1.016057	-0.227457	0.535252
H283	H	0.516076	-0.727454	-0.035225
H284	H	1.016076	-0.227454	0.464775
H285	H	0.556444	-0.804329	0.035265
H286	H	1.056444	-0.304329	0.535265
H287	H	0.556460	-0.804336	-0.035218
H288	H	1.056460	-0.304336	0.464782
C289	C	0.745414	-0.053965	0.844022
C290	C	1.245414	0.446035	1.344022
C291	C	0.754118	-0.006453	0.859396
C292	C	1.254118	0.493547	1.359396
H293	H	0.771893	-0.076384	0.865601
H294	H	1.271893	0.423616	1.365601
H295	H	0.707457	-0.059046	0.854450
H296	H	1.207457	0.440954	1.354450
H297	H	0.751000	-0.058687	0.801588
H298	H	1.251000	0.441313	1.301588
H299	H	0.748528	-0.001729	0.901830
H300	H	1.248528	0.498271	1.401830
H301	H	0.792085	-0.001371	0.848972
H302	H	1.292085	0.498629	1.348972
C303	C	0.010945	-0.034081	-0.051862
C304	C	0.510945	0.465919	0.448138
C305	C	-0.023648	-0.031731	0.000084
C306	C	0.476352	0.468269	0.500084
H307	H	0.035962	-0.063783	-0.051857
H308	H	0.535962	0.436217	0.448143
H309	H	-0.012524	-0.032486	-0.087093
H310	H	0.487476	0.467514	0.412907
H311	H	0.032866	-0.007570	-0.051858
H312	H	0.532866	0.492430	0.448142
H313	H	-0.045572	-0.058240	0.000078
H314	H	0.454428	0.441760	0.500078
H315	H	-0.000176	-0.033331	0.035324
H316	H	0.499824	0.466669	0.535324
H317	H	-0.141903	-0.020355	0.000078
H318	H	0.358097	0.479645	0.500078
H319	H	0.378542	0.145112	0.000041
H320	H	0.878542	0.645112	0.500041
C321	C	0.830239	-0.167550	0.000096
C322	C	1.330239	0.332450	0.500096
C323	C	0.784269	-0.195059	0.000083
C324	C	1.284269	0.304941	0.500083
H325	H	0.865281	-0.188726	0.000107
H326	H	1.365281	0.311274	0.500107
H327	H	0.828318	-0.147637	-0.035139
H328	H	1.328318	0.352363	0.464861
H329	H	0.828297	-0.147635	0.035338
H330	H	1.328297	0.352365	0.535338
H331	H	0.786209	-0.214971	-0.035161
H332	H	1.286209	0.285029	0.464839
H333	H	0.786190	-0.214981	0.035322
H334	H	1.286190	0.285019	0.535322
H335	H	0.574829	-0.687991	0.000022
H336	H	1.074829	-0.187991	0.500022
C337	C	0.516537	0.139809	0.396739
C338	C	1.016537	0.639809	0.896739
C339	C	0.551251	0.165296	0.433308
C340	C	1.051251	0.665296	0.933308
H341	H	0.490054	0.162231	0.375168
H342	H	0.990054	0.662231	0.875168
H343	H	0.539771	0.120142	0.368691
H344	H	1.039771	0.620142	0.868691
H345	H	0.496236	0.119773	0.421559
H346	H	0.996236	0.619773	0.921559
H347	H	0.571555	0.185329	0.408487
H348	H	1.071555	0.685329	0.908487
H349	H	0.528013	0.184971	0.461359
H350	H	1.028013	0.684971	0.961359
H351	H	0.601387	0.122875	0.149782
H352	H	1.101387	0.622875	0.649782
C353	C	0.788327	-0.035419	0.232848
C354	C	1.288327	0.464581	0.732848
C355	C	0.754086	-0.006430	0.274209
C356	C	1.254086	0.493570	0.774209
H357	H	0.814811	-0.057839	0.254420
H358	H	1.314811	0.442161	0.754420
H359	H	0.764773	-0.052700	0.208042
H360	H	1.264773	0.447300	0.708042
H361	H	0.808628	-0.015376	0.208038
H362	H	1.308628	0.484624	0.708038
H363	H	0.733782	-0.026473	0.299016
H364	H	1.233782	0.473527	0.799016
H365	H	0.777644	0.010853	0.299026
H366	H	1.277644	0.510853	0.799026
C367	C	0.879393	-0.405460	0.000086
C368	C	1.379393	0.094540	0.500086
C369	C	0.833425	-0.432972	0.000075
C370	C	1.333425	0.067028	0.500075
H371	H	0.914436	-0.426636	0.000100
H372	H	1.414436	0.073364	0.500100
H373	H	0.877473	-0.385550	-0.035153
H374	H	1.377473	0.114450	0.464847
H375	H	0.877449	-0.385542	0.035325
H376	H	1.377449	0.114458	0.535325
H377	H	0.835367	-0.452887	-0.035166
H378	H	1.335367	0.047113	0.464834
H379	H	0.835346	-0.452890	0.035317
H380	H	1.335346	0.047110	0.535317
H381	H	0.524585	-0.541520	0.000017
H382	H	1.024585	-0.041520	0.500017
H383	H	0.781993	-0.030058	0.442349
H384	H	1.281993	0.469942	0.942349
C385	C	0.877592	-0.556727	0.000061
C386	C	1.377592	-0.056727	0.500061
C387	C	0.831609	-0.584221	0.000052
C388	C	1.331609	-0.084221	0.500052
H389	H	0.912627	-0.577913	0.000065
H390	H	1.412627	-0.077913	0.500065
H391	H	0.875675	-0.536812	-0.035174
H392	H	1.375675	-0.036812	0.464826
H393	H	0.875663	-0.536814	0.035303
H394	H	1.375663	-0.036814	0.535303
H395	H	0.833535	-0.604132	-0.035193
H396	H	1.333535	-0.104132	0.464807
H397	H	0.833527	-0.604144	0.035290
H398	H	1.333527	-0.104144	0.535290
H399	H	0.742998	0.002967	0.734939
H400	H	1.242998	0.502967	1.234939
H401	H	0.781997	-0.030065	0.557728
H402	H	1.281997	0.469935	1.057728
C403	C	0.823357	-0.742350	0.000053
C404	C	1.323357	-0.242350	0.500053
C405	C	0.778170	-0.704302	0.000049
C406	C	1.278170	-0.204302	0.500049
H407	H	0.858807	-0.729323	0.000050
H408	H	1.358807	-0.229323	0.500050
H409	H	0.820955	-0.761760	0.035292
H410	H	1.320955	-0.261760	0.535292
H411	H	0.820957	-0.761766	-0.035186
H412	H	1.320957	-0.261766	0.464814
H413	H	0.780568	-0.684888	0.035291
H414	H	1.280568	-0.184888	0.535291
H415	H	0.780574	-0.684884	-0.035192
H416	H	1.280574	-0.184884	0.464808
H417	H	0.525681	-0.450070	0.000020
H418	H	1.025681	0.049930	0.500020
C419	C	0.466321	-0.357692	-0.000005
C420	C	0.966321	0.142308	0.499995
C421	C	0.511503	-0.395743	0.000006
C422	C	1.011503	0.104257	0.500006
H423	H	0.430868	-0.370716	-0.000021
H424	H	0.930868	0.129284	0.499979
H425	H	0.468711	-0.338282	0.035234
H426	H	0.968711	0.161718	0.535234
H427	H	0.468737	-0.338277	-0.035243
H428	H	0.968737	0.161723	0.464757
H429	H	0.509090	-0.415156	0.035247
H430	H	1.009090	0.084844	0.535247
H431	H	0.509112	-0.415161	-0.035236
H432	H	1.009112	0.084839	0.464764
C433	C	0.556064	0.161253	0.818064
C434	C	1.056064	0.661253	1.318064
C435	C	0.590309	0.132258	0.859412
C436	C	1.090309	0.632258	1.359412
H437	H	0.529582	0.183670	0.839645
H438	H	1.029582	0.683670	1.339645
H439	H	0.579616	0.178539	0.793257
H440	H	1.079616	0.678539	1.293257
H441	H	0.535761	0.141214	0.793254
H442	H	1.035761	0.641214	1.293254
H443	H	0.610615	0.152298	0.884220
H444	H	1.110615	0.652298	1.384220
H445	H	0.566754	0.114971	0.884230
H446	H	1.066754	0.614971	1.384230
C447	C	0.224438	-0.112091	0.000112
C448	C	0.724438	0.387909	0.500112
C449	C	0.256761	-0.073020	0.000104
C450	C	0.756761	0.426980	0.500104
H451	H	0.249455	-0.141792	0.000111
H452	H	0.749455	0.358208	0.500111
H453	H	0.200975	-0.110488	0.035351
H454	H	0.700975	0.389512	0.535351
H455	H	0.200969	-0.110491	-0.035126
H456	H	0.700969	0.389509	0.464874
H457	H	0.280226	-0.074618	0.035345
H458	H	0.780226	0.425382	0.535345
H459	H	0.280234	-0.074624	-0.035139
H460	H	0.780234	0.425376	0.464861
H461	H	0.527488	-0.298818	0.000015
H462	H	1.027488	0.201182	0.500015
C463	C	0.521025	-0.131815	0.000048
C464	C	1.021025	0.368185	0.500048
C465	C	0.566215	-0.169860	0.000051
C466	C	1.066215	0.330140	0.500051
H467	H	0.485576	-0.144845	0.000030
H468	H	0.985576	0.355155	0.500030
H469	H	0.523412	-0.112408	0.035290
H470	H	1.023412	0.387592	0.535290
H471	H	0.523436	-0.112395	-0.035187
H472	H	1.023436	0.387605	0.464813
H473	H	0.563807	-0.189278	0.035288
H474	H	1.063807	0.310722	0.535288
H475	H	0.563827	-0.189275	-0.035195
H476	H	1.063827	0.310725	0.464805
C477	C	0.193594	0.226673	-0.051912
C478	C	0.693594	0.726673	0.448088
C479	C	0.212302	0.200144	0.000036
C480	C	0.712302	0.700144	0.500036
H481	H	0.208866	0.256792	-0.051914
H482	H	0.708866	0.756792	0.448086
H483	H	0.206286	0.208666	-0.087142
H484	H	0.706286	0.708666	0.412858
H485	H	0.152941	0.232561	-0.051906
H486	H	0.652941	0.732561	0.448094
H487	H	0.252954	0.194253	0.000027
H488	H	0.752954	0.694253	0.500027
H489	H	0.199613	0.218155	0.035275
H490	H	0.699613	0.718155	0.535275
H491	H	0.582198	-0.072916	0.000067
H492	H	1.082198	0.427084	0.500067
H493	H	0.601414	0.122847	0.734965
H494	H	1.101414	0.622847	1.234965
C495	C	0.517008	0.194283	0.525464
C496	C	1.017008	0.694283	1.025464
C497	C	0.551254	0.165293	0.566817
C498	C	1.051254	0.665293	1.066817
H499	H	0.490523	0.216699	0.547042
H500	H	0.990523	0.716699	1.047042
H501	H	0.540559	0.211569	0.500656
H502	H	1.040559	0.711569	1.000656
H503	H	0.496709	0.174240	0.500655
H504	H	0.996709	0.674240	1.000655
H505	H	0.571556	0.185336	0.591623
H506	H	1.071556	0.685336	1.091623
H507	H	0.527700	0.148006	0.591635
H508	H	1.027700	0.648006	1.091635
H509	H	0.486290	0.146202	0.000024
H510	H	0.986290	0.646202	0.500024
H511	H	-0.060167	0.140653	0.000056
H512	H	0.439833	0.640653	0.500056
C513	C	0.053055	0.201212	-0.051911
C514	C	0.553055	0.701212	0.448089
C515	C	0.087639	0.198873	0.000037
C516	C	0.587639	0.698873	0.500037
H517	H	0.028042	0.230915	-0.051920
H518	H	0.528042	0.730915	0.448080
H519	H	0.076531	0.199605	-0.087141
H520	H	0.576531	0.699605	0.412859
H521	H	0.031131	0.174703	-0.051898
H522	H	0.531131	0.674703	0.448102
H523	H	0.109566	0.225380	0.000021
H524	H	0.609566	0.725380	0.500021
H525	H	0.064160	0.200484	0.035276
H526	H	0.564160	0.700484	0.535276
H527	H	0.404543	-0.014804	0.000058
H528	H	0.904543	0.485196	0.500058
C529	C	-0.213025	0.154361	-0.051884
C530	C	0.286975	0.654361	0.448116
C531	C	-0.178434	0.152026	0.000059
C532	C	0.321566	0.652026	0.500059
H533	H	-0.238050	0.184059	-0.051884
H534	H	0.261950	0.684059	0.448116
H535	H	-0.189554	0.152767	-0.087117
H536	H	0.310446	0.652767	0.412883
H537	H	-0.234936	0.127845	-0.051873
H538	H	0.265064	0.627845	0.448127
H539	H	-0.156519	0.178541	0.000045
H540	H	0.343481	0.678541	0.500045
H541	H	-0.201907	0.153625	0.035301
H542	H	0.298093	0.653625	0.535301
H543	H	0.817996	-0.483866	0.000062
H544	H	1.317996	0.016134	0.500062
H545	H	0.770646	-0.094710	0.000095
H546	H	1.270646	0.405290	0.500095
H547	H	0.742965	0.003000	0.149765
H548	H	1.242965	0.503000	0.649765
