data_functionalizedCrystal
_audit_creation_method	'MofGen! by Chris Wilmer'
_symmetry_space_group_name_H-M	'P1'
_symmetry_Int_Tables_number	1
_symmetry_cell_setting	triclinic
loop_
_symmetry_equiv_pos_as_xyz
  x,y,z
_cell_length_a	14.853566
_cell_length_b	14.853567
_cell_length_c	13.930277
_cell_angle_alpha	89.999243
_cell_angle_beta	89.995631
_cell_angle_gamma	83.634672
loop_
_atom_site_label
_atom_site_type_symbol
_atom_site_fract_x
_atom_site_fract_y
_atom_site_fract_z
O1	O	1.196369	0.117698	-0.079759
O2	O	0.933909	0.131721	-0.079774
O3	O	1.072150	-0.006520	-0.079769
O4	O	1.058129	0.255939	-0.079764
O5	O	1.072131	-0.006523	0.079893
O6	O	0.933890	0.131718	0.079888
O7	O	1.196350	0.117695	0.079903
Zn8	Zn	1.065117	0.124706	0.105245
Zn9	Zn	1.065142	0.124710	-0.105116
O10	O	1.058109	0.255936	0.079898
C11	C	0.900311	0.131084	0.000055
C12	C	0.800227	0.129181	0.000049
C13	C	0.377053	0.121132	-0.086966
C14	C	0.377053	0.121129	0.087103
C15	C	0.471087	0.122916	0.087101
C16	C	0.518108	0.123813	0.000063
C17	C	0.471095	0.122922	-0.086972
C18	C	0.518106	0.123817	0.174134
C19	C	0.612146	0.125605	0.174134
C20	C	0.659170	0.126495	0.087095
C21	C	0.612151	0.125603	0.000057
C22	C	0.659172	0.126499	-0.086980
C23	C	0.612156	0.125601	-0.174019
C24	C	0.518119	0.123812	-0.174010
C25	C	0.753206	0.128284	0.087086
C26	C	0.753214	0.128290	-0.086986
C27	C	1.071505	-0.040111	0.000059
C28	C	1.069601	-0.140194	0.000051
C29	C	0.979435	-0.552728	0.000064
C30	C	1.143668	-0.574009	0.000073
C31	C	1.145458	-0.479976	0.000067
C32	C	1.064236	-0.422313	0.000061
C33	C	0.981223	-0.458685	0.000061
C34	C	1.228470	-0.443597	0.000078
C35	C	1.230263	-0.349558	0.000073
C36	C	1.149040	-0.291894	0.000060
C37	C	1.066023	-0.328271	0.000059
C38	C	0.984801	-0.270608	0.000053
C39	C	0.901784	-0.306984	0.000045
C40	C	0.899999	-0.401021	0.000048
C41	C	1.150824	-0.197856	0.000057
C42	C	0.986588	-0.176566	0.000050
C43	C	1.229948	0.118332	0.000072
C44	C	1.330032	0.120235	0.000071
C45	C	1.058754	0.289526	0.000068
C46	C	1.060658	0.389610	0.000070
N47	N	1.065106	0.124703	0.248811
N48	N	1.065160	0.124706	-0.248682
C49	C	1.003927	0.185899	0.701078
C50	C	1.126382	0.063514	0.701052
C51	C	1.126372	0.063511	0.600556
C52	C	1.065139	0.124704	0.550317
C53	C	1.003916	0.185900	0.600573
C54	C	1.187599	0.002322	0.550292
C55	C	1.187592	0.002318	0.449791
C56	C	1.126353	0.063507	0.399549
C57	C	1.065128	0.124705	0.449812
C58	C	1.003895	0.185898	0.399572
C59	C	0.942664	0.247092	0.449833
C60	C	0.942678	0.247089	0.550332
C61	C	1.126339	0.063510	0.299050
C62	C	1.003884	0.185899	0.299067
H63	H	0.338762	0.120405	0.157965
C64	C	1.254933	-0.064999	0.394512
H65	H	1.291397	-0.101447	0.438828
H66	H	1.292494	-0.032506	0.355293
H67	H	1.222444	-0.102592	0.355322
C68	C	1.317808	-0.507020	0.000083
H69	H	1.367504	-0.471890	0.000096
H70	H	1.320530	-0.544145	-0.055595
H71	H	1.320514	-0.544146	0.055767
H72	H	0.791493	0.129017	-0.157863
H73	H	0.791482	0.129025	0.157952
H74	H	1.218415	-0.168244	0.000070
H75	H	1.237458	-0.047495	0.591201
C76	C	0.897242	-0.113144	0.000044
H77	H	0.847549	-0.148278	0.000047
H78	H	0.894532	-0.076015	-0.055631
H79	H	0.894518	-0.076021	0.055731
C80	C	0.812442	-0.243554	0.000039
H81	H	0.762744	-0.278680	0.000040
H82	H	0.809738	-0.206423	-0.055635
H83	H	0.809723	-0.206432	0.055727
C84	C	0.663861	0.126585	0.269868
H85	H	0.726600	0.127783	0.257402
H86	H	0.655254	0.073761	0.305629
H87	H	0.641641	0.178830	0.305630
H88	H	0.954017	0.235726	0.258169
H89	H	0.892827	0.296912	0.591260
C90	C	0.808692	-0.441036	0.000053
H91	H	0.819262	-0.505299	0.000068
H92	H	0.775244	-0.421259	-0.055625
H93	H	0.775244	-0.421248	0.055737
H94	H	1.297861	-0.319950	0.000079
C95	C	0.888124	-0.592735	0.000059
H96	H	0.898687	-0.656999	0.000066
H97	H	0.854682	-0.572948	-0.055619
H98	H	0.854674	-0.572950	0.055743
H99	H	1.209796	-0.620963	0.000086
H100	H	1.176196	0.013690	0.258133
C101	C	0.936581	0.253210	0.756358
H102	H	0.945357	0.244452	0.823408
H103	H	0.876403	0.243311	0.739896
H104	H	0.946450	0.313400	0.739885
C105	C	0.663885	0.126588	-0.269755
H106	H	0.726622	0.127780	-0.257286
H107	H	0.641665	0.178823	-0.305520
H108	H	0.655294	0.073754	-0.305513
H109	H	0.479830	0.123079	-0.244873
H110	H	1.176241	0.013696	0.741960
C111	C	0.875313	0.314405	0.394568
H112	H	0.838851	0.350854	0.438889
H113	H	0.837750	0.281905	0.355363
H114	H	0.907795	0.351996	0.355363
C115	C	0.325344	0.120157	-0.182704
H116	H	0.366819	0.120946	-0.234538
H117	H	0.281851	0.171991	-0.186315
H118	H	0.295471	0.066922	-0.186330
C119	C	0.466424	0.122527	0.269864
H120	H	0.403699	0.121229	0.257400
H121	H	0.474919	0.175257	0.305835
H122	H	0.488771	0.070193	0.305415
