data_functionalizedCrystal
_audit_creation_method	'MofGen! by Chris Wilmer'
_symmetry_space_group_name_H-M	'P1'
_symmetry_Int_Tables_number	1
_symmetry_cell_setting	triclinic
loop_
_symmetry_equiv_pos_as_xyz
  x,y,z
_cell_length_a	11.169417
_cell_length_b	12.645330
_cell_length_c	11.169409
_cell_angle_alpha	90.034413
_cell_angle_beta	90.019513
_cell_angle_gamma	90.013895
loop_
_atom_site_label
_atom_site_type_symbol
_atom_site_fract_x
_atom_site_fract_y
_atom_site_fract_z
Zn1	Zn	1.834943	-0.421918	0.678515
Zn2	Zn	1.834824	-0.599229	0.477825
Zn3	Zn	1.634229	-0.421984	0.477851
Zn4	Zn	1.634228	-0.599144	0.678471
O5	O	1.734556	-0.510569	0.578166
O6	O	2.002877	-0.445447	0.651901
O7	O	1.808166	-0.575780	0.309879
O8	O	1.660904	-0.273628	0.504499
O9	O	2.002790	-0.575716	0.504455
O10	O	1.808368	-0.273580	0.651926
O11	O	1.660789	-0.445559	0.309898
O12	O	1.466279	-0.445476	0.504456
O13	O	1.660903	-0.575571	0.846427
O14	O	1.466279	-0.575635	0.651851
O15	O	1.808367	-0.445364	0.846459
O16	O	1.808165	-0.747565	0.504412
O17	O	1.660788	-0.747502	0.651826
C18	C	1.422731	-0.510554	0.578152
C19	C	1.289332	-0.510574	0.578174
C20	C	1.734496	-0.785999	0.578137
C21	C	1.734580	-0.903829	0.578165
C22	C	1.827146	-1.071388	0.485239
C23	C	1.827448	-0.948827	0.485467
C24	C	1.768886	-0.948196	0.704674
C25	C	1.769620	-1.070794	0.704181
C26	C	1.607672	-1.071162	0.545830
C27	C	1.608281	-0.948558	0.542993
C28	C	2.047598	-0.510584	0.578180
C29	C	2.180998	-0.510590	0.578186
C30	C	1.734648	-0.510451	0.891208
C31	C	1.734688	-0.510401	1.024608
C32	C	1.734649	-0.234063	0.578220
C33	C	1.734689	-0.116233	0.578244
C34	C	1.734533	-0.510610	0.266341
C35	C	1.734727	-0.510361	0.132941
H36	H	1.805984	-0.918835	0.391662
Br37	Br	1.791829	-1.120666	0.328428
Br38	Br	1.565157	-0.900243	0.387823
H39	H	1.535676	-0.917938	0.605766
H40	H	1.538784	-1.100163	0.613569
H41	H	1.862463	-1.099301	0.731638
H42	H	1.920718	-1.102114	0.506438
H43	H	1.705228	-1.100454	0.775863
Br44	Br	1.984248	-0.899795	0.521205
Br45	Br	1.660054	-0.899627	0.823269
H46	H	1.860680	-0.917402	0.732589
H47	H	1.576477	-1.102182	0.455187
