data_functionalizedCrystal
_audit_creation_method	'MofGen! by Chris Wilmer'
_symmetry_space_group_name_H-M	'P1'
_symmetry_Int_Tables_number	1
_symmetry_cell_setting	triclinic
loop_
_symmetry_equiv_pos_as_xyz
  x,y,z
_cell_length_a	10.654550
_cell_length_b	12.376457
_cell_length_c	10.654551
_cell_angle_alpha	78.610119
_cell_angle_beta	84.485132
_cell_angle_gamma	101.407184
loop_
_atom_site_label
_atom_site_type_symbol
_atom_site_fract_x
_atom_site_fract_y
_atom_site_fract_z
O1	O	1.691740	0.094093	0.152514
O2	O	1.326257	0.094074	0.169324
O3	O	1.517401	0.094084	-0.021820
O4	O	1.500596	0.094082	0.343658
O5	O	1.469631	-0.093931	0.025900
O6	O	1.278487	-0.093941	0.217045
O7	O	1.643970	-0.093922	0.200234
Zn8	Zn	1.453644	-0.123783	0.216216
Zn9	Zn	1.516583	0.123935	0.153342
O10	O	1.452826	-0.093933	0.391379
C11	C	1.255573	0.000064	0.191951
C12	C	1.116128	0.000057	0.188261
N13	N	1.410700	-0.292844	0.259126
C14	C	1.036647	0.000073	0.300799
C15	C	0.905631	0.000093	0.297317
C16	C	0.933592	0.000085	0.068750
C17	C	1.064603	0.000057	0.072235
C18	C	1.088172	0.000073	0.416825
C19	C	1.008690	0.000090	0.529372
C20	C	0.877674	0.000109	0.525890
C21	C	0.826141	0.000112	0.409862
C22	C	1.659225	-0.647815	0.010793
C23	C	1.689275	-0.529474	-0.019240
C24	C	1.619633	-0.470310	0.050349
C25	C	1.519938	-0.529500	0.149975
C26	C	1.489891	-0.647853	0.180017
C27	C	1.450300	-0.470348	0.219574
C28	C	1.350604	-0.529538	0.319200
C29	C	1.320562	-0.647880	0.349237
C30	C	1.390203	-0.707043	0.279648
C31	C	1.480346	-0.351995	0.189531
C32	C	1.311012	-0.352033	0.358756
C33	C	1.280962	-0.470375	0.388789
C34	C	1.714654	0.000090	0.177607
C35	C	1.854101	0.000104	0.181295
C36	C	1.492283	0.000079	-0.044759
C37	C	1.488592	0.000087	-0.184204
N38	N	1.559537	0.292995	0.110423
C39	C	1.512899	0.102571	-0.275728
C40	C	1.509417	0.102566	-0.406747
C41	C	1.457326	-0.102418	-0.354704
C42	C	1.460799	-0.102411	-0.223687
C43	C	1.540692	0.205070	-0.236244
C44	C	1.565002	0.307563	-0.327771
C45	C	1.561521	0.307557	-0.458790
C46	C	1.533729	0.205059	-0.498282
C47	C	1.477945	0.000075	0.414317
C48	C	1.481638	0.000075	0.553760
H49	H	1.194852	0.000062	0.419672
H50	H	1.199788	-0.518582	0.469908
H51	H	1.644105	-0.373951	0.025891
H52	H	1.770447	-0.481286	-0.100354
H53	H	1.530878	0.205063	-0.604967
H54	H	1.715925	-0.695993	-0.045851
H55	H	0.812960	0.000112	0.617534
C56	C	1.049766	0.096738	0.700732
C57	C	1.065324	0.000083	0.656909
H58	H	1.084720	0.096727	0.779475
H59	H	1.093661	0.162286	0.637709
H60	H	0.960359	0.096738	0.714754
H61	H	1.154732	0.000087	0.642878
H62	H	1.021432	-0.065482	0.719947
C63	C	0.655434	0.096794	0.442553
C64	C	0.682126	0.000134	0.406028
H65	H	0.566530	0.096813	0.440175
H66	H	0.674735	0.096779	0.527753
H67	H	0.706922	0.162346	0.384484
H68	H	0.630644	-0.065418	0.464103
H69	H	0.662811	0.000139	0.320815
H70	H	1.440979	-0.185863	-0.149161
C71	C	0.827075	0.096775	-0.092298
C72	C	0.876954	0.000104	-0.058787
H73	H	0.792120	0.096791	-0.171040
H74	H	0.760992	0.096778	-0.025778
H75	H	0.894297	0.162319	-0.102824
H76	H	0.809730	-0.065441	-0.048252
H77	H	0.943044	0.000090	-0.125323
C78	C	1.439359	-0.876552	0.230544
C79	C	1.357179	-0.837131	0.312669
H80	H	1.418977	-0.956864	0.250937
H81	H	1.428262	-0.849790	0.143332
H82	H	1.526572	-0.849752	0.241687
H83	H	1.269966	-0.863924	0.301519
H84	H	1.368265	-0.863905	0.399902
C85	C	1.428879	-0.193441	-0.532442
C86	C	1.426789	-0.215078	-0.398115
H87	H	1.410036	-0.262995	-0.559239
H88	H	1.365904	-0.151340	-0.555655
H89	H	1.512126	-0.151327	-0.573532
H90	H	1.343539	-0.257185	-0.357025
H91	H	1.489767	-0.257197	-0.374891
H92	H	1.581302	0.391012	-0.533307
H93	H	1.543533	0.205085	-0.129566
C94	C	1.156197	-0.636028	0.513490
C95	C	1.210983	-0.712943	0.458754
H96	H	1.088545	-0.676196	0.581097
H97	H	1.220583	-0.589857	0.547433
H98	H	1.122289	-0.589879	0.449062
H99	H	1.244900	-0.759087	0.523181
H100	H	1.146586	-0.759133	0.424813
C101	C	1.252761	0.096676	-0.080962
C102	C	1.151987	0.000044	-0.051464
H103	H	1.306711	0.096658	-0.157323
H104	H	1.217748	0.162240	-0.094223
H105	H	1.302179	0.096652	-0.011348
H106	H	1.102562	0.000072	-0.121074
H107	H	1.187001	-0.065537	-0.038210
H108	H	1.587617	0.391013	-0.295605
H109	H	1.561519	-0.303813	0.108415
H110	H	1.254306	-0.303863	0.415424
