data_functionalizedCrystal
_audit_creation_method	'MofGen! by Chris Wilmer'
_symmetry_space_group_name_H-M	'P1'
_symmetry_Int_Tables_number	1
_symmetry_cell_setting	triclinic
loop_
_symmetry_equiv_pos_as_xyz
  x,y,z
_cell_length_a	27.731994
_cell_length_b	11.792241
_cell_length_c	10.868271
_cell_angle_alpha	89.994719
_cell_angle_beta	90.001770
_cell_angle_gamma	83.406975
loop_
_atom_site_label
_atom_site_type_symbol
_atom_site_fract_x
_atom_site_fract_y
_atom_site_fract_z
O1	O	0.641726	0.134748	-0.102148
O2	O	0.501048	0.155345	-0.102188
O3	O	0.574801	-0.020235	-0.102158
O4	O	0.567973	0.310328	-0.102178
O5	O	0.574795	-0.020242	0.102486
O6	O	0.501042	0.155338	0.102456
O7	O	0.641720	0.134741	0.102497
Zn8	Zn	0.571380	0.145039	0.134968
Zn9	Zn	0.571388	0.145047	-0.134660
O10	O	0.567967	0.310321	0.102467
C11	C	0.483035	0.154919	0.000129
C12	C	0.429372	0.153645	0.000113
C13	C	0.574369	-0.062515	0.000163
C14	C	0.573085	-0.188487	0.000162
C15	C	0.570725	-0.419123	0.000141
C16	C	0.572036	-0.290780	0.000152
C17	C	0.096603	0.145622	0.111713
C18	C	-0.105083	0.140782	0.111727
O19	O	-0.131162	0.140104	0.206598
N20	N	-0.130298	0.140184	0.000176
C21	C	-0.105088	0.140790	-0.111388
O22	O	-0.131162	0.140159	-0.206269
C23	C	0.096598	0.145622	-0.111401
C24	C	0.121810	0.146231	0.000158
C25	C	0.121815	0.146230	0.223263
C26	C	0.172233	0.147446	0.223258
C27	C	0.197440	0.148055	0.111704
C28	C	0.172228	0.147447	0.000154
C29	C	0.121808	0.146219	-0.222962
C30	C	0.172232	0.147424	-0.222956
C31	C	0.197444	0.148033	-0.111397
C32	C	0.247852	0.149272	-0.111406
N33	N	0.273067	0.149869	0.000146
C34	C	0.247861	0.149261	0.111701
C35	C	-0.210976	0.138255	-0.111373
C36	C	-0.261397	0.137049	-0.111370
C37	C	-0.261389	0.137039	0.111745
C38	C	-0.210967	0.138253	0.111741
C39	C	-0.185761	0.138852	0.000179
C40	C	0.353743	0.151816	0.111682
C41	C	0.404165	0.153037	0.111668
C42	C	0.404153	0.153041	-0.111447
C43	C	0.353734	0.151826	-0.111433
C44	C	0.328531	0.151209	0.000142
O45	O	0.273964	0.149937	-0.206226
O46	O	0.273945	0.149867	0.206568
C47	C	0.046185	0.144406	0.111718
C48	C	0.020973	0.143798	0.000168
C49	C	0.046180	0.144407	-0.111387
C50	C	-0.029448	0.142592	0.000171
C51	C	-0.054654	0.141984	0.111725
C52	C	-0.029439	0.142581	0.223277
C53	C	0.020979	0.143798	0.223272
C54	C	0.020965	0.143809	-0.222938
C55	C	-0.029454	0.142594	-0.222925
C56	C	-0.054660	0.141986	-0.111370
C57	C	0.659733	0.135167	0.000177
C58	C	0.713397	0.136440	0.000185
C59	C	0.568399	0.352601	0.000142
C60	C	0.569683	0.478573	0.000136
N61	N	0.571378	0.145032	0.318982
N62	N	0.571394	0.145045	-0.318674
C63	C	0.571386	0.145045	0.569988
C64	C	0.571380	0.145041	0.430311
H65	H	0.424690	0.153537	0.202517
O66	O	0.048168	0.144471	0.343596
H67	H	0.022163	0.143843	0.421157
H68	H	-0.049971	0.142092	0.314109
H69	H	0.101298	0.145732	0.314109
H70	H	-0.049977	0.142108	-0.313776
O71	O	0.326561	0.151166	0.232019
H72	H	0.352570	0.151806	0.309576
H73	H	0.041483	0.144301	-0.313782
O74	O	-0.288634	0.136460	0.231995
H75	H	-0.274895	0.059334	0.285594
H76	H	-0.281921	0.136571	-0.202213
H77	H	-0.190458	0.138742	-0.202226
O78	O	0.326539	0.151170	-0.231755
H79	H	0.332105	0.228783	-0.285261
O80	O	0.199421	0.148092	0.343588
H81	H	0.238717	0.149045	0.324865
H82	H	-0.190443	0.138750	0.202582
H83	H	0.192752	0.147912	-0.313806
O84	O	0.094634	0.145512	-0.343302
H85	H	0.100207	0.223103	-0.396837
O86	O	0.431345	0.153671	-0.231765
H87	H	0.470642	0.154596	-0.213015
