data_functionalizedCrystal
_audit_creation_method	'MofGen! by Chris Wilmer'
_symmetry_space_group_name_H-M	'P1'
_symmetry_Int_Tables_number	1
_symmetry_cell_setting	triclinic
loop_
_symmetry_equiv_pos_as_xyz
  x,y,z
_cell_length_a	14.519731
_cell_length_b	14.519709
_cell_length_c	9.798715
_cell_angle_alpha	89.995905
_cell_angle_beta	89.996220
_cell_angle_gamma	83.684499
loop_
_atom_site_label
_atom_site_type_symbol
_atom_site_fract_x
_atom_site_fract_y
_atom_site_fract_z
O1	O	1.223855	0.120983	-0.113497
O2	O	1.473855	0.370983	0.136503
O3	O	1.723855	0.620983	0.386503
O4	O	1.973855	0.870983	0.636503
O5	O	0.955380	0.135199	-0.113499
O6	O	1.205380	0.385199	0.136501
O7	O	1.455380	0.635199	0.386501
O8	O	1.705380	0.885199	0.636501
O9	O	1.096736	-0.006147	-0.113486
O10	O	1.346736	0.243853	0.136514
O11	O	1.596736	0.493853	0.386514
O12	O	1.846736	0.743853	0.636514
O13	O	1.082499	0.262329	-0.113511
O14	O	1.332499	0.512329	0.136489
O15	O	1.582499	0.762329	0.386489
O16	O	1.832499	1.012329	0.636489
O17	O	1.096725	-0.006147	0.113496
O18	O	1.346725	0.243853	0.363496
O19	O	1.596725	0.493853	0.613496
O20	O	1.846725	0.743853	0.863496
O21	O	0.955370	0.135198	0.113483
O22	O	1.205370	0.385198	0.363483
O23	O	1.455370	0.635198	0.613483
O24	O	1.705370	0.885198	0.863483
O25	O	1.223844	0.120982	0.113485
O26	O	1.473844	0.370982	0.363485
O27	O	1.723844	0.620982	0.613485
O28	O	1.973844	0.870982	0.863485
Zn29	Zn	1.089605	0.128090	0.149522
Zn30	Zn	1.339605	0.378090	0.399522
Zn31	Zn	1.589605	0.628090	0.649522
Zn32	Zn	1.839605	0.878090	0.899522
Zn33	Zn	1.089619	0.128091	-0.149536
Zn34	Zn	1.339619	0.378091	0.100464
Zn35	Zn	1.589619	0.628091	0.350464
Zn36	Zn	1.839619	0.878091	0.600464
O37	O	1.082489	0.262328	0.113472
O38	O	1.332489	0.512328	0.363472
O39	O	1.582489	0.762328	0.613472
O40	O	1.832489	1.012328	0.863472
C41	C	0.921016	0.134532	-0.000008
C42	C	1.171016	0.384532	0.249992
C43	C	1.421016	0.634532	0.499992
C44	C	1.671016	0.884532	0.749992
C45	C	0.818635	0.132536	-0.000009
C46	C	1.068635	0.382536	0.249991
C47	C	1.318635	0.632536	0.499991
C48	C	1.568635	0.882536	0.749991
C49	C	0.735491	0.130915	-0.000014
C50	C	0.985491	0.380915	0.249986
C51	C	1.235491	0.630915	0.499986
C52	C	1.485491	0.880915	0.749986
C53	C	0.631182	0.128888	-0.000015
C54	C	0.881182	0.378888	0.249985
C55	C	1.131182	0.628888	0.499985
C56	C	1.381182	0.878888	0.749985
C57	C	0.548043	0.127280	-0.000014
C58	C	0.798043	0.377280	0.249986
C59	C	1.048043	0.627280	0.499986
C60	C	1.298043	0.877280	0.749986
C61	C	0.443728	0.125253	-0.000017
C62	C	0.693728	0.375253	0.249983
C63	C	0.943728	0.625253	0.499983
C64	C	1.193728	0.875253	0.749983
C65	C	1.096067	-0.040507	0.000006
C66	C	1.346067	0.209493	0.250006
C67	C	1.596067	0.459493	0.500006
C68	C	1.846067	0.709493	0.750006
C69	C	1.094079	-0.142889	0.000006
C70	C	1.344079	0.107111	0.250006
C71	C	1.594079	0.357111	0.500006
C72	C	1.844079	0.607111	0.750006
C73	C	1.086759	-0.517785	-0.000029
C74	C	1.336759	-0.267785	0.249971
C75	C	1.586759	-0.017785	0.499971
C76	C	1.836759	0.232215	0.749971
C77	C	1.088792	-0.413477	-0.000019
C78	C	1.338792	-0.163477	0.249981
C79	C	1.588792	0.086523	0.499981
C80	C	1.838792	0.336523	0.749981
C81	C	1.090419	-0.330340	-0.000010
C82	C	1.340419	-0.080340	0.249990
C83	C	1.590419	0.169660	0.499990
C84	C	1.840419	0.419660	0.749990
C85	C	1.092452	-0.226025	-0.000002
C86	C	1.342452	0.023975	0.249998
C87	C	1.592452	0.273975	0.499998
C88	C	1.842452	0.523975	0.749998
C89	C	1.258209	0.121649	-0.000009
C90	C	1.508209	0.371649	0.249991
C91	C	1.758209	0.621649	0.499991
C92	C	2.008209	0.871649	0.749991
C93	C	1.360589	0.123645	-0.000017
C94	C	1.610589	0.373645	0.249983
C95	C	1.860589	0.623645	0.499983
C96	C	2.110589	0.873645	0.749983
C97	C	1.083157	0.296688	-0.000023
C98	C	1.333157	0.546688	0.249977
C99	C	1.583157	0.796688	0.499977
C100	C	1.833157	1.046688	0.749977
C101	C	1.085146	0.399070	-0.000032
C102	C	1.335146	0.649070	0.249968
C103	C	1.585146	0.899070	0.499968
C104	C	1.835146	1.149070	0.749968
N105	N	1.089603	0.128090	0.353622
N106	N	1.339603	0.378090	0.603622
N107	N	1.589603	0.628090	0.853622
N108	N	1.839603	0.878090	1.103622
N109	N	1.089629	0.128084	-0.353636
N110	N	1.339629	0.378084	-0.103636
N111	N	1.589629	0.628084	0.146364
N112	N	1.839629	0.878084	0.396364
C113	C	1.148956	0.068483	0.421405
C114	C	1.398956	0.318483	0.671405
C115	C	1.648956	0.568483	0.921405
C116	C	1.898956	0.818483	1.171405
C117	C	1.148970	0.068479	0.578567
C118	C	1.398970	0.318479	0.828567
C119	C	1.648970	0.568479	1.078567
C120	C	1.898970	0.818479	1.328567
H121	H	1.199756	0.017449	0.363087
H122	H	1.449756	0.267449	0.613087
H123	H	1.699756	0.517449	0.863087
H124	H	1.949756	0.767449	1.113087
H125	H	1.199788	0.017450	0.636857
H126	H	1.449788	0.267450	0.886857
H127	H	1.699788	0.517450	1.136857
H128	H	1.949788	0.767450	1.386857
C129	C	1.020978	0.197033	0.567643
C130	C	1.270978	0.447033	0.817643
C131	C	1.520978	0.697033	1.067643
C132	C	1.770978	0.947033	1.317643
H133	H	0.983755	0.234432	0.630566
H134	H	1.233755	0.484432	0.880566
H135	H	1.483755	0.734432	1.130566
H136	H	1.733755	0.984432	1.380566
H137	H	0.982464	0.163855	0.511911
H138	H	1.232464	0.413855	0.761911
H139	H	1.482464	0.663855	1.011911
H140	H	1.732464	0.913855	1.261911
H141	H	1.054369	0.235364	0.511894
H142	H	1.304369	0.485364	0.761894
H143	H	1.554369	0.735364	1.011894
H144	H	1.804369	0.985364	1.261894
H145	H	1.038795	0.179116	0.411942
H146	H	1.288795	0.429116	0.661942
H147	H	1.538795	0.679116	0.911942
H148	H	1.788795	0.929116	1.161942
