data_functionalizedCrystal
_audit_creation_method	'MofGen! by Chris Wilmer'
_symmetry_space_group_name_H-M	'P1'
_symmetry_Int_Tables_number	1
_symmetry_cell_setting	triclinic
loop_
_symmetry_equiv_pos_as_xyz
  x,y,z
_cell_length_a	18.101398
_cell_length_b	21.395355
_cell_length_c	21.395362
_cell_angle_alpha	89.982663
_cell_angle_beta	90.023647
_cell_angle_gamma	89.970130
loop_
_atom_site_label
_atom_site_type_symbol
_atom_site_fract_x
_atom_site_fract_y
_atom_site_fract_z
Zn1	Zn	1.132176	-0.354355	-0.249590
Zn2	Zn	1.465509	-0.021022	0.083743
Zn3	Zn	1.798842	0.312311	0.417076
Zn4	Zn	1.132065	-0.249580	-0.354350
Zn5	Zn	1.465399	0.083753	-0.021017
Zn6	Zn	1.798732	0.417087	0.312317
Zn7	Zn	1.008322	-0.249582	-0.249582
Zn8	Zn	1.341656	0.083751	0.083752
Zn9	Zn	1.674989	0.417084	0.417085
Zn10	Zn	1.008291	-0.354311	-0.354325
Zn11	Zn	1.341624	-0.020977	-0.020992
Zn12	Zn	1.674958	0.312356	0.312341
O13	O	1.070214	-0.301957	-0.301962
O14	O	1.403547	0.031376	0.031372
O15	O	1.736880	0.364710	0.364705
O16	O	1.235794	-0.340475	-0.263501
O17	O	1.569127	-0.007141	0.069833
O18	O	1.902460	0.326192	0.403166
O19	O	1.115618	-0.161902	-0.340459
O20	O	1.448951	0.171431	-0.007126
O21	O	1.782284	0.504764	0.326208
O22	O	1.024811	-0.263501	-0.161905
O23	O	1.358144	0.069833	0.171428
O24	O	1.691478	0.403166	0.504762
O25	O	1.235713	-0.263497	-0.340467
O26	O	1.569046	0.069837	-0.007134
O27	O	1.902379	0.403170	0.326199
O28	O	1.115805	-0.340477	-0.161911
O29	O	1.449139	-0.007143	0.171422
O30	O	1.782472	0.326190	0.504755
O31	O	1.024704	-0.161904	-0.263486
O32	O	1.358038	0.171429	0.069847
O33	O	1.691371	0.504762	0.403180
O34	O	0.904685	-0.263457	-0.263462
O35	O	1.238019	0.069876	0.069871
O36	O	1.571352	0.403210	0.403204
O37	O	1.024758	-0.441994	-0.340425
O38	O	1.358091	-0.108661	-0.007092
O39	O	1.691424	0.224672	0.326242
O40	O	0.904662	-0.340400	-0.340417
O41	O	1.237996	-0.007067	-0.007083
O42	O	1.571329	0.326266	0.326250
O43	O	1.115775	-0.442027	-0.263477
O44	O	1.449108	-0.108694	0.069857
O45	O	1.782442	0.224639	0.403190
O46	O	1.115587	-0.263453	-0.442025
O47	O	1.448920	0.069880	-0.108691
O48	O	1.782254	0.403214	0.224642
O49	O	1.024651	-0.340398	-0.442006
O50	O	1.357984	-0.007065	-0.108673
O51	O	1.691317	0.326269	0.224660
C52	C	0.877803	-0.301924	-0.301936
C53	C	1.211136	0.031409	0.031397
C54	C	1.544470	0.364742	0.364730
C55	C	0.795489	-0.301925	-0.301941
C56	C	1.128822	0.031408	0.031393
C57	C	1.462156	0.364741	0.364726
C58	C	1.070124	-0.301934	-0.464749
C59	C	1.403457	0.031399	-0.131416
C60	C	1.736790	0.364733	0.201917
C61	C	1.070153	-0.301945	-0.534391
C62	C	1.403486	0.031388	-0.201057
C63	C	1.736820	0.364721	0.132276
C64	C	1.070275	-0.465380	-0.301949
C65	C	1.403608	-0.132047	0.031384
C66	C	1.736942	0.201286	0.364718
C67	C	1.070301	-0.535022	-0.301944
C68	C	1.403635	-0.201688	0.031390
C69	C	1.736968	0.131645	0.364723
C70	C	0.496398	-0.301978	-0.301980
C71	C	0.829731	0.031355	0.031354
C72	C	1.163065	0.364689	0.364687
C73	C	0.527713	-0.253803	-0.253320
C74	C	0.861046	0.079530	0.080013
C75	C	1.194380	0.412863	0.413347
C76	C	0.613331	-0.253598	-0.253450
C77	C	0.946664	0.079735	0.079883
C78	C	1.279998	0.413069	0.413216
C79	C	0.644781	-0.301952	-0.301960
C80	C	0.978114	0.031382	0.031374
C81	C	1.311447	0.364715	0.364707
C82	C	0.613664	-0.283910	-0.367957
C83	C	0.946997	0.049423	-0.034624
C84	C	1.280331	0.382756	0.298709
C85	C	0.528019	-0.283575	-0.367687
C86	C	0.861352	0.049758	-0.034354
C87	C	1.194686	0.383091	0.298980
C88	C	0.528019	-0.368307	-0.285215
C89	C	0.861353	-0.034974	0.048118
C90	C	1.194686	0.298359	0.381451
C91	C	0.613670	-0.367945	-0.283746
C92	C	0.947003	-0.034612	0.049588
C93	C	1.280337	0.298721	0.382921
C94	C	0.728640	-0.301938	-0.301952
C95	C	1.061973	0.031395	0.031381
C96	C	1.395307	0.364729	0.364714
C97	C	0.412539	-0.301990	-0.301991
C98	C	0.745872	0.031343	0.031342
C99	C	1.079205	0.364677	0.364675
C100	C	1.263375	-0.301990	-0.301988
C101	C	1.596709	0.031343	0.031346
C102	C	1.930042	0.364676	0.364679
C103	C	1.345690	-0.302004	-0.301999
C104	C	1.679023	0.031329	0.031334
C105	C	2.012356	0.364662	0.364668
C106	C	1.117692	-0.567753	-0.261875
C107	C	1.451025	-0.234420	0.071458
C108	C	1.784359	0.098914	0.404792
C109	C	1.117691	-0.633188	-0.261848
C110	C	1.451024	-0.299855	0.071485
C111	C	1.784358	0.033478	0.404819
C112	C	1.070307	-0.665890	-0.301901
C113	C	1.403640	-0.332557	0.031432
C114	C	1.736974	0.000777	0.364766
C115	C	1.022907	-0.633151	-0.341973
C116	C	1.356240	-0.299818	-0.008639
C117	C	1.689574	0.033516	0.324694
C118	C	1.022904	-0.567717	-0.341994
C119	C	1.356238	-0.234383	-0.008661
C120	C	1.689571	0.098950	0.324673
C121	C	1.064428	-0.769556	-0.358316
C122	C	1.397762	-0.436223	-0.024983
C123	C	1.731095	-0.102890	0.308351
C124	C	1.064436	-0.834989	-0.358296
C125	C	1.397770	-0.501656	-0.024962
C126	C	1.731103	-0.168323	0.308371
C127	C	1.070312	-0.867711	-0.301835
C128	C	1.403645	-0.534378	0.031499
C129	C	1.736978	-0.201044	0.364832
C130	C	1.076194	-0.834992	-0.245393
C131	C	1.409528	-0.501658	0.087941
C132	C	1.742861	-0.168325	0.421274
C133	C	1.076191	-0.769557	-0.245414
C134	C	1.409525	-0.436224	0.087919
C135	C	1.742858	-0.102891	0.421253
C136	C	1.070305	-0.736843	-0.301882
C137	C	1.403638	-0.403509	0.031451
C138	C	1.736971	-0.070176	0.364785
C139	C	1.117704	-0.971395	-0.261733
C140	C	1.451037	-0.638062	0.071600
C141	C	1.784370	-0.304728	0.404933
C142	C	1.117698	-1.036832	-0.261705
C143	C	1.451031	-0.703498	0.071628
C144	C	1.784364	-0.370165	0.404961
C145	C	1.022918	-1.036793	-0.341836
C146	C	1.356251	-0.703459	-0.008502
C147	C	1.689584	-0.370126	0.324831
C148	C	1.022920	-0.971357	-0.341858
C149	C	1.356253	-0.638024	-0.008525
C150	C	1.689587	-0.304691	0.324809
C151	C	1.070317	-0.938662	-0.301808
C152	C	1.403650	-0.605329	0.031526
C153	C	1.736984	-0.271996	0.364859
C154	C	1.070195	-0.139170	-0.301929
C155	C	1.403528	0.194164	0.031404
C156	C	1.736862	0.527497	0.364737
C157	C	1.070312	-0.069529	-0.301758
C158	C	1.403646	0.263805	0.031575
C159	C	1.736979	0.597138	0.364909
C160	C	1.117687	-0.342119	-1.036137
C161	C	1.451020	-0.008786	-0.702804
C162	C	1.784353	0.324547	-0.369470
C163	C	1.117665	-0.342109	-0.970702
C164	C	1.450998	-0.008776	-0.637368
C165	C	1.784332	0.324557	-0.304035
C166	C	1.070314	-0.301996	-0.938029
C167	C	1.403648	0.031337	-0.604696
C168	C	1.736981	0.364670	-0.271362
C169	C	1.022996	-0.261879	-0.970797
C170	C	1.356329	0.071454	-0.637464
C171	C	1.689662	0.404788	-0.304130
C172	C	1.023024	-0.261886	-1.036231
C173	C	1.356357	0.071448	-0.702898
C174	C	1.689691	0.404781	-0.369564
C175	C	1.003551	-0.296981	-0.834408
C176	C	1.336884	0.036352	-0.501074
C177	C	1.670218	0.369686	-0.167741
C178	C	1.003521	-0.296979	-0.768975
C179	C	1.336855	0.036355	-0.435641
C180	C	1.670188	0.369688	-0.102308
C181	C	1.070228	-0.301972	-0.736208
C182	C	1.403561	0.031361	-0.402875
C183	C	1.736894	0.364694	-0.069542
C184	C	1.136965	-0.306982	-0.768883
C185	C	1.470299	0.026352	-0.435549
C186	C	1.803632	0.359685	-0.102216
C187	C	1.136994	-0.306988	-0.834317
C188	C	1.470327	0.026345	-0.500983
C189	C	1.803660	0.359679	-0.167650
C190	C	1.070279	-0.301985	-0.867077
C191	C	1.403612	0.031349	-0.533743
C192	C	1.736945	0.364682	-0.200410
C193	C	1.117523	-0.342074	-0.632495
C194	C	1.450857	-0.008740	-0.299162
C195	C	1.784190	0.324593	0.034171
C196	C	1.117503	-0.342059	-0.567059
C197	C	1.450836	-0.008726	-0.233726
C198	C	1.784170	0.324607	0.099608
C199	C	1.022827	-0.261832	-0.567155
C200	C	1.356161	0.071501	-0.233822
C201	C	1.689494	0.404834	0.099511
C202	C	1.022854	-0.261843	-0.632591
C203	C	1.356188	0.071490	-0.299257
C204	C	1.689521	0.404823	0.034076
C205	C	1.070201	-0.301967	-0.665257
C206	C	1.403535	0.031366	-0.331924
C207	C	1.736868	0.364699	0.001410
C208	C	1.070324	-0.301994	-0.138538
C209	C	1.403657	0.031339	0.194795
C210	C	1.736991	0.364673	0.528128
C211	C	1.070371	-0.302010	-0.068897
C212	C	1.403704	0.031324	0.264436
C213	C	1.737038	0.364657	0.597769
H214	H	0.634370	-0.264907	-0.204510
H215	H	0.967704	0.068427	0.128823
H216	H	1.301037	0.401760	0.462157
H217	H	0.949181	-0.292904	-0.742374
H218	H	1.282514	0.040429	-0.409041
H219	H	1.615848	0.373763	-0.075707
H220	H	1.080980	-0.861632	-0.199417
H221	H	1.414313	-0.528299	0.133917
H222	H	1.747646	-0.194965	0.467250
H223	H	1.059446	-0.742920	-0.404281
H224	H	1.392779	-0.409587	-0.070948
H225	H	1.726113	-0.076253	0.262385
Br226	Br	0.647420	-0.171677	-0.271915
Br227	Br	0.980754	0.161656	0.061418
Br228	Br	1.314087	0.494989	0.394752
H229	H	0.507303	-0.317133	-0.405169
H230	H	0.840636	0.016200	-0.071836
H231	H	1.173969	0.349533	0.261498
H232	H	0.635081	-0.405762	-0.316605
H233	H	0.968415	-0.072429	0.016728
H234	H	1.301748	0.260904	0.350062
Br235	Br	1.227561	-0.313784	-0.878659
Br236	Br	1.560894	0.019549	-0.545326
Br237	Br	1.894228	0.352883	-0.211993
H238	H	0.984444	-0.229217	-0.944192
H239	H	1.317777	0.104116	-0.610858
H240	H	1.651110	0.437449	-0.277525
Br241	Br	1.181729	-0.396494	-0.522597
Br242	Br	1.515062	-0.063160	-0.189264
Br243	Br	1.848395	0.270173	0.144070
Br244	Br	0.494652	-0.202756	-0.391384
Br245	Br	0.827986	0.130577	-0.058051
Br246	Br	1.161319	0.463911	0.275282
H247	H	0.507141	-0.264988	-0.204230
H248	H	0.840475	0.068346	0.129103
H249	H	1.173808	0.401679	0.462437
Br250	Br	0.958574	-0.207385	-0.522821
Br251	Br	1.291907	0.125949	-0.189488
Br252	Br	1.625240	0.459282	0.143846
Br253	Br	0.958595	-0.677530	-0.396326
Br254	Br	1.291928	-0.344196	-0.062993
Br255	Br	1.625261	-0.010863	0.270340
Br256	Br	1.182013	-0.523384	-0.207519
Br257	Br	1.515346	-0.190051	0.125814
Br258	Br	1.848680	0.143283	0.459148
Br259	Br	0.958582	-0.523292	-0.396376
Br260	Br	1.291915	-0.189959	-0.063043
Br261	Br	1.625249	0.143374	0.270290
H262	H	0.949227	-0.292917	-0.861081
H263	H	1.282560	0.040416	-0.527747
H264	H	1.615893	0.373750	-0.194414
Br265	Br	1.227502	-0.313760	-0.724423
Br266	Br	1.560835	0.019573	-0.391089
Br267	Br	1.894169	0.352907	-0.057756
Br268	Br	1.181938	-0.396577	-1.080467
Br269	Br	1.515271	-0.063244	-0.747134
Br270	Br	1.848604	0.270090	-0.413800
Br271	Br	1.084171	-0.725154	-0.168818
Br272	Br	1.417504	-0.391821	0.164515
Br273	Br	1.750838	-0.058487	0.497849
H274	H	0.634013	-0.381549	-0.235179
H275	H	0.967346	-0.048216	0.098155
H276	H	1.300679	0.285117	0.431488
H277	H	1.156071	-0.374749	-0.659094
H278	H	1.489404	-0.041416	-0.325760
H279	H	1.822738	0.291917	0.007573
H280	H	0.506159	-0.204940	-0.264276
H281	H	0.839492	0.128393	0.069057
H282	H	1.172825	0.461727	0.402391
Br283	Br	0.647602	-0.340567	-0.430005
Br284	Br	0.980935	-0.007234	-0.096672
Br285	Br	1.314268	0.326100	0.236661
Br286	Br	0.649345	-0.203963	-0.392071
Br287	Br	0.982678	0.129370	-0.058737
Br288	Br	1.316012	0.462704	0.274596
Br289	Br	0.494269	-0.428134	-0.344287
Br290	Br	0.827602	-0.094801	-0.010953
Br291	Br	1.160936	0.238532	0.322380
Br292	Br	0.492067	-0.395647	-0.206399
Br293	Br	0.825400	-0.062314	0.126934
Br294	Br	1.158733	0.271020	0.460268
Br295	Br	1.181993	-0.677620	-0.207450
Br296	Br	1.515326	-0.344286	0.125884
Br297	Br	1.848660	-0.010953	0.459217
Br298	Br	1.182024	-0.927019	-0.207379
Br299	Br	1.515357	-0.593686	0.125954
Br300	Br	1.848691	-0.260353	0.459287
Br301	Br	0.958602	-0.926933	-0.396241
Br302	Br	1.291935	-0.593600	-0.062908
Br303	Br	1.625268	-0.260266	0.270425
H304	H	0.984322	-0.229184	-0.659264
H305	H	1.317655	0.104149	-0.325931
H306	H	1.650989	0.437483	0.007402
H307	H	0.984493	-0.229223	-1.062904
H308	H	1.317826	0.104111	-0.729571
H309	H	1.651159	0.437444	-0.396237
Br310	Br	1.182031	-1.081254	-0.207331
Br311	Br	1.515364	-0.747921	0.126002
Br312	Br	1.848697	-0.414588	0.459336
Br313	Br	0.958600	-1.081166	-0.396186
Br314	Br	1.291933	-0.747833	-0.062853
Br315	Br	1.625267	-0.414500	0.270480
H316	H	1.059651	-0.861624	-0.404254
H317	H	1.392984	-0.528291	-0.070921
H318	H	1.726318	-0.194958	0.262412
Br319	Br	1.181885	-0.396546	-0.926231
Br320	Br	1.515218	-0.063213	-0.592898
Br321	Br	1.848552	0.270121	-0.259565
