data_functionalizedCrystal
_audit_creation_method	'MofGen! by Chris Wilmer'
_symmetry_space_group_name_H-M	'P1'
_symmetry_Int_Tables_number	1
_symmetry_cell_setting	triclinic
loop_
_symmetry_equiv_pos_as_xyz
  x,y,z
_cell_length_a	12.759394
_cell_length_b	21.395362
_cell_length_c	21.395355
_cell_angle_alpha	89.956060
_cell_angle_beta	89.987117
_cell_angle_gamma	90.029736
loop_
_atom_site_label
_atom_site_type_symbol
_atom_site_fract_x
_atom_site_fract_y
_atom_site_fract_z
Zn1	Zn	-0.417943	0.957933	-0.354610
Zn2	Zn	0.082057	1.457933	0.145390
Zn3	Zn	-0.593608	0.957866	-0.249843
Zn4	Zn	-0.093608	1.457866	0.250157
Zn5	Zn	-0.417992	0.853148	-0.249811
Zn6	Zn	0.082008	1.353148	0.250189
Zn7	Zn	-0.593629	0.853148	-0.354548
Zn8	Zn	-0.093629	1.353148	0.145452
O9	O	-0.505793	0.905524	-0.302203
O10	O	-0.005793	1.405524	0.197797
O11	O	-0.441216	1.045602	-0.340752
O12	O	0.058784	1.545602	0.159248
O13	O	-0.570323	0.943947	-0.162161
O14	O	-0.070323	1.443947	0.337839
O15	O	-0.270964	0.867076	-0.263726
O16	O	0.229036	1.367076	0.236274
O17	O	-0.570276	1.045553	-0.263780
O18	O	-0.070276	1.545553	0.236220
O19	O	-0.270928	0.944061	-0.340721
O20	O	0.229072	1.444061	0.159279
O21	O	-0.441299	0.867011	-0.162138
O22	O	0.058701	1.367011	0.337862
O23	O	-0.441320	0.765470	-0.263666
O24	O	0.058680	1.265470	0.236334
O25	O	-0.570313	0.867076	-0.442234
O26	O	-0.070313	1.367076	0.057766
O27	O	-0.570360	0.765470	-0.340615
O28	O	-0.070360	1.265470	0.159385
O29	O	-0.441237	0.944061	-0.442280
O30	O	0.058763	1.444061	0.057720
O31	O	-0.740631	0.943947	-0.263719
O32	O	-0.240631	1.443947	0.236281
O33	O	-0.740647	0.867011	-0.340645
O34	O	-0.240647	1.367011	0.159355
C35	C	-0.505848	0.742736	-0.302130
C36	C	-0.005848	1.242736	0.197870
C37	C	-0.505897	0.673095	-0.302114
C38	C	-0.005897	1.173095	0.197886
C39	C	-0.778760	0.905489	-0.302193
C40	C	-0.278760	1.405489	0.197807
C41	C	-0.895537	0.905531	-0.302209
C42	C	-0.395537	1.405531	0.197791
C43	C	-0.573178	0.640398	-0.342122
C44	C	-0.073178	1.140398	0.157878
C45	C	-0.573152	0.574963	-0.342150
C46	C	-0.073152	1.074963	0.157850
C47	C	-0.505857	0.542226	-0.302159
C48	C	-0.005857	1.042226	0.197841
C49	C	-0.438564	0.574931	-0.262148
C50	C	0.061436	1.074931	0.237852
C51	C	-0.438584	0.640365	-0.262126
C52	C	0.061416	1.140365	0.237874
C53	C	-0.497393	0.438500	-0.245753
C54	C	0.002607	0.938500	0.254247
C55	C	-0.497380	0.373067	-0.245774
C56	C	0.002620	0.873067	0.254226
C57	C	-0.505788	0.340406	-0.302228
C58	C	-0.005788	0.840406	0.197772
C59	C	-0.514231	0.373185	-0.358662
C60	C	-0.014231	0.873185	0.141338
C61	C	-0.514252	0.438619	-0.358640
C62	C	-0.014252	0.938619	0.141360
C63	C	-0.505827	0.471274	-0.302179
C64	C	-0.005827	0.971274	0.197821
C65	C	-0.573044	0.236756	-0.342269
C66	C	-0.073044	0.736756	0.157731
C67	C	-0.573011	0.171320	-0.342298
C68	C	-0.073011	0.671320	0.157702
C69	C	-0.438429	0.171290	-0.262291
C70	C	0.061571	0.671290	0.237709
C71	C	-0.438456	0.236725	-0.262268
C72	C	0.061544	0.736725	0.237732
C73	C	-0.505770	0.269454	-0.302256
C74	C	-0.005770	0.769454	0.197744
C75	C	-0.895341	0.985636	-0.382444
C76	C	-0.395341	1.485636	0.117556
C77	C	-0.950104	1.025708	-0.422567
C78	C	-0.450104	1.525708	0.077433
C79	C	-1.059826	1.025745	-0.422580
C80	C	-0.559826	1.525745	0.077420
C81	C	-1.114787	0.985705	-0.382468
C82	C	-0.614787	1.485705	0.117532
C83	C	-1.060024	0.945633	-0.342346
C84	C	-0.560024	1.445633	0.157654
C85	C	-0.950300	0.945601	-0.342336
C86	C	-0.450300	1.445601	0.157664
C87	C	-1.060220	0.865526	-0.262115
C88	C	-0.560220	1.365526	0.237885
C89	C	-0.950498	0.865491	-0.262097
C90	C	-0.450498	1.365491	0.237903
C91	C	-1.115181	0.825485	-0.222003
C92	C	-0.615181	1.325485	0.277997
C93	C	-1.060418	0.785415	-0.181877
C94	C	-0.560418	1.285415	0.318123
C95	C	-0.950690	0.785380	-0.181865
C96	C	-0.450690	1.285380	0.318135
C97	C	-0.895735	0.825419	-0.221975
C98	C	-0.395735	1.325419	0.278025
C99	C	-0.231759	0.905576	-0.302227
C100	C	0.268241	1.405576	0.197773
C101	C	-0.114983	0.905598	-0.302237
C102	C	0.385017	1.405598	0.197763
C103	C	-0.505738	1.068947	-0.302276
C104	C	-0.005738	1.568947	0.197724
C105	C	-0.505714	1.138588	-0.302308
C106	C	-0.005714	1.638588	0.197692
C107	C	-0.505772	0.905576	-0.465626
C108	C	-0.005772	1.405576	0.034374
C109	C	-0.505762	0.905598	-0.535268
C110	C	-0.005762	1.405598	-0.035268
C111	C	-0.438550	0.945682	-0.568006
C112	C	0.061450	1.445682	-0.068006
C113	C	-0.438505	0.945681	-0.633441
C114	C	0.061495	1.445681	-0.133441
C115	C	-0.505691	0.905603	-0.666136
C116	C	-0.005691	1.405603	-0.166136
C117	C	-0.572908	0.865510	-0.633390
C118	C	-0.072908	1.365510	-0.133390
C119	C	-0.572944	0.865508	-0.567956
C120	C	-0.072944	1.365508	-0.067956
C121	C	-0.600292	0.900643	-0.769806
C122	C	-0.100292	1.400643	-0.269806
C123	C	-0.600258	0.900650	-0.835239
C124	C	-0.100258	1.400650	-0.335239
C125	C	-0.505580	0.905607	-0.867957
C126	C	-0.005580	1.405607	-0.367957
C127	C	-0.410933	0.910569	-0.835234
C128	C	0.089067	1.410569	-0.335234
C129	C	-0.410968	0.910567	-0.769800
C130	C	0.089032	1.410567	-0.269800
C131	C	-0.505659	0.905601	-0.737089
C132	C	-0.005659	1.405601	-0.237089
C133	C	-0.438313	0.945692	-0.971648
C134	C	0.061687	1.445692	-0.471648
C135	C	-0.438266	0.945687	-1.037084
C136	C	0.061734	1.445687	-0.537084
C137	C	-0.572679	0.865519	-1.037032
C138	C	-0.072679	1.365519	-0.537032
C139	C	-0.572716	0.865521	-0.971597
C140	C	-0.072716	1.365521	-0.471597
C141	C	-0.505535	0.905611	-0.938908
C142	C	-0.005535	1.405611	-0.438908
C143	C	-0.505738	0.905508	-0.139415
C144	C	-0.005738	1.405508	0.360585
C145	C	-0.505451	0.905607	-0.069775
C146	C	-0.005451	1.405607	0.430225
H147	H	-0.627939	0.548336	-0.374731
H148	H	-0.127939	1.048336	0.125269
H149	H	-0.806394	0.825397	-0.221966
H150	H	-0.306394	1.325397	0.278034
H151	H	-0.905346	1.058307	-0.455227
H152	H	-0.405346	1.558307	0.044773
N153	N	-0.702334	0.895297	-0.870530
N154	N	-0.202334	1.395297	-0.370530
H155	H	-0.712167	0.933466	-0.897705
H156	H	-0.212167	1.433466	-0.397705
H157	H	-0.762254	0.892129	-0.839836
H158	H	-0.262254	1.392129	-0.339836
N159	N	-0.645226	0.822286	-0.936294
N160	N	-0.145226	1.322286	-0.436294
H161	H	-0.693926	0.847733	-0.909166
H162	H	-0.193926	1.347733	-0.409166
H163	H	-0.602484	0.793263	-0.909159
H164	H	-0.102484	1.293263	-0.409159
N165	N	-1.118900	1.068956	-0.465861
N166	N	-0.618900	1.568956	0.034139
H167	H	-1.067438	1.094313	-0.491273
H168	H	-0.567438	1.594313	0.008727
H169	H	-1.164394	1.097977	-0.440399
H170	H	-0.664394	1.597977	0.059601
H171	H	-0.490542	0.465088	-0.199779
H172	H	0.009458	0.965088	0.300221
N173	N	-0.366019	0.988922	-0.668764
N174	N	0.133981	1.488922	-0.168764
H175	H	-0.317323	0.963473	-0.695893
H176	H	0.182677	1.463473	-0.195893
H177	H	-0.323536	1.014309	-0.638089
H178	H	0.176464	1.514309	-0.138089
N179	N	-0.308889	0.915918	-0.734512
N180	N	0.191111	1.415918	-0.234512
H181	H	-0.261877	0.879698	-0.745868
H182	H	0.238123	1.379698	-0.245868
H183	H	-0.323367	0.915185	-0.688107
H184	H	0.176633	1.415185	-0.188107
N185	N	-0.645150	0.822291	-1.072284
N186	N	-0.145150	1.322291	-0.572284
H187	H	-0.628853	0.777527	-1.060861
H188	H	-0.128853	1.277527	-0.560861
H189	H	-0.634898	0.828425	-1.118693
H190	H	-0.134898	1.328425	-0.618693
N191	N	-0.366091	0.988919	-0.532749
N192	N	0.133909	1.488919	-0.032749
H193	H	-0.323504	1.014312	-0.563422
H194	H	0.176496	1.514312	-0.063422
H195	H	-0.317491	0.963424	-0.505579
H196	H	0.182509	1.463424	-0.005579
H197	H	-0.383631	0.144636	-0.229733
H198	H	0.116369	0.644636	0.270267
H199	H	-0.627797	0.144699	-0.374881
H200	H	-0.127797	0.644699	0.125119
N201	N	-0.523353	0.473971	-0.419505
N202	N	-0.023353	0.973971	0.080495
H203	H	-0.462667	0.462642	-0.447609
H204	H	0.037333	0.962642	0.052391
H205	H	-0.522122	0.520367	-0.410869
H206	H	-0.022122	1.020367	0.089131
N207	N	-0.645452	0.822271	-0.532651
N208	N	-0.145452	1.322271	-0.032651
H209	H	-0.694151	0.847720	-0.505525
H210	H	-0.194151	1.347720	-0.005525
H211	H	-0.602709	0.793250	-0.505514
H212	H	-0.102709	1.293250	-0.005514
H213	H	-0.521076	0.346594	-0.404632
H214	H	-0.021076	0.846594	0.095368
H215	H	-1.204128	0.985733	-0.382488
H216	H	-0.704128	1.485733	0.117512
H217	H	-0.383770	0.548273	-0.229589
H218	H	0.116230	1.048273	0.270411
H219	H	-0.383675	0.263347	-0.229686
H220	H	0.116325	0.763347	0.270314
N221	N	-0.308806	0.915921	-0.870513
N222	N	0.191194	1.415921	-0.370513
H223	H	-0.323140	0.915168	-0.916930
H224	H	0.176860	1.415168	-0.416930
H225	H	-0.261851	0.879699	-0.859043
H226	H	0.238149	1.379699	-0.359043
N227	N	-0.645638	0.272064	-0.385398
N228	N	-0.145638	0.772064	0.114602
H229	H	-0.688252	0.241418	-0.410751
H230	H	-0.188252	0.741418	0.089249
H231	H	-0.602954	0.299266	-0.414425
H232	H	-0.102954	0.799266	0.085575
H233	H	-0.677371	0.896440	-0.743172
H234	H	-0.177371	1.396440	-0.243172
N235	N	-1.119693	0.742237	-0.138614
N236	N	-0.619693	1.242237	0.361386
H237	H	-1.100670	0.697459	-0.148287
H238	H	-0.600670	1.197459	0.351713
H239	H	-1.197491	0.748392	-0.144733
H240	H	-0.697491	1.248392	0.355267
N241	N	-0.645776	0.675699	-0.385250
N242	N	-0.145776	1.175699	0.114750
H243	H	-0.688394	0.645052	-0.410599
H244	H	-0.188394	1.145052	0.089401
H245	H	-0.603094	0.702898	-0.414281
H246	H	-0.103094	1.202898	0.085719
H247	H	-0.383603	0.978332	-0.945031
H248	H	0.116397	1.478332	-0.445031
H249	H	-0.806000	0.985615	-0.382432
H250	H	-0.306000	1.485615	0.117568
N251	N	-0.488283	0.337715	-0.184910
N252	N	0.011717	0.837715	0.315090
H253	H	-0.482946	0.368333	-0.149144
H254	H	0.017054	0.868333	0.350856
H255	H	-0.423543	0.310592	-0.185889
H256	H	0.076457	0.810592	0.314111
N257	N	-0.366007	0.675636	-0.218978
N258	N	0.133993	1.175636	0.281022
H259	H	-0.323365	0.644971	-0.193650
H260	H	0.176635	1.144971	0.306350
H261	H	-0.408704	0.702735	-0.189928
H262	H	0.091296	1.202735	0.310072
H263	H	-0.383527	0.978328	-1.063738
H264	H	0.116473	1.478328	-0.563738
H265	H	-0.627608	0.832876	-0.660015
H266	H	-0.127608	1.332876	-0.160015
H267	H	-1.204522	0.825516	-0.222020
H268	H	-0.704522	1.325516	0.277980
H269	H	-0.906107	0.752746	-0.149195
H270	H	-0.406107	1.252746	0.350805
