data_functionalizedCrystal
_audit_creation_method	'MofGen! by Chris Wilmer'
_symmetry_space_group_name_H-M	'P1'
_symmetry_Int_Tables_number	1
_symmetry_cell_setting	triclinic
loop_
_symmetry_equiv_pos_as_xyz
  x,y,z
_cell_length_a	10.723024
_cell_length_b	11.026607
_cell_length_c	9.798715
_cell_angle_alpha	89.998891
_cell_angle_beta	89.996609
_cell_angle_gamma	96.526943
loop_
_atom_site_label
_atom_site_type_symbol
_atom_site_fract_x
_atom_site_fract_y
_atom_site_fract_z
O1	O	1.693992	0.170518	-0.113478
O2	O	1.334363	0.186840	-0.113482
O3	O	1.484372	0.001778	-0.113475
O4	O	1.543983	0.355580	-0.113485
O5	O	1.484357	0.001777	0.113507
O6	O	1.334348	0.186840	0.113500
O7	O	1.693978	0.170518	0.113504
Zn8	Zn	1.514161	0.178679	0.149540
Zn9	Zn	1.514180	0.178679	-0.149518
O10	O	1.543969	0.355580	0.113498
C11	C	1.287599	0.185652	0.000008
C12	C	1.148278	0.182098	0.000007
C13	C	1.473367	-0.043525	0.000014
C14	C	1.440584	-0.178512	0.000009
C15	C	1.095646	0.285649	0.000003
C16	C	0.951650	0.281979	0.000001
C17	C	1.531104	-0.251564	0.000008
C18	C	1.497223	-0.391080	0.000002
C19	C	1.740741	0.171706	0.000011
C20	C	1.880062	0.175259	0.000003
C21	C	1.554973	0.400883	0.000005
C22	C	1.587756	0.535869	0.000001
N23	N	1.514157	0.178677	0.353640
N24	N	1.514191	0.178671	-0.353618
C25	C	1.577067	0.100633	0.421420
C26	C	1.577087	0.100628	0.578583
H27	H	1.157190	0.377021	0.000009
H28	H	1.338003	-0.219257	-0.000001
C29	C	0.890467	0.401745	-0.000003
C30	C	0.803176	0.429766	-0.117870
C31	C	0.741990	0.549537	-0.117874
C32	C	0.768096	0.641286	-0.000011
C33	C	0.855391	0.613268	0.117865
C34	C	0.916577	0.493497	0.117869
H35	H	0.783847	0.361845	-0.205128
H36	H	0.677368	0.570277	-0.205135
H37	H	0.722802	0.729948	-0.000014
H38	H	0.874720	0.681188	0.205123
H39	H	0.981199	0.472756	0.205130
H40	H	0.925352	0.086607	-0.000002
H41	H	1.630953	0.033815	0.636870
C42	C	1.065150	0.058654	0.000009
C43	C	0.972374	0.026043	0.117874
C44	C	0.889249	-0.097406	0.117877
C45	C	0.898899	-0.188244	0.000014
C46	C	0.991679	-0.155636	-0.117860
C47	C	1.074804	-0.032187	-0.117863
H48	H	0.965226	0.093289	0.205132
H49	H	0.820567	-0.121545	0.205136
H50	H	0.837365	-0.279629	0.000016
H51	H	0.998827	-0.222882	-0.205117
H52	H	1.143486	-0.008048	-0.205122
H53	H	1.633684	-0.210818	0.000017
H54	H	1.460333	0.245496	0.588103
C55	C	1.441409	0.268945	0.432416
C56	C	1.511468	0.362115	0.530670
C57	C	1.438718	0.452385	0.609442
C58	C	1.295909	0.449486	0.589960
C59	C	1.225842	0.356313	0.491701
C60	C	1.298592	0.266042	0.412929
H61	H	1.617191	0.364264	0.545097
H62	H	1.490587	0.521358	0.682180
H63	H	1.242055	0.516310	0.648272
H64	H	1.120119	0.354164	0.477275
H65	H	1.246723	0.197069	0.340192
H66	H	1.394636	-0.431820	-0.000008
H67	H	1.690344	-0.423393	-0.000100
H68	H	1.630909	0.033813	0.363100
