data_functionalizedCrystal
_audit_creation_method	'MofGen! by Chris Wilmer'
_symmetry_space_group_name_H-M	'P1'
_symmetry_Int_Tables_number	1
_symmetry_cell_setting	triclinic
loop_
_symmetry_equiv_pos_as_xyz
  x,y,z
_cell_length_a	10.686285
_cell_length_b	16.625548
_cell_length_c	10.686551
_cell_angle_alpha	94.398840
_cell_angle_beta	80.915481
_cell_angle_gamma	94.368696
loop_
_atom_site_label
_atom_site_type_symbol
_atom_site_fract_x
_atom_site_fract_y
_atom_site_fract_z
Zn1	Zn	-0.450163	-1.288149	-0.679115
Zn2	Zn	-0.678743	-1.288084	-0.450613
Zn3	Zn	-0.466517	-1.143700	-0.466865
Zn4	Zn	-0.662360	-1.162920	-0.662806
O5	O	-0.564446	-1.220713	-0.564850
O6	O	-0.480497	-1.400975	-0.648828
O7	O	-0.664291	-1.260861	-0.275138
O8	O	-0.286725	-1.154846	-0.508647
O9	O	-0.648434	-1.400927	-0.480948
O10	O	-0.274710	-1.260972	-0.664587
O11	O	-0.508370	-1.154783	-0.287078
O12	O	-0.492484	-1.033416	-0.492833
O13	O	-0.620512	-1.187602	-0.842600
O14	O	-0.636369	-1.047536	-0.636790
O15	O	-0.464611	-1.279608	-0.854583
O16	O	-0.854193	-1.279497	-0.465133
O17	O	-0.842156	-1.187539	-0.621031
C18	C	-0.894228	-1.235619	-0.539577
C19	C	-1.035307	-1.242072	-0.528807
C20	C	-0.564424	-1.011219	-0.564806
C21	C	-0.564443	-0.921600	-0.564815
C22	C	-0.564438	-0.593426	-0.564853
C23	C	-0.564436	-0.684733	-0.564839
C24	C	-0.564441	-0.757510	-0.564833
C25	C	-0.564438	-0.848823	-0.564821
C26	C	-0.233374	-1.205772	-0.590249
C27	C	-0.092291	-1.199405	-0.601073
C28	C	-0.538910	-1.235756	-0.895937
C29	C	-0.528028	-1.242167	-1.037027
C30	C	-0.564461	-0.431025	-0.564883
C31	C	-0.564449	-0.520644	-0.564867
C32	C	-0.589791	-1.205771	-0.235057
C33	C	-0.600316	-1.199501	-0.093996
H34	H	-1.094457	-1.283534	-0.458684
O35	O	-0.693322	-1.144611	-1.015641
H36	H	-0.687553	-1.148014	-0.913403
O37	O	-1.013947	-1.144480	-0.693943
H38	H	-1.041085	-1.081366	-0.670141
H39	H	-0.457815	-1.283605	-1.096197
