data_functionalizedCrystal
_audit_creation_method	'MofGen! by Chris Wilmer'
_symmetry_space_group_name_H-M	'P1'
_symmetry_Int_Tables_number	1
_symmetry_cell_setting	triclinic
loop_
_symmetry_equiv_pos_as_xyz
  x,y,z
_cell_length_a	14.971486
_cell_length_b	12.996460
_cell_length_c	14.971486
_cell_angle_alpha	89.999503
_cell_angle_beta	96.385871
_cell_angle_gamma	90.001258
loop_
_atom_site_label
_atom_site_type_symbol
_atom_site_fract_x
_atom_site_fract_y
_atom_site_fract_z
O1	O	1.186948	0.085449	-0.116557
O2	O	0.926547	0.085477	-0.130515
O3	O	1.063727	0.085455	0.006664
O4	O	1.049768	0.085471	-0.253736
O5	O	1.063709	-0.085679	0.006656
O6	O	0.926530	-0.085657	-0.130523
O7	O	1.186930	-0.085685	-0.116565
Cu8	Cu	1.056728	-0.101297	-0.123545
Cu9	Cu	1.056749	0.101089	-0.123535
O10	O	1.049750	-0.085663	-0.253744
C11	C	0.893214	-0.000086	-0.129895
C12	C	0.793917	-0.000076	-0.128024
N13	N	1.056720	-0.243644	-0.123551
C14	C	0.736692	-0.000072	-0.208614
C15	C	0.643392	-0.000088	-0.206850
C16	C	0.607320	-0.000099	-0.124497
C17	C	0.664552	-0.000106	-0.043902
C18	C	0.757850	-0.000098	-0.045666
C19	C	0.470090	-0.000120	-0.040231
C20	C	0.376786	-0.000126	-0.038466
C21	C	0.355632	-0.000110	-0.201415
C22	C	0.448930	-0.000102	-0.203179
C23	C	0.506156	-0.000107	-0.122584
C24	C	1.056724	-0.336750	-0.123553
C25	C	1.056732	-0.453555	-0.123547
C26	C	1.056744	-0.546653	-0.123537
C27	C	1.056753	-0.663466	-0.123532
C28	C	1.220263	-0.000119	-0.117185
C29	C	1.319561	-0.000123	-0.119056
C30	C	1.063094	-0.000112	0.039985
C31	C	1.061223	-0.000110	0.139282
N32	N	1.056764	0.243436	-0.123522
C33	C	1.050384	-0.000094	-0.287065
C34	C	1.052254	-0.000088	-0.386362
C35	C	1.141812	-0.000120	0.196507
C36	C	1.140049	-0.000109	0.289807
C37	C	1.057696	-0.000097	0.325879
C38	C	0.977101	-0.000084	0.268646
C39	C	0.978865	-0.000087	0.175349
C40	C	0.973430	-0.000080	0.463109
C41	C	0.971665	-0.000079	0.556413
C42	C	1.134614	-0.000102	0.577567
C43	C	1.136378	-0.000105	0.484269
C44	C	1.055782	-0.000095	0.427043
H45	H	0.766054	-0.000062	-0.275675
C46	C	1.301291	-0.000157	0.301345
C47	C	1.228636	-0.000131	0.352709
H48	H	1.355982	-0.000177	0.340180
H49	H	1.298603	0.059517	0.264517
H50	H	1.298569	-0.059839	0.264513
H51	H	1.231354	0.059556	0.389536
H52	H	1.231325	-0.059812	0.389552
C53	C	0.817621	-0.000072	0.163804
C54	C	0.890278	-0.000080	0.112443
H55	H	0.762931	-0.000069	0.124967
H56	H	0.820330	0.059602	0.200632
H57	H	0.820320	-0.059755	0.200636
H58	H	0.887583	0.059608	0.075616
H59	H	0.887568	-0.059760	0.075599
H60	H	1.203437	-0.000123	0.454903
H61	H	0.635175	-0.000130	0.023152
H62	H	0.347419	-0.000137	0.028593
C63	C	0.631854	-0.000057	-0.368093
C64	C	0.580490	-0.000079	-0.295437
H65	H	0.593019	-0.000046	-0.422784
H66	H	0.668685	-0.059726	-0.365397
H67	H	0.668682	0.059630	-0.365378
H68	H	0.543666	-0.059770	-0.298149
H69	H	0.543643	0.059597	-0.298134
H70	H	0.516682	-0.000126	0.025399
H71	H	0.804443	-0.000100	0.019958
H72	H	1.200238	-0.000107	0.624165
H73	H	0.478296	-0.000083	-0.270239
H74	H	0.904606	-0.000085	0.585780
C75	C	1.238332	0.087836	0.103855
C76	C	1.232337	-0.000133	0.156857
H77	H	1.294218	0.087826	0.079375
H78	H	1.234266	0.147505	0.139812
H79	H	1.190583	0.087827	0.056422
H80	H	1.280082	-0.000120	0.204294
H81	H	1.236412	-0.059816	0.120899
H82	H	0.309033	-0.000111	-0.267039
H83	H	0.907800	-0.000069	0.416517
H84	H	0.910047	-0.000067	0.298024
