data_functionalizedCrystal
_audit_creation_method	'MofGen! by Chris Wilmer'
_symmetry_space_group_name_H-M	'P1'
_symmetry_Int_Tables_number	1
_symmetry_cell_setting	triclinic
loop_
_symmetry_equiv_pos_as_xyz
  x,y,z
_cell_length_a	14.446369
_cell_length_b	14.446369
_cell_length_c	14.446369
_cell_angle_alpha	60.001874
_cell_angle_beta	90.002026
_cell_angle_gamma	60.000221
loop_
_atom_site_label
_atom_site_type_symbol
_atom_site_fract_x
_atom_site_fract_y
_atom_site_fract_z
Zr1	Zr	0.891804	1.013153	-0.121446
O2	O	0.744002	1.206266	-0.269253
O3	O	0.937109	0.820040	-0.076134
O4	O	0.937116	1.013143	-0.269245
O5	O	0.743995	1.013172	0.076187
O6	O	1.089453	1.013134	-0.269240
O7	O	0.743995	1.013164	-0.076142
O8	O	1.089441	0.667710	0.076201
O9	O	0.744007	1.358597	-0.269254
O10	O	1.070124	0.899464	-0.056806
O11	O	0.956437	0.899477	0.056871
O12	O	0.956445	1.126830	-0.170492
O13	O	0.842757	1.126842	-0.056815
Zr14	Zr	1.134764	1.013153	0.121510
Zr15	Zr	1.134765	1.013140	-0.121437
Zr16	Zr	0.891804	1.013167	0.121501
Zr17	Zr	0.891812	1.256103	-0.121447
Zr18	Zr	1.134756	0.770203	0.121511
O19	O	1.089459	1.206266	0.076198
O20	O	1.089460	1.206247	-0.269241
O21	O	0.744001	1.206285	0.076186
O22	O	1.282567	0.820040	0.269318
O23	O	1.282567	0.820021	-0.076121
O24	O	0.937109	0.820059	0.269305
O25	O	1.282574	1.013134	-0.076122
O26	O	1.089452	1.013164	0.269310
O27	O	0.937115	1.013172	0.269304
O28	O	1.282574	1.013143	0.076206
O29	O	0.937128	1.358586	-0.269247
O30	O	1.089441	0.667720	0.269311
O31	O	1.282562	0.667710	0.269318
O32	O	1.282562	0.667699	0.076208
O33	O	0.744006	1.358608	-0.076144
O34	O	0.937127	1.358597	-0.076137
O35	O	1.070124	0.899477	0.170557
O36	O	1.183812	0.899464	0.056880
O37	O	1.070132	1.126830	-0.056807
O38	O	0.956444	1.126842	0.056870
C39	C	1.013274	0.709260	0.000034
C40	C	1.013271	0.606121	0.000034
C41	C	0.709378	1.013170	0.000021
C42	C	0.606235	1.013176	0.000017
C43	C	0.941563	0.566840	0.071740
C44	C	0.941892	0.459205	0.072120
C45	C	1.136859	0.371400	0.051956
C46	C	1.136450	0.478646	0.052501
C47	C	0.962418	0.653837	-0.123639
C48	C	0.959939	0.547664	-0.123455
C49	C	0.387871	1.156560	-0.071324
C50	C	0.495103	1.156657	-0.071725
C51	C	0.602909	0.941943	-0.052281
C52	C	0.495141	0.942854	-0.052804
C53	C	0.496504	0.939910	0.123747
C54	C	0.602473	0.942613	0.123552
C55	C	1.317190	1.013137	0.000043
C56	C	1.420333	1.013131	0.000047
C57	C	1.013285	1.013137	-0.303857
C58	C	1.013285	1.013131	-0.406995
C59	C	1.013294	1.317047	0.000031
C60	C	1.013298	1.420185	0.000030
C61	C	1.085340	0.869747	-0.481974
C62	C	1.085028	0.869650	-0.374645
C63	C	0.889757	1.084363	-0.481559
C64	C	0.890152	1.083453	-0.588418
C65	C	1.063759	1.086396	-0.589985
C66	C	1.066259	1.083694	-0.481314
C67	C	1.013284	1.013170	0.303921
C68	C	1.013284	1.013176	0.407059
C69	C	1.317180	0.709243	0.000045
C70	C	1.420320	0.606099	0.000049
C71	C	1.013274	0.709276	0.303923
C72	C	1.013270	0.606143	0.407061
C73	C	1.317180	0.709260	0.303934
C74	C	1.420319	0.606121	0.407076
C75	C	0.709389	1.317047	-0.303870
C76	C	0.606249	1.420185	-0.407012
C77	C	0.709388	1.317063	0.000019
C78	C	0.606249	1.420208	0.000015
C79	C	1.013295	1.317030	-0.303859
C80	C	1.013298	1.420163	-0.406997
C81	C	1.638684	0.459782	0.071382
C82	C	1.531455	0.566707	0.071788
C83	C	1.423644	0.479247	0.052346
C84	C	1.531409	0.371867	0.052864
C85	C	1.530042	0.546831	-0.123688
C86	C	1.424077	0.655305	-0.123488
C87	C	0.941216	0.459838	0.482041
C88	C	0.941524	0.566755	0.374712
C89	C	1.136799	0.479288	0.481620
C90	C	1.136408	0.371916	0.588479
C91	C	0.962807	0.546893	0.590058
C92	C	0.960303	0.655359	0.481386
C93	C	1.495301	0.459791	0.625436
C94	C	1.387970	0.566732	0.518206
C95	C	1.494859	0.479272	0.410390
C96	C	1.601720	0.371878	0.518158
C97	C	1.603340	0.546816	0.516818
C98	C	1.494666	0.655306	0.410850
H99	H	0.850346	0.655552	0.037130
H100	H	1.344919	0.687431	-0.181136
H101	H	1.333711	0.656076	0.519828
H102	H	1.424600	0.745789	-0.162554
N103	N	1.492212	0.509102	0.696923
H104	H	1.562716	0.506243	0.708967
H105	H	1.488781	0.451882	0.772687
N106	N	1.534657	0.517101	0.192648
H107	H	1.534222	0.576722	0.210246
H108	H	1.605816	0.425586	0.245807
N109	N	1.022601	0.697913	0.515195
H110	H	1.018203	0.771622	0.444910
H111	H	1.104608	0.621546	0.560526
N112	N	1.316696	0.517144	0.521420
H113	H	1.293670	0.496354	0.591436
H114	H	1.362131	0.435395	0.523240
H115	H	0.976528	0.530975	0.162428
H116	H	1.443272	0.745763	0.411416
N117	N	1.496112	0.332174	-0.011536
H118	H	1.451558	0.296937	0.026123
H119	H	1.565827	0.262217	-0.011684
H120	H	1.692642	0.497017	0.036481
N121	N	1.598180	0.251711	0.173449
H122	H	1.557463	0.268853	0.225768
H123	H	1.676033	0.230573	0.195729
N124	N	1.493677	0.514015	-0.194472
H125	H	1.449002	0.477740	-0.159472
H126	H	1.562961	0.446595	-0.197494
H127	H	1.421510	0.440694	0.142509
N128	N	0.821376	0.507619	0.026064
H129	H	0.811549	0.508382	-0.043588
H130	H	0.767668	0.599196	0.005406
N131	N	0.988664	0.341376	0.192958
H132	H	1.009154	0.359232	0.246184
H133	H	1.058537	0.262845	0.202776
N134	N	1.608808	0.599215	0.583083
H135	H	1.538639	0.691179	0.545714
H136	H	1.678242	0.600099	0.584770
H137	H	1.520194	0.687426	0.331699
N138	N	1.210753	0.333633	-0.013928
H139	H	1.164734	0.347817	-0.078222
H140	H	1.276570	0.238364	0.038037
N141	N	0.835859	1.018825	-0.413213
H142	H	0.814817	0.985505	-0.450512
H143	H	0.765444	1.084100	-0.409381
H144	H	1.345377	0.501494	0.002867
H145	H	0.850562	0.656105	0.320441
N146	N	0.839754	0.775230	0.413299
H147	H	0.786696	0.757134	0.451789
H148	H	0.819609	0.797531	0.334636
N149	N	1.533632	0.685028	0.025365
H150	H	1.533323	0.702717	0.084774
H151	H	1.464634	0.763532	-0.044239
N152	N	0.820414	0.509166	0.478935
H153	H	0.811222	0.506325	0.549429
H154	H	0.801869	0.451941	0.475510
H155	H	0.872776	0.747424	-0.167052
N156	N	1.596290	0.599247	-0.181567
H157	H	1.676362	0.541418	-0.128182
H158	H	1.558828	0.691216	-0.203351
N159	N	1.182429	1.025606	-0.595436
H160	H	1.204673	0.949978	-0.599880
H161	H	1.236934	0.992884	-0.525248
H162	H	0.975899	0.370173	0.481008
N163	N	0.315080	1.230753	-0.191479
H164	H	0.303036	1.171861	-0.199880
H165	H	0.354168	1.260478	-0.245518
N166	N	1.493900	0.341044	0.698249
H167	H	1.564835	0.261703	0.710299
H168	H	1.425082	0.355801	0.659185
H169	H	1.192820	0.501533	0.508852
N170	N	1.706944	0.513970	0.480464
H171	H	1.777443	0.446499	0.549699
H172	H	1.704496	0.595758	0.431535
H173	H	1.011508	1.192067	-0.668186
H174	H	0.446482	0.985806	0.167436
N175	N	1.601353	0.251672	0.584835
H176	H	1.531912	0.268808	0.544084
H177	H	1.600239	0.230392	0.662727
N178	N	1.705817	0.332173	0.482871
H179	H	1.682148	0.384444	0.397443
H180	H	1.750257	0.235795	0.515929
H181	H	0.976536	0.529285	0.320928
N182	N	1.189929	0.251697	0.588130
H183	H	1.213552	0.268813	0.518698
H184	H	1.133308	0.230429	0.587012
N185	N	1.211396	0.332208	0.692583
H186	H	1.181522	0.410840	0.694586
H187	H	1.291169	0.296936	0.690108
N188	N	1.190704	0.428204	0.413269
H189	H	1.144328	0.406772	0.386585
H190	H	1.270167	0.346606	0.462041
N191	N	1.190340	0.424596	0.173028
H192	H	1.214135	0.331466	0.225305
H193	H	1.133864	0.479890	0.195657
N194	N	1.031996	0.514072	0.693656
H195	H	1.095720	0.417670	0.742292
H196	H	0.981869	0.535765	0.738569
N197	N	0.844135	0.599321	0.595504
H198	H	0.813374	0.680562	0.593494
H199	H	0.845805	0.530692	0.668115
N200	N	1.211104	0.508121	-0.012238
H201	H	1.244137	0.451450	-0.040999
H202	H	1.274523	0.489287	0.039537
H203	H	1.006843	0.526476	-0.181293
N204	N	1.206142	0.795167	-0.478867
H205	H	1.224767	0.715966	-0.475482
H206	H	1.259181	0.766031	-0.409680
H207	H	1.522098	0.501516	0.332131
H208	H	0.605046	0.991412	-0.142443
H209	H	1.693667	0.370119	0.162080
N210	N	0.532857	0.799953	0.194526
H211	H	0.618327	0.738705	0.223096
H212	H	0.500104	0.784115	0.146695
H213	H	0.833738	1.189860	-0.508793
N214	N	1.191134	0.248970	0.171327
H215	H	1.144982	0.268416	0.219669
H216	H	1.270615	0.218395	0.203918
H217	H	0.601957	0.994550	0.162621
N218	N	0.839357	0.599929	-0.174859
H219	H	0.793206	0.621075	-0.127136
H220	H	0.838689	0.531759	-0.177601
N221	N	1.031262	0.688611	-0.194738
H222	H	1.095074	0.673563	-0.147132
H223	H	0.980947	0.783696	-0.261232
H224	H	1.443236	0.440735	0.408242
H225	H	1.175990	0.813763	-0.320368
N226	N	1.039397	0.795552	-0.480612
H227	H	0.957986	0.841256	-0.483108
H228	H	1.086233	0.703531	-0.409052
N229	N	0.492996	1.230641	-0.025224
H230	H	0.422237	1.263491	-0.004286
H231	H	0.493373	1.307369	-0.084632
H232	H	0.333917	1.212854	-0.036421
H233	H	0.492659	1.212880	-0.162974
H234	H	0.444798	0.993468	-0.143830
H235	H	0.521791	0.837622	-0.004182
N236	N	1.038647	0.795156	-0.303405
H237	H	0.958730	0.838670	-0.348798
H238	H	1.038329	0.794792	-0.233314
N239	N	0.706577	0.802202	0.013248
H240	H	0.756816	0.783681	0.077620
H241	H	0.749732	0.788656	-0.038903
H242	H	0.849743	1.032838	-0.588150
N243	N	0.707323	0.803954	0.199918
H244	H	0.776638	0.804925	0.203348
H245	H	0.712965	0.752983	0.168881
H246	H	0.833542	1.188685	-0.667000
N247	N	1.186813	1.014893	-0.413211
H248	H	1.207038	0.938338	-0.334543
H249	H	1.194217	1.078114	-0.407849
N250	N	1.003981	1.222348	-0.515115
H251	H	0.940255	1.241475	-0.482591
H252	H	0.971831	1.285164	-0.600503
