data_functionalizedCrystal
_audit_creation_method	'MofGen! by Chris Wilmer'
_symmetry_space_group_name_H-M	'P1'
_symmetry_Int_Tables_number	1
_symmetry_cell_setting	triclinic
loop_
_symmetry_equiv_pos_as_xyz
  x,y,z
_cell_length_a	18.266242
_cell_length_b	19.188931
_cell_length_c	15.538191
_cell_angle_alpha	65.208618
_cell_angle_beta	90.004634
_cell_angle_gamma	90.007899
loop_
_atom_site_label
_atom_site_type_symbol
_atom_site_fract_x
_atom_site_fract_y
_atom_site_fract_z
O1	O	-0.060850	-0.896579	-0.117733
O2	O	0.439150	-0.396579	0.382267
O3	O	-0.060856	-0.689287	-0.133581
O4	O	0.439144	-0.189287	0.366419
O5	O	-0.060855	-0.833284	0.011638
O6	O	0.439145	-0.333284	0.511638
O7	O	-0.060850	-0.752582	-0.262953
O8	O	0.439150	-0.252582	0.237047
O9	O	0.060907	-0.833267	0.011646
O10	O	0.560907	-0.333267	0.511646
O11	O	0.060906	-0.689270	-0.133574
O12	O	0.560906	-0.189270	0.366426
O13	O	0.060912	-0.896562	-0.117726
O14	O	0.560912	-0.396562	0.382274
Zn15	Zn	0.080242	-0.792913	-0.125649
Zn16	Zn	0.580242	-0.292913	0.374351
Zn17	Zn	-0.080185	-0.792936	-0.125658
Zn18	Zn	0.419815	-0.292936	0.374342
O19	O	0.060912	-0.752565	-0.262945
O20	O	0.560912	-0.252565	0.237055
C21	C	0.000024	-0.663397	-0.133064
C22	C	0.500024	-0.163397	0.366936
C23	C	0.000022	-0.586279	-0.131523
C24	C	0.500022	-0.086279	0.368477
C25	C	-0.066343	-0.035795	-0.120529
C26	C	0.433657	0.464205	0.379471
C27	C	-0.066346	-0.108257	-0.121971
C28	C	0.433654	0.391743	0.378029
C29	C	0.000026	-0.144483	-0.122693
C30	C	0.500026	0.355517	0.377307
C31	C	0.066406	-0.108248	-0.121948
C32	C	0.566406	0.391752	0.378052
C33	C	0.066407	-0.035791	-0.120496
C34	C	0.566407	0.464209	0.379504
N35	N	0.049431	-0.239446	-0.178629
N36	N	0.549431	0.260554	0.321371
N37	N	0.049426	-0.308276	-0.180010
N38	N	0.549426	0.191724	0.319990
C39	C	0.000027	-0.362793	-0.127064
C40	C	0.500027	0.137207	0.372936
N41	N	-0.049376	-0.345875	-0.072698
N42	N	0.450624	0.154125	0.427302
N43	N	-0.049373	-0.277036	-0.071321
N44	N	0.450627	0.222964	0.428679
C45	C	0.000032	-0.223051	-0.124266
C46	C	0.500032	0.276949	0.375734
C47	C	-0.066351	-0.477593	-0.129366
C48	C	0.433649	0.022407	0.370634
C49	C	-0.066351	-0.550058	-0.130803
C50	C	0.433649	-0.050058	0.369197
C51	C	0.066403	-0.550045	-0.130789
C52	C	0.566403	-0.050045	0.369211
C53	C	0.066401	-0.477584	-0.129343
C54	C	0.566401	0.022416	0.370657
C55	C	0.000022	-0.441361	-0.128636
C56	C	0.500022	0.058639	0.371364
N57	N	0.189729	-0.792903	-0.125642
N58	N	0.689729	-0.292903	0.374358
C59	C	0.228038	-0.856672	-0.061370
C60	C	0.728038	-0.356672	0.438630
C61	C	0.304683	-0.856677	-0.061366
C62	C	0.804683	-0.356677	0.438634
C63	C	0.343015	-0.792916	-0.125650
C64	C	0.843015	-0.292916	0.374350
C65	C	0.304697	-0.729136	-0.189926
C66	C	0.804697	-0.229136	0.310074
C67	C	0.228054	-0.729130	-0.189922
C68	C	0.728054	-0.229130	0.310078
N69	N	0.463349	-0.762873	-0.209127
N70	N	0.963349	-0.262873	0.290873
N71	N	0.536157	-0.762884	-0.209128
N72	N	1.036157	-0.262884	0.290872
C73	C	0.573938	-0.792930	-0.125664
C74	C	1.073938	-0.292930	0.374336
N75	N	0.536160	-0.822980	-0.042197
N76	N	1.036160	-0.322980	0.457803
N77	N	0.463345	-0.822972	-0.042197
N78	N	0.963345	-0.322972	0.457803
C79	C	0.426122	-0.792915	-0.125661
C80	C	0.926122	-0.292915	0.374339
C81	C	0.695354	-0.856709	-0.061383
C82	C	1.195354	-0.356709	0.438617
C83	C	0.772001	-0.856710	-0.061377
C84	C	1.272001	-0.356710	0.438623
C85	C	0.772013	-0.729170	-0.189945
C86	C	1.272013	-0.229170	0.310055
C87	C	0.695369	-0.729168	-0.189943
C88	C	1.195369	-0.229168	0.310057
C89	C	0.657044	-0.792941	-0.125662
C90	C	1.157044	-0.292941	0.374338
N91	N	0.810328	-0.792947	-0.125660
N92	N	1.310328	-0.292947	0.374340
C93	C	0.000024	-0.841719	0.046772
C94	C	0.500024	-0.341719	0.546772
C95	C	0.000017	-0.866869	0.151450
C96	C	0.500017	-0.366869	0.651450
C97	C	0.000030	0.077548	-0.118244
C98	C	0.500030	0.577548	0.381756
C99	C	0.000028	0.000432	-0.119789
C100	C	0.500028	0.500432	0.380211
C101	C	0.000031	-0.744130	-0.298079
C102	C	0.500031	-0.244130	0.201921
C103	C	0.000033	-0.718979	-0.402757
C104	C	0.500033	-0.218979	0.097243
C105	C	0.000026	-0.617005	0.438212
C106	C	0.500026	-0.117005	0.938212
C107	C	0.000028	-0.640656	0.536575
C108	C	0.500028	-0.140656	1.036575
C109	C	0.000032	-0.773684	0.559565
C110	C	0.500032	-0.273684	1.059565
C111	C	0.000026	-0.750044	0.461202
C112	C	0.500026	-0.250044	0.961202
C113	C	0.000023	-0.671704	0.400533
C114	C	0.500023	-0.171704	0.900533
C115	C	0.000024	-0.804743	0.423523
C116	C	0.500024	-0.304743	0.923523
C117	C	0.000021	-0.781106	0.325168
C118	C	0.500021	-0.281106	0.825168
C119	C	0.000021	-0.702769	0.264493
C120	C	0.500021	-0.202769	0.764493
C121	C	0.000021	-0.648066	0.302178
C122	C	0.500021	-0.148066	0.802178
C123	C	0.000031	-0.883083	0.484194
C124	C	0.500031	-0.383083	0.984194
C125	C	0.000029	-0.937782	0.446515
C126	C	0.500029	-0.437782	0.946515
C127	C	0.000021	-0.914145	0.348159
C128	C	0.500021	-0.414145	0.848159
C129	C	0.000022	-0.835808	0.287483
C130	C	0.500022	-0.335808	0.787483
C131	C	0.000022	-0.968847	0.310474
C132	C	0.500022	-0.468847	0.810474
C133	C	0.000019	-0.945210	0.212119
C134	C	0.500019	-0.445210	0.712119
C135	C	0.000019	-0.812170	0.189129
C136	C	0.500019	-0.312170	0.689129
H137	H	0.120456	-0.006294	-0.119897
H138	H	0.620456	0.493706	0.380103
O139	O	0.000036	-0.858177	0.625002
O140	O	0.500036	-0.358177	1.125002
H141	H	0.000035	-0.865426	0.699725
H142	H	0.500035	-0.365426	1.199725
O143	O	0.000030	-1.022274	0.511957
O144	O	0.500030	-0.522274	1.011957
H145	H	0.049660	-1.049626	0.498593
H146	H	0.549660	-0.549626	0.998593
H147	H	0.000040	-0.596107	0.567247
H148	H	0.500040	-0.096107	1.067247
H149	H	0.000012	-0.748378	0.139727
H150	H	0.500012	-0.248378	0.639727
O151	O	0.000033	-1.053339	0.375919
O152	O	0.500033	-0.553339	0.875919
H153	H	0.000038	-1.087405	0.333194
H154	H	0.500038	-0.587405	0.833194
O155	O	-0.137933	-0.147349	-0.122760
O156	O	0.362067	0.352651	0.377240
H157	H	-0.141098	-0.157860	-0.187673
H158	H	0.358902	0.342140	0.312327
H159	H	0.196861	-0.677200	-0.242261
H160	H	0.696861	-0.177200	0.257739
H161	H	0.120447	-0.137749	-0.122534
H162	H	0.620447	0.362251	0.377466
H163	H	-0.120401	-0.448099	-0.128788
H164	H	0.379599	0.051901	0.371212
O165	O	0.813338	-0.660403	-0.259312
O166	O	1.313338	-0.160403	0.240688
H167	H	0.798650	-0.608966	-0.247496
H168	H	1.298650	-0.108966	0.252504
H169	H	0.000026	-0.902326	0.564280
H170	H	0.500026	-0.402326	1.064280
H171	H	0.000018	-0.553213	0.388810
H172	H	0.500018	-0.053213	0.888810
O173	O	0.654041	-0.660394	-0.259275
O174	O	1.154041	-0.160394	0.240725
H175	H	0.693570	-0.616058	-0.303982
H176	H	1.193570	-0.116058	0.196018
H177	H	0.000019	-0.989751	0.181441
H178	H	0.500019	-0.489751	0.681441
O179	O	0.654009	-0.925482	0.007955
O180	O	1.154009	-0.425482	0.507955
H181	H	0.693528	-0.969822	0.052661
H182	H	1.193528	-0.469822	0.552661
H183	H	-0.120401	-0.579556	-0.131398
H184	H	0.379599	-0.079556	0.368602
O185	O	0.137994	-0.589103	-0.131571
O186	O	0.637994	-0.089103	0.368429
H187	H	0.126844	-0.645573	-0.132710
H188	H	0.626844	-0.145573	0.367290
H189	H	0.335911	-0.677220	-0.242265
H190	H	0.835911	-0.177220	0.257735
O191	O	0.813326	-0.925497	0.007937
O192	O	1.313326	-0.425497	0.507937
H193	H	0.773797	-0.969842	0.052623
H194	H	1.273797	-0.469842	0.552623
H195	H	0.000024	-0.683525	0.184407
H196	H	0.500024	-0.183525	0.684407
H197	H	0.000014	-0.584274	0.252777
H198	H	0.500014	-0.084274	0.752777
H199	H	-0.120395	-0.006308	-0.119949
H200	H	0.379605	0.493692	0.380051
H201	H	0.120448	-0.448086	-0.128744
H202	H	0.620448	0.051914	0.371256
H203	H	0.196836	-0.908599	-0.009027
H204	H	0.696836	-0.408599	0.490973
H205	H	0.335880	-0.908607	-0.009027
H206	H	0.835880	-0.408607	0.490973
