data_functionalizedCrystal
_audit_creation_method	'MofGen! by Chris Wilmer'
_symmetry_space_group_name_H-M	'P1'
_symmetry_Int_Tables_number	1
_symmetry_cell_setting	triclinic
loop_
_symmetry_equiv_pos_as_xyz
  x,y,z
_cell_length_a	10.723023
_cell_length_b	15.995292
_cell_length_c	9.798715
_cell_angle_alpha	90.000595
_cell_angle_beta	89.996215
_cell_angle_gamma	83.968082
loop_
_atom_site_label
_atom_site_type_symbol
_atom_site_fract_x
_atom_site_fract_y
_atom_site_fract_z
O1	O	1.655654	0.117434	-0.113466
O2	O	1.292355	0.128676	-0.113471
O3	O	1.483973	0.001221	-0.113471
O4	O	1.464036	0.244888	-0.113467
O5	O	1.483957	0.001222	0.113511
O6	O	1.292338	0.128677	0.113511
O7	O	1.655638	0.117435	0.113516
Zn8	Zn	1.473986	0.123056	0.149552
Zn9	Zn	1.474007	0.123054	-0.149507
O10	O	1.464019	0.244890	0.113515
C11	C	1.245858	0.127858	0.000019
C12	C	1.107335	0.125411	0.000017
C13	C	1.045569	0.124320	0.117599
C14	C	0.902399	0.121791	0.117600
C15	C	1.483154	-0.029979	0.000017
C16	C	1.480721	-0.122946	0.000007
C17	C	1.471778	-0.460735	0.000019
C18	C	1.610083	-0.436629	0.000528
C19	C	1.612711	-0.339938	0.000011
C20	C	1.476215	-0.293154	0.000014
C21	C	1.407079	-0.322653	-0.129601
C22	C	1.405414	-0.419453	-0.129705
C23	C	1.402571	-0.419325	0.128417
C24	C	1.407696	-0.322803	0.130125
C25	C	1.478716	-0.198444	0.000006
C26	C	1.469273	-0.555446	0.000017
C27	C	1.702135	0.118252	0.000022
C28	C	1.840657	0.120700	0.000016
C29	C	1.464839	0.276089	0.000025
C30	C	1.467272	0.369056	0.000026
N31	N	1.473980	0.123057	0.353651
C32	C	1.554438	0.069307	0.421428
C33	C	1.554456	0.069305	0.578591
N34	N	1.474013	0.123054	0.646393
H35	H	1.098683	0.125255	0.218266
H36	H	1.667191	-0.321221	-0.093063
N37	N	1.676954	-0.471361	0.117138
N38	N	1.638826	-0.451666	0.234531
H39	H	1.686054	-0.476201	0.316892
N40	N	1.640699	0.011517	0.348210
N41	N	1.638550	-0.065859	0.364066
H42	H	1.699422	-0.106695	0.312327
H43	H	1.663102	-0.465343	-0.091902
N44	N	1.456890	-0.454465	0.251668
N45	N	1.458044	-0.531421	0.274551
H46	H	1.496416	-0.556241	0.361593
N47	N	1.282710	-0.282173	0.140026
N48	N	1.250740	-0.237827	0.241719
H49	H	1.162464	-0.209133	0.248723
H50	H	1.458038	-0.303948	0.226013
N51	N	1.040737	0.124242	-0.126288
N52	N	1.098733	0.125269	-0.236835
H53	H	1.051702	0.124444	-0.326043
N54	N	0.907293	0.121863	-0.126272
N55	N	0.991473	0.064225	-0.153770
H56	H	1.038544	0.065044	-0.242961
H57	H	1.304008	-0.434585	-0.135576
N58	N	0.835796	0.120606	0.243905
N59	N	0.893781	0.121627	0.354451
H60	H	0.846742	0.120789	0.443660
N61	N	1.640864	0.011577	0.651720
N62	N	1.640753	0.011654	0.779285
H63	H	1.701777	-0.029120	0.830937
H64	H	1.405131	0.169077	0.588117
N65	N	1.387560	0.180774	0.426806
N66	N	1.310061	0.153833	0.506576
H67	H	1.249022	0.194597	0.558240
H68	H	1.453308	-0.445995	-0.226596
N69	N	1.680638	-0.315688	0.116571
N70	N	1.726433	-0.370224	0.198870
H71	H	1.774415	-0.353103	0.281192
N72	N	1.281075	-0.283398	-0.135633
N73	N	1.240729	-0.233121	-0.044254
H74	H	1.151738	-0.205395	-0.048510
H75	H	1.455103	-0.302317	-0.226061
N76	N	1.274862	-0.437610	0.129499
N77	N	1.234843	-0.480938	0.036219
H78	H	1.144651	-0.493856	0.036972
