data_functionalizedCrystal
_audit_creation_method	'MofGen! by Chris Wilmer'
_symmetry_space_group_name_H-M	'P1'
_symmetry_Int_Tables_number	1
_symmetry_cell_setting	triclinic
loop_
_symmetry_equiv_pos_as_xyz
  x,y,z
_cell_length_a	15.995300
_cell_length_b	15.995292
_cell_length_c	12.503572
_cell_angle_alpha	93.525692
_cell_angle_beta	86.480794
_cell_angle_gamma	83.470212
loop_
_atom_site_label
_atom_site_type_symbol
_atom_site_fract_x
_atom_site_fract_y
_atom_site_fract_z
O1	O	1.115821	0.102882	-0.089353
O2	O	0.872036	0.116255	-0.089345
O3	O	1.000618	-0.012324	-0.089351
O4	O	0.987239	0.231461	-0.089347
O5	O	0.990948	-0.002638	0.089291
O6	O	0.862366	0.125940	0.089297
O7	O	1.106150	0.112568	0.089290
Cu8	Cu	0.983375	0.120139	0.105605
Cu9	Cu	0.994811	0.108684	-0.105661
O10	O	0.977569	0.241147	0.089295
C11	C	0.836006	0.120552	-0.000023
C12	C	0.743053	0.118917	-0.000021
C13	C	0.572871	0.115897	-0.000029
C14	C	0.525386	0.207448	-0.000025
C15	C	0.428721	0.205755	-0.000434
C16	C	0.405316	0.112925	-0.000036
C17	C	0.451969	0.061983	-0.101849
C18	C	0.548607	0.064295	-0.101932
C19	C	0.537889	0.073955	0.101225
C20	C	0.440872	0.074036	0.102560
C21	C	0.310621	0.111240	-0.000044
C22	C	0.667567	0.117579	-0.000029
C23	C	0.995238	-0.038677	-0.000032
C24	C	0.993606	-0.131630	-0.000040
C25	C	0.987605	-0.469367	-0.000030
C26	C	1.080390	-0.446049	0.000366
C27	C	1.082176	-0.349396	-0.000041
C28	C	0.990583	-0.301811	-0.000035
C29	C	0.949706	-0.336435	-0.102044
C30	C	0.948593	-0.433230	-0.102125
C31	C	0.935701	-0.422072	0.101025
C32	C	0.939067	-0.325507	0.102369
C33	C	0.992261	-0.207116	-0.000041
C34	C	0.985924	-0.564062	-0.000032
C35	C	1.142181	0.108270	-0.000035
C36	C	1.235134	0.109905	-0.000044
C37	C	0.982948	0.267499	-0.000026
C38	C	0.984581	0.360452	-0.000025
N39	N	0.975338	0.128195	0.254197
N40	N	1.002855	0.100621	-0.254253
C41	C	0.963515	0.140053	0.473313
C42	C	1.014676	0.088766	0.526638
C43	C	1.008097	0.095364	0.648562
C44	C	0.970092	0.133456	0.351379
H45	H	0.569631	0.006509	0.102203
H46	H	0.425199	0.006690	0.109008
H47	H	0.914777	0.188913	0.519223
H48	H	1.122694	-0.334970	-0.073295
H49	H	0.396300	0.245402	0.072534
H50	H	0.984855	-0.464186	-0.178383
H51	H	1.119901	-0.479018	-0.072381
Br52	Br	0.835600	-0.457885	-0.109841
Br53	Br	0.827080	-0.269981	0.112649
H54	H	0.571054	0.092889	-0.178326
Br55	Br	0.821780	-0.445306	0.102180
H56	H	1.063418	0.039904	0.480723
Br57	Br	0.977115	-0.462261	0.229894
H58	H	0.548934	0.239739	-0.072925
Br59	Br	0.550216	0.275595	0.121122
Br60	Br	0.837710	-0.283642	-0.108369
Br61	Br	1.133418	-0.486109	0.122299
Br62	Br	0.388909	0.258350	-0.122787
Br63	Br	0.602818	-0.048142	-0.109176
H64	H	0.968768	-0.302856	0.177834
Br65	Br	0.428813	-0.052049	-0.107692
Br66	Br	0.411600	0.107085	-0.228615
H67	H	0.409448	0.111289	0.177883
H68	H	0.554204	0.108281	0.178418
H69	H	1.114556	-0.326413	0.073081
H70	H	0.986036	-0.320496	-0.177962
