data_functionalizedCrystal
_audit_creation_method	'MofGen! by Chris Wilmer'
_symmetry_space_group_name_H-M	'P1'
_symmetry_Int_Tables_number	1
_symmetry_cell_setting	triclinic
loop_
_symmetry_equiv_pos_as_xyz
  x,y,z
_cell_length_a	17.917603
_cell_length_b	14.560432
_cell_length_c	14.560432
_cell_angle_alpha	90.001358
_cell_angle_beta	57.012465
_cell_angle_gamma	63.033953
loop_
_atom_site_label
_atom_site_type_symbol
_atom_site_fract_x
_atom_site_fract_y
_atom_site_fract_z
Zr1	Zr	0.818606	0.930613	-0.166349
O2	O	0.974632	0.792701	-0.321737
O3	O	0.662579	0.966831	-0.112655
O4	O	0.818601	0.975569	-0.312993
O5	O	0.818613	0.783964	0.029739
O6	O	0.818598	1.126710	-0.312989
O7	O	0.818610	0.783964	-0.121398
O8	O	0.539503	1.111081	0.045379
O9	O	1.097708	0.799593	-0.328630
O10	O	0.726753	1.102394	-0.097073
O11	O	0.726757	0.989599	0.015716
O12	O	0.910454	0.999885	-0.220156
O13	O	0.910458	0.887090	-0.107367
Zr14	Zr	0.818606	1.171666	0.074704
Zr15	Zr	0.818600	1.171666	-0.166343
Zr16	Zr	0.818611	0.930613	0.074698
Zr17	Zr	1.014898	0.941605	-0.177343
Zr18	Zr	0.622313	1.160674	0.085697
O19	O	0.974632	1.135448	0.021010
O20	O	0.974625	1.135447	-0.321728
O21	O	0.974639	0.792701	0.021001
O22	O	0.662579	1.309578	0.230091
O23	O	0.662572	1.309578	-0.112646
O24	O	0.662586	0.966832	0.230083
O25	O	0.818598	1.318315	-0.121385
O26	O	0.818610	1.126710	0.221348
O27	O	0.818613	0.975569	0.221344
O28	O	0.818601	1.318315	0.029753
O29	O	1.097704	0.991198	-0.328625
O30	O	0.539507	1.111081	0.236979
O31	O	0.539503	1.302686	0.236984
O32	O	0.539499	1.302686	0.045384
O33	O	1.097712	0.799593	-0.137029
O34	O	1.097708	0.991198	-0.137025
O35	O	0.726757	1.102394	0.128511
O36	O	0.726753	1.215189	0.015722
O37	O	0.910454	1.112681	-0.107361
O38	O	0.910458	0.999886	0.005428
C39	C	0.573073	1.037390	-0.032071
C40	C	0.489742	1.032724	-0.027404
C41	C	0.818612	1.051140	0.255690
C42	C	0.818614	1.051140	0.358021
C43	C	0.818599	1.352660	-0.045815
C44	C	0.818597	1.454993	-0.045812
C45	C	0.337173	1.024198	-0.018882
C46	C	0.300034	1.078079	-0.072761
C47	C	0.215139	1.073335	-0.068019
C48	C	0.422075	1.028940	-0.023622
C49	C	1.064138	1.064889	-0.059574
C50	C	1.147469	1.069555	-0.064241
C51	C	0.818612	0.749619	-0.045830
C52	C	0.818614	0.647286	-0.045833
C53	C	0.626811	1.562030	0.082699
C54	C	0.530922	1.663622	0.146956
C55	C	0.530926	1.759769	0.146953
C56	C	0.626830	1.754321	0.082684
C57	C	0.722720	1.652730	0.018427
C58	C	0.722705	1.556586	0.018439
C59	C	0.914504	1.545694	-0.110090
C60	C	0.914501	1.449546	-0.110082
C61	C	1.010408	1.540246	-0.174359
C62	C	1.106300	1.438654	-0.238611
C63	C	1.106291	1.342503	-0.238604
C64	C	1.010391	1.347954	-0.174339
C65	C	0.818599	1.051139	-0.347335
C66	C	0.818597	1.051139	-0.449666
C67	C	1.010400	0.944131	0.229538
C68	C	1.106289	0.890632	0.213373
C69	C	1.106285	0.890634	0.309526
C70	C	1.010381	0.944138	0.421852
C71	C	0.914491	0.997638	0.438017
C72	C	0.914506	0.997633	0.341855
C73	C	0.722707	1.104638	0.566498
C74	C	0.722710	1.104644	0.470347
C75	C	0.626803	1.158143	0.678825
C76	C	0.530911	1.211650	0.694991
C77	C	0.530920	1.211647	0.598829
C78	C	0.626820	1.158144	0.486512
C79	C	0.573067	1.338911	-0.032064
C80	C	0.489734	1.436578	-0.027394
C81	C	0.573080	1.037390	0.269441
C82	C	0.489751	1.032724	0.376439
C83	C	0.573073	1.338911	0.269449
C84	C	0.489742	1.436578	0.376449
C85	C	1.064138	0.763368	-0.361094
C86	C	1.147469	0.665701	-0.468095
C87	C	1.064144	0.763368	-0.059581
C88	C	1.147478	0.665702	-0.064251
C89	C	1.064131	1.064889	-0.361087
C90	C	1.147461	1.069555	-0.468084
C91	C	0.450599	1.423565	-0.084089
C92	C	0.372309	1.515325	-0.079725
C93	C	0.333150	1.620096	-0.018658
C94	C	0.372292	1.633107	0.038039
C95	C	0.450586	1.541348	0.033667
C96	C	0.450618	1.089410	0.485574
C97	C	0.372333	1.085022	0.586119
C98	C	0.333175	1.023953	0.577526
C99	C	0.372315	0.967260	0.468379
C100	C	0.450605	0.971642	0.367837
C101	C	0.450606	1.541331	0.367823
C102	C	0.372319	1.633110	0.468351
C103	C	0.333163	1.620132	0.577505
C104	C	0.372306	1.515368	0.586129
C105	C	0.450598	1.423592	0.485601
C106	C	1.186614	0.560948	-0.459469
C107	C	1.264926	0.469171	-0.559998
C108	C	1.304086	0.482149	-0.669152
C109	C	1.264938	0.586913	-0.677776
C110	C	1.186633	0.678688	-0.577248
C111	C	1.186620	0.678715	-0.007567
C112	C	1.264932	0.586956	-0.011959
C113	C	1.304094	0.482185	-0.073029
C114	C	1.264948	0.469174	-0.129721
C115	C	1.186643	0.560932	-0.125335
C116	C	1.186593	1.130634	-0.459454
C117	C	1.264879	1.135040	-0.559980
C118	C	1.304037	1.078360	-0.669135
C119	C	1.264897	1.017279	-0.677763
C120	C	1.186606	1.012880	-0.577238
H121	H	0.331997	1.127770	-0.122450
H122	H	0.269412	1.694871	0.659352
Br123	Br	0.283896	0.941387	0.063941
Br124	Br	0.319161	0.884385	0.456736
Br125	Br	0.400790	1.897647	0.234147
H126	H	0.452834	1.255207	0.612004
H127	H	0.340414	1.504817	0.675015
H128	H	1.367854	0.407479	-0.076591
Br129	Br	0.626839	1.158144	0.356009
H130	H	0.482492	1.139140	0.492593
H131	H	1.296846	0.383857	-0.179444
H132	H	0.452834	1.255203	0.786449
Br133	Br	0.400772	1.671009	0.234168
Br134	Br	0.319209	1.775275	0.456620
Br135	Br	1.318093	0.604508	-0.825923
H136	H	0.482452	1.338300	0.492642
H137	H	0.626806	1.158135	0.757113
Br138	Br	0.226892	1.744615	-0.012736
H139	H	1.154761	0.763980	-0.584285
H140	H	1.184377	1.434230	-0.290940
H141	H	0.482482	1.338264	-0.133831
Br142	Br	0.503735	1.558975	0.219698
Br143	Br	0.319203	1.497642	-0.156673
H144	H	1.154734	0.550360	-0.370599
Br145	Br	1.133516	0.929969	-0.588973
H146	H	0.340397	1.718423	0.087758
H147	H	1.296788	0.383877	-0.552954
H148	H	1.154776	0.550321	-0.171492
H149	H	0.482456	0.925484	0.278978
H150	H	0.482439	1.551958	0.079842
Br151	Br	1.133468	1.207568	-0.311327
H152	H	1.296739	1.184777	-0.552932
H153	H	1.296791	0.971132	-0.766651
Br154	Br	1.133492	0.820893	0.075320
H155	H	1.367847	0.407411	-0.751000
Br156	Br	1.318039	0.604639	0.064990
Br157	Br	0.319229	1.161972	0.734231
H158	H	1.367786	1.081951	-0.750980
Br159	Br	0.626798	1.431548	0.082727
Br160	Br	1.236435	1.204632	-0.325828
Br161	Br	1.010416	1.670732	-0.174377
Br162	Br	0.626835	1.884809	0.082656
Br163	Br	0.226924	1.018017	0.713989
H164	H	1.010375	1.269673	-0.174324
H165	H	1.010413	0.944138	0.151239
H166	H	1.184367	0.847063	0.296359
Br167	Br	1.236439	0.818008	0.060932
H168	H	1.010386	0.944124	0.500139
