data_functionalizedCrystal
_audit_creation_method	'MofGen! by Chris Wilmer'
_symmetry_space_group_name_H-M	'P1'
_symmetry_Int_Tables_number	1
_symmetry_cell_setting	triclinic
loop_
_symmetry_equiv_pos_as_xyz
  x,y,z
_cell_length_a	14.395555
_cell_length_b	20.875641
_cell_length_c	20.875621
_cell_angle_alpha	87.033363
_cell_angle_beta	58.316911
_cell_angle_gamma	57.589249
loop_
_atom_site_label
_atom_site_type_symbol
_atom_site_fract_x
_atom_site_fract_y
_atom_site_fract_z
Zr1	Zr	1.029598	-0.120458	0.613536
O2	O	1.234086	-0.221066	0.507425
O3	O	0.832524	-0.089615	0.646062
O4	O	1.041056	-0.228261	0.640977
O5	O	1.013931	0.026944	0.516525
O6	O	1.041660	-0.233938	0.746328
O7	O	1.025555	-0.082420	0.512511
O8	O	0.668635	0.014074	0.755425
O9	O	1.386956	-0.221067	0.507428
O10	O	0.911288	-0.080700	0.738560
O11	O	0.902163	0.005155	0.662933
O12	O	1.147682	-0.158083	0.656946
O13	O	1.138557	-0.072228	0.581320
Zr14	Zr	1.012023	0.044911	0.787962
Zr15	Zr	1.030561	-0.129513	0.781559
Zr16	Zr	1.011060	0.053965	0.619939
Zr17	Zr	1.273408	-0.120461	0.613541
Zr18	Zr	0.768214	0.044913	0.787957
O19	O	1.209097	0.014067	0.755436
O20	O	1.235456	-0.233940	0.746331
O21	O	1.207727	0.026942	0.516529
O22	O	0.807535	0.145518	0.894073
O23	O	0.833894	-0.102489	0.884969
O24	O	0.806165	0.158393	0.655166
O25	O	1.027690	-0.102492	0.884973
O26	O	1.000565	0.152713	0.760521
O27	O	0.999961	0.158390	0.655170
O28	O	1.016066	0.006872	0.888987
O29	O	1.387721	-0.228265	0.640984
O30	O	0.653900	0.152717	0.760514
O31	O	0.654665	0.145520	0.894070
O32	O	0.669401	0.006877	0.888980
O33	O	1.372220	-0.082424	0.512518
O34	O	1.372986	-0.089621	0.646073
O35	O	0.893939	0.082535	0.744552
O36	O	0.903064	-0.003319	0.820178
O37	O	1.139458	-0.080702	0.738564
O38	O	1.130333	0.005152	0.662938
C39	C	0.715842	-0.037770	0.700743
C40	C	0.612338	-0.037769	0.700741
C41	C	1.019606	-0.026448	0.490578
C42	C	1.019197	-0.022604	0.419248
C43	C	0.997622	0.180403	0.708758
C44	C	0.989752	0.254450	0.711476
C45	C	0.546770	0.009045	0.659508
C46	C	0.569005	-0.066027	0.625623
C47	C	0.405710	0.037281	0.734606
C48	C	0.636004	-0.112884	0.666811
C49	C	0.472640	-0.009522	0.775836
C50	C	0.494927	-0.084642	0.741968
C51	C	1.325779	-0.037777	0.700755
C52	C	1.429283	-0.037779	0.700757
C53	C	1.043999	-0.255951	0.692740
C54	C	1.051869	-0.329998	0.690022
C55	C	1.109447	0.248847	0.670153
C56	C	1.102044	0.318425	0.672704
C57	C	0.974945	0.393606	0.716582
C58	C	0.855242	0.399208	0.757907
C59	C	0.862646	0.329631	0.755351
C60	C	0.939569	0.606027	0.728790
C61	C	0.932174	0.675606	0.731345
C62	C	1.178978	0.594818	0.646140
C63	C	1.186370	0.525243	0.643592
C64	C	1.066667	0.530851	0.684913
N65	N	0.967375	0.464727	0.719193
N66	N	1.074238	0.459731	0.682298
C67	C	1.025412	-0.081049	0.383525
C68	C	1.025021	-0.077434	0.316506
C69	C	1.018424	-0.015375	0.285207
C70	C	1.012204	0.043076	0.320936
C71	C	1.012585	0.039463	0.387958
C72	C	1.016586	0.001894	0.085001
C73	C	1.016209	0.005502	0.017973
C74	C	1.029023	-0.115007	0.013547
C75	C	1.029413	-0.118618	0.080568
C76	C	1.023186	-0.060164	0.116294
N77	N	1.018028	-0.011679	0.216701
N78	N	1.023572	-0.063858	0.184802
C79	C	1.022015	-0.049100	0.910919
C80	C	1.022424	-0.052944	0.982249
C81	C	0.717047	-0.049096	0.910913
C82	C	0.613952	-0.052939	0.982241
C83	C	0.692653	0.180407	0.708752
C84	C	0.581280	0.254455	0.711468
C85	C	0.693858	0.169081	0.918922
C86	C	0.582894	0.239285	0.992968
C87	C	1.347763	-0.244628	0.482575
C88	C	1.458727	-0.314833	0.408529
C89	C	1.324574	-0.026451	0.490584
C90	C	1.427669	-0.022609	0.419257
C91	C	1.348968	-0.255954	0.692746
C92	C	1.460341	-0.330003	0.690030
C93	C	0.569831	-0.095142	0.973133
C94	C	0.472978	-0.098769	1.040146
C95	C	0.420241	-0.060187	1.116267
C96	C	0.464371	-0.017982	1.125373
C97	C	0.561229	-0.014360	1.058361
C98	C	0.524684	0.329628	0.755347
C99	C	0.420050	0.399212	0.757897
C100	C	0.372007	0.393620	0.716570
C101	C	0.428613	0.318439	0.672685
C102	C	0.533252	0.248858	0.670132
C103	C	0.535547	0.227439	1.067224
C104	C	0.431298	0.293397	1.136805
C105	C	0.374392	0.371200	1.132127
C106	C	0.421748	0.383045	1.057863
C107	C	0.526002	0.317088	0.988285
C108	C	1.506086	-0.302986	0.334273
C109	C	1.610365	-0.368944	0.264693
C110	C	1.667276	-0.446748	0.269370
C111	C	1.619914	-0.458593	0.343634
C112	C	1.515643	-0.392636	0.413213
C113	C	1.471801	0.019588	0.428364
C114	C	1.568683	0.023195	0.361350
C115	C	1.621424	-0.015390	0.285230
C116	C	1.577289	-0.057592	0.276124
C117	C	1.480416	-0.061203	0.343136
C118	C	1.508351	-0.324385	0.731365
C119	C	1.612984	-0.393956	0.728829
C120	C	1.669613	-0.469143	0.684952
C121	C	1.621594	-0.474759	0.643615
C122	C	1.516955	-0.405189	0.646157
H123	H	0.569794	0.048580	0.624589
H124	H	0.389480	0.313898	0.639039
Cl125	Cl	0.348905	0.493714	0.813073
H126	H	1.006824	0.093609	0.295452
H127	H	1.754816	-0.525785	0.682889
Cl128	Cl	0.604381	0.154357	0.614969
Cl129	Cl	0.253859	0.135277	0.778816
Cl130	Cl	1.329452	0.587775	0.594194
Cl131	Cl	1.691470	-0.556409	0.349501
H132	H	0.421418	0.013430	1.187359
H133	H	0.563789	0.334197	0.789001
Cl134	Cl	1.456111	-0.407543	0.506560
Cl135	Cl	1.424938	-0.114249	0.331673
H136	H	0.581866	0.164093	1.071048
H137	H	0.597139	0.020011	1.065788
Cl138	Cl	0.240456	0.481102	0.719790
Cl139	Cl	0.712166	0.336677	0.807299
H140	H	1.007522	0.087056	0.417044
H141	H	1.620246	-0.089006	0.214137
H142	H	1.752179	-0.500447	0.212709
Cl143	Cl	0.371781	0.278487	1.230154
Cl144	Cl	1.269237	0.154337	0.614993
H145	H	1.462259	-0.263171	0.767094
Cl146	Cl	1.405523	0.068097	0.524051
Cl147	Cl	0.630335	-0.102928	0.527583
H148	H	0.289502	0.424899	1.188789
Cl149	Cl	0.298471	-0.064745	1.200504
Cl150	Cl	0.350192	0.480861	1.051997
H151	H	1.604600	0.057563	0.368780
H152	H	0.612771	-0.126571	0.911158
Cl153	Cl	1.456626	-0.412265	0.594178
H154	H	0.564538	0.326746	0.927825
Cl155	Cl	1.743205	-0.010840	0.200992
Cl156	Cl	1.252524	0.311377	0.620723
Cl157	Cl	1.434560	-0.205184	0.328372
H158	H	1.652070	-0.389368	0.762489
Cl159	Cl	1.037709	-0.196635	0.119914
H160	H	1.667717	-0.535985	0.607892
H161	H	1.010838	0.056040	-0.007508
Cl162	Cl	0.787790	-0.210924	0.622488
H163	H	0.472197	-0.124287	0.776833
Cl164	Cl	0.411336	0.027406	0.873859
H165	H	1.648909	-0.359284	0.204231
H166	H	0.828670	0.736823	0.767075
Cl167	Cl	0.789084	0.613086	0.780737
Cl168	Cl	1.346158	0.430733	0.588426
H169	H	1.030792	-0.131587	0.409001
Cl170	Cl	0.695459	0.493722	0.813064
H171	H	1.030080	-0.125024	0.287420
H172	H	1.034091	-0.162597	-0.015546
H173	H	1.011520	0.049488	0.114082
H174	H	0.437060	-0.133136	1.032716
