data_functionalizedCrystal
_audit_creation_method	'MofGen! by Chris Wilmer'
_symmetry_space_group_name_H-M	'P1'
_symmetry_Int_Tables_number	1
_symmetry_cell_setting	triclinic
loop_
_symmetry_equiv_pos_as_xyz
  x,y,z
_cell_length_a	12.759401
_cell_length_b	15.299816
_cell_length_c	12.759393
_cell_angle_alpha	99.650111
_cell_angle_beta	89.982620
_cell_angle_gamma	80.350473
loop_
_atom_site_label
_atom_site_type_symbol
_atom_site_fract_x
_atom_site_fract_y
_atom_site_fract_z
Zn1	Zn	1.678530	-0.358995	-0.666396
Zn2	Zn	1.708802	-0.509839	-0.521143
Zn3	Zn	1.502845	-0.359043	-0.490745
Zn4	Zn	1.533180	-0.509769	-0.696770
O5	O	1.605839	-0.434412	-0.593763
O6	O	1.829569	-0.379014	-0.647137
O7	O	1.681454	-0.489885	-0.370099
O8	O	1.500786	-0.232829	-0.488611
O9	O	1.851809	-0.489839	-0.540421
O10	O	1.629861	-0.232794	-0.617661
O11	O	1.530139	-0.379096	-0.347766
O12	O	1.359846	-0.379028	-0.518065
O13	O	1.552488	-0.489719	-0.839752
O14	O	1.382134	-0.489766	-0.669431
O15	O	1.659276	-0.378947	-0.817436
O16	O	1.710869	-0.636038	-0.569874
O17	O	1.581841	-0.635986	-0.698907
C18	C	1.332869	-0.434395	-0.593746
C19	C	1.216095	-0.434410	-0.593768
C20	C	1.172884	-0.492163	-0.672491
C21	C	1.063162	-0.492175	-0.672505
C22	C	1.039872	-0.376677	-0.515062
C23	C	1.149591	-0.376661	-0.515053
C24	C	1.186330	-0.558848	-0.763388
C25	C	1.076608	-0.558859	-0.763401
C26	C	1.652960	-0.668736	-0.641008
C27	C	1.673215	-0.768981	-0.661255
C28	C	1.461766	-1.051927	-0.449415
C29	C	1.442731	-0.957742	-0.430395
C30	C	1.500350	-0.910547	-0.488108
C31	C	1.577008	-0.957547	-0.564845
C32	C	1.596040	-1.051741	-0.583873
C33	C	1.634624	-0.910361	-0.622565
C34	C	1.711282	-0.957361	-0.699302
C35	C	1.730310	-1.051546	-0.718326
C36	C	1.672691	-1.098741	-0.660613
C37	C	1.615592	-0.816167	-0.603538
C38	C	1.749866	-0.815981	-0.737995
C39	C	1.768901	-0.910166	-0.757015
C40	C	1.879876	-0.434429	-0.593782
C41	C	1.996654	-0.434436	-0.593790
C42	C	1.605889	-0.434320	-0.867778
C43	C	1.605910	-0.434281	-0.984547
C44	C	1.558563	-0.199172	-0.546357
C45	C	1.538417	-0.098927	-0.526156
C46	C	1.527147	-0.376582	-1.027784
C47	C	1.527173	-0.376555	-1.137503
C48	C	1.684736	-0.491928	-1.160739
C49	C	1.684705	-0.491959	-1.051023
C50	C	1.436182	-0.309970	-1.014369
C51	C	1.436208	-0.309943	-1.124088
C52	C	1.605837	-0.434438	-0.320801
C53	C	1.605968	-0.434223	-0.203982
H54	H	1.212386	-0.540220	-0.841037
N55	N	1.693214	-1.200330	-0.681117
H56	H	1.625721	-1.223055	-0.704952
H57	H	1.750546	-1.222881	-0.738465
N58	N	1.769649	-0.554201	-1.004394
H59	H	1.841911	-0.540202	-1.020665
H60	H	1.757580	-0.545444	-0.924816
H61	H	1.451988	-0.243631	-0.966972
H62	H	1.792726	-1.089811	-0.780815
N63	N	1.479825	-0.808962	-0.467577
H64	H	1.547317	-0.786240	-0.443729
H65	H	1.455856	-0.786302	-0.535068
N66	N	1.360064	-0.907050	-0.347629
H67	H	1.288309	-0.923486	-0.367198
H68	H	1.379841	-0.923502	-0.275930
N69	N	1.196211	-0.314370	-0.430155
H70	H	1.233345	-0.272619	-0.464524
H71	H	1.137384	-0.277848	-0.380314
H72	H	1.037589	-0.533927	-0.835724
H73	H	1.414856	-1.090362	-0.402438
H74	H	1.358559	-0.328674	-0.988365
H75	H	1.748888	-0.538887	-1.214876
N76	N	1.055756	-0.651351	-0.752983
H77	H	0.976609	-0.651396	-0.752990
H78	H	1.091336	-0.696686	-0.814794
N79	N	1.851581	-0.960862	-0.839779
H80	H	1.854890	-1.027690	-0.843070
H81	H	1.831857	-0.944363	-0.911468
H82	H	1.233698	-0.625164	-0.747480
N83	N	1.532924	-0.765488	-0.520766
H84	H	1.567752	-0.726413	-0.464220
H85	H	1.476338	-0.726466	-0.555606
H86	H	1.443958	-0.240082	-1.139793
H87	H	0.985711	-0.329659	-0.450976
H88	H	1.796783	-0.777556	-0.784992
H89	H	1.363945	-0.334945	-1.163157
