data_functionalizedCrystal
_audit_creation_method	'MofGen! by Chris Wilmer'
_symmetry_space_group_name_H-M	'P1'
_symmetry_Int_Tables_number	1
_symmetry_cell_setting	triclinic
loop_
_symmetry_equiv_pos_as_xyz
  x,y,z
_cell_length_a	15.625950
_cell_length_b	19.188930
_cell_length_c	14.750712
_cell_angle_alpha	77.396677
_cell_angle_beta	120.090082
_cell_angle_gamma	83.723680
loop_
_atom_site_label
_atom_site_type_symbol
_atom_site_fract_x
_atom_site_fract_y
_atom_site_fract_z
O1	O	1.286113	0.021531	0.367711
O2	O	1.786113	0.521531	0.867711
O3	O	0.999067	0.051307	0.267819
O4	O	1.499067	0.551307	0.767819
O5	O	1.150879	-0.065762	0.320668
O6	O	1.650879	0.434238	0.820668
O7	O	1.134302	0.138599	0.314862
O8	O	1.634302	0.638599	0.814862
O9	O	1.193792	-0.098851	0.495258
O10	O	1.693792	0.401149	0.995258
O11	O	1.041981	0.018218	0.442409
O12	O	1.541981	0.518218	0.942409
O13	O	1.329027	-0.011558	0.542300
O14	O	1.829027	0.488442	1.042300
Zn15	Zn	1.192317	-0.001924	0.520074
Zn16	Zn	1.692317	0.498076	1.020074
Zn17	Zn	1.135777	0.041672	0.290045
Zn18	Zn	1.635777	0.541672	0.790045
O19	O	1.177215	0.105510	0.489451
O20	O	1.677215	0.605510	0.989451
C21	C	0.983800	0.036690	0.342334
C22	C	1.483800	0.536690	0.842334
C23	C	0.874375	0.042427	0.304256
C24	C	1.374375	0.542427	0.804256
C25	C	0.631325	-0.028827	0.654734
C26	C	1.131325	0.471173	1.154734
C27	C	0.528489	-0.023413	0.618903
C28	C	1.028489	0.476587	1.118903
C29	C	0.481758	0.012657	0.428591
C30	C	0.981758	0.512657	0.928591
C31	C	0.584591	0.007250	0.464405
C32	C	1.084591	0.507250	0.964405
C33	C	0.659368	-0.013493	0.577478
C34	C	1.159368	0.486507	1.077478
C35	C	0.612634	0.022583	0.387149
C36	C	1.112634	0.522583	0.887149
C37	C	0.715459	0.017172	0.422961
C38	C	1.215459	0.517172	0.922961
C39	C	0.790241	-0.003572	0.536029
C40	C	1.290241	0.496428	1.036029
C41	C	0.762193	-0.018904	0.613289
C42	C	1.262193	0.481096	1.113289
C43	C	0.537856	0.043321	0.274077
C44	C	1.037856	0.543321	0.774077
C45	C	0.565899	0.058654	0.196821
C46	C	1.065899	0.558654	0.696821
C47	C	0.668725	0.053248	0.232632
C48	C	1.168725	0.553248	0.732632
C49	C	0.743507	0.032504	0.345700
C50	C	1.243507	0.532504	0.845700
C51	C	0.696773	0.068581	0.155371
C52	C	1.196773	0.568581	0.655371
C53	C	0.799598	0.063170	0.191183
C54	C	1.299598	0.563170	0.691183
C55	C	0.846332	0.027094	0.381512
C56	C	1.346332	0.527094	0.881512
C57	C	1.171800	-0.108284	0.407779
C58	C	1.671800	0.391716	0.907779
C59	C	1.170192	-0.185689	0.407228
C60	C	1.670192	0.314311	0.907228
C61	C	1.259268	-0.236212	0.438231
C62	C	1.759268	0.263788	0.938231
C63	C	1.257751	-0.308938	0.437687
C64	C	1.757751	0.191062	0.937687
C65	C	1.167157	-0.331140	0.406160
C66	C	1.667157	0.168860	0.906160
C67	C	1.078068	-0.280605	0.375147
C68	C	1.578068	0.219395	0.875147
C69	C	1.079585	-0.207879	0.375681
C70	C	1.579585	0.292121	0.875681
N71	N	1.112514	-0.446054	0.441478
N72	N	1.612514	0.053946	0.941478
N73	N	1.111079	-0.515142	0.440976
N74	N	1.611079	-0.015142	0.940976
C75	C	1.162580	-0.550258	0.404548
C76	C	1.662580	-0.050258	0.904548
N77	N	1.215588	-0.513681	0.368661
N78	N	1.715588	-0.013681	0.868661
N79	N	1.217027	-0.444588	0.369169
N80	N	1.717027	0.055412	0.869169
C81	C	1.165502	-0.409998	0.405578
C82	C	1.665502	0.090002	0.905578
C83	C	1.250017	-0.679639	0.434963
C84	C	1.750017	-0.179639	0.934963
C85	C	1.248495	-0.752364	0.434412
C86	C	1.748495	-0.252364	0.934412
C87	C	1.068812	-0.724032	0.371881
C88	C	1.568812	-0.224032	0.871881
C89	C	1.070334	-0.651306	0.372423
C90	C	1.570334	-0.151306	0.872423
C91	C	1.160941	-0.629116	0.403969
C92	C	1.660941	-0.129116	0.903969
C93	C	1.344293	0.003058	0.467783
C94	C	1.844293	0.503058	0.967783
C95	C	1.453717	-0.002677	0.505855
C96	C	1.953717	0.497323	1.005855
C97	C	1.156294	0.148033	0.402338
C98	C	1.656294	0.648033	0.902338
C99	C	1.157900	0.225439	0.402882
C100	C	1.657900	0.725439	0.902882
N101	N	1.230912	-0.031678	0.677066
N102	N	1.730912	0.468322	1.177066
C103	C	0.989387	0.154500	0.944804
C104	C	1.489387	0.654500	1.444804
C105	C	1.016439	0.133654	1.054720
C106	C	1.516439	0.633654	1.554720
C107	C	1.150896	0.030023	1.101490
C108	C	1.650896	0.530023	1.601490
C109	C	1.123852	0.050858	0.991575
C110	C	1.623852	0.550858	1.491575
C111	C	1.043097	0.113097	0.913239
C112	C	1.543097	0.613097	1.413239
C113	C	1.177562	0.009456	0.960010
C114	C	1.677562	0.509456	1.460010
C115	C	1.150524	0.030292	0.850105
C116	C	1.650524	0.530292	1.350105
C117	C	1.069775	0.092530	0.771764
C118	C	1.569775	0.592530	1.271764
C119	C	1.016059	0.133933	0.803334
C120	C	1.516059	0.633933	1.303334
C121	C	1.258321	-0.052780	1.038349
C122	C	1.758321	0.447220	1.538349
C123	C	1.312031	-0.094182	1.006784
C124	C	1.812031	0.405818	1.506784
C125	C	1.284989	-0.073350	0.896876
C126	C	1.784989	0.426650	1.396876
C127	C	1.204240	-0.011112	0.818535
C128	C	1.704240	0.488888	1.318535
C129	C	1.338704	-0.114753	0.865306
C130	C	1.838704	0.385247	1.365306
C131	C	1.311666	-0.093917	0.755401
C132	C	1.811666	0.406083	1.255401
C133	C	1.177201	0.009724	0.708630
C134	C	1.677201	0.509724	1.208630
N135	N	1.097179	0.071429	1.133053
N136	N	1.597179	0.571429	1.633053
H137	H	0.692212	-0.045707	0.746808
H138	H	1.192212	0.454293	1.246808
H139	H	0.822429	0.075659	0.128273
H140	H	1.322429	0.575659	0.628273
H141	H	1.321033	-0.793500	0.459653
H142	H	1.821033	-0.293500	0.959653
Br143	Br	0.398310	0.050637	0.225476
Br144	Br	0.898310	0.550637	0.725476
Br145	Br	1.033085	0.120813	0.622607
Br146	Br	1.533085	0.620813	1.122607
Br147	Br	0.464414	0.086776	0.043372
Br148	Br	0.964414	0.586776	0.543372
Br149	Br	0.945858	-0.754153	0.329083
Br150	Br	1.445858	-0.254153	0.829083
Br151	Br	0.906448	0.218394	0.697011
Br152	Br	1.406448	0.718394	1.197011
Br153	Br	0.595287	0.096696	0.001923
Br154	Br	1.095287	0.596696	0.501923
H155	H	1.333046	-0.218150	0.463915
H156	H	1.833046	0.281850	0.963915
Br157	Br	1.378648	-0.377517	0.479761
Br158	Br	1.878648	0.122483	0.979761
Br159	Br	0.929795	-0.010925	0.584636
Br160	Br	1.429795	0.489075	1.084636
Br161	Br	0.879776	0.238961	0.838481
Br162	Br	1.379776	0.738961	1.338481
H163	H	0.823080	-0.035784	0.705364
H164	H	1.323080	0.464216	1.205364
H165	H	0.505662	-0.035884	0.681823
H166	H	1.005662	0.464116	1.181823
Br167	Br	1.372983	-0.649521	0.477785
Br168	Br	1.872983	-0.149521	0.977785
H169	H	1.004305	-0.298686	0.349476
H170	H	1.504305	0.201314	0.849476
H171	H	1.007046	-0.166742	0.350434
H172	H	1.507046	0.333258	0.850434
Br173	Br	1.260492	-0.054439	1.207809
Br174	Br	1.760492	0.445561	1.707809
Br175	Br	1.421628	-0.178645	1.113102
Br176	Br	1.921628	0.321355	1.613102
H177	H	1.280336	-0.069740	1.127840
H178	H	1.780336	0.430260	1.627840
H179	H	1.111436	0.060401	0.644842
H180	H	1.611436	0.560401	1.144842
H181	H	0.997800	-0.610169	0.347183
H182	H	1.497800	-0.110169	0.847183
H183	H	0.972695	0.167375	1.080411
H184	H	1.472695	0.667375	1.580411
Br185	Br	1.448309	-0.199209	0.971630
Br186	Br	1.948309	0.300791	1.471630
H187	H	0.907219	0.010214	0.473586
H188	H	1.407219	0.510214	0.973586
Br189	Br	1.384567	-0.150104	0.712563
Br190	Br	1.884567	0.349896	1.212563
H191	H	0.420862	0.029542	0.336527
H192	H	0.920862	0.529542	0.836527
