data_functionalizedCrystal
_audit_creation_method	'MofGen! by Chris Wilmer'
_symmetry_space_group_name_H-M	'P1'
_symmetry_Int_Tables_number	1
_symmetry_cell_setting	triclinic
loop_
_symmetry_equiv_pos_as_xyz
  x,y,z
_cell_length_a	16.109302
_cell_length_b	10.654555
_cell_length_c	15.186229
_cell_angle_alpha	89.998792
_cell_angle_beta	89.994701
_cell_angle_gamma	83.975668
loop_
_atom_site_label
_atom_site_type_symbol
_atom_site_fract_x
_atom_site_fract_y
_atom_site_fract_z
O1	O	1.104094	0.161423	-0.073263
O2	O	1.604094	0.661423	0.426737
O3	O	0.862152	0.181510	-0.073256
O4	O	1.362152	0.681510	0.426744
O5	O	0.988681	-0.011348	-0.073259
O6	O	1.488681	0.488652	0.426741
O7	O	0.977566	0.354280	-0.073259
O8	O	1.477566	0.854280	0.426741
O9	O	0.988673	-0.011350	0.073198
O10	O	1.488673	0.488650	0.573198
O11	O	0.862144	0.181507	0.073202
O12	O	1.362144	0.681507	0.573202
O13	O	1.104086	0.161420	0.073194
O14	O	1.604086	0.661420	0.573194
Zn15	Zn	0.983113	0.171463	0.096451
Zn16	Zn	1.483113	0.671463	0.596451
Zn17	Zn	0.983125	0.171467	-0.096513
Zn18	Zn	1.483125	0.671467	0.403487
O19	O	0.977557	0.354277	0.073198
O20	O	1.477557	0.854277	0.573198
C21	C	0.831168	0.180695	-0.000026
C22	C	1.331168	0.680695	0.499974
C23	C	0.738859	0.178255	-0.000023
C24	C	1.238859	0.678255	0.499977
C25	C	0.526479	0.172611	0.079802
C26	C	1.026479	0.672611	0.579802
C27	C	0.439745	0.170305	0.079799
C28	C	0.939745	0.670305	0.579799
C29	C	0.439765	0.170315	-0.079877
C30	C	0.939765	0.670315	0.420123
C31	C	0.526498	0.172612	-0.079873
C32	C	1.026498	0.672612	0.420127
C33	C	0.569853	0.173766	-0.000031
C34	C	1.069853	0.673766	0.499969
C35	C	0.396386	0.169163	-0.000038
C36	C	0.896386	0.669163	0.499962
C37	C	0.302345	0.166663	-0.000042
C38	C	0.802345	0.666663	0.499958
C39	C	0.663899	0.176264	-0.000027
C40	C	1.163899	0.676264	0.499973
C41	C	0.987859	-0.058136	-0.000033
C42	C	1.487859	0.441864	0.499967
C43	C	0.985411	-0.197545	-0.000038
C44	C	1.485411	0.302455	0.499962
C45	C	0.980808	-0.459517	0.159641
C46	C	1.480808	0.040483	0.659641
C47	C	0.981949	-0.394019	0.239476
C48	C	1.481949	0.105981	0.739476
C49	C	0.984245	-0.263031	0.239476
C50	C	1.484245	0.236969	0.739476
C51	C	0.985398	-0.197538	0.159632
C52	C	1.485398	0.302462	0.659632
C53	C	0.984256	-0.263035	0.079797
C54	C	1.484256	0.236965	0.579797
C55	C	0.981963	-0.394027	0.079806
C56	C	1.481963	0.105973	0.579806
C57	C	0.984270	-0.263043	-0.079873
C58	C	1.484270	0.236957	0.420127
C59	C	0.981980	-0.394032	-0.079875
C60	C	1.481980	0.105968	0.420125
C61	C	0.985422	-0.197549	-0.159717
C62	C	1.485422	0.302451	0.340283
C63	C	0.984287	-0.263048	-0.239554
C64	C	1.484287	0.236952	0.260446
C65	C	0.981991	-0.394044	-0.239551
C66	C	1.481991	0.105956	0.260449
C67	C	0.980838	-0.459529	-0.159710
C68	C	1.480838	0.040471	0.340290
C69	C	1.135070	0.162235	-0.000037
C70	C	1.635070	0.662235	0.499963
C71	C	1.227380	0.164675	-0.000046
C72	C	1.727380	0.664675	0.499954
C73	C	0.978379	0.401065	-0.000031
C74	C	1.478379	0.901065	0.499969
C75	C	0.980827	0.540475	-0.000031
C76	C	1.480827	1.040475	0.499969
N77	N	0.983112	0.171460	0.228144
N78	N	1.483112	0.671460	0.728144
N79	N	0.983133	0.171460	-0.228205
N80	N	1.483133	0.671460	0.271795
C81	C	1.039158	0.086091	0.453865
C82	C	1.539158	0.586091	0.953865
C83	C	1.039161	0.086088	0.546055
C84	C	1.539161	0.586088	1.046055
C85	C	0.927081	0.256832	0.546067
C86	C	1.427081	0.756832	1.046067
C87	C	0.927075	0.256828	0.453879
C88	C	1.427075	0.756828	0.953879
C89	C	0.983118	0.171459	0.407780
C90	C	1.483118	0.671459	0.907780
C91	C	0.983127	0.171460	0.592158
C92	C	1.483127	0.671460	1.092158
C93	C	0.983129	0.171458	0.692114
C94	C	1.483129	0.671458	1.192114
C95	C	0.983115	0.171460	0.307818
C96	C	1.483115	0.671460	0.807818
H97	H	0.404435	0.169365	0.144807
H98	H	0.904435	0.669365	0.644807
Br99	Br	0.851026	0.372689	0.608632
Br100	Br	1.351026	0.872689	1.108632
Br101	Br	0.988481	-0.019761	0.159634
Br102	Br	1.488481	0.480239	0.659634
Br103	Br	0.585315	0.174174	0.188158
Br104	Br	1.085315	0.674174	0.688158
H105	H	0.404456	0.169376	-0.144882
H106	H	0.904456	0.669376	0.355118
H107	H	0.881436	0.326346	0.416354
H108	H	1.381436	0.826346	0.916354
Br109	Br	0.980432	-0.482920	-0.347905
Br110	Br	1.480432	0.017080	0.152095
Br111	Br	0.585369	0.174164	-0.188226
Br112	Br	1.085369	0.674164	0.311774
H113	H	0.978947	-0.566176	0.159649
H114	H	1.478947	-0.066176	0.659649
H115	H	0.981009	-0.447358	0.304483
H116	H	1.481009	0.052642	0.804483
Br117	Br	0.977732	-0.637302	-0.159700
Br118	Br	1.477732	-0.137302	0.340300
Br119	Br	0.985789	-0.174135	0.347824
Br120	Br	1.485789	0.325865	0.847824
H121	H	0.987287	-0.090891	-0.159711
H122	H	1.487287	0.409109	0.340289
Br123	Br	0.985856	-0.174161	-0.347902
Br124	Br	1.485856	0.325839	0.152098
H125	H	1.084791	0.016577	0.416334
H126	H	1.584791	0.516577	0.916334
H127	H	1.084793	0.016572	0.583574
H128	H	1.584793	0.516572	1.083574
