data_functionalizedCrystal
_audit_creation_method	'MofGen! by Chris Wilmer'
_symmetry_space_group_name_H-M	'P1'
_symmetry_Int_Tables_number	1
_symmetry_cell_setting	triclinic
loop_
_symmetry_equiv_pos_as_xyz
  x,y,z
_cell_length_a	15.072220
_cell_length_b	14.971486
_cell_length_c	14.971487
_cell_angle_alpha	83.614266
_cell_angle_beta	89.999616
_cell_angle_gamma	89.992455
loop_
_atom_site_label
_atom_site_type_symbol
_atom_site_fract_x
_atom_site_fract_y
_atom_site_fract_z
O1	O	0.073679	-1.186956	-0.116557
O2	O	0.407012	-0.853623	0.216777
O3	O	0.740346	-0.520289	0.550110
O4	O	0.073703	-0.926556	-0.130516
O5	O	0.407036	-0.593223	0.202818
O6	O	0.740370	-0.259889	0.536151
O7	O	0.073686	-1.063735	0.006664
O8	O	0.407019	-0.730402	0.339997
O9	O	0.740353	-0.397068	0.673331
O10	O	0.073696	-1.049777	-0.253736
O11	O	0.407029	-0.716444	0.079597
O12	O	0.740362	-0.383110	0.412931
O13	O	-0.073879	-1.063701	0.006656
O14	O	0.259454	-0.730368	0.339990
O15	O	0.592788	-0.397034	0.673323
O16	O	-0.073862	-0.926522	-0.130523
O17	O	0.259471	-0.593189	0.202810
O18	O	0.592805	-0.259855	0.536144
O19	O	-0.073886	-1.186922	-0.116564
O20	O	0.259447	-0.853589	0.216769
O21	O	0.592781	-0.520255	0.550102
Zn22	Zn	-0.097303	-1.056717	-0.123545
Zn23	Zn	0.236030	-0.723383	0.209788
Zn24	Zn	0.569363	-0.390050	0.543122
Zn25	Zn	0.097120	-1.056761	-0.123535
Zn26	Zn	0.430453	-0.723428	0.209798
Zn27	Zn	0.763787	-0.390095	0.543132
O28	O	-0.073869	-1.049743	-0.253744
O29	O	0.259464	-0.716410	0.079590
O30	O	0.592797	-0.383076	0.412923
C31	C	-0.000077	-0.893214	-0.129895
C32	C	0.333257	-0.559881	0.203438
C33	C	0.666590	-0.226548	0.536772
C34	C	-0.000067	-0.793917	-0.128024
C35	C	0.333266	-0.460584	0.205309
C36	C	0.666599	-0.127250	0.538642
N37	N	-0.229992	-1.056693	-0.123551
N38	N	0.103341	-0.723359	0.209782
N39	N	0.436675	-0.390026	0.543115
C40	C	-0.000096	-1.063094	0.039985
C41	C	0.333238	-0.729760	0.373318
C42	C	0.666571	-0.396427	0.706651
C43	C	-0.000093	-1.061223	0.139282
C44	C	0.333240	-0.727889	0.472615
C45	C	0.666574	-0.394556	0.805949
C46	C	-0.589194	-1.056759	-0.123531
C47	C	-0.255860	-0.723426	0.209802
C48	C	0.077473	-0.390093	0.543135
C49	C	-0.551578	-0.983111	-0.196687
C50	C	-0.218244	-0.649777	0.136647
C51	C	0.115089	-0.316444	0.469980
C52	C	-0.448752	-0.983280	-0.196954
C53	C	-0.115419	-0.649947	0.136379
C54	C	0.217915	-0.316613	0.469712
C55	C	-0.410990	-1.056726	-0.123541
C56	C	-0.077656	-0.723392	0.209792
C57	C	0.255677	-0.390059	0.543125
C58	C	-0.448289	-1.150076	-0.144025
C59	C	-0.114955	-0.816742	0.189308
C60	C	0.218378	-0.483409	0.522641
C61	C	-0.551146	-1.149663	-0.144545
C62	C	-0.217813	-0.816330	0.188788
C63	C	0.115520	-0.482996	0.522121
C64	C	-0.551295	-1.037890	-0.029676
C65	C	-0.217962	-0.704557	0.303657
C66	C	0.115371	-0.371223	0.636991
C67	C	-0.448432	-1.035749	-0.030300
C68	C	-0.115098	-0.702416	0.303034
C69	C	0.218235	-0.369083	0.636367
C70	C	-0.310276	-1.056712	-0.123545
C71	C	0.023057	-0.723379	0.209788
C72	C	0.356391	-0.390046	0.543122
C73	C	-0.689907	-1.056779	-0.123530
C74	C	-0.356574	-0.723446	0.209804
C75	C	-0.023240	-0.390112	0.543137
N76	N	0.229809	-1.056792	-0.123522
N77	N	0.563142	-0.723459	0.209812
N78	N	0.896476	-0.390126	0.543145
C79	C	-0.000105	-1.220264	-0.117185
C80	C	0.333229	-0.886930	0.216149
C81	C	0.666562	-0.553597	0.549482
C82	C	-0.000108	-1.319561	-0.119055
C83	C	0.333225	-0.986227	0.214278
C84	C	0.666559	-0.652894	0.547611
C85	C	-0.000066	-0.736692	-0.208614
C86	C	0.333268	-0.403359	0.124720
C87	C	0.666601	-0.070025	0.458053
C88	C	-0.000079	-0.643393	-0.206850
C89	C	0.333254	-0.310059	0.126483
C90	C	0.666588	0.023274	0.459816
C91	C	-0.000088	-0.607320	-0.124497
C92	C	0.333246	-0.273987	0.208836
C93	C	0.666579	0.059347	0.542169
C94	C	-0.000092	-0.664552	-0.043902
C95	C	0.333241	-0.331219	0.289431
C96	C	0.666575	0.002114	0.622765
C97	C	-0.000085	-0.757850	-0.045666
C98	C	0.333248	-0.424517	0.287667
C99	C	0.666582	-0.091183	0.621001
C100	C	-0.000104	-0.470090	-0.040231
C101	C	0.333229	-0.136757	0.293103
C102	C	0.666562	0.196577	0.626436
C103	C	-0.000110	-0.376786	-0.038466
C104	C	0.333224	-0.043453	0.294867
C105	C	0.666557	0.289881	0.628200
C106	C	-0.000098	-0.355632	-0.201415
C107	C	0.333235	-0.022299	0.131918
C108	C	0.666568	0.311034	0.465251
C109	C	-0.000091	-0.448930	-0.203179
C110	C	0.333242	-0.115597	0.130154
C111	C	0.666575	0.217737	0.463487
C112	C	-0.000094	-0.506156	-0.122584
C113	C	0.333239	-0.172823	0.210750
C114	C	0.666573	0.160511	0.544083
C115	C	-0.000100	-1.141812	0.196507
C116	C	0.333233	-0.808479	0.529840
C117	C	0.666567	-0.475145	0.863174
C118	C	-0.000090	-1.140049	0.289807
C119	C	0.333244	-0.806715	0.623140
C120	C	0.666577	-0.473382	0.956473
C121	C	-0.000078	-1.057695	0.325879
C122	C	0.333255	-0.724362	0.659212
C123	C	0.666589	-0.391029	0.992546
C124	C	-0.000068	-0.977100	0.268646
C125	C	0.333265	-0.643767	0.601980
C126	C	0.666598	-0.310433	0.935313
C127	C	-0.000072	-0.978864	0.175349
C128	C	0.333261	-0.645531	0.508682
C129	C	0.666594	-0.312198	0.842015
C130	C	-0.000061	-0.973428	0.463109
C131	C	0.333272	-0.640095	0.796442
C132	C	0.666605	-0.306762	1.129775
C133	C	-0.000059	-0.971664	0.556413
C134	C	0.333275	-0.638330	0.889746
C135	C	0.666608	-0.304997	1.223079
C136	C	-0.000078	-1.134613	0.577567
C137	C	0.333255	-0.801279	0.910900
C138	C	0.666588	-0.467946	1.244233
C139	C	-0.000083	-1.136377	0.484269
C140	C	0.333251	-0.803044	0.817602
C141	C	0.666584	-0.469710	1.150936
C142	C	-0.000075	-1.055781	0.427043
C143	C	0.333259	-0.722448	0.760376
C144	C	0.666592	-0.389115	1.093709
C145	C	-0.000082	-1.050384	0.712935
C146	C	0.333252	-0.717050	1.046269
C147	C	0.666585	-0.383717	1.379602
C148	C	-0.000066	-1.052253	0.613638
C149	C	0.333267	-0.718919	0.946971
C150	C	0.666601	-0.385586	1.280305
H151	H	-0.423535	-0.913894	-0.184735
H152	H	-0.090202	-0.580561	0.148598
H153	H	0.243132	-0.247228	0.481932
Br154	Br	-0.000047	-0.864047	0.385445
Br155	Br	0.333286	-0.530714	0.718778
Br156	Br	0.666620	-0.197381	1.052111
H157	H	-0.424054	-0.967079	-0.014757
H158	H	-0.090720	-0.633746	0.318577
H159	H	0.242613	-0.300413	0.651910
Br160	Br	-0.594620	-1.002942	-0.312121
Br161	Br	-0.261287	-0.669609	0.021212
Br162	Br	0.072046	-0.336276	0.354545
H163	H	-0.000082	-1.200237	0.624165
H164	H	0.333251	-0.866903	0.957498
H165	H	0.666584	-0.533570	1.290832
Br166	Br	-0.405339	-1.178428	-0.256815
Br167	Br	-0.072006	-0.845094	0.076519
Br168	Br	0.261327	-0.511761	0.409852
H169	H	-0.576333	-0.913501	-0.184667
H170	H	-0.243000	-0.580168	0.148666
H171	H	0.090334	-0.246834	0.482000
Br172	Br	-0.000129	-1.253583	0.147562
Br173	Br	0.333205	-0.920250	0.480895
Br174	Br	0.666538	-0.586917	0.814228
H175	H	-0.424137	-0.995340	-0.266601
H176	H	-0.090804	-0.662006	0.066733
H177	H	0.242530	-0.328673	0.400066
H178	H	-0.000100	-0.309034	-0.267039
H179	H	0.333233	0.024299	0.066294
H180	H	0.666567	0.357633	0.399627
H181	H	-0.575127	-1.166276	-0.212996
H182	H	-0.241794	-0.832942	0.120337
H183	H	0.091539	-0.499609	0.453670
H184	H	-0.000053	-0.910046	0.298024
H185	H	0.333280	-0.576713	0.631357
H186	H	0.666613	-0.243380	0.964690
H187	H	-0.000097	-1.205672	0.336396
H188	H	0.333236	-0.872339	0.669730
H189	H	0.666569	-0.539006	1.003063
H190	H	-0.000077	-0.596803	-0.272474
H191	H	0.333257	-0.263470	0.060859
H192	H	0.666590	0.069864	0.394192
Br193	Br	-0.000045	-0.785638	-0.320385
Br194	Br	0.333289	-0.452304	0.012949
Br195	Br	0.666622	-0.118971	0.346282
Br196	Br	-0.405607	-1.119344	0.064703
Br197	Br	-0.072274	-0.786011	0.398036
Br198	Br	0.261059	-0.452678	0.731370
Br199	Br	-0.000066	-0.497886	-0.314946
Br200	Br	0.333267	-0.164552	0.018388
Br201	Br	0.666601	0.168781	0.351721
Br202	Br	-0.000096	-1.248143	0.435314
Br203	Br	0.333237	-0.914810	0.768647
Br204	Br	0.666571	-0.581477	1.101980
H205	H	-0.000086	-0.804443	0.019958
H206	H	0.333247	-0.471109	0.353292
H207	H	0.666581	-0.137776	0.686625
Br208	Br	-0.591836	-1.127405	0.061063
Br209	Br	-0.258503	-0.794072	0.394396
Br210	Br	0.074831	-0.460738	0.727730
Br211	Br	-0.000151	-0.327830	0.073300
Br212	Br	0.333182	0.005503	0.406633
Br213	Br	0.666515	0.338836	0.739966
Br214	Br	-0.000047	-0.859897	0.605368
Br215	Br	0.333286	-0.526564	0.938701
Br216	Br	0.666619	-0.193231	1.272035
H217	H	-0.576028	-1.206184	-0.093369
H218	H	-0.242695	-0.872851	0.239965
H219	H	0.090639	-0.539518	0.573298
H220	H	-0.000108	-0.516682	0.025399
H221	H	0.333225	-0.183348	0.358732
H222	H	0.666559	0.149985	0.692066
Br223	Br	-0.000113	-0.615598	0.067865
Br224	Br	0.333221	-0.282265	0.401198
Br225	Br	0.666554	0.051068	0.734532
H226	H	-0.423826	-1.206194	-0.092164
H227	H	-0.090493	-0.872860	0.241169
H228	H	0.242840	-0.539527	0.574502
H229	H	-0.000066	-0.913240	0.128756
H230	H	0.333267	-0.579907	0.462089
H231	H	0.666600	-0.246573	0.795423
H232	H	-0.577280	-0.971292	-0.010004
H233	H	-0.243947	-0.637959	0.323330
H234	H	0.089387	-0.304626	0.656663
