data_functionalizedCrystal
_audit_creation_method	'MofGen! by Chris Wilmer'
_symmetry_space_group_name_H-M	'P1'
_symmetry_Int_Tables_number	1
_symmetry_cell_setting	triclinic
loop_
_symmetry_equiv_pos_as_xyz
  x,y,z
_cell_length_a	16.120490
_cell_length_b	12.759399
_cell_length_c	12.759393
_cell_angle_alpha	89.969792
_cell_angle_beta	87.082392
_cell_angle_gamma	87.108017
loop_
_atom_site_label
_atom_site_type_symbol
_atom_site_fract_x
_atom_site_fract_y
_atom_site_fract_z
Zn1	Zn	1.274626	-0.499843	-0.675398
Zn2	Zn	1.774626	0.000157	-0.175398
Zn3	Zn	1.274540	-0.675557	-0.499717
Zn4	Zn	1.774540	-0.175557	0.000283
Zn5	Zn	1.135202	-0.490968	-0.490833
Zn6	Zn	1.635202	0.009032	0.009167
Zn7	Zn	1.135192	-0.666550	-0.666459
Zn8	Zn	1.635192	-0.166550	-0.166459
O9	O	1.204890	-0.583230	-0.583102
O10	O	1.704890	-0.083230	-0.083102
O11	O	1.391282	-0.530636	-0.659553
O12	O	1.891282	-0.030636	-0.159553
O13	O	1.256026	-0.651126	-0.351515
O14	O	1.756026	-0.151126	0.148485
O15	O	1.153738	-0.345127	-0.515339
O16	O	1.653738	0.154873	-0.015339
O17	O	1.391219	-0.659732	-0.530481
O18	O	1.891219	-0.159732	-0.030481
O19	O	1.256172	-0.351648	-0.650939
O20	O	1.756172	0.148352	-0.150939
O21	O	1.153655	-0.515509	-0.344988
O22	O	1.653655	-0.015509	0.155012
O23	O	1.018534	-0.506776	-0.506671
O24	O	1.518534	-0.006776	-0.006671
O25	O	1.153719	-0.644381	-0.814668
O26	O	1.653719	-0.144381	-0.314668
O27	O	1.018526	-0.635775	-0.635702
O28	O	1.518526	-0.135775	-0.135702
O29	O	1.256161	-0.521903	-0.821236
O30	O	1.756161	-0.021903	-0.321236
O31	O	1.256015	-0.821381	-0.521812
O32	O	1.756015	-0.321381	-0.021812
O33	O	1.153636	-0.814763	-0.644317
O34	O	1.653636	-0.314763	-0.144317
C35	C	1.204838	-0.856194	-0.583083
C36	C	1.704838	-0.356194	-0.083083
C37	C	1.204892	-0.972974	-0.583115
C38	C	1.704892	-0.472974	-0.083115
C39	C	0.988279	-0.569336	-0.569253
C40	C	1.488279	-0.069336	-0.069253
C41	C	0.895612	-0.563417	-0.563354
C42	C	1.395612	-0.063417	-0.063354
C43	C	1.151685	-1.134261	-0.512499
C44	C	1.651685	-0.634261	-0.012499
C45	C	1.151630	-1.024534	-0.512477
C46	C	1.651630	-0.524534	-0.012477
C47	C	1.258206	-1.031147	-0.653787
C48	C	1.758206	-0.531147	-0.153787
C49	C	1.258257	-1.140872	-0.653814
C50	C	1.758257	-0.640872	-0.153814
C51	C	1.098426	-1.185816	-0.441849
C52	C	1.598426	-0.685816	0.058151
C53	C	1.045109	-1.127650	-0.371177
C54	C	1.545109	-0.627650	0.128823
C55	C	1.045054	-1.017923	-0.371155
C56	C	1.545054	-0.517923	0.128845
C57	C	1.098315	-0.966361	-0.441804
C58	C	1.598315	-0.466361	0.058196
C59	C	0.684678	-0.613922	-0.613706
C60	C	1.184678	-0.113922	-0.113706
C61	C	0.725954	-0.552621	-0.552581
C62	C	1.225954	-0.052621	-0.052581
C63	C	0.820360	-0.558630	-0.558577
C64	C	1.320360	-0.058630	-0.058577
C65	C	0.590262	-0.607915	-0.607711
C66	C	1.090262	-0.107915	-0.107711
C67	C	1.422347	-0.597179	-0.597005
C68	C	1.922347	-0.097179	-0.097005
C69	C	1.515014	-0.603123	-0.602930
C70	C	2.015014	-0.103123	-0.102930
C71	C	1.204948	-0.583127	-0.857139
C72	C	1.704948	-0.083127	-0.357139
C73	C	1.204973	-0.583084	-0.973917
C74	C	1.704973	-0.083084	-0.473917
C75	C	1.204965	-0.309201	-0.583145
C76	C	1.704965	0.190799	-0.083145
C77	C	1.204997	-0.192427	-0.583164
C78	C	1.704997	0.307573	-0.083164
C79	C	1.258322	-0.519303	-1.032201
C80	C	1.758322	-0.019303	-0.532201
C81	C	1.258342	-0.519266	-1.141927
C82	C	1.758342	-0.019266	-0.641927
C83	C	1.151662	-0.646800	-1.135074
C84	C	1.651662	-0.146800	-0.635074
C85	C	1.151638	-0.646830	-1.025351
C86	C	1.651638	-0.146830	-0.525351
C87	C	1.311657	-0.455557	-0.980768
C88	C	1.811657	0.044443	-0.480768
C89	C	1.365011	-0.391772	-1.039053
C90	C	1.865011	0.108228	-0.539053
C91	C	1.365031	-0.391735	-1.148778
C92	C	1.865031	0.108265	-0.648778
C93	C	1.311697	-0.455483	-1.200219
C94	C	1.811697	0.044517	-0.700219
C95	C	1.204880	-0.583259	-0.310134
C96	C	1.704880	-0.083259	0.189866
C97	C	1.205017	-0.583017	-0.193366
C98	C	1.705017	-0.083017	0.306634
H99	H	1.098466	-1.275161	-0.441857
H100	H	1.598466	-0.775161	0.058143
Cl101	Cl	0.739584	-0.701924	-0.701435
Cl102	Cl	1.239584	-0.201924	-0.201435
H103	H	1.108239	-0.698700	-1.176966
H104	H	1.608239	-0.198700	-0.676966
Cl105	Cl	0.978148	-1.192469	-0.282378
Cl106	Cl	1.478148	-0.692469	0.217622
H107	H	0.690389	-0.495627	-0.495748
H108	H	1.190389	0.004373	0.004252
Cl109	Cl	0.978021	-0.944802	-0.282325
Cl110	Cl	1.478021	-0.444802	0.217675
Cl111	Cl	1.311639	-0.455602	-0.842828
Cl112	Cl	1.811639	0.044398	-0.342828
H113	H	1.098264	-0.877013	-0.441783
H114	H	1.598264	-0.377013	0.058217
Cl115	Cl	1.325159	-0.966325	-0.742595
Cl116	Cl	1.825159	-0.466325	-0.242595
Cl117	Cl	1.325282	-1.214000	-0.742648
Cl118	Cl	1.825282	-0.714000	-0.242648
Cl119	Cl	1.084569	-0.727012	-0.952074
Cl120	Cl	1.584569	-0.227012	-0.452074
H121	H	1.408428	-0.339863	-0.997162
H122	H	1.908428	0.160137	-0.497162
Cl123	Cl	1.432105	-0.311553	-1.222047
Cl124	Cl	1.932105	0.188447	-0.722047
H125	H	1.311708	-0.455435	-1.289565
H126	H	1.811708	0.044565	-0.789565
