data_functionalizedCrystal
_audit_creation_method	'MofGen! by Chris Wilmer'
_symmetry_space_group_name_H-M	'P1'
_symmetry_Int_Tables_number	1
_symmetry_cell_setting	triclinic
loop_
_symmetry_equiv_pos_as_xyz
  x,y,z
_cell_length_a	10.654554
_cell_length_b	9.130313
_cell_length_c	10.654551
_cell_angle_alpha	90.002444
_cell_angle_beta	84.486053
_cell_angle_gamma	89.999506
loop_
_atom_site_label
_atom_site_type_symbol
_atom_site_fract_x
_atom_site_fract_y
_atom_site_fract_z
O1	O	1.667832	-0.121795	0.176418
O2	O	1.302354	-0.121795	0.193218
O3	O	1.493495	-0.121796	0.002079
O4	O	1.476691	-0.121794	0.367557
O5	O	1.493492	0.121803	0.002088
O6	O	1.302351	0.121803	0.193227
O7	O	1.667829	0.121804	0.176427
Cu8	Cu	1.485090	0.144046	0.184828
Cu9	Cu	1.485093	-0.144037	0.184818
O10	O	1.476688	0.121805	0.367566
C11	C	1.255555	0.000004	0.191988
C12	C	1.116112	0.000003	0.188294
N13	N	1.485096	0.346669	0.184834
C14	C	0.905604	0.000000	0.297367
C15	C	1.036625	0.000000	0.300839
C16	C	1.064571	-0.000009	0.072269
C17	C	0.933552	-0.000019	0.068799
C18	C	0.889470	0.000012	0.429330
C19	C	1.020492	0.000012	0.432802
C20	C	1.569755	0.423321	0.100228
C21	C	1.569751	0.576658	0.100215
C22	C	1.400425	0.576677	0.269425
C23	C	1.400424	0.423343	0.269431
C24	C	1.654427	0.346647	0.015630
C25	C	1.739094	0.423299	-0.068982
C26	C	1.739090	0.576635	-0.068995
C27	C	1.654419	0.653320	0.015604
C28	C	1.714628	0.000002	0.177657
C29	C	1.854071	-0.000007	0.181351
N30	N	1.485094	0.653340	0.184815
C31	C	1.492260	0.000000	-0.044714
C32	C	1.488567	-0.000009	-0.184158
C33	C	1.486837	-0.132793	-0.249674
C34	C	1.483356	-0.132786	-0.380695
C35	C	1.483343	0.132799	-0.380671
C36	C	1.486814	0.132791	-0.249652
C37	C	1.486850	-0.286126	-0.249690
C38	C	1.483370	-0.286119	-0.380710
C39	C	1.477923	0.000005	0.414360
C40	C	1.481616	0.000006	0.553803
H41	H	0.891600	-0.000044	-0.025672
C42	C	1.307267	0.339022	0.362475
N43	N	1.237086	0.275510	0.432545
C44	C	1.152011	-0.000007	-0.051531
N45	N	1.217870	0.000001	-0.144781
C46	C	1.832207	0.660948	-0.162086
N47	N	1.902345	0.724450	-0.232206
C48	C	1.610594	-0.350400	-0.209741
N49	N	1.703800	-0.398810	-0.179651
C50	C	1.488698	0.278862	-0.177586
N51	N	1.490116	0.388889	-0.123306
C52	C	1.359627	-0.350402	-0.420665
N53	N	1.266424	-0.398813	-0.450761
H54	H	0.847727	-0.101930	0.479055
H55	H	1.654415	0.778178	0.015578
H56	H	1.570161	-0.344992	-0.427002
H57	H	1.808023	0.360854	-0.137867
C58	C	0.827788	0.142086	0.483220
N59	N	0.781327	0.249094	0.523818
H60	H	1.331491	0.639124	0.338304
C61	C	1.481416	0.278871	-0.452727
N62	N	1.479967	0.388896	-0.506999
H63	H	1.056127	-0.105170	0.474824
C64	C	1.369600	-0.365658	-0.187165
N65	N	1.281288	-0.425557	-0.140071
H66	H	1.049852	0.101970	0.484395
C67	C	1.654436	0.177973	0.015634
N68	N	1.654442	0.050928	0.015638
