data_functionalizedCrystal
_audit_creation_method	'MofGen! by Chris Wilmer'
_symmetry_space_group_name_H-M	'P1'
_symmetry_Int_Tables_number	1
_symmetry_cell_setting	triclinic
loop_
_symmetry_equiv_pos_as_xyz
  x,y,z
_cell_length_a	23.532407
_cell_length_b	23.532407
_cell_length_c	9.565339
_cell_angle_alpha	89.995586
_cell_angle_beta	90.001814
_cell_angle_gamma	82.848678
loop_
_atom_site_label
_atom_site_type_symbol
_atom_site_fract_x
_atom_site_fract_y
_atom_site_fract_z
O1	O	0.755259	0.069131	-0.116100
O2	O	0.589396	0.079134	-0.116143
O3	O	0.677329	-0.008799	-0.116094
O4	O	0.667326	0.157064	-0.116148
O5	O	0.677322	-0.008794	0.116426
O6	O	0.589389	0.079139	0.116377
O7	O	0.755252	0.069136	0.116421
Zn8	Zn	0.672319	0.074139	0.153317
Zn9	Zn	0.672329	0.074131	-0.153039
O10	O	0.667319	0.157070	0.116372
C11	C	0.568176	0.078882	0.000112
C12	C	0.504959	0.078116	0.000097
C13	C	0.105856	0.125350	0.000145
C14	C	0.046456	0.124638	0.000154
O15	O	0.009711	0.168424	0.000190
N16	N	0.023830	0.072362	0.000168
C17	C	0.060607	0.020794	0.000188
O18	O	0.035908	-0.023737	0.000203
C19	C	0.120006	0.021506	0.000190
C20	C	0.142629	0.073785	0.000161
C21	C	0.128479	0.177625	0.000118
C22	C	0.187876	0.178336	0.000106
C23	C	0.224649	0.126772	0.000122
C24	C	0.202025	0.074497	0.000149
C25	C	0.156783	-0.030062	0.000220
C26	C	0.216185	-0.029345	0.000222
C27	C	0.238808	0.022934	0.000193
C28	C	0.298194	0.023643	0.000154
N29	N	0.320820	0.075920	0.000139
C30	C	0.284048	0.127484	0.000123
C31	C	-0.064135	0.019302	0.000188
C32	C	-0.123533	0.018589	0.000177
C33	C	-0.137680	0.122434	0.000145
C34	C	-0.078281	0.123146	0.000146
C35	C	-0.041509	0.071578	0.000174
C36	C	0.408784	0.128974	0.000098
C37	C	0.468186	0.129680	0.000081
C38	C	0.482329	0.025836	0.000121
C39	C	0.422932	0.025129	0.000130
C40	C	0.386160	0.076702	0.000124
O41	O	0.334974	-0.020119	0.000123
O42	O	0.308755	0.172007	0.000127
C43	C	0.677071	-0.030013	0.000169
C44	C	0.676305	-0.093230	0.000180
C45	C	0.723539	-0.492333	0.000116
C46	C	0.722827	-0.551733	0.000105
O47	O	0.766613	-0.588478	0.000065
N48	N	0.670551	-0.574359	0.000092
C49	C	0.618983	-0.537582	0.000076
O50	O	0.574452	-0.562281	0.000063
C51	C	0.619695	-0.478182	0.000077
C52	C	0.671974	-0.455560	0.000104
C53	C	0.775814	-0.469710	0.000141
C54	C	0.776525	-0.410313	0.000154
C55	C	0.724961	-0.373540	0.000142
C56	C	0.672685	-0.396164	0.000117
C57	C	0.568127	-0.441406	0.000051
C58	C	0.568844	-0.382004	0.000051
C59	C	0.621123	-0.359381	0.000078
C60	C	0.621832	-0.299995	0.000119
N61	N	0.674109	-0.277368	0.000131
C62	C	0.725673	-0.314141	0.000143
C63	C	0.617491	-0.662324	0.000072
C64	C	0.616778	-0.721722	0.000081
C65	C	0.720623	-0.735869	0.000107
C66	C	0.721335	-0.676470	0.000108
C67	C	0.669767	-0.639698	0.000085
C68	C	0.727163	-0.189405	0.000173
C69	C	0.727869	-0.130003	0.000192
C70	C	0.624025	-0.115860	0.000158
C71	C	0.623318	-0.175257	0.000147
C72	C	0.674891	-0.212029	0.000149
O73	O	0.578070	-0.263215	0.000153
O74	O	0.770196	-0.289433	0.000138
C75	C	0.776472	0.069388	0.000163
C76	C	0.839689	0.070154	0.000169
C77	C	0.667577	0.178283	0.000105
C78	C	0.668343	0.241500	0.000086
N79	N	0.672317	0.074143	0.362396
N80	N	0.672335	0.074122	-0.362118
C81	C	0.631639	0.114796	0.453577
C82	C	0.683041	0.125556	0.546765
C83	C	0.620937	0.063388	0.546763
C84	C	0.723745	0.084929	0.453532
C85	C	0.661608	0.022738	0.453523
C86	C	0.713047	0.033476	0.546669
H87	H	-0.141947	-0.023982	0.000179
O88	O	0.772083	-0.654429	-0.000065
C89	C	0.775615	-0.620505	-0.120510
H90	H	0.730644	-0.605458	-0.160671
H91	H	0.798094	-0.581733	-0.093425
H92	H	0.800963	-0.646890	-0.204826
H93	H	0.652521	-0.020711	0.412534
H94	H	0.692112	0.169019	0.587721
O95	O	0.775549	0.095890	0.404660
C96	C	0.774904	0.095799	0.257268
H97	H	0.728836	0.104975	0.218717
H98	H	0.800718	0.130235	0.216592
H99	H	0.794637	0.052115	0.217311
H100	H	-0.034198	-0.022693	0.000198
H101	H	0.770443	-0.111587	0.000217
H102	H	0.747493	-0.000914	0.587286
O103	O	0.590647	0.155800	0.404562
C104	C	0.590863	0.154930	0.257177
H105	H	0.610588	0.110957	0.219072
H106	H	0.545046	0.164151	0.216914
H107	H	0.617130	0.188978	0.216366
H108	H	0.580748	-0.193677	0.000164
H109	H	0.577479	0.054300	0.587719
O110	O	0.517326	-0.463343	-0.000232
C111	C	0.485923	-0.444498	-0.120655
H112	H	0.516510	-0.432313	-0.204802
H113	H	0.461896	-0.480342	-0.161102
H114	H	0.453968	-0.405602	-0.093442
O115	O	0.490256	0.180417	-0.000018
C116	C	0.550569	0.169994	0.000002
H117	H	0.564762	0.125466	-0.043994
H118	H	0.568618	0.203420	-0.067535
H119	H	0.567096	0.172666	0.111546
H120	H	0.378851	0.170970	0.000098
O121	O	0.777223	-0.225176	0.000368
C122	C	0.779925	-0.259954	0.120806
H123	H	0.734737	-0.262720	0.160933
H124	H	0.801408	-0.304714	0.093726
H125	H	0.805812	-0.240553	0.205146
O126	O	0.209752	0.229171	0.000157
C127	C	0.164549	0.274524	0.000115
H128	H	0.124285	0.258787	0.044135
H129	H	0.176756	0.311045	0.067619
H130	H	0.156053	0.290414	-0.111438
O131	O	0.825960	-0.505345	0.000219
C132	C	0.872245	-0.472627	0.000204
H133	H	0.857518	-0.428213	0.044212
H134	H	0.908352	-0.494730	0.067732
H135	H	0.888292	-0.468481	-0.111340
H136	H	0.098544	0.219617	0.000110
O137	O	-0.056403	0.173980	0.000190
C138	C	-0.101604	0.219335	0.000134
H139	H	-0.141870	0.203603	0.044155
H140	H	-0.089396	0.255858	0.067629
H141	H	-0.110097	0.235220	-0.111425
O142	O	0.770729	-0.771574	0.000352
C143	C	0.802499	-0.761368	0.120764
H144	H	0.772319	-0.740900	0.204936
H145	H	0.825576	-0.803646	0.161179
H146	H	0.835292	-0.731305	0.093547
H147	H	0.138375	-0.072634	0.000244
H148	H	0.575496	-0.632386	0.000065
O149	O	-0.173465	0.172489	-0.000048
C150	C	-0.208241	0.175186	-0.120486
H151	H	-0.210992	0.129998	-0.160623
H152	H	-0.253006	0.196656	-0.093403
H153	H	-0.188846	0.201085	-0.204821
O154	O	0.251882	-0.079455	-0.000006
C155	C	0.241655	-0.111225	-0.120398
H156	H	0.221185	-0.081043	-0.204576
H157	H	0.283925	-0.134312	-0.160818
H158	H	0.211587	-0.144010	-0.093151
O159	O	0.401047	-0.025704	0.000201
C160	C	0.446245	-0.071063	0.000165
H161	H	0.486514	-0.055333	0.044168
H162	H	0.434036	-0.107582	0.067685
H163	H	0.454731	-0.086952	-0.111385
O164	O	0.518136	-0.024199	0.000202
C165	C	0.575412	-0.012354	0.000160
H166	H	0.577438	0.032370	0.044152
H167	H	0.602510	-0.045235	0.067689
H168	H	0.592604	-0.014619	-0.111390
H169	H	0.574207	-0.740136	0.000084
H170	H	0.526850	-0.352066	0.000030
H171	H	0.819097	-0.391900	0.000170
O172	O	0.573922	-0.080158	0.000386
C173	C	0.542142	-0.090376	0.120771
H174	H	0.572315	-0.110849	0.204962
H175	H	0.519058	-0.048103	0.161176
H176	H	0.509353	-0.120439	0.093523
