data_functionalizedCrystal
_audit_creation_method	'MofGen! by Chris Wilmer'
_symmetry_space_group_name_H-M	'P1'
_symmetry_Int_Tables_number	1
_symmetry_cell_setting	triclinic
loop_
_symmetry_equiv_pos_as_xyz
  x,y,z
_cell_length_a	16.959454
_cell_length_b	16.959455
_cell_length_c	16.959447
_cell_angle_alpha	90.015228
_cell_angle_beta	89.973264
_cell_angle_gamma	89.985155
loop_
_atom_site_label
_atom_site_type_symbol
_atom_site_fract_x
_atom_site_fract_y
_atom_site_fract_z
Zn1	Zn	-0.314776	-1.208384	-0.446947
Zn2	Zn	-0.446969	-1.208306	-0.314777
Zn3	Zn	-0.314796	-1.076212	-0.314783
Zn4	Zn	-0.446905	-1.076177	-0.446914
O5	O	-0.380861	-1.142270	-0.380855
O6	O	-0.332330	-1.318984	-0.429427
O7	O	-0.429471	-1.190766	-0.204167
O8	O	-0.204183	-1.093792	-0.332331
O9	O	-0.429452	-1.318927	-0.332322
O10	O	-0.204168	-1.190898	-0.429432
O11	O	-0.332364	-1.093717	-0.204171
O12	O	-0.332302	-0.965597	-0.332299
O13	O	-0.429342	-1.093732	-0.557529
O14	O	-0.429362	-0.965571	-0.429374
O15	O	-0.332268	-1.190864	-0.557554
O16	O	-0.557571	-1.190732	-0.332289
O17	O	-0.557524	-1.093657	-0.429369
C18	C	-0.380828	-0.936904	-0.380834
C19	C	-0.380832	-0.849047	-0.380844
C20	C	-0.330256	-0.477560	-0.330403
C21	C	-0.431482	-0.477582	-0.431332
C22	C	-0.431473	-0.560128	-0.431328
C23	C	-0.380856	-0.601394	-0.380861
C24	C	-0.330248	-0.560114	-0.330396
C25	C	-0.482087	-0.601414	-0.481786
C26	C	-0.482081	-0.683965	-0.481784
C27	C	-0.431460	-0.725233	-0.431320
C28	C	-0.380848	-0.683948	-0.380854
C29	C	-0.330231	-0.725213	-0.330386
C30	C	-0.279615	-0.683930	-0.279924
C31	C	-0.279626	-0.601381	-0.279932
C32	C	-0.431449	-0.807781	-0.431311
C33	C	-0.330223	-0.807767	-0.330379
C34	C	-0.586228	-1.142204	-0.380842
C35	C	-0.674084	-1.142248	-0.380863
C36	C	-1.045565	-1.091796	-0.431399
C37	C	-1.045554	-1.192963	-0.330392
C38	C	-0.963008	-1.192936	-0.330384
C39	C	-0.921737	-1.142337	-0.380885
C40	C	-0.963012	-1.091765	-0.431392
C41	C	-0.921728	-1.243501	-0.279872
C42	C	-0.839177	-1.243475	-0.279862
C43	C	-0.797904	-1.192879	-0.330367
C44	C	-0.839184	-1.142306	-0.380877
C45	C	-0.797912	-1.091707	-0.431377
C46	C	-0.839190	-1.041137	-0.481892
C47	C	-0.921739	-1.041170	-0.481897
C48	C	-0.715356	-1.192847	-0.330362
C49	C	-0.715359	-1.091676	-0.431370
C50	C	-0.174693	-1.142358	-0.380886
C51	C	-0.086837	-1.142395	-0.380899
C52	C	-0.380796	-1.142303	-0.587024
C53	C	-0.380768	-1.142317	-0.674880
C54	C	-0.380886	-0.348438	-0.380873
C55	C	-0.380873	-0.436295	-0.380871
C56	C	-0.431227	-1.091839	-1.046346
C57	C	-0.330143	-1.192983	-1.046367
C58	C	-0.330159	-1.192962	-0.963821
C59	C	-0.380711	-1.142380	-0.922533
C60	C	-0.431247	-1.091818	-0.963792
C61	C	-0.279631	-1.243529	-0.922556
C62	C	-0.279646	-1.243510	-0.840005
C63	C	-0.330195	-1.192923	-0.798716
C64	C	-0.380731	-1.142359	-0.839980
C65	C	-0.431283	-1.091776	-0.798693
C66	C	-0.481817	-1.041207	-0.839955
C67	C	-0.481795	-1.041231	-0.922503
C68	C	-0.330216	-1.192899	-0.716168
C69	C	-0.431303	-1.091755	-0.716139
C70	C	-0.380870	-1.142282	-0.175489
C71	C	-0.380675	-1.142422	-0.087633
H72	H	-0.472696	-0.443979	-0.472416
O73	O	-0.799181	-0.992028	-0.531058
C74	C	-0.819272	-1.009277	-0.609858
H75	H	-0.879190	-1.039678	-0.611537
H76	H	-0.822102	-0.952211	-0.645254
H77	H	-0.772771	-1.049886	-0.636503
H78	H	-0.289075	-1.234074	-0.682575
H79	H	-0.238479	-1.284715	-0.956178
H80	H	-0.955355	-0.999998	-0.523022
H81	H	-0.523302	-0.567810	-0.522869
H82	H	-0.523295	-0.717571	-0.522874
O83	O	-0.230504	-1.292508	-0.799847
C84	C	-0.179442	-1.247499	-0.752139
H85	H	-0.207326	-1.187590	-0.739759
H86	H	-0.168842	-1.279680	-0.694095
H87	H	-0.120868	-1.238831	-0.783983
H88	H	-0.522980	-1.000026	-0.806328
H89	H	-0.238418	-0.567761	-0.238847
O90	O	-0.530993	-0.992157	-0.962500
C91	C	-0.609781	-1.009406	-0.942326
H92	H	-0.611440	-1.039768	-0.882386
H93	H	-0.645217	-0.952345	-0.939501
H94	H	-0.636397	-1.050051	-0.988776
O95	O	-0.480423	-1.042759	-1.086336
C96	C	-0.559212	-1.060009	-1.066163
H97	H	-0.560871	-1.090382	-1.006229
H98	H	-0.594646	-1.002946	-1.063327
H99	H	-0.585830	-1.100644	-1.112621
O100	O	-0.675185	-1.042484	-0.480319
C101	C	-0.627511	-0.991425	-0.435267
H102	H	-0.615158	-1.019333	-0.375389
H103	H	-0.569451	-0.980788	-0.467449
H104	H	-0.659370	-0.932868	-0.426535
H105	H	-0.472462	-1.050557	-0.682529
O106	O	-1.085745	-1.042785	-0.480505
C107	C	-1.133419	-1.087773	-0.531619
H108	H	-1.145764	-1.147697	-0.503798
H109	H	-1.191482	-1.055592	-0.542192
H110	H	-1.101563	-1.096407	-0.590199
O111	O	-0.281069	-1.242046	-1.086592
C112	C	-0.291906	-1.231240	-1.168299
H113	H	-0.317779	-1.170232	-1.179568
H114	H	-0.232696	-1.236639	-1.199691
H115	H	-0.334005	-1.278113	-1.191710
H116	H	-0.289043	-0.443944	-0.289320
O117	O	-1.085764	-1.242057	-0.281383
C118	C	-1.167475	-1.231207	-0.292187
H119	H	-1.178742	-1.205321	-0.353178
H120	H	-1.198833	-1.290414	-0.286834
H121	H	-1.190925	-1.189114	-0.245287
H122	H	-0.472662	-0.841390	-0.472395
O123	O	-0.961888	-1.292666	-0.230895
C124	C	-1.009644	-1.343699	-0.275890
H125	H	-0.984725	-1.348638	-0.338137
H126	H	-1.010630	-1.404510	-0.247281
H127	H	-1.072193	-1.319216	-0.278638
H128	H	-0.289000	-0.841360	-0.289286
O129	O	-0.230559	-0.724107	-0.230860
C130	C	-0.275503	-0.771812	-0.179716
H131	H	-0.335440	-0.784166	-0.207491
H132	H	-0.243299	-0.829868	-0.169177
H133	H	-0.284112	-0.739977	-0.121126
H134	H	-0.681751	-1.234016	-0.289230
O135	O	-0.799205	-1.292675	-0.230775
C136	C	-0.853335	-1.337325	-0.186190
H137	H	-0.912161	-1.340057	-0.218571
H138	H	-0.829454	-1.399602	-0.177818
H139	H	-0.862161	-1.308425	-0.126131
