data_functionalizedCrystal
_audit_creation_method	'MofGen! by Chris Wilmer'
_symmetry_space_group_name_H-M	'P1'
_symmetry_Int_Tables_number	1
_symmetry_cell_setting	triclinic
loop_
_symmetry_equiv_pos_as_xyz
  x,y,z
_cell_length_a	17.638516
_cell_length_b	12.645331
_cell_length_c	17.640968
_cell_angle_alpha	78.770290
_cell_angle_beta	87.860832
_cell_angle_gamma	78.761468
loop_
_atom_site_label
_atom_site_type_symbol
_atom_site_fract_x
_atom_site_fract_y
_atom_site_fract_z
Zn1	Zn	-0.215620	-1.695210	0.490594
Zn2	Zn	-0.368297	-1.626171	0.389246
Zn3	Zn	-0.241308	-1.476522	0.363601
Zn4	Zn	-0.342573	-1.490384	0.516186
O5	O	-0.291950	-1.572072	0.439907
O6	O	-0.235888	-1.834401	0.477173
O7	O	-0.372967	-1.571626	0.279573
O8	O	-0.131625	-1.528623	0.359004
O9	O	-0.348059	-1.783679	0.402713
O10	O	-0.112752	-1.689293	0.452305
O11	O	-0.279669	-1.461679	0.260731
O12	O	-0.254726	-1.330011	0.383819
O13	O	-0.304217	-1.552249	0.619062
O14	O	-0.329125	-1.340196	0.495922
O15	O	-0.210945	-1.702734	0.600260
O16	O	-0.471160	-1.585067	0.427528
O17	O	-0.452261	-1.485305	0.520790
C18	C	-0.291922	-1.296638	0.439865
C19	C	-0.291925	-1.178808	0.439869
C20	C	-0.489263	-1.529233	0.479735
C21	C	-0.573670	-1.511011	0.496800
C22	C	-0.900296	-1.711155	0.310328
C23	C	-0.979606	-1.694019	0.326375
C24	C	-0.959987	-1.589997	0.423412
C25	C	-0.880673	-1.607120	0.407370
C26	C	-0.850835	-1.667701	0.350829
C27	C	-0.831212	-1.563666	0.447870
C28	C	-0.751906	-1.580793	0.431833
C29	C	-0.722060	-1.641373	0.375295
C30	C	-0.771528	-1.684828	0.334791
C31	C	-0.861052	-1.503092	0.504416
C32	C	-0.811591	-1.459638	0.544916
C33	C	-0.732283	-1.476758	0.528875
C34	C	-0.702438	-1.537338	0.472337
C35	C	-0.682816	-1.433303	0.569379
C36	C	-0.603509	-1.450430	0.553342
C37	C	-0.623131	-1.554465	0.456300
C38	C	-0.244777	-1.004966	0.369604
C39	C	-0.244988	-1.127409	0.369385
C40	C	-0.376343	-1.109825	0.434158
C41	C	-0.376096	-0.987166	0.433688
C42	C	-0.255353	-1.042282	0.516202
C43	C	-0.253662	-1.165129	0.515401
C44	C	-0.093862	-1.615113	0.399939
C45	C	-0.009449	-1.633454	0.382907
C46	C	-0.251846	-1.636739	0.637987
C47	C	-0.234756	-1.664296	0.722397
C48	C	-0.291965	-0.848580	0.439934
C49	C	-0.291940	-0.966410	0.439909
C50	C	-0.331842	-1.507729	0.242586
C51	C	-0.348718	-1.480424	0.158133
C52	C	-0.421365	-1.363219	1.048958
C53	C	-0.405297	-1.389138	1.128272
C54	C	-0.308181	-1.545825	1.108685
C55	C	-0.324239	-1.519916	1.029367
C56	C	-0.380832	-1.428613	0.999510
C57	C	-0.283706	-1.585310	0.979919
C58	C	-0.299765	-1.559406	0.900609
C59	C	-0.356357	-1.468109	0.870746
C60	C	-0.396891	-1.402709	0.920200
C61	C	-0.227116	-1.676617	1.009778
C62	C	-0.186583	-1.742011	0.960330
C63	C	-0.202638	-1.716103	0.881018
C64	C	-0.259230	-1.624806	0.851155
C65	C	-0.162104	-1.781503	0.831564
C66	C	-0.178163	-1.755599	0.752254
C67	C	-0.275289	-1.598902	0.771845
H68	H	-0.598837	-1.603787	0.410252
Cl69	Cl	-0.421579	-1.122013	0.349860
Cl70	Cl	-0.160648	-1.023770	0.529025
Cl71	Cl	-0.622345	-1.663022	0.355200
Cl72	Cl	-0.127209	-1.837812	0.690087
Cl73	Cl	-0.433533	-0.946666	0.510648
Cl74	Cl	-0.206931	-1.709184	1.109485
Cl75	Cl	-0.734013	-1.760963	0.263694
Cl76	Cl	-0.346430	-1.484111	0.734303
Cl77	Cl	-0.284334	-1.138138	0.281594
Cl78	Cl	-0.541325	-1.395804	0.604258
H79	H	-0.413127	-1.142650	0.484470
H80	H	-0.369434	-1.447024	0.806167
Cl81	Cl	-0.157631	-1.238078	0.522515
Cl82	Cl	-0.300836	-1.222202	0.598593
H83	H	-0.438309	-1.335880	1.168531
Cl84	Cl	-0.849110	-1.383486	0.615997
H85	H	-0.442957	-1.328340	0.895885
Cl86	Cl	-0.862781	-1.787290	0.239232
H87	H	-0.467431	-1.288850	1.024644
Cl88	Cl	-0.090969	-1.896289	0.869110
Cl89	Cl	-0.237040	-1.660604	1.146227
H90	H	-0.405222	-0.935623	0.378395
H91	H	-0.270041	-0.951930	0.313060
Cl92	Cl	-1.041785	-1.748655	0.275455
H93	H	-0.984292	-1.540675	0.469450
H94	H	-0.925629	-1.489155	0.517475
Cl95	Cl	-0.115442	-1.856790	0.997873
H96	H	-0.707122	-1.383988	0.615421
Cl97	Cl	-0.308081	-1.005071	0.596770
H98	H	-0.182895	-1.174832	0.371111
H99	H	-0.182533	-0.992815	0.371144
