data_functionalizedCrystal
_audit_creation_method	'MofGen! by Chris Wilmer'
_symmetry_space_group_name_H-M	'P1'
_symmetry_Int_Tables_number	1
_symmetry_cell_setting	triclinic
loop_
_symmetry_equiv_pos_as_xyz
  x,y,z
_cell_length_a	17.077404
_cell_length_b	12.645330
_cell_length_c	17.077396
_cell_angle_alpha	90.024069
_cell_angle_beta	90.019501
_cell_angle_gamma	90.017917
loop_
_atom_site_label
_atom_site_type_symbol
_atom_site_fract_x
_atom_site_fract_y
_atom_site_fract_z
Zn1	Zn	1.200083	-0.422033	0.443867
Zn2	Zn	1.200002	-0.599318	0.312611
Zn3	Zn	1.068815	-0.422070	0.312615
Zn4	Zn	1.068795	-0.599256	0.443834
O5	O	1.134424	-0.510669	0.378232
O6	O	1.309919	-0.445561	0.426467
O7	O	1.182574	-0.575848	0.202764
O8	O	1.086270	-0.273718	0.330041
O9	O	1.309860	-0.575812	0.330034
O10	O	1.182712	-0.273691	0.426471
O11	O	1.086192	-0.445624	0.202767
O12	O	0.958965	-0.445563	0.330009
O13	O	1.086236	-0.575705	0.553686
O14	O	0.958950	-0.575741	0.426416
O15	O	1.182693	-0.445500	0.553709
O16	O	1.182555	-0.747657	0.330003
O17	O	1.086157	-0.747611	0.426412
C18	C	0.930476	-0.510650	0.378210
C19	C	0.843226	-0.510667	0.378219
C20	C	1.134366	-0.786099	0.378221
C21	C	1.134414	-0.903929	0.378242
C22	C	0.802249	-0.578553	0.428338
C23	C	0.720268	-0.578555	0.428350
C24	C	0.679267	-0.510677	0.378240
C25	C	0.720250	-0.442783	0.328119
C26	C	0.802229	-0.442777	0.328111
C27	C	0.549380	-0.442804	0.328138
C28	C	0.467395	-0.442812	0.328145
C29	C	0.467419	-0.578583	0.428377
C30	C	0.549398	-0.578576	0.428369
C31	C	0.590376	-0.510684	0.378247
C32	C	1.074020	-1.071508	0.439080
C33	C	1.073711	-0.948949	0.438885
C34	C	1.112022	-0.948522	0.295515
C35	C	1.111653	-1.071120	0.295885
C36	C	1.217568	-1.071018	0.399460
C37	C	1.217059	-0.948411	0.401269
C38	C	1.339168	-0.510689	0.378254
C39	C	1.426418	-0.510698	0.378263
C40	C	1.134471	-0.510591	0.582976
C41	C	1.134491	-0.510558	0.670226
C42	C	1.134502	-0.234164	0.378260
C43	C	1.134536	-0.116334	0.378272
C44	C	1.134421	-0.510671	0.174284
C45	C	1.134553	-0.510405	0.087034
C46	C	1.184718	-0.442755	0.711230
C47	C	1.184728	-0.442719	0.793210
C48	C	1.134514	-0.510493	0.834185
C49	C	1.084281	-0.578300	0.793176
C50	C	1.084268	-0.578329	0.711197
C51	C	1.084313	-0.578236	0.964046
C52	C	1.084326	-0.578208	1.046031
C53	C	1.184772	-0.442627	1.046059
C54	C	1.184759	-0.442656	0.964080
C55	C	1.134528	-0.510464	0.923076
H56	H	0.686908	-0.633836	0.469161
H57	H	1.237995	-1.101863	0.458759
C58	C	0.847346	-0.653222	0.483462
C59	C	0.903741	-0.607387	0.545141
C60	C	0.948836	-0.682055	0.600269
C61	C	0.937536	-0.802558	0.593718
C62	C	0.881139	-0.848400	0.532036
C63	C	0.836044	-0.773731	0.476908
H64	H	0.912108	-0.518178	0.549993
H65	H	0.990585	-0.648120	0.645930
H66	H	0.970918	-0.857832	0.634527
H67	H	0.872771	-0.937609	0.527183
H68	H	0.794295	-0.807667	0.431247
C69	C	0.990555	-0.909447	0.419913
C70	C	0.976344	-0.839970	0.347251
C71	C	0.893185	-0.800471	0.328273
C72	C	0.824236	-0.830450	0.381958
C73	C	0.838445	-0.899931	0.454624
C74	C	0.921604	-0.939429	0.473602
H75	H	1.027386	-0.817775	0.307506
H76	H	0.882667	-0.749037	0.274480
H77	H	0.762676	-0.801210	0.367910
H78	H	0.787403	-0.922126	0.494369
H79	H	0.932122	-0.990864	0.527395
C80	C	0.991380	-1.113250	0.420362
C81	C	0.953450	-1.088833	0.340574
C82	C	0.870812	-1.130581	0.321853
C83	C	0.826104	-1.196746	0.382920
C84	C	0.864033	-1.221166	0.462713
C85	C	0.946671	-1.179418	0.481434
H86	H	0.986546	-1.039851	0.295364
H87	H	0.842734	-1.112503	0.262784
H88	H	0.764930	-1.227650	0.369061
H89	H	0.830938	-1.270148	0.507923
H90	H	0.974749	-1.197496	0.540503
C91	C	1.239980	-0.368132	0.838311
C92	C	1.329212	-0.376801	0.827055
C93	C	1.384465	-0.302207	0.872153
C94	C	1.350486	-0.218943	0.928507
C95	C	1.261249	-0.210270	0.939765
C96	C	1.205996	-0.284865	0.894667
H97	H	1.354370	-0.438441	0.785336
H98	H	1.450525	-0.308627	0.863819
H99	H	1.391388	-0.163724	0.961892
H100	H	1.236092	-0.148631	0.981484
H101	H	1.139937	-0.278445	0.903001
H102	H	0.582779	-0.633855	0.469169
H103	H	1.043360	-0.633530	0.677813
C104	C	1.278481	-1.110177	0.339633
C105	C	1.253055	-1.182906	0.271886
C106	C	1.313959	-1.222069	0.212056
C107	C	1.400289	-1.188504	0.219974
C108	C	1.425719	-1.115771	0.287724
C109	C	1.364815	-1.076607	0.347554
H110	H	1.189145	-1.207756	0.266022
H111	H	1.295134	-1.275911	0.161903
H112	H	1.445374	-1.217495	0.175684
H113	H	1.489629	-1.090920	0.293588
H114	H	1.383640	-1.022765	0.397707
C115	C	1.029066	-0.652842	0.918946
C116	C	1.063061	-0.736095	0.862593
C117	C	1.007822	-0.810710	0.817496
C118	C	0.918588	-0.802073	0.828752
C119	C	0.884588	-0.718817	0.885108
C120	C	0.939827	-0.644202	0.930205
H121	H	1.129121	-0.742491	0.854259
H122	H	1.032992	-0.872342	0.775778
H123	H	0.877697	-0.857308	0.795368
H124	H	0.818528	-0.712421	0.893442
H125	H	0.914658	-0.582570	0.971923
H126	H	1.225653	-0.387474	0.930721
H127	H	1.050956	-1.099811	0.277936
H128	H	0.434014	-0.387527	0.287350
H129	H	1.225671	-0.387413	1.079449
H130	H	1.154702	-0.919362	0.248970
C131	C	0.422348	-0.653266	0.483513
C132	C	0.332175	-0.653276	0.483529
C133	C	0.287100	-0.727962	0.538658
C134	C	0.332199	-0.802637	0.593771
C135	C	0.422377	-0.802629	0.593757
C136	C	0.467452	-0.727943	0.538628
H137	H	0.298785	-0.597995	0.442729
H138	H	0.220343	-0.727968	0.538668
H139	H	0.298832	-0.857924	0.634581
H140	H	0.455767	-0.857910	0.634557
H141	H	0.534209	-0.727938	0.538618
H142	H	0.582741	-0.387510	0.287331
H143	H	0.686860	-0.387511	0.287322
H144	H	1.043436	-0.633394	1.079391
C145	C	1.281151	-0.907049	0.345745
C146	C	1.296217	-0.787348	0.338786
C147	C	1.360293	-0.746005	0.283230
C148	C	1.409304	-0.824363	0.234633
C149	C	1.394240	-0.944071	0.241590
C150	C	1.330164	-0.985414	0.297146
H151	H	1.259935	-0.729337	0.374762
H152	H	1.371444	-0.657389	0.278080
H153	H	1.456737	-0.793758	0.193507
H154	H	1.430522	-1.002083	0.205614
H155	H	1.319013	-1.074030	0.302296
C156	C	1.239955	-0.368201	0.666160
C157	C	1.233583	-0.247683	0.677444
C158	C	1.288820	-0.173124	0.632377
C159	C	1.350429	-0.219083	0.576026
C160	C	1.356804	-0.339607	0.564740
C161	C	1.301567	-0.414166	0.609807
H162	H	1.187974	-0.213656	0.719161
H163	H	1.284100	-0.083904	0.640732
H164	H	1.391318	-0.163890	0.542665
H165	H	1.402413	-0.373634	0.523023
H166	H	1.306287	-0.503386	0.601452
C167	C	1.092586	-0.908205	0.521763
C168	C	1.108049	-0.987222	0.588588
C169	C	1.126899	-0.946485	0.671475
C170	C	1.130284	-0.826730	0.687538
C171	C	1.114820	-0.747705	0.620711
C172	C	1.095971	-0.788443	0.537823
H173	H	1.105544	-1.075878	0.576699
H174	H	1.138346	-1.004985	0.720945
H175	H	1.144237	-0.796574	0.748896
H176	H	1.117325	-0.659049	0.632599
H177	H	1.084523	-0.729943	0.488354
H178	H	1.153818	-1.100776	0.249033
H179	H	1.051958	-0.917910	0.277242
H180	H	0.835591	-0.387492	0.287304
H181	H	1.087901	-1.100921	0.500623
H182	H	1.233945	-0.919262	0.462152
H183	H	1.043393	-0.633479	0.826544
