data_functionalizedCrystal
_audit_creation_method	'MofGen! by Chris Wilmer'
_symmetry_space_group_name_H-M	'P1'
_symmetry_Int_Tables_number	1
_symmetry_cell_setting	triclinic
loop_
_symmetry_equiv_pos_as_xyz
  x,y,z
_cell_length_a	19.805407
_cell_length_b	16.959447
_cell_length_c	19.805405
_cell_angle_alpha	90.031835
_cell_angle_beta	89.972273
_cell_angle_gamma	89.983607
loop_
_atom_site_label
_atom_site_type_symbol
_atom_site_fract_x
_atom_site_fract_y
_atom_site_fract_z
Zn1	Zn	1.034708	-0.446944	0.269450
Zn2	Zn	1.034627	-0.314762	0.382647
Zn3	Zn	0.921529	-0.314777	0.269477
Zn4	Zn	0.921484	-0.446896	0.382602
O5	O	0.978087	-0.380845	0.326044
O6	O	1.129414	-0.429424	0.284473
O7	O	1.019609	-0.204153	0.367665
O8	O	0.936596	-0.332335	0.174757
O9	O	1.129354	-0.332310	0.367638
O10	O	1.019748	-0.429438	0.174737
O11	O	0.936517	-0.204164	0.284519
O12	O	0.826807	-0.332289	0.284476
O13	O	0.936518	-0.557513	0.367562
O14	O	0.826773	-0.429356	0.367589
O15	O	1.019704	-0.557549	0.284430
O16	O	1.019565	-0.332263	0.477357
O17	O	0.936439	-0.429342	0.477325
C18	C	0.802231	-0.380819	0.326031
C19	C	0.726999	-0.380827	0.326042
C20	C	0.691655	-0.431288	0.369384
C21	C	0.620967	-0.431299	0.369385
C22	C	0.585623	-0.380845	0.326047
C23	C	0.620972	-0.330381	0.282700
C24	C	0.691659	-0.330375	0.282696
C25	C	0.335899	-0.330407	0.282715
C26	C	0.265207	-0.330416	0.282724
C27	C	0.265206	-0.431332	0.369404
C28	C	0.335893	-0.431325	0.369400
C29	C	0.371236	-0.380865	0.326051
C30	C	0.447884	-0.380855	0.326049
C31	C	0.508976	-0.380850	0.326052
C32	C	0.978115	-0.587013	0.325988
C33	C	0.978127	-0.674870	0.325964
C34	C	0.934897	-1.046329	0.369176
C35	C	1.021519	-1.046361	0.282609
C36	C	1.021501	-0.963816	0.282624
C37	C	0.978181	-0.922523	0.325916
C38	C	0.934879	-0.963776	0.369193
C39	C	1.064807	-0.922556	0.239352
C40	C	1.064791	-0.840005	0.239365
C41	C	1.021467	-0.798711	0.282654
C42	C	0.978163	-0.839969	0.325933
C43	C	0.934843	-0.798676	0.369224
C44	C	0.891535	-0.839933	0.412500
C45	C	0.891555	-0.922482	0.412482
C46	C	1.021447	-0.716162	0.282672
C47	C	0.934825	-0.716123	0.369242
C48	C	1.154630	-0.380871	0.326057
C49	C	1.229862	-0.380882	0.326063
C50	C	0.978007	-0.380813	0.501900
C51	C	0.978034	-0.380826	0.577132
C52	C	0.978098	-0.175478	0.326051
C53	C	0.978217	-0.087622	0.325884
C54	C	1.021359	-0.330331	0.612471
C55	C	1.021386	-0.330352	0.683159
C56	C	0.978085	-0.380863	0.718508
C57	C	0.934758	-0.431362	0.683164
C58	C	0.934735	-0.431346	0.612477
C59	C	0.934851	-0.431432	0.968237
C60	C	0.934876	-0.431443	1.038929
C61	C	1.021503	-0.330437	1.038920
C62	C	1.021480	-0.330421	0.968232
C63	C	0.978156	-0.380923	0.932895
C64	C	0.978128	-0.380902	0.856246
C65	C	0.978109	-0.380880	0.795155
C66	C	0.978180	-0.380903	1.149501
C67	C	0.978205	-0.380952	1.074269
H68	H	0.720435	-0.289288	0.247399
H69	H	1.056737	-0.289287	0.939454
C70	C	0.374767	-0.274895	0.235035
N71	N	0.404044	-0.233079	0.199120
C72	C	0.887228	-0.487026	0.929375
N73	N	0.851369	-0.528918	0.900102
H74	H	0.364667	-0.472408	0.404692
H75	H	1.056782	-0.289319	1.067700
H76	H	0.236422	-0.472422	0.404698
H77	H	0.592190	-0.289304	0.247411
C78	C	0.730526	-0.486793	0.417060
N79	N	0.759802	-0.528603	0.452969
H80	H	0.236432	-0.289330	0.247429
H81	H	1.100055	-0.806421	0.204127
H82	H	0.592193	-0.472389	0.404679
C83	C	0.887168	-0.670707	0.416866
N84	N	0.851272	-0.636501	0.452737
C85	C	0.887075	-0.486894	0.573605
N86	N	0.851177	-0.528737	0.544327
C87	C	0.843885	-0.794500	0.460120
N88	N	0.807995	-0.760277	0.495985
H89	H	0.856298	-0.956080	0.447717
C90	C	0.887243	-0.487016	1.077811
N91	N	0.851367	-0.528871	1.107097
H92	H	0.899635	-1.079924	0.404408
H93	H	1.056792	-1.079987	0.247367
H94	H	1.100080	-0.956183	0.204110
C95	C	1.069084	-0.670784	0.235073
N96	N	1.104965	-0.636606	0.199216
H97	H	1.056617	-0.289196	0.583695
C98	C	1.069043	-0.274799	0.722029
N99	N	1.104939	-0.232952	0.751305
H100	H	0.899504	-0.472493	0.711950
