data_functionalizedCrystal
_audit_creation_method	'MofGen! by Chris Wilmer'
_symmetry_space_group_name_H-M	'P1'
_symmetry_Int_Tables_number	1
_symmetry_cell_setting	triclinic
loop_
_symmetry_equiv_pos_as_xyz
  x,y,z
_cell_length_a	19.077105
_cell_length_b	18.050589
_cell_length_c	19.076919
_cell_angle_alpha	92.275255
_cell_angle_beta	90.076224
_cell_angle_gamma	87.724731
loop_
_atom_site_label
_atom_site_type_symbol
_atom_site_fract_x
_atom_site_fract_y
_atom_site_fract_z
Zn1	Zn	1.058247	-0.359281	-0.440438
Zn2	Zn	1.308247	-0.109281	-0.190438
Zn3	Zn	1.558247	0.140719	0.059562
Zn4	Zn	1.808247	0.390719	0.309562
Zn5	Zn	1.062879	-0.478689	-0.322938
Zn6	Zn	1.312879	-0.228689	-0.072938
Zn7	Zn	1.562879	0.021311	0.177062
Zn8	Zn	1.812879	0.271311	0.427062
Zn9	Zn	0.945466	-0.349333	-0.318231
Zn10	Zn	1.195466	-0.099333	-0.068231
Zn11	Zn	1.445466	0.150667	0.181769
Zn12	Zn	1.695466	0.400667	0.431769
Zn13	Zn	0.940701	-0.478241	-0.435691
Zn14	Zn	1.190701	-0.228241	-0.185691
Zn15	Zn	1.440701	0.021759	0.064309
Zn16	Zn	1.690701	0.271759	0.314309
O17	O	1.001823	-0.416386	-0.379325
O18	O	1.251823	-0.166386	-0.129325
O19	O	1.501823	0.083614	0.120675
O20	O	1.751823	0.333614	0.370675
O21	O	1.157193	-0.379472	-0.428809
O22	O	1.407193	-0.129472	-0.178809
O23	O	1.657193	0.120528	0.071191
O24	O	1.907193	0.370528	0.321191
O25	O	1.051237	-0.457554	-0.223983
O26	O	1.301237	-0.207554	0.026017
O27	O	1.551237	0.042446	0.276017
O28	O	1.801237	0.292446	0.526017
O29	O	0.960482	-0.246731	-0.334459
O30	O	1.210482	0.003269	-0.084459
O31	O	1.460482	0.253269	0.165541
O32	O	1.710482	0.503269	0.415541
O33	O	1.160596	-0.467201	-0.342482
O34	O	1.410596	-0.217201	-0.092482
O35	O	1.660596	0.032799	0.157518
O36	O	1.910596	0.282799	0.407518
O37	O	1.043342	-0.254040	-0.424244
O38	O	1.293342	-0.004040	-0.174244
O39	O	1.543342	0.245960	0.075756
O40	O	1.793342	0.495960	0.325756
O41	O	0.964973	-0.362516	-0.220524
O42	O	1.214973	-0.112516	0.029476
O43	O	1.464973	0.137484	0.279476
O44	O	1.714973	0.387484	0.529476
O45	O	0.846502	-0.362082	-0.329856
O46	O	1.096502	-0.112082	-0.079856
O47	O	1.346502	0.137918	0.170144
O48	O	1.596502	0.387918	0.420144
O49	O	0.952361	-0.466437	-0.534652
O50	O	1.202361	-0.216437	-0.284652
O51	O	1.452361	0.033563	-0.034652
O52	O	1.702361	0.283563	0.215348
O53	O	0.843002	-0.456790	-0.416153
O54	O	1.093002	-0.206790	-0.166153
O55	O	1.343002	0.043210	0.083847
O56	O	1.593002	0.293210	0.333847
O57	O	1.038722	-0.379038	-0.538140
O58	O	1.288722	-0.129038	-0.288140
O59	O	1.538722	0.120962	-0.038140
O60	O	1.788722	0.370962	0.211860
O61	O	1.046617	-0.582551	-0.337879
O62	O	1.296617	-0.332551	-0.087879
O63	O	1.546617	-0.082551	0.162121
O64	O	1.796617	0.167449	0.412121
O65	O	0.956853	-0.582222	-0.420717
O66	O	1.206853	-0.332222	-0.170717
O67	O	1.456853	-0.082222	0.079283
O68	O	1.706853	0.167778	0.329283
C69	C	0.819256	-0.408308	-0.371979
C70	C	1.069256	-0.158308	-0.121979
C71	C	1.319256	0.091692	0.128021
C72	C	1.569256	0.341692	0.378021
C73	C	0.741152	-0.404871	-0.368853
C74	C	0.991152	-0.154871	-0.118853
C75	C	1.241152	0.095129	0.131147
C76	C	1.491152	0.345129	0.381147
C77	C	1.001739	-0.609334	-0.379310
C78	C	1.251739	-0.359334	-0.129310
C79	C	1.501739	-0.109334	0.120690
C80	C	1.751739	0.140666	0.370690
C81	C	1.001766	-0.691882	-0.379329
C82	C	1.251766	-0.441882	-0.129329
C83	C	1.501766	-0.191882	0.120671
C84	C	1.751766	0.058118	0.370671
C85	C	0.702657	-0.452635	-0.412244
C86	C	0.952657	-0.202635	-0.162244
C87	C	1.202657	0.047365	0.087756
C88	C	1.452657	0.297365	0.337756
C89	C	0.629270	-0.449396	-0.409310
C90	C	0.879270	-0.199396	-0.159310
C91	C	1.129270	0.050604	0.090690
C92	C	1.379270	0.300604	0.340690
C93	C	0.594379	-0.398396	-0.362981
C94	C	0.844379	-0.148396	-0.112981
C95	C	1.094379	0.101604	0.137019
C96	C	1.344379	0.351604	0.387019
C97	C	0.632879	-0.350627	-0.319588
C98	C	0.882879	-0.100627	-0.069588
C99	C	1.132879	0.149373	0.180412
C100	C	1.382879	0.399373	0.430412
C101	C	0.706264	-0.353863	-0.322526
C102	C	0.956264	-0.103863	-0.072526
C103	C	1.206264	0.146137	0.177474
C104	C	1.456264	0.396137	0.427474
C105	C	0.375093	-0.383419	-0.349388
C106	C	0.625093	-0.133419	-0.099388
C107	C	0.875093	0.116581	0.150612
C108	C	1.125093	0.366581	0.400612
C109	C	0.301702	-0.380188	-0.346452
C110	C	0.551702	-0.130188	-0.096452
C111	C	0.801702	0.119812	0.153548
C112	C	1.051702	0.369812	0.403548
C113	C	0.298098	-0.478956	-0.436175
C114	C	0.548098	-0.228956	-0.186175
C115	C	0.798098	0.021044	0.063825
C116	C	1.048098	0.271044	0.313825
C117	C	0.371485	-0.482191	-0.439105
C118	C	0.621485	-0.232191	-0.189105
C119	C	0.871485	0.017809	0.060895
C120	C	1.121485	0.267809	0.310895
C121	C	0.409979	-0.434419	-0.395715
C122	C	0.659979	-0.184419	-0.145715
C123	C	0.909979	0.065581	0.104285
C124	C	1.159979	0.315581	0.354285
N125	N	0.519366	-0.395085	-0.359980
N126	N	0.769366	-0.145085	-0.109980
N127	N	1.019366	0.104915	0.140020
N128	N	1.269366	0.354915	0.390020
N129	N	0.484990	-0.437727	-0.398721
N130	N	0.734990	-0.187727	-0.148721
N131	N	0.984990	0.062273	0.101279
N132	N	1.234990	0.312273	0.351279
C133	C	0.952999	-0.891182	-0.424363
C134	C	1.202999	-0.641182	-0.174363
C135	C	1.452999	-0.391182	0.075637
C136	C	1.702999	-0.141182	0.325637
C137	C	0.938449	-0.937256	-0.359556
C138	C	1.188449	-0.687256	-0.109556
C139	C	1.438449	-0.437256	0.140444
C140	C	1.688449	-0.187256	0.390444
C141	C	1.001835	-0.843016	-0.379341
C142	C	1.251835	-0.593016	-0.129341
C143	C	1.501835	-0.343016	0.120659
C144	C	1.751835	-0.093016	0.370659
C145	C	1.016419	-0.944025	-0.444157
C146	C	1.266419	-0.694025	-0.194157
C147	C	1.516419	-0.444025	0.055843
C148	C	1.766419	-0.194025	0.305843
C149	C	1.001900	-0.989004	-0.379358
C150	C	1.251900	-0.739004	-0.129358
C151	C	1.501900	-0.489004	0.120642
C152	C	1.751900	-0.239004	0.370642
C153	C	0.987253	-0.887999	-0.314499
C154	C	1.237253	-0.637999	-0.064499
C155	C	1.487253	-0.387999	0.185501
C156	C	1.737253	-0.137999	0.435501
C157	C	1.065250	-0.894768	-0.399145
C158	C	1.315250	-0.644768	-0.149145
C159	C	1.565250	-0.394768	0.100855
C160	C	1.815250	-0.144768	0.350855
C161	C	1.050726	-0.940818	-0.334295
C162	C	1.300726	-0.690818	-0.084295
C163	C	1.550726	-0.440818	0.165705
C164	C	1.800726	-0.190818	0.415705
C165	C	1.001796	-0.758915	-0.379332
C166	C	1.251796	-0.508915	-0.129332
C167	C	1.501796	-0.258915	0.120668
C168	C	1.751796	-0.008915	0.370668
C169	C	1.001939	-1.073102	-0.379360
C170	C	1.251939	-0.823102	-0.129360
C171	C	1.501939	-0.573102	0.120640
C172	C	1.751939	-0.323102	0.370640
C173	C	1.185104	-0.424496	-0.386700
C174	C	1.435104	-0.174496	-0.136700
C175	C	1.685104	0.075504	0.113300
C176	C	1.935104	0.325504	0.363300
C177	C	1.263207	-0.427952	-0.389843
C178	C	1.513207	-0.177952	-0.139843
C179	C	1.763207	0.072048	0.110157
C180	C	2.013207	0.322048	0.360157
C181	C	0.994493	-0.423797	-0.562605
C182	C	1.244493	-0.173797	-0.312605
C183	C	1.494493	0.076203	-0.062605
C184	C	1.744493	0.326203	0.187395
C185	C	0.991370	-0.426955	-0.640709
C186	C	1.241370	-0.176955	-0.390709
C187	C	1.491370	0.073045	-0.140709
C188	C	1.741370	0.323045	0.109291
C189	C	1.001926	-0.222686	-0.379356
C190	C	1.251926	0.027314	-0.129356
C191	C	1.501926	0.277314	0.120644
C192	C	1.751926	0.527314	0.370644
C193	C	1.001970	-0.140143	-0.379369
C194	C	1.251970	0.109857	-0.129369
C195	C	1.501970	0.359857	0.120631
C196	C	1.751970	0.609857	0.370631
C197	C	1.034863	-0.382937	-0.679219
C198	C	1.284863	-0.132937	-0.429219
C199	C	1.534863	0.117063	-0.179219
C200	C	1.784863	0.367063	0.070781
C201	C	1.031920	-0.385901	-0.752605
C202	C	1.281920	-0.135901	-0.502605
C203	C	1.531920	0.114099	-0.252605
C204	C	1.781920	0.364099	-0.002605
C205	C	0.985486	-0.432888	-0.787479
C206	C	1.235486	-0.182888	-0.537479
C207	C	1.485486	0.067112	-0.287479
C208	C	1.735486	0.317112	-0.037479
C209	C	0.941988	-0.476908	-0.748964
C210	C	1.191988	-0.226908	-0.498964
C211	C	1.441988	0.023092	-0.248964
C212	C	1.691988	0.273092	0.001036
C213	C	0.944928	-0.473940	-0.675579
C214	C	1.194928	-0.223940	-0.425579
C215	C	1.444928	0.026060	-0.175579
C216	C	1.694928	0.276060	0.074421
C217	C	0.971867	-0.446642	-1.006761
C218	C	1.221867	-0.196642	-0.756761
C219	C	1.471867	0.053358	-0.506761
C220	C	1.721867	0.303358	-0.256761
C221	C	0.968931	-0.449609	-1.080151
C222	C	1.218931	-0.199609	-0.830151
C223	C	1.468931	0.050391	-0.580151
C224	C	1.718931	0.300391	-0.330151
C225	C	1.058863	-0.358601	-1.083787
C226	C	1.308863	-0.108601	-0.833787
C227	C	1.558863	0.141399	-0.583787
C228	C	1.808863	0.391399	-0.333787
C229	C	1.061802	-0.355639	-1.010401
C230	C	1.311802	-0.105639	-0.760401
C231	C	1.561802	0.144361	-0.510401
C232	C	1.811802	0.394361	-0.260401
C233	C	1.018301	-0.399657	-0.971892
C234	C	1.268301	-0.149657	-0.721892
C235	C	1.518301	0.100343	-0.471892
C236	C	1.768301	0.350343	-0.221892
N237	N	0.982478	-0.435921	-0.862492
N238	N	1.232478	-0.185921	-0.612492
N239	N	1.482478	0.064079	-0.362492
N240	N	1.732478	0.314079	-0.112492
N241	N	1.021307	-0.396619	-0.896881
N242	N	1.271307	-0.146619	-0.646881
N243	N	1.521307	0.103381	-0.396881
N244	N	1.771307	0.353381	-0.146881
C245	C	1.009165	-0.408952	-0.196759
C246	C	1.259165	-0.158952	0.053241
C247	C	1.509165	0.091048	0.303241
C248	C	1.759165	0.341048	0.553241
C249	C	1.012425	-0.405591	-0.118661
C250	C	1.262425	-0.155591	0.131339
C251	C	1.512425	0.094409	0.381339
C252	C	1.762425	0.344409	0.631339
H253	H	0.731060	-0.494167	-0.449968
H254	H	0.981060	-0.244167	-0.199968
H255	H	1.231060	0.005833	0.050032
H256	H	1.481060	0.255833	0.300032
H257	H	1.099616	-0.317380	-0.982011
H258	H	1.349616	-0.067380	-0.732011
H259	H	1.599616	0.182620	-0.482011
H260	H	1.849616	0.432620	-0.232011
H261	H	0.884851	-0.956052	-0.342820
H262	H	1.134851	-0.706052	-0.092820
H263	H	1.384851	-0.456052	0.157180
H264	H	1.634851	-0.206052	0.407180
H265	H	0.974881	-0.863588	-0.259675
H266	H	1.224881	-0.613588	-0.009675
H267	H	1.474881	-0.363588	0.240325
H268	H	1.724881	-0.113588	0.490325
F269	F	0.898948	-0.862693	-0.474051
F270	F	1.148948	-0.612693	-0.224051
F271	F	1.398948	-0.362693	0.025949
F272	F	1.648948	-0.112693	0.275949
H273	H	1.092055	-0.962470	-0.296183
H274	H	1.342055	-0.712470	-0.046183
H275	H	1.592055	-0.462470	0.203817
H276	H	1.842055	-0.212470	0.453817
F277	F	0.898634	-0.520788	-0.634594
F278	F	1.148634	-0.270788	-0.384594
F279	F	1.398634	-0.020788	-0.134594
F280	F	1.648634	0.229212	0.115406
H281	H	0.931117	-0.487874	-1.108544
H282	H	1.181117	-0.237874	-0.858544
H283	H	1.431117	0.012126	-0.608544
H284	H	1.681117	0.262126	-0.358544
H285	H	1.118835	-0.875974	-0.415910
H286	H	1.368835	-0.625974	-0.165910
H287	H	1.618835	-0.375974	0.084090
H288	H	1.868835	-0.125974	0.334090
H289	H	1.028729	-0.968523	-0.498964
H290	H	1.278729	-0.718523	-0.248964
H291	H	1.528729	-0.468523	0.001036
H292	H	1.778729	-0.218523	0.251036
H293	H	0.936456	-0.482496	-0.975416
H294	H	1.186456	-0.232496	-0.725416
H295	H	1.436456	0.017504	-0.475416
H296	H	1.686456	0.267504	-0.225416
H297	H	0.904177	-0.515163	-0.777365
H298	H	1.154177	-0.265163	-0.527365
H299	H	1.404177	-0.015163	-0.277365
H300	H	1.654177	0.234837	-0.027365
H301	H	1.072677	-0.344677	-0.650829
H302	H	1.322677	-0.094677	-0.400829
H303	H	1.572677	0.155323	-0.150829
H304	H	1.822677	0.405323	0.099171
F305	F	1.078236	-0.339077	-0.793588
F306	F	1.328236	-0.089077	-0.543588
F307	F	1.578236	0.160923	-0.293588
F308	F	1.828236	0.410923	-0.043588
H309	H	0.597931	-0.488291	-0.444643
H310	H	0.847931	-0.238291	-0.194643
H311	H	1.097931	0.011709	0.055357
H312	H	1.347931	0.261709	0.305357
H313	H	0.273296	-0.338649	-0.308729
H314	H	0.523296	-0.088649	-0.058729
H315	H	0.773296	0.161351	0.191271
H316	H	1.023296	0.411351	0.441271
F317	F	1.105155	-0.311756	-1.124776
F318	F	1.355155	-0.061756	-0.874776
F319	F	1.605155	0.188244	-0.624776
F320	F	1.855155	0.438244	-0.374776
H321	H	0.399888	-0.523722	-0.476830
H322	H	0.649888	-0.273722	-0.226830
H323	H	0.899888	-0.023722	0.023170
H324	H	1.149888	0.226278	0.273170
H325	H	0.406425	-0.344525	-0.314051
H326	H	0.656425	-0.094525	-0.064051
H327	H	0.906425	0.155475	0.185949
H328	H	1.156425	0.405475	0.435949
F329	F	0.257126	-0.529796	-0.482349
F330	F	0.507126	-0.279796	-0.232349
F331	F	0.757126	-0.029796	0.017651
F332	F	1.007126	0.220204	0.267651
H333	H	0.604465	-0.309099	-0.281869
H334	H	0.854465	-0.059099	-0.031869
H335	H	1.104465	0.190901	0.218131
H336	H	1.354465	0.440901	0.468131
H337	H	0.737606	-0.314965	-0.287196
H338	H	0.987606	-0.064965	-0.037196
H339	H	1.237606	0.185035	0.212804
H340	H	1.487606	0.435035	0.462804
