data_functionalizedCrystal
_audit_creation_method	'MofGen! by Chris Wilmer'
_symmetry_space_group_name_H-M	'P1'
_symmetry_Int_Tables_number	1
_symmetry_cell_setting	triclinic
loop_
_symmetry_equiv_pos_as_xyz
  x,y,z
_cell_length_a	14.971486
_cell_length_b	19.188930
_cell_length_c	14.048226
_cell_angle_alpha	89.988446
_cell_angle_beta	89.998499
_cell_angle_gamma	83.379455
loop_
_atom_site_label
_atom_site_type_symbol
_atom_site_fract_x
_atom_site_fract_y
_atom_site_fract_z
O1	O	1.186466	0.090988	-0.079062
O2	O	1.686466	0.590988	0.420938
O3	O	0.926009	0.101884	-0.079090
O4	O	1.426009	0.601884	0.420910
O5	O	1.063754	-0.005196	-0.079057
O6	O	1.563754	0.494804	0.420943
O7	O	1.048721	0.198067	-0.079095
O8	O	1.548721	0.698067	0.420905
O9	O	1.063737	-0.005202	0.079265
O10	O	1.563737	0.494798	0.579265
O11	O	0.925992	0.101878	0.079232
O12	O	1.425992	0.601878	0.579232
O13	O	1.186450	0.090982	0.079259
O14	O	1.686450	0.590982	0.579259
Zn15	Zn	1.056218	0.096429	0.104382
Zn16	Zn	1.556218	0.596429	0.604382
Zn17	Zn	1.056240	0.096437	-0.104213
Zn18	Zn	1.556240	0.596437	0.395787
O19	O	1.048705	0.198061	0.079226
O20	O	1.548705	0.698061	0.579226
C21	C	0.892678	0.101393	0.000068
C22	C	1.392678	0.601393	0.500068
C23	C	0.793389	0.099933	0.000058
C24	C	1.293389	0.599933	0.500058
C25	C	0.735831	0.162839	0.000048
C26	C	1.235831	0.662839	0.500048
C27	C	0.642539	0.161463	0.000062
C28	C	1.142539	0.661463	0.500062
C29	C	0.606806	0.097180	0.000080
C30	C	1.106806	0.597180	0.500080
C31	C	0.664371	0.034269	0.000094
C32	C	1.164371	0.534269	0.500094
C33	C	0.757662	0.035646	0.000086
C34	C	1.257662	0.535646	0.500086
C35	C	0.469924	0.031403	0.000108
C36	C	0.969924	0.531403	0.500108
C37	C	0.376627	0.030026	0.000113
C38	C	0.876627	0.530026	0.500113
C39	C	0.354801	0.157221	0.000083
C40	C	0.854801	0.657221	0.500083
C41	C	0.448092	0.158598	0.000076
C42	C	0.948092	0.658598	0.500076
C43	C	0.505650	0.095686	0.000088
C44	C	1.005650	0.595686	0.500088
C45	C	1.063259	-0.031211	0.000107
C46	C	1.563259	0.468789	0.500107
C47	C	1.061797	-0.108721	0.000115
C48	C	1.561797	0.391279	0.500115
C49	C	1.142622	-0.153384	0.000128
C50	C	1.642622	0.346616	0.500128
C51	C	1.141249	-0.226213	0.000112
C52	C	1.641249	0.273787	0.500112
C53	C	1.059047	-0.254374	0.000103
C54	C	1.559047	0.245626	0.500103
C55	C	0.978212	-0.209700	0.000085
C56	C	1.478212	0.290300	0.500085
C57	C	0.979587	-0.136874	0.000091
C58	C	1.479587	0.363126	0.500091
N59	N	0.996208	-0.362583	0.053976
N60	N	1.496208	0.137417	0.553976
N61	N	0.994907	-0.431766	0.053973
N62	N	1.494907	0.068234	0.553973
C63	C	1.054899	-0.473796	0.000084
C64	C	1.554899	0.026204	0.500084
N65	N	1.116254	-0.444031	-0.053790
N66	N	1.616254	0.055969	0.446210
N67	N	1.117558	-0.374842	-0.053782
N68	N	1.617558	0.125158	0.446218
C69	C	1.057547	-0.333341	0.000096
C70	C	1.557547	0.166659	0.500096
C71	C	1.134240	-0.597429	0.000078
C72	C	1.634240	-0.097429	0.500078
C73	C	1.132864	-0.670258	0.000057
C74	C	1.632864	-0.170258	0.500057
C75	C	0.969825	-0.653744	0.000039
C76	C	1.469825	-0.153744	0.500039
C77	C	0.971203	-0.580916	0.000051
C78	C	1.471203	-0.080916	0.500051
C79	C	1.053413	-0.552763	0.000075
C80	C	1.553413	-0.052763	0.500075
C81	C	1.219780	0.091472	0.000100
C82	C	1.719780	0.591472	0.500100
C83	C	1.319070	0.092932	0.000103
C84	C	1.819070	0.592932	0.500103
C85	C	1.049200	0.224077	0.000061
C86	C	1.549200	0.724077	0.500061
C87	C	1.050661	0.301586	0.000046
C88	C	1.550661	0.801586	0.500046
N89	N	1.056210	0.096422	0.246743
N90	N	1.556210	0.596422	0.746743
N91	N	1.056256	0.096437	-0.246573
N92	N	1.556256	0.596437	0.253427
C93	C	1.117223	0.049027	0.296576
C94	C	1.617223	0.549027	0.796576
C95	C	1.117229	0.049027	0.396233
C96	C	1.617229	0.549027	0.896233
C97	C	1.056226	0.096426	0.446057
C98	C	1.556226	0.596426	0.946057
C99	C	0.995207	0.143823	0.396217
C100	C	1.495207	0.643823	0.896217
C101	C	0.995197	0.143819	0.296561
C102	C	1.495197	0.643819	0.796561
C103	C	0.995233	0.143828	0.603931
C104	C	1.495233	0.643828	1.103931
C105	C	0.995243	0.143833	0.703594
C106	C	1.495243	0.643833	1.203594
C107	C	1.117264	0.049035	0.703603
C108	C	1.617264	0.549035	1.203603
C109	C	1.117255	0.049032	0.603948
C110	C	1.617255	0.549032	1.103948
C111	C	1.056236	0.096430	0.554115
C112	C	1.556236	0.596430	1.054115
H113	H	0.595679	0.212688	0.000052
H114	H	1.095679	0.712688	0.500052
Cl115	Cl	1.242864	-0.282372	0.000128
Cl116	Cl	1.742864	0.217628	0.500128
Cl117	Cl	0.918512	0.203408	0.458850
Cl118	Cl	1.418512	0.703408	0.958850
Cl119	Cl	0.780742	0.243657	0.000019
Cl120	Cl	1.280742	0.743657	0.500019
H121	H	0.477182	0.210943	0.000052
H122	H	0.977182	0.710943	0.500052
H123	H	0.804525	-0.015579	0.000094
H124	H	1.304525	0.484421	0.500094
Cl125	Cl	1.234481	-0.726409	0.000067
Cl126	Cl	1.734481	-0.226409	0.500067
H127	H	0.911283	-0.232634	0.000075
H128	H	1.411283	0.267366	0.500075
H129	H	0.945542	0.182423	0.563361
H130	H	1.445542	0.682423	1.063361
Cl131	Cl	0.918548	0.203421	0.766221
Cl132	Cl	1.418548	0.703421	1.266221
Cl133	Cl	0.918489	0.203402	0.233915
Cl134	Cl	1.418489	0.703402	0.733915
Cl135	Cl	0.331707	-0.050788	0.000168
Cl136	Cl	0.831707	0.449212	0.500168
Cl137	Cl	1.245971	-0.117996	0.000131
Cl138	Cl	1.745971	0.382004	0.500131
H139	H	0.913768	-0.100507	0.000080
H140	H	1.413768	0.399493	0.500080
H141	H	1.166909	0.010434	0.436807
H142	H	1.666909	0.510434	0.936807
H143	H	1.201180	-0.574506	0.000094
H144	H	1.701180	-0.074506	0.500094
H145	H	0.902894	-0.676672	0.000027
H146	H	1.402894	-0.176672	0.500027
H147	H	0.516786	-0.019826	0.000119
H148	H	1.016786	0.480174	0.500119
Cl149	Cl	1.193921	-0.010560	0.233951
Cl150	Cl	1.693921	0.489440	0.733951
Cl151	Cl	0.619450	-0.046545	0.000123
Cl152	Cl	1.119450	0.453455	0.500123
H153	H	0.307932	0.208445	0.000078
H154	H	0.807932	0.708445	0.500078
Cl155	Cl	0.869589	-0.524764	0.000039
Cl156	Cl	1.369589	-0.024764	0.500039
Cl157	Cl	1.193949	-0.010551	0.541311
Cl158	Cl	1.693949	0.489449	1.041311
Cl159	Cl	1.193972	-0.010549	0.766253
Cl160	Cl	1.693972	0.489451	1.266253
