data_functionalizedCrystal
_audit_creation_method	'MofGen! by Chris Wilmer'
_symmetry_space_group_name_H-M	'P1'
_symmetry_Int_Tables_number	1
_symmetry_cell_setting	triclinic
loop_
_symmetry_equiv_pos_as_xyz
  x,y,z
_cell_length_a	12.759401
_cell_length_b	12.827892
_cell_length_c	12.759393
_cell_angle_alpha	89.970839
_cell_angle_beta	89.980732
_cell_angle_gamma	90.016917
loop_
_atom_site_label
_atom_site_type_symbol
_atom_site_fract_x
_atom_site_fract_y
_atom_site_fract_z
Zn1	Zn	1.606244	-0.415946	-0.594025
Zn2	Zn	1.606138	-0.590722	-0.418348
Zn3	Zn	1.430548	-0.416000	-0.418361
Zn4	Zn	1.430532	-0.590651	-0.593985
O5	O	1.518366	-0.503330	-0.506180
O6	O	1.753251	-0.439138	-0.570733
O7	O	1.582808	-0.567597	-0.271328
O8	O	1.453905	-0.269757	-0.441685
O9	O	1.753173	-0.567545	-0.441663
O10	O	1.582988	-0.269717	-0.570745
O11	O	1.453802	-0.439230	-0.271338
O12	O	1.283525	-0.439161	-0.441646
O13	O	1.453879	-0.567424	-0.741011
O14	O	1.283514	-0.567476	-0.570676
O15	O	1.582973	-0.439069	-0.741041
O16	O	1.582793	-0.736948	-0.441624
O17	O	1.453776	-0.736896	-0.570664
C18	C	1.245398	-0.503317	-0.506159
C19	C	1.128622	-0.503337	-0.506175
C20	C	1.518300	-0.774840	-0.506161
C21	C	1.518368	-0.890993	-0.506188
C22	C	1.073781	-0.570252	-0.573255
C23	C	0.964057	-0.570256	-0.573276
C24	C	0.964023	-0.436426	-0.439127
C25	C	1.073746	-0.436418	-0.439112
C26	C	0.814157	-0.607754	-0.697137
C27	C	0.759313	-0.674686	-0.764208
C28	C	0.794909	-0.776670	-0.780157
C29	C	0.885347	-0.811742	-0.729020
C30	C	0.940186	-0.744816	-0.661941
C31	C	0.904591	-0.642818	-0.646012
C32	C	1.223648	-0.398930	-0.315250
C33	C	1.278488	-0.332009	-0.248165
C34	C	1.242894	-0.230023	-0.232205
C35	C	1.152452	-0.194954	-0.283324
C36	C	1.097612	-0.261876	-0.350409
C37	C	1.133213	-0.363860	-0.366370
C38	C	1.582285	-0.942769	-0.442406
C39	C	1.582357	-1.062819	-0.442433
C40	C	1.792399	-0.503343	-0.506201
C41	C	1.909175	-0.503349	-0.506210
C42	C	1.518436	-0.503232	-0.780213
C43	C	1.518466	-0.503191	-0.896990
C44	C	1.518460	-0.230760	-0.506221
C45	C	1.518501	-0.114606	-0.506239
C46	C	1.451302	-0.569949	-1.061569
C47	C	1.451268	-0.569992	-0.951845
C48	C	1.585696	-0.436333	-0.951864
C49	C	1.585725	-0.436285	-1.061587
C50	C	1.327310	-0.607388	-0.801883
C51	C	1.260092	-0.674255	-0.747012
C52	C	1.243934	-0.776205	-0.782615
C53	C	1.295009	-0.811310	-0.873087
C54	C	1.362235	-0.744449	-0.927952
C55	C	1.378373	-0.642484	-0.892350
C56	C	1.709684	-0.398900	-1.211551
C57	C	1.776916	-0.332043	-1.266418
C58	C	1.793084	-0.230091	-1.230817
C59	C	1.742028	-0.194991	-1.140342
C60	C	1.674796	-0.261847	-1.085475
C61	C	1.658626	-0.363798	-1.121083
C62	C	1.518356	-0.503351	-0.233212
C63	C	1.518529	-0.503098	-0.116436
H64	H	1.118458	-0.624739	-0.627864
H65	H	1.340445	-0.524367	-0.772896
H66	H	1.636959	-0.898222	-0.387783
H67	H	0.785173	-0.524708	-0.684168
H68	H	1.463771	-1.070088	-0.560844
H69	H	1.637076	-1.107345	-0.387824
H70	H	1.189203	-0.830648	-0.737931
H71	H	1.463703	-0.935542	-0.560818
H72	H	1.396585	-0.624351	-1.106224
H73	H	1.403821	-0.773031	-1.001611
H74	H	1.281857	-0.894332	-0.902061
H75	H	1.218506	-0.645663	-0.673350
H76	H	0.919330	-0.381945	-0.384525
H77	H	1.640406	-0.381938	-0.907192
H78	H	1.123459	-0.111916	-0.270312
H79	H	0.914316	-0.894792	-0.742002
H80	H	1.633221	-0.233258	-1.011806
H81	H	1.755197	-0.111975	-1.111351
H82	H	1.013818	-0.773372	-0.620305
H83	H	1.847839	-0.175661	-1.275495
H84	H	1.818492	-0.360633	-1.340085
H85	H	1.696509	-0.481912	-1.240557
H86	H	0.750248	-0.831166	-0.834769
H87	H	1.252644	-0.481972	-0.328248
H88	H	0.685679	-0.646120	-0.805845
H89	H	1.287550	-0.175540	-0.177569
H90	H	1.023974	-0.233311	-0.392040
H91	H	1.352130	-0.360571	-0.206540
