data_functionalizedCrystal
_audit_creation_method	'MofGen! by Chris Wilmer'
_symmetry_space_group_name_H-M	'P1'
_symmetry_Int_Tables_number	1
_symmetry_cell_setting	triclinic
loop_
_symmetry_equiv_pos_as_xyz
  x,y,z
_cell_length_a	14.908571
_cell_length_b	12.645329
_cell_length_c	14.908308
_cell_angle_alpha	86.730911
_cell_angle_beta	89.824947
_cell_angle_gamma	86.714286
loop_
_atom_site_label
_atom_site_type_symbol
_atom_site_fract_x
_atom_site_fract_y
_atom_site_fract_z
Zn1	Zn	1.345315	-0.553226	0.587598
Zn2	Zn	1.353901	-0.720904	0.437243
Zn3	Zn	1.203629	-0.532864	0.428595
Zn4	Zn	1.194929	-0.719645	0.578895
O5	O	1.274443	-0.631660	0.508083
O6	O	1.472280	-0.584517	0.574914
O7	O	1.341202	-0.687966	0.310271
O8	O	1.222472	-0.387223	0.449710
O9	O	1.478588	-0.707710	0.464449
O10	O	1.326568	-0.402182	0.566529
O11	O	1.230798	-0.549814	0.303917
O12	O	1.076649	-0.548592	0.441271
O13	O	1.207643	-0.705564	0.705874
O14	O	1.070256	-0.685819	0.551695
O15	O	1.318131	-0.583296	0.712268
O16	O	1.332765	-0.869080	0.456010
O17	O	1.215969	-0.868154	0.560081
C18	C	1.040827	-0.614861	0.494601
C19	C	0.940884	-0.607701	0.488855
C20	C	1.274378	-0.907084	0.508061
C21	C	1.274430	-1.024919	0.508086
C22	C	0.746481	-0.737341	0.592888
C23	C	0.652575	-0.730618	0.587492
C24	C	0.659165	-0.587525	0.472672
C25	C	0.753070	-0.594249	0.478068
C26	C	0.796725	-0.669161	0.538177
C27	C	0.890633	-0.675889	0.543568
C28	C	0.897220	-0.532791	0.428753
C29	C	0.803315	-0.526068	0.423357
C30	C	1.200923	-1.069258	0.573515
C31	C	1.201194	-1.191858	0.573833
C32	C	1.367887	-1.201134	0.539090
C33	C	1.367374	-1.078532	0.539537
C34	C	1.255490	-1.062382	0.411598
C35	C	1.253451	-1.184880	0.412018
C36	C	1.508972	-0.648526	0.521617
C37	C	1.608914	-0.655713	0.527385
C38	C	1.260959	-0.646561	0.742608
C39	C	1.255212	-0.652911	0.842549
C40	C	1.274533	-0.355164	0.508126
C41	C	1.274571	-0.237337	0.508144
C42	C	1.287927	-0.616744	0.274472
C43	C	1.293848	-0.610108	0.174542
C44	C	1.359463	-0.537501	1.037009
C45	C	1.354067	-0.543463	1.130912
C46	C	1.239019	-0.670793	1.124261
C47	C	1.244416	-0.664830	1.030358
C48	C	1.304641	-0.598183	0.986735
C49	C	1.310041	-0.592226	0.892830
C50	C	1.194990	-0.719549	0.886180
C51	C	1.189593	-0.725512	0.980084
H52	H	0.782026	-0.798343	0.641826
H53	H	1.131291	-1.033812	0.553697
C54	C	1.378075	-0.389110	0.932135
C55	C	1.425664	-0.464255	0.989048
H56	H	1.418948	-0.343897	0.902524
H57	H	1.336819	-0.348068	0.966514
H58	H	1.346194	-0.424406	0.888759
H59	H	1.457539	-0.428958	1.032428
H60	H	1.466935	-0.505302	0.954667
C61	C	1.150575	-1.047044	0.289028
C62	C	1.165522	-1.012195	0.374914
H63	H	1.095033	-1.016054	0.266389
H64	H	1.148641	-1.122112	0.292305
H65	H	1.197910	-1.026582	0.250141
H66	H	1.118190	-1.032665	0.413804
H67	H	1.167449	-0.937111	0.371643
C68	C	1.328633	-0.443825	0.787966
C69	C	1.376233	-0.518964	0.844876
H70	H	1.369499	-0.398597	0.758360
H71	H	1.287368	-0.402798	0.822346
H72	H	1.296763	-0.479126	0.744585
H73	H	1.408098	-0.483664	0.888261
H74	H	1.417514	-0.559996	0.810493
C75	C	1.152791	-0.894071	0.854725
C76	C	1.134717	-0.786254	0.830920
H77	H	1.115586	-0.935250	0.820606
H78	H	1.140958	-0.907147	0.916887
H79	H	1.214087	-0.912939	0.842812
H80	H	1.073423	-0.767384	0.842840
H81	H	1.146544	-0.773171	0.768744
H82	H	0.611669	-0.786136	0.632045
C83	C	0.518131	-0.513630	0.413481
C84	C	0.611166	-0.505147	0.406641
H85	H	0.488501	-0.462765	0.372721
H86	H	0.499313	-0.500999	0.473040
H87	H	0.503485	-0.582875	0.399303
H88	H	0.625813	-0.435904	0.420825
H89	H	0.629991	-0.517770	0.347068
C90	C	1.275221	-1.274965	0.275470
C91	C	1.321077	-1.226043	0.342137
H92	H	1.316979	-1.300383	0.232336
H93	H	1.233026	-1.225020	0.246839
H94	H	1.244571	-1.332684	0.302024
H95	H	1.351722	-1.168319	0.315584
H96	H	1.363288	-1.275992	0.370772
H97	H	1.131834	-1.215981	0.553855
C98	C	0.783117	-0.462420	0.269513
C99	C	0.755324	-0.443728	0.357288
H100	H	0.753493	-0.411583	0.228725
H101	H	0.768471	-0.531670	0.255379
H102	H	0.846236	-0.456666	0.264906
H103	H	0.692206	-0.449491	0.361897
H104	H	0.769963	-0.374461	0.371426
C105	C	1.044096	-0.479559	0.386035
C106	C	0.952452	-0.457840	0.368610
H107	H	1.078191	-0.433286	0.348907
H108	H	1.060227	-0.551014	0.373659
H109	H	1.056022	-0.469089	0.447357
H110	H	0.940524	-0.468317	0.307290
H111	H	0.936314	-0.386368	0.380980
H112	H	1.212873	-1.044003	0.644488
H113	H	0.926175	-0.736888	0.592510
H114	H	1.213386	-1.226780	0.645228
C115	C	1.125834	-0.796048	1.108266
C116	C	1.172820	-0.744041	1.172221
H117	H	1.084962	-0.841263	1.137877
H118	H	1.167102	-0.837091	1.073902
H119	H	1.093561	-0.745057	1.069656
H120	H	1.205098	-0.795032	1.210828
H121	H	1.131546	-0.702995	1.206601
H122	H	1.423731	-1.049580	0.494238
C123	C	1.403676	-1.139800	0.691194
C124	C	1.389866	-1.047810	0.634963
H125	H	1.417555	-1.120835	0.750109
H126	H	1.452113	-1.182728	0.668771
H127	H	1.350719	-1.178215	0.692848
H128	H	1.442826	-1.009399	0.633304
H129	H	1.341426	-1.004865	0.657393
C130	C	1.446813	-1.352372	0.479359
C131	C	1.443583	-1.241367	0.477089
H132	H	1.493547	-1.377210	0.441086
H133	H	1.390999	-1.375137	0.459440
H134	H	1.458098	-1.380051	0.539090
H135	H	1.432291	-1.213688	0.417359
H136	H	1.499409	-1.218592	0.497003
C137	C	1.468332	-0.417013	1.128050
C138	C	1.414333	-0.476765	1.186174
H139	H	1.505542	-0.375840	1.162169
H140	H	1.431271	-0.371325	1.089173
H141	H	1.504815	-0.463357	1.093399
H142	H	1.377845	-0.430421	1.220821
H143	H	1.451398	-0.522457	1.225067
H144	H	1.384997	-1.237664	0.609052
H145	H	1.184802	-1.207833	0.388775
H146	H	1.309089	-1.033666	0.362783
H147	H	1.140558	-0.779772	1.015615
