data_functionalizedCrystal
_audit_creation_method	'MofGen! by Chris Wilmer'
_symmetry_space_group_name_H-M	'P1'
_symmetry_Int_Tables_number	1
_symmetry_cell_setting	triclinic
loop_
_symmetry_equiv_pos_as_xyz
  x,y,z
_cell_length_a	11.026607
_cell_length_b	11.792241
_cell_length_c	10.065875
_cell_angle_alpha	98.849501
_cell_angle_beta	79.302338
_cell_angle_gamma	96.389716
loop_
_atom_site_label
_atom_site_type_symbol
_atom_site_fract_x
_atom_site_fract_y
_atom_site_fract_z
O1	O	1.630965	0.462836	-0.113504
O2	O	1.277303	0.408644	-0.113505
O3	O	1.462715	0.272275	-0.113495
O4	O	1.445553	0.599205	-0.113514
O5	O	1.427360	0.298412	0.113492
O6	O	1.241948	0.434781	0.113482
O7	O	1.595611	0.488973	0.113483
Zn8	Zn	1.413166	0.466027	0.149522
Zn9	Zn	1.459747	0.431590	-0.149543
O10	O	1.410198	0.625342	0.113473
C11	C	1.214349	0.411715	-0.000011
C12	C	1.079439	0.381912	-0.000011
C13	C	1.006175	0.464202	-0.000017
C14	C	0.866738	0.433401	-0.000017
C15	C	1.443960	0.242838	-0.000002
C16	C	1.440732	0.116183	-0.000003
C17	C	1.434802	-0.115710	-0.000026
C18	C	1.438097	0.013332	-0.000013
C19	C	1.658565	0.485901	-0.000014
C20	C	1.793477	0.515703	-0.000023
C21	C	1.428954	0.654778	-0.000023
C22	C	1.432183	0.781432	-0.000031
N23	N	1.381384	0.489530	0.353626
N24	N	1.491539	0.408079	-0.353647
C25	C	1.448682	0.439759	0.421408
C26	C	1.424231	0.457858	0.578574
H27	H	0.833974	0.608964	-0.000019
H28	H	1.567257	0.352060	0.588036
O29	O	1.031320	0.270607	0.000053
C30	C	1.126519	0.200070	0.000020
H31	H	1.206196	0.254364	0.042992
H32	H	1.161163	0.159561	-0.108877
C33	C	0.978221	0.037712	0.036259
C34	C	1.076077	0.104395	0.089049
H35	H	0.947106	-0.021308	0.091170
H36	H	0.914083	0.085232	0.036276
H37	H	1.007105	0.003966	-0.054488
H38	H	1.047189	0.138152	0.179786
H39	H	1.140209	0.056878	0.089049
O40	O	1.054695	0.575392	-0.000077
C41	C	1.183111	0.581394	-0.000035
H42	H	1.218861	0.493789	-0.043007
H43	H	1.201474	0.606601	0.108864
C44	C	1.206375	0.779839	-0.036269
C45	C	1.250287	0.672243	-0.089059
H46	H	1.247814	0.835882	-0.091177
H47	H	1.119859	0.775797	-0.036292
H48	H	1.221681	0.800828	0.054480
H49	H	1.234967	0.651248	-0.179798
H50	H	1.336803	0.676283	-0.089053
H51	H	1.348504	0.513868	0.636891
H52	H	1.524395	0.383742	0.363088
O53	O	1.290891	0.556198	0.423132
C54	C	1.175785	0.509415	0.388315
H55	H	1.180417	0.413768	0.348946
H56	H	1.153500	0.555723	0.305487
C57	C	1.068204	0.642435	0.563705
C58	C	1.073890	0.524958	0.515363
H59	H	1.005348	0.652027	0.642071
H60	H	1.145753	0.673957	0.587159
H61	H	1.049638	0.681011	0.494670
H62	H	1.092471	0.486387	0.584391
H63	H	0.996341	0.493430	0.491923
O64	O	0.818242	0.322192	-0.000073
C65	C	0.689815	0.316199	-0.000038
H66	H	0.667453	0.393910	-0.043013
H67	H	0.637524	0.316064	0.108860
C68	C	0.677838	0.109413	-0.036268
C69	C	0.650374	0.204854	-0.089062
H70	H	0.653506	0.040728	-0.091176
H71	H	0.764361	0.113450	-0.036286
H72	H	0.634260	0.109316	0.054480
H73	H	0.693963	0.204958	-0.179800
H74	H	0.563857	0.200814	-0.089060
