data_functionalizedCrystal
_audit_creation_method	'MofGen! by Chris Wilmer'
_symmetry_space_group_name_H-M	'P1'
_symmetry_Int_Tables_number	1
_symmetry_cell_setting	triclinic
loop_
_symmetry_equiv_pos_as_xyz
  x,y,z
_cell_length_a	18.050591
_cell_length_b	25.639240
_cell_length_c	18.050583
_cell_angle_alpha	89.954476
_cell_angle_beta	89.979141
_cell_angle_gamma	90.029204
loop_
_atom_site_label
_atom_site_type_symbol
_atom_site_fract_x
_atom_site_fract_y
_atom_site_fract_z
Zn1	Zn	1.135277	-0.208163	-0.419961
Zn2	Zn	1.635277	0.291837	0.080039
Zn3	Zn	1.135176	-0.295612	-0.295751
Zn4	Zn	1.635176	0.204388	0.204249
Zn5	Zn	1.011094	-0.208186	-0.295774
Zn6	Zn	1.511094	0.291814	0.204226
Zn7	Zn	1.011035	-0.295564	-0.419889
Zn8	Zn	1.511035	0.204436	0.080111
O9	O	1.073145	-0.251881	-0.357844
O10	O	1.573145	0.248119	0.142156
O11	O	1.239188	-0.219773	-0.403504
O12	O	1.739188	0.280227	0.096496
O13	O	1.118698	-0.284044	-0.191829
O14	O	1.618698	0.215956	0.308171
O15	O	1.027635	-0.135018	-0.312288
O16	O	1.527635	0.364982	0.187712
O17	O	1.239114	-0.284021	-0.312248
O18	O	1.739114	0.215979	0.187752
O19	O	1.118871	-0.135001	-0.403527
O20	O	1.618871	0.364999	0.096473
O21	O	1.027536	-0.219814	-0.191846
O22	O	1.527536	0.280186	0.308154
O23	O	0.907162	-0.219767	-0.312218
O24	O	1.407162	0.280233	0.187782
O25	O	1.027533	-0.283940	-0.523823
O26	O	1.527533	0.216060	-0.023823
O27	O	0.907118	-0.283963	-0.403404
O28	O	1.407118	0.216037	0.096596
O29	O	1.118814	-0.219727	-0.523876
O30	O	1.618814	0.280273	-0.023876
O31	O	1.118641	-0.368770	-0.312178
O32	O	1.618641	0.131230	0.187822
O33	O	1.027435	-0.368735	-0.403381
O34	O	1.527435	0.131265	0.096619
C35	C	0.880193	-0.251863	-0.357806
C36	C	1.380193	0.248137	0.142194
C37	C	0.797647	-0.251867	-0.357808
C38	C	1.297647	0.248133	0.142192
C39	C	0.548824	-0.216922	-0.308338
C40	C	1.048824	0.283078	0.191662
C41	C	0.598259	-0.204181	-0.376117
C42	C	1.098259	0.295819	0.123883
C43	C	0.500527	-0.251894	-0.357869
C44	C	1.000527	0.248106	0.142131
C45	C	0.598174	-0.264597	-0.290064
C46	C	1.098174	0.235403	0.209936
C47	C	0.646512	-0.251880	-0.357835
C48	C	1.146512	0.248120	0.142165
C49	C	0.548875	-0.239129	-0.425684
C50	C	1.048875	0.260871	0.074316
C51	C	0.548785	-0.299567	-0.339585
C52	C	1.048785	0.200433	0.160415
C53	C	0.598198	-0.286844	-0.407410
C54	C	1.098198	0.213156	0.092590
C55	C	0.416429	-0.251901	-0.357887
C56	C	0.916429	0.248099	0.142113
C57	C	0.730609	-0.251873	-0.357825
C58	C	1.230609	0.248127	0.142175
C59	C	1.073040	-0.387724	-0.357785
C60	C	1.573040	0.112276	0.142215
C61	C	1.073063	-0.445838	-0.357785
C62	C	1.573063	0.054162	0.142215
C63	C	1.120676	-0.806153	-0.405438
C64	C	1.620676	-0.306153	0.094562
C65	C	1.120698	-0.860758	-0.405453
C66	C	1.620698	-0.360758	0.094547
O67	O	1.161055	-0.888954	-0.445908
O68	O	1.661055	-0.388954	0.054092
N69	N	1.073248	-0.888120	-0.357915
N70	N	1.573248	-0.388120	0.142085
C71	C	1.025769	-0.860876	-0.310365
C72	C	1.525769	-0.360876	0.189635
O73	O	0.985411	-0.889164	-0.269933
O74	O	1.485411	-0.389164	0.230067
C75	C	1.025743	-0.806272	-0.310354
C76	C	1.525743	-0.306272	0.189646
C77	C	1.073201	-0.778913	-0.357889
C78	C	1.573201	-0.278913	0.142111
C79	C	1.168129	-0.778793	-0.452969
C80	C	1.668129	-0.278793	0.047031
C81	C	1.168108	-0.724193	-0.452953
C82	C	1.668108	-0.224193	0.047047
C83	C	1.120634	-0.696952	-0.405405
C84	C	1.620634	-0.196952	0.094595
C85	C	1.073180	-0.724312	-0.357873
C86	C	1.573180	-0.224312	0.142127
C87	C	0.978260	-0.779029	-0.262809
C88	C	1.478260	-0.279029	0.237191
C89	C	0.978239	-0.724422	-0.262802
C90	C	1.478239	-0.224422	0.237198
C91	C	1.025697	-0.697062	-0.310337
C92	C	1.525697	-0.197062	0.189663
C93	C	1.025685	-0.642471	-0.310309
C94	C	1.525685	-0.142471	0.189691
N95	N	1.073134	-0.615108	-0.357846
N96	N	1.573134	-0.115108	0.142154
C97	C	1.120609	-0.642349	-0.405394
C98	C	1.620609	-0.142349	0.094606
C99	C	1.025824	-0.975546	-0.310392
C100	C	1.525824	-0.475546	0.189608
C101	C	1.025852	-1.030149	-0.310399
C102	C	1.525852	-0.530149	0.189601
C103	C	1.120781	-1.030027	-0.405487
C104	C	1.620781	-0.530027	0.094513
C105	C	1.120756	-0.975423	-0.405477
C106	C	1.620756	-0.475423	0.094523
C107	C	1.073273	-0.948184	-0.357930
C108	C	1.573273	-0.448184	0.142070
C109	C	1.120561	-0.527684	-0.405356
C110	C	1.620561	-0.027684	0.094644
C111	C	1.120538	-0.473078	-0.405333
C112	C	1.620538	0.026922	0.094667
C113	C	1.025607	-0.473205	-0.310248
C114	C	1.525607	0.026795	0.189752
C115	C	1.025633	-0.527806	-0.310267
C116	C	1.525633	-0.027806	0.189733
C117	C	1.073112	-0.555044	-0.357828
C118	C	1.573112	-0.055044	0.142172
O119	O	0.985346	-0.614240	-0.269876
O120	O	1.485346	-0.114240	0.230124
O121	O	1.160953	-0.614054	-0.445827
O122	O	1.660953	-0.114054	0.054173
C123	C	1.266851	-0.251900	-0.357881
C124	C	1.766851	0.248100	0.142119
C125	C	1.349397	-0.251908	-0.357897
C126	C	1.849397	0.248092	0.142103
C127	C	1.073178	-0.251825	-0.551549
C128	C	1.573178	0.248175	-0.051549
C129	C	1.073192	-0.251802	-0.634095
C130	C	1.573192	0.248198	-0.134095
C131	C	1.073271	-0.115508	-0.357918
C132	C	1.573271	0.384492	0.142082
C133	C	1.073324	-0.057394	-0.357950
C134	C	1.573324	0.442606	0.142050
C135	C	1.122880	-0.216866	-0.833575
C136	C	1.622880	0.283134	-0.333575
C137	C	1.055148	-0.204066	-0.882967
C138	C	1.555148	0.295934	-0.382967
C139	C	1.073222	-0.251793	-0.785226
C140	C	1.573222	0.248207	-0.285226
C141	C	1.140981	-0.264559	-0.882915
C142	C	1.640981	0.235441	-0.382915
C143	C	1.073257	-0.251783	-0.931211
C144	C	1.573257	0.248217	-0.431211
C145	C	1.005454	-0.238969	-0.833530
C146	C	1.505454	0.261031	-0.333530
C147	C	1.091333	-0.299483	-0.833475
C148	C	1.591333	0.200517	-0.333475
C149	C	1.023554	-0.286702	-0.882844
C150	C	1.523554	0.213298	-0.382844
C151	C	1.073203	-0.251797	-0.701127
C152	C	1.573203	0.248203	-0.201127
C153	C	1.073268	-0.251779	-1.015307
C154	C	1.573268	0.248221	-0.515307
C155	C	1.073155	-0.251899	-0.164891
C156	C	1.573155	0.248101	0.335109
C157	C	1.073285	-0.251775	-0.082346
C158	C	1.573285	0.248225	0.417654
H159	H	0.527039	-0.339878	-0.324109
H160	H	1.027039	0.160122	0.175891
H161	H	1.159218	-0.549855	-0.444089
H162	H	1.659218	-0.049855	0.055911
C163	C	0.973589	-0.945587	-0.258081
C164	C	1.473589	-0.445587	0.241919
N165	N	0.934244	-0.923025	-0.218681
N166	N	1.434244	-0.423025	0.281319
C167	C	0.519530	-0.176946	-0.251845
C168	C	1.019530	0.323054	0.248155
N169	N	0.497463	-0.146835	-0.209299
N170	N	0.997463	0.353165	0.290701
H171	H	0.986995	-0.550083	-0.271555
H172	H	1.486995	-0.050083	0.228445
C173	C	1.179519	-0.176939	-0.804340
C174	C	1.679519	0.323061	-0.304340
N175	N	1.222174	-0.146865	-0.782318
N176	N	1.722174	0.353135	-0.282318
H177	H	0.986956	-0.451017	-0.271532
H178	H	1.486956	0.048983	0.228468
C179	C	1.220319	-0.694104	-0.505243
C180	C	1.720319	-0.194104	-0.005243
N181	N	1.259647	-0.671445	-0.544631
N182	N	1.759647	-0.171445	-0.044631
H183	H	0.939571	-0.702246	-0.224085
H184	H	1.439571	-0.202246	0.275915
C185	C	1.034472	-0.149577	-0.912343
C186	C	1.534472	0.350423	-0.412343
N187	N	1.018905	-0.108535	-0.934470
N188	N	1.518905	0.391465	-0.434470
H189	H	0.948149	-0.228120	-0.811928
H190	H	1.448149	0.271880	-0.311928
H191	H	1.198270	-0.275360	-0.904611
H192	H	1.698270	0.224640	-0.404611
H193	H	0.981526	-0.316234	-0.904342
H194	H	1.481526	0.183766	-0.404342
C195	C	1.112045	-0.353956	-0.804075
C196	C	1.612045	0.146044	-0.304075
N197	N	1.127655	-0.394985	-0.781928
N198	N	1.627655	0.105015	-0.281928
H199	H	0.987215	-1.052420	-0.271683
H200	H	1.487215	-0.552420	0.228317
C201	C	0.926047	-0.809112	-0.210520
C202	C	1.426047	-0.309112	0.289480
N203	N	0.886714	-0.831771	-0.171136
N204	N	1.386714	-0.331771	0.328864
H205	H	0.619976	-0.163857	-0.391582
H206	H	1.119976	0.336143	0.108418
H207	H	0.619739	-0.316414	-0.449331
H208	H	1.119739	0.183586	0.050669
C209	C	0.519743	-0.224538	-0.503153
C210	C	1.019743	0.275462	-0.003153
N211	N	0.497799	-0.213547	-0.561501
N212	N	0.997799	0.286453	-0.061501
C213	C	1.172750	-0.442986	-0.457626
C214	C	1.672750	0.057014	0.042374
N215	N	1.212074	-0.420322	-0.497011
N216	N	1.712074	0.079678	0.002989
C217	C	0.627428	-0.279123	-0.212616
C218	C	1.127428	0.220877	0.287384
N219	N	0.649460	-0.290060	-0.154281
N220	N	1.149460	0.209940	0.345719
H221	H	1.206789	-0.800967	-0.491693
H222	H	1.706789	-0.300967	0.008307
H223	H	1.159399	-0.953150	-0.444184
H224	H	1.659399	-0.453150	0.055816
H225	H	1.159436	-1.052216	-0.444205
H226	H	1.659436	-0.552216	0.055795
