data_functionalizedCrystal
_audit_creation_method	'MofGen! by Chris Wilmer'
_symmetry_space_group_name_H-M	'P1'
_symmetry_Int_Tables_number	1
_symmetry_cell_setting	triclinic
loop_
_symmetry_equiv_pos_as_xyz
  x,y,z
_cell_length_a	25.639242
_cell_length_b	18.050589
_cell_length_c	18.050582
_cell_angle_alpha	90.018712
_cell_angle_beta	89.975426
_cell_angle_gamma	89.969774
loop_
_atom_site_label
_atom_site_type_symbol
_atom_site_fract_x
_atom_site_fract_y
_atom_site_fract_z
Zn1	Zn	0.799252	0.295790	-0.420110
Zn2	Zn	1.299252	0.795790	0.079890
Zn3	Zn	0.799178	0.419975	-0.295929
Zn4	Zn	1.299178	0.919975	0.204071
Zn5	Zn	0.711825	0.295793	-0.295915
Zn6	Zn	1.211825	0.795793	0.204085
Zn7	Zn	0.711779	0.419933	-0.420059
Zn8	Zn	1.211779	0.919933	0.079941
O9	O	0.755509	0.357873	-0.358003
O10	O	1.255509	0.857873	0.141997
O11	O	0.872407	0.312279	-0.403664
O12	O	1.372407	0.812279	0.096336
O13	O	0.787578	0.403521	-0.192003
O14	O	1.287578	0.903521	0.307997
O15	O	0.723472	0.191868	-0.312404
O16	O	1.223472	0.691868	0.187596
O17	O	0.872353	0.403518	-0.312430
O18	O	1.372353	0.903518	0.187570
O19	O	0.787704	0.191866	-0.403650
O20	O	1.287704	0.691866	0.096350
O21	O	0.723400	0.312285	-0.191992
O22	O	1.223400	0.812285	0.308008
O23	O	0.638653	0.312245	-0.312355
O24	O	1.138653	0.812245	0.187645
O25	O	0.723395	0.403446	-0.523990
O26	O	1.223395	0.903446	-0.023990
O27	O	0.638620	0.403450	-0.403564
O28	O	1.138620	0.903450	0.096436
O29	O	0.787661	0.312239	-0.524028
O30	O	1.287661	0.812239	-0.024028
O31	O	0.787534	0.523894	-0.312380
O32	O	1.287534	1.023894	0.187620
O33	O	0.723323	0.523863	-0.403578
O34	O	1.223323	1.023863	0.096422
C35	C	0.619666	0.357844	-0.357953
C36	C	1.119666	0.857844	0.142047
C37	C	0.561552	0.357849	-0.357949
C38	C	1.061552	0.857849	0.142051
C39	C	0.201180	0.405443	-0.405450
C40	C	0.701180	0.905443	0.094550
C41	C	0.146576	0.405447	-0.405462
C42	C	0.646576	0.905447	0.094538
O43	O	0.118332	0.445877	-0.445807
O44	O	0.618332	0.945877	0.054193
N45	N	0.119269	0.357893	-0.358052
N46	N	0.619269	0.857893	0.141948
C47	C	0.146570	0.310327	-0.310632
C48	C	0.646570	0.810327	0.189368
O49	O	0.118329	0.269878	-0.270307
O50	O	0.618329	0.769878	0.229693
C51	C	0.201173	0.310319	-0.310624
C52	C	0.701173	0.810319	0.189376
C53	C	0.228477	0.357881	-0.358033
C54	C	0.728477	0.857881	0.141967
C55	C	0.228484	0.453000	-0.452855
C56	C	0.728484	0.953000	0.047145
C57	C	0.283085	0.452997	-0.452842
C58	C	0.783085	0.952997	0.047158
C59	C	0.310382	0.405435	-0.405425
C60	C	0.810382	0.905435	0.094575
C61	C	0.283078	0.357877	-0.358020
C62	C	0.783078	0.857877	0.141980
C63	C	0.228473	0.262749	-0.263209
C64	C	0.728473	0.762749	0.236791
C65	C	0.283080	0.262745	-0.263206
C66	C	0.783080	0.762745	0.236794
C67	C	0.310384	0.310307	-0.310614
C68	C	0.810384	0.810307	0.189386
C69	C	0.364975	0.310312	-0.310589
C70	C	0.864975	0.810312	0.189411
N71	N	0.392281	0.357866	-0.357999
N72	N	0.892281	0.857866	0.142001
C73	C	0.364985	0.405427	-0.405417
C74	C	0.864985	0.905427	0.094583
C75	C	0.031899	0.310345	-0.310652
C76	C	0.531899	0.810345	0.189348
C77	C	-0.022703	0.310356	-0.310655
C78	C	0.477297	0.810356	0.189345
C79	C	-0.022693	0.405476	-0.405486
C80	C	0.477307	0.905476	0.094514
C81	C	0.031910	0.405468	-0.405479
C82	C	0.531910	0.905468	0.094521
C83	C	0.059206	0.357899	-0.358062
C84	C	0.559206	0.857899	0.141938
C85	C	0.479650	0.405416	-0.405386
C86	C	0.979650	0.905416	0.094614
C87	C	0.534255	0.405410	-0.405367
C88	C	1.034255	0.905410	0.094633
C89	C	0.534240	0.310288	-0.310538
C90	C	1.034240	0.810288	0.189462
C91	C	0.479640	0.310297	-0.310555
C92	C	0.979640	0.810297	0.189445
C93	C	0.452346	0.357863	-0.357984
C94	C	0.952346	0.857863	0.142016
O95	O	0.393253	0.269901	-0.270267
O96	O	0.893253	0.769901	0.229733
O97	O	0.393232	0.445862	-0.445742
O98	O	0.893232	0.945862	0.054258
C99	C	0.755430	0.550825	-0.357992
C100	C	1.255430	1.050825	0.142008
C101	C	0.755444	0.633371	-0.358011
C102	C	1.255444	1.133371	0.141989
C103	C	0.720545	0.832832	-0.407588
C104	C	1.220545	1.332832	0.092412
C105	C	0.707799	0.882265	-0.339818
C106	C	1.207799	1.382265	0.160182
C107	C	0.755484	0.784501	-0.358022
C108	C	1.255484	1.284501	0.141978
C109	C	0.768244	0.882149	-0.425800
C110	C	1.268244	1.382149	0.074200
C111	C	0.755521	0.930486	-0.358037
C112	C	1.255521	1.430486	0.141963
C113	C	0.742713	0.832847	-0.290216
C114	C	1.242713	1.332847	0.209784
C115	C	0.803180	0.832727	-0.376243
C116	C	1.303180	1.332727	0.123757
C117	C	0.790452	0.882138	-0.308427
C118	C	1.290452	1.382138	0.191573
C119	C	0.755461	0.700403	-0.358013
C120	C	1.255461	1.200403	0.141987
C121	C	0.755543	1.014583	-0.358038
C122	C	1.255543	1.514583	0.141962
C123	C	0.891881	0.357903	-0.358054
C124	C	1.391881	0.857903	0.141946
C125	C	0.949996	0.357916	-0.358076
C126	C	1.449996	0.857916	0.141924
C127	C	0.755531	0.357838	-0.551709
C128	C	1.255531	0.857838	-0.051709
C129	C	0.755541	0.357822	-0.634255
C130	C	1.255541	0.857822	-0.134255
C131	C	0.755582	1.164167	-0.358032
C132	C	1.255582	1.664167	0.141968
C133	C	0.755562	1.081621	-0.358047
C134	C	1.255562	1.581621	0.141953
C135	C	0.720626	0.407340	-0.883060
C136	C	1.220626	0.907340	-0.383060
C137	C	0.707860	0.339601	-0.833664
C138	C	1.207860	0.839601	-0.333664
C139	C	0.755585	0.357713	-0.931375
C140	C	1.255585	0.857713	-0.431375
C141	C	0.768304	0.425502	-0.833689
C142	C	1.268304	0.925502	-0.333689
C143	C	0.755562	0.357771	-0.785390
C144	C	1.255562	0.857771	-0.285390
C145	C	0.742795	0.289938	-0.883067
C146	C	1.242795	0.789938	-0.383067
C147	C	0.803261	0.375885	-0.883096
C148	C	1.303261	0.875885	-0.383096
C149	C	0.790513	0.308099	-0.833722
C150	C	1.290513	0.808099	-0.333722
C151	C	0.755597	0.357681	-1.015474
C152	C	1.255597	0.857681	-0.515474
C153	C	0.755550	0.357795	-0.701293
C154	C	1.255550	0.857795	-0.201293
C155	C	0.755516	0.357854	-0.165051
C156	C	1.255516	0.857854	0.334949
C157	C	0.755608	0.357660	-0.082506
C158	C	1.255608	0.857660	0.417494
H159	H	0.206265	0.491731	-0.491473
H160	H	0.706265	0.991731	0.008527
N161	N	-0.052150	0.259064	-0.259516
N162	N	0.447850	0.759064	0.240484
H163	H	-0.074827	0.289199	-0.225052
H164	H	0.425173	0.789199	0.274948
H165	H	-0.026534	0.228948	-0.229527
H166	H	0.473466	0.728948	0.270473
N167	N	0.563704	0.456715	-0.456498
N168	N	1.063704	0.956715	0.043502
H169	H	0.538123	0.486843	-0.486539
H170	H	1.038123	0.986843	0.013461
H171	H	0.586385	0.426533	-0.490914
H172	H	1.086385	0.926533	0.009086
H173	H	0.305301	0.224003	-0.224597
H174	H	0.805301	0.724003	0.275403
H175	H	0.305311	0.491725	-0.491449
H176	H	0.805311	0.991725	0.008551
H177	H	0.457434	0.444148	-0.444010
H178	H	0.957434	0.944148	0.055990
N179	N	0.654391	0.911088	-0.319412
N180	N	1.154391	1.411088	0.180588
H181	H	0.654886	0.967036	-0.319097
H182	H	1.154886	1.467036	0.180903
H183	H	0.644523	0.892329	-0.268599
H184	H	1.144523	1.392329	0.231401
H185	H	0.731888	0.811280	-0.232887
H186	H	1.231888	1.311280	0.267113
N187	N	0.450187	0.259008	-0.259414
N188	N	0.950187	0.759008	0.240586
H189	H	0.475767	0.228881	-0.229371
H190	H	0.975767	0.728881	0.270629
H191	H	0.427558	0.224680	-0.289708
H192	H	0.927558	0.724680	0.210292
N193	N	0.563687	0.258993	-0.259395
N194	N	1.063687	0.758993	0.240605
H195	H	0.602420	0.266209	-0.266588
H196	H	1.102420	0.766209	0.233412
H197	H	0.554166	0.205971	-0.271050
H198	H	1.054166	0.705971	0.228950
N199	N	0.654444	0.319272	-0.804892
N200	N	1.154444	0.819272	-0.304892
H201	H	0.656960	0.272698	-0.774101
H202	H	1.156960	0.772698	-0.274101
H203	H	0.630137	0.310531	-0.848028
H204	H	1.130137	0.810531	-0.348028
H205	H	0.820014	0.903652	-0.266468
H206	H	1.320014	1.403652	0.233532
H207	H	0.054138	0.444197	-0.444084
H208	H	0.554138	0.944197	0.055916
H209	H	0.779072	0.482807	-0.812001
H210	H	1.279072	0.982807	-0.312001
N211	N	0.856573	0.803882	-0.396676
N212	N	1.356573	1.303882	0.103324
H213	H	0.866167	0.821783	-0.447905
H214	H	1.366167	1.321783	0.052095
H215	H	0.856206	0.747938	-0.395995
H216	H	1.356206	1.247938	0.104005
H217	H	0.779021	0.903806	-0.483113
H218	H	1.279021	1.403806	0.016887
N219	N	-0.052140	0.456777	-0.456632
N220	N	0.447860	0.956777	0.043368
H221	H	-0.090873	0.449559	-0.449441
H222	H	0.409127	0.949559	0.050559
H223	H	-0.042573	0.445289	-0.509690
H224	H	0.457427	0.945289	-0.009690
H225	H	0.206251	0.224021	-0.224602
H226	H	0.706251	0.724021	0.275398
N227	N	0.061331	0.259041	-0.259493
N228	N	0.561331	0.759041	0.240507
H229	H	0.083963	0.289169	-0.225020
H230	H	0.583963	0.789169	0.274980
H231	H	0.083978	0.224666	-0.289774
H232	H	0.583978	0.724666	0.210226
N233	N	0.728469	0.214009	-0.911667
N234	N	1.228469	0.714009	-0.411667
H235	H	0.728550	0.214461	-0.967619
H236	H	1.228550	0.714461	-0.467619
H237	H	0.692573	0.200240	-0.893194
H238	H	1.192573	0.700240	-0.393194
H239	H	0.691049	0.449231	-0.904724
H240	H	1.191049	0.949231	-0.404724
N241	N	0.829666	0.252485	-0.805208
N242	N	1.329666	0.752485	-0.305208
H243	H	0.819984	0.201346	-0.823269
H244	H	1.319984	0.701346	-0.323269
H245	H	0.829646	0.253174	-0.749261
H246	H	1.329646	0.753174	-0.249261
H247	H	0.843578	0.391255	-0.904825
H248	H	1.343578	0.891255	-0.404825
H249	H	0.690959	0.811181	-0.449445
H250	H	1.190959	1.311181	0.050555
