data_functionalizedCrystal
_audit_creation_method	'MofGen! by Chris Wilmer'
_symmetry_space_group_name_H-M	'P1'
_symmetry_Int_Tables_number	1
_symmetry_cell_setting	triclinic
loop_
_symmetry_equiv_pos_as_xyz
  x,y,z
_cell_length_a	7.681481
_cell_length_b	16.992694
_cell_length_c	16.992695
_cell_angle_alpha	89.331777
_cell_angle_beta	96.129649
_cell_angle_gamma	96.126470
loop_
_atom_site_label
_atom_site_type_symbol
_atom_site_fract_x
_atom_site_fract_y
_atom_site_fract_z
O1	O	0.146212	-1.043879	0.173887
O2	O	0.146264	-0.815477	0.172058
O3	O	0.146224	-0.928763	0.058772
O4	O	0.146252	-0.930593	0.287173
O5	O	-0.146638	-0.942716	0.044806
O6	O	-0.146599	-0.829429	0.158092
O7	O	-0.146650	-1.057832	0.159921
Zn8	Zn	-0.193123	-0.945846	0.156789
Zn9	Zn	0.192736	-0.927463	0.175190
O10	O	-0.146611	-0.944546	0.273207
C11	C	-0.000161	-0.793093	0.162720
C12	C	-0.000141	-0.705607	0.155692
N13	N	-0.456461	-0.958398	0.144231
C14	C	-0.000206	-0.933384	0.022429
C15	C	-0.000204	-0.926355	-0.065056
N16	N	0.456075	-0.914917	0.187743
C17	C	-0.000222	-1.080216	0.169260
C18	C	-0.000230	-1.167701	0.176288
C19	C	-0.000135	-0.659616	0.223510
C20	C	-0.000160	-0.577416	0.216900
C21	C	-0.000179	-0.541209	0.142472
C22	C	-0.000191	-0.587207	0.074648
C23	C	-0.000178	-0.669405	0.081258
C24	C	-0.000229	-0.295897	0.115075
C25	C	-0.000236	-0.213692	0.108470
C26	C	-0.000208	-0.203908	0.250722
C27	C	-0.000185	-0.286108	0.257327
C28	C	-0.000207	-0.332099	0.189503
N29	N	-0.000199	-0.457188	0.135713
N30	N	-0.000199	-0.416119	0.196261
C31	C	-0.000221	-0.994174	-0.111047
C32	C	-0.000203	-0.987564	-0.193247
C33	C	-0.000180	-0.913135	-0.229455
C34	C	-0.000158	-0.845311	-0.183456
C35	C	-0.000163	-0.851921	-0.101258
C36	C	-0.000150	-0.885739	-0.474767
C37	C	-0.000150	-0.879135	-0.556973
C38	C	-0.000192	-1.021388	-0.566758
C39	C	-0.000208	-1.027992	-0.484557
C40	C	-0.000176	-0.960167	-0.438566
N41	N	-0.000167	-0.906377	-0.313476
N42	N	-0.000177	-0.966925	-0.354545
C43	C	-0.000176	-0.939925	0.309551
C44	C	-0.000167	-0.946953	0.397036
H45	H	-0.531674	-1.002789	0.099824
H46	H	-0.468704	-0.870529	0.232158
H47	H	-0.000159	-0.818524	-0.586451
H48	H	-0.000118	-0.689090	0.284118
Br49	Br	-0.000097	-0.744298	-0.232592
H50	H	-0.000250	-0.184215	0.047858
H51	H	-0.000214	-1.076606	-0.604212
H52	H	-0.000152	-0.539973	0.272125
Br53	Br	-0.000235	-0.538070	-0.026365
H54	H	-0.000149	-0.315581	0.317935
Br55	Br	-0.000182	-0.141488	0.342764
H56	H	-0.000248	-0.333333	0.059847
Br57	Br	-0.000126	-0.759877	-0.038838
Br58	Br	-0.000226	-1.079608	-0.255662
Br59	Br	-0.000278	-1.095190	-0.061919
Br60	Br	-0.000182	-1.129003	-0.435422
H61	H	-0.000183	-0.706851	0.026033
H62	H	-0.000125	-0.830511	-0.437331
