data_functionalizedCrystal
_audit_creation_method	'MofGen! by Chris Wilmer'
_symmetry_space_group_name_H-M	'P1'
_symmetry_Int_Tables_number	1
_symmetry_cell_setting	triclinic
loop_
_symmetry_equiv_pos_as_xyz
  x,y,z
_cell_length_a	12.759401
_cell_length_b	13.897448
_cell_length_c	13.897433
_cell_angle_alpha	89.928482
_cell_angle_beta	89.952141
_cell_angle_gamma	90.019217
loop_
_atom_site_label
_atom_site_type_symbol
_atom_site_fract_x
_atom_site_fract_y
_atom_site_fract_z
Zn1	Zn	1.606524	-0.383555	-0.545365
Zn2	Zn	2.106524	0.116445	-0.045365
Zn3	Zn	1.606323	-0.544992	-0.384066
Zn4	Zn	2.106323	-0.044992	0.115934
Zn5	Zn	1.430740	-0.383717	-0.384085
Zn6	Zn	1.930740	0.116283	0.115915
Zn7	Zn	1.430805	-0.544814	-0.545321
Zn8	Zn	1.930805	-0.044814	-0.045321
O9	O	1.518598	-0.464270	-0.464710
O10	O	2.018598	0.035730	0.035290
O11	O	1.753518	-0.404977	-0.523979
O12	O	2.253518	0.095023	-0.023979
O13	O	1.582920	-0.523741	-0.249087
O14	O	2.082920	-0.023741	0.250913
O15	O	1.454115	-0.248714	-0.405506
O16	O	1.954115	0.251286	0.094494
O17	O	1.753371	-0.523584	-0.405474
O18	O	2.253371	-0.023584	0.094526
O19	O	1.583262	-0.248595	-0.523998
O20	O	2.083262	0.251405	-0.023998
O21	O	1.453920	-0.405253	-0.249101
O22	O	1.953920	0.094747	0.250899
O23	O	1.283728	-0.405080	-0.405463
O24	O	1.783728	0.094920	0.094537
O25	O	1.454226	-0.523281	-0.680309
O26	O	1.954226	-0.023281	-0.180309
O27	O	1.283775	-0.523438	-0.523922
O28	O	1.783775	-0.023438	-0.023922
O29	O	1.583326	-0.404805	-0.680341
O30	O	2.083326	0.095195	-0.180341
O31	O	1.582984	-0.679950	-0.405431
O32	O	2.082984	-0.179950	0.094569
O33	O	1.454031	-0.679820	-0.523904
O34	O	1.954031	-0.179820	-0.023904
C35	C	1.245631	-0.464258	-0.464690
C36	C	1.745631	0.035742	0.035310
C37	C	1.128854	-0.464276	-0.464705
C38	C	1.628854	0.035724	0.035295
C39	C	1.074044	-0.525999	-0.526290
C40	C	1.574044	-0.025999	-0.026290
C41	C	0.964320	-0.526002	-0.526309
C42	C	1.464320	-0.026002	-0.026309
C43	C	0.964225	-0.402558	-0.403150
C44	C	1.464225	0.097442	0.096850
C45	C	1.073947	-0.402550	-0.403137
C46	C	1.573947	0.097450	0.096863
C47	C	1.518521	-0.714884	-0.464682
C48	C	2.018521	-0.214884	0.035318
C49	C	1.518585	-0.822098	-0.464702
C50	C	2.018585	-0.322098	0.035298
C51	C	1.518695	-1.018393	-0.464762
C52	C	2.018695	-0.518393	0.035238
C53	C	1.518631	-0.909161	-0.464732
C54	C	2.018631	-0.409161	0.035268
C55	C	1.792631	-0.464282	-0.464729
C56	C	2.292631	0.035718	0.035271
C57	C	1.909408	-0.464288	-0.464738
C58	C	2.409408	0.035712	0.035262
C59	C	1.518805	-0.464005	-0.716303
C60	C	2.018805	0.035995	-0.216303
C61	C	1.518894	-0.463892	-0.823517
C62	C	2.018894	0.036108	-0.323517
C63	C	1.518704	-0.212677	-0.464759
C64	C	2.018704	0.287323	0.035241
C65	C	1.518749	-0.105463	-0.464780
C66	C	2.018749	0.394537	0.035220
C67	C	1.518452	-0.464464	-0.214095
C68	C	2.018452	0.035536	0.285905
C69	C	1.518567	-0.464305	-0.106881
C70	C	2.018567	0.035695	0.393119
C71	C	1.518801	-0.464022	0.089413
C72	C	2.018801	0.035978	0.589413
C73	C	1.518674	-0.464182	-0.019819
C74	C	2.018674	0.035818	0.480181
H75	H	0.919699	-0.576262	-0.576459
H76	H	1.419699	-0.076262	-0.076459
N77	N	1.133081	-0.335981	-0.336710
N78	N	1.633081	0.164019	0.163290
H79	H	1.178656	-0.291302	-0.375991
H80	H	1.678656	0.208698	0.124009
H81	H	1.081591	-0.296946	-0.297713
H82	H	1.581591	0.203054	0.202287
N83	N	0.905004	-0.336011	-0.336722
N84	N	1.405004	0.163989	0.163278
H85	H	0.827178	-0.345390	-0.346064
H86	H	1.327178	0.154610	0.153936
H87	H	0.924123	-0.351011	-0.267812
H88	H	1.424123	0.148989	0.232188
H89	H	1.118746	-0.576258	-0.576425
H90	H	1.618746	-0.076258	-0.076425
