data_functionalizedCrystal
_audit_creation_method	'MofGen! by Chris Wilmer'
_symmetry_space_group_name_H-M	'P1'
_symmetry_Int_Tables_number	1
_symmetry_cell_setting	triclinic
loop_
_symmetry_equiv_pos_as_xyz
  x,y,z
_cell_length_a	13.635800
_cell_length_b	14.160815
_cell_length_c	15.030972
_cell_angle_alpha	96.715872
_cell_angle_beta	133.920464
_cell_angle_gamma	101.151576
loop_
_atom_site_label
_atom_site_type_symbol
_atom_site_fract_x
_atom_site_fract_y
_atom_site_fract_z
V1	V	2.110831	0.330076	0.179675
O2	O	1.987793	0.292628	-0.009783
O3	O	2.196468	0.357792	0.357371
O4	O	2.078698	0.460359	0.176408
O5	O	2.106377	0.189351	0.172433
V6	V	2.339440	0.309603	0.157074
O7	O	2.270310	0.374986	0.229254
O8	O	2.405060	0.264694	0.107495
O9	O	2.142200	0.281888	-0.020622
O10	O	2.521177	0.347051	0.346532
O11	O	2.402592	0.450329	0.164316
O12	O	2.259970	0.179320	0.160341
V13	V	2.610831	0.330076	0.179675
O14	O	2.487793	0.292628	-0.009783
O15	O	2.696468	0.357792	0.357371
O16	O	2.578698	0.460359	0.176408
O17	O	2.606377	0.189351	0.172433
V18	V	2.839440	0.309603	0.157074
O19	O	2.770310	0.374986	0.229254
O20	O	2.905060	0.264694	0.107495
O21	O	2.642200	0.281888	-0.020622
O22	O	3.021177	0.347051	0.346532
O23	O	2.902592	0.450329	0.164316
O24	O	2.759970	0.179320	0.160341
C25	C	1.995717	0.491152	0.169867
C26	C	2.010813	0.597856	0.168371
C27	C	2.038481	0.793220	0.165627
C28	C	2.135361	0.846465	0.171140
C29	C	2.150756	0.955173	0.169614
C30	C	2.023081	0.684503	0.167154
C31	C	2.145945	0.360319	0.400705
C32	C	2.256553	0.383848	0.545970
C33	C	2.178114	1.148525	0.166892
C34	C	2.163031	1.041823	0.168397
C35	C	2.279764	0.307688	0.593312
C36	C	2.394083	0.332005	0.743451
C37	C	2.024399	0.279359	-0.063949
C38	C	1.903410	0.255836	-0.209213
C39	C	2.527885	0.279358	0.936051
C40	C	2.417287	0.255834	0.790787
C41	C	2.645945	0.360319	0.400705
C42	C	2.756553	0.383848	0.545970
C43	C	2.495717	0.491152	0.169867
C44	C	2.510813	0.597856	0.168371
C45	C	2.674625	0.148523	0.166887
C46	C	2.649144	0.041817	0.168376
C47	C	1.929006	0.238869	-0.284075
C48	C	1.815331	0.216751	-0.420570
C49	C	1.676063	0.211606	-0.482199
C50	C	1.650466	0.228572	-0.407327
C51	C	1.764138	0.250684	-0.270836
C52	C	2.903451	0.400818	0.620833
C53	C	3.007399	0.422942	0.757329
C54	C	2.964444	0.428088	0.818958
C55	C	2.817533	0.411119	0.744085
C56	C	2.713590	0.389003	0.607594
C57	C	2.538481	0.793220	0.165627
C58	C	2.635361	0.846465	0.171140
C59	C	2.650756	0.955173	0.169614
C60	C	2.523081	0.684503	0.167154
H61	H	2.206751	0.810412	0.177019
H62	H	1.743279	0.264506	-0.209891
H63	H	2.458847	0.415216	0.814068
H64	H	2.938451	0.396625	0.570672
H65	H	2.321320	0.467054	0.616591
H66	H	2.593979	0.375182	0.546649
H67	H	3.127012	0.436752	0.818271
H68	H	3.049095	0.446097	0.930099
H69	H	2.352531	0.172622	0.720172
H70	H	2.706751	0.810412	0.177019
H71	H	1.583517	0.193601	-0.593339
H72	H	2.042397	0.243055	-0.233915
H73	H	2.782578	0.415313	0.794285
H74	H	1.836200	0.202941	-0.481512
H75	H	2.467108	0.829276	0.159763
H76	H	1.537059	0.224380	-0.457526
H77	H	1.967108	0.829276	0.159763
H78	H	2.215007	0.224483	0.522692
