data_functionalizedCrystal
_audit_creation_method	'MofGen! by Chris Wilmer'
_symmetry_space_group_name_H-M	'P1'
_symmetry_Int_Tables_number	1
_symmetry_cell_setting	triclinic
loop_
_symmetry_equiv_pos_as_xyz
  x,y,z
_cell_length_a	10.723024
_cell_length_b	10.723024
_cell_length_c	15.186229
_cell_angle_alpha	89.997422
_cell_angle_beta	89.996943
_cell_angle_gamma	84.467869
loop_
_atom_site_label
_atom_site_type_symbol
_atom_site_fract_x
_atom_site_fract_y
_atom_site_fract_z
O1	O	1.657187	0.175026	-0.073220
O2	O	1.294034	0.191779	-0.073223
O3	O	1.483987	0.001826	-0.073219
O4	O	1.467234	0.364978	-0.073225
O5	O	1.483974	0.001823	0.073239
O6	O	1.294021	0.191776	0.073234
O7	O	1.657174	0.175023	0.073237
Zn8	Zn	1.475596	0.183399	0.096489
Zn9	Zn	1.475612	0.183403	-0.096475
O10	O	1.467221	0.364976	0.073232
C11	C	1.247528	0.190558	0.000005
C12	C	1.108974	0.186911	0.000004
C13	C	0.917217	0.073603	0.000004
C14	C	1.060420	0.077371	0.000006
C15	C	1.482762	-0.044675	0.000009
C16	C	1.479114	-0.183229	0.000006
C17	C	1.585401	-0.258212	0.000006
C18	C	1.581634	-0.401415	0.000002
C19	C	1.703680	0.176243	0.000007
C20	C	1.842234	0.179891	0.000002
C21	C	1.468447	0.411477	0.000003
C22	C	1.472094	0.550031	-0.000000
N23	N	1.475593	0.183396	0.228181
N24	N	1.475625	0.183396	-0.228168
C25	C	1.559733	0.099313	0.453906
C26	C	1.559737	0.099311	0.546096
C27	C	1.391475	0.267482	0.546101
C28	C	1.391466	0.267478	0.453913
C29	C	1.475602	0.183395	0.407818
C30	C	1.475615	0.183397	0.592196
C31	C	1.475619	0.183394	0.692152
C32	C	1.475598	0.183396	0.307855
H33	H	1.044549	0.277906	-0.000002
H34	H	1.679187	-0.216390	0.000012
F35	F	1.301914	0.356969	0.404858
F36	F	1.356524	-0.237887	-0.000003
F37	F	1.353153	-0.365762	0.000007
F38	F	0.862559	-0.048986	0.000012
F39	F	1.301939	0.356969	0.595164
H40	H	1.628240	0.030846	0.416378
F41	F	1.649278	0.009817	0.595144
H42	H	0.884056	0.273677	0.000006
F43	F	1.700570	-0.485629	0.000008
F44	F	1.144634	-0.041565	0.000002
