data_functionalizedCrystal
_audit_creation_method	'MofGen! by Chris Wilmer'
_symmetry_space_group_name_H-M	'P1'
_symmetry_Int_Tables_number	1
_symmetry_cell_setting	triclinic
loop_
_symmetry_equiv_pos_as_xyz
  x,y,z
_cell_length_a	6.817900
_cell_length_b	10.943632
_cell_length_c	11.102369
_cell_angle_alpha	91.855274
_cell_angle_beta	71.392932
_cell_angle_gamma	71.161120
loop_
_atom_site_label
_atom_site_type_symbol
_atom_site_fract_x
_atom_site_fract_y
_atom_site_fract_z
V1	V	4.112751	-0.178618	-0.396224
O2	O	4.070512	0.008596	-0.388713
O3	O	4.090720	-0.354181	-0.393484
O4	O	4.089516	-0.175864	-0.569045
O5	O	4.071724	-0.170955	-0.211937
V6	V	4.589701	-0.156225	-0.374186
O7	O	4.388427	-0.227737	-0.444568
O8	O	4.764222	-0.107106	-0.325842
O9	O	4.388525	0.019338	-0.376926
O10	O	4.749337	-0.343439	-0.381697
O11	O	4.748125	-0.163888	-0.558473
O12	O	4.389729	-0.158978	-0.201365
C13	C	3.941321	-0.396979	-0.387226
C14	C	4.004763	-0.540505	-0.386138
C15	C	3.849660	-0.617657	-0.378900
C16	C	3.929206	-0.690307	-0.276305
C17	C	4.038286	-0.723593	-0.486807
C18	C	4.083429	-0.611250	-0.283470
C19	C	4.192527	-0.644543	-0.494066
C20	C	4.272184	-0.717155	-0.391450
C21	C	3.939784	-0.169518	-0.611170
C22	C	4.002246	-0.168428	-0.752452
C23	C	4.029273	-0.048682	-0.933462
C24	C	3.970613	-0.049690	-0.800712
C25	C	4.092566	-0.286167	-0.836951
C26	C	4.151239	-0.285159	-0.969699
C27	C	3.958855	0.087847	-0.912538
C28	C	3.900195	0.086839	-0.779788
C29	C	4.202802	-0.165329	-0.159234
C30	C	4.119578	-0.166412	-0.017951
C31	C	4.201266	0.062130	-0.383181
C32	C	4.117064	0.205654	-0.384277
H33	H	4.451403	-0.760379	-0.396720
N34	N	3.669040	0.158460	-0.718277
N35	N	3.554283	0.209737	-0.783805
H36	H	3.391034	0.260316	-0.740365
N37	N	4.331220	-0.618443	-0.609587
N38	N	4.247853	-0.556999	-0.684692
H39	H	4.345792	-0.538564	-0.766289
H40	H	3.818537	-0.711068	-0.184224
H41	H	4.019771	-0.772511	-0.572712
N42	N	4.122221	0.147717	-0.953915
N43	N	4.307796	0.084614	-1.035537
H44	H	4.423175	0.126894	-1.064761
H45	H	4.101859	-0.562485	-0.197450
N46	N	3.771391	0.147767	-0.949618
N47	N	3.619997	0.101633	-0.926794
H48	H	3.487598	0.143949	-0.952982
N49	N	3.624759	-0.563123	-0.372090
N50	N	3.473337	-0.572214	-0.277335
H51	H	3.314501	-0.533701	-0.272521
N52	N	4.243527	-0.405430	-1.055987
N53	N	4.271785	-0.511439	-1.012884
H54	H	4.336971	-0.596387	-1.073824
N55	N	4.124899	-0.407447	-0.787639
N56	N	4.072522	-0.408334	-0.669113
H57	H	4.095359	-0.493990	-0.634287
H58	H	4.005948	0.123794	-0.737259
