data_functionalizedCrystal
_audit_creation_method	'MofGen! by Chris Wilmer'
_symmetry_space_group_name_H-M	'P1'
_symmetry_Int_Tables_number	1
_symmetry_cell_setting	triclinic
loop_
_symmetry_equiv_pos_as_xyz
  x,y,z
_cell_length_a	19.188930
_cell_length_b	8.559649
_cell_length_c	7.088929
_cell_angle_alpha	95.344185
_cell_angle_beta	83.831241
_cell_angle_gamma	76.461723
loop_
_atom_site_label
_atom_site_type_symbol
_atom_site_fract_x
_atom_site_fract_y
_atom_site_fract_z
O1	O	-0.907629	-0.216103	-0.159581
O2	O	-0.702920	-0.242953	-0.159448
O3	O	-0.823310	0.003199	-0.159524
O4	O	-0.787240	-0.462255	-0.159505
O5	O	-0.839403	0.036169	0.158441
O6	O	-0.719013	-0.209983	0.158517
O7	O	-0.923722	-0.183133	0.158384
Cu8	Cu	-0.822837	-0.193548	0.187483
Cu9	Cu	-0.803805	-0.232538	-0.188547
O10	O	-0.803333	-0.429285	0.158460
C11	C	-0.685002	-0.225596	-0.000449
C12	C	-0.607637	-0.222980	-0.000399
C13	C	-0.834090	0.079233	-0.000547
C14	C	-0.842226	0.256668	-0.000563
C15	C	-0.941640	-0.200490	-0.000620
C16	C	-1.019005	-0.203108	-0.000682
C17	C	-0.555159	-0.367421	-0.000422
C18	C	-0.482463	-0.364970	-0.000444
C19	C	-0.462245	-0.218073	-0.000479
C20	C	-0.514734	-0.073612	-0.000444
C21	C	-0.587430	-0.076065	-0.000404
N22	N	-0.354655	-0.117016	-0.108778
N23	N	-0.285596	-0.114695	-0.108820
C24	C	-0.243218	-0.210672	-0.000596
N25	N	-0.272505	-0.309083	0.107648
N26	N	-0.341570	-0.311409	0.107682
C27	C	-0.383421	-0.215396	-0.000522
C28	C	-0.111914	-0.352465	-0.000640
C29	C	-0.039217	-0.350006	-0.000650
C30	C	-0.071489	-0.058646	-0.000670
C31	C	-0.144185	-0.061107	-0.000641
C32	C	-0.164392	-0.208021	-0.000636
C33	C	-0.792553	-0.505319	-0.000521
C34	C	-0.784416	-0.682755	-0.000518
N35	N	-0.836228	-0.166122	0.451963
N36	N	-0.790421	-0.259951	-0.453027
H37	H	-0.571606	-0.487050	-0.000422
H38	H	-0.883709	-0.068894	0.533589
Cl39	Cl	-0.653405	0.105533	-0.000376
H40	H	-0.897949	0.340561	-0.000584
H41	H	0.003510	-0.467631	-0.000658
H42	H	-0.728698	0.233363	-0.000475
Cl43	Cl	-0.489319	0.111060	-0.000478
H44	H	-0.439728	-0.482594	-0.000458
Cl45	Cl	-0.717123	-0.410075	0.420967
H46	H	-0.128369	-0.472088	-0.000608
H47	H	-0.055023	0.060948	-0.000817
H48	H	-0.186914	0.056512	-0.000632
