data_functionalizedCrystal
_audit_creation_method	'MofGen! by Chris Wilmer'
_symmetry_space_group_name_H-M	'P1'
_symmetry_Int_Tables_number	1
_symmetry_cell_setting	triclinic
loop_
_symmetry_equiv_pos_as_xyz
  x,y,z
_cell_length_a	8.559649
_cell_length_b	9.065218
_cell_length_c	7.540329
_cell_angle_alpha	90.003038
_cell_angle_beta	89.998238
_cell_angle_gamma	102.602725
loop_
_atom_site_label
_atom_site_type_symbol
_atom_site_fract_x
_atom_site_fract_y
_atom_site_fract_z
O1	O	0.233903	-1.931006	-0.147477
O2	O	0.733903	-1.431006	0.352523
O3	O	0.253089	-1.499311	-0.147479
O4	O	0.753089	-0.999311	0.352521
O5	O	0.011444	-1.753191	-0.147476
O6	O	0.511444	-1.253191	0.352524
O7	O	0.475547	-1.677126	-0.147480
O8	O	0.975547	-1.177126	0.352520
O9	O	0.011441	-1.753178	0.147489
O10	O	0.511441	-1.253178	0.647489
O11	O	0.253085	-1.499298	0.147486
O12	O	0.753085	-0.999298	0.647486
O13	O	0.233900	-1.930993	0.147488
O14	O	0.733900	-1.430993	0.647488
Cu15	Cu	0.243492	-1.715144	0.174419
Cu16	Cu	0.743492	-1.215144	0.674419
Cu17	Cu	0.243496	-1.715160	-0.174411
Cu18	Cu	0.743496	-1.215160	0.325589
O19	O	0.475544	-1.677113	0.147485
O20	O	0.975544	-1.177113	0.647485
C21	C	0.251243	-1.444549	0.000003
C22	C	0.751243	-0.944549	0.500003
C23	C	0.245730	-1.281399	0.000002
C24	C	0.745730	-0.781399	0.500002
C25	C	-0.048004	-1.758949	0.000003
C26	C	0.451996	-1.258949	0.500003
C27	C	-0.225136	-1.776108	-0.000007
C28	C	0.274864	-1.276108	0.499993
C29	C	0.235745	-1.985755	0.000002
C30	C	0.735745	-1.485755	0.500002
C31	C	0.241258	-2.148905	-0.000009
C32	C	0.741258	-1.648905	0.499991
C33	C	0.534992	-1.671355	0.000002
C34	C	1.034992	-1.171355	0.500002
C35	C	0.712124	-1.654196	-0.000000
C36	C	1.212124	-1.154196	0.500000
N37	N	0.243489	-1.715144	0.419768
N38	N	0.743489	-1.215144	0.919768
N39	N	0.243487	-1.715173	-0.419759
N40	N	0.743487	-1.215173	0.080241
H41	H	-0.206080	-1.536695	0.000005
H42	H	0.293920	-1.036695	0.500005
H43	H	-0.306941	-1.893616	0.000008
H44	H	0.193059	-1.393616	0.500008
