data_functionalizedCrystal
_audit_creation_method	'MofGen! by Chris Wilmer'
_symmetry_space_group_name_H-M	'P1'
_symmetry_Int_Tables_number	1
_symmetry_cell_setting	triclinic
loop_
_symmetry_equiv_pos_as_xyz
  x,y,z
_cell_length_a	6.817900
_cell_length_b	19.452420
_cell_length_c	23.752930
_cell_angle_alpha	96.754571
_cell_angle_beta	100.066047
_cell_angle_gamma	101.696715
loop_
_atom_site_label
_atom_site_type_symbol
_atom_site_fract_x
_atom_site_fract_y
_atom_site_fract_z
V1	V	-3.979847	-0.098110	-0.178676
O2	O	-3.977374	0.003762	-0.174986
O3	O	-3.922913	-0.193620	-0.177731
O4	O	-3.914988	-0.097019	-0.256476
O5	O	-3.985355	-0.093508	-0.095696
V6	V	-4.466714	-0.085876	-0.168717
O7	O	-4.233771	-0.124948	-0.200521
O8	O	-4.662987	-0.059039	-0.146872
O9	O	-4.300441	0.009634	-0.169662
O10	O	-4.586584	-0.187748	-0.172406
O11	O	-4.578603	-0.090479	-0.251697
O12	O	-4.308367	-0.086967	-0.090917
C13	C	-3.766371	-0.216890	-0.174983
C14	C	-3.800997	-0.294973	-0.174729
C15	C	-3.789114	-0.321329	-0.122177
C16	C	-3.821725	-0.394695	-0.121921
C17	C	-3.866179	-0.441701	-0.174219
C18	C	-3.878073	-0.415337	-0.226779
C19	C	-3.845482	-0.341973	-0.227034
N20	N	-3.825184	-0.562341	-0.211052
N21	N	-3.856138	-0.632032	-0.210806
C22	C	-3.964379	-0.662743	-0.173454
N23	N	-4.040467	-0.621126	-0.136348
N24	N	-4.009501	-0.551427	-0.136592
C25	C	-3.901522	-0.521253	-0.173948
C26	C	-3.987857	-0.768649	-0.120620
C27	C	-4.020481	-0.842017	-0.120366
C28	C	-4.076810	-0.862657	-0.225225
C29	C	-4.044205	-0.789292	-0.225478
C30	C	-3.999720	-0.742291	-0.173174
C31	C	-3.756260	-0.093666	-0.275430
C32	C	-3.784457	-0.093406	-0.339034
C33	C	-4.140667	-0.095249	-0.736364
C34	C	-4.167185	-0.094996	-0.796125
O35	O	-4.334961	-0.097835	-0.829518
N36	N	-3.999274	-0.091352	-0.823091
C37	C	-3.804829	-0.087955	-0.790291
O38	O	-3.664443	-0.084831	-0.818715
C39	C	-3.778311	-0.088203	-0.730530
C40	C	-3.946239	-0.091854	-0.703568
C41	C	-4.308579	-0.098899	-0.709402
C42	C	-4.282063	-0.099154	-0.649644
C43	C	-4.087635	-0.095759	-0.616849
C44	C	-3.919723	-0.092109	-0.643811
C45	C	-3.583866	-0.084801	-0.697730
C46	C	-3.557362	-0.085049	-0.637965
C47	C	-3.725290	-0.088700	-0.611003
C48	C	-3.698779	-0.088969	-0.551258
N49	N	-3.866689	-0.092612	-0.524292
C50	C	-4.061117	-0.096008	-0.557087
C51	C	-3.860531	-0.087432	-0.915794
C52	C	-3.887049	-0.087188	-0.975555
C53	C	-4.249403	-0.094228	-0.981385
C54	C	-4.222885	-0.094477	-0.921624
C55	C	-4.028442	-0.091075	-0.888828
C56	C	-4.005418	-0.096543	-0.431592
C57	C	-3.978886	-0.096801	-0.371829
C58	C	-3.616533	-0.089757	-0.366004
C59	C	-3.643065	-0.089503	-0.425762
C60	C	-3.837522	-0.092894	-0.458554
O61	O	-3.531063	-0.086129	-0.517828
O62	O	-4.201470	-0.099121	-0.528654
C63	C	-4.120326	0.032900	-0.172408
C64	C	-4.064937	0.110982	-0.172665
C65	C	-4.130437	-0.090323	-0.071960
C66	C	-4.081479	-0.090580	-0.008355
H67	H	-3.914272	-0.453614	-0.269361
Br68	Br	-3.861612	-0.306202	-0.298361
H69	H	-4.407721	-0.096992	-1.008098
Br70	Br	-3.927493	-0.704859	-0.049638
Br71	Br	-3.293458	-0.080425	-0.593459
H72	H	-3.750308	-0.084226	-0.997503
H73	H	-3.752907	-0.283066	-0.079587
H74	H	-4.010815	-0.863473	-0.077570
H75	H	-3.506328	-0.086538	-0.447716
H76	H	-4.113006	-0.900929	-0.267808
H77	H	-3.812044	-0.416158	-0.079125
H78	H	-3.702186	-0.084661	-0.889095
Br79	Br	-3.352675	-0.085154	-0.321485
H80	H	-4.115642	-0.099776	-0.349881
Br81	Br	-4.060318	-0.753519	-0.296803
H82	H	-3.447116	-0.081828	-0.719671
Br83	Br	-4.269321	-0.101143	-0.476087
H84	H	-4.359629	-0.097449	-0.899676
Br85	Br	-4.572476	-0.103509	-0.753899
H86	H	-4.418809	-0.102124	-0.627697
