data_functionalizedCrystal
_audit_creation_method	'MofGen! by Chris Wilmer'
_symmetry_space_group_name_H-M	'P1'
_symmetry_Int_Tables_number	1
_symmetry_cell_setting	triclinic
loop_
_symmetry_equiv_pos_as_xyz
  x,y,z
_cell_length_a	15.944551
_cell_length_b	14.044220
_cell_length_c	12.503572
_cell_angle_alpha	86.156832
_cell_angle_beta	86.485927
_cell_angle_gamma	91.656192
loop_
_atom_site_label
_atom_site_type_symbol
_atom_site_fract_x
_atom_site_fract_y
_atom_site_fract_z
O1	O	1.128105	-0.116774	-0.089210
O2	O	1.461439	0.216559	0.244123
O3	O	1.794772	0.549893	0.577457
O4	O	0.884686	-0.131845	-0.089237
O5	O	1.218019	0.201489	0.244096
O6	O	1.551352	0.534822	0.577430
O7	O	1.002741	0.013675	-0.089213
O8	O	1.336074	0.347008	0.244120
O9	O	1.669408	0.680341	0.577453
O10	O	1.010050	-0.262294	-0.089234
O11	O	1.343383	0.071040	0.244099
O12	O	1.676716	0.404373	0.577433
O13	O	0.993864	0.002713	0.089427
O14	O	1.327197	0.336046	0.422760
O15	O	1.660531	0.669379	0.756093
O16	O	0.875808	-0.142807	0.089403
O17	O	1.209142	0.190527	0.422736
O18	O	1.542475	0.523860	0.756070
O19	O	1.119228	-0.127736	0.089430
O20	O	1.452561	0.205597	0.422763
O21	O	1.785895	0.538930	0.756097
Cu22	Cu	0.996708	-0.136272	0.105728
Cu23	Cu	1.330041	0.197061	0.439061
Cu24	Cu	1.663374	0.530394	0.772394
Cu25	Cu	1.007206	-0.123309	-0.105535
Cu26	Cu	1.340539	0.210025	0.227798
Cu27	Cu	1.673873	0.543358	0.561132
O28	O	1.001173	-0.273256	0.089406
O29	O	1.334506	0.060078	0.422740
O30	O	1.667839	0.393411	0.756073
C31	C	0.848906	-0.136700	0.000080
C32	C	1.182240	0.196634	0.333413
C33	C	1.515573	0.529967	0.666746
C34	C	0.755520	-0.134823	0.000070
C35	C	1.088854	0.198510	0.333403
C36	C	1.422187	0.531843	0.666736
N37	N	0.989330	-0.145390	0.254319
N38	N	1.322663	0.187943	0.587652
N39	N	1.655997	0.521277	0.920985
C40	C	0.995104	0.043508	0.000107
C41	C	1.328437	0.376842	0.333440
C42	C	1.661771	0.710175	0.666773
C43	C	0.985563	0.148735	0.000107
C44	C	1.318896	0.482068	0.333440
C45	C	1.652229	0.815401	0.666774
C46	C	0.533573	-0.040141	0.000097
C47	C	0.866906	0.293193	0.333431
C48	C	1.200239	0.626526	0.666764
C49	C	0.480222	-0.078704	-0.087985
C50	C	0.813555	0.254630	0.245348
C51	C	1.146888	0.587963	0.578682
C52	C	0.584540	-0.131431	0.000083
C53	C	0.917873	0.201903	0.333416
C54	C	1.251206	0.535236	0.666749
C55	C	0.471493	-0.089533	0.088140
C56	C	0.804827	0.243800	0.421474
C57	C	1.138160	0.577134	0.754807
C58	C	0.419380	-0.128147	0.000100
C59	C	0.752714	0.205187	0.333433
C60	C	1.086047	0.538520	0.666766
C61	C	0.532423	-0.170014	-0.088073
C62	C	0.865756	0.163319	0.245261
C63	C	1.199089	0.496652	0.578594
C64	C	0.523696	-0.180836	0.088132
C65	C	0.857029	0.152498	0.421465
C66	C	1.190362	0.485831	0.754798
C67	C	0.470368	-0.219464	0.000028
C68	C	0.803702	0.113869	0.333361
C69	C	1.137035	0.447203	0.666695
C70	C	0.679684	-0.133320	0.000072
C71	C	1.013017	0.200014	0.333405
C72	C	1.346351	0.533347	0.666738
C73	C	0.324238	-0.126264	0.000103
C74	C	0.657571	0.207069	0.333436
C75	C	0.990905	0.540402	0.666770
C76	C	1.155007	-0.122881	0.000111
C77	C	1.488341	0.210452	0.333444
C78	C	1.821674	0.543786	0.666778
C79	C	1.248394	-0.124757	0.000114
C80	C	1.581727	0.208576	0.333447
C81	C	1.915060	0.541910	0.666781
C82	C	1.008810	-0.303089	0.000084
C83	C	1.342143	0.030244	0.333417
C84	C	1.675477	0.363578	0.666750
C85	C	1.018352	-0.408315	0.000076
C86	C	1.351685	-0.074982	0.333410
C87	C	1.685018	0.258352	0.666743
C88	C	0.968120	0.341398	0.000090
C89	C	1.301453	0.674732	0.333423
C90	C	1.634787	1.008065	0.666756
C91	C	1.035790	0.399027	0.000094
C92	C	1.369124	0.732360	0.333427
C93	C	1.702457	1.065694	0.666760
C94	C	1.026085	0.506232	0.000084
C95	C	1.359418	0.839565	0.333417
C96	C	1.692752	1.172898	0.666751
C97	C	0.977824	0.234184	0.000099
C98	C	1.311157	0.567517	0.333433
C99	C	1.644491	0.900850	0.666766
N100	N	1.014590	-0.114183	-0.254126
N101	N	1.347923	0.219150	0.079208
N102	N	1.681257	0.552483	0.412541
C103	C	0.978477	-0.158810	0.473432
C104	C	1.311811	0.174523	0.806765
C105	C	1.645144	0.507856	1.140098
C106	C	1.025440	-0.100766	0.526768
C107	C	1.358773	0.232567	0.860101
C108	C	1.692106	0.565900	1.193435
C109	C	1.019401	-0.108234	0.648690
C110	C	1.352735	0.225100	0.982023
C111	C	1.686068	0.558433	1.315357
C112	C	0.984515	-0.151344	0.351499
C113	C	1.317848	0.181989	0.684832
C114	C	1.651182	0.515323	1.018165
H115	H	0.460921	-0.035522	-0.162447
H116	H	0.794254	0.297811	0.170887
H117	H	1.127587	0.631144	0.504220
C118	C	0.568323	-0.215977	-0.188768
C119	C	0.901656	0.117356	0.144565
C120	C	1.234990	0.450689	0.477899
H121	H	0.627849	-0.216863	-0.188173
H122	H	0.961182	0.116471	0.145160
H123	H	1.294516	0.449804	0.478493
H124	H	0.546153	-0.279470	-0.189001
H125	H	0.879486	0.053863	0.144333
H126	H	1.212819	0.387196	0.477666
H127	H	0.553126	-0.179944	-0.251253
H128	H	0.886460	0.153389	0.082080
H129	H	1.219793	0.486723	0.415414
H130	H	0.933740	-0.214108	0.519330
H131	H	1.267073	0.119225	0.852663
H132	H	1.600407	0.452559	1.185997
H133	H	1.101018	0.367856	0.000029
H134	H	1.434351	0.701189	0.333362
H135	H	1.767684	1.034522	0.666696
H136	H	1.070181	-0.045466	0.480864
H137	H	1.403515	0.287867	0.814198
H138	H	1.736848	0.621200	1.147531
H139	H	0.561238	0.035630	-0.000006
H140	H	0.894571	0.368963	0.333327
H141	H	1.227904	0.702296	0.666661
C142	C	0.880012	0.383503	0.000078
C143	C	1.213346	0.716836	0.333411
C144	C	1.546679	1.050170	0.666745
H145	H	0.838827	0.333250	0.000071
H146	H	1.172160	0.666583	0.333404
H147	H	1.505493	0.999917	0.666737
H148	H	0.870330	0.417803	0.062369
H149	H	1.203664	0.751137	0.395702
H150	H	1.536997	1.084470	0.729036
H151	H	0.876521	0.425430	-0.062230
H152	H	1.209855	0.758764	0.271103
H153	H	1.543188	1.092097	0.604436
H154	H	0.543015	-0.223986	0.162597
H155	H	0.876349	0.109348	0.495930
H156	H	1.209682	0.442681	0.829264
C157	C	0.433240	-0.321909	-0.000044
C158	C	0.766574	0.011424	0.333289
C159	C	1.099907	0.344757	0.666623
H160	H	0.454279	-0.350338	-0.062671
H161	H	0.787612	-0.017005	0.270663
H162	H	1.120946	0.316329	0.603996
H163	H	0.448833	-0.358380	0.061928
H164	H	0.782167	-0.025047	0.395261
H165	H	1.115500	0.308286	0.728594
H166	H	0.373695	-0.320205	0.000542
H167	H	0.707029	0.013128	0.333876
H168	H	1.040362	0.346462	0.667209
C169	C	0.435455	-0.043529	0.188737
C170	C	0.768788	0.289805	0.522071
C171	C	1.102121	0.623138	0.855404
H172	H	0.457207	0.020175	0.188625
H173	H	0.790540	0.353509	0.521959
H174	H	1.123873	0.686842	0.855292
H175	H	0.375905	-0.043193	0.188367
H176	H	0.709239	0.290140	0.521700
H177	H	1.042572	0.623473	0.855034
H178	H	0.451037	-0.079177	0.251283
H179	H	0.784371	0.254156	0.584616
H180	H	1.117704	0.587490	0.917950
