data_functionalizedCrystal
_audit_creation_method	'MofGen! by Chris Wilmer'
_symmetry_space_group_name_H-M	'P1'
_symmetry_Int_Tables_number	1
_symmetry_cell_setting	triclinic
loop_
_symmetry_equiv_pos_as_xyz
  x,y,z
_cell_length_a	18.050589
_cell_length_b	18.215407
_cell_length_c	18.215399
_cell_angle_alpha	89.982187
_cell_angle_beta	89.976397
_cell_angle_gamma	90.022734
loop_
_atom_site_label
_atom_site_type_symbol
_atom_site_fract_x
_atom_site_fract_y
_atom_site_fract_z
Zn1	Zn	-0.295776	1.125055	-0.416098
Zn2	Zn	0.204224	1.625055	0.083902
Zn3	Zn	-0.419971	1.124956	-0.293041
Zn4	Zn	0.080029	1.624956	0.206959
Zn5	Zn	-0.295787	1.001987	-0.293050
Zn6	Zn	0.204213	1.501987	0.206950
Zn7	Zn	-0.419917	1.001946	-0.416071
Zn8	Zn	0.080083	1.501946	0.083929
O9	O	-0.357863	1.063486	-0.354565
O10	O	0.142137	1.563486	0.145435
O11	O	-0.312268	1.228026	-0.399783
O12	O	0.187732	1.728026	0.100217
O13	O	-0.403525	1.108620	-0.190058
O14	O	0.096475	1.608620	0.309942
O15	O	-0.191861	1.018371	-0.309388
O16	O	0.308139	1.518371	0.190612
O17	O	-0.403514	1.227953	-0.309373
O18	O	0.096486	1.727953	0.190627
O19	O	-0.191853	1.108788	-0.399791
O20	O	0.308147	1.608788	0.100209
O21	O	-0.312288	1.018275	-0.190065
O22	O	0.187712	1.518275	0.309935
O23	O	-0.312235	0.898998	-0.309361
O24	O	0.187765	1.398998	0.190639
O25	O	-0.403422	1.018301	-0.519059
O26	O	0.096578	1.518301	-0.019059
O27	O	-0.403433	0.898967	-0.399744
O28	O	0.096567	1.398967	0.100256
O29	O	-0.312216	1.108748	-0.519079
O30	O	0.187784	1.608748	-0.019079
O31	O	-0.523888	1.108580	-0.309346
O32	O	-0.023888	1.608580	0.190654
O33	O	-0.523848	1.018205	-0.399735
O34	O	-0.023848	1.518205	0.100265
C35	C	-0.357830	0.872280	-0.354551
C36	C	0.142170	1.372280	0.145449
C37	C	-0.357834	0.790481	-0.354562
C38	C	0.142166	1.290481	0.145438
C39	C	-0.310443	0.525456	-0.401716
C40	C	0.189557	1.025456	0.098284
C41	C	-0.310431	0.602314	-0.401714
C42	C	0.189569	1.102314	0.098286
C43	C	-0.405307	0.602258	-0.307430
C44	C	0.094693	1.102258	0.192570
C45	C	-0.405322	0.525401	-0.307437
C46	C	0.094678	1.025401	0.192563
C47	C	-0.357886	0.487001	-0.354579
C48	C	0.142114	0.987001	0.145421
C49	C	-0.357858	0.640717	-0.354570
C50	C	0.142142	1.140717	0.145430
C51	C	-0.357846	0.724051	-0.354567
C52	C	0.142154	1.224051	0.145433
C53	C	-0.357899	0.403662	-0.354583
C54	C	0.142101	0.903662	0.145417
C55	C	-0.550815	1.063397	-0.354553
C56	C	-0.050815	1.563397	0.145447
C57	C	-0.633361	1.063427	-0.354572
C58	C	-0.133361	1.563427	0.145428
C59	C	-0.832816	1.014329	-0.403709
C60	C	-0.332816	1.514329	0.096291
C61	C	-0.882255	0.996389	-0.336555
C62	C	-0.382255	1.496389	0.163445
C63	C	-0.784491	1.063499	-0.354582
C64	C	-0.284491	1.563499	0.145418
C65	C	-0.882134	1.081475	-0.421743
C66	C	-0.382134	1.581475	0.078257
C67	C	-0.930476	1.063567	-0.354597
C68	C	-0.430476	1.563567	0.145403
C69	C	-0.832842	1.045524	-0.287393
C70	C	-0.332842	1.545524	0.212607
C71	C	-0.832717	1.130641	-0.372626
C72	C	-0.332717	1.630641	0.127374
C73	C	-0.882133	1.112726	-0.305426
C74	C	-0.382133	1.612726	0.194574
C75	C	-0.700393	1.063458	-0.354574
C76	C	-0.200393	1.563458	0.145426
C77	C	-1.014572	1.063609	-0.354597
C78	C	-0.514572	1.563609	0.145403
C79	C	-0.164157	1.063595	-0.354594
C80	C	0.335843	1.563595	0.145406
C81	C	-0.081611	1.063642	-0.354606
C82	C	0.418389	1.563642	0.145394
C83	C	-0.357811	1.063531	-0.546518
C84	C	0.142189	1.563531	-0.046518
C85	C	-0.357790	1.063550	-0.628317
C86	C	0.142210	1.563550	-0.128317
C87	C	-0.357896	1.255439	-0.354580
C88	C	0.142104	1.755439	0.145420
C89	C	-0.357910	1.337238	-0.354586
C90	C	0.142090	1.837238	0.145414
C91	C	-0.310254	1.110663	-0.816523
C92	C	0.189746	1.610663	-0.316523
C93	C	-0.310233	1.110672	-0.893382
C94	C	0.189767	1.610672	-0.393382
C95	C	-0.405210	1.016489	-0.893349
C96	C	0.094790	1.516489	-0.393349
C97	C	-0.405227	1.016477	-0.816492
C98	C	0.094773	1.516477	-0.316492
C99	C	-0.357751	1.063568	-0.778081
C100	C	0.142249	1.563568	-0.278081
C101	C	-0.357712	1.063589	-0.931797
C102	C	0.142288	1.563589	-0.431797
C103	C	-0.357689	1.063598	-1.015131
C104	C	0.142311	1.563598	-0.515131
C105	C	-0.357773	1.063558	-0.694742
C106	C	0.142227	1.563558	-0.194742
C107	C	-0.357860	1.063484	-0.163359
C108	C	0.142140	1.563484	0.336641
C109	C	-0.357673	1.063607	-0.081560
C110	C	0.142327	1.563607	0.418440
H111	H	-0.811162	0.972687	-0.445195
H112	H	-0.311162	1.472687	0.054805
H113	H	-0.271817	0.494193	-0.440102
H114	H	0.228183	0.994193	0.059898
H115	H	-0.810943	1.187375	-0.387906
H116	H	-0.310943	1.687375	0.112094
Cl117	Cl	-0.464896	0.957296	-0.941643
Cl118	Cl	0.035104	1.457296	-0.441643
Cl119	Cl	-0.464938	0.957263	-0.768161
Cl120	Cl	0.035062	1.457263	-0.268161
Cl121	Cl	-0.250787	0.650653	-0.460978
Cl122	Cl	0.249213	1.150653	0.039022
H123	H	-0.443960	0.494090	-0.269051
H124	H	0.056040	0.994090	0.230949
Cl125	Cl	-0.464934	0.650536	-0.248166
Cl126	Cl	0.035066	1.150536	0.251834
H127	H	-0.811280	1.030281	-0.230586
H128	H	-0.311280	1.530281	0.269414
Cl129	Cl	-0.915357	1.176972	-0.241224
Cl130	Cl	-0.415357	1.676972	0.258776
Cl131	Cl	-0.915849	0.908772	-0.312993
Cl132	Cl	-0.415849	1.408772	0.187007
Cl133	Cl	-0.915566	1.104906	-0.509423
Cl134	Cl	-0.415566	1.604906	-0.009423
Cl135	Cl	-0.250567	1.169860	-0.768237
Cl136	Cl	0.249433	1.669860	-0.268237
H137	H	-0.271555	1.149020	-0.924678
H138	H	0.228445	1.649020	-0.424678
