data_functionalizedCrystal
_audit_creation_method	'MofGen! by Chris Wilmer'
_symmetry_space_group_name_H-M	'P1'
_symmetry_Int_Tables_number	1
_symmetry_cell_setting	triclinic
loop_
_symmetry_equiv_pos_as_xyz
  x,y,z
_cell_length_a	33.428889
_cell_length_b	33.428139
_cell_length_c	33.424847
_cell_angle_alpha	60.004234
_cell_angle_beta	60.008465
_cell_angle_gamma	59.994972
loop_
_atom_site_label
_atom_site_type_symbol
_atom_site_fract_x
_atom_site_fract_y
_atom_site_fract_z
O1	O	0.055565	-0.584504	0.488714
O2	O	0.555565	-0.084504	0.988714
O3	O	0.020982	-0.455083	0.393778
O4	O	0.520982	0.044917	0.893778
O5	O	0.102943	-0.536959	0.393689
O6	O	0.602943	-0.036959	0.893689
O7	O	-0.026396	-0.502628	0.488803
O8	O	0.473604	-0.002628	0.988803
O9	O	0.130140	-0.509767	0.420792
O10	O	0.630140	-0.009767	0.920792
O11	O	0.048179	-0.427891	0.420881
O12	O	0.548179	0.072109	0.920881
O13	O	0.082762	-0.557312	0.515817
O14	O	0.582762	-0.057312	1.015817
Cu15	Cu	0.067954	-0.490119	0.470823
Cu16	Cu	0.567954	0.009881	0.970823
Cu17	Cu	0.035790	-0.522276	0.438771
Cu18	Cu	0.535790	-0.022276	0.938771
O19	O	0.000801	-0.475436	0.515906
O20	O	0.500801	0.024564	1.015906
N21	N	0.090577	-0.467504	0.493370
N22	N	0.590577	0.032496	0.993370
N23	N	0.013171	-0.544895	0.416225
N24	N	0.513171	-0.044895	0.916225
C25	C	0.143377	-0.280390	0.546067
C26	C	0.643377	0.219610	1.046067
C27	C	0.143515	-0.414755	0.680369
C28	C	0.643515	0.085245	1.180369
C29	C	0.143392	-0.414735	0.546069
C30	C	0.643392	0.085265	1.046069
C31	C	0.277766	-0.414702	0.545966
C32	C	0.777766	0.085298	1.045966
C33	C	0.158177	-0.324719	0.560828
C34	C	0.658177	0.175281	1.060828
C35	C	0.158255	-0.399967	0.636038
C36	C	0.658255	0.100033	1.136038
C37	C	0.233434	-0.399936	0.560773
C38	C	0.733434	0.100064	1.060773
C39	C	0.158186	-0.399955	0.560829
C40	C	0.658186	0.100045	1.060829
C41	C	0.124540	-0.223964	0.527278
C42	C	0.624540	0.276036	1.027278
C43	C	0.124565	-0.433545	0.527281
C44	C	0.624565	0.066455	1.027281
C45	C	0.177014	-0.381145	0.579617
C46	C	0.677014	0.118855	1.079617
C47	C	0.359814	-0.400540	0.502735
C48	C	0.859814	0.099460	1.002735
C49	C	0.411105	-0.417624	0.485606
C50	C	0.911105	0.082376	0.985606
C51	C	0.411136	-0.500620	0.517255
C52	C	0.911136	-0.000620	1.017255
C53	C	0.359845	-0.483534	0.534385
C54	C	0.859845	0.016466	1.034385
C55	C	0.136887	-0.198305	0.476855
C56	C	0.636887	0.301695	0.976855
C57	C	0.119761	-0.147011	0.459777
C58	C	0.619761	0.352989	0.959777
C59	C	0.077945	-0.147038	0.543547
C60	C	0.577945	0.352962	1.043547
C61	C	0.095072	-0.198332	0.560625
C62	C	0.595072	0.301668	1.060625
C63	C	0.074134	-0.421169	0.539710
C64	C	0.574134	0.078831	1.039710
C65	C	0.057023	-0.438269	0.522625
C66	C	0.557023	0.061731	1.022625
C67	C	0.140770	-0.480120	0.480694
C68	C	0.640770	0.019880	0.980694
C69	C	0.157883	-0.463020	0.497773
C70	C	0.657883	0.036980	0.997773
C71	C	0.074339	-0.421208	0.762475
C72	C	0.574339	0.078792	1.262475
C73	C	0.057288	-0.438323	0.813768
C74	C	0.557288	0.061677	1.313768
C75	C	0.141075	-0.480183	0.813699
C76	C	0.641075	0.019817	1.313699
C77	C	0.158125	-0.463069	0.762404
C78	C	0.658125	0.036931	1.262404
C79	C	0.124756	-0.433580	0.736794
C80	C	0.624756	0.066420	1.236794
C81	C	0.334186	-0.433494	0.527123
C82	C	0.834186	0.066506	1.027123
C83	C	-0.173769	-0.597444	0.363037
C84	C	0.326231	-0.097444	0.863037
C85	C	-0.039302	-0.597595	0.228856
C86	C	0.460698	-0.097595	0.728856
C87	C	-0.039496	-0.597587	0.363300
C88	C	0.460504	-0.097587	0.863300
C89	C	-0.039512	-0.731889	0.363237
C90	C	0.460488	-0.231889	0.863237
C91	C	-0.129442	-0.612265	0.348329
C92	C	0.370558	-0.112265	0.848329
C93	C	-0.054138	-0.612351	0.273187
C94	C	0.445862	-0.112351	0.773187
C95	C	-0.054257	-0.687554	0.348440
C96	C	0.445743	-0.187554	0.848440
C97	C	-0.054247	-0.612346	0.348477
C98	C	0.445753	-0.112346	0.848477
C99	C	-0.230191	-0.578579	0.381758
C100	C	0.269809	-0.078579	0.881758
C101	C	-0.020722	-0.578803	0.382168
C102	C	0.479278	-0.078803	0.882168
C103	C	-0.073020	-0.631130	0.329609
C104	C	0.426980	-0.131130	0.829609
C105	C	-0.053713	-0.813916	0.406386
C106	C	0.446287	-0.313916	0.906386
C107	C	-0.036654	-0.865210	0.423504
C108	C	0.463346	-0.365210	0.923504
C109	C	0.046338	-0.865293	0.391984
C110	C	0.546338	-0.365293	0.891984
C111	C	0.029278	-0.813999	0.374865
C112	C	0.529278	-0.313999	0.874865
C113	C	-0.255900	-0.590938	0.432169
C114	C	0.244100	-0.090938	0.932169
C115	C	-0.307191	-0.573786	0.449185
C116	C	0.192809	-0.073786	0.949185
C117	C	-0.307060	-0.531922	0.365377
C118	C	0.192940	-0.031922	0.865377
C119	C	-0.255769	-0.549074	0.348360
C120	C	0.244231	-0.049074	0.848360
C121	C	-0.033081	-0.528377	0.369764
C122	C	0.466919	-0.028377	0.869764
C123	C	-0.016014	-0.511306	0.386922
C124	C	0.483986	-0.011306	0.886922
C125	C	0.025770	-0.595083	0.428877
C126	C	0.525770	-0.095083	0.928877
C127	C	0.008703	-0.612156	0.411725
C128	C	0.508703	-0.112156	0.911725
C129	C	-0.032755	-0.528393	0.146761
C130	C	0.467245	-0.028393	0.646761
C131	C	-0.015585	-0.511324	0.095468
C132	C	0.484415	-0.011324	0.595468
C133	C	0.026262	-0.595106	0.095516
C134	C	0.526262	-0.095106	0.595516
C135	C	0.009094	-0.612174	0.146811
C136	C	0.509094	-0.112174	0.646811
C137	C	-0.020417	-0.578816	0.172432
C138	C	0.479583	-0.078816	0.672432
C139	C	-0.020748	-0.788312	0.382068
C140	C	0.479252	-0.288312	0.882068
N141	N	0.436037	-0.467415	0.493101
N142	N	0.936037	0.032585	0.993101
O143	O	0.592642	-0.471896	0.376066
O144	O	1.092642	0.028104	0.876066
O145	O	0.592838	-0.567146	0.505347
O146	O	1.092838	-0.067146	1.005347
O147	O	0.592754	-0.566928	0.423360
O148	O	1.092754	-0.066928	0.923360
O149	O	0.592727	-0.472113	0.458053
O150	O	1.092727	0.027887	0.958053
O151	O	0.511269	-0.539835	0.450606
O152	O	1.011269	-0.039835	0.950606
O153	O	0.511353	-0.540052	0.532594
O154	O	1.011353	-0.040052	1.032594
O155	O	0.511157	-0.444802	0.403312
O156	O	1.011157	0.055198	0.903312
Cu157	Cu	0.503815	-0.489954	0.470441
Cu158	Cu	1.003815	0.010046	0.970441
Cu159	Cu	0.600180	-0.521995	0.438219
Cu160	Cu	1.100180	-0.021995	0.938219
O161	O	0.511242	-0.445020	0.485300
O162	O	1.011242	0.054980	0.985300
N163	N	0.667959	-0.544533	0.415554
N164	N	1.167959	-0.044533	0.915554
N165	N	0.090544	-0.122107	0.493359
N166	N	0.590544	0.377893	0.993359
O167	O	-0.026406	0.034587	0.488773
O168	O	0.473594	0.534587	0.988773
O169	O	0.102877	0.034627	0.393499
O170	O	0.602877	0.534627	0.893499
O171	O	0.020848	0.034591	0.393771
O172	O	0.520848	0.534591	0.893771
O173	O	0.055623	0.034623	0.488500
O174	O	0.555623	0.534623	0.988500
O175	O	0.048051	-0.046899	0.420925
O176	O	0.548051	0.453101	0.920925
O177	O	0.130080	-0.046864	0.420653
O178	O	0.630080	0.453136	0.920653
O179	O	0.000796	-0.046903	0.515927
O180	O	0.500796	0.453097	1.015927
Cu181	Cu	0.067922	-0.054324	0.470769
Cu182	Cu	0.567922	0.445676	0.970769
Cu183	Cu	0.035752	0.042048	0.438656
Cu184	Cu	0.535752	0.542048	0.938656
O185	O	0.082825	-0.046867	0.515655
O186	O	0.582825	0.453133	1.015655
N187	N	0.013123	0.109830	0.416068
N188	N	0.513123	0.609830	0.916068
N189	N	0.090892	-0.467554	0.838649
N190	N	0.590892	0.032446	1.338649
O191	O	0.086330	-0.584488	0.995334
O192	O	0.586330	-0.084488	1.495334
O193	O	-0.008902	-0.455160	0.995379
O194	O	0.491098	0.044840	1.495379
O195	O	-0.008679	-0.537172	0.995355
O196	O	0.491321	-0.037172	1.495355
O197	O	0.086107	-0.502475	0.995358
O198	O	0.586107	-0.002475	1.495358
O199	O	0.018452	-0.509990	0.913868
O200	O	0.518452	-0.009990	1.413868
O201	O	0.018230	-0.427978	0.913891
O202	O	0.518230	0.072022	1.413891
O203	O	0.113461	-0.557306	0.913847
O204	O	0.613461	-0.057306	1.413847
Cu205	Cu	0.068323	-0.490160	0.906429
Cu206	Cu	0.568323	0.009840	1.406429
Cu207	Cu	0.036237	-0.522306	1.002797
Cu208	Cu	0.536237	-0.022306	1.502797
O209	O	0.113239	-0.475293	0.913870
O210	O	0.613239	0.024707	1.413870
N211	N	0.013667	-0.544916	1.070577
N212	N	0.513667	-0.044916	1.570577
C213	C	0.031339	-0.425179	0.394250
C214	C	0.531339	0.074821	0.894250
C215	C	0.132837	-0.526572	0.394139
C216	C	0.632837	-0.026572	0.894139
C217	C	0.072405	-0.587216	0.515344
C218	C	0.572405	-0.087216	1.015344
C219	C	-0.029093	-0.485823	0.515455
C220	C	0.470907	0.014177	1.015455
C221	C	0.552119	-0.566716	0.535258
C222	C	1.052119	-0.066716	1.035258
C223	C	0.552016	-0.566447	0.433726
C224	C	1.052016	-0.066447	0.933726
C225	C	0.551873	-0.445232	0.373402
C226	C	1.051873	0.054768	0.873402
C227	C	0.551980	-0.445502	0.474933
C228	C	1.051980	0.054498	0.974933
C229	C	0.132731	-0.006013	0.393923
C230	C	0.632731	0.493987	0.893923
C231	C	0.031182	-0.006158	0.394293
C232	C	0.531182	0.493842	0.894293
C233	C	-0.029092	-0.006163	0.515469
C234	C	0.470908	0.493837	1.015469
C235	C	0.072491	-0.006119	0.515133
C236	C	0.572491	0.493881	1.015133
C237	C	-0.008451	-0.425276	0.954641
C238	C	0.491549	0.074724	1.454641
C239	C	-0.008170	-0.526833	0.954596
C240	C	0.491830	-0.026833	1.454596
C241	C	0.113010	-0.587190	0.954585
C242	C	0.613010	-0.087190	1.454585
C243	C	0.112735	-0.485627	0.954611
C244	C	0.612735	0.014373	1.454611
H245	H	0.016234	-0.428240	0.834672
H246	H	0.516234	0.071760	1.334672
C247	C	0.183018	-0.536451	0.353790
C248	C	0.683018	-0.036451	0.853790
H249	H	0.203582	-0.568880	0.365669
H250	H	0.703582	-0.068880	0.865669
H251	H	0.178732	-0.532767	0.325955
H252	H	0.678732	-0.032767	0.825955
H253	H	0.197703	-0.513803	0.344860
H254	H	0.697703	-0.013803	0.844860
C255	C	0.552030	-0.606685	0.423702
C256	C	1.052030	-0.106685	0.923702
H257	H	0.551985	-0.594706	0.391268
H258	H	1.051985	-0.094706	0.891268
H259	H	0.580470	-0.634535	0.427323
H260	H	1.080470	-0.134535	0.927323
H261	H	0.523635	-0.615633	0.446326
H262	H	1.023635	-0.115633	0.946326
C263	C	0.182774	-0.005667	0.353406
C264	C	0.682774	0.494333	0.853406
H265	H	0.182776	-0.005605	0.324951
H266	H	0.682776	0.494395	0.824951
H267	H	0.188571	0.022826	0.345787
H268	H	0.688571	0.522826	0.845787
H269	H	0.207847	-0.034011	0.364480
H270	H	0.707847	0.465989	0.864480
C271	C	0.551791	-0.404831	0.323247
C272	C	1.051791	0.095169	0.823247
H273	H	0.551780	-0.416669	0.302664
H274	H	1.051780	0.083331	0.802664
H275	H	0.523358	-0.377005	0.327569
H276	H	1.023358	0.122995	0.827569
H277	H	0.580192	-0.395901	0.308561
H278	H	1.080192	0.104099	0.808561
H279	H	0.023733	-0.006162	0.364531
H280	H	0.523733	0.493838	0.864531
H281	H	-0.037935	-0.534246	0.954563
H282	H	0.462065	-0.034246	1.454563
C283	C	0.082382	-0.637438	0.555629
C284	C	0.582382	-0.137438	1.055629
H285	H	0.054050	-0.637575	0.584131
H286	H	0.554050	-0.137575	1.084131
H287	H	0.090141	-0.662343	0.544354
H288	H	0.590141	-0.162343	1.044354
H289	H	0.109108	-0.643376	0.563259
H290	H	0.609108	-0.143376	1.063259
C291	C	-0.079247	-0.006178	0.555875
C292	C	0.420753	0.493822	1.055875
H293	H	-0.099849	-0.006186	0.544058
H294	H	0.400151	0.493814	1.044058
H295	H	-0.074933	-0.034593	0.583716
H296	H	0.425067	0.465407	1.083716
H297	H	-0.093906	0.022245	0.564774
H298	H	0.406094	0.522245	1.064774
H299	H	0.079939	-0.006110	0.544893
H300	H	0.579939	0.493890	1.044893
H301	H	-0.066242	-0.478508	0.545321
H302	H	0.433758	0.021492	1.045321
C303	C	0.213586	-0.476678	0.734158
C304	C	0.713586	0.023322	1.234158
H305	H	0.231015	-0.496685	0.756759
H306	H	0.731015	0.003315	1.256759
H307	H	0.221985	-0.494076	0.714146
H308	H	0.721985	0.005924	1.214146
H309	H	0.221973	-0.447664	0.714150
H310	H	0.721973	0.052336	1.214150
C311	C	-0.048842	-0.375102	0.954660
C312	C	0.451158	0.124898	1.454660
H313	H	-0.037010	-0.354515	0.954668
H314	H	0.462990	0.145485	1.454668
H315	H	-0.057757	-0.360438	0.926248
H316	H	0.442243	0.139562	1.426248
H317	H	-0.076677	-0.379399	0.983084
H318	H	0.423323	0.120601	1.483084
H319	H	0.142910	-0.624330	0.954565
H320	H	0.642910	-0.124330	1.454565
C321	C	0.552195	-0.607114	0.585415
C322	C	1.052195	-0.107114	1.085415
H323	H	0.552212	-0.595278	0.605997
H324	H	1.052212	-0.095278	1.105997
H325	H	0.523798	-0.616046	0.600098
H326	H	1.023798	-0.116046	1.100098
H327	H	0.580633	-0.634941	0.581094
H328	H	1.080633	-0.134941	1.081094
C329	C	0.551965	-0.405263	0.484958
C330	C	1.051965	0.094737	0.984958
H331	H	0.552003	-0.417240	0.517394
H332	H	1.052003	0.082760	1.017394
H333	H	0.580354	-0.396310	0.462334
H334	H	1.080354	0.103690	0.962334
H335	H	0.523519	-0.377414	0.481340
H336	H	1.023519	0.122586	0.981340
H337	H	0.142514	-0.478200	0.954606
H338	H	0.642514	0.021800	1.454606
H339	H	0.047163	-0.397193	0.741627
H340	H	0.547163	0.102807	1.241627
H341	H	0.168250	-0.504186	0.834549
H342	H	0.668250	-0.004186	1.334549
C343	C	0.021361	-0.374958	0.353965
C344	C	0.521361	0.125042	0.853965
H345	H	0.049695	-0.374819	0.325465
H346	H	0.549695	0.125181	0.825465
H347	H	-0.005366	-0.369016	0.346336
H348	H	0.494634	0.130984	0.846336
H349	H	0.013606	-0.350053	0.365241
H350	H	0.513606	0.149947	0.865241
C351	C	0.037484	-0.388746	0.572164
C352	C	0.537484	0.111254	1.072164
H353	H	0.004999	-0.383821	0.577113
H354	H	0.504999	0.116179	1.077113
H355	H	0.042442	-0.404413	0.602896
H356	H	0.542442	0.095587	1.102896
H357	H	0.042397	-0.357996	0.556501
H358	H	0.542397	0.142004	1.056501
H359	H	0.167905	-0.504126	0.456671
H360	H	0.667905	-0.004126	0.956671
C361	C	0.001550	-0.424662	0.536297
C362	C	0.501550	0.075338	1.036297
H363	H	-0.015843	-0.404666	0.556324
H364	H	0.484157	0.095334	1.056324
H365	H	-0.006893	-0.407254	0.507311
H366	H	0.493107	0.092746	1.007311
H367	H	-0.006836	-0.453677	0.553701
H368	H	0.493164	0.046323	1.053701
H369	H	0.198948	-0.473094	0.487648
H370	H	0.698948	0.026906	0.987648
H371	H	0.338981	-0.510371	0.554246
H372	H	0.838981	-0.010371	1.054246
H373	H	0.431972	-0.390789	0.465748
H374	H	0.931972	0.109211	0.965748
C375	C	0.439360	-0.555662	0.525241
C376	C	0.939360	-0.055662	1.025241
H377	H	0.416751	-0.572843	0.542222
H378	H	0.916751	-0.072843	1.042222
H379	H	0.459348	-0.560414	0.494418
H380	H	0.959348	-0.060414	0.994418
H381	H	0.459390	-0.567690	0.544018
H382	H	0.959390	-0.067690	1.044018
H383	H	0.160882	-0.219171	0.449698
H384	H	0.660882	0.280829	0.949698
C385	C	0.331589	-0.345495	0.494749
C386	C	0.831589	0.154505	0.994749
H387	H	0.354201	-0.328318	0.477775
H388	H	0.854201	0.171682	0.977775
H389	H	0.311558	-0.333465	0.475974
H390	H	0.811558	0.166535	0.975974
H391	H	0.311602	-0.340744	0.525575
H392	H	0.811602	0.159256	1.025575
H393	H	0.129813	-0.126117	0.418717
H394	H	0.629813	0.373883	0.918717
H395	H	0.053957	-0.126168	0.570702
H396	H	0.553957	0.373832	1.070702
H397	H	-0.025639	-0.470264	0.074572
H398	H	0.474361	0.029736	0.574572
C399	C	0.081509	-0.226554	0.616090
C400	C	0.581509	0.273446	1.116090
H401	H	0.061513	-0.203941	0.633503
H402	H	0.561513	0.296059	1.133503
H403	H	0.064115	-0.246581	0.624528
H404	H	0.564115	0.253419	1.124528
H405	H	0.110538	-0.246549	0.624461
H406	H	0.610538	0.253451	1.124461
H407	H	0.050281	-0.622271	0.074658
H408	H	0.550281	-0.122271	0.574658
C409	C	-0.065216	-0.491697	0.174940
C410	C	0.434784	0.008303	0.674940
H411	H	-0.070102	-0.459222	0.152304
H412	H	0.429898	0.040778	0.652304
H413	H	-0.095974	-0.496589	0.194904
H414	H	0.404026	0.003411	0.694904
H415	H	-0.049588	-0.496638	0.194992
H416	H	0.450412	0.003362	0.694992
C417	C	0.022664	-0.667642	0.175046
C418	C	0.522664	-0.167642	0.675046
H419	H	0.042691	-0.685062	0.152439
H420	H	0.542691	-0.185062	0.652439
H421	H	0.040028	-0.676072	0.195103
H422	H	0.540028	-0.176072	0.695103
H423	H	-0.006360	-0.676013	0.195007
H424	H	0.493640	-0.176013	0.695007
H425	H	-0.057039	-0.501216	0.345698
H426	H	0.442961	-0.001216	0.845698
H427	H	-0.026079	-0.470245	0.376824
H428	H	0.473921	0.029755	0.876824
C429	C	0.058141	-0.631775	0.461386
C430	C	0.558141	-0.131775	0.961386
H431	H	0.063054	-0.664252	0.466316
H432	H	0.563054	-0.164252	0.966316
H433	H	0.088892	-0.626881	0.445776
H434	H	0.588892	-0.126881	0.945776
H435	H	0.042438	-0.626831	0.492128
H436	H	0.542438	-0.126831	0.992128
H437	H	0.018765	-0.653217	0.421828
H438	H	0.518765	-0.153217	0.921828
H439	H	0.056124	-0.793157	0.355062
H440	H	0.556124	-0.293157	0.855062
H441	H	-0.063498	-0.886058	0.443304
H442	H	0.436502	-0.386058	0.943304
C443	C	0.101364	-0.893550	0.384065
C444	C	0.601364	-0.393550	0.884065
H445	H	0.106802	-0.927766	0.397746
H446	H	0.606802	-0.427766	0.897746
H447	H	0.119288	-0.885166	0.349967
H448	H	0.619288	-0.385166	0.849967
H449	H	0.111949	-0.885157	0.399606
H450	H	0.611949	-0.385157	0.899606
C451	C	-0.108741	-0.785661	0.414300
C452	C	0.391259	-0.285661	0.914300
H453	H	-0.125928	-0.808258	0.431228
H454	H	0.374072	-0.308258	0.931228
H455	H	-0.120796	-0.765642	0.433094
H456	H	0.379204	-0.265642	0.933094
H457	H	-0.113447	-0.765656	0.383453
H458	H	0.386553	-0.265656	0.883453
H459	H	-0.328125	-0.583847	0.490235
H460	H	0.171875	-0.083847	0.990235
C461	C	-0.227764	-0.623385	0.468904
C462	C	0.272236	-0.123385	0.968904
H463	H	-0.193535	-0.631832	0.451549
H464	H	0.306465	-0.131832	0.951549
H465	H	-0.236194	-0.605974	0.488916
H466	H	0.263806	-0.105974	0.988916
H467	H	-0.236199	-0.652373	0.488904
H468	H	0.263801	-0.152373	0.988904
C469	C	-0.335200	-0.499475	0.328643
C470	C	0.164800	0.000525	0.828643
H471	H	-0.369429	-0.491032	0.345997
H472	H	0.130571	0.008968	0.845997
H473	H	-0.326763	-0.470491	0.308640
H474	H	0.173237	0.029509	0.808640
H475	H	-0.326772	-0.516890	0.308633
H476	H	0.173228	-0.016890	0.808633
C477	C	-0.227492	-0.535480	0.292909
C478	C	0.272508	-0.035480	0.792909
H479	H	-0.250074	-0.515453	0.275458
H480	H	0.249926	-0.015453	0.775458
H481	H	-0.207476	-0.518106	0.284539
H482	H	0.292524	-0.018106	0.784539
H483	H	-0.207487	-0.564497	0.284517
H484	H	0.292513	-0.064497	0.784517
