data_functionalizedCrystal
_audit_creation_method	'MofGen! by Chris Wilmer'
_symmetry_space_group_name_H-M	'P1'
_symmetry_Int_Tables_number	1
_symmetry_cell_setting	triclinic
loop_
_symmetry_equiv_pos_as_xyz
  x,y,z
_cell_length_a	15.944551
_cell_length_b	9.616153
_cell_length_c	10.540539
_cell_angle_alpha	89.997886
_cell_angle_beta	84.012115
_cell_angle_gamma	89.998788
loop_
_atom_site_label
_atom_site_type_symbol
_atom_site_fract_x
_atom_site_fract_y
_atom_site_fract_z
O1	O	1.115499	0.115494	0.163703
O2	O	0.871070	0.115528	0.183887
O3	O	0.998861	0.115508	-0.010987
O4	O	0.987708	0.115513	0.358578
O5	O	0.998852	-0.115783	-0.010976
O6	O	0.871061	-0.115764	0.183899
O7	O	1.115490	-0.115798	0.163715
Zn8	Zn	0.993274	-0.152503	0.173808
Zn9	Zn	0.993286	0.152233	0.173794
O10	O	0.987699	-0.115778	0.358589
C11	C	0.839766	-0.000114	0.183055
C12	C	0.746505	-0.000101	0.180543
N13	N	0.993271	-0.360478	0.173817
C14	C	0.998020	-0.000135	-0.058273
C15	C	0.995518	-0.000127	-0.199187
C16	C	0.530893	-0.000129	0.053746
C17	C	0.470228	0.113910	0.112621
C18	C	0.575752	-0.000117	0.175998
C19	C	0.470241	-0.114125	0.112661
C20	C	0.410813	-0.000139	0.171600
C21	C	0.516316	0.114017	0.234907
C22	C	0.516336	-0.114121	0.234929
C23	C	0.455689	-0.000053	0.293893
C24	C	0.670770	-0.000103	0.178529
C25	C	0.315797	-0.000143	0.169079
C26	C	1.146794	-0.000153	0.164547
C27	C	1.240055	-0.000157	0.167059
C28	C	0.924882	-0.419509	0.278047
C29	C	0.924649	-0.580676	0.277752
C30	C	0.973716	-0.581261	0.041168
C31	C	0.973210	-0.420043	0.041805
C32	C	1.081447	-0.419875	0.200995
C33	C	1.080889	-0.581104	0.203979
N34	N	0.993295	0.360208	0.173775
C35	C	0.899630	0.000405	-0.381308
C36	C	0.902167	-0.000116	-0.234725
C37	C	1.040437	-0.132212	-0.261450
C38	C	1.037251	-0.132323	-0.407951
C39	C	1.039160	0.130699	-0.408508
C40	C	1.040020	0.132445	-0.261538
C41	C	0.988540	-0.000132	0.405875
C42	C	0.991042	-0.000131	0.546789
H43	H	0.563621	0.000010	-0.047713
F44	F	1.125000	-0.140182	-0.471848
H45	H	1.132347	-0.381689	0.124995
F46	F	0.839145	-0.631117	0.254968
F47	F	1.105885	-0.366747	0.324736
F48	F	1.150586	-0.633699	0.111224
H49	H	0.449843	-0.210533	0.060935
H50	H	0.908891	-0.382457	0.017935
F51	F	1.035810	-0.368992	-0.062655
F52	F	0.855968	0.123643	-0.178412
H53	H	0.449814	0.210322	0.060909
H54	H	1.022193	-0.619548	-0.038294
H55	H	0.536616	0.210534	0.286571
H56	H	0.910140	-0.621663	0.016710
F57	F	1.100295	-0.631102	0.331490
H58	H	0.862759	0.095126	-0.409411
F59	F	0.855632	-0.124065	-0.179501
H60	H	1.106587	0.131577	-0.456652
H61	H	0.936375	-0.620253	0.376306
F62	F	0.939952	-0.368853	0.407312
H63	H	0.423136	0.000012	0.395457
H64	H	0.536771	-0.210537	0.286599
H65	H	0.859826	-0.379015	0.260874
H66	H	0.862901	-0.093775	-0.411011
H67	H	1.004046	-0.231050	-0.435694
H68	H	1.108991	-0.137132	-0.240029
F69	F	0.999643	-0.260680	-0.205212
H70	H	1.008951	0.230810	-0.439654
H71	H	1.007153	0.230157	-0.220236
F72	F	1.128979	0.142866	-0.231085
