data_functionalizedCrystal
_audit_creation_method	'MofGen! by Chris Wilmer'
_symmetry_space_group_name_H-M	'P1'
_symmetry_Int_Tables_number	1
_symmetry_cell_setting	triclinic
loop_
_symmetry_equiv_pos_as_xyz
  x,y,z
_cell_length_a	18.101398
_cell_length_b	18.101397
_cell_length_c	21.395355
_cell_angle_alpha	89.980066
_cell_angle_beta	89.980111
_cell_angle_gamma	90.018618
loop_
_atom_site_label
_atom_site_type_symbol
_atom_site_fract_x
_atom_site_fract_y
_atom_site_fract_z
Zn1	Zn	1.132216	-0.294952	-0.354177
Zn2	Zn	1.132123	-0.418775	-0.249397
Zn3	Zn	1.008363	-0.294948	-0.249423
Zn4	Zn	1.008349	-0.418752	-0.354146
O5	O	1.070263	-0.356857	-0.301786
O6	O	1.235837	-0.311389	-0.340281
O7	O	1.115673	-0.402357	-0.161723
O8	O	1.024837	-0.191316	-0.263342
O9	O	1.235768	-0.402361	-0.263299
O10	O	1.115832	-0.191318	-0.340305
O11	O	1.024747	-0.311382	-0.161741
O12	O	0.904728	-0.311360	-0.263312
O13	O	1.024813	-0.402322	-0.441828
O14	O	0.904718	-0.402318	-0.340252
O15	O	1.115818	-0.311366	-0.441851
O16	O	1.115659	-0.522405	-0.263269
O17	O	1.024723	-0.522388	-0.340227
C18	C	0.877852	-0.356836	-0.301781
C19	C	0.795538	-0.356846	-0.301794
C20	C	0.644830	-0.356859	-0.301793
C21	C	0.613494	-0.414176	-0.350127
C22	C	0.527876	-0.414408	-0.349984
C23	C	0.496447	-0.356873	-0.301793
C24	C	0.527496	-0.377685	-0.235681
C25	C	0.613141	-0.378093	-0.235961
C26	C	0.613296	-0.278589	-0.318995
C27	C	0.527646	-0.279018	-0.320451
C28	C	0.412588	-0.356879	-0.301789
C29	C	0.728689	-0.356855	-0.301793
C30	C	1.070199	-0.549267	-0.301755
C31	C	1.070240	-0.631581	-0.301763
C32	C	1.070335	-0.930672	-0.301821
C33	C	1.127390	-0.899327	-0.253271
C34	C	1.127587	-0.813708	-0.253396
C35	C	1.070288	-0.782290	-0.301792
C36	C	1.091451	-0.813312	-0.367833
C37	C	1.091893	-0.898957	-0.367568
C38	C	0.991964	-0.899175	-0.284901
C39	C	0.992351	-0.813525	-0.283426
C40	C	1.070260	-0.698430	-0.301779
C41	C	1.070364	-1.014532	-0.301837
C42	C	1.263425	-0.356878	-0.301790
C43	C	1.345739	-0.356887	-0.301792
C44	C	1.070324	-0.356842	-0.465209
C45	C	1.070350	-0.356835	-0.534850
C46	C	1.070347	-0.163695	-0.301830
C47	C	1.070382	-0.081381	-0.301849
C48	C	1.117735	-0.309473	-0.567576
C49	C	1.117734	-0.309441	-0.633012
C50	C	1.070356	-0.356785	-0.665719
C51	C	1.022963	-0.404151	-0.632985
C52	C	1.022960	-0.404176	-0.567551
C53	C	1.064487	-0.423466	-0.769383
C54	C	1.064495	-0.423442	-0.834816
C55	C	1.070361	-0.356707	-0.867540
C56	C	1.076234	-0.289993	-0.834822
C57	C	1.076231	-0.290018	-0.769388
C58	C	1.070354	-0.356763	-0.736671
C59	C	1.117746	-0.309306	-0.971218
C60	C	1.117740	-0.309273	-1.036655
C61	C	1.022973	-0.403989	-1.036627
C62	C	1.022976	-0.404015	-0.971191
C63	C	1.070366	-0.356675	-0.938491
C64	C	1.070244	-0.356818	-0.138998
C65	C	1.070361	-0.356616	-0.069357
H66	H	1.114346	-0.792736	-0.204428
H67	H	1.148096	-0.791810	-0.382408
H68	H	0.634992	-0.471845	-0.338852
O69	O	0.977029	-0.450135	-0.939427
C70	C	0.993168	-0.523940	-0.955431
H71	H	1.052330	-0.527681	-0.973433
H72	H	0.986769	-0.560544	-0.912397
H73	H	0.953458	-0.543277	-0.993403
H74	H	1.059717	-0.477764	-0.861450
O75	O	0.938950	-0.788104	-0.322605
C76	C	0.955165	-0.810160	-0.384297
H77	H	0.992579	-0.860792	-0.383260
H78	H	0.901654	-0.824330	-0.409695
H79	H	0.984372	-0.763194	-0.409822
O80	O	0.969120	-0.925039	-0.228422
C81	C	1.023648	-0.972076	-0.203333
H82	H	1.079493	-0.958240	-0.225034
H83	H	1.026623	-0.964055	-0.150547
H84	H	1.008923	-1.031966	-0.214128
H85	H	0.633869	-0.338129	-0.198713
H86	H	1.059512	-0.477796	-0.742746
H87	H	1.052157	-0.919691	-0.404988
H88	H	1.185125	-0.920799	-0.264336
H89	H	0.976393	-0.793256	-0.234825
H90	H	1.156325	-0.270700	-1.063299
O91	O	1.196892	-0.789289	-0.266682
C92	C	1.246496	-0.815518	-0.220989
H93	H	1.222548	-0.867007	-0.197916
H94	H	1.301491	-0.829780	-0.243984
H95	H	1.255561	-0.770977	-0.184119
H96	H	0.506026	-0.434265	-0.220896
O97	O	0.976854	-0.450085	-0.535730
C98	C	0.929053	-0.407936	-0.497853
H99	H	0.924502	-0.349599	-0.517569
H100	H	0.872049	-0.434715	-0.497093
H101	H	0.951953	-0.405409	-0.448268
O102	O	0.941336	-0.923443	-0.327125
C103	C	0.976520	-0.968637	-0.371775
H104	H	1.029627	-0.992014	-0.351086
H105	H	0.938167	-1.015963	-0.385309
H106	H	0.990214	-0.934481	-0.415034
H107	H	0.634924	-0.259572	-0.366392
H108	H	1.114308	-0.919959	-0.204155
H109	H	1.156323	-0.270924	-0.540956
H110	H	1.051166	-0.792960	-0.404979
H111	H	1.156318	-0.270869	-0.659663
H112	H	1.081012	-0.235698	-0.742752
O113	O	1.082059	-0.225155	-0.866577
C114	C	1.149011	-0.190109	-0.850603
H115	H	1.189889	-0.233035	-0.832626
H116	H	1.172944	-0.161694	-0.893647
H117	H	1.138339	-0.147261	-0.812622
H118	H	0.507138	-0.337217	-0.198680
O119	O	1.163796	-0.263246	-0.939546
C120	C	1.205628	-0.221441	-0.982466
H121	H	1.175295	-0.218854	-1.029101
H122	H	1.213551	-0.163101	-0.963562
H123	H	1.261862	-0.248561	-0.989442
H124	H	0.506884	-0.401427	-0.398997
H125	H	0.634118	-0.401346	-0.399292
O126	O	0.503345	-0.260379	-0.378488
C127	C	0.458362	-0.317477	-0.402162
H128	H	0.435088	-0.351246	-0.361705
H129	H	0.410958	-0.292535	-0.430168
H130	H	0.492663	-0.354822	-0.433755
H131	H	1.149178	-0.918881	-0.381901
H132	H	0.984390	-0.442530	-1.063256
O133	O	0.502095	-0.225477	-0.281471
C134	C	0.455193	-0.257386	-0.236282
H135	H	0.468900	-0.318543	-0.231084
H136	H	0.463509	-0.228366	-0.189529
H137	H	0.395244	-0.251050	-0.251691
H138	H	0.984386	-0.442696	-0.659619
H139	H	0.507363	-0.472411	-0.338571
H140	H	0.633561	-0.235889	-0.283795
H141	H	0.633092	-0.435297	-0.221423
