data_functionalizedCrystal
_audit_creation_method	'MofGen! by Chris Wilmer'
_symmetry_space_group_name_H-M	'P1'
_symmetry_Int_Tables_number	1
_symmetry_cell_setting	triclinic
loop_
_symmetry_equiv_pos_as_xyz
  x,y,z
_cell_length_a	14.853569
_cell_length_b	17.666332
_cell_length_c	14.853559
_cell_angle_alpha	89.993622
_cell_angle_beta	83.633509
_cell_angle_gamma	90.010635
loop_
_atom_site_label
_atom_site_type_symbol
_atom_site_fract_x
_atom_site_fract_y
_atom_site_fract_z
O1	O	1.196342	-0.062910	0.117718
O2	O	1.696342	0.437090	0.617718
O3	O	0.933883	-0.062919	0.131738
O4	O	1.433883	0.437081	0.631738
O5	O	1.072127	-0.062913	-0.006502
O6	O	1.572127	0.437087	0.493498
O7	O	1.058098	-0.062915	0.255959
O8	O	1.558098	0.437085	0.755959
O9	O	1.072151	0.062984	-0.006520
O10	O	1.572151	0.562984	0.493480
O11	O	0.933907	0.062978	0.131720
O12	O	1.433907	0.562978	0.631720
O13	O	1.196366	0.062987	0.117700
O14	O	1.696366	0.562987	0.617700
Cu15	Cu	1.065139	0.074478	0.124708
Cu16	Cu	1.565139	0.574478	0.624708
Cu17	Cu	1.065110	-0.074410	0.124730
Cu18	Cu	1.565110	0.425590	0.624730
O19	O	1.058122	0.062981	0.255940
O20	O	1.558122	0.562981	0.755940
C21	C	0.900306	0.000029	0.131094
C22	C	1.400306	0.500029	0.631094
C23	C	0.800222	0.000025	0.129189
C24	C	1.300222	0.500025	0.629189
C25	C	0.763848	0.000023	0.046178
C26	C	1.263848	0.500023	0.546178
C27	C	0.742554	0.000030	0.210411
C28	C	1.242554	0.500030	0.710411
C29	C	0.648520	0.000031	0.208625
C30	C	1.148520	0.500031	0.708625
C31	C	0.612146	0.000029	0.125614
C32	C	1.112146	0.500029	0.625614
C33	C	0.669806	0.000026	0.044389
C34	C	1.169806	0.500026	0.544389
C35	C	0.590853	0.000042	0.289848
C36	C	1.090853	0.500042	0.789848
C37	C	0.496812	0.000044	0.288065
C38	C	0.996812	0.500044	0.788065
C39	C	0.460437	0.000036	0.205053
C40	C	0.960437	0.500036	0.705053
C41	C	0.518103	0.000032	0.123825
C42	C	1.018103	0.500032	0.623825
C43	C	0.481729	0.000030	0.040813
C44	C	0.981729	0.500030	0.540813
C45	C	0.539394	0.000021	-0.040416
C46	C	1.039394	0.500021	0.459584
C47	C	0.633430	0.000019	-0.038623
C48	C	1.133430	0.500019	0.461377
C49	C	0.366401	0.000038	0.203260
C50	C	0.866401	0.500038	0.703260
C51	C	0.387687	0.000034	0.039024
C52	C	0.887687	0.500034	0.539024
N53	N	1.065091	-0.179129	0.124739
N54	N	1.565091	0.320871	0.624739
C55	C	1.119723	-0.218742	0.179624
C56	C	1.619723	0.281258	0.679624
C57	C	1.119729	-0.297989	0.179625
C58	C	1.619729	0.202011	0.679625
C59	C	1.065113	-0.337621	0.124724
C60	C	1.565113	0.162379	0.624724
C61	C	1.010470	-0.297999	0.069835
C62	C	1.510470	0.202001	0.569835
C63	C	1.010459	-0.218753	0.069843
C64	C	1.510459	0.281247	0.569843
N65	N	1.062769	-0.462034	0.045707
N66	N	1.562769	0.037966	0.545707
N67	N	1.062785	-0.537314	0.045702
N68	N	1.562785	-0.037314	0.545702
C69	C	1.065142	-0.576385	0.124699
C70	C	1.565142	-0.076385	0.624699
N71	N	1.067500	-0.537332	0.203703
N72	N	1.567500	-0.037332	0.703703
N73	N	1.067489	-0.462044	0.203706
N74	N	1.567489	0.037956	0.703706
C75	C	1.065119	-0.423550	0.124710
C76	C	1.565119	0.076450	0.624710
C77	C	1.119783	-0.701927	0.179590
C78	C	1.619783	-0.201927	0.679590
C79	C	1.119782	-0.781176	0.179593
C80	C	1.619782	-0.281176	0.679593
C81	C	1.010529	-0.781185	0.069795
C82	C	1.510529	-0.281185	0.569795
C83	C	1.010524	-0.701937	0.069801
C84	C	1.510524	-0.201937	0.569801
C85	C	1.065156	-0.662313	0.124697
C86	C	1.565156	-0.162313	0.624697
C87	C	1.229943	0.000038	0.118345
C88	C	1.729943	0.500038	0.618345
C89	C	1.330027	0.000036	0.120249
C90	C	1.830027	0.500036	0.620249
C91	C	1.071505	0.000034	-0.040100
C92	C	1.571505	0.500034	0.459900
C93	C	1.069604	0.000029	-0.140184
C94	C	1.569604	0.500029	0.359816
N95	N	1.065165	0.179197	0.124693
N96	N	1.565165	0.679197	0.624693
C97	C	1.061527	-0.068597	-0.563349
C98	C	1.561527	0.431403	-0.063349
C99	C	1.061553	0.068660	-0.563364
C100	C	1.561553	0.568660	-0.063364
C101	C	1.063347	0.068661	-0.469331
C102	C	1.563347	0.568661	0.030669
C103	C	1.064229	0.000032	-0.422302
C104	C	1.564229	0.500032	0.077698
C105	C	1.063318	-0.068599	-0.469307
C106	C	1.563318	0.431401	0.030693
C107	C	1.064249	0.137290	-0.422317
C108	C	1.564249	0.637290	0.077683
C109	C	1.066041	0.137293	-0.328278
C110	C	1.566041	0.637293	0.171722
C111	C	1.066930	0.068663	-0.281249
C112	C	1.566930	0.568663	0.218751
C113	C	1.066020	0.000030	-0.328260
C114	C	1.566020	0.500030	0.171740
C115	C	1.066902	-0.068599	-0.281231
C116	C	1.566902	0.431401	0.218769
C117	C	1.065999	-0.137233	-0.328241
C118	C	1.565999	0.362767	0.171759
C119	C	1.064207	-0.137229	-0.422278
C120	C	1.564207	0.362771	0.077722
C121	C	1.068722	0.068659	-0.187212
C122	C	1.568722	0.568659	0.312788
C123	C	1.068693	-0.068601	-0.187189
C124	C	1.568693	0.431399	0.312811
C125	C	1.058744	0.000033	0.289538
C126	C	1.558744	0.500033	0.789538
C127	C	1.060645	0.000032	0.389622
C128	C	1.560645	0.500032	0.889622
H129	H	1.164207	-0.186485	0.224326
H130	H	1.664207	0.313515	0.724326
H131	H	0.358079	0.000028	-0.028574
H132	H	0.858079	0.500028	0.471426
N133	N	0.951565	-0.340739	0.010617
N134	N	1.451565	0.159261	0.510617
H135	H	0.959866	-0.396953	0.018936
H136	H	1.459866	0.103047	0.518936
H137	H	0.969422	-0.326869	-0.054896
H138	H	1.469422	0.173131	0.445104
H139	H	0.966055	-0.813452	0.025099
H140	H	1.466055	-0.313452	0.525099
H141	H	0.772176	0.000037	0.277995
H142	H	1.272176	0.500037	0.777995
N143	N	1.063303	0.211306	-0.473042
N144	N	1.563303	0.711306	0.026958
H145	H	1.064145	0.254783	-0.428994
H146	H	1.564145	0.754783	0.071006
H147	H	1.006719	0.214291	-0.504823
H148	H	1.506719	0.714291	-0.004823
H149	H	1.063470	-0.193107	-0.460561
H150	H	1.563470	0.306893	0.039439
N151	N	1.178654	-0.340727	0.238825
N152	N	1.678654	0.159273	0.738825
H153	H	1.213259	-0.303600	0.273603
H154	H	1.713259	0.196400	0.773603
H155	H	1.222742	-0.373589	0.199663
H156	H	1.722742	0.126411	0.699663
N157	N	1.060608	0.142678	-0.614083
N158	N	1.560608	0.642678	-0.114083
H159	H	1.116771	0.172678	-0.604959
H160	H	1.616771	0.672678	-0.104959
H161	H	1.005050	0.172623	-0.590455
H162	H	1.505050	0.672623	-0.090455
N163	N	0.630080	0.000046	0.379377
N164	N	1.130080	0.500046	0.879377
H165	H	0.668641	0.046712	0.383765
H166	H	1.168641	0.546712	0.883765
H167	H	0.668559	-0.046659	0.383734
H168	H	1.168559	0.453341	0.883734
H169	H	0.449869	0.000050	0.354207
H170	H	0.949869	0.500050	0.854207
N171	N	1.060552	-0.142620	-0.614047
N172	N	1.560552	0.357380	-0.114047
H173	H	1.061383	-0.186094	-0.569983
H174	H	1.561383	0.313906	-0.069983
H175	H	1.115656	-0.145604	-0.660299
H176	H	1.615656	0.354396	-0.160299
N177	N	0.951616	-0.659210	0.010583
N178	N	1.451616	-0.159210	0.510583
H179	H	0.907463	-0.626345	0.049673
H180	H	1.407463	-0.126345	0.549673
H181	H	0.917082	-0.696390	-0.024188
H182	H	1.417082	-0.196390	0.475812
H183	H	0.319454	0.000053	0.269396
H184	H	0.819454	0.500053	0.769396
N185	N	0.695622	0.000022	-0.126229
N186	N	1.195622	0.500022	0.373771
H187	H	0.683905	-0.046648	-0.162434
H188	H	1.183905	0.453352	0.337566
H189	H	0.760686	0.000055	-0.112423
H190	H	1.260686	0.500055	0.387577
N191	N	1.067032	0.211314	-0.277578
N192	N	1.567032	0.711314	0.222422
H193	H	1.011937	0.214376	-0.231318
H194	H	1.511937	0.714376	0.268682
H195	H	1.066236	0.254746	-0.321701
H196	H	1.566236	0.754746	0.178299
H197	H	0.810803	0.000013	-0.019956
H198	H	1.310803	0.500013	0.480044
N199	N	1.069704	0.142672	-0.136504
N200	N	1.569704	0.642672	0.363496
H201	H	1.014607	0.145727	-0.090245
H202	H	1.514607	0.645727	0.409755
H203	H	1.068903	0.186108	-0.180623
H204	H	1.568903	0.686108	0.319377
N205	N	0.500159	0.000031	-0.129948
N206	N	1.000159	0.500031	0.370052
H207	H	0.431837	0.000040	-0.118749
H208	H	0.931837	0.500040	0.381251
H209	H	0.521220	-0.046643	-0.165490
H210	H	1.021220	0.453357	0.334510
H211	H	1.066710	-0.193111	-0.289937
H212	H	1.566710	0.306889	0.210063
N213	N	0.951542	-0.176022	0.010633
N214	N	1.451542	0.323978	0.510633
H215	H	0.916944	-0.213151	-0.024149
H216	H	1.416944	0.286849	0.475851
H217	H	0.990879	-0.143133	-0.033298
H218	H	1.490879	0.356867	0.466702
N219	N	1.178698	-0.659183	0.238801
N220	N	1.678698	-0.159183	0.738801
H221	H	1.213303	-0.696305	0.273578
H222	H	1.713303	-0.196305	0.773578
H223	H	1.139363	-0.626317	0.282736
H224	H	1.639363	-0.126317	0.782736
N225	N	1.178709	-0.823905	0.238794
N226	N	1.678709	-0.323905	0.738794
H227	H	1.213317	-0.786776	0.273566
H228	H	1.713317	-0.286776	0.773566
H229	H	1.222796	-0.856769	0.199631
H230	H	1.722796	-0.356769	0.699631
H231	H	1.069416	-0.124488	-0.148905
H232	H	1.569416	0.375512	0.351095
