data_functionalizedCrystal
_audit_creation_method	'MofGen! by Chris Wilmer'
_symmetry_space_group_name_H-M	'P1'
_symmetry_Int_Tables_number	1
_symmetry_cell_setting	triclinic
loop_
_symmetry_equiv_pos_as_xyz
  x,y,z
_cell_length_a	11.792254
_cell_length_b	11.792241
_cell_length_c	14.750779
_cell_angle_alpha	102.734008
_cell_angle_beta	77.268677
_cell_angle_gamma	84.196007
loop_
_atom_site_label
_atom_site_type_symbol
_atom_site_fract_x
_atom_site_fract_y
_atom_site_fract_z
O1	O	0.180013	1.482458	-0.079735
O2	O	0.196052	1.152111	-0.079757
O3	O	0.022861	1.325296	-0.079739
O4	O	0.353204	1.309273	-0.079754
O5	O	-0.026093	1.374253	0.079917
O6	O	0.147099	1.201068	0.079898
O7	O	0.131059	1.531415	0.079921
Zn8	Zn	0.131306	1.374015	0.105258
Zn9	Zn	0.195805	1.309512	-0.105095
O10	O	0.304250	1.358231	0.079902
C11	C	0.170569	1.134298	0.000068
C12	C	0.167557	1.008281	0.000059
C13	C	-0.043907	1.348765	0.000089
C14	C	-0.169920	1.345745	0.000088
C15	C	-0.272255	1.343290	0.000084
C16	C	-0.400639	1.340219	0.000075
C17	C	0.162006	0.777577	0.000087
C18	C	0.165090	0.905958	0.000072
C19	C	0.371019	1.334760	0.000073
C20	C	0.497033	1.337779	0.000067
C21	C	0.156543	1.549228	0.000094
C22	C	0.159556	1.675242	0.000096
N23	N	0.087287	1.418045	0.248819
N24	N	0.239815	1.265490	-0.248655
C25	C	0.362705	1.142520	0.600607
C26	C	0.331867	1.173382	0.701110
C27	C	0.178562	1.326769	0.701089
C28	C	0.209384	1.295917	0.600584
C29	C	0.301457	1.203792	0.550351
C30	C	0.148136	1.357188	0.550329
C31	C	0.178960	1.326342	0.449833
C32	C	0.271032	1.234223	0.399593
C33	C	0.332281	1.172945	0.449856
C34	C	0.056069	1.449318	0.600563
C35	C	-0.005179	1.510590	0.550307
C36	C	0.025639	1.479738	0.449810
C37	C	0.117711	1.387620	0.399570
C38	C	-0.035610	1.541016	0.399547
C39	C	-0.004786	1.510169	0.299051
C40	C	0.148535	1.356773	0.299074
H41	H	0.223502	1.281748	0.258173
H42	H	-0.054660	1.560065	0.258133
H43	H	0.030980	1.474433	0.682393
Br44	Br	0.053615	1.451797	0.769268
H45	H	0.296131	1.209113	0.317763
Br46	Br	0.457225	1.047901	0.381677
H47	H	-0.080143	1.585602	0.591219
Br48	Br	0.487649	1.017476	0.532429
Br49	Br	0.415009	1.090219	0.769307
H50	H	-0.110569	1.616032	0.440460
