data_functionalizedCrystal
_audit_creation_method	'MofGen! by Chris Wilmer'
_symmetry_space_group_name_H-M	'P1'
_symmetry_Int_Tables_number	1
_symmetry_cell_setting	triclinic
loop_
_symmetry_equiv_pos_as_xyz
  x,y,z
_cell_length_a	14.853567
_cell_length_b	14.853567
_cell_length_c	13.448316
_cell_angle_alpha	89.996214
_cell_angle_beta	90.008600
_cell_angle_gamma	96.365069
loop_
_atom_site_label
_atom_site_type_symbol
_atom_site_fract_x
_atom_site_fract_y
_atom_site_fract_z
O1	O	-0.117706	1.196367	-0.082628
O2	O	-0.131728	0.933908	-0.082645
O3	O	0.006513	1.072148	-0.082625
O4	O	-0.255947	1.058127	-0.082649
O5	O	0.006521	1.072131	0.082759
O6	O	-0.131719	0.933891	0.082738
O7	O	-0.117698	1.196350	0.082756
Cu8	Cu	-0.124708	1.065119	0.097848
Cu9	Cu	-0.124718	1.065139	-0.097737
O10	O	-0.255938	1.058110	0.082735
C11	C	-0.131088	0.900311	0.000044
C12	C	-0.129184	0.800227	0.000038
C13	C	-0.039019	0.387693	0.000069
C14	C	-0.203251	0.366412	0.000053
C15	C	-0.205042	0.460446	0.000049
C16	C	-0.123819	0.518108	0.000054
C17	C	-0.040806	0.481736	0.000062
C18	C	-0.288053	0.496825	0.000031
C19	C	-0.289846	0.590864	0.000026
C20	C	-0.208623	0.648528	0.000038
C21	C	-0.125607	0.612150	0.000048
C22	C	-0.044384	0.669812	0.000053
C23	C	0.038633	0.633437	0.000069
C24	C	0.040417	0.539399	0.000074
C25	C	-0.210407	0.742565	0.000033
C26	C	-0.046172	0.763855	0.000046
C27	C	-0.289531	1.058754	0.000040
C28	C	-0.389615	1.060657	0.000031
C29	C	-0.802149	1.150823	0.000073
C30	C	-0.823430	0.986590	0.000061
C31	C	-0.729396	0.984800	0.000052
C32	C	-0.671734	1.066023	0.000054
C33	C	-0.708106	1.149036	0.000067
C34	C	-0.693017	0.901789	0.000049
C35	C	-0.598978	0.899996	0.000041
C36	C	-0.541314	0.981219	0.000036
C37	C	-0.577691	1.064235	0.000048
C38	C	-0.520029	1.145458	0.000050
C39	C	-0.556405	1.228475	0.000054
C40	C	-0.650442	1.230259	0.000062
C41	C	-0.447277	0.979435	0.000029
C42	C	-0.425987	1.143670	0.000044
C43	C	0.040106	1.071504	0.000068
C44	C	0.140189	1.069601	0.000071
C45	C	-0.118337	1.229947	0.000064
C46	C	-0.120241	1.330031	0.000064
N47	N	-0.124700	1.065111	0.235412
N48	N	-0.124718	1.065154	-0.235302
C49	C	-0.063512	1.126343	0.287462
C50	C	-0.063512	1.126348	0.391565
C51	C	-0.124704	1.065126	0.443617
C52	C	-0.185894	1.003887	0.391560
C53	C	-0.185890	1.003878	0.287459
C54	C	-0.185900	1.003912	0.608540
C55	C	-0.185906	1.003922	0.712649
C56	C	-0.063522	1.126383	0.712647
C57	C	-0.063518	1.126373	0.608545
C58	C	-0.124710	1.065136	0.556496
H59	H	-0.357443	0.620472	0.000013
C60	C	0.137695	0.446001	-0.084939
C61	C	0.131663	0.499413	0.000080
H62	H	0.194028	0.421317	-0.084939
H63	H	0.089581	0.398210	-0.084934
H64	H	0.133580	0.482258	-0.142605
H65	H	0.135771	0.463155	0.057746
H66	H	0.179790	0.547211	0.000085
C67	C	0.047094	0.881954	-0.084971
C68	C	0.043111	0.827237	0.000051
H69	H	0.102212	0.921086	-0.084964
H70	H	0.044381	0.844823	-0.142629
H71	H	-0.002603	0.917073	-0.084972
H72	H	0.092805	0.792113	0.000048
H73	H	0.045833	0.864372	0.057723
C74	C	0.201158	0.645046	0.000080
C75	C	0.127913	0.696824	0.000066
H76	H	0.256272	0.684183	0.000070
H77	H	0.198449	0.607935	0.057756
H78	H	0.198433	0.607916	-0.057590
H79	H	0.130634	0.733949	0.057740
H80	H	0.130623	0.733952	-0.057616
H81	H	-0.831770	1.218414	0.000073
H82	H	0.028572	0.358072	0.000086
H83	H	-0.269379	0.319459	0.000040
C84	C	-0.870541	0.847171	-0.084968
C85	C	-0.886809	0.897314	0.000057
H86	H	-0.909669	0.792051	-0.084967
H87	H	-0.881594	0.881214	-0.142623
H88	H	-0.809328	0.834230	-0.084965
H89	H	-0.948020	0.910261	0.000051
H90	H	-0.875762	0.863264	0.057728
C91	C	-0.286068	0.877267	0.000012
C92	C	-0.301649	0.782551	0.000014
H93	H	-0.342401	0.901950	-0.000005
H94	H	-0.252628	0.897042	0.057687
H95	H	-0.252619	0.897045	-0.057659
H96	H	-0.335092	0.762773	0.057689
H97	H	-0.335103	0.762768	-0.057667
C98	C	-0.740103	0.762349	0.085061
C99	C	-0.756395	0.812512	0.000046
H100	H	-0.779237	0.707233	0.085056
H101	H	-0.678900	0.749406	0.085053
H102	H	-0.751140	0.796385	0.142729
H103	H	-0.745352	0.778478	-0.057623
H104	H	-0.817613	0.825452	0.000044
C105	C	0.057464	1.247382	0.297927
C106	C	0.003755	1.193640	0.230252
H107	H	0.098998	1.288924	0.262608
H108	H	0.019876	1.279857	0.338513
H109	H	0.089956	1.209810	0.338547
H110	H	-0.028743	1.231212	0.189636
H111	H	0.041348	1.161162	0.189649
C112	C	0.059156	1.145795	0.508643
C113	C	0.003748	1.193663	0.448771
H114	H	0.100685	1.187357	0.543951
H115	H	0.022719	1.109345	0.554542
H116	H	0.091654	1.108232	0.468034
H117	H	-0.028755	1.231222	0.489380
H118	H	0.040189	1.230129	0.402866
C119	C	-0.306885	0.882873	0.618994
C120	C	-0.253168	0.936604	0.551325
H121	H	-0.348418	0.841329	0.583669
H122	H	-0.269302	0.850401	0.659606
H123	H	-0.339379	0.920453	0.659587
H124	H	-0.220669	0.899025	0.510736
H125	H	-0.290756	0.969078	0.510695
H126	H	-0.013695	1.176230	0.566165
C127	C	-0.381306	0.378711	-0.084981
C128	C	-0.377325	0.433439	0.000027
H129	H	-0.436418	0.339572	-0.084976
H130	H	-0.378603	0.415834	-0.142648
H131	H	-0.331603	0.343600	-0.084958
H132	H	-0.427024	0.468555	0.000001
H133	H	-0.380037	0.396311	0.057709
H134	H	-0.379044	1.209813	0.000039
C135	C	0.092459	1.179161	0.744701
C136	C	0.003745	1.193700	0.769849
H137	H	0.133980	1.220727	0.780014
H138	H	0.102364	1.118997	0.761784
H139	H	0.101202	1.187916	0.675250
H140	H	-0.005000	1.184939	0.839299
H141	H	-0.006164	1.253879	0.752773
C142	C	-0.402798	1.298645	0.000052
C143	C	-0.493016	1.317753	0.000055
H144	H	-0.363664	1.353761	0.000047
H145	H	-0.391762	1.264613	0.057721
H146	H	-0.391781	1.264612	-0.057625
H147	H	-0.504035	1.351780	0.057737
H148	H	-0.504057	1.351800	-0.057620
C149	C	-0.464280	0.824326	0.000015
C150	C	-0.558997	0.808747	0.000025
H151	H	-0.439599	0.767992	0.000007
H152	H	-0.444517	0.857776	-0.057653
H153	H	-0.444490	0.857764	0.057694
H154	H	-0.578787	0.775315	-0.057658
H155	H	-0.578768	0.775283	0.057698
C156	C	-0.306869	0.882842	0.297910
C157	C	-0.253154	0.936574	0.230242
H158	H	-0.348397	0.841293	0.262586
H159	H	-0.269284	0.850375	0.338526
H160	H	-0.339367	0.920419	0.338501
H161	H	-0.220650	0.898997	0.189656
H162	H	-0.290744	0.969044	0.189609
H163	H	-0.680068	1.297847	0.000092
H164	H	-0.417664	0.911844	0.000040
H165	H	-0.235734	0.954068	0.755024
H166	H	-0.235715	0.954034	0.433947
