data_functionalizedCrystal
_audit_creation_method	'MofGen! by Chris Wilmer'
_symmetry_space_group_name_H-M	'P1'
_symmetry_Int_Tables_number	1
_symmetry_cell_setting	triclinic
loop_
_symmetry_equiv_pos_as_xyz
  x,y,z
_cell_length_a	23.532407
_cell_length_b	23.532407
_cell_length_c	9.130313
_cell_angle_alpha	90.004498
_cell_angle_beta	90.000316
_cell_angle_gamma	82.848712
loop_
_atom_site_label
_atom_site_type_symbol
_atom_site_fract_x
_atom_site_fract_y
_atom_site_fract_z
O1	O	0.755259	0.069131	0.121722
O2	O	1.255259	0.569131	0.621722
O3	O	0.589395	0.079134	0.121747
O4	O	1.089395	0.579134	0.621747
O5	O	0.677329	-0.008799	0.121707
O6	O	1.177329	0.491201	0.621707
O7	O	0.667325	0.157065	0.121762
O8	O	1.167325	0.657065	0.621762
O9	O	0.677323	-0.008794	-0.121892
O10	O	1.177323	0.491206	0.378108
O11	O	0.589389	0.079140	-0.121852
O12	O	1.089389	0.579140	0.378148
O13	O	0.755253	0.069137	-0.121877
O14	O	1.255253	0.569137	0.378123
Cu15	Cu	0.672320	0.074139	-0.144107
Cu16	Cu	1.172320	0.574139	0.355893
Cu17	Cu	0.672328	0.074132	0.143977
Cu18	Cu	1.172328	0.574132	0.643977
O19	O	0.667319	0.157070	-0.121837
O20	O	1.167319	0.657070	0.378163
C21	C	0.568176	0.078882	-0.000050
C22	C	1.068176	0.578882	0.499950
C23	C	0.504959	0.078116	-0.000041
C24	C	1.004959	0.578116	0.499959
C25	C	0.677071	-0.030012	-0.000096
C26	C	1.177071	0.469988	0.499904
C27	C	0.676305	-0.093229	-0.000108
C28	C	1.176305	0.406771	0.499892
C29	C	0.238792	0.022921	-0.000099
C30	C	0.738792	0.522921	0.499901
C31	C	0.298192	0.023632	-0.000099
C32	C	0.798192	0.523632	0.499901
O33	O	0.334937	-0.020153	-0.000164
O34	O	0.834937	0.479847	0.499836
N35	N	0.320818	0.075909	-0.000071
N36	N	0.820818	0.575909	0.499929
C37	C	0.284041	0.127477	-0.000060
C38	C	0.784041	0.627477	0.499940
O39	O	0.308740	0.172007	-0.000038
O40	O	0.808740	0.672007	0.499962
C41	C	0.224642	0.126765	-0.000071
C42	C	0.724642	0.626765	0.499929
C43	C	0.202019	0.074485	-0.000083
C44	C	0.702019	0.574485	0.499917
C45	C	0.216169	-0.029354	-0.000114
C46	C	0.716169	0.470646	0.499886
C47	C	0.156772	-0.030066	-0.000111
C48	C	0.656772	0.469934	0.499889
C49	C	0.119999	0.021499	-0.000095
C50	C	0.619999	0.521499	0.499905
C51	C	0.142623	0.073774	-0.000081
C52	C	0.642623	0.573774	0.499919
C53	C	0.187865	0.178333	-0.000069
C54	C	0.687865	0.678333	0.499931
C55	C	0.128463	0.177616	-0.000082
C56	C	0.628463	0.677616	0.499918
C57	C	0.105840	0.125336	-0.000094
C58	C	0.605840	0.625336	0.499906
C59	C	0.046454	0.124627	-0.000063
C60	C	0.546454	0.624627	0.499937
N61	N	0.023828	0.072351	-0.000090
N62	N	0.523828	0.572351	0.499910
C63	C	0.060600	0.020787	-0.000106
C64	C	0.560600	0.520787	0.499894
C65	C	0.408783	0.128968	-0.000039
C66	C	0.908783	0.628968	0.499961
C67	C	0.468181	0.129681	-0.000017
C68	C	0.968181	0.629681	0.499983
C69	C	0.482328	0.025836	-0.000059
C70	C	0.982328	0.525836	0.499941
C71	C	0.422929	0.025124	-0.000070
C72	C	0.922929	0.525124	0.499930
C73	C	0.386157	0.076692	-0.000066
C74	C	0.886157	0.576692	0.499934
C75	C	-0.064136	0.019297	-0.000101
C76	C	0.435864	0.519297	0.499899
C77	C	-0.123538	0.018590	-0.000092
C78	C	0.376462	0.518590	0.499908
C79	C	-0.137680	0.122435	-0.000058
C80	C	0.362320	0.622435	0.499942
C81	C	-0.078284	0.123142	-0.000059
C82	C	0.421716	0.623142	0.499941
C83	C	-0.041512	0.071568	-0.000085
C84	C	0.458488	0.571568	0.499915
O85	O	0.009675	0.168390	-0.000003
O86	O	0.509675	0.668390	0.499997
O87	O	0.035892	-0.023737	-0.000148
O88	O	0.535892	0.476263	0.499852
C89	C	0.723538	-0.492332	-0.000034
C90	C	1.223538	0.007668	0.499966
C91	C	0.722827	-0.551733	-0.000023
C92	C	1.222827	-0.051733	0.499977
O93	O	0.766613	-0.588477	0.000024
O94	O	1.266613	-0.088477	0.500024
N95	N	0.670551	-0.574359	-0.000016
N96	N	1.170551	-0.074359	0.499984
C97	C	0.618982	-0.537581	-0.000006
C98	C	1.118982	-0.037581	0.499994
O99	O	0.574452	-0.562281	0.000002
O100	O	1.074452	-0.062281	0.500002
C101	C	0.619695	-0.478182	-0.000007
C102	C	1.119695	0.021818	0.499993
C103	C	0.671974	-0.455559	-0.000028
C104	C	1.171974	0.044441	0.499972
C105	C	0.775814	-0.469709	-0.000055
C106	C	1.275814	0.030291	0.499945
C107	C	0.776525	-0.410313	-0.000069
C108	C	1.276525	0.089687	0.499931
C109	C	0.724961	-0.373540	-0.000062
C110	C	1.224961	0.126460	0.499938
C111	C	0.672685	-0.396163	-0.000042
C112	C	1.172685	0.103837	0.499958
C113	C	0.568127	-0.441406	0.000014
C114	C	1.068127	0.058594	0.500014
C115	C	0.568843	-0.382003	0.000015
C116	C	1.068843	0.117997	0.500015
C117	C	0.621123	-0.359381	-0.000007
C118	C	1.121123	0.140619	0.499993
C119	C	0.621832	-0.299994	-0.000050
C120	C	1.121832	0.200006	0.499950
N121	N	0.674109	-0.277368	-0.000057
N122	N	1.174109	0.222632	0.499943
C123	C	0.725673	-0.314141	-0.000063
C124	C	1.225673	0.185859	0.499937
C125	C	0.617491	-0.662324	-0.000002
C126	C	1.117491	-0.162324	0.499998
C127	C	0.616778	-0.721722	-0.000011
C128	C	1.116778	-0.221722	0.499989
C129	C	0.720623	-0.735869	-0.000026
C130	C	1.220623	-0.235869	0.499974
C131	C	0.721335	-0.676470	-0.000027
C132	C	1.221335	-0.176470	0.499973
C133	C	0.669767	-0.639698	-0.000009
C134	C	1.169767	-0.139698	0.499991
C135	C	0.727163	-0.189404	-0.000094
C136	C	1.227163	0.310596	0.499906
C137	C	0.727869	-0.130002	-0.000114
C138	C	1.227869	0.369998	0.499886
C139	C	0.624025	-0.115860	-0.000091
C140	C	1.124025	0.384140	0.499909
C141	C	0.623318	-0.175257	-0.000079
C142	C	1.123318	0.324743	0.499921
C143	C	0.674891	-0.212028	-0.000075
C144	C	1.174891	0.287972	0.499925
O145	O	0.578069	-0.263215	-0.000091
O146	O	1.078069	0.236785	0.499909
O147	O	0.770196	-0.289433	-0.000052
O148	O	1.270196	0.210567	0.499948
C149	C	0.776472	0.069389	-0.000077
C150	C	1.276472	0.569389	0.499923
C151	C	0.839689	0.070155	-0.000076
C152	C	1.339689	0.570155	0.499924
C153	C	0.667577	0.178283	-0.000031
C154	C	1.167577	0.678283	0.499969
C155	C	0.668343	0.241500	-0.000010
C156	C	1.168343	0.741500	0.499990
N157	N	0.672320	0.074143	-0.346730
N158	N	1.172320	0.574143	0.153270
C159	C	0.706663	0.108507	-0.423389
C160	C	1.206663	0.608507	0.076611
C161	C	0.706671	0.108496	-0.576726
C162	C	1.206671	0.608496	-0.076726
C163	C	0.637988	0.039756	-0.576730
C164	C	1.137988	0.539756	-0.076730
C165	C	0.637983	0.039764	-0.423396
C166	C	1.137983	0.539764	0.076604
C167	C	0.746314	0.148195	-0.423388
C168	C	1.246314	0.648195	0.076612
C169	C	0.746323	0.148185	-0.576725
C170	C	1.246323	0.648185	-0.076725
N171	N	0.672333	0.074124	0.346599
N172	N	1.172333	0.574124	0.846599
H173	H	-0.034204	-0.022699	-0.000121
H174	H	0.465796	0.477301	0.499879
O175	O	0.782786	-0.229061	-0.000111
O176	O	1.282786	0.270939	0.499889
H177	H	0.819252	-0.203342	-0.000145
H178	H	1.319252	0.296658	0.499855
O179	O	0.568412	-0.076191	-0.000092
O180	O	1.068412	0.423809	0.499908
H181	H	0.543379	-0.084194	0.099198
H182	H	1.043379	0.415806	0.599198
O183	O	0.511738	-0.465796	0.000037
O184	O	1.011738	0.034204	0.500037
H185	H	0.486989	-0.450997	0.099339
H186	H	0.986989	0.049003	0.599339
H187	H	0.819097	-0.391900	-0.000080
H188	H	1.319097	0.108100	0.499920
O189	O	0.132375	-0.086453	-0.000162
O190	O	0.632375	0.413547	0.499838
H191	H	0.167932	-0.122184	-0.000196
H192	H	0.667932	0.377816	0.499804
H193	H	0.817806	-0.499644	-0.000054
H194	H	1.317806	0.000356	0.499946
O195	O	0.784261	-0.105606	-0.000134
O196	O	1.284261	0.394394	0.499866
H197	H	0.776097	-0.058124	-0.000156
H198	H	1.276097	0.441876	0.499844
O199	O	-0.053880	0.179528	-0.000031
O200	O	0.446120	0.679528	0.499969
H201	H	-0.027158	0.182336	-0.099319
H202	H	0.472842	0.682336	0.400681
H203	H	0.575496	-0.632386	0.000001
H204	H	1.075496	-0.132386	0.500001
H205	H	-0.141954	-0.023984	-0.000099
H206	H	0.358046	0.476016	0.499901
O207	O	0.776240	-0.775541	-0.000032
O208	O	1.276240	-0.275541	0.499968
H209	H	0.812715	-0.749835	-0.000054
H210	H	1.312715	-0.249835	0.499946
H211	H	0.731649	0.193301	-0.618349
H212	H	1.231649	0.693301	-0.118349
O213	O	0.566934	-0.199666	-0.000073
O214	O	1.066934	0.300334	0.499927
H215	H	0.542178	-0.184869	0.099221
H216	H	1.042178	0.315131	0.599221
O217	O	-0.177347	0.178050	-0.000042
O218	O	0.322653	0.678050	0.499958
H219	H	-0.169336	0.203084	-0.099320
H220	H	0.330664	0.703084	0.400680
H221	H	0.526850	-0.352065	0.000032
H222	H	1.026850	0.147935	0.500032
O223	O	0.803490	0.123670	-0.639726
O224	O	1.303490	0.623670	-0.139726
H225	H	0.833793	0.110683	-0.549125
H226	H	1.333793	0.610683	-0.049125
O227	O	0.600945	0.002698	-0.340706
O228	O	1.100945	0.502698	0.159294
H229	H	0.577067	-0.021204	-0.419782
H230	H	1.077067	0.478796	0.080218
O231	O	0.600951	0.002681	-0.659418
O232	O	1.100951	0.502681	-0.159418
H233	H	0.606721	0.008450	-0.778921
H234	H	1.106721	0.508450	-0.278921
O235	O	0.777721	-0.652070	-0.000023
O236	O	1.277721	-0.152070	0.499977
H237	H	0.813454	-0.687625	-0.000015
H238	H	1.313454	-0.187625	0.499985
O239	O	0.212258	0.234720	-0.000064
O240	O	0.712258	0.734720	0.499936
H241	H	0.238984	0.237525	-0.099346
H242	H	0.738984	0.737525	0.400654
O243	O	0.806078	0.128792	-0.368223
O244	O	1.306078	0.628792	0.131777
H245	H	0.835698	0.158469	-0.408787
H246	H	1.335698	0.658469	0.091213
O247	O	0.721753	0.205345	-0.360378
O248	O	1.221753	0.705345	0.139622
H249	H	0.708738	0.235639	-0.450976
H250	H	1.208738	0.735639	0.049024
H251	H	0.486595	0.172252	0.000013
H252	H	0.986595	0.672252	0.500013
H253	H	0.574207	-0.740135	-0.000019
H254	H	1.074207	-0.240135	0.499981
O255	O	0.255827	-0.084975	-0.000128
O256	O	0.755827	0.415025	0.499872
H257	H	0.230107	-0.121439	-0.000132
H258	H	0.730107	0.378561	0.499868
H259	H	0.404515	-0.017447	-0.000082
H260	H	0.904515	0.482553	0.499918
H261	H	0.512280	-0.016150	-0.000073
H262	H	1.012280	0.483850	0.499927
H263	H	0.098525	0.219610	-0.000085
H264	H	0.598525	0.719610	0.499915
O265	O	0.369121	0.184591	-0.000010
O266	O	0.869121	0.684591	0.499990
H267	H	0.394839	0.221057	0.000024
H268	H	0.894839	0.721057	0.500024
