data_functionalizedCrystal
_audit_creation_method	'MofGen! by Chris Wilmer'
_symmetry_space_group_name_H-M	'P1'
_symmetry_Int_Tables_number	1
_symmetry_cell_setting	triclinic
loop_
_symmetry_equiv_pos_as_xyz
  x,y,z
_cell_length_a	16.992694
_cell_length_b	10.967829
_cell_length_c	16.053802
_cell_angle_alpha	80.477515
_cell_angle_beta	87.249047
_cell_angle_gamma	87.623462
loop_
_atom_site_label
_atom_site_type_symbol
_atom_site_fract_x
_atom_site_fract_y
_atom_site_fract_z
O1	O	1.046843	0.257191	-0.106324
O2	O	1.546843	0.757191	0.393676
O3	O	0.818523	0.254315	-0.105935
O4	O	1.318523	0.754315	0.394065
O5	O	0.936728	0.076458	-0.080330
O6	O	1.436728	0.576458	0.419670
O7	O	0.928638	0.435048	-0.131930
O8	O	1.428638	0.935048	0.368070
O9	O	0.930221	0.086205	0.057126
O10	O	1.430221	0.586205	0.557126
O11	O	0.812017	0.264061	0.031521
O12	O	1.312017	0.764061	0.531521
O13	O	1.040336	0.266938	0.031131
O14	O	1.540336	0.766938	0.531131
Zn15	Zn	0.925143	0.267047	0.053150
Zn16	Zn	1.425143	0.767047	0.553150
Zn17	Zn	0.933716	0.254206	-0.127954
Zn18	Zn	1.433716	0.754206	0.372046
O19	O	0.922131	0.444795	0.005526
O20	O	1.422131	0.944795	0.505526
C21	C	0.786012	0.255489	-0.036678
C22	C	1.286012	0.755489	0.463322
C23	C	0.698834	0.244453	-0.035100
C24	C	1.198834	0.744453	0.464900
C25	C	0.649897	0.350928	-0.050421
C26	C	1.149897	0.850928	0.449579
C27	C	0.567982	0.340553	-0.048916
C28	C	1.067982	0.840553	0.451084
C29	C	0.535007	0.223701	-0.032097
C30	C	1.035007	0.723701	0.467903
C31	C	0.583950	0.117219	-0.016772
C32	C	1.083950	0.617219	0.483228
C33	C	0.665862	0.127596	-0.018271
C34	C	1.165862	0.627596	0.481729
C35	C	0.290882	0.180693	-0.025886
C36	C	0.790882	0.680693	0.474114
C37	C	0.208963	0.170324	-0.024391
C38	C	0.708963	0.670324	0.475609
C39	C	0.193001	0.393660	-0.056533
C40	C	0.693001	0.893660	0.443467
C41	C	0.274916	0.404026	-0.058035
C42	C	0.774916	0.904026	0.441965
C43	C	0.323852	0.297544	-0.042706
C44	C	0.823852	0.797544	0.457294
N45	N	0.451278	0.213093	-0.030561
N46	N	0.951278	0.713093	0.469439
N47	N	0.407579	0.308153	-0.044236
N48	N	0.907579	0.808153	0.455764
C49	C	0.932395	0.035236	-0.004971
C50	C	1.432395	0.535236	0.495029
C51	C	0.929166	-0.102116	0.014787
C52	C	1.429166	0.397884	0.514787
C53	C	0.931098	-0.168395	-0.047611
C54	C	1.431098	0.331605	0.452389
C55	C	0.927761	-0.310355	-0.027191
C56	C	1.427761	0.189645	0.472809
C57	C	1.072847	0.265763	-0.038127
C58	C	1.572847	0.765763	0.461873
C59	C	1.160026	0.276799	-0.039711
C60	C	1.660026	0.776799	0.460289
C61	C	0.926465	0.486017	-0.069835
C62	C	1.426465	0.986017	0.430165
C63	C	0.929693	0.623368	-0.089598
C64	C	1.429693	1.123368	0.410402
N65	N	0.919298	0.275811	0.176749
N66	N	1.419298	0.775811	0.676749
N67	N	0.939567	0.245432	-0.251551
N68	N	1.439567	0.745432	0.248449
C69	C	0.969613	0.200164	0.231333
C70	C	1.469613	0.700164	0.731333
C71	C	0.965532	0.206306	0.317856
C72	C	1.465532	0.706306	0.817856
C73	C	0.911139	0.288104	0.349791
C74	C	1.411139	0.788104	0.849791
C75	C	0.860818	0.363755	0.295200
C76	C	1.360818	0.863755	0.795200
C77	C	0.864896	0.357605	0.208680
C78	C	1.364896	0.857605	0.708680
C79	C	0.893325	0.314933	0.607338
C80	C	1.393325	0.814933	1.107338
C81	C	0.889252	0.321080	0.693864
C82	C	1.389252	0.821080	1.193864
C83	C	0.993966	0.163629	0.716515
C84	C	1.493966	0.663629	1.216515
C85	C	0.998042	0.157492	0.629991
C86	C	1.498042	0.657492	1.129991
C87	C	0.947719	0.233138	0.575408
C88	C	1.447719	0.733138	1.075408
N89	N	0.906967	0.294388	0.438230
N90	N	1.406967	0.794388	0.938230
N91	N	0.951887	0.226847	0.486972
N92	N	1.451887	0.726847	0.986972
H93	H	0.705707	0.040892	-0.005796
H94	H	1.205707	0.540892	0.494204
C95	C	0.935262	-0.311336	-0.182196
C96	C	1.435262	0.188664	0.317804
H97	H	0.936036	-0.371329	-0.218695
H98	H	1.436036	0.128671	0.281305
H99	H	0.982225	-0.266109	-0.191802
H100	H	1.482225	0.233891	0.308198
H101	H	0.890948	-0.256297	-0.193220
H102	H	1.390948	0.243703	0.306780
H103	H	0.925038	-0.150469	0.083326
H104	H	1.425038	0.349531	0.583326
C105	C	0.514155	0.457675	-0.065771
C106	C	1.014155	0.957675	0.434229
H107	H	0.545527	0.528752	-0.076013
H108	H	1.045527	1.028752	0.423987
H109	H	0.479609	0.461677	-0.017921
H110	H	0.979609	0.961677	0.482079
H111	H	0.484131	0.454865	-0.113793
H112	H	0.984131	0.954865	0.386207
C113	C	0.139175	0.510783	-0.073389
C114	C	0.639175	1.010783	0.426611
H115	H	0.170546	0.581859	-0.083626
H116	H	0.670546	1.081859	0.416374
H117	H	0.104625	0.514782	-0.025541
H118	H	0.604625	1.014782	0.474459
H119	H	0.109154	0.507975	-0.121414
H120	H	0.609154	1.007975	0.378586
C121	C	1.057870	0.067507	0.594870
C122	C	1.557870	0.567507	1.094870
H123	H	1.087248	0.023324	0.639772
H124	H	1.587248	0.523324	1.139772
H125	H	1.092682	0.112817	0.554243
H126	H	1.592682	0.612817	1.054243
H127	H	1.030586	0.010846	0.568937
H128	H	1.530586	0.510846	1.068937
C129	C	0.809553	0.440817	0.148633
C130	C	1.309553	0.940817	0.648633
H131	H	0.819766	0.425432	0.092533
H132	H	1.319766	0.925432	0.592533
H133	H	0.818414	0.525159	0.150811
H134	H	1.318414	1.025159	0.650811
H135	H	0.756326	0.423176	0.165505
H136	H	1.256326	0.923176	0.665505
C137	C	1.029446	0.110183	0.196212
C138	C	1.529446	0.610183	0.696212
H139	H	1.058821	0.066002	0.241117
H140	H	1.558821	0.566002	0.741117
H141	H	1.064259	0.155491	0.155587
H142	H	1.564259	0.655491	0.655587
H143	H	1.002163	0.053521	0.170280
H144	H	1.502163	0.553521	0.670280
H145	H	1.006502	0.144707	0.362299
H146	H	1.506502	0.644707	0.862299
C147	C	1.049311	0.080412	0.776554
C148	C	1.549311	0.580412	1.276554
H149	H	1.082291	0.030821	0.745142
H150	H	1.582291	0.530821	1.245142
H151	H	1.018851	0.028554	0.818120
H152	H	1.518851	0.528554	1.318120
H153	H	1.080946	0.130526	0.803431
H154	H	1.580946	0.630526	1.303431
C155	C	0.686163	0.479466	-0.068922
C156	C	1.186163	0.979466	0.431078
H157	H	0.645282	0.541391	-0.077824
H158	H	1.145282	1.041391	0.422176
H159	H	0.720047	0.484760	-0.118109
H160	H	1.220047	0.984760	0.381891
H161	H	0.715521	0.491555	-0.022235
H162	H	1.215521	0.991555	0.477765
C163	C	0.829374	0.410992	0.729001
C164	C	1.329374	0.910992	1.229001
H165	H	0.799970	0.455136	0.684107
H166	H	1.299970	0.955136	1.184107
H167	H	0.856610	0.467675	0.754955
H168	H	1.356610	0.967675	1.254955
H169	H	0.794582	0.365602	0.769615
H170	H	1.294582	0.865602	1.269615
H171	H	0.301759	0.499178	-0.071741
H172	H	0.801759	0.999178	0.428259
H173	H	0.182118	0.075165	-0.010694
H174	H	0.682118	0.575165	0.489306
C175	C	0.837978	0.398152	0.547307
C176	C	1.337978	0.898152	1.047307
H177	H	0.805007	0.447756	0.578719
H178	H	1.305007	0.947756	1.078719
H179	H	0.806344	0.348047	0.520428
H180	H	1.306344	0.848047	1.020428
H181	H	0.868441	0.450017	0.505740
H182	H	1.368441	0.950017	1.005740
H183	H	0.816526	0.430352	0.321207
H184	H	1.316526	0.930352	0.821207
H185	H	0.330716	0.093987	-0.013403
H186	H	0.830716	0.593987	0.486597
H187	H	0.557094	0.022076	-0.003066
H188	H	1.057094	0.522076	0.496934
C189	C	0.922188	-0.375654	0.065406
C190	C	1.422188	0.124346	0.565406
H191	H	0.921403	-0.315661	0.101906
H192	H	1.421403	0.184339	0.601906
H193	H	0.966492	-0.430701	0.076434
H194	H	1.466492	0.069299	0.576434
H195	H	0.875216	-0.420869	0.075005
H196	H	1.375216	0.079131	0.575005
C197	C	0.936670	-0.103086	-0.140202
C198	C	1.436670	0.396914	0.359798
H199	H	0.938187	-0.016240	-0.141779
H200	H	1.438187	0.483760	0.358221
H201	H	0.891999	-0.121448	-0.168688
H202	H	1.391999	0.378552	0.331312
H203	H	0.983275	-0.131268	-0.167259
H204	H	1.483275	0.368732	0.332741
