data_functionalizedCrystal
_audit_creation_method	'MofGen! by Chris Wilmer'
_symmetry_space_group_name_H-M	'P1'
_symmetry_Int_Tables_number	1
_symmetry_cell_setting	triclinic
loop_
_symmetry_equiv_pos_as_xyz
  x,y,z
_cell_length_a	19.077236
_cell_length_b	12.759394
_cell_length_c	19.076919
_cell_angle_alpha	87.723910
_cell_angle_beta	90.112677
_cell_angle_gamma	92.307600
loop_
_atom_site_label
_atom_site_type_symbol
_atom_site_fract_x
_atom_site_fract_y
_atom_site_fract_z
Zn1	Zn	1.058334	-0.381376	0.440562
Zn2	Zn	1.062993	-0.549745	0.323064
Zn3	Zn	0.945550	-0.380825	0.318342
Zn4	Zn	0.940814	-0.563761	0.435803
O5	O	1.001923	-0.468927	0.379443
O6	O	1.157285	-0.398075	0.428943
O7	O	1.051346	-0.521241	0.224107
O8	O	0.960543	-0.233876	0.334570
O9	O	1.160708	-0.521775	0.342618
O10	O	1.043405	-0.234281	0.424364
O11	O	0.965061	-0.397137	0.220637
O12	O	0.846589	-0.410728	0.329956
O13	O	0.952472	-0.545664	0.534765
O14	O	0.843109	-0.545130	0.416254
O15	O	1.038813	-0.411667	0.538262
O16	O	1.046754	-0.698626	0.338004
O17	O	0.956989	-0.708924	0.420833
C18	C	0.819352	-0.479391	0.372076
C19	C	0.741247	-0.483893	0.368941
C20	C	0.702769	-0.421716	0.412482
C21	C	0.629381	-0.425941	0.409531
C22	C	0.594472	-0.492350	0.363041
C23	C	0.632956	-0.554530	0.319496
C24	C	0.706343	-0.550299	0.322444
C25	C	0.375181	-0.511895	0.349393
C26	C	0.301789	-0.516125	0.346449
C27	C	0.298219	-0.387534	0.436484
C28	C	0.371607	-0.383313	0.439431
C29	C	0.410085	-0.445488	0.395883
N30	N	0.519458	-0.496674	0.360025
N31	N	0.485098	-0.441159	0.398896
C32	C	1.001882	-0.741896	0.379430
C33	C	1.001928	-0.858671	0.379451
C34	C	1.095545	-1.067316	0.293304
C35	C	1.142296	-1.007057	0.250209
C36	C	1.142260	-0.897336	0.250193
C37	C	1.095466	-0.847873	0.293276
C38	C	1.048715	-0.908133	0.336371
C39	C	1.048757	-1.017855	0.336384
C40	C	0.955176	-0.918931	0.422546
C41	C	0.955214	-1.028651	0.422566
C42	C	0.908382	-0.869468	0.465629
C43	C	0.861633	-0.929727	0.508729
C44	C	0.861672	-1.039454	0.508743
C45	C	0.908463	-1.088910	0.465662
C46	C	1.185206	-0.458423	0.386838
C47	C	1.263311	-0.453947	0.389990
C48	C	0.994595	-0.480290	0.562723
C49	C	0.991472	-0.485132	0.640826
C50	C	1.001983	-0.194892	0.379471
C51	C	1.002008	-0.078114	0.379484
C52	C	1.009263	-0.457530	0.196878
C53	C	1.012522	-0.452384	0.118780
C54	C	1.034956	-0.417645	0.679340
C55	C	1.032013	-0.422192	0.752726
C56	C	0.985589	-0.494231	0.787596
C57	C	0.942100	-0.561721	0.749076
C58	C	0.945040	-0.557169	0.675692
C59	C	0.971973	-0.515322	1.006876
C60	C	0.969038	-0.519871	1.080266
C61	C	1.058950	-0.380340	1.083911
C62	C	1.061889	-0.375798	1.010525
C63	C	1.018397	-0.443284	0.972011
N64	N	0.982581	-0.498882	0.862608
N65	N	1.021402	-0.438627	0.897000
H66	H	0.266883	-0.336912	0.471937
H67	H	1.180326	-0.848273	0.215099
O68	O	1.101119	-0.314825	1.121428
C69	C	1.136468	-0.260031	1.236097
C70	C	1.088661	-0.334277	1.193695
H71	H	1.126423	-0.275747	1.294533
H72	H	1.124719	-0.175108	1.221230
H73	H	1.193697	-0.274322	1.223914
H74	H	1.031416	-0.320081	1.205856
H75	H	1.100471	-0.419175	1.208568
H76	H	0.604528	-0.608597	0.281640
H77	H	0.931232	-0.578537	1.108655
O78	O	0.743797	-0.610754	0.280252
C79	C	0.826996	-0.747245	0.273966
C80	C	0.784633	-0.678834	0.321833
H81	H	0.860011	-0.802320	0.307565
H82	H	0.862864	-0.694722	0.238672
H83	H	0.789430	-0.795391	0.240216
H84	H	0.822147	-0.630679	0.355627
H85	H	0.748757	-0.731415	0.357080
H86	H	0.908502	-1.178250	0.465672
O87	O	1.187776	-1.054938	0.208296
C88	C	1.280584	-1.032646	0.122852
C89	C	1.229106	-0.978292	0.170272
H90	H	1.314022	-0.970702	0.092108
H91	H	1.249877	-1.083608	0.084744
H92	H	1.315997	-1.083879	0.156641
H93	H	1.193680	-0.927005	0.136538
H94	H	1.259856	-0.927393	0.208384
H95	H	1.095585	-1.156655	0.293319
O96	O	0.902906	-0.622769	0.638199
C97	C	0.896750	-0.760053	0.554972
C98	C	0.944550	-0.685805	0.597381
H99	H	0.930400	-0.811052	0.521971
H100	H	0.861409	-0.711843	0.519088
H101	H	0.863047	-0.812284	0.592507
H102	H	0.978296	-0.633559	0.559899
H103	H	0.979844	-0.734079	0.633273
H104	H	1.095435	-0.758533	0.293254
O105	O	0.816216	-0.881797	0.550676
C106	C	0.777263	-0.857508	0.668796
C107	C	0.828725	-0.911882	0.621369
H108	H	0.787368	-0.881795	0.725962
H109	H	0.721098	-0.881663	0.654193
H110	H	0.785257	-0.768743	0.661340
H111	H	0.820795	-1.000656	0.628800
H112	H	0.884871	-0.887642	0.635983
O113	O	1.106874	-0.305727	0.976586
C114	C	1.119623	-0.158101	0.894205
C115	C	1.068609	-0.237427	0.932572
H116	H	1.088705	-0.102846	0.858622
H117	H	1.157741	-0.201986	0.861268
H118	H	1.150193	-0.110697	0.934369
H119	H	1.037991	-0.284853	0.892457
H120	H	1.030537	-0.193480	0.965522
H121	H	0.908354	-0.780127	0.465611
O122	O	1.080071	-0.347572	0.645580
C123	C	1.168966	-0.209695	0.656950
C124	C	1.117895	-0.288991	0.695268
H125	H	1.199571	-0.162326	0.697106
H126	H	1.138126	-0.154405	0.621316
H127	H	1.207046	-0.253710	0.624052
H128	H	1.079803	-0.245063	0.728203
H129	H	1.148781	-0.344278	0.730860
O130	O	0.591927	-0.365700	0.451863
C131	C	0.505333	-0.362458	0.543457
C132	C	0.547689	-0.430807	0.495543
H133	H	0.469567	-0.415070	0.578795
H134	H	0.472212	-0.307445	0.509921
H135	H	0.542906	-0.314250	0.577161
H136	H	0.510167	-0.479080	0.461831
H137	H	0.580819	-0.485753	0.529120
H138	H	0.823602	-1.088511	0.543838
O139	O	1.074150	-0.356521	0.790160
C140	C	1.080309	-0.219288	0.873424
C141	C	1.032509	-0.293597	0.831062
H142	H	1.046662	-0.168410	0.906515
H143	H	1.113978	-0.166950	0.835921
H144	H	1.115683	-0.267554	0.909236
H145	H	0.997092	-0.245415	0.795247
H146	H	0.998888	-0.345938	0.868605
H147	H	0.936570	-0.570289	0.975528
O148	O	0.897064	-0.631668	0.783058
C149	C	0.852657	-0.700478	0.894492
C150	C	0.903704	-0.621227	0.856099
H151	H	0.857997	-0.692049	0.953551
H152	H	0.865553	-0.783620	0.880603
H153	H	0.796588	-0.684385	0.877733
H154	H	0.959791	-0.637224	0.872837
H155	H	0.890747	-0.538112	0.869988
H156	H	0.731186	-0.367641	0.450341
O157	O	0.267989	-0.580661	0.301225
C158	C	0.279269	-0.707808	0.212265
C159	C	0.317637	-0.634750	0.263430
H160	H	0.319391	-0.751575	0.181705
H161	H	0.246391	-0.659242	0.174155
H162	H	0.243610	-0.766753	0.243099
H163	H	0.353331	-0.575792	0.232655
H164	H	0.350470	-0.683384	0.301540
H165	H	0.406501	-0.562524	0.313934
O166	O	0.405406	-0.318701	0.484603
C167	C	0.394117	-0.191633	0.573612
C168	C	0.355752	-0.264741	0.522476
H169	H	0.353989	-0.148004	0.604256
H170	H	0.429738	-0.132582	0.542821
H171	H	0.427034	-0.240254	0.611651
H172	H	0.322797	-0.216206	0.484425
H173	H	0.320174	-0.323796	0.553312
