data_functionalizedCrystal
_audit_creation_method	'MofGen! by Chris Wilmer'
_symmetry_space_group_name_H-M	'P1'
_symmetry_Int_Tables_number	1
_symmetry_cell_setting	triclinic
loop_
_symmetry_equiv_pos_as_xyz
  x,y,z
_cell_length_a	19.121424
_cell_length_b	19.121063
_cell_length_c	21.395355
_cell_angle_alpha	87.579260
_cell_angle_beta	87.591614
_cell_angle_gamma	94.804615
loop_
_atom_site_label
_atom_site_type_symbol
_atom_site_fract_x
_atom_site_fract_y
_atom_site_fract_z
Zn1	Zn	1.063738	-0.234270	0.322825
Zn2	Zn	1.058616	-0.351923	0.222715
Zn3	Zn	0.946064	-0.239295	0.222716
Zn4	Zn	0.941019	-0.356927	0.332105
O5	O	1.002359	-0.295604	0.275090
O6	O	1.161520	-0.245679	0.305661
O7	O	1.043654	-0.336991	0.135039
O8	O	0.965929	-0.140162	0.232112
O9	O	1.157758	-0.332118	0.232111
O10	O	1.052383	-0.136469	0.305662
O11	O	0.960963	-0.254245	0.135039
O12	O	0.846933	-0.259097	0.241111
O13	O	0.957329	-0.340647	0.418551
O14	O	0.843226	-0.345520	0.321479
O15	O	1.047491	-0.250532	0.411733
O16	O	1.038762	-0.451054	0.241109
O17	O	0.952363	-0.454730	0.321478
C18	C	0.819549	-0.303397	0.282302
C19	C	0.741342	-0.306748	0.285403
C20	C	0.298920	-0.327939	0.305085
C21	C	0.372405	-0.324795	0.302160
C22	C	0.411057	-0.278156	0.258918
C23	C	0.376221	-0.234661	0.218594
C24	C	0.302738	-0.237809	0.221516
C25	C	0.633023	-0.266401	0.248001
C26	C	0.706511	-0.263256	0.245083
C27	C	0.702690	-0.353391	0.328649
C28	C	0.629205	-0.356532	0.331570
C29	C	0.594376	-0.313040	0.291244
C30	C	0.486170	-0.274940	0.255929
C31	C	0.519265	-0.316260	0.294231
C32	C	0.994478	-0.478422	0.282314
C33	C	0.991171	-0.556630	0.285422
C34	C	1.034635	-0.591434	0.245071
C35	C	1.031529	-0.664918	0.247998
C36	C	0.984954	-0.703598	0.291274
C37	C	0.941488	-0.668790	0.331630
C38	C	0.944598	-0.595306	0.328705
C39	C	0.973314	-0.925567	0.302199
C40	C	0.970206	-0.999056	0.305119
C41	C	1.060248	-0.995179	0.221487
C42	C	1.063351	-0.921695	0.218564
C43	C	1.019888	-0.886892	0.258922
C44	C	0.981777	-0.778711	0.294265
C45	C	1.023069	-0.811780	0.255933
C46	C	1.185883	-0.287780	0.267851
C47	C	1.264090	-0.284446	0.264766
C48	C	1.002418	-0.295587	0.438511
C49	C	1.002443	-0.295580	0.508151
C50	C	1.010290	-0.112070	0.267852
C51	C	1.013670	-0.033859	0.264767
C52	C	1.002343	-0.295568	0.112302
C53	C	1.002463	-0.295371	0.042649
C54	C	1.049389	-0.248655	0.537315
C55	C	1.049389	-0.248625	0.602749
C56	C	1.002451	-0.295532	0.639017
C57	C	0.955497	-0.342460	0.609846
C58	C	0.955493	-0.342484	0.544413
C59	C	0.994164	-0.359126	0.745415
C60	C	0.994173	-0.359103	0.810847
C61	C	1.002459	-0.295457	0.840835
C62	C	1.010751	-0.231832	0.805383
C63	C	1.010747	-0.231856	0.739950
C64	C	1.002450	-0.295510	0.709969
C65	C	1.049407	-0.248496	0.940950
C66	C	1.049402	-0.248464	1.006386
C67	C	0.955513	-0.342306	1.013481
C68	C	0.955515	-0.342331	0.948047
C69	C	1.002465	-0.295427	0.911785
H70	H	0.737981	-0.225267	0.209875
Br71	Br	0.878285	-0.721283	0.390367
H72	H	1.087619	-0.210461	0.507794
H73	H	0.400760	-0.360213	0.334992
Br74	Br	0.585764	-0.207370	0.193278
Br75	Br	0.255467	-0.178786	0.166790
Br76	Br	0.428677	-0.171367	0.159904
Br77	Br	1.113088	-0.184920	0.642338
Br78	Br	1.113130	-0.184785	1.045966
H79	H	0.909206	-0.566970	0.361564
Br80	Br	0.466807	-0.379561	0.352909
Br81	Br	1.097841	-0.538946	0.186331
Br82	Br	1.090524	-0.712149	0.193236
H83	H	0.987229	-0.410949	0.721011
H84	H	1.060993	-0.780285	0.220700
Br85	Br	0.918571	-0.831211	0.352997
H86	H	0.917289	-0.380491	1.043010
Br87	Br	1.021996	-0.145512	0.691838
Br88	Br	1.126571	-0.869204	0.159838
Br89	Br	1.022003	-0.145449	0.846072
H90	H	1.095634	-1.023523	0.188631
Br91	Br	0.891790	-0.406115	0.659065
Br92	Br	0.906981	-1.051551	0.363844
H93	H	1.087633	-0.210299	0.911424
Br94	Br	0.246471	-0.391234	0.363779
Br95	Br	0.891801	-0.406019	0.908464
H96	H	0.987425	-0.410911	0.839707
H97	H	0.597739	-0.394512	0.366781
Br98	Br	0.749961	-0.412418	0.383370
Br99	Br	0.891776	-0.406172	0.504830
H100	H	0.517648	-0.236965	0.220722
H101	H	0.937923	-0.897237	0.335058
