data_functionalizedCrystal
_audit_creation_method	'MofGen! by Chris Wilmer'
_symmetry_space_group_name_H-M	'P1'
_symmetry_Int_Tables_number	1
_symmetry_cell_setting	triclinic
loop_
_symmetry_equiv_pos_as_xyz
  x,y,z
_cell_length_a	10.654550
_cell_length_b	10.654551
_cell_length_c	9.730223
_cell_angle_alpha	90.001469
_cell_angle_beta	89.996251
_cell_angle_gamma	84.485132
loop_
_atom_site_label
_atom_site_type_symbol
_atom_site_fract_x
_atom_site_fract_y
_atom_site_fract_z
O1	O	1.667835	0.176393	-0.114394
O2	O	1.302356	0.193199	-0.114371
O3	O	1.493498	0.002057	-0.114383
O4	O	1.476693	0.367535	-0.114381
O5	O	1.493496	0.002062	0.114197
O6	O	1.302354	0.193204	0.114209
O7	O	1.667832	0.176398	0.114186
Zn8	Zn	1.485093	0.184802	0.150490
Zn9	Zn	1.485096	0.184795	-0.150674
O10	O	1.476691	0.367540	0.114199
C11	C	1.255557	0.191968	-0.000078
C12	C	1.116114	0.188276	-0.000069
C13	C	1.492263	-0.044739	-0.000096
C14	C	1.488570	-0.184182	-0.000105
C15	C	1.036629	0.300817	-0.000089
C16	C	0.905608	0.297341	-0.000113
C17	C	0.933570	0.068771	-0.000104
C18	C	1.064589	0.072249	-0.000070
C19	C	1.020484	0.432780	-0.000100
C20	C	0.889463	0.429304	-0.000124
C21	C	1.486839	-0.249696	-0.124702
C22	C	1.483359	-0.380717	-0.124695
C23	C	1.483346	-0.380697	0.124515
C24	C	1.486817	-0.249678	0.124507
C25	C	1.486852	-0.249709	-0.268582
C26	C	1.483372	-0.380730	-0.268575
C27	C	1.714632	0.177629	-0.000109
C28	C	1.854075	0.181321	-0.000127
C29	C	1.477926	0.414336	-0.000091
C30	C	1.481619	0.553779	-0.000091
N31	N	1.485100	0.184805	0.356026
N32	N	1.485099	0.184782	-0.356211
C33	C	1.569760	0.100197	0.427947
C34	C	1.569756	0.100181	0.571830
C35	C	1.400430	0.269395	0.571859
C36	C	1.400428	0.269403	0.427979
C37	C	1.667522	0.002506	0.427931
C38	C	1.667519	0.002491	0.571814
H39	H	0.891602	-0.025694	-0.000125
H40	H	1.391776	-0.410298	-0.313227
C41	C	1.229754	0.295036	0.733684
C42	C	1.307368	0.362384	0.650959
H43	H	1.172307	0.352448	0.782520
H44	H	1.184131	0.242353	0.677548
H45	H	1.280188	0.244646	0.797104
H46	H	1.256934	0.412767	0.587532
H47	H	1.352994	0.415088	0.707100
C48	C	1.486468	-0.262826	0.370838
C49	C	1.488726	-0.177664	0.261467
H50	H	1.487658	-0.218366	0.455393
H51	H	1.412005	-0.304979	0.365664
H52	H	1.558223	-0.322877	0.365641
H53	H	1.416965	-0.117618	0.266658
H54	H	1.563196	-0.135490	0.266644
H55	H	1.764031	0.024009	0.610859
H56	H	1.646079	-0.094026	0.388878
C57	C	1.295151	-0.280367	-0.388355
C58	C	1.369690	-0.187221	-0.343145
H59	H	1.222819	-0.241785	-0.434376
H60	H	1.342587	-0.335711	-0.449705
H61	H	1.269478	-0.326761	-0.311636
H62	H	1.395371	-0.140832	-0.419865
H63	H	1.322245	-0.131855	-0.281791
C64	C	0.770477	0.411513	-0.207602
C65	C	0.833118	0.496412	-0.129270
H66	H	0.735689	0.452946	-0.287324
H67	H	0.828476	0.342483	-0.234155
H68	H	0.704770	0.381549	-0.154455
H69	H	0.898832	0.526369	-0.182415
H70	H	0.775114	0.565465	-0.102719
H71	H	1.331481	0.338287	0.369422
C72	C	1.597037	-0.574277	-0.343128
C73	C	1.600539	-0.443238	-0.343137
H74	H	1.669366	-0.612863	-0.389163
H75	H	1.596244	-0.603890	-0.251089
H76	H	1.523132	-0.594945	-0.389146
H77	H	1.674440	-0.422569	-0.297110
H78	H	1.601344	-0.413614	-0.435192
H79	H	1.129302	-0.019393	-0.000034
H80	H	1.056140	0.474797	-0.098787
H81	H	1.481917	-0.434040	0.225970
H82	H	1.578451	-0.220144	-0.313229
C83	C	1.871460	0.070893	0.474836
C84	C	1.790617	0.043788	0.367665
H85	H	1.947455	0.096373	0.437626
H86	H	1.831802	0.136926	0.529780
H87	H	1.889968	-0.002249	0.529771
H88	H	1.772102	0.116933	0.312736
H89	H	1.830283	-0.022251	0.312698
H90	H	1.049814	0.484393	0.095566
H91	H	0.843791	0.469186	0.098561
C92	C	1.628397	-0.114457	0.775780
C93	C	1.626330	-0.120650	0.632062
H94	H	1.602958	-0.190473	0.812973
H95	H	1.711408	-0.103399	0.805913
H96	H	1.572207	-0.045309	0.805920
H97	H	1.682526	-0.189793	0.601921
H98	H	1.543306	-0.131722	0.601916
