data_functionalizedCrystal
_audit_creation_method	'MofGen! by Chris Wilmer'
_symmetry_space_group_name_H-M	'P1'
_symmetry_Int_Tables_number	1
_symmetry_cell_setting	triclinic
loop_
_symmetry_equiv_pos_as_xyz
  x,y,z
_cell_length_a	18.101398
_cell_length_b	13.897448
_cell_length_c	13.897441
_cell_angle_alpha	90.027040
_cell_angle_beta	89.974922
_cell_angle_gamma	89.985164
loop_
_atom_site_label
_atom_site_type_symbol
_atom_site_fract_x
_atom_site_fract_y
_atom_site_fract_z
Zn1	Zn	1.132186	0.384115	-0.545565
Zn2	Zn	1.132105	0.545434	-0.384274
Zn3	Zn	1.008343	0.384141	-0.384265
Zn4	Zn	1.008320	0.545357	-0.545508
O5	O	1.070239	0.464762	-0.464903
O6	O	1.235808	0.405536	-0.524197
O7	O	1.115663	0.524082	-0.249291
O8	O	1.024815	0.249156	-0.405682
O9	O	1.235749	0.524056	-0.405697
O10	O	1.115801	0.249137	-0.524189
O11	O	1.024736	0.405581	-0.249285
O12	O	0.904707	0.405505	-0.405627
O13	O	1.024776	0.523924	-0.680498
O14	O	0.904691	0.523950	-0.524092
O15	O	1.115779	0.405461	-0.680539
O16	O	1.115641	0.680405	-0.405642
O17	O	1.024697	0.680348	-0.524100
C18	C	0.877828	0.464723	-0.464853
C19	C	0.795514	0.464729	-0.464854
C20	C	1.070178	0.715376	-0.464887
C21	C	1.070220	0.822590	-0.464912
C22	C	1.070284	0.464681	-0.716496
C23	C	1.070303	0.464646	-0.823710
C24	C	0.496423	0.464789	-0.464935
C25	C	0.527734	0.389895	-0.390764
C26	C	0.613352	0.390096	-0.390448
C27	C	0.644806	0.464759	-0.464895
C28	C	0.613703	0.566370	-0.437128
C29	C	0.528058	0.565954	-0.436612
C30	C	0.528035	0.438956	-0.567048
C31	C	0.613685	0.436693	-0.566491
C32	C	0.728665	0.464748	-0.464874
C33	C	0.412564	0.464807	-0.464954
C34	C	1.263401	0.464802	-0.464954
C35	C	1.345715	0.464819	-0.464976
C36	C	1.070293	1.018885	-0.464981
C37	C	1.070251	0.909653	-0.464945
C38	C	1.070313	1.213169	-0.464952
C39	C	1.070329	1.105955	-0.465002
C40	C	1.070319	0.464619	-0.910780
C41	C	1.070340	0.464576	-1.020013
C42	C	1.070236	0.464773	-0.214289
C43	C	1.070360	0.464536	-0.107075
H44	H	0.507152	0.314316	-0.407977
O45	O	0.639388	0.592899	-0.349082
C46	C	0.746202	0.626943	-0.251419
C47	C	0.717205	0.596887	-0.351169
H48	H	0.809119	0.630197	-0.253078
H49	H	0.727718	0.572130	-0.195358
H50	H	0.723225	0.700827	-0.231988
H51	H	0.740169	0.523024	-0.370690
H52	H	0.735681	0.651762	-0.407172
H53	H	0.634077	0.623667	-0.489460
H54	H	0.507345	0.623646	-0.488279
O55	O	0.503846	0.503893	-0.633094
C56	C	0.435559	0.529683	-0.779635
C57	C	0.462927	0.456035	-0.704934
H58	H	0.402458	0.491022	-0.837725
H59	H	0.484965	0.567325	-0.813853
H60	H	0.398950	0.585247	-0.742583
H61	H	0.499523	0.400414	-0.741914
H62	H	0.413487	0.418467	-0.670720
H63	H	0.506187	0.406781	-0.315539
O64	O	0.502416	0.352053	-0.597222
C65	C	0.533295	0.190778	-0.646714
C66	C	0.562409	0.289157	-0.612587
H67	H	0.581784	0.139894	-0.659127
H68	H	0.501342	0.200247	-0.716746
H69	H	0.495194	0.159341	-0.589460
H70	H	0.600540	0.320649	-0.669773
H71	H	0.594320	0.279628	-0.542531
H72	H	0.635099	0.487266	-0.624715
O73	O	0.638321	0.300133	-0.411139
C74	C	0.606103	0.136255	-0.449194
C75	C	0.577731	0.238098	-0.425777
H76	H	0.557130	0.086077	-0.461055
H77	H	0.640914	0.108549	-0.386725
H78	H	0.641278	0.138764	-0.517210
H79	H	0.542525	0.235671	-0.357789
H80	H	0.542960	0.265765	-0.488300
H81	H	0.633808	0.407174	-0.314783
O82	O	0.504270	0.592218	-0.347556
C83	C	0.503493	0.714873	-0.224946
C84	C	0.530490	0.685243	-0.325808
H85	H	0.524667	0.790093	-0.207340
H86	H	0.525250	0.661650	-0.169356
H87	H	0.440522	0.714829	-0.223501
H88	H	0.593456	0.685294	-0.327347
H89	H	0.508678	0.738473	-0.381353
O90	O	0.637962	0.347544	-0.591641
C91	C	0.706723	0.252529	-0.705827
C92	C	0.679264	0.353540	-0.677471
H93	H	0.740135	0.257346	-0.775211
H94	H	0.657351	0.202921	-0.717275
H95	H	0.743057	0.222546	-0.645935
H96	H	0.642943	0.383610	-0.737327
H97	H	0.728670	0.403083	-0.665989
