data_functionalizedCrystal
_audit_creation_method	'MofGen! by Chris Wilmer'
_symmetry_space_group_name_H-M	'P1'
_symmetry_Int_Tables_number	1
_symmetry_cell_setting	triclinic
loop_
_symmetry_equiv_pos_as_xyz
  x,y,z
_cell_length_a	6.817900
_cell_length_b	11.168129
_cell_length_c	12.200875
_cell_angle_alpha	92.527662
_cell_angle_beta	107.143593
_cell_angle_gamma	108.508637
loop_
_atom_site_label
_atom_site_type_symbol
_atom_site_fract_x
_atom_site_fract_y
_atom_site_fract_z
V1	V	-4.093963	-0.174992	-0.357671
O2	O	-4.053850	0.008114	-0.350852
O3	O	-4.070360	-0.346695	-0.355235
O4	O	-4.063311	-0.172429	-0.513659
O5	O	-4.060948	-0.167358	-0.191331
V6	V	-4.572078	-0.153075	-0.337774
O7	O	-4.367084	-0.223068	-0.401316
O8	O	-4.749155	-0.104998	-0.294129
O9	O	-4.372475	0.018629	-0.340210
O10	O	-4.729588	-0.336180	-0.344593
O11	O	-4.722490	-0.160708	-0.504114
O12	O	-4.379524	-0.155637	-0.181786
C13	C	-3.920819	-0.388549	-0.349595
C14	C	-3.982926	-0.528919	-0.348643
C15	C	-3.958246	-0.574285	-0.248384
C16	C	-4.022435	-0.719365	-0.247398
C17	C	-3.911826	-0.166254	-0.551679
C18	C	-3.968211	-0.165295	-0.679201
C19	C	-4.071406	-0.163541	-0.912675
C20	C	-4.013973	-0.164517	-0.782753
C21	C	-4.185358	0.060476	-0.345847
C22	C	-4.102491	0.200845	-0.346807
C23	C	-4.194351	-0.161817	-0.143760
C24	C	-4.117203	-0.162769	-0.016237
H25	H	-4.051584	-0.597487	-0.433747
C26	C	-4.119847	-0.735394	-0.073480
C27	C	-3.994043	-0.772099	-0.131510
H28	H	-4.102304	-0.767944	-0.001929
H29	H	-4.269553	-0.768523	-0.120185
H30	H	-4.072971	-0.644815	-0.058953
H31	H	-4.040930	-0.862678	-0.146044
H32	H	-3.844305	-0.738976	-0.084794
H33	H	-3.889606	-0.505717	-0.163280
C34	C	-4.273927	-0.677746	-0.474938
C35	C	-4.130900	-0.746426	-0.462698
H36	H	-4.291472	-0.645195	-0.546488
H37	H	-4.215367	-0.608885	-0.412708
H38	H	-4.411957	-0.732590	-0.473938
H39	H	-3.992865	-0.691579	-0.463689
H40	H	-4.189454	-0.815296	-0.524944
