data_functionalizedCrystal
_audit_creation_method	'MofGen! by Chris Wilmer'
_symmetry_space_group_name_H-M	'P1'
_symmetry_Int_Tables_number	1
_symmetry_cell_setting	triclinic
loop_
_symmetry_equiv_pos_as_xyz
  x,y,z
_cell_length_a	19.121063
_cell_length_b	18.101398
_cell_length_c	18.101389
_cell_angle_alpha	90.024327
_cell_angle_beta	87.580609
_cell_angle_gamma	92.464489
loop_
_atom_site_label
_atom_site_type_symbol
_atom_site_fract_x
_atom_site_fract_y
_atom_site_fract_z
Zn1	Zn	-0.279777	1.119554	0.431404
Zn2	Zn	0.220223	1.619554	0.931404
Zn3	Zn	-0.397213	1.114175	0.312837
Zn4	Zn	0.102787	1.614175	0.812837
Zn5	Zn	-0.279770	0.995713	0.307565
Zn6	Zn	0.220230	1.495713	0.807565
Zn7	Zn	-0.397183	0.990390	0.436624
Zn8	Zn	0.102817	1.490390	0.936624
O9	O	-0.338486	1.054958	0.372107
O10	O	0.161514	1.554958	0.872107
O11	O	-0.295371	1.222473	0.415698
O12	O	0.204629	1.722473	0.915698
O13	O	-0.381644	1.098437	0.208505
O14	O	0.118356	1.598437	0.708505
O15	O	-0.181486	1.016620	0.319601
O16	O	0.318514	1.516620	0.819601
O17	O	-0.381651	1.218521	0.328587
O18	O	0.118349	1.718521	0.828587
O19	O	-0.181491	1.107605	0.410586
O20	O	0.318509	1.607605	0.910586
O21	O	-0.295359	1.011404	0.204632
O22	O	0.204641	1.511404	0.704632
O23	O	-0.295330	0.891375	0.324663
O24	O	0.204670	1.391375	0.824663
O25	O	-0.381599	1.007547	0.539564
O26	O	0.118401	1.507547	1.039564
O27	O	-0.381592	0.887464	0.419482
O28	O	0.118408	1.387464	0.919482
O29	O	-0.295342	1.102443	0.535729
O30	O	0.204658	1.602443	1.035729
O31	O	-0.495494	1.093276	0.333648
O32	O	0.004506	1.593276	0.833648
O33	O	-0.495472	1.002331	0.424594
O34	O	0.004528	1.502331	0.924594
C35	C	-0.338457	0.862549	0.372067
C36	C	0.161543	1.362549	0.872067
C37	C	-0.338462	0.780234	0.372069
C38	C	0.161538	1.280234	0.872069
C39	C	-0.338506	0.481141	0.372133
C40	C	0.161494	0.981141	0.872133
C41	C	-0.283961	0.514915	0.312742
C42	C	0.216039	1.014915	0.812742
C43	C	-0.284107	0.600526	0.312506
C44	C	0.215893	1.100526	0.812506
C45	C	-0.338484	0.629525	0.372101
C46	C	0.161516	1.129525	0.872101
C47	C	-0.412466	0.595084	0.354099
C48	C	0.087534	1.095084	0.854099
C49	C	-0.412163	0.509452	0.353690
C50	C	0.087837	1.009452	0.853690
C51	C	-0.319712	0.513600	0.449688
C52	C	0.180288	1.013600	0.949688
C53	C	-0.318065	0.599325	0.449186
C54	C	0.181935	1.099325	0.949186
C55	C	-0.338476	0.713385	0.372084
C56	C	0.161524	1.213385	0.872084
C57	C	-0.338519	0.397281	0.372148
C58	C	0.161481	0.897281	0.872148
C59	C	-0.520967	1.046662	0.380276
C60	C	-0.020967	1.546662	0.880276
C61	C	-0.599034	1.043181	0.383795
C62	C	-0.099034	1.543181	0.883795
C63	C	-0.635698	1.088932	0.338137
C64	C	-0.135698	1.588932	0.838137
C65	C	-0.709049	1.085662	0.341451
C66	C	-0.209049	1.585662	0.841451
C67	C	-0.745735	1.036637	0.390420
C68	C	-0.245735	1.536637	0.890420
C69	C	-0.709066	0.990884	0.436083
C70	C	-0.209066	1.490884	0.936083
C71	C	-0.635716	0.994158	0.432772
C72	C	-0.135716	1.494158	0.932772
C73	C	-0.967206	1.024385	0.402788
C74	C	-0.467206	1.524385	0.902788
C75	C	-1.040562	1.021113	0.406094
C76	C	-0.540562	1.521113	0.906094
C77	C	-1.040539	1.115892	0.311462
C78	C	-0.540539	1.615892	0.811462
C79	C	-0.967188	1.119159	0.308152
C80	C	-0.467188	1.619159	0.808152
C81	C	-0.930525	1.073408	0.353818
C82	C	-0.430525	1.573408	0.853818
C83	C	-0.820713	1.033292	0.393807
C84	C	-0.320713	1.533292	0.893807
C85	C	-0.855549	1.076758	0.350434
C86	C	-0.355549	1.576758	0.850434
C87	C	-0.155292	1.063306	0.363923
C88	C	0.344708	1.563306	0.863923
C89	C	-0.077226	1.066864	0.360436
C90	C	0.422774	1.566864	0.860436
C91	C	-0.338468	1.055002	0.565269
C92	C	0.161532	1.555002	1.065269
C93	C	-0.338461	1.055020	0.647582
C94	C	0.161539	1.555020	1.147582
C95	C	-0.338515	1.248119	0.372148
C96	C	0.161485	1.748119	0.872148
C97	C	-0.338528	1.330432	0.372165
C98	C	0.161472	1.830432	0.872165
C99	C	-0.338453	1.054959	0.179695
C100	C	0.161547	1.554959	0.679695
C101	C	-0.338263	1.055093	0.097373
C102	C	0.161737	1.555093	0.597373
C103	C	-0.338329	1.055069	0.946668
C104	C	0.161671	1.555069	1.446668
C105	C	-0.392427	0.995174	0.917747
C106	C	0.107573	1.495174	1.417747
C107	C	-0.392678	0.995318	0.832140
C108	C	0.107322	1.495318	1.332140
C109	C	-0.338394	1.055044	0.798288
C110	C	0.161606	1.555044	1.298288
C111	C	-0.358491	1.132167	0.830296
C112	C	0.141509	1.632167	1.330296
C113	C	-0.358846	1.131831	0.915957
C114	C	0.141154	1.631831	1.415957
C115	C	-0.264013	1.038526	0.911754
C116	C	0.235987	1.538526	1.411754
C117	C	-0.264443	1.036771	0.826122
C118	C	0.235557	1.536771	1.326122
C119	C	-0.338430	1.055035	0.714430
C120	C	0.161570	1.555035	1.214430
C121	C	-0.338295	1.055084	1.030526
C122	C	0.161705	1.555084	1.530526
H123	H	-0.296243	0.492814	0.255539
H124	H	0.203757	0.992814	0.755539
H125	H	-0.412240	1.146898	0.811268
H126	H	0.087760	1.646898	1.311268
H127	H	-0.321154	1.177791	0.935005
H128	H	0.178846	1.677791	1.435005
H129	H	-0.605865	0.956904	0.469953
H130	H	-0.105865	1.456904	0.969953
C131	C	-0.306937	1.193882	0.800491
C132	C	0.193063	1.693882	1.300491
N133	N	-0.268106	1.240365	0.778039
N134	N	0.231894	1.740365	1.278039
H135	H	-0.245705	0.983441	0.932518
H136	H	0.254295	1.483441	1.432518
C137	C	-0.209617	0.490462	0.327258
C138	C	0.290383	0.990462	0.827258
N139	N	-0.153620	0.472038	0.338192
N140	N	0.346380	0.972038	0.838192
H141	H	-0.223708	1.082192	0.930220
H142	H	0.276292	1.582192	1.430220
H143	H	-1.070398	1.153140	0.274285
H144	H	-0.570398	1.653140	0.774285
C145	C	-0.244510	0.630103	0.467603
C146	C	0.255490	1.130103	0.967603
N147	N	-0.189107	0.653287	0.481470
N148	N	0.310893	1.153287	0.981470
C149	C	-0.468844	0.620072	0.410897
C150	C	0.031156	1.120072	0.910897
N151	N	-0.511307	0.638898	0.453676
N152	N	-0.011307	1.138898	0.953676
H153	H	-0.738898	1.122917	0.304271
H154	H	-0.238898	1.622917	0.804271
H155	H	-0.354899	0.619076	0.495539
H156	H	0.145101	1.119076	0.995539
H157	H	-1.070430	0.981200	0.445983
H158	H	-0.570430	1.481200	0.945983
H159	H	-0.447763	1.005969	0.814132
H160	H	0.052237	1.505969	1.314132
C161	C	-0.209989	0.632282	0.327224
C162	C	0.290011	1.132282	0.827224
N163	N	-0.154159	0.656197	0.338306
N164	N	0.345841	1.156197	0.838306
C165	C	-0.375685	0.917916	0.802961
C166	C	0.124315	1.417916	1.302961
N167	N	-0.362889	0.859613	0.780987
N168	N	0.137111	1.359613	1.280987
H169	H	-0.937319	1.159079	0.268278
H170	H	-0.437319	1.659079	0.768278
C171	C	-0.815192	1.130682	0.296568
C172	C	-0.315192	1.630682	0.796568
N173	N	-0.784789	1.171295	0.255993
N174	N	-0.284789	1.671295	0.755993
C175	C	-0.432240	1.151297	0.946252
C176	C	0.067760	1.651297	1.446252
N177	N	-0.487522	1.165957	0.969066
N178	N	0.012478	1.665957	1.469066
C179	C	-0.749424	0.936954	0.489948
C180	C	-0.249424	1.436954	0.989948
N181	N	-0.779821	0.896329	0.530516
N182	N	-0.279821	1.396329	1.030516
H183	H	-0.937361	0.987132	0.439969
H184	H	-0.437361	1.487132	0.939969
C185	C	-0.243951	0.960135	0.797705
C186	C	0.256049	1.460135	1.297705
N187	N	-0.228513	0.902417	0.776285
N188	N	0.271487	1.402417	1.276285
C189	C	-0.300894	0.627407	0.234779
C190	C	0.199106	1.127407	0.734779
N191	N	-0.313541	0.647653	0.176232
N192	N	0.186459	1.147653	0.676232
C193	C	-0.433688	0.481448	0.277225
C194	C	0.066312	0.981448	0.777225
N195	N	-0.449898	0.460360	0.219629
N196	N	0.050102	0.960360	0.719629
C197	C	-0.373381	0.483820	0.509416
C198	C	0.126619	0.983820	1.009416
N199	N	-0.413806	0.461384	0.554397
N200	N	0.086194	0.961384	1.054397
H201	H	-0.850591	0.993375	0.433677
H202	H	-0.350591	1.493375	0.933677
C203	C	-0.375607	0.917525	0.944795
C204	C	0.124393	1.417525	1.444795
N205	N	-0.362938	0.859039	0.965173
N206	N	0.137062	1.359039	1.465173
C207	C	-0.466393	1.009413	0.950138
C208	C	0.033607	1.509413	1.450138
N209	N	-0.522105	1.020144	0.974531
N210	N	-0.022105	1.520144	1.474531
H211	H	-0.221996	1.077478	0.802832
H212	H	0.278004	1.577478	1.302832
H213	H	-0.454179	0.486843	0.395241
H214	H	0.045821	0.986843	0.895241
C215	C	-0.434372	0.623022	0.278487
C216	C	0.065628	1.123022	0.778487
N217	N	-0.450867	0.644063	0.221533
N218	N	0.049133	1.144063	0.721533
H219	H	-0.605832	1.128850	0.298258
H220	H	-0.105832	1.628850	0.798258
C221	C	-0.248096	0.487682	0.472661
C222	C	0.251904	0.987682	0.972661
N223	N	-0.194151	0.468162	0.489954
N224	N	0.305849	0.968162	0.989954
