data_functionalizedCrystal
_audit_creation_method	'MofGen! by Chris Wilmer'
_symmetry_space_group_name_H-M	'P1'
_symmetry_Int_Tables_number	1
_symmetry_cell_setting	triclinic
loop_
_symmetry_equiv_pos_as_xyz
  x,y,z
_cell_length_a	16.956984
_cell_length_b	27.732064
_cell_length_c	15.455313
_cell_angle_alpha	92.647044
_cell_angle_beta	87.518126
_cell_angle_gamma	79.351421
loop_
_atom_site_label
_atom_site_type_symbol
_atom_site_fract_x
_atom_site_fract_y
_atom_site_fract_z
O1	O	1.061317	0.017782	-0.072133
O2	O	0.828952	0.034760	-0.072131
O3	O	0.952345	-0.044381	-0.072135
O4	O	0.937925	0.096923	-0.072128
O5	O	0.945289	-0.039873	0.072127
O6	O	0.821896	0.039268	0.072131
O7	O	1.054261	0.022290	0.072130
Cu8	Cu	0.937434	0.031191	0.085303
Cu9	Cu	0.945779	0.025859	-0.085304
O10	O	0.930869	0.101431	0.072134
C11	C	0.795705	0.037884	0.000000
C12	C	0.707153	0.040469	0.000000
C13	C	0.675597	-0.002750	-0.000000
C14	C	0.592392	-0.000318	-0.000006
C15	C	0.540745	0.045332	-0.000006
C16	C	0.572306	0.088553	-0.000008
C17	C	0.655509	0.086121	-0.000008
C18	C	0.290825	0.057370	-0.000011
C19	C	0.207617	0.059799	-0.000009
C20	C	0.227709	-0.029073	-0.000009
C21	C	0.310913	-0.031501	-0.000004
C22	C	0.342467	0.011721	-0.000010
N23	N	0.455696	0.047819	-0.000009
N24	N	0.427515	0.009233	-0.000013
C25	C	0.948512	-0.060123	-0.000007
C26	C	0.947595	-0.113745	-0.000015
C27	C	0.868430	-0.488013	-0.000018
C28	C	0.871807	-0.286472	-0.000019
O29	O	0.810379	-0.253044	-0.000053
N30	N	0.944976	-0.269937	-0.000019
C31	C	1.017307	-0.303791	-0.000025
O32	O	1.079620	-0.285103	-0.000035
C33	C	1.013929	-0.505331	-0.000030
C34	C	0.940755	-0.521863	-0.000021
C35	C	0.795261	-0.504545	-0.000010
C36	C	0.794417	-0.554927	-0.000004
C37	C	0.866742	-0.588777	-0.000008
C38	C	0.939911	-0.572245	-0.000016
C39	C	1.086260	-0.539184	-0.000043
C40	C	1.085409	-0.589572	-0.000046
C41	C	1.012234	-0.606103	-0.000037
C42	C	1.011392	-0.656477	-0.000014
N43	N	0.938223	-0.673012	-0.000014
C44	C	0.865898	-0.639162	-0.000011
C45	C	1.019075	-0.197980	-0.000021
C46	C	1.019920	-0.147595	-0.000018
C47	C	0.874419	-0.130279	-0.000013
C48	C	0.873575	-0.180665	-0.000010
C49	C	0.945906	-0.214514	-0.000021
C50	C	0.864131	-0.744968	0.000001
C51	C	0.863294	-0.795355	0.000009
C52	C	1.008794	-0.812667	-0.000000
C53	C	1.009632	-0.762284	-0.000004
C54	C	0.937294	-0.728435	-0.000007
O55	O	1.072788	-0.689932	0.000010
O56	O	0.803595	-0.657860	-0.000020
C57	C	0.869274	-0.437631	-0.000023
C58	C	0.942442	-0.421099	-0.000031
C59	C	1.014767	-0.454948	-0.000035
C60	C	0.943287	-0.370714	-0.000028
C61	C	0.870962	-0.336864	-0.000025
C62	C	0.797792	-0.353399	-0.000025
C63	C	0.796949	-0.403781	-0.000020
C64	C	1.087937	-0.438413	-0.000035
C65	C	1.088774	-0.388031	-0.000039
C66	C	1.016450	-0.354181	-0.000036
C67	C	1.087508	0.019166	-0.000003
C68	C	1.176061	0.016581	-0.000009
C69	C	0.934701	0.117173	0.000004
C70	C	0.935619	0.170795	0.000006
N71	N	0.931571	0.034940	0.205299
N72	N	0.951648	0.022106	-0.205300
C73	C	0.984011	0.001329	0.250691
C74	C	0.979584	0.004169	0.341499
C75	C	0.922721	0.040622	0.386913
C76	C	0.870276	0.074234	0.341514
C77	C	0.874699	0.071392	0.250708
C78	C	0.903627	0.052876	0.658495
C79	C	0.899209	0.055717	0.749308
C80	C	1.008517	-0.014350	0.749286
C81	C	1.012938	-0.017187	0.658478
C82	C	0.960491	0.016424	0.613087
N83	N	0.918196	0.043526	0.479733
N84	N	0.965012	0.013517	0.520269
H85	H	0.681200	0.121314	-0.000004
O86	O	0.151901	0.109037	-0.000010
H87	H	0.165917	0.128038	-0.058815
H88	H	0.566704	-0.035511	-0.000008
O89	O	0.324854	0.103986	0.000007
H90	H	0.274959	0.136137	0.000025
H91	H	1.146834	-0.465970	-0.000039
O92	O	1.045339	-0.037990	0.201709
H93	H	1.081053	-0.060888	0.248533
O94	O	1.065083	-0.050600	0.798242
H95	H	1.056238	-0.088443	0.780816
O96	O	1.165185	-0.521362	-0.000074
H97	H	1.215328	-0.553372	-0.000094
H98	H	0.852902	0.085404	0.786280
O99	O	0.784367	-0.813187	0.000017
H100	H	0.734220	-0.781181	0.000009
H101	H	0.717644	-0.039923	0.000003
H102	H	1.022284	-0.023200	0.378457
H103	H	0.860923	0.080245	0.621545
H104	H	0.530248	0.125723	-0.000013
O105	O	1.097094	-0.234487	-0.000027
H106	H	1.097314	-0.256021	0.058768
H107	H	1.144311	-0.617131	-0.000059
H108	H	0.805227	-0.717414	-0.000002
O109	O	0.366619	-0.080737	0.000002
H110	H	0.330697	-0.110382	-0.000003
H111	H	0.823973	0.103914	0.378495
O112	O	0.818144	0.107646	0.201742
H113	H	0.777866	0.133475	0.248575
O114	O	1.086800	-0.849180	-0.000002
H115	H	1.073913	-0.886992	-0.000006
O116	O	1.074262	-0.056508	0.609495
H117	H	1.109979	-0.079407	0.656316
H118	H	0.734831	-0.568382	-0.000004
O119	O	0.717243	-0.468041	0.000009
H120	H	0.685062	-0.475400	-0.058780
O121	O	0.193678	-0.075689	-0.000009
H122	H	0.127145	-0.066331	-0.000015
H123	H	0.813990	-0.194120	0.000001
H124	H	0.815529	-0.102710	-0.000007
O125	O	1.098846	-0.129769	-0.000029
H126	H	1.130701	-0.141760	0.058761
O127	O	1.088552	-0.744448	-0.000011
H128	H	1.138702	-0.776453	-0.000016
H129	H	0.738903	-0.325829	-0.000016
O130	O	0.718025	-0.421609	-0.000010
H131	H	0.686181	-0.409626	-0.058811
O132	O	1.167704	-0.370202	-0.000059
H133	H	1.217850	-0.402210	-0.000073
