data_functionalizedCrystal
_audit_creation_method	'MofGen! by Chris Wilmer'
_symmetry_space_group_name_H-M	'P1'
_symmetry_Int_Tables_number	1
_symmetry_cell_setting	triclinic
loop_
_symmetry_equiv_pos_as_xyz
  x,y,z
_cell_length_a	16.120484
_cell_length_b	12.827893
_cell_length_c	12.827885
_cell_angle_alpha	89.980728
_cell_angle_beta	92.863928
_cell_angle_gamma	92.925431
loop_
_atom_site_label
_atom_site_type_symbol
_atom_site_fract_x
_atom_site_fract_y
_atom_site_fract_z
Zn1	Zn	-0.331866	1.576504	-0.611895
Zn2	Zn	0.168134	2.076504	-0.111895
Zn3	Zn	-0.471301	1.567505	-0.445998
Zn4	Zn	0.028699	2.067505	0.054002
Zn5	Zn	-0.331907	1.401742	-0.437171
Zn6	Zn	0.168093	1.901742	0.062829
Zn7	Zn	-0.471239	1.392841	-0.620694
Zn8	Zn	0.028761	1.892841	-0.120694
O9	O	-0.401579	1.484648	-0.528940
O10	O	0.098421	1.984648	-0.028940
O11	O	-0.350372	1.721545	-0.589900
O12	O	0.149628	2.221545	-0.089900
O13	O	-0.452853	1.545475	-0.298594
O14	O	0.047147	2.045475	0.201406
O15	O	-0.215236	1.432416	-0.452972
O16	O	0.284764	1.932416	0.047028
O17	O	-0.452814	1.714934	-0.468017
O18	O	0.047186	2.214934	0.031983
O19	O	-0.215206	1.560812	-0.581341
O20	O	0.284794	2.060812	-0.081341
O21	O	-0.350441	1.423690	-0.292109
O22	O	0.149559	1.923690	0.207891
O23	O	-0.350381	1.254326	-0.461505
O24	O	0.149619	1.754326	0.038495
O25	O	-0.452708	1.417245	-0.765761
O26	O	0.047292	1.917245	-0.265761
O27	O	-0.452748	1.247787	-0.596338
O28	O	0.047252	1.747787	-0.096338
O29	O	-0.350311	1.552181	-0.759296
O30	O	0.149689	2.052181	-0.259296
O31	O	-0.587959	1.536844	-0.476549
O32	O	-0.087959	2.036844	0.023451
O33	O	-0.587913	1.408520	-0.604897
O34	O	-0.087913	1.908520	-0.104897
C35	C	-0.401562	1.213139	-0.528919
C36	C	0.098438	1.713139	-0.028919
C37	C	-0.401576	1.096985	-0.528936
C38	C	0.098424	1.596985	-0.028936
C39	C	-0.452309	1.041987	-0.595563
C40	C	0.047691	1.541987	-0.095563
C41	C	-0.452324	0.921936	-0.595582
C42	C	0.047676	1.421936	-0.095582
C43	C	-0.618186	1.470768	-0.542658
C44	C	-0.118186	1.970768	-0.042658
C45	C	-0.710851	1.464925	-0.548562
C46	C	-0.210851	1.964925	-0.048562
C47	C	-0.880512	1.454265	-0.559362
C48	C	-0.380512	1.954265	-0.059362
C49	C	-0.921804	1.515219	-0.498534
C50	C	-0.421804	2.015219	0.001466
C51	C	-1.016209	1.509287	-0.504544
C52	C	-0.516209	2.009287	-0.004544
C53	C	-0.786099	1.460195	-0.553355
C54	C	-0.286099	1.960195	-0.053355
C55	C	-0.184125	1.498611	-0.515191
C56	C	0.315875	1.998611	-0.015191
C57	C	-0.091460	1.504561	-0.509332
C58	C	0.408540	2.004561	-0.009332
C59	C	-0.401498	1.484724	-0.801505
C60	C	0.098502	1.984724	-0.301505
C61	C	-0.401464	1.484757	-0.917656
C62	C	0.098536	1.984757	-0.417656
C63	C	-0.401595	1.757217	-0.528962
C64	C	0.098405	2.257217	-0.028962
C65	C	-0.401602	1.873370	-0.528971
C66	C	0.098398	2.373370	-0.028971
C67	C	-0.350785	1.551535	-0.966241
C68	C	0.149215	2.051535	-0.466241
C69	C	-0.350749	1.551570	-1.086289
C70	C	0.149251	2.051570	-0.586289
C71	C	-0.401598	1.484636	-0.257431
C72	C	0.098402	1.984636	0.242569
C73	C	-0.401397	1.484821	-0.141266
C74	C	0.098603	1.984821	0.358734
H75	H	-0.495761	0.874651	-0.652621
H76	H	0.004239	1.374651	-0.152621
Br77	Br	-0.862558	1.609620	-0.404211
Br78	Br	-0.362558	2.109620	0.095789
Br79	Br	-0.329208	0.952167	-0.433880
Br80	Br	0.170792	1.452167	0.066120
H81	H	-0.916059	1.397630	-0.615947
H82	H	-0.416059	1.897630	-0.115947
Br83	Br	-0.278484	1.646757	-0.887448
Br84	Br	0.221516	2.146757	-0.387448
H85	H	-0.444791	1.427651	-1.099479
H86	H	0.055209	1.927651	-0.599479
H87	H	-0.444820	1.427605	-0.964935
H88	H	0.055180	1.927605	-0.464935
Br89	Br	-0.278434	1.646874	-1.155942
Br90	Br	0.221566	2.146874	-0.655942
H91	H	-0.495730	1.083779	-0.652594
H92	H	0.004270	1.583779	-0.152594
H93	H	-0.358148	1.055194	-0.471913
H94	H	0.141852	1.555194	0.028087
