data_functionalizedCrystal
_audit_creation_method	'MofGen! by Chris Wilmer'
_symmetry_space_group_name_H-M	'P1'
_symmetry_Int_Tables_number	1
_symmetry_cell_setting	triclinic
loop_
_symmetry_equiv_pos_as_xyz
  x,y,z
_cell_length_a	23.532407
_cell_length_b	23.532407
_cell_length_c	10.868271
_cell_angle_alpha	89.990218
_cell_angle_beta	90.001021
_cell_angle_gamma	82.848678
loop_
_atom_site_label
_atom_site_type_symbol
_atom_site_fract_x
_atom_site_fract_y
_atom_site_fract_z
O1	O	0.755259	0.069135	-0.102181
O2	O	1.088593	0.402468	0.231152
O3	O	1.421926	0.735802	0.564486
O4	O	0.589396	0.079138	-0.102219
O5	O	0.922729	0.412472	0.231114
O6	O	1.256063	0.745805	0.564448
O7	O	0.677329	-0.008795	-0.102176
O8	O	1.010663	0.324538	0.231157
O9	O	1.343996	0.657872	0.564490
O10	O	0.667326	0.157068	-0.102224
O11	O	1.000659	0.490402	0.231110
O12	O	1.333993	0.823735	0.564443
O13	O	0.677322	-0.008798	0.102468
O14	O	1.010655	0.324535	0.435802
O15	O	1.343989	0.657868	0.769135
O16	O	0.589389	0.079135	0.102426
O17	O	0.922722	0.412468	0.435759
O18	O	1.256055	0.745802	0.769092
O19	O	0.755252	0.069132	0.102464
O20	O	1.088585	0.402465	0.435797
O21	O	1.421919	0.735798	0.769130
Zn22	Zn	0.672319	0.074133	0.134936
Zn23	Zn	1.005653	0.407466	0.468270
Zn24	Zn	1.338986	0.740800	0.801603
Zn25	Zn	0.672329	0.074137	-0.134692
Zn26	Zn	1.005662	0.407471	0.198642
Zn27	Zn	1.338995	0.740804	0.531975
O28	O	0.667319	0.157065	0.102421
O29	O	1.000652	0.490398	0.435754
O30	O	1.333986	0.823732	0.769088
C31	C	0.568176	0.078882	0.000099
C32	C	0.901510	0.412215	0.333432
C33	C	1.234843	0.745549	0.666766
C34	C	0.504959	0.078116	0.000085
C35	C	0.838293	0.411449	0.333419
C36	C	1.171626	0.744783	0.666752
C37	C	0.105856	0.125350	0.000128
C38	C	0.439190	0.458683	0.333461
C39	C	0.772523	0.792016	0.666794
C40	C	0.046456	0.124638	0.000135
C41	C	0.379789	0.457971	0.333469
C42	C	0.713123	0.791305	0.666802
O43	O	0.009711	0.168424	0.000168
O44	O	0.343045	0.501757	0.333501
O45	O	0.676378	0.835091	0.666834
N46	N	0.023830	0.072362	0.000148
N47	N	0.357163	0.405695	0.333482
N48	N	0.690496	0.739028	0.666815
C49	C	0.060607	0.020794	0.000166
C50	C	0.393941	0.354127	0.333499
C51	C	0.727274	0.687460	0.666833
O52	O	0.035908	-0.023737	0.000179
O53	O	0.369241	0.309596	0.333512
O54	O	0.702574	0.642930	0.666845
C55	C	0.120006	0.021506	0.000167
C56	C	0.453340	0.354839	0.333500
C57	C	0.786673	0.688172	0.666834
C58	C	0.142629	0.073785	0.000142
C59	C	0.475962	0.407119	0.333475
C60	C	0.809296	0.740452	0.666808
C61	C	0.128479	0.177625	0.000104
C62	C	0.461813	0.510958	0.333437
C63	C	0.795146	0.844292	0.666770
C64	C	0.187876	0.178336	0.000094
C65	C	0.521209	0.511670	0.333427
C66	C	0.854542	0.845003	0.666760
C67	C	0.224649	0.126772	0.000108
C68	C	0.557982	0.460105	0.333441
C69	C	0.891315	0.793439	0.666774
C70	C	0.202025	0.074496	0.000132
C71	C	0.535359	0.407830	0.333465
C72	C	0.868692	0.741163	0.666798
C73	C	0.156783	-0.030062	0.000193
C74	C	0.490116	0.303271	0.333527
C75	C	0.823450	0.636605	0.666860
C76	C	0.216185	-0.029345	0.000195
C77	C	0.549519	0.303988	0.333529
C78	C	0.882852	0.637321	0.666862
C79	C	0.238808	0.022934	0.000170
C80	C	0.572141	0.356268	0.333503
C81	C	0.905475	0.689601	0.666837
C82	C	0.298194	0.023643	0.000136
C83	C	0.631528	0.356977	0.333469
C84	C	0.964861	0.690310	0.666802
N85	N	0.320820	0.075920	0.000123
N86	N	0.654154	0.409253	0.333456
N87	N	0.987487	0.742586	0.666789
C88	C	0.284048	0.127484	0.000109
C89	C	0.617381	0.460817	0.333442
C90	C	0.950714	0.794151	0.666775
C91	C	-0.064135	0.019302	0.000166
C92	C	0.269198	0.352635	0.333499
C93	C	0.602532	0.685969	0.666832
C94	C	-0.123533	0.018589	0.000156
C95	C	0.209800	0.351923	0.333489
C96	C	0.543134	0.685256	0.666823
C97	C	-0.137680	0.122434	0.000128
C98	C	0.195653	0.455768	0.333461
C99	C	0.528986	0.789101	0.666794
C100	C	-0.078281	0.123146	0.000129
C101	C	0.255052	0.456480	0.333462
C102	C	0.588385	0.789813	0.666795
C103	C	-0.041509	0.071578	0.000153
C104	C	0.291824	0.404912	0.333486
C105	C	0.625158	0.738245	0.666820
C106	C	0.408784	0.128974	0.000087
C107	C	0.742118	0.462307	0.333420
C108	C	1.075451	0.795640	0.666753
C109	C	0.468186	0.129680	0.000071
C110	C	0.801520	0.463014	0.333405
C111	C	1.134853	0.796347	0.666738
C112	C	0.482329	0.025836	0.000106
C113	C	0.815662	0.359169	0.333439
C114	C	1.148995	0.692503	0.666773
C115	C	0.422932	0.025129	0.000115
C116	C	0.756265	0.358462	0.333448
C117	C	1.089598	0.691796	0.666781
C118	C	0.386160	0.076702	0.000109
C119	C	0.719494	0.410036	0.333442
C120	C	1.052827	0.743369	0.666776
O121	O	0.334974	-0.020119	0.000108
O122	O	0.668307	0.313214	0.333442
O123	O	1.001640	0.646547	0.666775
O124	O	0.308755	0.172007	0.000112
O125	O	0.642089	0.505340	0.333445
O126	O	0.975422	0.838674	0.666779
C127	C	0.677071	-0.030013	0.000149
C128	C	1.010404	0.303321	0.333482
C129	C	1.343738	0.636654	0.666816
C130	C	0.676305	-0.093230	0.000158
C131	C	1.009638	0.240104	0.333492
C132	C	1.342972	0.573437	0.666825
C133	C	0.723539	-0.492333	0.000102
C134	C	1.056872	-0.158999	0.333435
C135	C	1.390205	0.174334	0.666768
C136	C	0.722827	-0.551733	0.000092
C137	C	1.056160	-0.218400	0.333426
C138	C	1.389494	0.114934	0.666759
O139	O	0.766613	-0.588478	0.000057
O140	O	1.099946	-0.255144	0.333390
O141	O	1.433280	0.078189	0.666723
N142	N	0.670551	-0.574359	0.000081
N143	N	1.003884	-0.241026	0.333414
N144	N	1.337217	0.092307	0.666748
C145	C	0.618983	-0.537582	0.000067
C146	C	0.952316	-0.204248	0.333400
C147	C	1.285649	0.129085	0.666734
O148	O	0.574452	-0.562281	0.000056
O149	O	0.907785	-0.228948	0.333389
O150	O	1.241119	0.104385	0.666722
C151	C	0.619695	-0.478182	0.000068
C152	C	0.953028	-0.144849	0.333401
C153	C	1.286361	0.188484	0.666734
C154	C	0.671974	-0.455560	0.000091
C155	C	1.005308	-0.122227	0.333425
C156	C	1.338641	0.211107	0.666758
C157	C	0.775814	-0.469710	0.000124
C158	C	1.109147	-0.136376	0.333457
C159	C	1.442481	0.196957	0.666791
C160	C	0.776525	-0.410313	0.000136
C161	C	1.109859	-0.076980	0.333469
C162	C	1.443192	0.256353	0.666802
C163	C	0.724961	-0.373540	0.000125
C164	C	1.058294	-0.040207	0.333459
C165	C	1.391628	0.293126	0.666792
C166	C	0.672685	-0.396164	0.000103
C167	C	1.006019	-0.062830	0.333436
C168	C	1.339352	0.270503	0.666770
C169	C	0.568127	-0.441406	0.000045
C170	C	0.901460	-0.108073	0.333378
C171	C	1.234794	0.225261	0.666712
C172	C	0.568844	-0.382004	0.000045
C173	C	0.902177	-0.048670	0.333378
C174	C	1.235510	0.284663	0.666711
C175	C	0.621123	-0.359381	0.000068
C176	C	0.954457	-0.026048	0.333402
C177	C	1.287790	0.307286	0.666735
C178	C	0.621832	-0.299995	0.000105
C179	C	0.955166	0.033339	0.333438
C180	C	1.288499	0.366672	0.666771
N181	N	0.674109	-0.277368	0.000116
N182	N	1.007442	0.055965	0.333449
N183	N	1.340775	0.389298	0.666782
C184	C	0.725673	-0.314141	0.000126
C185	C	1.059006	0.019192	0.333459
C186	C	1.392340	0.352525	0.666793
C187	C	0.617491	-0.662324	0.000063
C188	C	0.950824	-0.328991	0.333397
C189	C	1.284158	0.004343	0.666730
C190	C	0.616778	-0.721722	0.000072
C191	C	0.950112	-0.388389	0.333405
C192	C	1.283445	-0.055055	0.666738
C193	C	0.720623	-0.735869	0.000094
C194	C	1.053957	-0.402536	0.333428
C195	C	1.387290	-0.069203	0.666761
C196	C	0.721335	-0.676470	0.000095
C197	C	1.054669	-0.343137	0.333428
C198	C	1.388002	-0.009804	0.666762
C199	C	0.669767	-0.639698	0.000075
C200	C	1.003101	-0.306365	0.333408
C201	C	1.336434	0.026969	0.666741
C202	C	0.727163	-0.189405	0.000152
C203	C	1.060496	0.143929	0.333485
C204	C	1.393829	0.477262	0.666818
C205	C	0.727869	-0.130003	0.000169
C206	C	1.061203	0.203331	0.333502
C207	C	1.394536	0.536664	0.666835
C208	C	0.624025	-0.115860	0.000139
C209	C	0.957358	0.217473	0.333473
C210	C	1.290692	0.550806	0.666806
C211	C	0.623318	-0.175257	0.000129
C212	C	0.956651	0.158076	0.333462
C213	C	1.289985	0.491409	0.666796
C214	C	0.674891	-0.212029	0.000131
C215	C	1.008225	0.121305	0.333464
C216	C	1.341558	0.454638	0.666798
O217	O	0.578070	-0.263215	0.000135
O218	O	0.911403	0.070118	0.333468
O219	O	1.244736	0.403451	0.666802
O220	O	0.770196	-0.289433	0.000121
O221	O	1.103529	0.043900	0.333455
O222	O	1.436863	0.377233	0.666788
C223	C	0.776472	0.069388	0.000143
C224	C	1.109805	0.402722	0.333476
C225	C	1.443138	0.736055	0.666810
C226	C	0.839689	0.070154	0.000148
C227	C	1.173022	0.403487	0.333482
C228	C	1.506355	0.736821	0.666815
C229	C	0.667577	0.178283	0.000093
C230	C	1.000910	0.511616	0.333426
C231	C	1.334244	0.844949	0.666759
C232	C	0.668343	0.241500	0.000075
C233	C	1.001676	0.574833	0.333409
C234	C	1.335010	0.908167	0.666742
N235	N	0.672317	0.074129	0.318950
N236	N	1.005650	0.407463	0.652284
N237	N	1.338984	0.740796	0.985617
N238	N	0.672336	0.074136	-0.318706
N239	N	1.005669	0.407469	0.014627
N240	N	1.339002	0.740803	0.347961
C241	C	0.672326	0.074136	0.569956
C242	C	1.005659	0.407469	0.903290
C243	C	1.338992	0.740803	1.236623
C244	C	0.672319	0.074134	0.430279
C245	C	1.005652	0.407467	0.763612
C246	C	1.338986	0.740801	1.096946
H247	H	-0.167632	0.164421	0.000122
H248	H	0.165701	0.497754	0.333455
H249	H	0.499035	0.831087	0.666789
Br250	Br	0.545825	-0.752416	0.000069
Br251	Br	0.879158	-0.419083	0.333402
Br252	Br	1.212491	-0.085750	0.666736
Br253	Br	0.547499	-0.612424	0.000046
Br254	Br	0.880832	-0.279090	0.333379
Br255	Br	1.214166	0.054243	0.666713
H256	H	-0.059867	0.165717	0.000115
H257	H	0.273467	0.499050	0.333448
H258	H	0.606800	0.832384	0.666782
Br259	Br	0.497171	-0.472092	0.000008
Br260	Br	0.830505	-0.138759	0.333342
Br261	Br	1.163838	0.194574	0.666675
Br262	Br	0.554048	-0.065943	0.000126
Br263	Br	0.887382	0.267390	0.333459
Br264	Br	1.220715	0.600723	0.666792
H265	H	0.246123	-0.071339	0.000216
H266	H	0.579457	0.261994	0.333549
H267	H	0.912790	0.595327	0.666883
H268	H	-0.034198	-0.022693	0.000175
H269	H	0.299136	0.310640	0.333508
H270	H	0.632469	0.643973	0.666841
Br271	Br	0.798825	-0.099305	0.000202
Br272	Br	1.132158	0.234029	0.333535
Br273	Br	1.465492	0.567362	0.666869
H274	H	-0.141947	-0.023982	0.000157
H275	H	0.191387	0.309352	0.333491
H276	H	0.524720	0.642685	0.666824
H277	H	0.098544	0.219617	0.000097
H278	H	0.431877	0.552951	0.333430
H279	H	0.765211	0.886284	0.666763
Br280	Br	0.845804	-0.519606	0.000137
Br281	Br	1.179137	-0.186272	0.333470
Br282	Br	1.512471	0.147061	0.666804
H283	H	0.378851	0.170970	0.000086
H284	H	0.712185	0.504303	0.333419
H285	H	1.045518	0.837637	0.666753
H286	H	0.138375	-0.072634	0.000215
H287	H	0.471708	0.260700	0.333548
H288	H	0.805041	0.594033	0.666882
H289	H	0.404512	-0.017441	0.000117
H290	H	0.737845	0.315892	0.333451
H291	H	1.071178	0.649225	0.666784
H292	H	0.512280	-0.016146	0.000113
H293	H	0.845613	0.317187	0.333446
H294	H	1.178946	0.650520	0.666780
Br295	Br	0.797156	-0.239299	0.000153
Br296	Br	1.130489	0.094034	0.333487
Br297	Br	1.463823	0.427367	0.666820
Br298	Br	0.218568	0.249291	0.000065
Br299	Br	0.551901	0.582624	0.333398
Br300	Br	0.885235	0.915958	0.666731
H301	H	0.526850	-0.352066	0.000026
H302	H	0.860183	-0.018732	0.333359
H303	H	1.193516	0.314601	0.666693
H304	H	0.580748	-0.193677	0.000144
H305	H	0.914081	0.139656	0.333477
H306	H	1.247414	0.472989	0.666811
H307	H	0.486602	0.172255	0.000050
H308	H	0.819935	0.505588	0.333383
H309	H	1.153269	0.838921	0.666717
H310	H	0.762610	-0.765821	0.000098
H311	H	1.095943	-0.432488	0.333431
H312	H	1.429276	-0.099154	0.666765
Br313	Br	0.792288	-0.645775	0.000130
Br314	Br	1.125622	-0.312441	0.333463
Br315	Br	1.458955	0.020892	0.666796
Br316	Br	0.847480	-0.379621	0.000133
Br317	Br	1.180813	-0.046288	0.333466
Br318	Br	1.514147	0.287046	0.666800
