data_functionalizedCrystal
_audit_creation_method	'MofGen! by Chris Wilmer'
_symmetry_space_group_name_H-M	'P1'
_symmetry_Int_Tables_number	1
_symmetry_cell_setting	triclinic
loop_
_symmetry_equiv_pos_as_xyz
  x,y,z
_cell_length_a	14.044220
_cell_length_b	10.654550
_cell_length_c	9.730223
_cell_angle_alpha	89.999807
_cell_angle_beta	90.004504
_cell_angle_gamma	88.836890
loop_
_atom_site_label
_atom_site_type_symbol
_atom_site_fract_x
_atom_site_fract_y
_atom_site_fract_z
O1	O	1.259693	0.302980	-0.114137
O2	O	0.983652	0.292047	-0.114172
O3	O	1.128019	0.115412	-0.114149
O4	O	1.115326	0.479615	-0.114161
O5	O	1.128018	0.115417	0.114431
O6	O	0.983650	0.292052	0.114408
O7	O	1.259691	0.302985	0.114443
Zn8	Zn	1.121671	0.297519	0.150717
Zn9	Zn	1.121673	0.297513	-0.150447
O10	O	1.115324	0.479620	0.114419
C11	C	1.127086	0.068523	0.000139
C12	C	1.124298	-0.071201	0.000134
C13	C	0.948305	0.287263	0.000113
C14	C	0.842986	0.272988	0.000100
C15	C	1.209299	-0.142144	0.000149
C16	C	1.206673	-0.273429	0.000139
C17	C	1.034038	-0.262814	0.000105
C18	C	1.036664	-0.131532	0.000105
C19	C	1.296932	-0.081813	0.000178
C20	C	1.381941	-0.152758	0.000195
C21	C	1.379315	-0.284043	0.000185
C22	C	1.291681	-0.344383	0.000158
C23	C	0.650153	0.246889	0.000128
C24	C	0.593185	0.348137	0.000130
C25	C	0.485886	0.333615	0.000146
C26	C	0.757461	0.261409	0.000112
C27	C	1.295038	0.307769	0.000154
C28	C	1.400358	0.322044	0.000159
C29	C	1.116257	0.526509	0.000128
C30	C	1.119045	0.666233	0.000124
N31	N	1.121676	0.297523	0.356254
N32	N	1.121675	0.297500	-0.355983
C33	C	1.185618	0.219340	0.428190
C34	C	1.185616	0.219324	0.572073
C35	C	1.057725	0.375686	0.572070
C36	C	1.057724	0.375694	0.428190
C37	C	1.249570	0.141169	0.356253
C38	C	1.313518	0.062980	0.428190
C39	C	1.313516	0.062965	0.572073
C40	C	1.249565	0.141138	0.644019
H41	H	1.453289	-0.103620	0.000182
H42	H	0.967449	-0.073767	0.000095
O43	O	1.375588	-0.013163	0.641802
C44	C	1.359348	-0.139312	0.606653
H45	H	1.322786	-0.143274	0.502182
H46	H	1.311882	-0.183516	0.687620
C47	C	1.500021	-0.207181	0.728320
C48	C	1.455122	-0.212047	0.600002
H49	H	1.559098	-0.252050	0.724223
H50	H	1.510960	-0.122193	0.752006
H51	H	1.460456	-0.244015	0.795780
H52	H	1.494682	-0.175199	0.532549
H53	H	1.444191	-0.297031	0.576304
O54	O	0.631286	0.464469	0.000023
C55	C	0.731490	0.453264	0.000028
H56	H	0.753954	0.357731	-0.043210
H57	H	0.759107	0.462422	0.109676
C58	C	0.745707	0.675039	-0.036570
C59	C	0.773298	0.557708	-0.089687
H60	H	0.771497	0.739467	-0.091904
H61	H	0.678197	0.682590	-0.036568
H62	H	0.768723	0.682652	0.054803
H63	H	0.750272	0.550090	-0.181050
H64	H	0.840805	0.550158	-0.089706
H65	H	0.618342	0.149310	0.000139
H66	H	1.249580	0.141177	0.239097
O67	O	0.995651	0.451800	0.641802
C68	C	1.011895	0.577954	0.606679
H69	H	1.048455	0.581931	0.502216
H70	H	1.059364	0.622142	0.687664
C71	C	0.871226	0.645810	0.728331
C72	C	0.916122	0.650695	0.600022
H73	H	0.812150	0.690684	0.724230
H74	H	0.860284	0.560819	0.751999
H75	H	0.910793	0.682632	0.795805
H76	H	0.876561	0.613861	0.532554
H77	H	0.927056	0.735682	0.576342
O78	O	1.375566	-0.012886	0.358095
C79	C	1.361826	0.003842	0.215676
H80	H	1.327072	0.099787	0.196012
H81	H	1.313741	-0.072623	0.174873
C82	C	1.501404	-0.122042	0.165936
C83	C	1.458726	-0.004196	0.141784
H84	H	1.561175	-0.127005	0.120354
H85	H	1.510659	-0.133316	0.261887
H86	H	1.461323	-0.185749	0.131934
H87	H	1.498800	0.059508	0.175802
H88	H	1.449479	0.007089	0.045838
H89	H	1.249562	0.141109	0.761179
O90	O	0.995744	0.451708	0.358148
C91	C	1.047047	0.534996	0.274954
H92	H	1.120946	0.493319	0.253413
H93	H	1.054092	0.628608	0.330404
C94	C	0.902982	0.607004	0.164731
C95	C	0.993743	0.555812	0.138264
H96	H	0.870101	0.619850	0.080415
H97	H	0.868417	0.550896	0.220783
H98	H	0.908866	0.685009	0.210942
H99	H	0.987858	0.477801	0.092069
H100	H	1.028306	0.611908	0.082200
H101	H	1.448532	-0.341802	0.000184
H102	H	1.299080	0.025085	0.000190
H103	H	1.289550	-0.451284	0.000135
H104	H	0.962690	-0.311954	0.000086
