data_functionalizedCrystal
_audit_creation_method	'MofGen! by Chris Wilmer'
_symmetry_space_group_name_H-M	'P1'
_symmetry_Int_Tables_number	1
_symmetry_cell_setting	triclinic
loop_
_symmetry_equiv_pos_as_xyz
  x,y,z
_cell_length_a	15.297475
_cell_length_b	19.805405
_cell_length_c	19.805399
_cell_angle_alpha	90.029301
_cell_angle_beta	80.316777
_cell_angle_gamma	99.671656
loop_
_atom_site_label
_atom_site_type_symbol
_atom_site_fract_x
_atom_site_fract_y
_atom_site_fract_z
Zn1	Zn	1.379175	0.448830	-0.561444
Zn2	Zn	1.379062	0.562004	-0.448238
Zn3	Zn	1.228313	0.429230	-0.428718
Zn4	Zn	1.228265	0.542358	-0.541842
O5	O	1.303704	0.495605	-0.495060
O6	O	1.505406	0.480267	-0.562799
O7	O	1.359038	0.544410	-0.350928
O8	O	1.248393	0.337122	-0.446358
O9	O	1.505322	0.563415	-0.479627
O10	O	1.359231	0.351522	-0.543872
O11	O	1.248283	0.446862	-0.336587
O12	O	1.102061	0.427812	-0.427351
O13	O	1.248310	0.529932	-0.639162
O14	O	1.102025	0.510926	-0.510463
O15	O	1.359184	0.461217	-0.653564
O16	O	1.358990	0.654105	-0.460620
O17	O	1.248200	0.639671	-0.529391
C18	C	1.069309	0.465111	-0.464662
C19	C	0.969034	0.452082	-0.451674
C20	C	1.303602	0.671448	-0.495014
C21	C	1.303641	0.746685	-0.495028
C22	C	1.303754	0.495569	-0.671610
C23	C	1.303776	0.495554	-0.746844
C24	C	0.686401	0.588732	-0.587891
C25	C	0.780615	0.600979	-0.600093
C26	C	0.827724	0.563755	-0.562989
C27	C	0.780611	0.514284	-0.513682
C28	C	0.686389	0.502040	-0.501476
C29	C	0.827711	0.477063	-0.476574
C30	C	0.780598	0.427591	-0.427267
C31	C	0.686385	0.415349	-0.415063
C32	C	0.639276	0.452572	-0.452166
C33	C	0.921934	0.489307	-0.488780
C34	C	0.921921	0.402615	-0.402365
C35	C	0.827708	0.390368	-0.390163
C36	C	1.539013	0.526219	-0.525577
C37	C	1.639288	0.539265	-0.538582
C38	C	1.303830	0.319079	-0.495124
C39	C	1.303884	0.243854	-0.495152
C40	C	1.361386	0.789530	-0.459272
C41	C	1.361424	0.860223	-0.459292
C42	C	1.303713	0.888070	-0.495064
C43	C	1.245966	0.845220	-0.530825
C44	C	1.245933	0.774529	-0.530809
C45	C	1.246099	1.130311	-0.530892
C46	C	1.246134	1.201007	-0.530904
C47	C	1.361590	1.216005	-0.459375
C48	C	1.361557	1.145314	-0.459359
C49	C	1.303814	1.102470	-0.495122
C50	C	1.303774	1.025817	-0.495102
C51	C	1.303747	0.964722	-0.495082
C52	C	1.361509	0.459772	-0.789689
C53	C	1.361518	0.459754	-0.860378
C54	C	1.303798	0.495521	-0.888223
C55	C	1.246059	0.531304	-0.845373
C56	C	1.246046	0.531318	-0.774684
C57	C	1.246110	0.531248	-1.130453
C58	C	1.246129	0.531232	-1.201148
C59	C	1.361582	0.459683	-1.216147
C60	C	1.361569	0.459697	-1.145458
C61	C	1.303827	0.495477	-1.102614
C62	C	1.303816	0.495495	-1.025964
C63	C	1.303813	0.495507	-0.964872
C64	C	1.303705	0.495599	-0.319204
C65	C	1.303858	0.495447	-0.243993
H66	H	0.960284	0.529587	-0.528927
H67	H	0.562559	0.442602	-0.442236
F68	F	1.423035	0.421601	-1.261751
F69	F	1.423006	0.421632	-1.115829
H70	H	1.199024	0.560447	-0.739799
F71	F	1.184692	0.569303	-1.230780
F72	F	1.184642	1.084722	-0.568954
H73	H	0.818967	0.641260	-0.640237
H74	H	1.408514	0.430649	-0.767024
H75	H	0.904437	0.573729	-0.572927
H76	H	0.789335	0.350088	-0.350017
F77	F	1.422997	0.421697	-0.905978
H78	H	0.648036	0.619038	-0.618091
F79	F	0.636246	0.362702	-0.362581
H80	H	0.960278	0.372305	-0.372151
H81	H	1.408377	0.766862	-0.430138
H82	H	1.199105	0.560393	-1.095579
F83	F	1.422886	0.905819	-0.421237
F84	F	1.422980	1.115681	-0.421284
H85	H	1.199140	1.223677	-0.560040
F86	F	1.423050	1.261608	-0.421316
F87	F	1.184550	0.874859	-0.568902
H88	H	1.198912	0.739645	-0.559926
H89	H	1.199059	0.560424	-0.868049
