data_functionalizedCrystal
_audit_creation_method	'MofGen! by Chris Wilmer'
_symmetry_space_group_name_H-M	'P1'
_symmetry_Int_Tables_number	1
_symmetry_cell_setting	triclinic
loop_
_symmetry_equiv_pos_as_xyz
  x,y,z
_cell_length_a	16.992694
_cell_length_b	27.732048
_cell_length_c	15.455313
_cell_angle_alpha	92.637842
_cell_angle_beta	87.142206
_cell_angle_gamma	86.655439
loop_
_atom_site_label
_atom_site_type_symbol
_atom_site_fract_x
_atom_site_fract_y
_atom_site_fract_z
O1	O	1.042606	0.100467	-0.072038
O2	O	1.542606	0.600467	0.427962
O3	O	0.814336	0.099342	-0.072063
O4	O	1.314336	0.599342	0.427937
O5	O	0.935560	0.029815	-0.072033
O6	O	1.435560	0.529815	0.427967
O7	O	0.921382	0.169994	-0.072068
O8	O	1.421382	0.669994	0.427932
O9	O	0.928628	0.033773	0.072227
O10	O	1.428628	0.533773	0.572227
O11	O	0.807404	0.103301	0.072197
O12	O	1.307404	0.603301	0.572197
O13	O	1.035674	0.104425	0.072223
O14	O	1.535674	0.604425	0.572223
Cu15	Cu	0.920906	0.104225	0.085382
Cu16	Cu	1.420906	0.604225	0.585382
Cu17	Cu	0.929104	0.099543	-0.085222
Cu18	Cu	1.429104	0.599543	0.414778
O19	O	0.914450	0.173953	0.072193
O20	O	1.414450	0.673953	0.572193
C21	C	0.781675	0.099876	0.000064
C22	C	1.281675	0.599876	0.500064
C23	C	0.694684	0.095561	0.000055
C24	C	1.194684	0.595561	0.500055
C25	C	0.643939	0.137184	0.000046
C26	C	1.143939	0.637184	0.500046
C27	C	0.562201	0.133129	0.000059
C28	C	1.062201	0.633129	0.500059
C29	C	0.531209	0.087449	0.000075
C30	C	1.031209	0.587449	0.500075
C31	C	0.581960	0.045823	0.000087
C32	C	1.081960	0.545823	0.500087
C33	C	0.663696	0.049880	0.000080
C34	C	1.163696	0.549880	0.500080
C35	C	0.287814	0.070637	0.000102
C36	C	0.787814	0.570637	0.500102
C37	C	0.206071	0.066583	0.000106
C38	C	0.706071	0.566583	0.500106
C39	C	0.186318	0.153889	0.000080
C40	C	0.686318	0.653889	0.500080
C41	C	0.268057	0.157941	0.000068
C42	C	0.768057	0.657941	0.500068
C43	C	0.318800	0.116315	0.000084
C44	C	0.818800	0.616315	0.500084
N45	N	0.447660	0.083302	0.000086
N46	N	0.947660	0.583302	0.500086
N47	N	0.402347	0.120463	0.000080
N48	N	0.902347	0.620463	0.500080
C49	C	0.931796	0.013774	0.000100
C50	C	1.431796	0.513774	0.500100
C51	C	0.930900	-0.039919	0.000107
C52	C	1.430900	0.460081	0.500107
C53	C	0.996895	-0.375882	0.000069
C54	C	1.496895	0.124118	0.500069
C55	C	0.993571	-0.577686	0.000057
C56	C	1.493571	-0.077686	0.500057
O57	O	1.053919	-0.606333	0.000026
O58	O	1.553919	-0.106333	0.500026
N59	N	0.921689	-0.599917	0.000050
N60	N	1.421689	-0.099917	0.500050
C61	C	0.850634	-0.571695	0.000040
C62	C	1.350634	-0.071695	0.500040
O63	O	0.789419	-0.595235	0.000025
O64	O	1.289419	-0.095235	0.500025
C65	C	0.853960	-0.369892	0.000046
C66	C	1.353960	0.130108	0.500046
C67	C	0.925846	-0.347663	0.000062
C68	C	1.425846	0.152337	0.500062
C69	C	1.068775	-0.353652	0.000084
C70	C	1.568775	0.146348	0.500084
C71	C	1.069605	-0.303204	0.000092
C72	C	1.569605	0.196796	0.500092
C73	C	0.998556	-0.274986	0.000085
C74	C	1.498556	0.225014	0.500085
C75	C	0.926676	-0.297215	0.000070
C76	C	1.426676	0.202785	0.500070
C77	C	0.782906	-0.341671	0.000030
C78	C	1.282906	0.158329	0.500030
C79	C	0.783744	-0.291218	0.000030
C80	C	1.283744	0.208782	0.500030
C81	C	0.855630	-0.268989	0.000046
C82	C	1.355630	0.231011	0.500046
C83	C	0.856457	-0.218549	0.000071
C84	C	1.356457	0.281451	0.500071
N85	N	0.928338	-0.196317	0.000078
N86	N	1.428338	0.303683	0.500078
C87	C	0.999387	-0.224535	0.000085
C88	C	1.499387	0.275465	0.500085
C89	C	0.848893	-0.677644	0.000038
C90	C	1.348893	-0.177644	0.500038
C91	C	0.848061	-0.728095	0.000038
C92	C	1.348061	-0.228095	0.500038
C93	C	0.990998	-0.734082	0.000054
C94	C	1.490998	-0.234082	0.500054
C95	C	0.991829	-0.683630	0.000060
C96	C	1.491829	-0.183630	0.500060
C97	C	0.920775	-0.655413	0.000046
C98	C	1.420775	-0.155413	0.500046
C99	C	1.001126	-0.118591	0.000102
C100	C	1.501126	0.381409	0.500102
C101	C	1.001949	-0.068138	0.000114
C102	C	1.501949	0.431862	0.500114
C103	C	0.859013	-0.062155	0.000094
C104	C	1.359013	0.437845	0.500094
C105	C	0.858189	-0.112603	0.000087
C106	C	1.358189	0.387397	0.500087
C107	C	0.929251	-0.140820	0.000088
C108	C	1.429251	0.359180	0.500088
O109	O	0.796141	-0.189872	0.000092
O110	O	1.296141	0.310128	0.500092
O111	O	1.060595	-0.200987	0.000081
O112	O	1.560595	0.299013	0.500081
C113	C	0.996065	-0.426330	0.000062
C114	C	1.496065	0.073670	0.500062
C115	C	0.924185	-0.448559	0.000047
C116	C	1.424185	0.051441	0.500047
C117	C	0.853136	-0.420341	0.000039
C118	C	1.353136	0.079659	0.500039
C119	C	0.923354	-0.499010	0.000047
C120	C	1.423354	0.000990	0.500047
C121	C	0.994403	-0.527228	0.000054
C122	C	1.494403	-0.027228	0.500054
C123	C	1.066285	-0.504997	0.000061
C124	C	1.566285	-0.004997	0.500061
C125	C	1.067115	-0.454549	0.000069
C126	C	1.567115	0.045451	0.500069
C127	C	0.781254	-0.442573	0.000032
C128	C	1.281254	0.057427	0.500032
C129	C	0.780430	-0.493021	0.000025
C130	C	1.280430	0.006979	0.500025
C131	C	0.851480	-0.521240	0.000033
C132	C	1.351480	-0.021240	0.500033
C133	C	1.068335	0.103892	0.000094
C134	C	1.568335	0.603892	0.500094
C135	C	1.155327	0.108206	0.000097
C136	C	1.655327	0.608206	0.500097
C137	C	0.918214	0.189993	0.000058
C138	C	1.418214	0.689993	0.500058
C139	C	0.919111	0.243687	0.000046
C140	C	1.419111	0.743687	0.500046
N141	N	0.915146	0.107517	0.205376
N142	N	1.415146	0.607517	0.705376
N143	N	0.934870	0.096247	-0.205217
N144	N	1.434870	0.596247	0.294783
C145	C	0.966664	0.077992	0.250783
C146	C	1.466664	0.577992	0.750783
C147	C	0.962315	0.080486	0.341590
C148	C	1.462315	0.580486	0.841590
C149	C	0.906451	0.112509	0.386988
C150	C	1.406451	0.612509	0.886988
C151	C	0.854928	0.142036	0.341575
C152	C	1.354928	0.642036	0.841575
C153	C	0.859274	0.139538	0.250770
C154	C	1.359274	0.639538	0.750770
C155	C	0.887693	0.123276	0.658565
C156	C	1.387693	0.623276	1.158565
C157	C	0.883353	0.125773	0.749377
C158	C	1.383353	0.625773	1.249377
C159	C	0.990739	0.064222	0.749385
C160	C	1.490739	0.564222	1.249385
C161	C	0.995083	0.061730	0.658578
C162	C	1.495083	0.561730	1.158578
C163	C	0.943557	0.091254	0.613173
C164	C	1.443557	0.591254	1.113173
N165	N	0.902006	0.115061	0.479807
N166	N	1.402006	0.615061	0.979807
N167	N	0.947999	0.088700	0.520356
N168	N	1.447999	0.588700	1.020356
H169	H	0.293284	0.195138	0.000044
H170	H	0.793284	0.695138	0.500044
N171	N	1.046308	0.032380	0.798361
N172	N	1.546308	0.532380	1.298361
H173	H	1.014820	0.010855	0.836051
H174	H	1.514820	0.510855	1.336051
H175	H	1.082345	0.011746	0.755768
H176	H	1.582345	0.511746	1.255768
N177	N	0.677360	0.186455	0.000034
N178	N	1.177360	0.686455	0.500034
H179	H	0.736840	0.182710	0.000030
H180	H	1.236840	0.682710	0.500030
H181	H	0.661319	0.203340	-0.053447
H182	H	1.161319	0.703340	0.446553
N183	N	0.172644	0.017312	0.000146
N184	N	0.672644	0.517312	0.500146
H185	H	0.113165	0.021061	0.000148
H186	H	0.613165	0.521061	0.500148
H187	H	0.193804	-0.002517	-0.053321
H188	H	0.693804	0.497483	0.446679
H189	H	1.124135	-0.527981	0.000070
H190	H	1.624135	-0.027981	0.500070
N191	N	0.131589	0.198783	0.000063
N192	N	0.631589	0.698783	0.500063
H193	H	0.075107	0.189284	0.000070
H194	H	0.575107	0.689284	0.500070
H195	H	0.139002	0.220022	0.053536
H196	H	0.639002	0.720022	0.553536
H197	H	0.329120	0.036742	0.000117
H198	H	0.829120	0.536742	0.500117
H199	H	0.705012	0.015986	0.000088
H200	H	1.205012	0.515986	0.500088
N201	N	0.548537	-0.003446	0.000119
N202	N	1.048537	0.496554	0.500119
H203	H	0.489057	0.000299	0.000121
H204	H	0.989057	0.500299	0.500121
H205	H	0.569700	-0.023270	-0.053353
H206	H	1.069700	0.476730	0.446647
N207	N	1.079485	-0.044162	0.000136
N208	N	1.579485	0.455838	0.500136
H209	H	1.124367	-0.069697	0.000137
H210	H	1.624367	0.430303	0.500137
H211	H	1.085516	-0.024821	-0.053339
H212	H	1.585516	0.475179	0.446661
N213	N	0.794668	0.176572	0.390535
N214	N	1.294668	0.676572	0.890535
H215	H	0.799733	0.173675	0.454951
H216	H	1.299733	0.673675	0.954951
H217	H	0.804061	0.210763	0.374645
H218	H	1.304061	0.710763	0.874645
N219	N	1.077769	-0.149020	0.000104
N220	N	1.577769	0.350980	0.500104
H221	H	1.123425	-0.127276	0.000116
H222	H	1.623425	0.372724	0.500116
H223	H	1.077970	-0.168620	0.053582
H224	H	1.577970	0.331380	0.553582
H225	H	0.520888	0.167023	0.000050
H226	H	1.020888	0.667023	0.500050
H227	H	1.050364	-0.665535	0.000072
H228	H	1.550364	-0.165535	0.500072
H229	H	0.817322	0.163580	0.213800
H230	H	1.317322	0.663580	0.713800
H231	H	1.128142	-0.285110	0.000102
H232	H	1.628142	0.214890	0.500102
H233	H	1.126636	-0.376623	0.000087
H234	H	1.626636	0.123377	0.500087
N235	N	0.823087	0.160308	0.798342
N236	N	1.323087	0.660308	1.298342
H237	H	0.828157	0.157410	0.862756
H238	H	1.328157	0.657410	1.362756
H239	H	0.832474	0.194500	0.782454
H240	H	1.332474	0.694500	1.282454
H241	H	1.048849	-0.757066	0.000060
H242	H	1.548849	-0.257066	0.500060
N243	N	0.770527	-0.752067	0.000045
N244	N	1.270527	-0.252067	0.500045
H245	H	0.725648	-0.726531	0.000041
H246	H	1.225648	-0.226531	0.500041
H247	H	0.769631	-0.774333	-0.053433
H248	H	1.269631	-0.274333	0.446567
H249	H	0.791029	-0.654674	0.000027
H250	H	1.291029	-0.154674	0.500027
N251	N	0.705371	-0.365639	0.000024
N252	N	1.205371	0.134361	0.500024
H253	H	0.660496	-0.340100	0.000018
H254	H	1.160496	0.159900	0.500018
H255	H	0.704475	-0.387903	-0.053455
H256	H	1.204475	0.112097	0.446545
N257	N	0.782386	-0.031713	0.000074
N258	N	1.282386	0.468287	0.500074
H259	H	0.736718	-0.053448	0.000062
H260	H	1.236718	0.446552	0.500062
H261	H	0.777045	-0.009186	0.053552
H262	H	1.277045	0.490814	0.553552
H263	H	0.725882	-0.268245	0.000017
H264	H	1.225882	0.231755	0.500017
N265	N	0.780657	-0.136583	0.000082
N266	N	1.280657	0.363417	0.500082
H267	H	0.735774	-0.111049	0.000081
H268	H	1.235774	0.388951	0.500081
H269	H	0.779770	-0.158843	-0.053405
H270	H	1.279770	0.341157	0.446595
N271	N	1.026922	0.043455	0.201821
N272	N	1.526922	0.543455	0.701821
H273	H	1.058897	0.025129	0.244369
H274	H	1.558897	0.525129	0.744369
H275	H	0.998984	0.019890	0.164159
H276	H	1.498984	0.519890	0.664159
H277	H	1.125651	-0.436454	0.000081
H278	H	1.625651	0.063546	0.500081
H279	H	1.004264	0.056444	0.378560
H280	H	1.504264	0.556444	0.878560
N281	N	0.702890	-0.516993	0.000022
N282	N	1.202890	-0.016993	0.500022
H283	H	0.658011	-0.491457	0.000019
H284	H	1.158011	0.008543	0.500019
H285	H	0.701998	-0.539256	-0.053460
H286	H	1.201998	-0.039256	0.446540
H287	H	0.723396	-0.419602	0.000024
H288	H	1.223396	0.080398	0.500024
N289	N	1.055337	0.027191	0.609615
N290	N	1.555337	0.527191	1.109615
H291	H	1.087314	0.008864	0.652159
H292	H	1.587314	0.508864	1.152159
H293	H	1.027398	0.003627	0.571952
H294	H	1.527398	0.503627	1.071952
H295	H	0.845740	0.147317	0.621603
H296	H	1.345740	0.647317	1.121603
