data_functionalizedCrystal
_audit_creation_method	'MofGen! by Chris Wilmer'
_symmetry_space_group_name_H-M	'P1'
_symmetry_Int_Tables_number	1
_symmetry_cell_setting	triclinic
loop_
_symmetry_equiv_pos_as_xyz
  x,y,z
_cell_length_a	17.699083
_cell_length_b	15.944493
_cell_length_c	16.776229
_cell_angle_alpha	89.999222
_cell_angle_beta	89.998886
_cell_angle_gamma	83.379029
loop_
_atom_site_label
_atom_site_type_symbol
_atom_site_fract_x
_atom_site_fract_y
_atom_site_fract_z
O1	O	1.004240	0.106225	-0.066166
O2	O	1.504240	0.606225	0.433834
O3	O	0.783883	0.120045	-0.066191
O4	O	1.283883	0.620045	0.433809
O5	O	0.900102	-0.009156	-0.066184
O6	O	1.400102	0.490844	0.433816
O7	O	0.888021	0.235426	-0.066173
O8	O	1.388021	0.735426	0.433827
O9	O	0.900086	-0.009164	0.066392
O10	O	1.400086	0.490836	0.566392
O11	O	0.783867	0.120037	0.066386
O12	O	1.283867	0.620037	0.566386
O13	O	1.004225	0.106217	0.066410
O14	O	1.504225	0.606217	0.566410
Zn15	Zn	0.894043	0.113126	0.087447
Zn16	Zn	1.394043	0.613126	0.587447
Zn17	Zn	0.894064	0.113136	-0.087228
Zn18	Zn	1.394064	0.613136	0.412772
O19	O	0.888006	0.235418	0.066404
O20	O	1.388006	0.735418	0.566404
C21	C	0.755677	0.119546	0.000094
C22	C	1.255677	0.619546	0.500094
C23	C	0.671657	0.118060	0.000084
C24	C	1.171657	0.618060	0.500084
C25	C	0.899600	-0.040454	0.000100
C26	C	1.399600	0.459546	0.500100
C27	C	0.898120	-0.133699	0.000090
C28	C	1.398120	0.366301	0.500090
C29	C	0.623151	0.193898	0.000088
C30	C	1.123151	0.693898	0.500088
C31	C	0.544206	0.192497	0.000098
C32	C	1.044206	0.692497	0.500098
C33	C	0.513767	0.115257	0.000099
C34	C	1.013767	0.615257	0.500099
C35	C	0.562279	0.039413	0.000097
C36	C	1.062279	0.539413	0.500097
C37	C	0.641223	0.040815	0.000093
C38	C	1.141223	0.540815	0.500093
C39	C	0.243908	0.033759	0.000117
C40	C	0.743908	0.533759	0.500117
C41	C	0.164958	0.032363	0.000119
C42	C	0.664958	0.532363	0.500119
C43	C	0.146890	0.185441	0.000122
C44	C	0.646890	0.685441	0.500122
C45	C	0.225834	0.186843	0.000118
C46	C	0.725834	0.686843	0.500118
C47	C	0.274339	0.110999	0.000120
C48	C	0.774339	0.610999	0.500120
C49	C	0.359940	0.112519	0.000111
C50	C	0.859940	0.612519	0.500111
C51	C	0.428167	0.113737	0.000103
C52	C	0.928167	0.613737	0.500103
C53	C	0.966529	-0.369603	0.000113
C54	C	1.466529	0.130397	0.500113
C55	C	0.929646	-0.420090	-0.065258
C56	C	1.429646	0.079910	0.434742
C57	C	0.895377	-0.304415	0.000100
C58	C	1.395377	0.195585	0.500100
C59	C	0.929614	-0.420073	0.065452
C60	C	1.429614	0.079927	0.565452
C61	C	0.892733	-0.469319	0.000112
C62	C	1.392733	0.030681	0.500112
C63	C	0.858513	-0.353673	-0.065325
C64	C	1.358513	0.146327	0.434675
C65	C	0.858492	-0.353653	0.065443
C66	C	1.358492	0.146347	0.565443
C67	C	0.821557	-0.404107	0.000057
C68	C	1.321557	0.095893	0.500057
C69	C	0.896902	-0.209418	0.000092
C70	C	1.396902	0.290582	0.500092
C71	C	0.891202	-0.564312	0.000114
C72	C	1.391202	-0.064312	0.500114
C73	C	1.032430	0.106716	0.000124
C74	C	1.532430	0.606716	0.500124
C75	C	1.116450	0.108202	0.000129
C76	C	1.616450	0.608202	0.500129
C77	C	0.888507	0.266715	0.000117
C78	C	1.388507	0.766715	0.500117
C79	C	0.889987	0.359961	0.000122
C80	C	1.389987	0.859961	0.500122
N81	N	0.894035	0.113118	0.206659
N82	N	1.394035	0.613118	0.706659
N83	N	0.894078	0.113137	-0.206439
N84	N	1.394078	0.613137	0.293561
C85	C	0.945513	0.055931	0.248379
C86	C	1.445513	0.555931	0.748379
C87	C	0.945517	0.055931	0.331831
C88	C	1.445517	0.555931	0.831831
C89	C	0.894046	0.113121	0.373562
C90	C	1.394046	0.613121	0.873562
C91	C	0.842564	0.170311	0.331836
C92	C	1.342564	0.670311	0.831836
C93	C	0.842556	0.170307	0.248385
C94	C	1.342556	0.670307	0.748385
C95	C	0.842591	0.170327	0.668383
C96	C	1.342591	0.670327	1.168383
C97	C	0.842604	0.170328	0.751839
C98	C	1.342604	0.670328	1.251839
C99	C	0.945551	0.055951	0.751829
C100	C	1.445551	0.555951	1.251829
C101	C	0.945544	0.055947	0.668378
C102	C	1.445544	0.555947	1.168378
C103	C	0.894059	0.113133	0.626659
C104	C	1.394059	0.613133	1.126659
C105	C	0.894054	0.113132	0.536171
C106	C	1.394054	0.613132	1.036171
C107	C	0.894054	0.113127	0.464048
C108	C	1.394054	0.613127	0.964048
H109	H	0.504715	0.254253	0.000100
H110	H	1.004715	0.754253	0.500100
H111	H	0.680716	-0.020940	0.000089
H112	H	1.180716	0.479060	0.500089
H113	H	0.250612	0.249739	0.000114
H114	H	0.750612	0.749739	0.500114
H115	H	0.959701	-0.449095	-0.120518
H116	H	1.459701	0.050905	0.379482
H117	H	0.987429	0.009364	0.214407
H118	H	1.487429	0.509364	0.714407
O119	O	0.740306	-0.424407	0.000022
O120	O	1.240306	0.075593	0.500022
H121	H	0.710959	-0.397554	-0.054288
H122	H	1.210959	0.102446	0.445712
O123	O	0.969423	-0.458467	0.138662
O124	O	1.469423	0.041533	0.638662
H125	H	0.940440	-0.430819	0.192858
H126	H	1.440440	0.069181	0.692858
H127	H	0.828463	-0.324633	0.120705
H128	H	1.328463	0.175367	0.620705
H129	H	0.987433	0.009364	0.365799
H130	H	1.487433	0.509364	0.865799
O131	O	1.047705	-0.349051	0.000037
O132	O	1.547705	0.150949	0.500037
H133	H	1.077075	-0.375785	-0.054307
H134	H	1.577075	0.124215	0.445693
O135	O	1.001053	-0.005741	0.623366
O136	O	1.501053	0.494259	1.123366
H137	H	1.036845	-0.045514	0.666397
H138	H	1.536845	0.454486	1.166397
H139	H	0.140178	-0.030539	0.000120
H140	H	0.640178	0.469461	0.500120
O141	O	1.001079	-0.005740	0.796823
O142	O	1.501079	0.494260	1.296823
H143	H	0.992434	0.003860	0.861863
H144	H	1.492434	0.503860	1.361863
H145	H	0.828488	-0.324787	-0.120650
H146	H	1.328488	0.175213	0.379350
O147	O	0.529456	-0.043899	0.000101
O148	O	1.029456	0.456101	0.500101
H149	H	0.466412	-0.032135	0.000097
H150	H	0.966412	0.467865	0.500097
O151	O	0.787099	0.232028	0.796854
O152	O	1.287099	0.732028	1.296854
H153	H	0.751296	0.271793	0.753826
H154	H	1.251296	0.771793	1.253826
O155	O	0.787070	0.232011	0.623390
O156	O	1.287070	0.732011	1.123390
H157	H	0.751290	0.271785	0.666431
H158	H	1.251290	0.771785	1.166431
H159	H	0.800637	0.216873	0.214417
H160	H	1.300637	0.716873	0.714417
O161	O	0.655980	0.277208	0.000095
O162	O	1.155980	0.777208	0.500095
H163	H	0.608985	0.329707	0.000110
H164	H	1.108985	0.829707	0.500110
O165	O	0.094575	0.267249	0.000137
O166	O	0.594575	0.767249	0.500137
H167	H	0.034566	0.253303	0.000152
H168	H	0.534566	0.753303	0.500152
H169	H	0.800652	0.216874	0.365818
H170	H	1.300652	0.716874	0.865818
H171	H	0.283391	-0.027998	0.000120
H172	H	0.783391	0.472002	0.500120
