data_functionalizedCrystal
_audit_creation_method	'MofGen! by Chris Wilmer'
_symmetry_space_group_name_H-M	'P1'
_symmetry_Int_Tables_number	1
_symmetry_cell_setting	triclinic
loop_
_symmetry_equiv_pos_as_xyz
  x,y,z
_cell_length_a	14.971482
_cell_length_b	14.971506
_cell_length_c	14.048226
_cell_angle_alpha	89.995147
_cell_angle_beta	89.994098
_cell_angle_gamma	83.617498
loop_
_atom_site_label
_atom_site_type_symbol
_atom_site_fract_x
_atom_site_fract_y
_atom_site_fract_z
O1	O	1.186958	0.116548	-0.079145
O2	O	0.926558	0.130510	-0.079149
O3	O	1.063728	-0.006670	-0.079144
O4	O	1.049788	0.253728	-0.079150
O5	O	1.063711	-0.006678	0.079177
O6	O	0.926541	0.130502	0.079172
O7	O	1.186941	0.116540	0.079176
Zn8	Zn	1.056739	0.123519	0.104311
Zn9	Zn	1.056760	0.123530	-0.104284
O10	O	1.049771	0.253720	0.079172
C11	C	0.893225	0.129882	0.000011
C12	C	0.793927	0.128013	0.000009
C13	C	0.747274	0.127128	0.086311
C14	C	0.653975	0.125357	0.086312
C15	C	0.607331	0.124477	0.000010
C16	C	0.653992	0.125360	-0.086298
C17	C	0.747289	0.127124	-0.086298
C18	C	0.459530	0.121684	-0.086292
C19	C	0.366225	0.119922	-0.086292
C20	C	0.366215	0.119917	0.086319
C21	C	0.459513	0.121682	0.086319
C22	C	0.506167	0.122565	0.000010
C23	C	1.063093	-0.039999	0.000015
C24	C	1.061215	-0.139295	0.000011
C25	C	1.134633	-0.577578	0.000012
C26	C	1.136391	-0.484278	0.000019
C27	C	1.055798	-0.427057	0.000014
C28	C	0.973443	-0.463140	0.000013
C29	C	0.971686	-0.556439	0.000013
C30	C	0.977110	-0.268677	0.000009
C31	C	0.978866	-0.175372	0.000007
C32	C	1.141814	-0.196516	0.000014
C33	C	1.140057	-0.289815	0.000015
C34	C	1.057702	-0.325892	0.000012
C35	C	1.220274	0.117167	0.000014
C36	C	1.319571	0.119037	0.000010
C37	C	1.050406	0.287048	0.000010
C38	C	1.052284	0.386344	0.000008
N39	N	1.056730	0.123512	0.246672
N40	N	1.056776	0.123531	-0.246645
C41	C	1.117488	0.062793	0.296492
C42	C	1.117494	0.062793	0.396150
C43	C	1.056746	0.123515	0.445985
C44	C	0.995982	0.184237	0.396158
C45	C	0.995972	0.184232	0.296502
C46	C	0.996007	0.184243	0.603873
C47	C	0.996018	0.184249	0.703535
C48	C	1.117530	0.062804	0.703520
C49	C	1.117520	0.062799	0.603864
C50	C	1.056757	0.123522	0.554044
H51	H	0.785244	0.127851	0.156589
Cl52	Cl	0.307588	0.118814	-0.194788
Cl53	Cl	1.241375	-0.361749	0.000014
Cl54	Cl	0.919607	0.260571	0.458807
Cl55	Cl	0.595327	0.124261	0.194812
Cl56	Cl	0.877548	-0.103438	0.000012
H57	H	1.200261	-0.624162	0.000008
H58	H	0.946524	0.233687	0.563312
Cl59	Cl	0.919643	0.260588	0.766178
Cl60	Cl	0.595358	0.124221	-0.194793
H61	H	0.946496	0.233674	0.255940
Cl62	Cl	0.518179	0.122793	-0.194797
H63	H	1.208871	-0.167139	-0.000071
Cl64	Cl	0.873575	-0.314030	0.000010
H65	H	0.904629	-0.585811	0.000018
Cl66	Cl	0.518149	0.122797	0.194814
H67	H	0.328225	0.119198	0.156595
Cl68	Cl	0.872126	-0.391205	0.000011
H69	H	0.785273	0.127846	-0.156574
Cl70	Cl	1.239920	-0.438928	-0.000001
Cl71	Cl	1.193867	-0.013545	0.233852
Cl72	Cl	1.193876	-0.013541	0.458783
Cl73	Cl	1.193894	-0.013532	0.541211
Cl74	Cl	1.193918	-0.013530	0.766154
