data_functionalizedCrystal
_audit_creation_method	'MofGen! by Chris Wilmer'
_symmetry_space_group_name_H-M	'P1'
_symmetry_Int_Tables_number	1
_symmetry_cell_setting	triclinic
loop_
_symmetry_equiv_pos_as_xyz
  x,y,z
_cell_length_a	18.215407
_cell_length_b	16.625545
_cell_length_c	18.215399
_cell_angle_alpha	90.026887
_cell_angle_beta	90.017368
_cell_angle_gamma	90.023001
loop_
_atom_site_label
_atom_site_type_symbol
_atom_site_fract_x
_atom_site_fract_y
_atom_site_fract_z
Zn1	Zn	1.125068	-0.321065	0.416073
Zn2	Zn	1.458402	0.012268	0.749406
Zn3	Zn	1.791735	0.345602	1.082740
Zn4	Zn	1.124975	-0.455905	0.293009
Zn5	Zn	1.458309	-0.122572	0.626342
Zn6	Zn	1.791642	0.210761	0.959676
Zn7	Zn	1.002001	-0.321084	0.293026
Zn8	Zn	1.335334	0.012249	0.626359
Zn9	Zn	1.668668	0.345582	0.959692
Zn10	Zn	1.001965	-0.455853	0.416039
Zn11	Zn	1.335299	-0.122520	0.749372
Zn12	Zn	1.668632	0.210813	1.082706
O13	O	1.063503	-0.388477	0.354537
O14	O	1.396836	-0.055144	0.687870
O15	O	1.730169	0.278190	1.021203
O16	O	1.228040	-0.338965	0.399755
O17	O	1.561374	-0.005632	0.733089
O18	O	1.894707	0.327701	1.066422
O19	O	1.108639	-0.438051	0.190027
O20	O	1.441972	-0.104717	0.523360
O21	O	1.775305	0.228616	0.856693
O22	O	1.018380	-0.208249	0.309369
O23	O	1.351713	0.125084	0.642702
O24	O	1.685047	0.458417	0.976036
O25	O	1.227972	-0.438032	0.309341
O26	O	1.561305	-0.104699	0.642674
O27	O	1.894639	0.228635	0.976007
O28	O	1.108797	-0.208235	0.399772
O29	O	1.442130	0.125098	0.733105
O30	O	1.775464	0.458432	1.066438
O31	O	1.018290	-0.338998	0.190039
O32	O	1.351623	-0.005665	0.523372
O33	O	1.684956	0.327668	0.856706
O34	O	0.899012	-0.338948	0.309336
O35	O	1.232345	-0.005615	0.642670
O36	O	1.565679	0.327719	0.976003
O37	O	1.018319	-0.437943	0.519028
O38	O	1.351653	-0.104610	0.852361
O39	O	1.684986	0.228723	1.185695
O40	O	0.898986	-0.437962	0.399714
O41	O	1.232319	-0.104629	0.733047
O42	O	1.565653	0.228705	1.066381
O43	O	1.108763	-0.338915	0.519053
O44	O	1.442096	-0.005582	0.852386
O45	O	1.775429	0.327752	1.185719
O46	O	1.108604	-0.568731	0.309308
O47	O	1.441937	-0.235397	0.642641
O48	O	1.775271	0.097936	0.975975
O49	O	1.018229	-0.568693	0.399698
O50	O	1.351563	-0.235359	0.733031
O51	O	1.684896	0.097974	1.066364
C52	C	0.872296	-0.388452	0.354524
C53	C	1.205630	-0.055119	0.687857
C54	C	1.538963	0.278215	1.021190
C55	C	0.790497	-0.388461	0.354536
C56	C	1.123831	-0.055128	0.687869
C57	C	1.457164	0.278206	1.021202
C58	C	0.602338	-0.336983	0.401689
C59	C	0.935671	-0.003650	0.735022
C60	C	1.269005	0.329684	1.068356
C61	C	0.525479	-0.336990	0.401691
C62	C	0.858813	-0.003657	0.735025
C63	C	1.192146	0.329677	1.068358
C64	C	0.525419	-0.439993	0.307397
C65	C	0.858752	-0.106660	0.640731
C66	C	1.192086	0.226673	0.974064
C67	C	0.602276	-0.439982	0.307392
C68	C	0.935610	-0.106648	0.640725
C69	C	1.268943	0.226685	0.974058
C70	C	0.640734	-0.388478	0.354542
C71	C	0.974067	-0.055145	0.687875
C72	C	1.307401	0.278189	1.021208
C73	C	0.487018	-0.388496	0.354550
C74	C	0.820351	-0.055163	0.687883
C75	C	1.153685	0.278170	1.021216
C76	C	0.403684	-0.388504	0.354552
C77	C	0.737018	-0.055171	0.687885
C78	C	1.070351	0.278162	1.021219
C79	C	0.724073	-0.388469	0.354539
C80	C	1.057406	-0.055135	0.687872
C81	C	1.390740	0.278198	1.021205
C82	C	1.063423	-0.597968	0.354513
C83	C	1.396756	-0.264634	0.687847
C84	C	1.730089	0.068699	1.021180
C85	C	1.063456	-0.687589	0.354528
C86	C	1.396789	-0.354256	0.687861
C87	C	1.730122	-0.020922	1.021195
C88	C	1.063484	-0.760371	0.354543
C89	C	1.396818	-0.427038	0.687876
C90	C	1.730151	-0.093705	1.021209
C91	C	1.063527	-0.851680	0.354559
C92	C	1.396861	-0.518346	0.687892
C93	C	1.730194	-0.185013	1.021226
C94	C	1.063565	-0.924456	0.354568
C95	C	1.396899	-0.591123	0.687902
C96	C	1.730232	-0.257789	1.021235
C97	C	1.063607	-1.015770	0.354583
C98	C	1.396941	-0.682437	0.687917
C99	C	1.730274	-0.349104	1.021250
C100	C	1.255455	-0.388502	0.354550
C101	C	1.588789	-0.055169	0.687883
C102	C	1.922122	0.278164	1.021217
C103	C	1.337254	-0.388513	0.354556
C104	C	1.670588	-0.055180	0.687889
C105	C	2.003921	0.278153	1.021222
C106	C	1.063547	-0.388421	0.546490
C107	C	1.396881	-0.055088	0.879823
C108	C	1.730214	0.278245	1.213156
C109	C	1.063567	-0.388398	0.628289
C110	C	1.396900	-0.055064	0.961622
C111	C	1.730233	0.278269	1.294955
C112	C	1.063603	-0.178168	0.354576
C113	C	1.396936	0.155165	0.687909
C114	C	1.730270	0.488499	1.021243
C115	C	1.063646	-0.088547	0.354593
C116	C	1.396979	0.244787	0.687926
C117	C	1.730312	0.578120	1.021259
C118	C	1.063500	-0.388474	0.163330
C119	C	1.396834	-0.055141	0.496664
C120	C	1.730167	0.278193	0.829997
C121	C	1.063624	-0.388271	0.081532
C122	C	1.396957	-0.054937	0.414865
C123	C	1.730290	0.278396	0.748199
C124	C	1.110677	-0.336785	0.816497
C125	C	1.444011	-0.003452	1.149830
C126	C	1.777344	0.329881	1.483163
C127	C	1.110686	-0.336762	0.893355
C128	C	1.444019	-0.003428	1.226689
C129	C	1.777353	0.329905	1.560022
C130	C	1.016508	-0.439885	0.893318
C131	C	1.349841	-0.106552	1.226652
C132	C	1.683175	0.226781	1.559985
C133	C	1.016496	-0.439904	0.816461
C134	C	1.349829	-0.106571	1.149794
C135	C	1.683163	0.226763	1.483128
C136	C	1.063585	-0.388355	0.778052
C137	C	1.396918	-0.055022	1.111385
C138	C	1.730251	0.278311	1.444719
C139	C	1.063606	-0.388313	0.931768
C140	C	1.396939	-0.054980	1.265102
C141	C	1.730272	0.278354	1.598435
C142	C	1.063615	-0.388288	1.015102
C143	C	1.396948	-0.054955	1.348435
C144	C	1.730281	0.278379	1.681769
C145	C	1.063575	-0.388379	0.694713
C146	C	1.396908	-0.055046	1.028046
C147	C	1.730242	0.278288	1.361380
H148	H	0.633539	-0.481916	0.268995
H149	H	0.966873	-0.148582	0.602328
H150	H	1.300206	0.184751	0.935661
Br151	Br	0.654528	-0.267084	0.465676
Br152	Br	0.987862	0.066250	0.799009
Br153	Br	1.321195	0.399583	1.132342
H154	H	0.494221	-0.295057	0.440082
H155	H	0.827554	0.038277	0.773416
H156	H	1.160888	0.371610	1.106749
H157	H	0.494098	-0.481927	0.269010
H158	H	0.827431	-0.148593	0.602343
H159	H	1.160764	0.184740	0.935677
H160	H	0.978171	-0.481856	0.924600
H161	H	1.311505	-0.148523	1.257934
H162	H	1.644838	0.184811	1.591267
H163	H	1.149018	-0.294809	0.785226
H164	H	1.482351	0.038525	1.118560
H165	H	1.815685	0.371858	1.451893
H166	H	0.978142	-0.481898	0.785159
H167	H	1.311476	-0.148565	1.118492
H168	H	1.644809	0.184769	1.451825
H169	H	1.149032	-0.294767	0.924654
H170	H	1.482366	0.038566	1.257987
H171	H	1.815699	0.371900	1.591320
