data_functionalizedCrystal
_audit_creation_method	'MofGen! by Chris Wilmer'
_symmetry_space_group_name_H-M	'P1'
_symmetry_Int_Tables_number	1
_symmetry_cell_setting	triclinic
loop_
_symmetry_equiv_pos_as_xyz
  x,y,z
_cell_length_a	12.759401
_cell_length_b	12.759399
_cell_length_c	12.759393
_cell_angle_alpha	89.968539
_cell_angle_beta	89.979527
_cell_angle_gamma	90.016641
loop_
_atom_site_label
_atom_site_type_symbol
_atom_site_fract_x
_atom_site_fract_y
_atom_site_fract_z
Zn1	Zn	1.606259	-0.418167	-0.594017
Zn2	Zn	1.606150	-0.593884	-0.418336
Zn3	Zn	1.430559	-0.418225	-0.418352
Zn4	Zn	1.430548	-0.593809	-0.593973
O5	O	1.518379	-0.506021	-0.506170
O6	O	1.753265	-0.441484	-0.570724
O7	O	1.582816	-0.570638	-0.271317
O8	O	1.453916	-0.271196	-0.441680
O9	O	1.753185	-0.570582	-0.441652
O10	O	1.583002	-0.271154	-0.570740
O11	O	1.453810	-0.441582	-0.271329
O12	O	1.283536	-0.441509	-0.441637
O13	O	1.453897	-0.570454	-0.741000
O14	O	1.283528	-0.570510	-0.570665
O15	O	1.582991	-0.441411	-0.741032
O16	O	1.582806	-0.740895	-0.441609
O17	O	1.453792	-0.740840	-0.570649
C18	C	1.245411	-0.506008	-0.506149
C19	C	1.128635	-0.506028	-0.506165
C20	C	1.518314	-0.778989	-0.506146
C21	C	1.518383	-0.895765	-0.506171
C22	C	1.073796	-0.573301	-0.573244
C23	C	0.964072	-0.573305	-0.573265
C24	C	0.964035	-0.438760	-0.439118
C25	C	1.073757	-0.438752	-0.439104
C26	C	1.585637	-0.950621	-0.439056
C27	C	1.585705	-1.060345	-0.439091
C28	C	1.451255	-1.060348	-0.573359
C29	C	1.451193	-0.950626	-0.573328
C30	C	1.709713	-1.210221	-0.401704
C31	C	1.776958	-1.265080	-0.334573
C32	C	1.793122	-1.229541	-0.232062
C33	C	1.742025	-1.139143	-0.196662
C34	C	1.674772	-1.084290	-0.263788
C35	C	1.658629	-1.119828	-0.366313
C36	C	1.327183	-0.800748	-0.610705
C37	C	1.259924	-0.745892	-0.677826
C38	C	1.243750	-0.781430	-0.780338
C39	C	1.294828	-0.871830	-0.815734
C40	C	1.362087	-0.926686	-0.748613
C41	C	1.378263	-0.891141	-0.646102
C42	C	1.792412	-0.506035	-0.506191
C43	C	1.909189	-0.506041	-0.506200
C44	C	1.518455	-0.505918	-0.780203
C45	C	1.518488	-0.505874	-0.896980
C46	C	1.518472	-0.231988	-0.506217
C47	C	1.518512	-0.115211	-0.506237
C48	C	1.585733	-0.438630	-1.061592
C49	C	1.585713	-0.438671	-0.951867
C50	C	1.451285	-0.573047	-0.951822
C51	C	1.451311	-0.573011	-1.061544
C52	C	1.518363	-0.506049	-0.233202
C53	C	1.518534	-0.505797	-0.116426
H54	H	1.118474	-0.628080	-0.627852
Cl55	Cl	1.347518	-0.756062	-0.481828
Cl56	Cl	1.142702	-0.354166	-0.354775
H57	H	1.188978	-0.736757	-0.834986
H58	H	1.633172	-1.010689	-0.234967
Cl59	Cl	0.895137	-0.657879	-0.657599
H60	H	0.919340	-0.383988	-0.384518
H61	H	1.640349	-0.905956	-0.384374
Cl62	Cl	1.762337	-1.094479	-0.067779
Cl63	Cl	1.274497	-0.916511	-0.944610
H64	H	1.696570	-1.239159	-0.485179
H65	H	1.640470	-0.383899	-1.106273
H66	H	1.847876	-1.274215	-0.177404
Cl67	Cl	1.366832	-0.657463	-1.130485
Cl68	Cl	1.366789	-1.129323	-0.657777
Cl69	Cl	1.426302	-1.040334	-0.793113
Cl70	Cl	1.841192	-1.378718	-0.379075
Cl71	Cl	1.670199	-0.354231	-0.882937
H72	H	1.218340	-0.672278	-0.649000
H73	H	1.396554	-0.627770	-0.907124
