data_functionalizedCrystal
_audit_creation_method	'MofGen! by Chris Wilmer'
_symmetry_space_group_name_H-M	'P1'
_symmetry_Int_Tables_number	1
_symmetry_cell_setting	triclinic
loop_
_symmetry_equiv_pos_as_xyz
  x,y,z
_cell_length_a	10.723022
_cell_length_b	9.616153
_cell_length_c	10.723024
_cell_angle_alpha	89.998938
_cell_angle_beta	95.532452
_cell_angle_gamma	90.006580
loop_
_atom_site_label
_atom_site_type_symbol
_atom_site_fract_x
_atom_site_fract_y
_atom_site_fract_z
O1	O	1.657194	0.115633	-0.175013
O2	O	1.294042	0.115637	-0.191768
O3	O	1.483995	0.115630	-0.001814
O4	O	1.467241	0.115640	-0.364967
O5	O	1.483969	-0.115662	-0.001818
O6	O	1.294016	-0.115654	-0.191772
O7	O	1.657168	-0.115659	-0.175017
Zn8	Zn	1.475588	-0.152379	-0.183395
Zn9	Zn	1.475622	0.152357	-0.183390
O10	O	1.467215	-0.115651	-0.364971
C11	C	1.247529	-0.000008	-0.190551
C12	C	1.108975	-0.000006	-0.186904
N13	N	1.475573	-0.360353	-0.183398
C14	C	1.060414	-0.000009	-0.077365
C15	C	0.917211	-0.000007	-0.073593
C16	C	1.373651	-0.580719	-0.284670
C17	C	1.373875	-0.419552	-0.285049
C18	C	1.606030	-0.418803	-0.212953
C19	C	1.605474	-0.580021	-0.213670
C20	C	1.448339	-0.580268	-0.052238
C21	C	1.445344	-0.419042	-0.053090
C22	C	1.703681	-0.000010	-0.176234
C23	C	1.842235	-0.000003	-0.179881
C24	C	1.482763	-0.000014	0.044683
C25	C	1.479115	-0.000009	0.183238
N26	N	1.475647	0.360332	-0.183377
C27	C	1.468448	-0.000004	-0.411468
C28	C	1.472095	0.000000	-0.550023
C29	C	1.585403	-0.000009	0.258221
C30	C	1.581635	-0.000004	0.401424
H31	H	1.124856	-0.000005	0.013624
Cl32	Cl	0.852664	-0.000021	0.071215
H33	H	1.355224	-0.621005	-0.024093
Cl34	Cl	1.331600	-0.000012	0.350511
Cl35	Cl	1.334309	0.000006	0.247795
Cl36	Cl	1.642360	-0.638057	-0.361383
Cl37	Cl	1.722125	-0.000014	0.500898
H38	H	0.884039	-0.000009	-0.273673
Cl39	Cl	1.223513	-0.640606	-0.257636
H40	H	1.276941	-0.380036	-0.267275
Cl41	Cl	1.009490	0.000010	-0.327392
Cl42	Cl	1.400916	-0.359973	-0.435280
Cl43	Cl	1.726147	-0.640228	-0.104066
Cl44	Cl	1.400402	-0.643209	-0.434044
Cl45	Cl	1.726074	-0.359604	-0.102155
H46	H	1.630457	-0.378411	-0.307545
H47	H	1.349373	-0.380841	-0.030686
H48	H	1.679188	-0.000018	0.216399
Cl49	Cl	1.552458	-0.356856	0.068873
H50	H	1.522706	-0.618387	0.023154
