data_functionalizedCrystal
_audit_creation_method	'MofGen! by Chris Wilmer'
_symmetry_space_group_name_H-M	'P1'
_symmetry_Int_Tables_number	1
_symmetry_cell_setting	triclinic
loop_
_symmetry_equiv_pos_as_xyz
  x,y,z
_cell_length_a	16.625547
_cell_length_b	16.625546
_cell_length_c	19.077174
_cell_angle_alpha	87.729003
_cell_angle_beta	92.319725
_cell_angle_gamma	90.022405
loop_
_atom_site_label
_atom_site_type_symbol
_atom_site_fract_x
_atom_site_fract_y
_atom_site_fract_z
Zn1	Zn	1.250962	-0.339334	0.398028
Zn2	Zn	1.584295	-0.006001	0.731361
Zn3	Zn	1.917629	0.327332	1.064695
Zn4	Zn	1.245459	-0.468756	0.280330
Zn5	Zn	1.578793	-0.135423	0.613663
Zn6	Zn	1.912126	0.197910	0.946996
Zn7	Zn	1.110718	-0.333942	0.280337
Zn8	Zn	1.444052	-0.000608	0.613670
Zn9	Zn	1.777385	0.332725	0.947003
Zn10	Zn	1.116092	-0.474126	0.397978
Zn11	Zn	1.449425	-0.140793	0.731311
Zn12	Zn	1.782759	0.192541	1.064644
O13	O	1.180808	-0.404040	0.339168
O14	O	1.514141	-0.070706	0.672501
O15	O	1.847474	0.262627	1.005835
O16	O	1.363065	-0.356512	0.382433
O17	O	1.696399	-0.023179	0.715767
O18	O	2.029732	0.310155	1.049100
O19	O	1.223034	-0.446369	0.181840
O20	O	1.556367	-0.113035	0.515174
O21	O	1.889700	0.220298	0.848507
O22	O	1.129376	-0.221826	0.295973
O23	O	1.462709	0.111508	0.629306
O24	O	1.796042	0.444841	0.962640
O25	O	1.359022	-0.451598	0.295961
O26	O	1.692356	-0.118264	0.629294
O27	O	2.025689	0.215069	0.962627
O28	O	1.232412	-0.225788	0.382440
O29	O	1.565746	0.107546	0.715774
O30	O	1.899079	0.440879	1.049107
O31	O	1.124040	-0.347321	0.181846
O32	O	1.457373	-0.013988	0.515179
O33	O	1.790707	0.319346	0.848512
O34	O	0.998598	-0.352528	0.295924
O35	O	1.331931	-0.019194	0.629257
O36	O	1.665264	0.314139	0.962591
O37	O	1.138534	-0.460750	0.496474
O38	O	1.471868	-0.127417	0.829808
O39	O	1.805201	0.205917	1.163141
O40	O	1.002546	-0.455521	0.382354
O41	O	1.335879	-0.122187	0.715687
O42	O	1.669212	0.211146	1.049021
O43	O	1.237623	-0.361719	0.496512
O44	O	1.570956	-0.028386	0.829845
O45	O	1.904290	0.304948	1.163178
O46	O	1.228244	-0.582300	0.295912
O47	O	1.561578	-0.248967	0.629245
O48	O	1.894911	0.084367	0.962578
O49	O	1.133199	-0.586245	0.382347
O50	O	1.466532	-0.252912	0.715680
O51	O	1.799865	0.080422	1.049014
C52	C	0.971315	-0.404022	0.339135
C53	C	1.304649	-0.070689	0.672468
C54	C	1.637982	0.262644	1.005801
C55	C	0.881694	-0.404035	0.339137
C56	C	1.215028	-0.070702	0.672471
C57	C	1.548361	0.262631	1.005804
C58	C	0.808912	-0.404037	0.339146
C59	C	1.142246	-0.070704	0.672479
C60	C	1.475579	0.262629	1.005813
C61	C	0.717605	-0.404042	0.339164
C62	C	1.050938	-0.070709	0.672497
C63	C	1.384271	0.262624	1.005830
C64	C	0.644829	-0.404051	0.339181
C65	C	0.978162	-0.070717	0.672515
C66	C	1.311496	0.262616	1.005848
C67	C	0.553516	-0.404057	0.339198
C68	C	0.886849	-0.070724	0.672532
C69	C	1.220182	0.262610	1.005865
C70	C	1.180730	-0.613529	0.339139
C71	C	1.514063	-0.280196	0.672472
C72	C	1.847397	0.053138	1.005805
C73	C	1.180772	-0.703151	0.339149
C74	C	1.514105	-0.369817	0.672483
C75	C	1.847438	-0.036484	1.005816
C76	C	1.180916	-1.031330	0.339223
C77	C	1.514249	-0.697996	0.672556
C78	C	1.847582	-0.364663	1.005889
C79	C	1.180873	-0.940020	0.339204
C80	C	1.514207	-0.606687	0.672538
C81	C	1.847540	-0.273354	1.005871
C82	C	1.180843	-0.867243	0.339186
C83	C	1.514176	-0.533910	0.672519
C84	C	1.847510	-0.200576	1.005852
C85	C	1.180802	-0.775928	0.339168
C86	C	1.514135	-0.442595	0.672501
C87	C	1.847469	-0.109261	1.005835
C88	C	1.391118	-0.404057	0.339202
C89	C	1.724452	-0.070724	0.672535
C90	C	2.057785	0.262609	1.005868
C91	C	1.480740	-0.404065	0.339216
C92	C	1.814073	-0.070732	0.672550
C93	C	2.147407	0.262602	1.005883
C94	C	1.189292	-0.412435	0.522744
C95	C	1.522625	-0.079102	0.856078
C96	C	1.855959	0.254232	1.189411
C97	C	1.192907	-0.416012	0.600974
C98	C	1.526241	-0.082679	0.934307
C99	C	1.859574	0.250654	1.267641
C100	C	1.180908	-0.193733	0.339213
C101	C	1.514242	0.139601	0.672546
C102	C	1.847575	0.472934	1.005880
C103	C	1.180951	-0.104113	0.339232
C104	C	1.514285	0.229221	0.672566
C105	C	1.847618	0.562554	1.005899
C106	C	1.172403	-0.395619	0.156306
C107	C	1.505736	-0.062285	0.489639
C108	C	1.839070	0.271048	0.822972
C109	C	1.168944	-0.391814	0.078077
C110	C	1.502277	-0.058481	0.411410
C111	C	1.835611	0.274853	0.744743
C112	C	1.143067	-0.366125	0.637728
C113	C	1.476401	-0.032792	0.971062
C114	C	1.809734	0.300541	1.304395
C115	C	1.146461	-0.369494	0.711233
C116	C	1.479795	-0.036160	1.044567
C117	C	1.813128	0.297173	1.377900
C118	C	1.199700	-0.422745	0.747982
C119	C	1.533033	-0.089412	1.081315
C120	C	1.866367	0.243921	1.414649
C121	C	1.249542	-0.472638	0.711222
C122	C	1.582875	-0.139305	1.044556
C123	C	1.916209	0.194029	1.377889
C124	C	1.246143	-0.469273	0.637719
C125	C	1.579477	-0.135940	0.971052
C126	C	1.912810	0.197393	1.304386
C127	C	1.215387	-0.438342	0.967814
C128	C	1.548721	-0.105009	1.301147
C129	C	1.882054	0.228325	1.634480
C130	C	1.218784	-0.441701	1.041322
C131	C	1.552117	-0.108368	1.374656
C132	C	1.885451	0.224965	1.707989
C133	C	1.115702	-0.338557	1.041328
C134	C	1.449035	-0.005224	1.374661
C135	C	1.782369	0.328109	1.707995
C136	C	1.112311	-0.335194	0.967823
C137	C	1.445645	-0.001861	1.301156
C138	C	1.778978	0.331473	1.634490
C139	C	1.162150	-0.385090	0.931070
C140	C	1.495484	-0.051756	1.264403
C141	C	1.828817	0.281577	1.597736
N142	N	1.203172	-0.426188	0.823116
N143	N	1.536506	-0.092854	1.156449
N144	N	1.869839	0.240479	1.489782
N145	N	1.158673	-0.381651	0.855937
N146	N	1.492007	-0.048317	1.189271
N147	N	1.825340	0.285016	1.522604
H148	H	1.105873	-0.328873	0.741155
H149	H	1.439207	0.004460	1.074489
H150	H	1.772540	0.337793	1.407822
O151	O	1.067170	-0.290134	1.076953
O152	O	1.400504	0.043200	1.410286
O153	O	1.733837	0.376533	1.743620
C154	C	0.931070	-0.252052	1.099460
C155	C	1.264403	0.081282	1.432793
C156	C	1.597737	0.414615	1.766126
C157	C	0.985944	-0.306926	1.059060
C158	C	1.319278	0.026408	1.392393
C159	C	1.652611	0.359741	1.725726
H160	H	0.865388	-0.265620	1.085019
H161	H	1.198721	0.067713	1.418352
H162	H	1.532054	0.401047	1.751686
H163	H	0.944523	-0.186362	1.085012
H164	H	1.277857	0.146972	1.418345
H165	H	1.611190	0.480305	1.751678
H166	H	0.942682	-0.263588	1.158303
H167	H	1.276015	0.069746	1.491637
H168	H	1.609349	0.403079	1.824970
H169	H	0.974364	-0.295461	1.000207
H170	H	1.307697	0.037872	1.333540
H171	H	1.641030	0.371206	1.666873
H172	H	0.972480	-0.372598	1.073566
H173	H	1.305813	-0.039264	1.406899
H174	H	1.639147	0.294069	1.740233
H175	H	1.068957	-0.291833	0.937907
H176	H	1.402290	0.041500	1.271240
H177	H	1.735623	0.374834	1.604574
H178	H	1.099719	-0.322757	0.607813
H179	H	1.433053	0.010576	0.941146
H180	H	1.766386	0.343909	1.274479
H181	H	1.286734	-0.509891	0.607794
H182	H	1.620068	-0.176557	0.941128
H183	H	1.953401	0.156776	1.274461
O184	O	1.270522	-0.493506	1.076913
O185	O	1.603855	-0.160173	1.410246
O186	O	1.937189	0.173161	1.743579
C187	C	1.372438	-0.595424	1.069155
C188	C	1.705772	-0.262091	1.402488
C189	C	2.039105	0.071242	1.735821
C190	C	1.313871	-0.536813	1.028761
C191	C	1.647205	-0.203480	1.362095
C192	C	1.980538	0.129853	1.695428
H193	H	1.407514	-0.630442	1.030242
H194	H	1.740847	-0.297109	1.363576
H195	H	2.074181	0.036225	1.696909
H196	H	1.337026	-0.639204	1.103536
H197	H	1.670359	-0.305871	1.436869
H198	H	2.003693	0.027463	1.770203
H199	H	1.416176	-0.559970	1.103598
H200	H	1.749509	-0.226637	1.436932
H201	H	2.082842	0.106697	1.770265
H202	H	1.270121	-0.572201	0.994280
H203	H	1.603454	-0.238868	1.327613
H204	H	1.936788	0.094466	1.660946
H205	H	1.349336	-0.493034	0.994425
H206	H	1.682669	-0.159701	1.327758
H207	H	2.016002	0.173633	1.661091
H208	H	1.255961	-0.478979	0.937898
H209	H	1.589294	-0.145646	1.271231
H210	H	1.922628	0.187687	1.604565
O211	O	1.301236	-0.524298	0.747027
O212	O	1.634569	-0.190965	1.080360
O213	O	1.967902	0.142368	1.413694
C214	C	1.352123	-0.575229	0.860258
C215	C	1.685456	-0.241895	1.193591
C216	C	2.018789	0.091438	1.526924
C217	C	1.293554	-0.516674	0.819799
C218	C	1.626887	-0.183341	1.153133
C219	C	1.960221	0.149993	1.486466
H220	H	1.345920	-0.569097	0.919101
H221	H	1.679253	-0.235763	1.252435
H222	H	2.012587	0.097570	1.585768
H223	H	1.416498	-0.560417	0.845870
H224	H	1.749832	-0.227084	1.179204
H225	H	2.083165	0.106249	1.512537
H226	H	1.337268	-0.639570	0.845746
H227	H	1.670601	-0.306237	1.179079
H228	H	2.003934	0.027097	1.512412
H229	H	1.308335	-0.452313	0.834290
H230	H	1.641669	-0.118979	1.167623
H231	H	1.975002	0.214354	1.500956
H232	H	1.229195	-0.531555	0.834190
H233	H	1.562529	-0.198221	1.167524
H234	H	1.895862	0.135112	1.500857
