data_functionalizedCrystal
_audit_creation_method	'MofGen! by Chris Wilmer'
_symmetry_space_group_name_H-M	'P1'
_symmetry_Int_Tables_number	1
_symmetry_cell_setting	triclinic
loop_
_symmetry_equiv_pos_as_xyz
  x,y,z
_cell_length_a	14.908993
_cell_length_b	14.908520
_cell_length_c	14.908854
_cell_angle_alpha	89.778335
_cell_angle_beta	96.752834
_cell_angle_gamma	96.420918
loop_
_atom_site_label
_atom_site_type_symbol
_atom_site_fract_x
_atom_site_fract_y
_atom_site_fract_z
Zn1	Zn	1.338568	-0.255995	-0.447721
Zn2	Zn	1.838568	0.244005	0.052279
Zn3	Zn	1.337452	-0.415108	-0.306102
Zn4	Zn	1.837452	0.084892	0.193898
Zn5	Zn	1.194926	-0.272499	-0.306106
Zn6	Zn	1.694926	0.227501	0.193894
Zn7	Zn	1.177431	-0.415056	-0.466133
Zn8	Zn	1.677431	0.084944	0.033867
O9	O	1.262094	-0.339665	-0.381516
O10	O	1.762094	0.160335	0.118484
O11	O	1.465504	-0.270216	-0.421228
O12	O	1.965504	0.229784	0.078772
O13	O	1.325399	-0.403120	-0.179863
O14	O	1.825399	0.096880	0.320137
O15	O	1.221769	-0.144060	-0.317188
O16	O	1.721769	0.355940	0.182812
O17	O	1.464684	-0.387116	-0.317181
O18	O	1.964684	0.112884	0.182819
O19	O	1.327303	-0.131934	-0.421232
O20	O	1.827303	0.368066	0.078768
O21	O	1.220686	-0.298346	-0.179866
O22	O	1.720686	0.201654	0.320134
O23	O	1.065521	-0.298295	-0.335042
O24	O	1.565521	0.201705	0.164958
O25	O	1.191952	-0.387027	-0.589930
O26	O	1.691952	0.112973	-0.089930
O27	O	1.052668	-0.403031	-0.452612
O28	O	1.552668	0.096969	0.047388
O29	O	1.310339	-0.270165	-0.576403
O30	O	1.810339	0.229835	-0.076403
O31	O	1.308436	-0.541351	-0.335034
O32	O	1.808436	-0.041351	0.164966
O33	O	1.190870	-0.541313	-0.452608
O34	O	1.690870	-0.041313	0.047392
C35	C	1.026143	-0.352449	-0.395826
C36	C	1.526143	0.147551	0.104174
C37	C	0.925199	-0.357939	-0.401971
C38	C	1.425199	0.142061	0.098029
C39	C	0.748850	-0.259011	-0.291241
C40	C	1.248850	0.240989	0.208759
C41	C	0.654005	-0.264166	-0.297012
C42	C	1.154005	0.235834	0.202988
C43	C	0.640662	-0.373409	-0.419277
C44	C	1.140662	0.126591	0.080723
C45	C	0.735508	-0.368253	-0.413507
C46	C	1.235508	0.131747	0.086493
C47	C	0.789598	-0.311051	-0.349488
C48	C	1.289598	0.188949	0.150512
C49	C	0.884445	-0.305892	-0.343722
C50	C	1.384445	0.194108	0.156278
C51	C	0.871101	-0.415139	-0.465982
C52	C	1.371101	0.084861	0.034018
C53	C	0.776256	-0.420294	-0.471753
C54	C	1.276256	0.079706	0.028247
C55	C	1.247657	-0.574065	-0.395837
C56	C	1.747657	-0.074065	0.104163
C57	C	1.241562	-0.674336	-0.401989
C58	C	1.741562	-0.174336	0.098011
C59	C	1.352645	-0.862724	-0.291204
C60	C	1.852645	-0.362724	0.208796
C61	C	1.346921	-0.956937	-0.296982
C62	C	1.846921	-0.456937	0.203018
C63	C	1.224396	-0.956978	-0.419323
C64	C	1.724396	-0.456978	0.080677
C65	C	1.230120	-0.862765	-0.413546
C66	C	1.730120	-0.362765	0.086454
C67	C	1.294245	-0.815641	-0.349484
C68	C	1.794245	-0.315641	0.150516
C69	C	1.299964	-0.721426	-0.343703
C70	C	1.799964	-0.221426	0.156297
C71	C	1.177444	-0.721468	-0.466049
C72	C	1.677444	-0.221468	0.033951
C73	C	1.171720	-0.815682	-0.471826
C74	C	1.671720	-0.315682	0.028174
C75	C	1.498967	-0.326831	-0.367150
C76	C	1.998967	0.173169	0.132850
C77	C	1.599908	-0.321362	-0.361028
C78	C	2.099908	0.178638	0.138972
C79	C	1.249319	-0.326749	-0.616815
C80	C	1.749319	0.173251	-0.116815
C81	C	1.243875	-0.321245	-0.717085
C82	C	1.743875	0.178755	-0.217085
C83	C	1.276612	-0.104347	-0.367157
C84	C	1.776612	0.395653	0.132843
C85	C	1.282798	-0.004068	-0.361038
C86	C	1.782798	0.495932	0.138962
C87	C	1.342704	-0.420000	-0.905501
C88	C	1.842704	0.080000	-0.405501
C89	C	1.337591	-0.414832	-0.999714
C90	C	1.837591	0.085168	-0.499714
C91	C	1.228543	-0.305735	-0.999725
C92	C	1.728543	0.194265	-0.499725
C93	C	1.233655	-0.310904	-0.905512
C94	C	1.733655	0.189096	-0.405512
C95	C	1.290737	-0.368039	-0.858403
C96	C	1.790737	0.131961	-0.358403
C97	C	1.295844	-0.373212	-0.764189
C98	C	1.795844	0.126788	-0.264189
C99	C	1.186801	-0.264111	-0.764202
C100	C	1.686801	0.235889	-0.264202
C101	C	1.181688	-0.258942	-0.858414
C102	C	1.681688	0.241058	-0.358414
C103	C	1.274876	-0.352462	-0.147125
C104	C	1.774876	0.147538	0.352875
C105	C	1.280512	-0.357702	-0.046829
C106	C	1.780512	0.142298	0.453171
H107	H	0.596606	-0.419988	-0.471390
H108	H	1.096606	0.080012	0.028610
H109	H	0.620831	-0.221788	-0.249583
H110	H	1.120831	0.278212	0.250417
H111	H	0.792891	-0.212423	-0.239125
H112	H	1.292891	0.287577	0.260875
F113	F	0.718680	-0.481178	-0.539874
F114	F	1.218680	0.018822	-0.039874
H115	H	1.135217	-0.212422	-0.896783
H116	H	1.635217	0.287578	-0.396783
F117	F	1.167807	-0.244924	-1.049875
F118	F	1.667807	0.255076	-0.549875
H119	H	0.928484	-0.259310	-0.291600
H120	H	1.428484	0.240690	0.208400
F121	F	0.914475	-0.470513	-0.527990
F122	F	1.414475	0.029487	-0.027990
H123	H	1.342327	-0.419730	-0.725834
H124	H	1.842327	0.080270	-0.225834
H125	H	1.352176	-0.683059	-0.291538
H126	H	1.852176	-0.183059	0.208462
F127	F	1.420880	-0.812570	-0.223015
F128	F	1.920880	-0.312570	0.276985
H129	H	1.144484	-0.221801	-0.725845
H130	H	1.644484	0.278199	-0.225845
H131	H	1.379910	-0.457143	-1.038057
H132	H	1.879910	0.042857	-0.538057
H133	H	1.394478	-0.995269	-0.249526
H134	H	1.894478	-0.495269	0.250474
H135	H	1.172194	-0.995362	-0.471485
H136	H	1.672194	-0.495362	0.028515
F137	F	1.103480	-0.865843	-0.540005
F138	F	1.603480	-0.365843	-0.040005
H139	H	1.129888	-0.683122	-0.513501
H140	H	1.629888	-0.183122	-0.013501
H141	H	1.389186	-0.466518	-0.867144
H142	H	1.889186	0.033482	-0.367144
