data_functionalizedCrystal
_audit_creation_method	'MofGen! by Chris Wilmer'
_symmetry_space_group_name_H-M	'P1'
_symmetry_Int_Tables_number	1
_symmetry_cell_setting	triclinic
loop_
_symmetry_equiv_pos_as_xyz
  x,y,z
_cell_length_a	12.645331
_cell_length_b	12.645330
_cell_length_c	14.908308
_cell_angle_alpha	86.729111
_cell_angle_beta	93.277876
_cell_angle_gamma	89.974834
loop_
_atom_site_label
_atom_site_type_symbol
_atom_site_fract_x
_atom_site_fract_y
_atom_site_fract_z
Zn1	Zn	1.586028	0.456641	-0.510127
Zn2	Zn	1.596127	0.623703	-0.359284
Zn3	Zn	1.418986	0.446451	-0.359285
Zn4	Zn	1.408701	0.633857	-0.510092
O5	O	1.502460	0.540163	-0.434697
O6	O	1.735714	0.478817	-0.490132
O7	O	1.581159	0.591677	-0.233042
O8	O	1.441222	0.299457	-0.379310
O9	O	1.743133	0.601557	-0.379308
O10	O	1.563948	0.306943	-0.490133
O11	O	1.451014	0.461450	-0.233043
O12	O	1.269275	0.471296	-0.379275
O13	O	1.423693	0.618863	-0.636338
O14	O	1.261719	0.608982	-0.490073
O15	O	1.553974	0.488663	-0.636365
O16	O	1.571186	0.773396	-0.379273
O17	O	1.433485	0.780856	-0.490071
C18	C	1.227032	0.540136	-0.434671
C19	C	1.109202	0.540152	-0.434681
C20	C	0.946330	0.453183	-0.365363
C21	C	1.068910	0.453375	-0.365058
C22	C	1.066428	0.650065	-0.408715
C23	C	0.943862	0.649584	-0.408242
C24	C	0.935568	0.518288	-0.530233
C25	C	1.058210	0.515757	-0.529702
C26	C	1.502343	0.815592	-0.434688
C27	C	1.502387	0.933424	-0.434714
C28	C	1.416058	1.105740	-0.504635
C29	C	1.415674	0.983165	-0.504408
C30	C	1.478591	0.971573	-0.339641
C31	C	1.478046	1.094200	-0.340067
C32	C	1.613007	1.102169	-0.459102
C33	C	1.612197	0.979703	-0.461179
C34	C	1.778964	0.540191	-0.434724
C35	C	1.896793	0.540203	-0.434735
C36	C	1.486560	0.556032	-0.670000
C37	C	1.479784	0.562795	-0.770272
C38	C	1.502568	1.263660	-0.434729
C39	C	1.502519	1.145832	-0.434751
C40	C	1.602711	0.439900	-0.958723
C41	C	1.596348	0.446250	-1.052937
C42	C	1.460690	0.581839	-1.052917
C43	C	1.467053	0.575489	-0.958703
C44	C	1.538067	0.504518	-0.911609
C45	C	1.544435	0.498174	-0.817393
C46	C	1.408772	0.633757	-0.817374
C47	C	1.402409	0.640107	-0.911589
C48	C	1.518360	0.524279	-0.200309
C49	C	1.525341	0.517218	-0.100038
H50	H	0.915785	0.371214	-0.381464
H51	H	1.356137	0.686377	-0.779004
N52	N	1.091953	0.590176	-0.597994
N53	N	1.154409	0.662729	-0.577653
H54	H	1.178212	0.715319	-0.625877
N55	N	1.313757	1.143113	-0.484662
N56	N	1.233863	1.119727	-0.532686
H57	H	1.161612	1.146119	-0.518577
H58	H	1.602260	0.440387	-0.779050
N59	N	1.554036	1.126817	-0.272500
N60	N	1.607298	1.059022	-0.225178
H61	H	1.660954	1.082052	-0.177450
N62	N	0.894837	0.597908	-0.595082
N63	N	0.917490	0.693051	-0.585978
H64	H	0.888728	0.749288	-0.631773
N65	N	1.433427	0.951313	-0.592837
N66	N	1.511897	0.895080	-0.605551
H67	H	1.524436	0.872590	-0.668007
H68	H	1.539864	0.938789	-0.286149
H69	H	1.333642	0.952835	-0.488275
H70	H	1.635965	1.137633	-0.527252
H71	H	1.679499	0.945854	-0.413985
H72	H	1.630258	0.955296	-0.531148
H73	H	1.102991	0.467341	-0.294290
N74	N	0.913878	0.673852	-0.320660
N75	N	0.983443	0.691024	-0.260310
H76	H	0.962273	0.708163	-0.198452
N77	N	1.433609	1.148583	-0.593373
N78	N	1.510038	1.209174	-0.606149
H79	H	1.522457	1.239412	-0.668827
H80	H	1.101769	0.669872	-0.339650
H81	H	0.910926	0.716269	-0.456566
H82	H	0.903079	0.439878	-0.553848
N83	N	1.388134	0.654289	-1.101051
N84	N	1.317067	0.620484	-1.153615
H85	H	1.265821	0.671643	-1.187617
H86	H	1.397471	1.121492	-0.319439
N87	N	1.378626	0.931378	-0.313300
N88	N	1.324743	0.874639	-0.364382
H89	H	1.254140	0.846250	-0.345784
H90	H	0.920256	0.466969	-0.295011
N91	N	1.105293	0.350861	-0.385448
N92	N	1.040118	0.278672	-0.400003
H93	H	1.065808	0.206262	-0.414391
H94	H	1.677345	1.127707	-0.408203
N95	N	1.675261	0.367414	-0.910626
N96	N	1.732981	0.309730	-0.952704
H97	H	1.784222	0.258535	-0.918737
N98	N	1.098861	0.733220	-0.470106
N99	N	1.195192	0.750321	-0.478787
H100	H	1.218103	0.809047	-0.522147
H101	H	1.648985	0.393628	-1.091294
N102	N	1.329874	0.712586	-0.959712
N103	N	1.324197	0.718244	-1.043831
H104	H	1.272968	0.769435	-1.077818
N105	N	1.093067	0.414325	-0.554256
N106	N	1.155231	0.360147	-0.502017
H107	H	1.179856	0.288509	-0.519355
