data_functionalizedCrystal
_audit_creation_method	'MofGen! by Chris Wilmer'
_symmetry_space_group_name_H-M	'P1'
_symmetry_Int_Tables_number	1
_symmetry_cell_setting	triclinic
loop_
_symmetry_equiv_pos_as_xyz
  x,y,z
_cell_length_a	13.897447
_cell_length_b	21.295418
_cell_length_c	13.897441
_cell_angle_alpha	90.045201
_cell_angle_beta	90.026528
_cell_angle_gamma	90.039407
loop_
_atom_site_label
_atom_site_type_symbol
_atom_site_fract_x
_atom_site_fract_y
_atom_site_fract_z
Zn1	Zn	0.383515	-0.962380	-0.546038
Zn2	Zn	0.633515	-0.712380	-0.296038
Zn3	Zn	0.883515	-0.462380	-0.046038
Zn4	Zn	1.133515	-0.212380	0.203962
Zn5	Zn	0.544837	-0.962305	-0.384751
Zn6	Zn	0.794837	-0.712305	-0.134751
Zn7	Zn	1.044837	-0.462305	0.115249
Zn8	Zn	1.294837	-0.212305	0.365249
Zn9	Zn	0.383609	-0.857108	-0.384688
Zn10	Zn	0.633609	-0.607108	-0.134688
Zn11	Zn	0.883609	-0.357108	0.115312
Zn12	Zn	1.133609	-0.107108	0.365312
Zn13	Zn	0.544821	-0.857090	-0.545935
Zn14	Zn	0.794821	-0.607090	-0.295935
Zn15	Zn	1.044821	-0.357090	-0.045935
Zn16	Zn	1.294821	-0.107090	0.204065
O17	O	0.464195	-0.909721	-0.465353
O18	O	0.714195	-0.659721	-0.215353
O19	O	0.964195	-0.409721	0.034647
O20	O	1.214195	-0.159721	0.284647
O21	O	0.404882	-1.050459	-0.524713
O22	O	0.654882	-0.800459	-0.274713
O23	O	0.904882	-0.550459	-0.024713
O24	O	1.154882	-0.300459	0.225287
O25	O	0.523495	-0.948326	-0.249761
O26	O	0.773495	-0.698326	0.000239
O27	O	1.023495	-0.448326	0.250239
O28	O	1.273495	-0.198326	0.500239
O29	O	0.248615	-0.871112	-0.406108
O30	O	0.498615	-0.621112	-0.156108
O31	O	0.748615	-0.371112	0.093892
O32	O	0.998615	-0.121112	0.343892
O33	O	0.523405	-1.050404	-0.406216
O34	O	0.773405	-0.800404	-0.156216
O35	O	1.023405	-0.550404	0.093784
O36	O	1.273405	-0.300404	0.343784
O37	O	0.248546	-0.948455	-0.524652
O38	O	0.498546	-0.698455	-0.274652
O39	O	0.748546	-0.448455	-0.024652
O40	O	0.998546	-0.198455	0.225348
O41	O	0.405042	-0.871039	-0.249715
O42	O	0.655042	-0.621039	0.000285
O43	O	0.905042	-0.371039	0.250285
O44	O	1.155042	-0.121039	0.500285
O45	O	0.405027	-0.769016	-0.406008
O46	O	0.655027	-0.519016	-0.156008
O47	O	0.905027	-0.269016	0.093992
O48	O	1.155027	-0.019016	0.343992
O49	O	0.523378	-0.871081	-0.680930
O50	O	0.773378	-0.621081	-0.430930
O51	O	1.023378	-0.371081	-0.180930
O52	O	1.273378	-0.121081	0.069070
O53	O	0.523469	-0.769003	-0.524475
O54	O	0.773469	-0.519003	-0.274475
O55	O	1.023469	-0.269003	-0.024475
O56	O	1.273469	-0.019003	0.225525
O57	O	0.404867	-0.948437	-0.681006
O58	O	0.654867	-0.698437	-0.431006
O59	O	0.904867	-0.448437	-0.181006
O60	O	1.154867	-0.198437	0.068994
O61	O	0.679816	-0.948308	-0.406116
O62	O	0.929816	-0.698308	-0.156116
O63	O	1.179816	-0.448308	0.093884
O64	O	1.429816	-0.198308	0.343884
O65	O	0.679805	-0.871007	-0.524537
O66	O	0.929805	-0.621007	-0.274537
O67	O	1.179805	-0.371007	-0.024537
O68	O	1.429805	-0.121007	0.225463
C69	C	0.464257	-0.746169	-0.465224
C70	C	0.714257	-0.496169	-0.215224
C71	C	0.964257	-0.246169	0.034776
C72	C	1.214257	0.003831	0.284776
C73	C	0.464306	-0.676201	-0.465192
C74	C	0.714306	-0.426201	-0.215192
C75	C	0.964306	-0.176201	0.034808
C76	C	1.214306	0.073799	0.284808
C77	C	0.526063	-0.643344	-0.526782
C78	C	0.776063	-0.393344	-0.276782
C79	C	1.026063	-0.143344	-0.026782
C80	C	1.276063	0.106656	0.223218
C81	C	0.526043	-0.577601	-0.526818
C82	C	0.776043	-0.327601	-0.276818
C83	C	1.026043	-0.077601	-0.026818
C84	C	1.276043	0.172399	0.223182
C85	C	0.464277	-0.544718	-0.465247
C86	C	0.714277	-0.294718	-0.215247
C87	C	0.964277	-0.044718	0.034753
C88	C	1.214277	0.205282	0.284753
C89	C	0.402509	-0.577583	-0.403652
C90	C	0.652509	-0.327583	-0.153652
C91	C	0.902509	-0.077583	0.096348
C92	C	1.152509	0.172417	0.346348
C93	C	0.402523	-0.643325	-0.403625
C94	C	0.652523	-0.393325	-0.153625
C95	C	0.902523	-0.143325	0.096375
C96	C	1.152523	0.106675	0.346375
N97	N	0.456756	-0.441444	-0.380868
N98	N	0.706756	-0.191444	-0.130868
N99	N	0.956756	0.058556	0.119132
N100	N	1.206756	0.308556	0.369132
N101	N	0.456748	-0.378993	-0.380897
N102	N	0.706748	-0.128993	-0.130897
N103	N	0.956748	0.121007	0.119103
N104	N	1.206748	0.371007	0.369103
C105	C	0.464228	-0.346644	-0.465327
C106	C	0.714228	-0.096644	-0.215327
C107	C	0.964228	0.153356	0.034673
C108	C	1.214228	0.403356	0.284673
N109	N	0.471736	-0.379105	-0.549730
N110	N	0.721736	-0.129105	-0.299730
N111	N	0.971736	0.120895	-0.049730
N112	N	1.221736	0.370895	0.200270
N113	N	0.471750	-0.441563	-0.549700
N114	N	0.721750	-0.191563	-0.299700
N115	N	0.971750	0.058437	-0.049700
N116	N	1.221750	0.308437	0.200300
C117	C	0.464254	-0.473433	-0.465270
C118	C	0.714254	-0.223433	-0.215270
C119	C	0.964254	0.026567	0.034730
C120	C	1.214254	0.276567	0.284730
C121	C	0.525967	-0.242501	-0.526962
C122	C	0.775967	0.007499	-0.276962
C123	C	1.025967	0.257499	-0.026962
C124	C	1.275967	0.507499	0.223038
C125	C	0.525941	-0.176757	-0.526999
C126	C	0.775941	0.073243	-0.276999
C127	C	1.025941	0.323243	-0.026999
C128	C	1.275941	0.573243	0.223001
C129	C	0.402411	-0.176741	-0.403825
C130	C	0.652411	0.073259	-0.153825
C131	C	0.902411	0.323259	0.096175
C132	C	1.152411	0.573259	0.346175
C133	C	0.402432	-0.242483	-0.403796
C134	C	0.652432	0.007517	-0.153796
C135	C	0.902432	0.257517	0.096204
C136	C	1.152432	0.507517	0.346204
C137	C	0.464215	-0.275359	-0.465363
C138	C	0.714215	-0.025359	-0.215363
C139	C	0.964215	0.224641	0.034637
C140	C	1.214215	0.474641	0.284637
C141	C	0.714810	-0.909665	-0.465343
C142	C	0.964810	-0.659665	-0.215343
C143	C	1.214810	-0.409665	0.034657
C144	C	1.464810	-0.159665	0.284657
C145	C	0.822024	-0.909698	-0.465371
C146	C	1.072024	-0.659698	-0.215371
C147	C	1.322024	-0.409698	0.034629
C148	C	1.572024	-0.159698	0.284629
C149	C	0.909093	-0.909727	-0.465397
C150	C	1.159093	-0.659727	-0.215397
C151	C	1.409093	-0.409727	0.034603
C152	C	1.659093	-0.159727	0.284603
C153	C	1.018326	-0.909769	-0.465427
C154	C	1.268326	-0.659769	-0.215427
C155	C	1.518326	-0.409769	0.034573
C156	C	1.768326	-0.159769	0.284573
C157	C	1.212602	-0.909789	-0.465397
C158	C	1.462602	-0.659789	-0.215397
C159	C	1.712602	-0.409789	0.034603
C160	C	1.962602	-0.159789	0.284603
C161	C	1.105388	-0.909806	-0.465447
C162	C	1.355388	-0.659806	-0.215447
C163	C	1.605388	-0.409806	0.034553
C164	C	1.855388	-0.159806	0.284553
C165	C	0.464110	-0.909765	-0.716946
C166	C	0.714110	-0.659765	-0.466946
C167	C	0.964110	-0.409765	-0.216946
C168	C	1.214110	-0.159765	0.033054
C169	C	0.464074	-0.909784	-0.824160
C170	C	0.714074	-0.659784	-0.574160
C171	C	0.964074	-0.409784	-0.324160
C172	C	1.214074	-0.159784	-0.074160
C173	C	0.464151	-0.073911	-0.465456
C174	C	0.714151	0.176089	-0.215456
C175	C	0.964151	0.426089	0.034544
C176	C	1.214151	0.676089	0.284544
C177	C	0.464173	-0.143879	-0.465428
C178	C	0.714173	0.106121	-0.215428
C179	C	0.964173	0.356121	0.034572
C180	C	1.214173	0.606121	0.284572
C181	C	0.464009	-0.909801	-1.020456
C182	C	0.714009	-0.659801	-0.770456
C183	C	0.964009	-0.409801	-0.520456
C184	C	1.214009	-0.159801	-0.270456
C185	C	0.464048	-0.909790	-0.911223
C186	C	0.714048	-0.659790	-0.661223
C187	C	0.964048	-0.409790	-0.411223
C188	C	1.214048	-0.159790	-0.161223
C189	C	0.464211	-0.909712	-0.214739
C190	C	0.714211	-0.659712	0.035261
C191	C	0.964211	-0.409712	0.285261
C192	C	1.214211	-0.159712	0.535261
C193	C	0.463975	-0.909815	-0.107525
C194	C	0.713975	-0.659815	0.142475
C195	C	0.963975	-0.409815	0.392475
C196	C	1.213975	-0.159815	0.642475
H197	H	0.352148	-0.269236	-0.353637
H198	H	0.602148	-0.019236	-0.103637
H199	H	0.852148	0.230764	0.146363
H200	H	1.102148	0.480764	0.396363
F201	F	0.336790	-0.678295	-0.338069
F202	F	0.586790	-0.428295	-0.088069
F203	F	0.836790	-0.178295	0.161931
F204	F	1.086790	0.071705	0.411931
H205	H	0.352217	-0.550806	-0.353522
H206	H	0.602217	-0.300806	-0.103522
H207	H	0.852217	-0.050806	0.146478
H208	H	1.102217	0.199194	0.396478
F209	F	0.591716	-0.277492	-0.592490
F210	F	0.841716	-0.027492	-0.342490
F211	F	1.091716	0.222508	-0.092490
F212	F	1.341716	0.472508	0.157510
F213	F	0.591815	-0.678329	-0.592311
F214	F	0.841815	-0.428329	-0.342311
F215	F	1.091815	-0.178329	-0.092311
F216	F	1.341815	0.071671	0.157689
F217	F	0.336669	-0.141749	-0.338300
F218	F	0.586669	0.108251	-0.088300
F219	F	0.836669	0.358251	0.161700
F220	F	1.086669	0.608251	0.411700
F221	F	0.591669	-0.141788	-0.592561
F222	F	0.841669	0.108212	-0.342561
F223	F	1.091669	0.358212	-0.092561
F224	F	1.341669	0.608212	0.157439
H225	H	0.576332	-0.550844	-0.576976
H226	H	0.826332	-0.300844	-0.326976
H227	H	1.076332	-0.050844	-0.076976
H228	H	1.326332	0.199156	0.173024
