data_functionalizedCrystal
_audit_creation_method	'MofGen! by Chris Wilmer'
_symmetry_space_group_name_H-M	'P1'
_symmetry_Int_Tables_number	1
_symmetry_cell_setting	triclinic
loop_
_symmetry_equiv_pos_as_xyz
  x,y,z
_cell_length_a	10.654549
_cell_length_b	17.699083
_cell_length_c	16.176319
_cell_angle_alpha	90.006703
_cell_angle_beta	89.994212
_cell_angle_gamma	96.116270
loop_
_atom_site_label
_atom_site_type_symbol
_atom_site_fract_x
_atom_site_fract_y
_atom_site_fract_z
O1	O	0.158804	-1.005089	-0.068731
O2	O	0.179466	-0.784842	-0.068735
O3	O	-0.013693	-0.900029	-0.068730
O4	O	0.351963	-0.889901	-0.068737
O5	O	-0.013705	-0.900013	0.068764
O6	O	0.179454	-0.784825	0.068758
O7	O	0.158792	-1.005073	0.068762
Cu8	Cu	0.169122	-0.894948	0.081314
Cu9	Cu	0.169136	-0.894967	-0.081287
O10	O	0.351951	-0.889885	0.068757
C11	C	0.178720	-0.756632	0.000011
C12	C	0.176500	-0.672600	0.000009
C13	C	0.175446	-0.633117	0.074957
C14	C	0.173340	-0.554161	0.074958
C15	C	0.172295	-0.514689	0.000009
C16	C	0.173345	-0.554177	-0.074945
C17	C	0.175442	-0.633132	-0.074944
C18	C	0.164884	-0.235761	-0.074947
C19	C	0.162790	-0.156800	-0.074941
C20	C	0.162782	-0.156790	0.074955
C21	C	0.164879	-0.235745	0.074956
C22	C	0.165922	-0.275227	0.000002
C23	C	0.168203	-0.360840	0.000002
C24	C	0.170023	-0.429077	0.000008
C25	C	-0.060484	-0.899278	0.000016
C26	C	-0.199888	-0.897053	0.000014
C27	C	-0.411554	-0.962777	0.000009
C28	C	-0.280570	-0.964873	0.000016
C29	C	-0.250196	-0.827131	0.000013
C30	C	-0.381178	-0.825036	0.000012
C31	C	-0.119817	-1.050470	0.048191
C32	C	-0.069513	-1.120390	0.048180
C33	C	-0.125426	-1.180522	0.000001
C34	C	-0.231640	-1.170736	-0.048185
C35	C	-0.281937	-1.100816	-0.048182
C36	C	-0.226027	-1.040687	0.000016
C37	C	-0.541934	-0.739444	-0.048170
C38	C	-0.592233	-0.669522	-0.048172
C39	C	-0.536322	-0.609384	0.000002
C40	C	-0.430101	-0.619162	0.048176
C41	C	-0.379802	-0.689084	0.048178
C42	C	-0.435723	-0.749222	0.000006
C43	C	0.398742	-0.890637	0.000009
C44	C	0.538146	-0.892861	0.000006
N45	N	0.169111	-0.894940	0.195680
C46	C	0.159530	-0.033283	0.000014
C47	C	0.161728	-0.117317	0.000008
N48	N	0.169137	-0.894980	-0.195652
C49	C	0.083615	-0.945960	0.238946
C50	C	0.083614	-0.945964	0.325493
C51	C	0.169115	-0.894950	0.368772
C52	C	0.254615	-0.843924	0.325499
C53	C	0.254610	-0.843917	0.238954
C54	C	0.254639	-0.843950	0.674528
C55	C	0.254640	-0.843963	0.761079
C56	C	0.083643	-0.945997	0.761067
C57	C	0.083637	-0.945990	0.674522
C58	C	0.169132	-0.894962	0.631256
C59	C	0.169131	-0.894957	0.537412
C60	C	0.169123	-0.894958	0.462615
H61	H	0.172485	-0.522033	-0.135969
Br62	Br	0.370648	-0.774684	0.384231
Br63	Br	-0.057149	-1.275410	-0.000016
Br64	Br	0.166308	-0.289310	0.176675
Br65	Br	0.370637	-0.774667	0.180235
Br66	Br	-0.032397	-1.015229	0.615789
Br67	Br	0.166297	-0.289334	-0.176670
H68	H	-0.368412	-1.092848	-0.087417
H69	H	0.161939	-0.124664	-0.135977
Br70	Br	0.074632	-1.133669	0.113571
Br71	Br	-0.043941	-0.968867	0.113593
Br72	Br	0.176860	-0.686718	-0.176664
H73	H	-0.477237	-1.018005	0.000004
Br74	Br	0.370666	-0.774701	0.615815
H75	H	-0.277148	-1.219701	-0.087423
H76	H	-0.184494	-0.771911	0.000016
Br77	Br	0.176877	-0.686678	0.176679
H78	H	-0.678718	-0.661563	-0.087407
Br79	Br	-0.604576	-0.514486	-0.000011
H80	H	0.013996	-0.987509	0.360721
Br81	Br	-0.235643	-0.702355	0.113558
H82	H	0.324269	-0.802418	0.796315
Br83	Br	0.171932	-0.500578	0.176678
Br84	Br	-0.354207	-0.537544	0.113552
H85	H	-0.587471	-0.788412	-0.087397
H86	H	0.013995	-0.987505	0.203714
Br87	Br	0.161364	-0.103203	0.176681
Br88	Br	-0.032391	-1.015251	0.819788
