data_functionalizedCrystal
_audit_creation_method	'MofGen! by Chris Wilmer'
_symmetry_space_group_name_H-M	'P1'
_symmetry_Int_Tables_number	1
_symmetry_cell_setting	triclinic
loop_
_symmetry_equiv_pos_as_xyz
  x,y,z
_cell_length_a	16.959455
_cell_length_b	19.121063
_cell_length_c	16.959447
_cell_angle_alpha	92.406624
_cell_angle_beta	89.985678
_cell_angle_gamma	92.465894
loop_
_atom_site_label
_atom_site_type_symbol
_atom_site_fract_x
_atom_site_fract_y
_atom_site_fract_z
Zn1	Zn	1.194915	-0.279656	-0.460312
Zn2	Zn	1.694915	0.220344	0.039688
Zn3	Zn	1.189180	-0.397117	-0.333763
Zn4	Zn	1.689180	0.102883	0.166237
Zn5	Zn	1.062742	-0.279678	-0.328150
Zn6	Zn	1.562742	0.220322	0.171850
Zn7	Zn	1.057053	-0.397064	-0.465899
Zn8	Zn	1.557053	0.102936	0.034101
O9	O	1.125973	-0.338379	-0.397031
O10	O	1.625973	0.161621	0.102969
O11	O	1.304764	-0.295250	-0.443535
O12	O	1.804764	0.204750	0.056465
O13	O	1.172389	-0.381570	-0.222409
O14	O	1.672389	0.118430	0.277591
O15	O	1.085056	-0.181391	-0.340995
O16	O	1.585056	0.318609	0.159005
O17	O	1.300551	-0.381548	-0.350560
O18	O	1.800551	0.118452	0.149440
O19	O	1.182163	-0.181375	-0.438093
O20	O	1.682163	0.318625	0.061907
O21	O	1.079495	-0.295288	-0.218285
O22	O	1.579495	0.204712	0.281715
O23	O	0.951377	-0.295237	-0.346412
O24	O	1.451377	0.204763	0.153588
O25	O	1.075360	-0.381459	-0.575767
O26	O	1.575360	0.118541	-0.075767
O27	O	0.947198	-0.381480	-0.447615
O28	O	1.447198	0.118520	0.052385
O29	O	1.176646	-0.295199	-0.571662
O30	O	1.676646	0.204801	-0.071662
O31	O	1.166873	-0.495394	-0.355978
O32	O	1.666873	0.004606	0.144022
O33	O	1.069800	-0.495356	-0.453058
O34	O	1.569800	0.004644	0.046942
C35	C	0.920608	-0.338356	-0.397012
C36	C	1.420608	0.161644	0.102988
C37	C	0.832751	-0.338363	-0.397023
C38	C	1.332751	0.161637	0.102977
C39	C	0.463428	-0.293435	-0.344438
C40	C	0.963428	0.206565	0.155562
C41	C	0.459118	-0.383380	-0.449672
C42	C	0.959118	0.116620	0.050328
C43	C	0.541664	-0.383370	-0.449666
C44	C	1.041664	0.116630	0.050334
C45	C	0.585096	-0.338393	-0.397045
C46	C	1.085096	0.161607	0.102955
C47	C	0.545982	-0.293425	-0.344430
C48	C	1.045982	0.206575	0.155570
C49	C	0.580784	-0.428342	-0.502276
C50	C	1.080784	0.071658	-0.002276
C51	C	0.663336	-0.428334	-0.502272
C52	C	1.163336	0.071666	-0.002272
C53	C	0.706770	-0.383353	-0.449654
C54	C	1.206770	0.116647	0.050346
C55	C	0.667650	-0.338383	-0.397037
C56	C	1.167650	0.161617	0.102963
C57	C	0.711082	-0.293405	-0.344416
C58	C	1.211082	0.206595	0.155584
C59	C	0.671965	-0.248431	-0.291802
C60	C	1.171965	0.251569	0.208198
C61	C	0.589416	-0.248444	-0.291812
C62	C	1.089416	0.251556	0.208188
C63	C	0.789319	-0.383340	-0.449644
C64	C	1.289319	0.116660	0.050356
C65	C	0.793636	-0.293395	-0.344407
C66	C	1.293636	0.206605	0.155593
C67	C	1.117118	-0.520859	-0.405750
C68	C	1.617118	-0.020859	0.094250
C69	C	1.113402	-0.598924	-0.409507
C70	C	1.613402	-0.098924	0.090493
C71	C	1.162236	-0.635597	-0.360769
C72	C	1.662236	-0.135597	0.139231
C73	C	1.158746	-0.708948	-0.364307
C74	C	1.658746	-0.208948	0.135693
C75	C	1.106417	-0.745625	-0.416579
C76	C	1.606417	-0.245625	0.083421
C77	C	1.057581	-0.708948	-0.465322
C78	C	1.557581	-0.208948	0.034678
C79	C	1.061076	-0.635598	-0.461787
C80	C	1.561076	-0.135598	0.038213
C81	C	1.093339	-0.967094	-0.429780
C82	C	1.593339	-0.467094	0.070220
C83	C	1.089847	-1.040449	-0.433309
C84	C	1.589847	-0.540449	0.066691
C85	C	1.191013	-1.040443	-0.332295
C86	C	1.691013	-0.540443	0.167705
C87	C	1.194500	-0.967092	-0.328762
C88	C	1.694500	-0.467092	0.171238
C89	C	1.145667	-0.930421	-0.377508
C90	C	1.645667	-0.430421	0.122492
C91	C	1.102847	-0.820602	-0.420195
C92	C	1.602847	-0.320602	0.079805
C93	C	1.149242	-0.855446	-0.373896
C94	C	1.649242	-0.355446	0.126104
C95	C	1.332140	-0.338403	-0.397051
C96	C	1.832140	0.161597	0.102949
C97	C	1.419996	-0.338413	-0.397059
C98	C	1.919996	0.161587	0.102941
C99	C	1.126008	-0.338321	-0.603196
C100	C	1.626008	0.161679	-0.103196
C101	C	1.126024	-0.338296	-0.691052
C102	C	1.626024	0.161704	-0.191052
C103	C	1.134884	-0.155186	-0.388295
C104	C	1.634884	0.344814	0.111705
C105	C	1.138681	-0.077121	-0.384572
C106	C	1.638681	0.422879	0.115428
C107	C	1.073386	-0.383133	-1.064664
C108	C	1.573386	0.116867	-0.564664
C109	C	1.178857	-0.293311	-1.060384
C110	C	1.678857	0.206689	-0.560384
C111	C	1.178835	-0.293326	-0.977839
C112	C	1.678835	0.206674	-0.477839
C113	C	1.126089	-0.338246	-0.938703
C114	C	1.626089	0.161754	-0.438703
C115	C	1.073365	-0.383151	-0.982111
C116	C	1.573365	0.116849	-0.482111
C117	C	1.231564	-0.248426	-0.934425
C118	C	1.731564	0.251574	-0.434425
C119	C	1.231545	-0.248440	-0.851875
C120	C	1.731545	0.251560	-0.351875
C121	C	1.178794	-0.293357	-0.812736
C122	C	1.678794	0.206643	-0.312736
C123	C	1.126067	-0.338263	-0.856150
C124	C	1.626067	0.161737	-0.356150
C125	C	1.073321	-0.383183	-0.817013
C126	C	1.573321	0.116817	-0.317013
C127	C	1.020590	-0.428087	-0.860425
C128	C	1.520590	0.071913	-0.360425
C129	C	1.020614	-0.428068	-0.942973
C130	C	1.520614	0.071932	-0.442973
C131	C	1.178770	-0.293376	-0.730189
C132	C	1.678770	0.206624	-0.230189
C133	C	1.073299	-0.383201	-0.734460
C134	C	1.573299	0.116799	-0.234460
C135	C	1.125985	-0.338386	-0.191665
C136	C	1.625985	0.161614	0.308335
C137	C	1.126133	-0.338213	-0.103800
C138	C	1.626133	0.161787	0.396200
H139	H	0.431575	-0.256817	-0.301603
H140	H	0.931575	0.243183	0.198397
O141	O	1.008396	-0.596047	-0.514353
O142	O	1.508396	-0.096047	-0.014353
H143	H	1.045341	-0.562584	-0.552995
H144	H	1.545341	-0.062584	-0.052995
O145	O	0.547209	-0.199956	-0.235063
O146	O	1.047209	0.300044	0.264937
H147	H	0.565699	-0.144840	-0.246080
H148	H	1.065699	0.355160	0.253920
H149	H	1.053576	-0.937242	-0.469470
H150	H	1.553576	-0.437242	0.030530
H151	H	1.030340	-0.419775	-0.702601
H152	H	1.530340	0.080225	-0.202601
O153	O	1.235636	-0.244951	-0.683363
O154	O	1.735636	0.255049	-0.183363
H155	H	1.272316	-0.213712	-0.724445
H156	H	1.772316	0.286288	-0.224445
H157	H	0.828993	-0.256764	-0.301561
H158	H	1.328993	0.243236	0.198439
O159	O	1.235747	-0.244868	-1.102597
O160	O	1.735747	0.255132	-0.602597
H161	H	1.272409	-0.213650	-1.058542
H162	H	1.772409	0.286350	-0.558542
H163	H	1.274481	-0.211876	-0.816535
H164	H	1.774481	0.288124	-0.316535
H165	H	1.030452	-0.419690	-1.100013
H166	H	1.530452	0.080310	-0.600013
O167	O	1.211417	-0.748500	-0.311737
O168	O	1.711417	-0.248500	0.188263
H169	H	1.174469	-0.781974	-0.273111
H170	H	1.674469	-0.281974	0.226889
H171	H	0.423750	-0.420003	-0.492509
H172	H	0.923750	0.079997	0.007491
H173	H	1.237110	-0.937231	-0.286199
H174	H	1.737110	-0.437231	0.213801
H175	H	0.707338	-0.211814	-0.248954
H176	H	1.207338	0.288186	0.251046
O177	O	0.963697	-0.476535	-0.818212
O178	O	1.463697	0.023465	-0.318212
H179	H	0.972543	-0.468998	-0.753519
H180	H	1.472543	0.031002	-0.253519
O181	O	0.831500	-0.431835	-0.506400
O182	O	1.331500	0.068165	-0.006400
H183	H	0.870635	-0.400431	-0.545167
H184	H	1.370635	0.099569	-0.045167
H185	H	0.977686	-0.464628	-0.978326
H186	H	1.477686	0.035372	-0.478326
H187	H	1.191851	-0.825581	-0.331339
H188	H	1.691851	-0.325581	0.168661
H189	H	1.230772	-1.070309	-0.292611
H190	H	1.730772	-0.570309	0.207389
H191	H	1.274511	-0.211859	-0.966296
H192	H	1.774511	0.288141	-0.466296
O193	O	0.533945	-0.476850	-0.559031
O194	O	1.033945	0.023150	-0.059031
H195	H	0.469972	-0.469293	-0.550204
H196	H	0.969972	0.030707	-0.050204
H197	H	0.695178	-0.464954	-0.545114
H198	H	1.195178	0.035046	-0.045114
H199	H	1.047244	-1.070309	-0.475889
H200	H	1.547244	-0.570309	0.024111
O201	O	1.001129	-0.748502	-0.521694
O202	O	1.501129	-0.248502	-0.021694
H203	H	1.006893	-0.805668	-0.515956
H204	H	1.506893	-0.305668	-0.015956
H205	H	1.060239	-0.850473	-0.462753
H206	H	1.560239	-0.350473	0.037247
O207	O	1.218680	-0.596038	-0.304393
O208	O	1.718680	-0.096038	0.195607
H209	H	1.252058	-0.633865	-0.271105
H210	H	1.752058	-0.133865	0.228895
