data_functionalizedCrystal
_audit_creation_method	'MofGen! by Chris Wilmer'
_symmetry_space_group_name_H-M	'P1'
_symmetry_Int_Tables_number	1
_symmetry_cell_setting	triclinic
loop_
_symmetry_equiv_pos_as_xyz
  x,y,z
_cell_length_a	6.817900
_cell_length_b	10.992723
_cell_length_c	16.255661
_cell_angle_alpha	93.806710
_cell_angle_beta	103.488922
_cell_angle_gamma	108.770285
loop_
_atom_site_label
_atom_site_type_symbol
_atom_site_fract_x
_atom_site_fract_y
_atom_site_fract_z
V1	V	-4.053808	-0.178800	-0.263864
O2	O	-4.013050	0.007524	-0.258848
O3	O	-4.031834	-0.353504	-0.262052
O4	O	-4.005024	-0.176519	-0.378947
O5	O	-4.040046	-0.170686	-0.141144
V6	V	-4.534061	-0.156459	-0.249186
O7	O	-4.322238	-0.227809	-0.296060
O8	O	-4.715828	-0.107450	-0.216990
O9	O	-4.332828	0.018245	-0.250998
O10	O	-4.692215	-0.342783	-0.254201
O11	O	-4.665219	-0.164573	-0.371906
O12	O	-4.359638	-0.158740	-0.134103
C13	C	-3.883276	-0.396079	-0.257887
C14	C	-3.946595	-0.538904	-0.257173
C15	C	-4.257664	-0.749860	-0.260935
C16	C	-4.192142	-0.601384	-0.262005
C17	C	-3.905703	-0.608424	-0.335558
C18	C	-3.973015	-0.757095	-0.334913
C19	C	-3.878718	-0.718185	-0.173123
C20	C	-3.816417	-0.569463	-0.172892
C21	C	-3.849076	-0.170314	-0.406998
C22	C	-3.890648	-0.169605	-0.501079
C23	C	-3.799920	-0.161129	-0.723898
C24	C	-3.972914	-0.270523	-0.793370
C25	C	-3.966831	-0.168275	-0.673328
C26	C	-3.867938	-0.057629	-0.771493
C27	C	-4.040403	-0.166983	-0.839711
C28	C	-4.139321	-0.277766	-0.741569
C29	C	-4.034269	-0.064775	-0.719678
C30	C	-4.207404	-0.174200	-0.789130
C31	C	-3.924443	-0.169019	-0.577478
C32	C	-4.082810	-0.166248	-0.935560
C33	C	-4.144729	0.060813	-0.255160
C34	C	-4.060649	0.203637	-0.255880
C35	C	-4.178929	-0.164949	-0.106048
C36	C	-4.116594	-0.165652	-0.011966
H37	H	-4.100189	-0.809162	-0.397231
H38	H	-4.059681	0.022215	-0.687573
H39	H	-4.229884	-0.554014	-0.205979
O40	O	-3.942124	-0.374186	-0.831595
C41	C	-3.693185	-0.484587	-0.841504
C42	C	-3.727765	-0.367117	-0.798168
H43	H	-3.519896	-0.478925	-0.814483
H44	H	-3.726814	-0.483567	-0.913475
H45	H	-3.807320	-0.578293	-0.828597
H46	H	-3.613656	-0.273350	-0.811008
H47	H	-3.694212	-0.368253	-0.726210
O48	O	-3.731251	0.053338	-0.787593
C49	C	-3.362566	0.185531	-0.772638
C50	C	-3.517133	0.059839	-0.754336
H51	H	-3.189421	0.190814	-0.745774
H52	H	-3.386885	0.273321	-0.741031
H53	H	-3.396990	0.185464	-0.844723
H54	H	-3.482804	0.059779	-0.682267
H55	H	-3.492782	-0.027896	-0.786001
H56	H	-4.253651	-0.370901	-0.728098
O57	O	-4.413312	-0.180588	-0.822968
C58	C	-4.645783	-0.076524	-0.899569
C59	C	-4.412492	-0.069103	-0.861267
H60	H	-4.645198	0.013586	-0.930559
H61	H	-4.731013	-0.081608	-0.846643
H62	H	-4.733861	-0.167106	-0.949917
H63	H	-4.324233	0.021471	-0.810930
H64	H	-4.327426	-0.064090	-0.914241
O65	O	-4.341977	-0.779593	-0.193754
C66	C	-4.653740	-0.895919	-0.148337
C67	C	-4.558539	-0.862313	-0.224500
H68	H	-4.828829	-0.962824	-0.173166
H69	H	-4.644673	-0.802811	-0.109812
H70	H	-4.558123	-0.947074	-0.105636
H71	H	-4.654082	-0.811192	-0.267263
H72	H	-4.567570	-0.955464	-0.262960
O73	O	-4.418946	-0.814514	-0.332190
C74	C	-4.647272	-0.798079	-0.465420
C75	C	-4.464640	-0.724691	-0.384758
H76	H	-4.684241	-0.725492	-0.507952
H77	H	-4.797358	-0.854318	-0.445935
H78	H	-4.595311	-0.868783	-0.502116
H79	H	-4.516396	-0.653923	-0.348025
H80	H	-4.314598	-0.668539	-0.404300
H81	H	-4.295529	-0.582976	-0.322487
O82	O	-3.694955	-0.560167	-0.335056
C83	C	-3.438077	-0.452278	-0.409964
C84	C	-3.676829	-0.506906	-0.410654
H85	H	-3.423341	-0.409179	-0.471070
H86	H	-3.368488	-0.533818	-0.406219
H87	H	-3.345628	-0.373309	-0.352052
H88	H	-3.769455	-0.585857	-0.468559
H89	H	-3.746251	-0.425294	-0.414355
O90	O	-4.017252	-0.584885	-0.410026
C91	C	-4.288513	-0.676707	-0.543938
C92	C	-4.162289	-0.703545	-0.459650
H93	H	-4.405837	-0.772622	-0.584074
H94	H	-4.171627	-0.625219	-0.581085
H95	H	-4.381628	-0.612388	-0.529022
H96	H	-4.069167	-0.767897	-0.474489
H97	H	-4.279284	-0.754971	-0.422527
O98	O	-3.942354	-0.748492	-0.101486
C99	C	-4.060873	-0.916728	-0.017844
C100	C	-3.988865	-0.882585	-0.099007
H101	H	-4.098454	-1.025138	-0.015804
H102	H	-4.210921	-0.891485	-0.018792
H103	H	-3.926391	-0.858805	0.041188
H104	H	-4.123201	-0.940490	-0.158082
H105	H	-3.838758	-0.907797	-0.097984
O106	O	-3.600790	-0.516891	-0.162662
C107	C	-3.246151	-0.487116	-0.074958
C108	C	-3.490297	-0.546700	-0.086422
H109	H	-3.156747	-0.511218	-0.013330
H110	H	-3.197147	-0.377081	-0.071398
H111	H	-3.203819	-0.529019	-0.131702
H112	H	-3.532807	-0.504899	-0.029697
H113	H	-3.539171	-0.656734	-0.090020
O114	O	-3.594083	-0.154650	-0.689766
C115	C	-3.323494	-0.147086	-0.562156
C116	C	-3.556620	-0.154385	-0.600696
H117	H	-3.293144	-0.146897	-0.490141
H118	H	-3.207399	-0.054140	-0.575045
H119	H	-3.297395	-0.234920	-0.592769
H120	H	-3.582927	-0.066618	-0.570107
H121	H	-3.672596	-0.247387	-0.587816
H122	H	-3.730977	-0.747361	-0.168641
H123	H	-3.828660	-0.788126	-0.334696
H124	H	-3.847560	-0.522640	-0.114853
