data_functionalizedCrystal
_audit_creation_method	'MofGen! by Chris Wilmer'
_symmetry_space_group_name_H-M	'P1'
_symmetry_Int_Tables_number	1
_symmetry_cell_setting	triclinic
loop_
_symmetry_equiv_pos_as_xyz
  x,y,z
_cell_length_a	15.995350
_cell_length_b	10.489716
_cell_length_c	15.072220
_cell_angle_alpha	90.002992
_cell_angle_beta	89.991149
_cell_angle_gamma	84.010755
loop_
_atom_site_label
_atom_site_type_symbol
_atom_site_fract_x
_atom_site_fract_y
_atom_site_fract_z
O1	O	1.111978	0.164402	-0.073699
O2	O	0.868324	0.184704	-0.073717
O3	O	0.995706	-0.011125	-0.073711
O4	O	0.984596	0.360230	-0.073705
O5	O	0.995674	-0.011114	0.073854
O6	O	0.868292	0.184715	0.073849
O7	O	1.111946	0.164412	0.073866
Zn8	Zn	0.990114	0.174565	0.097286
Zn9	Zn	0.990156	0.174551	-0.097137
O10	O	0.984564	0.360241	0.073860
C11	C	0.837108	0.183870	0.000064
C12	C	0.744143	0.181354	0.000057
C13	C	0.994855	-0.058640	0.000069
C14	C	0.992358	-0.200236	0.000061
C15	C	0.406341	0.172317	0.000075
C16	C	0.452942	0.032851	0.000402
C17	C	0.549648	0.035368	0.000063
C18	C	0.573928	0.176799	0.000066
C19	C	0.533270	0.245582	-0.084196
C20	C	0.436614	0.242079	-0.084260
C21	C	0.436256	0.244973	0.083549
C22	C	0.533201	0.244940	0.084656
C23	C	0.668641	0.179340	0.000059
C24	C	0.311628	0.169780	0.000077
C25	C	1.070472	-0.299003	0.000074
C26	C	1.029210	-0.375791	-0.072683
C27	C	1.029161	-0.375744	0.072804
C28	C	0.951128	-0.275159	-0.072757
C29	C	0.951090	-0.275107	0.072796
C30	C	0.909771	-0.351846	0.000020
C31	C	1.143162	0.165246	0.000084
C32	C	1.236127	0.167763	0.000085
C33	C	0.985415	0.407756	0.000078
C34	C	0.987912	0.549352	0.000081
N35	N	0.990091	0.174574	0.229975
N36	N	0.990185	0.174532	-0.229826
C37	C	0.990154	0.174546	0.589177
C38	C	0.921761	0.278979	0.551567
C39	C	0.921922	0.279360	0.448741
C40	C	0.990122	0.174560	0.410973
C41	C	1.077661	0.203628	0.448271
C42	C	1.077278	0.204370	0.551129
C43	C	0.971785	0.040736	0.551273
C44	C	0.969786	0.041628	0.448410
C45	C	0.990110	0.174566	0.310259
C46	C	0.990172	0.174543	0.689890
H47	H	0.577741	-0.018699	0.060466
Br48	Br	0.595534	-0.054967	-0.100967
Br49	Br	0.578090	0.161108	0.188556
Br50	Br	0.580105	0.165947	-0.188724
H51	H	0.918184	-0.231399	-0.134336
H52	H	0.856510	0.261945	0.576323
H53	H	0.548016	0.349488	-0.087327
Br54	Br	1.047325	-0.093974	0.405578
H55	H	0.405108	0.347800	0.084121
Br56	Br	0.421491	-0.060061	0.101121
H57	H	1.062140	-0.419674	0.134314
H58	H	0.841774	-0.375325	-0.000024
H59	H	1.062199	-0.419752	-0.134192
H60	H	0.918131	-0.231123	0.134306
H61	H	0.933415	0.377718	0.577407
Br62	Br	0.813496	0.250583	0.406707
Br63	Br	0.401557	0.168984	0.190003
H64	H	0.933734	0.378658	0.424129
H65	H	1.093343	0.301957	0.575113
Br66	Br	1.183718	-0.259454	-0.000034
Br67	Br	0.862450	0.004854	0.407784
H68	H	0.549181	0.348076	0.089748
H69	H	1.129803	0.131306	0.576006
H70	H	1.129803	0.129588	0.423804
Br71	Br	1.105048	0.364424	0.405327
Br72	Br	0.867614	-0.005828	0.594552
H73	H	1.021652	-0.036980	0.575594
H74	H	0.418019	0.191910	-0.147251
Br75	Br	0.419749	-0.059659	-0.099754
H76	H	0.404977	0.344472	-0.088082
