data_functionalizedCrystal
_audit_creation_method	'MofGen! by Chris Wilmer'
_symmetry_space_group_name_H-M	'P1'
_symmetry_Int_Tables_number	1
_symmetry_cell_setting	triclinic
loop_
_symmetry_equiv_pos_as_xyz
  x,y,z
_cell_length_a	12.759395
_cell_length_b	19.120904
_cell_length_c	12.759394
_cell_angle_alpha	87.584123
_cell_angle_beta	89.983626
_cell_angle_gamma	92.425096
loop_
_atom_site_label
_atom_site_type_symbol
_atom_site_fract_x
_atom_site_fract_y
_atom_site_fract_z
Zn1	Zn	1.580869	-0.397085	0.443587
Zn2	Zn	1.588271	-0.279642	0.611786
Zn3	Zn	1.412678	-0.279655	0.436127
Zn4	Zn	1.405161	-0.397056	0.619227
O5	O	1.496745	-0.338359	0.527682
O6	O	1.728871	-0.381512	0.465907
O7	O	1.571222	-0.181361	0.582248
O8	O	1.435037	-0.295250	0.290097
O9	O	1.734310	-0.295228	0.589482
O10	O	1.558606	-0.381525	0.295577
O11	O	1.442215	-0.181370	0.453192
O12	O	1.264660	-0.295222	0.460408
O13	O	1.422225	-0.495342	0.602164
O14	O	1.259137	-0.381476	0.594931
O15	O	1.551317	-0.495364	0.473122
O16	O	1.563933	-0.295200	0.759793
O17	O	1.429403	-0.381463	0.765260
C18	C	1.223778	-0.338347	0.527668
C19	C	1.107001	-0.338359	0.527689
C20	C	1.101297	-0.428030	0.667976
C21	C	1.043585	-0.472867	0.738127
C22	C	0.933863	-0.472876	0.738141
C23	C	0.881851	-0.428044	0.667992
C24	C	0.939563	-0.383206	0.597841
C25	C	1.049288	-0.383201	0.597837
C26	C	0.945266	-0.293540	0.457551
C27	C	1.054989	-0.293527	0.457541
C28	C	0.893254	-0.248708	0.387402
C29	C	0.950967	-0.203865	0.317254
C30	C	1.060696	-0.203858	0.317244
C31	C	1.112701	-0.248689	0.387389
C32	C	1.485107	-0.521549	0.539305
C33	C	1.480147	-0.599614	0.544259
C34	C	1.545025	-0.636301	0.479403
C35	C	1.540352	-0.709651	0.484054
C36	C	1.470806	-0.746312	0.553565
C37	C	1.405921	-0.709620	0.618423
C38	C	1.410589	-0.636272	0.613767
C39	C	1.453344	-0.967777	0.570980
C40	C	1.448683	-1.041131	0.575633
C41	C	1.583113	-1.041157	0.441262
C42	C	1.587780	-0.967807	0.436617
C43	C	1.522891	-0.931121	0.501471
C44	C	1.466031	-0.821288	0.558322
C45	C	1.527662	-0.856147	0.496707
C46	C	1.770777	-0.338372	0.527696
C47	C	1.887554	-0.338377	0.527702
C48	C	1.496683	-0.338342	0.800648
C49	C	1.496751	-0.338359	0.917426
C50	C	1.508398	-0.155882	0.516027
C51	C	1.513561	-0.077818	0.510778
C52	C	1.496835	-0.338392	0.253650
C53	C	1.496873	-0.338406	0.136875
C54	C	1.636934	-0.248600	0.911684
C55	C	1.707052	-0.203729	0.963674
C56	C	1.707112	-0.203748	1.073397
C57	C	1.637049	-0.248644	1.131132
C58	C	1.566931	-0.293515	1.079142
C59	C	1.566876	-0.293490	0.969416
C60	C	1.426755	-0.383277	1.084884
C61	C	1.426687	-0.383255	0.975161
C62	C	1.356691	-0.428173	1.142620
C63	C	1.286566	-0.473042	1.090629
C64	C	1.286508	-0.473020	0.980900
C65	C	1.356569	-0.428126	0.923171
H66	H	1.190639	-0.428022	0.667979
F67	F	1.661801	-0.928794	0.362633
F68	F	1.122110	-0.156138	0.242573
F69	F	1.601666	-0.817127	0.422721
H70	H	1.636879	-0.248571	0.822341
H71	H	1.085945	-0.509370	0.795239
F72	F	1.392020	-0.860312	0.632303
F73	F	0.765074	-0.428064	0.667998
H74	H	0.886873	-0.509390	0.795259
H75	H	1.349292	-0.739476	0.675017
H76	H	1.229413	-0.509562	0.938575
F77	F	1.636784	-0.248429	1.247893
H78	H	1.229531	-0.509596	1.137646
F79	F	1.356742	-0.428259	0.806404
H80	H	0.803912	-0.248721	0.387414
H81	H	0.908610	-0.167370	0.260140
H82	H	1.356750	-0.428189	1.231962
F83	F	1.229477	-0.248682	0.387389
H84	H	1.601660	-0.606456	0.422803
F85	F	1.341535	-0.597227	0.682792
H86	H	1.593185	-0.739518	0.431244
H87	H	1.635941	-1.071034	0.388461
H88	H	1.392047	-1.070979	0.632241
H89	H	1.764099	-0.167176	0.916657
F90	F	1.384283	-0.928743	0.640004
H91	H	1.764214	-0.167213	1.115727
