data_functionalizedCrystal
_audit_creation_method	'MofGen! by Chris Wilmer'
_symmetry_space_group_name_H-M	'P1'
_symmetry_Int_Tables_number	1
_symmetry_cell_setting	triclinic
loop_
_symmetry_equiv_pos_as_xyz
  x,y,z
_cell_length_a	16.625547
_cell_length_b	12.594516
_cell_length_c	16.625539
_cell_angle_alpha	89.974997
_cell_angle_beta	89.975178
_cell_angle_gamma	90.011753
loop_
_atom_site_label
_atom_site_type_symbol
_atom_site_fract_x
_atom_site_fract_y
_atom_site_fract_z
Zn1	Zn	1.232740	-0.423742	-0.456019
Zn2	Zn	1.566074	-0.090409	-0.122686
Zn3	Zn	1.899407	0.242925	0.210647
Zn4	Zn	1.232668	-0.601743	-0.321194
Zn5	Zn	1.566002	-0.268410	0.012139
Zn6	Zn	1.899335	0.064923	0.345472
Zn7	Zn	1.097902	-0.423779	-0.321190
Zn8	Zn	1.431235	-0.090446	0.012143
Zn9	Zn	1.764569	0.242888	0.345477
Zn10	Zn	1.097897	-0.601679	-0.455974
Zn11	Zn	1.431231	-0.268345	-0.122641
Zn12	Zn	1.764564	0.064988	0.210692
O13	O	1.165302	-0.512736	-0.388594
O14	O	1.498635	-0.179402	-0.055261
O15	O	1.831969	0.153931	0.278072
O16	O	1.345563	-0.447366	-0.438155
O17	O	1.678896	-0.114032	-0.104822
O18	O	2.012230	0.219301	0.228511
O19	O	1.214763	-0.578178	-0.208361
O20	O	1.548097	-0.244845	0.124972
O21	O	1.881430	0.088488	0.458305
O22	O	1.115820	-0.274828	-0.339092
O23	O	1.449154	0.058505	-0.005759
O24	O	1.782487	0.391838	0.327574
O25	O	1.345510	-0.578142	-0.339100
O26	O	1.678844	-0.244809	-0.005767
O27	O	2.012177	0.088524	0.327567
O28	O	1.214886	-0.274801	-0.438151
O29	O	1.548219	0.058532	-0.104818
O30	O	1.881552	0.391866	0.228516
O31	O	1.115751	-0.447429	-0.208358
O32	O	1.449084	-0.114095	0.124975
O33	O	1.782418	0.219238	0.458309
O34	O	0.985069	-0.447366	-0.339049
O35	O	1.318402	-0.114033	-0.005715
O36	O	1.651736	0.219301	0.327618
O37	O	1.115813	-0.578032	-0.568813
O38	O	1.449146	-0.244699	-0.235479
O39	O	1.782479	0.088634	0.097854
O40	O	0.985066	-0.578068	-0.438074
O41	O	1.318399	-0.244735	-0.104741
O42	O	1.651732	0.088598	0.228593
O43	O	1.214881	-0.447303	-0.568846
O44	O	1.548214	-0.113970	-0.235513
O45	O	1.881548	0.219364	0.097821
O46	O	1.214759	-0.750680	-0.339056
O47	O	1.548092	-0.417347	-0.005723
O48	O	1.881426	-0.084014	0.327610
O49	O	1.115743	-0.750633	-0.438078
O50	O	1.449077	-0.417300	-0.104745
O51	O	1.782410	-0.083966	0.228588
C52	C	0.955811	-0.512715	-0.388556
C53	C	1.289145	-0.179382	-0.055223
C54	C	1.622478	0.153952	0.278110
C55	C	0.866190	-0.512732	-0.388559
C56	C	1.199523	-0.179398	-0.055226
C57	C	1.532857	0.153935	0.278107
C58	C	0.793408	-0.512734	-0.388569
C59	C	1.126741	-0.179401	-0.055236
C60	C	1.460074	0.153933	0.278097
C61	C	0.702099	-0.512739	-0.388589
C62	C	1.035433	-0.179406	-0.055256
C63	C	1.368766	0.153927	0.278077
C64	C	0.629323	-0.512749	-0.388610
C65	C	0.962656	-0.179416	-0.055277
C66	C	1.295989	0.153917	0.278057
C67	C	0.538008	-0.512757	-0.388629
C68	C	0.871342	-0.179423	-0.055296
C69	C	1.204675	0.153910	0.278037
C70	C	1.165265	-0.789277	-0.388580
C71	C	1.498598	-0.455943	-0.055247
C72	C	1.831931	-0.122610	0.278086
C73	C	1.165322	-0.907582	-0.388601
C74	C	1.498656	-0.574249	-0.055268
C75	C	1.831989	-0.240915	0.278065
C76	C	1.219240	-0.976822	-0.334801
C77	C	1.552573	-0.643489	-0.001467
C78	C	1.885906	-0.310156	0.331866
C79	C	1.238943	-1.047524	-0.408397
C80	C	1.572276	-0.714190	-0.075063
C81	C	1.905610	-0.380857	0.258270
C82	C	1.145720	-1.047680	-0.315052
C83	C	1.479053	-0.714346	0.018281
C84	C	1.812386	-0.381013	0.351614
C85	C	1.185064	-0.976725	-0.462236
C86	C	1.518397	-0.643392	-0.128903
C87	C	1.851730	-0.310058	0.204431
C88	C	1.091806	-0.976875	-0.368842
C89	C	1.425139	-0.643541	-0.035509
C90	C	1.758473	-0.310208	0.297825
C91	C	1.111482	-1.047544	-0.442489
C92	C	1.444815	-0.714211	-0.109155
C93	C	1.778148	-0.380878	0.224178
C94	C	1.375611	-0.512757	-0.388633
C95	C	1.708944	-0.179424	-0.055300
C96	C	2.042278	0.153909	0.278033
C97	C	1.465232	-0.512766	-0.388650
C98	C	1.798565	-0.179433	-0.055316
C99	C	2.131899	0.153900	0.278017
C100	C	1.165354	-0.512656	-0.598903
C101	C	1.498688	-0.179323	-0.265570
C102	C	1.832021	0.154010	0.067763
C103	C	1.165377	-0.512623	-0.688525
C104	C	1.498710	-0.179289	-0.355191
C105	C	1.832043	0.154044	-0.021858
C106	C	1.165362	-0.235115	-0.388626
C107	C	1.498695	0.098219	-0.055293
C108	C	1.832028	0.431552	0.278040
C109	C	1.165387	-0.116809	-0.388640
C110	C	1.498720	0.216524	-0.055306
C111	C	1.832054	0.549857	0.278027
C112	C	1.165414	-0.512503	-1.016700
C113	C	1.498747	-0.179170	-0.683367
C114	C	1.832081	0.154163	-0.350034
C115	C	1.165401	-0.512540	-0.925392
C116	C	1.498735	-0.179207	-0.592059
C117	C	1.832068	0.154127	-0.258725
C118	C	1.165396	-0.512564	-0.852615
C119	C	1.498729	-0.179230	-0.519282
C120	C	1.832062	0.154103	-0.185949
C121	C	1.165382	-0.512599	-0.761301
C122	C	1.498716	-0.179265	-0.427968
C123	C	1.832049	0.154068	-0.094634
C124	C	1.165296	-0.512738	-0.179104
C125	C	1.498630	-0.179405	0.154230
C126	C	1.831963	0.153929	0.487563
C127	C	1.165430	-0.512472	-0.089483
C128	C	1.498763	-0.179138	0.243850
C129	C	1.832097	0.154195	0.577184
H130	H	1.264843	-0.945768	-0.289344
H131	H	1.598176	-0.612435	0.043989
H132	H	1.931510	-0.279102	0.377322
Br133	Br	1.342615	-1.099223	-0.436307
Br134	Br	1.675948	-0.765890	-0.102973
Br135	Br	2.009281	-0.432557	0.230360
H136	H	1.129113	-1.078846	-0.252837
H137	H	1.462447	-0.745512	0.080496
H138	H	1.795780	-0.412179	0.413830
H139	H	1.201609	-0.945691	-0.524505
H140	H	1.534942	-0.612358	-0.191172
H141	H	1.868275	-0.279024	0.142162
Br142	Br	1.035529	-1.098980	-0.518431
Br143	Br	1.368863	-0.765647	-0.185098
Br144	Br	1.702196	-0.432314	0.148236
Br145	Br	0.988161	-0.925114	-0.340919
Br146	Br	1.321494	-0.591781	-0.007585
Br147	Br	1.654828	-0.258447	0.325748
