data_functionalizedCrystal
_audit_creation_method	'MofGen! by Chris Wilmer'
_symmetry_space_group_name_H-M	'P1'
_symmetry_Int_Tables_number	1
_symmetry_cell_setting	triclinic
loop_
_symmetry_equiv_pos_as_xyz
  x,y,z
_cell_length_a	19.805407
_cell_length_b	17.640280
_cell_length_c	19.805399
_cell_angle_alpha	101.223110
_cell_angle_beta	90.019573
_cell_angle_gamma	78.800112
loop_
_atom_site_label
_atom_site_type_symbol
_atom_site_fract_x
_atom_site_fract_y
_atom_site_fract_z
Zn1	Zn	1.089281	-0.314680	0.328317
Zn2	Zn	1.112106	-0.446853	0.192279
Zn3	Zn	0.976099	-0.314701	0.215138
Zn4	Zn	0.998962	-0.446811	0.305433
O5	O	1.044112	-0.380761	0.260292
O6	O	1.187026	-0.332221	0.310282
O7	O	1.094048	-0.429350	0.100590
O8	O	0.971992	-0.204095	0.249296
O9	O	1.203796	-0.429329	0.210335
O10	O	1.055146	-0.204079	0.332448
O11	O	0.994125	-0.332258	0.117385
O12	O	0.884414	-0.332218	0.227105
O13	O	1.010958	-0.429257	0.403190
O14	O	0.901211	-0.429278	0.293444
O15	O	1.077315	-0.332180	0.420003
O16	O	1.116217	-0.557452	0.188145
O17	O	1.033091	-0.557421	0.271278
C18	C	0.868253	-0.380746	0.260272
C19	C	0.793023	-0.380759	0.260277
C20	C	0.766456	-0.431374	0.294736
C21	C	0.695768	-0.431376	0.294746
C22	C	0.651649	-0.380765	0.260291
C23	C	0.678220	-0.330144	0.225831
C24	C	0.748906	-0.330139	0.225826
C25	C	0.393149	-0.330161	0.225850
C26	C	0.322459	-0.330172	0.225856
C27	C	0.340012	-0.431398	0.294770
C28	C	0.410698	-0.431393	0.294765
C29	C	0.437262	-0.380770	0.260308
C30	C	0.513910	-0.380768	0.260299
C31	C	0.575003	-0.380770	0.260295
C32	C	1.079630	-0.586114	0.224762
C33	C	1.094887	-0.673965	0.209586
C34	C	0.928484	-0.962953	0.375835
C35	C	0.942822	-1.045502	0.361553
C36	C	1.029435	-1.045469	0.275073
C37	C	1.015107	-0.962918	0.289351
C38	C	0.964630	-0.921667	0.339732
C39	C	1.051253	-0.921632	0.253247
C40	C	1.036924	-0.839088	0.267522
C41	C	0.986448	-0.797831	0.317899
C42	C	0.950301	-0.839123	0.354006
C43	C	1.101726	-0.962885	0.202863
C44	C	1.137872	-0.921598	0.166760
C45	C	1.123546	-0.839053	0.181037
C46	C	1.073071	-0.797796	0.231415
C47	C	1.159693	-0.797761	0.144930
C48	C	1.145364	-0.715217	0.159204
C49	C	1.058741	-0.715252	0.245689
C50	C	1.220657	-0.380777	0.260311
C51	C	1.295890	-0.380784	0.260320
C52	C	1.044141	-0.380712	0.436843
C53	C	1.044154	-0.380690	0.512079
C54	C	1.008473	-0.174606	0.295974
C55	C	0.993286	-0.086756	0.311180
C56	C	1.044112	-0.380754	0.084437
C57	C	1.044192	-0.380553	0.009240
C58	C	1.078706	-0.330140	0.556179
C59	C	1.078709	-0.330117	0.626872
C60	C	1.044163	-0.380649	0.653462
C61	C	1.009606	-0.431202	0.609356
C62	C	1.009600	-0.431220	0.538666
C63	C	1.009632	-0.431128	0.894442
C64	C	1.009643	-0.431107	0.965138
C65	C	1.078741	-0.330025	0.982648
C66	C	1.078735	-0.330043	0.911958
C67	C	1.044175	-0.380593	0.867859
C68	C	1.044171	-0.380616	0.791206
C69	C	1.044171	-0.380631	0.730112
H70	H	0.414770	-0.288946	0.197787
C71	C	1.116751	-0.274411	1.031160
C72	C	1.116759	-0.274381	1.108918
C73	C	1.154770	-0.218771	1.157427
C74	C	1.192773	-0.163191	1.128178
C75	C	1.192767	-0.163220	1.050416
C76	C	1.154756	-0.218830	1.001907
H77	H	1.088626	-0.315526	1.130574
H78	H	1.154775	-0.218750	1.214993
H79	H	1.220911	-0.122026	1.164087
H80	H	1.220900	-0.122075	1.028760
H81	H	1.154751	-0.218851	0.944342
H82	H	0.674141	-0.472593	0.322805
C83	C	1.193396	-0.966980	0.111344
C84	C	1.173962	-1.023781	0.048353
C85	C	1.229488	-1.069162	-0.007062
C86	C	1.304448	-1.057743	0.000514
C87	C	1.323885	-1.000940	0.063507
C88	C	1.268359	-0.955559	0.118922
H89	H	1.118469	-1.032236	0.042742
H90	H	1.215099	-1.111211	-0.053694
H91	H	1.345551	-1.091337	-0.040508
H92	H	1.379377	-0.992485	0.069118
H93	H	1.282748	-0.913510	0.165554
C94	C	1.116733	-0.274456	0.882709
C95	C	1.175789	-0.308719	0.828191
C96	C	1.213784	-0.253127	0.798944
C97	C	1.192724	-0.163272	0.824214
C98	C	1.133665	-0.129005	0.878734
C99	C	1.095670	-0.184597	0.907982
H100	H	1.191381	-0.375239	0.809482
H101	H	1.257504	-0.278495	0.758584
H102	H	1.220851	-0.122120	0.802563
H103	H	1.118073	-0.062485	0.897443
H104	H	1.051950	-0.159229	0.948342
H105	H	0.770534	-0.288918	0.197770
C106	C	1.215212	-0.843145	0.089510
C107	C	1.195768	-0.899940	0.026521
C108	C	1.251287	-0.945324	-0.028901
C109	C	1.326249	-0.933912	-0.021333
C110	C	1.345696	-0.877114	0.041658
C111	C	1.290178	-0.831730	0.097080
H112	H	1.140274	-0.908390	0.020917
H113	H	1.236891	-0.987369	-0.075531
H114	H	1.367347	-0.967507	-0.062360
H115	H	1.401191	-0.868664	0.047262
H116	H	1.304574	-0.789685	0.143710
H117	H	0.642291	-0.288932	0.197781
H118	H	1.106847	-0.288956	0.662776
H119	H	0.802375	-0.472590	0.322791
H120	H	1.174797	-0.681601	0.129804
C121	C	1.003217	-0.669863	0.301109
C122	C	0.928255	-0.681278	0.293538
C123	C	0.872732	-0.635888	0.348953
C124	C	0.892171	-0.579083	0.411938
C125	C	0.967135	-0.567666	0.419511
C126	C	1.022658	-0.613056	0.364096
H127	H	0.913863	-0.723331	0.246911
H128	H	0.817239	-0.644340	0.343347
H129	H	0.851069	-0.545482	0.452959
H130	H	0.981528	-0.525613	0.466138
H131	H	1.078152	-0.604604	0.369703
C132	C	0.971633	-0.486690	0.994389
C133	C	0.933615	-0.542289	0.945885
C134	C	0.895608	-0.597868	0.975137
C135	C	0.895619	-0.597847	1.052894
C136	C	0.933639	-0.542246	1.101403
C137	C	0.971646	-0.486667	1.072150
H138	H	0.933605	-0.542306	0.888320
H139	H	0.867463	-0.639028	0.939227
H140	H	0.867484	-0.638990	1.074548
H141	H	0.933649	-0.542229	1.158967
H142	H	0.999791	-0.445508	1.108061
H143	H	0.981455	-0.472375	0.502760
H144	H	0.981503	-0.472300	0.858543
C145	C	1.116708	-0.274553	0.526933
C146	C	1.095649	-0.184698	0.552205
C147	C	1.133650	-0.129108	0.522962
C148	C	1.192708	-0.163371	0.468447
C149	C	1.213769	-0.253230	0.443173
C150	C	1.175769	-0.308821	0.472416
H151	H	1.051928	-0.159330	0.592563
H152	H	1.118059	-0.062588	0.541672
H153	H	1.220839	-0.122220	0.446800
H154	H	1.257491	-0.278599	0.402815
H155	H	1.191360	-0.375341	0.453706
H156	H	1.113393	-1.030097	0.191244
C157	C	0.971605	-0.486788	0.638602
C158	C	0.971614	-0.486775	0.716358
C159	C	0.933613	-0.542365	0.745602
C160	C	0.895604	-0.597969	0.697091
C161	C	0.895594	-0.597984	0.619330
C162	C	0.933594	-0.542394	0.590086
H163	H	0.999751	-0.445612	0.752273
H164	H	0.933621	-0.542353	0.803165
H165	H	0.867474	-0.639120	0.718739
H166	H	0.867456	-0.639147	0.583415
H167	H	0.933587	-0.542406	0.532523
H168	H	0.446618	-0.472609	0.322819
H169	H	0.286537	-0.288953	0.197799
C170	C	0.310788	-0.487079	0.332682
C171	C	0.233037	-0.487087	0.332696
C172	C	0.203816	-0.542769	0.370605
C173	C	0.252347	-0.598442	0.408500
C174	C	0.330103	-0.598436	0.408487
C175	C	0.359324	-0.542755	0.370578
H176	H	0.197107	-0.445873	0.304642
H177	H	0.146255	-0.542773	0.370614
H178	H	0.230716	-0.639661	0.436562
H179	H	0.366033	-0.639651	0.436541
H180	H	0.416885	-0.542751	0.370569
C181	C	0.894779	-0.793734	0.409429
C182	C	0.831820	-0.737047	0.389849
C183	C	0.776301	-0.691656	0.445268
C184	C	0.783741	-0.702954	0.520266
C185	C	0.846702	-0.759644	0.539848
C186	C	0.902221	-0.805034	0.484430
H187	H	0.826310	-0.728682	0.334328
H188	H	0.729693	-0.649691	0.430771
H189	H	0.742642	-0.669353	0.561290
H190	H	0.852212	-0.768009	0.595369
H191	H	0.948829	-0.847000	0.498927
C192	C	0.872962	-0.917565	0.431258
C193	C	0.810003	-0.860877	0.411678
C194	C	0.754484	-0.815487	0.467097
C195	C	0.761924	-0.826784	0.542095
C196	C	0.824885	-0.883474	0.561677
C197	C	0.880404	-0.928864	0.506259
H198	H	0.804494	-0.852512	0.356157
H199	H	0.707876	-0.773521	0.452600
H200	H	0.720825	-0.793183	0.583119
H201	H	0.830395	-0.891839	0.617198
H202	H	0.927013	-0.970830	0.520756
C203	C	0.903058	-1.090918	0.401271
C204	C	0.847536	-1.045540	0.456686
C205	C	0.807772	-1.090956	0.496401
C206	C	0.823529	-1.181751	0.480702
C207	C	0.879054	-1.227135	0.425284
C208	C	0.918818	-1.181718	0.385569
H209	H	0.835870	-0.978323	0.468310
H210	H	0.766670	-1.057359	0.537425
H211	H	0.794094	-1.215371	0.510101
H212	H	0.890721	-1.294351	0.413660
H213	H	0.959921	-1.215315	0.344546
H214	H	0.974777	-0.730618	0.329515
H215	H	1.070531	-1.079067	0.234051
