data_functionalizedCrystal
_audit_creation_method	'MofGen! by Chris Wilmer'
_symmetry_space_group_name_H-M	'P1'
_symmetry_Int_Tables_number	1
_symmetry_cell_setting	triclinic
loop_
_symmetry_equiv_pos_as_xyz
  x,y,z
_cell_length_a	10.654550
_cell_length_b	14.519709
_cell_length_c	9.130313
_cell_angle_alpha	89.997798
_cell_angle_beta	89.996220
_cell_angle_gamma	84.082524
loop_
_atom_site_label
_atom_site_type_symbol
_atom_site_fract_x
_atom_site_fract_y
_atom_site_fract_z
O1	O	1.666589	0.129528	-0.121923
O2	O	1.300991	0.141869	-0.121900
O3	O	1.493483	0.001510	-0.121899
O4	O	1.474097	0.269887	-0.121924
O5	O	1.493481	0.001514	0.121700
O6	O	1.300989	0.141873	0.121699
O7	O	1.666586	0.129532	0.121676
Cu8	Cu	1.483787	0.135703	0.143930
Cu9	Cu	1.483790	0.135698	-0.144154
O10	O	1.474094	0.269891	0.121675
C11	C	1.254201	0.140965	-0.000098
C12	C	1.114784	0.138254	-0.000088
C13	C	1.034504	0.220895	-0.000117
C14	C	0.903507	0.218342	-0.000143
C15	C	0.933085	0.050500	-0.000116
C16	C	1.064078	0.053054	-0.000080
C17	C	1.085209	0.306095	-0.000126
C18	C	1.004928	0.388743	-0.000157
C19	C	0.873931	0.386190	-0.000182
C20	C	0.823217	0.300989	-0.000176
C21	C	1.492579	-0.032852	-0.000099
C22	C	1.489871	-0.135247	-0.000098
C23	C	1.479904	-0.510195	-0.000136
C24	C	1.482672	-0.405873	-0.000125
C25	C	1.484887	-0.322725	-0.000116
C26	C	1.487656	-0.218396	-0.000108
C27	C	1.713377	0.130436	-0.000130
C28	C	1.852794	0.133147	-0.000149
C29	C	1.474999	0.304253	-0.000128
C30	C	1.477707	0.406648	-0.000139
N31	N	1.483795	0.135705	0.346552
N32	N	1.483793	0.135688	-0.346777
C33	C	1.569052	0.073576	0.423205
C34	C	1.569048	0.073565	0.576542
C35	C	1.398527	0.197821	0.576560
C36	C	1.398525	0.197827	0.423226
C37	C	1.654321	0.011454	0.346531
C38	C	1.739586	-0.050679	0.423184
C39	C	1.739583	-0.050691	0.576520
C40	C	1.654315	0.011432	0.653205
H41	H	0.808569	0.453485	-0.000192
O42	O	1.822317	-0.110968	0.348473
C43	C	1.803997	-0.097671	0.196698
H44	H	1.757281	-0.024652	0.175746
H45	H	1.899061	-0.107335	0.138391
H46	H	1.740839	-0.150272	0.153228
H47	H	1.046228	0.458110	-0.000149
O48	O	0.695958	0.298554	-0.000456
C49	C	0.644106	0.343752	-0.126613
H50	H	0.719875	0.343744	-0.214776
H51	H	0.562853	0.305884	-0.168979
H52	H	0.607660	0.418173	-0.098101
H53	H	0.891782	-0.018867	-0.000135
H54	H	1.129445	-0.014240	-0.000060
H55	H	1.654334	0.011460	0.221677
O56	O	1.822347	-0.111173	0.650821
C57	C	1.801725	-0.202608	0.613371
H58	H	1.753320	-0.202819	0.502044
H59	H	1.896023	-0.247376	0.608114
H60	H	1.739158	-0.231564	0.699671
O61	O	1.654507	0.011321	0.802157
C62	C	1.748012	-0.056860	0.853375
H63	H	1.822791	-0.072427	0.765012
H64	H	1.793812	-0.030578	0.955965
H65	H	1.703045	-0.122708	0.880565
H66	H	1.329100	0.248417	0.360815
H67	H	1.329106	0.248400	0.639006
H68	H	1.191871	0.308183	-0.000112
