data_functionalizedCrystal
_audit_creation_method	'MofGen! by Chris Wilmer'
_symmetry_space_group_name_H-M	'P1'
_symmetry_Int_Tables_number	1
_symmetry_cell_setting	triclinic
loop_
_symmetry_equiv_pos_as_xyz
  x,y,z
_cell_length_a	12.759401
_cell_length_b	16.120256
_cell_length_c	12.759400
_cell_angle_alpha	92.877147
_cell_angle_beta	90.013728
_cell_angle_gamma	92.881458
loop_
_atom_site_label
_atom_site_type_symbol
_atom_site_fract_x
_atom_site_fract_y
_atom_site_fract_z
Zn1	Zn	1.576121	-0.471337	-0.448456
Zn2	Zn	1.584928	-0.331931	-0.615235
Zn3	Zn	1.409335	-0.331947	-0.439569
Zn4	Zn	1.400413	-0.471306	-0.624088
O5	O	1.492699	-0.401630	-0.531837
O6	O	1.724310	-0.452851	-0.470594
O7	O	1.569055	-0.215269	-0.584508
O8	O	1.431507	-0.350456	-0.293728
O9	O	1.730780	-0.350430	-0.593126
O10	O	1.554044	-0.452865	-0.300257
O11	O	1.440047	-0.215281	-0.455447
O12	O	1.261131	-0.350426	-0.464032
O13	O	1.416302	-0.587974	-0.608215
O14	O	1.254576	-0.452813	-0.599597
O15	O	1.545393	-0.587996	-0.479178
O16	O	1.560404	-0.350401	-0.763429
O17	O	1.424842	-0.452798	-0.769934
C18	C	1.219733	-0.401619	-0.531812
C19	C	1.102955	-0.401633	-0.531827
C20	C	1.044711	-0.455046	-0.468157
C21	C	0.934987	-0.455051	-0.468178
C22	C	0.941760	-0.348229	-0.595548
C23	C	1.051482	-0.348220	-0.595521
C24	C	1.040800	-0.516722	-0.394624
C25	C	0.931076	-0.516727	-0.394645
C26	C	1.478870	-0.619081	-0.545675
C27	C	1.472977	-0.711745	-0.551572
C28	C	1.523429	-0.922703	-0.501058
C29	C	1.462182	-0.881399	-0.562295
C30	C	1.468190	-0.786995	-0.556327
C31	C	1.517423	-1.017115	-0.507025
C32	C	1.766732	-0.401642	-0.531863
C33	C	1.883508	-0.401647	-0.531875
C34	C	1.492638	-0.401613	-0.804803
C35	C	1.492706	-0.401633	-0.921581
C36	C	1.506535	-0.185026	-0.517977
C37	C	1.512632	-0.092362	-0.511784
C38	C	1.563364	-0.348374	-0.973025
C39	C	1.563427	-0.348399	-1.082751
C40	C	1.422165	-0.454947	-1.089579
C41	C	1.422108	-0.454924	-0.979856
C42	C	1.644918	-0.286857	-0.969084
C43	C	1.644981	-0.286882	-1.078810
C44	C	1.492788	-0.401666	-0.257806
C45	C	1.492826	-0.401681	-0.141030
H46	H	1.070947	-0.578012	-0.427787
H47	H	1.098901	-0.304718	-0.647357
C48	C	1.621193	-0.199652	-1.113570
H49	H	1.621248	-0.199671	-1.188029
H50	H	1.554313	-0.185177	-1.087905
H51	H	1.673361	-0.160293	-1.086233
H52	H	0.899837	-0.304741	-0.647405
H53	H	0.898506	-0.493716	-0.315841
C54	C	1.385256	-0.929398	-0.639182
H55	H	1.347615	-0.891067	-0.676816
H56	H	1.423314	-0.963376	-0.687064
H57	H	1.337366	-0.963358	-0.601090
H58	H	1.071666	-0.499540	-0.312119
C59	C	0.885311	-0.603904	-0.429848
H60	H	0.940948	-0.639751	-0.444321
H61	H	0.842581	-0.625451	-0.375596
H62	H	0.844183	-0.600288	-0.491373
C63	C	1.344397	-0.513517	-0.923266
H64	H	1.354479	-0.505879	-0.849573
H65	H	1.274604	-0.501283	-0.940528
H66	H	1.356183	-0.569546	-0.944775
H67	H	1.580372	-0.887166	-0.444155
C68	C	1.344508	-0.513558	-1.153683
H69	H	1.354657	-0.505941	-1.226399
H70	H	1.356253	-0.569579	-1.139222
H71	H	1.274695	-0.501299	-1.134985
H72	H	1.720802	-0.310063	-1.114242
C73	C	1.753298	-0.310290	-0.930245
H74	H	1.797907	-0.319950	-0.988731
H75	H	1.783167	-0.266112	-0.886074
H76	H	1.745678	-0.359280	-0.891981
C77	C	1.610883	-0.203966	-0.917900
H78	H	1.595771	-0.167067	-0.971034
H79	H	1.549969	-0.213822	-0.876661
H80	H	1.665927	-0.179864	-0.874437
