data_functionalizedCrystal
_audit_creation_method	'MofGen! by Chris Wilmer'
_symmetry_space_group_name_H-M	'P1'
_symmetry_Int_Tables_number	1
_symmetry_cell_setting	triclinic
loop_
_symmetry_equiv_pos_as_xyz
  x,y,z
_cell_length_a	16.992695
_cell_length_b	15.021413
_cell_length_c	16.974813
_cell_angle_alpha	93.653153
_cell_angle_beta	87.024397
_cell_angle_gamma	89.991535
loop_
_atom_site_label
_atom_site_type_symbol
_atom_site_fract_x
_atom_site_fract_y
_atom_site_fract_z
O1	O	1.040197	0.086072	0.167642
O2	O	0.811913	0.085949	0.165803
O3	O	0.932420	0.077743	0.052022
O4	O	0.919690	0.094279	0.281423
O5	O	0.932434	-0.070321	0.052030
O6	O	0.811927	-0.062115	0.165811
O7	O	1.040211	-0.061992	0.167650
Zn8	Zn	0.926071	-0.085561	0.166732
Zn9	Zn	0.926053	0.109519	0.166721
O10	O	0.919704	-0.053785	0.281431
C11	C	0.782710	0.011748	0.163441
C12	C	0.695674	0.011243	0.156381
N13	N	0.926090	-0.218698	0.166739
C14	C	0.931943	0.001587	0.022537
C15	C	0.930492	-0.004741	-0.065331
C16	C	1.069414	0.012211	0.170012
C17	C	1.156450	0.012722	0.177072
C18	C	1.206765	0.007815	0.108956
C19	C	1.288544	0.008291	0.115594
C20	C	1.320007	0.013679	0.190348
C21	C	1.269686	0.018584	0.258469
C22	C	1.187908	0.018102	0.251830
C23	C	1.563575	0.015666	0.217863
C24	C	1.645359	0.016150	0.224496
C25	C	1.664212	0.005855	0.081621
C26	C	1.582431	0.005379	0.074989
C27	C	1.532117	0.010279	0.143110
N28	N	1.403599	0.014168	0.197135
N29	N	1.448528	0.009784	0.136322
C30	C	0.981823	-0.462153	0.114115
C31	C	0.910994	-0.522909	0.094283
C32	C	0.926071	-0.400306	0.166728
C33	C	0.996883	-0.516296	0.186513
C34	C	0.926060	-0.575731	0.166716
C35	C	0.855206	-0.459758	0.146859
C36	C	0.941142	-0.453137	0.239122
C37	C	0.870262	-0.513864	0.219318
C38	C	0.926079	-0.299248	0.166733
C39	C	0.926044	-0.676787	0.166711
N40	N	0.926041	0.242655	0.166708
C41	C	0.929805	0.072995	-0.106612
C42	C	0.928436	0.067047	-0.189173
C43	C	0.927761	-0.016639	-0.230452
C44	C	0.928446	-0.094380	-0.189166
C45	C	0.929809	-0.088431	-0.106606
C46	C	0.923680	-0.043086	-0.477369
C47	C	0.922319	-0.049030	-0.559935
C48	C	0.922308	0.112398	-0.559937
C49	C	0.923676	0.118340	-0.477376
C50	C	0.924357	0.040598	-0.436096
N51	N	0.926364	-0.022721	-0.314843
N52	N	0.925747	0.046681	-0.351706
C53	C	0.920181	0.022372	0.310916
C54	C	0.921632	0.028706	0.398784
H55	H	1.181154	0.003433	0.048084
N56	N	0.780065	-0.428682	0.125761
N57	N	0.775008	-0.384910	0.066011
H58	H	0.721941	-0.362960	0.051108
H59	H	1.329508	0.004291	0.060127
H60	H	0.927891	-0.162519	-0.222781
H61	H	0.953922	-0.422644	0.300332
H62	H	1.556821	0.000991	0.014117
H63	H	1.705185	0.001864	0.026162
H64	H	1.522619	0.019660	0.273332
H65	H	0.823059	-0.536527	0.263806
H66	H	1.295310	0.022966	0.319335
N67	N	1.136510	0.023098	0.321408
N68	N	1.139341	-0.035818	0.369980
H69	H	1.103041	-0.032296	0.419121
H70	H	1.670973	0.020525	0.285373
N71	N	0.924397	-0.122493	-0.435209
N72	N	0.980400	-0.137459	-0.392937
H73	H	0.980908	-0.193543	-0.363157
H74	H	1.028921	-0.439327	0.069592
H75	H	0.898236	-0.553384	0.033056
H76	H	1.056772	-0.541179	0.203251
H77	H	0.930359	0.141141	-0.073008
H78	H	0.930358	-0.151732	-0.072995
N79	N	0.927728	0.146461	-0.231327
N80	N	0.928334	0.221175	-0.194462
H81	H	0.927832	0.277266	-0.224232
H82	H	0.924227	0.186485	-0.443772
N83	N	0.921614	0.191795	-0.602116
N84	N	0.920399	0.186477	-0.675829
H85	H	0.919907	0.242555	-0.705619
N86	N	0.921624	-0.134524	-0.602090
N87	N	0.922228	-0.203929	-0.565225
H88	H	0.921736	-0.264308	-0.594996
