data_functionalizedCrystal
_audit_creation_method	'MofGen! by Chris Wilmer'
_symmetry_space_group_name_H-M	'P1'
_symmetry_Int_Tables_number	1
_symmetry_cell_setting	triclinic
loop_
_symmetry_equiv_pos_as_xyz
  x,y,z
_cell_length_a	34.408637
_cell_length_b	34.407814
_cell_length_c	34.404193
_cell_angle_alpha	60.004510
_cell_angle_beta	60.009006
_cell_angle_gamma	59.994604
loop_
_atom_site_label
_atom_site_type_symbol
_atom_site_fract_x
_atom_site_fract_y
_atom_site_fract_z
O1	O	0.053973	-0.567860	0.474801
O2	O	0.020377	-0.442124	0.382567
O3	O	0.100004	-0.521670	0.382483
O4	O	-0.025653	-0.488314	0.474886
O5	O	0.126426	-0.495253	0.408816
O6	O	0.046800	-0.415707	0.408900
O7	O	0.080396	-0.541443	0.501134
Zn8	Zn	0.067793	-0.474381	0.459198
Zn9	Zn	0.032980	-0.509186	0.424503
O10	O	0.000769	-0.461897	0.501219
N11	N	0.091552	-0.450631	0.482879
N12	N	0.009225	-0.532940	0.400823
C13	C	0.142848	-0.268847	0.534081
C14	C	0.142979	-0.399386	0.664559
C15	C	0.142862	-0.399365	0.534081
C16	C	0.273409	-0.399338	0.533986
C17	C	0.157225	-0.311914	0.548422
C18	C	0.157300	-0.385019	0.621491
C19	C	0.230339	-0.384991	0.548370
C20	C	0.157235	-0.385007	0.548422
C21	C	0.124548	-0.214028	0.515827
C22	C	0.124571	-0.417639	0.515827
C23	C	0.175526	-0.366733	0.566676
C24	C	0.353121	-0.385580	0.491988
C25	C	0.402952	-0.402180	0.475348
C26	C	0.402981	-0.482812	0.506096
C27	C	0.353151	-0.466211	0.522737
C28	C	0.136544	-0.189099	0.466839
C29	C	0.119905	-0.139265	0.450247
C30	C	0.079280	-0.139291	0.531632
C31	C	0.095918	-0.189125	0.548224
C32	C	0.075577	-0.405615	0.527900
C33	C	0.058953	-0.422228	0.511301
C34	C	0.140315	-0.462889	0.470566
C35	C	0.156941	-0.446276	0.487159
C36	C	0.075772	-0.405653	0.744326
C37	C	0.059206	-0.422280	0.794159
C38	C	0.140607	-0.462951	0.794094
C39	C	0.157172	-0.446325	0.744260
C40	C	0.124753	-0.417674	0.719377
C41	C	0.328223	-0.417595	0.515681
C42	C	-0.172390	-0.583988	0.349141
C43	C	-0.041751	-0.584138	0.218783
C44	C	-0.041941	-0.584130	0.349402
C45	C	-0.041957	-0.714607	0.349338
C46	C	-0.129326	-0.598388	0.334853
C47	C	-0.056165	-0.598473	0.261852
C48	C	-0.056282	-0.671535	0.334962
C49	C	-0.056272	-0.598469	0.334999
C50	C	-0.227205	-0.565659	0.367327
C51	C	-0.023703	-0.565882	0.367734
C52	C	-0.074511	-0.616717	0.316667
C53	C	-0.055754	-0.794298	0.391257
C54	C	-0.039181	-0.844132	0.407888
C55	C	0.041447	-0.844215	0.377269
C56	C	0.024873	-0.794381	0.360637
C57	C	-0.252183	-0.577666	0.416302
C58	C	-0.302014	-0.561001	0.432833
C59	C	-0.301886	-0.520329	0.351410
C60	C	-0.252055	-0.536994	0.334880
C61	C	-0.035709	-0.516892	0.355682
C62	C	-0.019129	-0.500308	0.372353
C63	C	0.021465	-0.581700	0.413115
C64	C	0.004884	-0.598286	0.396450
C65	C	-0.035389	-0.516907	0.139026
C66	C	-0.018707	-0.500324	0.089193
C67	C	0.021949	-0.581721	0.089240
C68	C	0.005268	-0.598303	0.139074
C69	C	-0.023402	-0.565894	0.163965
C70	C	-0.023728	-0.769425	0.367633
N71	N	0.427173	-0.450553	0.482630
O72	O	0.589997	-0.458460	0.365361
O73	O	0.590185	-0.550997	0.490963
O74	O	0.590104	-0.550786	0.411309
O75	O	0.590077	-0.458671	0.445016
O76	O	0.510940	-0.524462	0.437777
O77	O	0.511020	-0.524674	0.517432
O78	O	0.510832	-0.432136	0.391830
Zn79	Zn	0.498357	-0.474225	0.458833
Zn80	Zn	0.602660	-0.508908	0.423960
O81	O	0.510913	-0.432348	0.471484
N82	N	0.673844	-0.532580	0.400158
N83	N	0.091520	-0.115070	0.482873
O84	O	-0.025663	0.047841	0.474857
O85	O	0.099940	0.047877	0.382299
O86	O	0.020247	0.047844	0.382560
O87	O	0.054030	0.047874	0.474596
O88	O	0.046674	-0.031326	0.408942
O89	O	0.126367	-0.031293	0.408680
O90	O	0.000764	-0.031329	0.501238
Zn91	Zn	0.067761	-0.043881	0.459148
Zn92	Zn	0.032943	0.060429	0.424389
O93	O	0.080457	-0.031296	0.500977
N94	N	0.009178	0.131618	0.400665
N95	N	0.091852	-0.450680	0.818332
O96	O	0.083862	-0.567845	0.981235
O97	O	-0.008657	-0.442198	0.981276
O98	O	-0.008441	-0.521875	0.981252
O99	O	0.083646	-0.488168	0.981258
O100	O	0.017919	-0.495468	0.902085
O101	O	0.017703	-0.415791	0.902109
O102	O	0.110222	-0.541438	0.902067
Zn103	Zn	0.068148	-0.474422	0.889518
Zn104	Zn	0.033417	-0.509214	0.993825
O105	O	0.110006	-0.461761	0.902091
N106	N	0.009712	-0.532961	1.065011
C107	C	0.030439	-0.413071	0.383027
C108	C	0.129046	-0.511580	0.382922
C109	C	0.070334	-0.570496	0.500675
C110	C	-0.028274	-0.471987	0.500780
C111	C	0.550625	-0.550579	0.520021
C112	C	0.550527	-0.550317	0.421379
C113	C	0.550389	-0.432554	0.362773
C114	C	0.550491	-0.432816	0.461414
C115	C	0.128944	0.008394	0.382712
C116	C	0.030287	0.008256	0.383068
C117	C	-0.028273	0.008252	0.500793
C118	C	0.070417	0.008292	0.500470
C119	C	-0.008218	-0.413165	0.941698
C120	C	-0.007945	-0.511830	0.941653
C121	C	0.109783	-0.570471	0.941646
C122	C	0.109516	-0.471800	0.941673
H123	H	0.019320	-0.412483	0.814467
C124	C	-0.106433	-0.415956	0.522942
C125	C	-0.076992	-0.462395	0.539954
H126	H	-0.136508	-0.410034	0.547128
H127	H	-0.110599	-0.412382	0.495905
H128	H	-0.092161	-0.393958	0.514263
H129	H	-0.091262	-0.484394	0.548630
H130	H	-0.072828	-0.465974	0.566999
H131	H	0.138832	-0.606554	0.941627
C132	C	-0.057899	-0.559829	0.982279
C133	C	-0.046985	-0.521547	0.941605
H134	H	-0.081998	-0.565830	0.982247
H135	H	-0.068908	-0.552282	1.009896
H136	H	-0.030191	-0.587342	0.982275
H137	H	-0.074691	-0.494034	0.941611
H138	H	-0.035976	-0.529093	0.913981
C139	C	0.550724	-0.630538	0.568775
C140	C	0.550698	-0.589800	0.568717
H141	H	0.550767	-0.654750	0.598839
H142	H	0.578315	-0.641427	0.544539
H143	H	0.523102	-0.623064	0.562994
H144	H	0.578322	-0.597273	0.574494
H145	H	0.523104	-0.578910	0.592960
H146	H	0.023050	0.008252	0.354152
H147	H	0.164941	0.008624	0.353583
H148	H	0.550540	-0.579254	0.414165
C149	C	-0.087293	-0.370611	0.982411
C150	C	-0.047433	-0.364452	0.941712
H151	H	-0.111503	-0.340537	0.982417
H152	H	-0.078633	-0.384851	1.010011
H153	H	-0.098779	-0.390615	0.982402
H154	H	-0.035945	-0.344451	0.941724
H155	H	-0.056094	-0.350205	0.914105
H156	H	0.081021	-0.864532	0.371574
C157	C	0.550291	-0.410283	0.284609
C158	C	0.550310	-0.393330	0.314079
H159	H	0.550245	-0.386068	0.254547
H160	H	0.522704	-0.418958	0.298874
H161	H	0.577917	-0.437317	0.280413
H162	H	0.522682	-0.366298	0.318278
H163	H	0.577900	-0.384649	0.299810
H164	H	0.550485	-0.403881	0.468626
C165	C	0.186287	-0.559426	0.332782
C166	C	0.177765	-0.521173	0.343749
H167	H	0.216365	-0.565349	0.308601
H168	H	0.162072	-0.551895	0.321863
H169	H	0.186210	-0.586978	0.360446
H170	H	0.177839	-0.493619	0.316086
H171	H	0.201987	-0.528701	0.354666
C172	C	-0.195950	-0.565352	0.269034
C173	C	-0.224600	-0.523797	0.281044
H174	H	-0.178998	-0.557203	0.235798
H175	H	-0.215397	-0.582226	0.277162
H176	H	-0.174019	-0.584807	0.285993
H177	H	-0.246533	-0.504344	0.264088
H178	H	-0.205152	-0.506917	0.272911
H179	H	0.138447	-0.464586	0.941669
C180	C	0.091126	-0.654911	0.523628
C181	C	0.080018	-0.619255	0.539784
H182	H	0.097101	-0.685012	0.547774
H183	H	0.118647	-0.654773	0.495945
H184	H	0.065157	-0.649132	0.516215
H185	H	0.105988	-0.625032	0.547194
H186	H	0.052494	-0.619394	0.567476
H187	H	-0.064344	0.008241	0.529850
C188	C	0.039644	0.008291	0.580352
C189	C	0.080180	0.008301	0.539507
H190	H	0.045671	0.008300	0.604450
H191	H	0.032102	-0.019322	0.591354
H192	H	0.013669	0.035895	0.572953
H193	H	0.106155	-0.019305	0.546906
H194	H	0.087728	0.035917	0.528504
C195	C	-0.006356	-0.367120	0.749401
C196	C	0.040135	-0.374159	0.716977
H197	H	-0.028356	-0.347681	0.732515
H198	H	-0.011125	-0.351910	0.768834
H199	H	-0.011119	-0.396997	0.768837
H200	H	0.044899	-0.344283	0.697544
H201	H	0.044905	-0.389369	0.697536
H202	H	0.196836	-0.456064	0.477324
C203	C	0.222734	-0.501484	0.789024
C204	C	0.176242	-0.494442	0.821446
H205	H	0.244732	-0.520932	0.805911
H206	H	0.227501	-0.471613	0.769594
H207	H	0.227499	-0.516691	0.769584
H208	H	0.171475	-0.479232	0.840883
H209	H	0.171473	-0.524318	0.840884
H210	H	0.197059	-0.456117	0.723950
H211	H	0.049217	-0.382297	0.551240
H212	H	0.166679	-0.486211	0.447227
C213	C	-0.015479	-0.425941	0.574135
C214	C	0.005098	-0.409020	0.524571
H215	H	-0.048726	-0.417790	0.582327
H216	H	-0.010216	-0.411946	0.588121
H217	H	-0.001456	-0.459564	0.585571
H218	H	-0.008923	-0.375396	0.513136
H219	H	-0.000169	-0.423012	0.510580
C220	C	0.337816	-0.524616	0.518541
C221	C	0.325788	-0.501408	0.548777
H222	H	0.320922	-0.546345	0.534616
H223	H	0.371058	-0.541453	0.509642
H224	H	0.329618	-0.501790	0.490863
H225	H	0.333990	-0.524234	0.576454
H226	H	0.292538	-0.484571	0.557682
C227	C	0.459069	-0.553466	0.540732
C228	C	0.430384	-0.536250	0.513848
H229	H	0.475990	-0.586457	0.545514
H230	H	0.439650	-0.548852	0.570674
H231	H	0.481027	-0.536770	0.524235
H232	H	0.408424	-0.552944	0.530346
H233	H	0.449805	-0.540868	0.483900
H234	H	0.423225	-0.376108	0.456057
H235	H	0.332825	-0.345993	0.486242
H236	H	0.159856	-0.209371	0.440456
C237	C	-0.073906	-0.434781	0.133968
C238	C	-0.066907	-0.481280	0.166384
H239	H	-0.093361	-0.412788	0.150859
H240	H	-0.089081	-0.429985	0.114488
H241	H	-0.044021	-0.430031	0.114578
H242	H	-0.096792	-0.486031	0.185771
H243	H	-0.051733	-0.486077	0.185872
H244	H	0.129672	-0.118967	0.410356
C245	C	-0.126439	-0.738211	0.425867
C246	C	-0.109181	-0.766872	0.398946
H247	H	-0.159422	-0.721285	0.430617
H248	H	-0.109748	-0.716258	0.409417
H249	H	-0.121857	-0.757653	0.455828
H250	H	-0.113759	-0.747429	0.368984
H251	H	-0.125877	-0.788827	0.415395
C252	C	0.040803	-0.144322	0.613747
C253	C	0.047813	-0.111916	0.567243
H254	H	0.021373	-0.127421	0.635731
H255	H	0.070683	-0.163749	0.618505
H256	H	0.025591	-0.163767	0.618543
H257	H	0.063028	-0.092472	0.562446
H258	H	0.017927	-0.092480	0.562483
C259	C	0.053150	-0.343244	0.331119
C260	C	0.020751	-0.364313	0.343917
H261	H	0.047166	-0.313142	0.306977
H262	H	0.084654	-0.363175	0.319528
H263	H	0.049596	-0.339120	0.358174
H264	H	0.024307	-0.368440	0.316862
H265	H	-0.010761	-0.344378	0.355506
C266	C	0.103427	-0.265526	0.609798
C267	C	0.082766	-0.216526	0.602073
H268	H	0.095313	-0.282442	0.643043
H269	H	0.137039	-0.273664	0.595755
H270	H	0.091934	-0.273705	0.595841
H271	H	0.094261	-0.208347	0.616027
H272	H	0.049147	-0.208385	0.616122
C273	C	0.060451	-0.663846	0.094293
C274	C	0.053454	-0.617346	0.061879
H275	H	0.079905	-0.685838	0.077401
H276	H	0.030569	-0.668594	0.113682
H277	H	0.075631	-0.668645	0.113775
H278	H	0.038271	-0.612545	0.042400
H279	H	0.083341	-0.612596	0.042483
C280	C	0.009663	-0.434481	0.033197
C281	C	-0.031894	-0.446474	0.061783
H282	H	0.001522	-0.401236	0.016278
H283	H	0.029122	-0.451404	0.011241
H284	H	0.026526	-0.442665	0.052688
H285	H	-0.048755	-0.438293	0.042291
H286	H	-0.051360	-0.429545	0.083741
C287	C	-0.175856	-0.621274	0.427117
C288	C	-0.224869	-0.609178	0.451969
H289	H	-0.158993	-0.640732	0.449136
H290	H	-0.167659	-0.593118	0.407695
H291	H	-0.167676	-0.638181	0.407671
H292	H	-0.233050	-0.592267	0.471413
H293	H	-0.233069	-0.637338	0.471399
H294	H	0.015032	-0.638195	0.159378
H295	H	-0.028907	-0.460416	0.362542
C296	C	-0.074179	-0.434770	0.317074
C297	C	-0.067137	-0.481273	0.324124
H298	H	-0.093584	-0.412781	0.297593
H299	H	-0.044306	-0.430017	0.301908
H300	H	-0.089429	-0.429974	0.346943
H301	H	-0.051884	-0.486070	0.294256
H302	H	-0.097015	-0.486028	0.339290
H303	H	0.014660	-0.638178	0.406265
C304	C	0.059930	-0.663825	0.451731
C305	C	0.052892	-0.617322	0.444677
H306	H	0.079328	-0.685814	0.471218
H307	H	0.075180	-0.668625	0.421868
H308	H	0.030051	-0.668574	0.466897
H309	H	0.082771	-0.612572	0.429507
H310	H	0.037642	-0.612520	0.474544
H311	H	-0.065262	-0.864385	0.427124
C312	C	0.093754	-0.779126	0.293879
C313	C	0.060082	-0.767044	0.334670
H314	H	0.115493	-0.762251	0.277851
H315	H	0.078037	-0.770941	0.273334
H316	H	0.110573	-0.812378	0.302791
H317	H	0.043260	-0.733792	0.325757
H318	H	0.075800	-0.775226	0.355218
C319	C	-0.297138	-0.602891	0.511658
C320	C	-0.329474	-0.574205	0.486669
H321	H	-0.314091	-0.611046	0.544894
H322	H	-0.277699	-0.586012	0.503535
H323	H	-0.277701	-0.631074	0.503495
H324	H	-0.348909	-0.546019	0.494829
H325	H	-0.348921	-0.591084	0.494796
H326	H	-0.322118	-0.496994	0.324987
