data_functionalizedCrystal
_audit_creation_method	'MofGen! by Chris Wilmer'
_symmetry_space_group_name_H-M	'P1'
_symmetry_Int_Tables_number	1
_symmetry_cell_setting	triclinic
loop_
_symmetry_equiv_pos_as_xyz
  x,y,z
_cell_length_a	21.295417
_cell_length_b	19.077115
_cell_length_c	19.076919
_cell_angle_alpha	89.923103
_cell_angle_beta	87.733380
_cell_angle_gamma	87.726662
loop_
_atom_site_label
_atom_site_type_symbol
_atom_site_fract_x
_atom_site_fract_y
_atom_site_fract_z
Zn1	Zn	-0.304534	1.058235	0.440375
Zn2	Zn	0.195466	1.558235	0.940375
Zn3	Zn	-0.405747	1.062863	0.322858
Zn4	Zn	0.094253	1.562863	0.822858
Zn5	Zn	-0.296102	0.945454	0.318170
Zn6	Zn	0.203898	1.445454	0.818170
Zn7	Zn	-0.405368	0.940685	0.435612
Zn8	Zn	0.094632	1.440685	0.935612
O9	O	-0.352938	1.001809	0.379254
O10	O	0.147062	1.501809	0.879254
O11	O	-0.321648	1.157180	0.428741
O12	O	0.178352	1.657180	0.928741
O13	O	-0.387832	1.051221	0.223905
O14	O	0.112168	1.551221	0.723905
O15	O	-0.209134	0.960473	0.334413
O16	O	0.290866	1.460473	0.834413
O17	O	-0.396009	1.160581	0.342402
O18	O	0.103991	1.660581	0.842402
O19	O	-0.215329	1.043333	0.424196
O20	O	0.284671	1.543333	0.924196
O21	O	-0.307276	0.964961	0.220461
O22	O	0.192724	1.464961	0.720461
O23	O	-0.306908	0.846490	0.329794
O24	O	0.193092	1.346490	0.829794
O25	O	-0.395362	0.952346	0.534575
O26	O	0.104638	1.452346	1.034575
O27	O	-0.387185	0.842987	0.416078
O28	O	0.112815	1.342987	0.916078
O29	O	-0.321280	1.038709	0.538074
O30	O	0.178720	1.538709	1.038074
O31	O	-0.493783	1.046598	0.337783
O32	O	0.006217	1.546598	0.837783
O33	O	-0.493504	0.956834	0.420623
O34	O	0.006496	1.456834	0.920623
C35	C	-0.346091	0.819242	0.371911
C36	C	0.153909	1.319242	0.871911
C37	C	-0.343177	0.741138	0.368786
C38	C	0.156823	1.241138	0.868786
C39	C	-0.322255	0.301690	0.346383
C40	C	0.177745	0.801690	0.846383
C41	C	-0.324996	0.375077	0.349323
C42	C	0.175004	0.875077	0.849323
C43	C	-0.368226	0.409965	0.395643
C44	C	0.131774	0.909965	0.895643
C45	C	-0.408714	0.371462	0.439031
C46	C	0.091286	0.871462	0.939031
C47	C	-0.405969	0.298077	0.436095
C48	C	0.094031	0.798077	0.936095
C49	C	-0.380920	0.629250	0.409238
C50	C	0.119080	1.129250	0.909238
C51	C	-0.383663	0.702641	0.412170
C52	C	0.116337	1.202641	0.912170
C53	C	-0.299944	0.706250	0.322462
C54	C	0.200056	1.206250	0.822462
C55	C	-0.297206	0.632863	0.319527
C56	C	0.202794	1.132863	0.819527
C57	C	-0.337691	0.594367	0.362917
C58	C	0.162309	1.094367	0.862917
N59	N	-0.371031	0.484978	0.398647
N60	N	0.128969	0.984978	0.898647
N61	N	-0.334884	0.519355	0.359916
N62	N	0.165116	1.019355	0.859916
C63	C	-0.516484	1.001719	0.379211
C64	C	-0.016484	1.501719	0.879211
C65	C	-0.586454	1.001743	0.379219
C66	C	-0.086454	1.501743	0.879219
C67	C	-0.619448	1.048522	0.336132
C68	C	-0.119448	1.548522	0.836132
C69	C	-0.685192	1.048554	0.336149
C70	C	-0.185192	1.548554	0.836149
C71	C	-0.717939	1.001796	0.379245
C72	C	-0.217939	1.501796	0.879245
C73	C	-0.684937	0.955014	0.422341
C74	C	-0.184937	1.455014	0.922341
C75	C	-0.619195	0.954988	0.422328
C76	C	-0.119195	1.454988	0.922328
N77	N	-0.819088	0.940110	0.382130
N78	N	-0.319088	1.440110	0.882130
N79	N	-0.881541	0.940137	0.382138
N80	N	-0.381541	1.440137	0.882138
C81	C	-0.916018	1.001873	0.379289
C82	C	-0.416018	1.501873	0.879289
N83	N	-0.885683	1.063582	0.376417
N84	N	-0.385683	1.563582	0.876417
N85	N	-0.823224	1.063555	0.376404
N86	N	-0.323224	1.563555	0.876404
C87	C	-0.789226	1.001819	0.379265
C88	C	-0.289226	1.501819	0.879265
C89	C	-1.020300	1.048690	0.336218
C90	C	-0.520300	1.548690	0.836218
C91	C	-1.086045	1.048723	0.336240
C92	C	-0.586045	1.548723	0.836240
C93	C	-1.085789	0.955177	0.422428
C94	C	-0.585789	1.455177	0.922428
C95	C	-1.020045	0.955150	0.422410
C96	C	-0.520045	1.455150	0.922410
C97	C	-0.987304	1.001906	0.379301
C98	C	-0.487304	1.501906	0.879301
C99	C	-0.188753	1.001919	0.379313
C100	C	0.311247	1.501919	0.879313
C101	C	-0.118788	1.001965	0.379338
C102	C	0.381212	1.501965	0.879338
C103	C	-0.359219	0.994479	0.562533
C104	C	0.140781	1.494479	1.062533
C105	C	-0.361896	0.991356	0.640636
C106	C	0.138104	1.491356	1.140636
C107	C	-0.359812	1.185090	0.386625
C108	C	0.140188	1.685090	0.886625
C109	C	-0.362741	1.263193	0.389767
C110	C	0.137259	1.763193	0.889767
C111	C	-0.346636	1.009151	0.196689
C112	C	0.153364	1.509151	0.696689
C113	C	-0.343787	1.012411	0.118592
C114	C	0.156213	1.512411	0.618592
C115	C	-0.324585	1.034851	0.679152
C116	C	0.175415	1.534851	1.179152
C117	C	-0.327098	1.031907	0.752538
C118	C	0.172902	1.531907	1.252538
C119	C	-0.366925	0.985471	0.787406
C120	C	0.133075	1.485471	1.287406
C121	C	-0.404238	0.941972	0.748885
C122	C	0.095762	1.441972	1.248885
C123	C	-0.401721	0.944912	0.675501
C124	C	0.098279	1.444912	1.175501
C125	C	-0.378583	0.971852	1.006686
C126	C	0.121417	1.471852	1.506686
C127	C	-0.381098	0.968916	1.080076
C128	C	0.118902	1.468916	1.580076
C129	C	-0.303957	1.058851	1.083723
C130	C	0.196043	1.558851	1.583723
C131	C	-0.301447	1.061790	1.010338
C132	C	0.198553	1.561790	1.510338
C133	C	-0.338757	1.018288	0.971823
C134	C	0.161243	1.518288	1.471823
N135	N	-0.369496	0.982463	0.862418
N136	N	0.130504	1.482463	1.362418
N137	N	-0.336183	1.021293	0.896812
N138	N	0.163817	1.521293	1.396812
H139	H	-0.292031	0.406418	0.313992
H140	H	0.207969	0.906418	0.813992
O141	O	-0.987895	0.909771	0.464239
O142	O	-0.487895	1.409771	0.964239
C143	C	-0.922846	0.919761	0.454973
C144	C	-0.422846	1.419761	0.954973
H145	H	-0.915077	0.974923	0.434184
H146	H	-0.415077	1.474923	0.934184
H147	H	-0.901397	0.879602	0.415840
H148	H	-0.401397	1.379602	0.915840
C149	C	-0.900804	0.842655	0.551329
C150	C	-0.400804	1.342655	1.051329
C151	C	-0.891261	0.910408	0.525802
C152	C	-0.391261	1.410408	1.025802
H153	H	-0.881319	0.836883	0.595018
H154	H	-0.381319	1.336883	1.095018
H155	H	-0.944628	0.835922	0.557571
H156	H	-0.444628	1.335922	1.057571
H157	H	-0.882929	0.809197	0.518712
H158	H	-0.382929	1.309197	1.018712
H159	H	-0.909143	0.943864	0.558415
H160	H	-0.409143	1.443864	1.058415
H161	H	-0.847439	0.917147	0.519567
H162	H	-0.347439	1.417147	1.019567
O163	O	-0.420320	0.591969	0.451402
O164	O	0.079680	1.091969	0.951402
C165	C	-0.459058	0.638502	0.492919
C166	C	0.040942	1.138502	0.992919
H167	H	-0.462154	0.691958	0.466225
H168	H	0.037846	1.191958	0.966225
H169	H	-0.438216	0.644190	0.546653
H170	H	0.061784	1.144190	1.046653
C171	C	-0.521540	0.543780	0.534526
C172	C	-0.021540	1.043780	1.034526
C173	C	-0.525348	0.609434	0.501737
C174	C	-0.025348	1.109434	1.001737
H175	H	-0.562430	0.525849	0.539969
H176	H	-0.062430	1.025849	1.039969
H177	H	-0.495441	0.512429	0.506557
H178	H	0.004559	1.012429	1.006557
H179	H	-0.504169	0.548529	0.579301
H180	H	-0.004169	1.048529	1.079301
H181	H	-0.542711	0.604683	0.456959
H182	H	-0.042711	1.104683	0.956959
H183	H	-0.551452	0.640784	0.529699
H184	H	-0.051452	1.140784	1.029699
H185	H	-0.712061	1.086649	0.301062
H186	H	-0.212061	1.586649	0.801062
H187	H	-0.418867	0.731045	0.449893
H188	H	0.081133	1.231045	0.949893
O189	O	-1.118201	1.094198	0.294510
O190	O	-0.618201	1.594198	0.794510
C191	C	-1.183250	1.084219	0.303787
C192	C	-0.683250	1.584219	0.803787
H193	H	-1.193197	1.058923	0.357040
H194	H	-0.693197	1.558923	0.857040
H195	H	-1.199175	1.048588	0.260539
H196	H	-0.699175	1.548588	0.760539
C197	C	-1.207140	1.186689	0.235001
C198	C	-0.707140	1.686689	0.735001
C199	C	-1.219358	1.155626	0.300410
C200	C	-0.719358	1.655626	0.800410
H201	H	-1.229414	1.230735	0.232915
H202	H	-0.729414	1.730735	0.732915
H203	H	-1.163315	1.193411	0.228749
H204	H	-0.663315	1.693411	0.728749
H205	H	-1.220411	1.156989	0.198968
H206	H	-0.720411	1.656989	0.698968
H207	H	-1.206079	1.185321	0.336441
H208	H	-0.706079	1.685321	0.836441
H209	H	-1.263181	1.148910	0.306669
H210	H	-0.763181	1.648910	0.806669
O211	O	-0.450642	0.405316	0.484127
O212	O	0.049358	0.905316	0.984127
C213	C	-0.438727	0.384593	0.553472
C214	C	0.061273	0.884593	1.053472
H215	H	-0.387815	0.364302	0.556321
H216	H	0.112185	0.864302	1.056321
H217	H	-0.471536	0.341249	0.570065
H218	H	0.028464	0.841249	1.070065
C219	C	-0.512695	0.472836	0.599461
C220	C	-0.012695	0.972836	1.099461
C221	C	-0.450163	0.447921	0.602961
C222	C	0.049837	0.947921	1.102961
H223	H	-0.519752	0.511899	0.629989
H224	H	-0.019752	1.011899	1.129989
H225	H	-0.520725	0.486797	0.552742
H226	H	-0.020725	0.986797	1.052742
H227	H	-0.540029	0.436711	0.613287
H228	H	-0.040029	0.936711	1.113287
H229	H	-0.422831	0.484043	0.589127
H230	H	0.077169	0.984043	1.089127
H231	H	-0.442128	0.433968	0.649679
H232	H	0.057872	0.933968	1.149679
H233	H	-0.711604	0.916945	0.457432
H234	H	-0.211604	1.416945	0.957432
O235	O	-0.445208	0.260642	0.478310
O236	O	0.054792	0.760642	0.978310
C237	C	-0.409402	0.216394	0.522059
C238	C	0.090598	0.716394	1.022059
H239	H	-0.360811	0.238363	0.527388
H240	H	0.139189	0.738363	1.027388
H241	H	-0.404375	0.161642	0.498111
H242	H	0.095625	0.661642	0.998111
C243	C	-0.502396	0.185358	0.588451
C244	C	-0.002396	0.685358	1.088451
C245	C	-0.442718	0.212345	0.595002
C246	C	0.057282	0.712345	1.095002
H247	H	-0.522948	0.182857	0.633446
H248	H	-0.022948	0.682857	1.133446
H249	H	-0.526521	0.215167	0.558976
H250	H	-0.026521	0.715167	1.058976
H251	H	-0.498199	0.139734	0.568492
H252	H	0.001801	0.639734	1.068492
H253	H	-0.446916	0.257971	0.614953
H254	H	0.053084	0.757971	1.114953
H255	H	-0.418595	0.182544	0.624483
H256	H	0.081405	0.682544	1.124483
O257	O	-1.117568	0.909827	0.464397
O258	O	-0.617568	1.409827	0.964397
C259	C	-1.104420	0.922308	0.535053
C260	C	-0.604420	1.422308	1.035053
H261	H	-1.088525	0.978290	0.540899
H262	H	-0.588525	1.478290	1.040899
H263	H	-1.065499	0.883872	0.551865
H264	H	-0.565499	1.383872	1.051865
C265	C	-1.183628	0.843483	0.574448
C266	C	-0.683628	1.343483	1.074448
C267	C	-1.164111	0.912244	0.581629
C268	C	-0.664111	1.412244	1.081629
H269	H	-1.220447	0.837272	0.603179
H270	H	-0.720447	1.337272	1.103179
H271	H	-1.192485	0.835072	0.526846
H272	H	-0.692485	1.335072	1.026846
H273	H	-1.151188	0.811461	0.588456
H274	H	-0.651188	1.311461	1.088456
H275	H	-1.196547	0.944264	0.567612
H276	H	-0.696547	1.444264	1.067612
H277	H	-1.155261	0.920660	0.629230
H278	H	-0.655261	1.420660	1.129230
H279	H	-0.592330	0.916895	0.457415
H280	H	-0.092330	1.416895	0.957415
O281	O	-0.285842	1.079977	0.645393
O282	O	0.214158	1.579977	1.145393
C283	C	-0.253460	1.117746	0.695129
C284	C	0.246540	1.617746	1.195129
H285	H	-0.251996	1.086869	0.746281
H286	H	0.248004	1.586869	1.246281
H287	H	-0.278780	1.170786	0.705076
H288	H	0.221220	1.670786	1.205076
C289	C	-0.187662	1.166989	0.604099
C290	C	0.312338	1.666989	1.104099
C291	C	-0.185859	1.129063	0.666922
C292	C	0.314141	1.629063	1.166922
H293	H	-0.145963	1.173973	0.586699
H294	H	0.354037	1.673973	1.086699
H295	H	-0.209479	1.141546	0.570590
H296	H	0.290521	1.641546	1.070590
H297	H	-0.208764	1.211185	0.612397
H298	H	0.291236	1.711185	1.112397
H299	H	-0.164763	1.084865	0.658622
H300	H	0.335237	1.584865	1.158622
H301	H	-0.164036	1.154499	0.700429
H302	H	0.335964	1.654499	1.200429
H303	H	-0.296717	1.067327	0.783894
H304	H	0.203283	1.567327	1.283894
H305	H	-0.269017	1.099605	0.981953
H306	H	0.230983	1.599605	1.481953
O307	O	-0.419802	0.923743	1.113837
O308	O	0.080198	1.423743	1.613837
C309	C	-0.452205	0.885989	1.064108
C310	C	0.047795	1.385989	1.564108
H311	H	-0.424537	0.885665	1.011709
H312	H	0.075463	1.385665	1.511709
H313	H	-0.500710	0.911999	1.057320
H314	H	-0.000710	1.411999	1.557320
C315	C	-0.493433	0.810450	1.154098
C316	C	0.006567	1.310450	1.654098
C317	C	-0.459448	0.810047	1.089741
C318	C	0.040552	1.310047	1.589741
H319	H	-0.497904	0.763606	1.169910
H320	H	0.002096	1.263606	1.669910
H321	H	-0.471604	0.835887	1.187602
H322	H	0.028396	1.335887	1.687602
H323	H	-0.533851	0.832128	1.148432
H324	H	-0.033851	1.332128	1.648432
H325	H	-0.419029	0.788377	1.095410
H326	H	0.080971	1.288377	1.595410
H327	H	-0.481271	0.784604	1.056239
H328	H	0.018729	1.284604	1.556239
O329	O	-0.414861	0.929695	0.969213
O330	O	0.085139	1.429695	1.469213
C331	C	-0.455580	0.971363	0.928371
C332	C	0.044420	1.471363	1.428371
H333	H	-0.435003	1.025069	0.919515
H334	H	0.064997	1.525069	1.419515
H335	H	-0.503484	0.977923	0.956952
H336	H	-0.003484	1.477923	1.456952
C337	C	-0.488417	0.869507	0.867987
C338	C	0.011583	1.369507	1.367987
C339	C	-0.463141	0.935468	0.857106
C340	C	0.036859	1.435468	1.357106
H341	H	-0.493084	0.847365	0.824029
H342	H	0.006916	1.347365	1.324029
H343	H	-0.460986	0.841434	0.895505
H344	H	0.039014	1.341434	1.395505
H345	H	-0.528335	0.874983	0.891807
H346	H	-0.028335	1.374983	1.391807
H347	H	-0.423221	0.929990	0.833295
H348	H	0.076779	1.429990	1.333295
H349	H	-0.490566	0.963539	0.829583
H350	H	0.009434	1.463539	1.329583
H351	H	-0.432097	0.909487	0.644141
H352	H	0.067903	1.409487	1.144141
H353	H	-0.993641	1.086763	0.301118
H354	H	-0.493641	1.586763	0.801118
H355	H	-0.262008	0.604463	0.281803
H356	H	0.237992	1.104463	0.781803
H357	H	-0.287053	0.273290	0.308663
H358	H	0.212947	0.773290	0.808663
O359	O	-0.587744	1.094012	0.294245
O360	O	-0.087744	1.594012	0.794245
C361	C	-0.630968	1.135297	0.256207
C362	C	-0.130968	1.635297	0.756207
H363	H	-0.678895	1.136569	0.285095
H364	H	-0.178895	1.636569	0.785095
H365	H	-0.635208	1.111748	0.201786
H366	H	-0.135208	1.611748	0.701786
C367	C	-0.548849	1.208923	0.213666
C368	C	-0.048849	1.708923	0.713666
C369	C	-0.607713	1.210491	0.249150
C370	C	-0.107713	1.710491	0.749150
H371	H	-0.534504	1.255306	0.209310
H372	H	-0.034504	1.755306	0.709310
H373	H	-0.519728	1.181108	0.239291
H374	H	-0.019728	1.681108	0.739291
H375	H	-0.552391	1.189296	0.168319
H376	H	-0.052391	1.689296	0.668319
H377	H	-0.604169	1.230109	0.294500
H378	H	-0.104169	1.730109	0.794500
H379	H	-0.636834	1.238311	0.223533
H380	H	-0.136834	1.738311	0.723533
H381	H	-0.266983	0.737602	0.287136
H382	H	0.233017	1.237602	0.787136
H383	H	-0.273581	1.094267	1.115090
H384	H	0.226419	1.594267	1.615090
H385	H	-0.436663	0.904160	0.777281
H386	H	0.063337	1.404160	1.277281
