data_functionalizedCrystal
_audit_creation_method	'MofGen! by Chris Wilmer'
_symmetry_space_group_name_H-M	'P1'
_symmetry_Int_Tables_number	1
_symmetry_cell_setting	triclinic
loop_
_symmetry_equiv_pos_as_xyz
  x,y,z
_cell_length_a	18.101398
_cell_length_b	19.121063
_cell_length_c	18.101389
_cell_angle_alpha	92.419391
_cell_angle_beta	89.975673
_cell_angle_gamma	92.464489
loop_
_atom_site_label
_atom_site_type_symbol
_atom_site_fract_x
_atom_site_fract_y
_atom_site_fract_z
Zn1	Zn	1.119554	-0.279777	-0.431404
Zn2	Zn	1.114175	-0.397213	-0.312837
Zn3	Zn	0.995713	-0.279770	-0.307565
Zn4	Zn	0.990390	-0.397183	-0.436624
O5	O	1.054958	-0.338486	-0.372107
O6	O	1.222473	-0.295371	-0.415698
O7	O	1.098437	-0.381644	-0.208505
O8	O	1.016620	-0.181486	-0.319601
O9	O	1.218521	-0.381651	-0.328587
O10	O	1.107605	-0.181491	-0.410586
O11	O	1.011404	-0.295359	-0.204632
O12	O	0.891375	-0.295330	-0.324663
O13	O	1.007547	-0.381599	-0.539564
O14	O	0.887464	-0.381592	-0.419482
O15	O	1.102443	-0.295342	-0.535729
O16	O	1.093276	-0.495494	-0.333648
O17	O	1.002331	-0.495472	-0.424594
C18	C	0.862549	-0.338457	-0.372067
C19	C	0.780234	-0.338462	-0.372069
C20	C	0.481141	-0.338506	-0.372133
C21	C	0.514915	-0.283961	-0.312742
C22	C	0.600526	-0.284107	-0.312506
C23	C	0.629525	-0.338484	-0.372101
C24	C	0.595084	-0.412466	-0.354099
C25	C	0.509452	-0.412163	-0.353690
C26	C	0.513600	-0.319712	-0.449688
C27	C	0.599325	-0.318065	-0.449186
C28	C	0.713385	-0.338476	-0.372084
C29	C	0.397281	-0.338519	-0.372148
C30	C	1.046662	-0.520967	-0.380276
C31	C	1.043181	-0.599034	-0.383795
C32	C	1.088932	-0.635698	-0.338137
C33	C	1.085662	-0.709049	-0.341451
C34	C	1.036637	-0.745735	-0.390420
C35	C	0.990884	-0.709066	-0.436083
C36	C	0.994158	-0.635716	-0.432772
C37	C	1.024385	-0.967206	-0.402788
C38	C	1.021113	-1.040562	-0.406094
C39	C	1.115892	-1.040539	-0.311462
C40	C	1.119159	-0.967188	-0.308152
C41	C	1.073408	-0.930525	-0.353818
C42	C	1.033292	-0.820713	-0.393807
C43	C	1.076758	-0.855549	-0.350434
C44	C	1.248119	-0.338515	-0.372148
C45	C	1.330432	-0.338528	-0.372165
C46	C	1.055002	-0.338468	-0.565269
C47	C	1.055020	-0.338461	-0.647582
C48	C	1.063306	-0.155292	-0.363923
C49	C	1.066864	-0.077226	-0.360436
C50	C	1.055069	-0.338329	-0.946668
C51	C	0.995174	-0.392427	-0.917747
C52	C	0.995318	-0.392678	-0.832140
C53	C	1.055044	-0.338394	-0.798288
C54	C	1.132167	-0.358491	-0.830296
C55	C	1.131831	-0.358846	-0.915957
C56	C	1.038526	-0.264013	-0.911754
C57	C	1.036771	-0.264443	-0.826122
C58	C	1.055035	-0.338430	-0.714430
C59	C	1.055084	-0.338295	-1.030526
C60	C	1.054959	-0.338453	-0.179695
C61	C	1.055093	-0.338263	-0.097373
H62	H	0.624031	-0.229245	-0.323408
N63	N	0.485382	-0.300031	-0.237015
H64	H	0.450251	-0.342512	-0.241007
H65	H	0.527792	-0.309688	-0.203209
N66	N	1.172046	-0.927620	-0.255347
H67	H	1.200539	-0.961978	-0.226929
H68	H	1.207655	-0.897153	-0.284164
H69	H	0.496816	-0.228932	-0.323490
N70	N	0.626880	-0.300561	-0.236293
H71	H	0.605857	-0.348137	-0.222882
H72	H	0.682667	-0.300684	-0.235869
N73	N	0.622464	-0.433951	-0.279960
H74	H	0.649524	-0.478892	-0.286560
H75	H	0.657140	-0.395834	-0.257968
N76	N	0.625476	-0.366855	-0.510592
H77	H	0.681295	-0.364398	-0.512316
H78	H	0.607384	-0.416379	-0.501166
N79	N	0.484410	-0.372335	-0.508254
H80	H	0.450328	-0.408177	-0.484706
H81	H	0.456287	-0.347388	-0.546692
N82	N	1.090691	-0.208212	-0.795280
H83	H	1.088175	-0.206492	-0.739495
H84	H	1.142428	-0.219176	-0.811631
H85	H	0.981200	-1.070430	-0.445983
H86	H	1.122917	-0.738898	-0.304271
N87	N	1.192688	-0.307952	-0.801079
H88	H	1.217806	-0.284221	-0.843726
H89	H	1.170594	-0.271491	-0.766719
N90	N	0.481988	-0.433275	-0.278722
H91	H	0.525512	-0.442690	-0.246251
H92	H	0.453115	-0.394186	-0.255172
N93	N	1.009141	-0.464949	-0.949506
H94	H	0.964741	-0.483298	-0.979303
H95	H	1.054114	-0.462848	-0.982510
H96	H	0.494409	-0.266704	-0.466696
H97	H	0.613574	-0.454195	-0.396148
H98	H	0.486843	-0.454179	-0.395241
N99	N	1.151686	-0.429689	-0.805103
H100	H	1.199266	-0.425274	-0.775827
H101	H	1.110645	-0.448988	-0.772996
H102	H	1.116677	-0.825677	-0.310566
H103	H	1.082192	-0.223708	-0.930220
H104	H	0.983441	-0.245705	-0.932518
N105	N	0.944804	-0.596170	-0.482011
H106	H	0.954317	-0.544137	-0.472484
H107	H	0.955726	-0.608956	-0.535491
H108	H	0.993375	-0.850591	-0.433677
H109	H	0.987132	-0.937361	-0.439969
N110	N	0.938009	-0.748631	-0.488904
H111	H	0.942874	-0.800662	-0.484072
H112	H	0.885696	-0.735850	-0.476746
N113	N	0.629500	-0.245946	-0.467249
H114	H	0.662597	-0.226576	-0.425679
H115	H	0.658885	-0.249058	-0.514628
N116	N	1.141807	-0.596131	-0.285317
H117	H	1.170295	-0.630491	-0.256898
H118	H	1.177420	-0.565659	-0.314123
H119	H	1.153140	-1.070398	-0.274285
N120	N	0.961617	-0.244359	-0.798289
H121	H	0.939494	-0.282996	-0.767775
H122	H	0.966881	-0.199560	-0.766775
N123	N	1.009469	-0.465634	-0.808280
H124	H	1.009621	-0.466101	-0.752506
H125	H	0.969269	-0.499348	-0.828580
N126	N	1.150923	-0.430804	-0.945667
H127	H	1.159477	-0.461995	-0.903105
H128	H	1.108795	-0.451530	-0.977217
H129	H	0.938024	-0.380101	-0.810543
H130	H	1.177791	-0.321154	-0.935005
N131	N	0.919036	-0.375932	-0.944253
H132	H	0.922627	-0.333234	-0.975268
H133	H	0.897428	-0.417157	-0.974962
