data_functionalizedCrystal
_audit_creation_method	'MofGen! by Chris Wilmer'
_symmetry_space_group_name_H-M	'P1'
_symmetry_Int_Tables_number	1
_symmetry_cell_setting	triclinic
loop_
_symmetry_equiv_pos_as_xyz
  x,y,z
_cell_length_a	42.784839
_cell_length_b	42.784841
_cell_length_c	42.784893
_cell_angle_alpha	90.002418
_cell_angle_beta	59.997780
_cell_angle_gamma	119.999863
loop_
_atom_site_label
_atom_site_type_symbol
_atom_site_fract_x
_atom_site_fract_y
_atom_site_fract_z
O1	O	0.275695	-0.214412	-0.009300
O2	O	0.211692	-0.168961	0.009253
O3	O	0.275692	-0.168961	-0.054750
O4	O	0.211694	-0.214412	0.054702
O5	O	0.223708	-0.220945	-0.054749
O6	O	0.159708	-0.220945	0.009253
O7	O	0.223710	-0.266397	-0.009300
Zn8	Zn	0.183455	-0.251924	-0.000023
Zn9	Zn	0.251947	-0.183433	-0.000024
O10	O	0.159710	-0.266396	0.054703
C11	C	0.051021	-0.022778	0.028112
C12	C	0.013142	-0.041761	0.028375
C13	C	0.051018	-0.079378	0.028116
C14	C	0.013139	-0.098275	0.028379
C15	C	-0.005578	-0.079377	0.028112
C16	C	0.069652	-0.041762	0.028379
C17	C	0.152948	0.113708	0.017863
C18	C	0.173786	0.152360	0.014965
C19	C	0.155902	0.171750	0.013509
C20	C	0.178499	0.213661	0.010359
C21	C	0.117177	0.152485	0.014953
C22	C	0.096339	0.113835	0.017857
C23	C	0.114226	0.094447	0.019312
C24	C	-0.131813	-0.113936	0.017859
C25	C	-0.167567	-0.131750	0.014961
C26	C	-0.185502	-0.169024	0.013506
C27	C	-0.224264	-0.188340	0.010358
C28	C	-0.167685	-0.188485	0.014954
C29	C	-0.131938	-0.170675	0.017859
C30	C	-0.114002	-0.133396	0.019309
C31	C	0.152939	-0.113943	0.017877
C32	C	0.173778	-0.131757	0.014977
C33	C	0.155892	-0.169032	0.013523
C34	C	0.178486	-0.188349	0.010377
C35	C	0.117170	-0.188491	0.014967
C36	C	0.096334	-0.170675	0.017865
C37	C	0.114220	-0.133401	0.019323
C38	C	0.091629	0.052537	0.022456
C39	C	0.073617	0.019131	0.024964
C40	C	0.073613	-0.098693	0.024971
C41	C	0.091623	-0.114089	0.022466
C42	C	-0.044339	-0.098690	0.024964
C43	C	-0.075237	-0.114084	0.022456
O44	O	-0.327856	-0.266388	-0.009322
O45	O	-0.236954	-0.220935	0.009228
O46	O	-0.236950	-0.220939	-0.054773
O47	O	-0.327860	-0.266385	0.054680
O48	O	-0.236948	-0.168954	-0.054776
O49	O	-0.236952	-0.168950	0.009225
O50	O	-0.327854	-0.214403	-0.009325
Zn51	Zn	-0.282403	-0.183423	-0.000050
Zn52	Zn	-0.282405	-0.251916	-0.000046
O53	O	-0.327858	-0.214400	0.054676
C54	C	0.384390	-0.079141	-0.361606
C55	C	0.422270	-0.041526	-0.380503
C56	C	0.384390	-0.079141	-0.305008
C57	C	0.422270	-0.041526	-0.323990
C58	C	0.440988	-0.022543	-0.361606
C59	C	0.365758	-0.098038	-0.323991
C60	C	0.282465	-0.170819	-0.396168
C61	C	0.261627	-0.188759	-0.413983
C62	C	0.279513	-0.169420	-0.451257
C63	C	0.256917	-0.188867	-0.470572
C64	C	0.318239	-0.132140	-0.470717
C65	C	0.339076	-0.114205	-0.452905
C66	C	0.321187	-0.133546	-0.415628
C67	C	0.567227	0.113942	-0.453282
C68	C	0.602981	0.152594	-0.471222
C69	C	0.620916	0.171985	-0.451883
C70	C	0.659678	0.213894	-0.471328
C71	C	0.603097	0.152719	-0.414603
C72	C	0.567349	0.114068	-0.396667
C73	C	0.549414	0.094682	-0.416011
C74	C	0.282465	-0.170819	-0.168522
C75	C	0.261624	-0.188757	-0.129868
C76	C	0.279510	-0.169418	-0.110479
C77	C	0.256914	-0.188865	-0.068568
C78	C	0.318233	-0.132140	-0.129742
C79	C	0.339070	-0.114203	-0.168394
C80	C	0.321184	-0.133548	-0.187782
C81	C	0.343783	-0.114094	-0.396315
C82	C	0.361794	-0.098590	-0.380920
C83	C	0.361794	-0.098590	-0.263099
C84	C	0.343783	-0.114094	-0.229693
C85	C	0.479750	0.019366	-0.381054
C86	C	0.510649	0.052771	-0.396557
C87	C	0.440758	-0.356212	-0.028193
C88	C	0.422041	-0.393827	-0.028459
C89	C	0.384158	-0.356213	-0.028190
C90	C	0.365526	-0.393828	-0.028456
C91	C	0.384160	-0.412810	-0.028193
C92	C	0.422038	-0.337315	-0.028456
C93	C	0.567000	-0.264532	-0.017949
C94	C	0.602755	-0.246591	-0.015053
C95	C	0.620692	-0.265931	-0.013601
C96	C	0.659455	-0.246483	-0.010453
C97	C	0.602873	-0.303210	-0.015048
C98	C	0.567125	-0.321146	-0.017949
C99	C	0.549188	-0.301805	-0.019399
C100	C	0.339356	-0.549295	-0.017951
C101	C	0.318645	-0.587947	-0.015055
C102	C	0.279915	-0.607338	-0.013597
C103	C	0.257452	-0.649247	-0.010452
C104	C	0.261899	-0.588073	-0.015042
C105	C	0.282613	-0.549422	-0.017945
C106	C	0.321343	-0.530035	-0.019397
C107	C	0.339344	-0.264537	-0.017936
C108	C	0.318628	-0.246599	-0.015032
C109	C	0.279898	-0.265939	-0.013577
C110	C	0.257433	-0.246493	-0.010426
C111	C	0.261884	-0.303217	-0.015022
C112	C	0.282601	-0.321153	-0.017924
C113	C	0.321334	-0.301808	-0.019385
C114	C	0.510421	-0.321258	-0.022542
C115	C	0.479522	-0.336762	-0.025048
C116	C	0.361696	-0.336765	-0.025041
C117	C	0.343793	-0.321261	-0.022532
C118	C	0.361701	-0.454719	-0.025047
C119	C	0.343799	-0.488125	-0.022541
O120	O	0.223728	0.336934	-0.009323
O121	O	0.159726	0.227482	0.009227
O122	O	0.223729	0.291478	-0.054775
O123	O	0.159725	0.272938	0.054678
O124	O	0.275711	0.291477	-0.054771
O125	O	0.211707	0.227481	0.009230
O126	O	0.275710	0.336932	-0.009320
Zn127	Zn	0.251962	0.282206	-0.000045
Zn128	Zn	0.183474	0.282208	-0.000049
O129	O	0.211707	0.272936	0.054681
O130	O	0.763271	0.337164	-0.496871
O131	O	0.672367	0.227713	-0.451422
O132	O	0.672365	0.291711	-0.451418
O133	O	0.763273	0.273165	-0.496876
O134	O	0.672366	0.291712	-0.503402
O135	O	0.672368	0.227714	-0.503407
O136	O	0.763272	0.337165	-0.548856
Zn137	Zn	0.717820	0.282440	-0.534385
Zn138	Zn	0.717819	0.282438	-0.465893
O139	O	0.763275	0.273167	-0.548860
O140	O	0.211690	-0.214417	-0.548617
O141	O	0.275691	-0.168962	-0.503167
O142	O	0.211689	-0.168964	-0.503163
O143	O	0.275692	-0.214415	-0.548621
O144	O	0.159706	-0.220947	-0.451179
O145	O	0.223708	-0.220945	-0.451183
O146	O	0.159707	-0.266400	-0.496633
Zn147	Zn	0.183454	-0.251926	-0.465654
Zn148	Zn	0.251944	-0.183436	-0.534146
O149	O	0.223709	-0.266398	-0.496637
C150	C	-0.005343	-0.412572	0.361558
C151	C	0.013375	-0.393590	0.380456
C152	C	0.051255	-0.355974	0.304961
C153	C	0.069887	-0.337077	0.323944
C154	C	0.051254	-0.355974	0.361560
C155	C	0.013375	-0.393589	0.323943
C156	C	-0.131582	-0.549057	0.396116
C157	C	-0.167336	-0.587709	0.413930
C158	C	-0.185271	-0.607098	0.451205
C159	C	-0.224034	-0.649009	0.470519
C160	C	-0.167452	-0.587833	0.470666
C161	C	-0.131705	-0.549184	0.452854
C162	C	-0.113770	-0.529796	0.415578
C163	C	0.096061	-0.321414	0.453239
C164	C	0.116773	-0.303600	0.471179
C165	C	0.155502	-0.266327	0.451842
C166	C	0.177965	-0.247011	0.471288
C167	C	0.173517	-0.246866	0.414562
C168	C	0.152802	-0.264677	0.396625
C169	C	0.114073	-0.301955	0.415968
C170	C	0.096064	-0.321412	0.168474
C171	C	0.116779	-0.303599	0.129820
C172	C	0.155508	-0.266324	0.110432
C173	C	0.177972	-0.247009	0.068521
C174	C	0.173522	-0.246865	0.129696
C175	C	0.152807	-0.264680	0.168348
C176	C	0.114075	-0.301953	0.187735
C177	C	-0.075004	-0.487887	0.396265
C178	C	-0.044106	-0.454481	0.380871
C179	C	0.073715	-0.336660	0.263052
C180	C	0.091618	-0.321265	0.229646
C181	C	0.073714	-0.336661	0.381009
C182	C	0.091616	-0.321267	0.396513
C183	C	0.051046	-0.022794	-0.361634
C184	C	0.069679	-0.041778	-0.380530
C185	C	-0.005555	-0.079390	-0.305034
C186	C	0.013163	-0.098288	-0.324016
C187	C	0.051045	-0.079393	-0.361631
C188	C	0.013164	-0.041775	-0.324018
C189	C	0.095858	0.113693	-0.396200
C190	C	0.116571	0.152344	-0.414015
C191	C	0.155302	0.171732	-0.451290
C192	C	0.177767	0.213642	-0.470607
C193	C	0.173317	0.152465	-0.470750
C194	C	0.152600	0.113815	-0.452936
C195	C	0.113869	0.094429	-0.415659
C196	C	0.152973	-0.113959	-0.453306
C197	C	0.173810	-0.131775	-0.471245
C198	C	0.155926	-0.169048	-0.451906
C199	C	0.178519	-0.188366	-0.471350
C200	C	0.117198	-0.188507	-0.414626
C201	C	0.096358	-0.170694	-0.396690
C202	C	0.114251	-0.133416	-0.416035
C203	C	-0.131801	-0.113944	-0.168548
C204	C	-0.167554	-0.131755	-0.129895
C205	C	-0.185491	-0.169029	-0.110504
C206	C	-0.224255	-0.188343	-0.068593
C207	C	-0.167671	-0.188490	-0.129767
C208	C	-0.131918	-0.170677	-0.168418
C209	C	-0.113988	-0.133404	-0.187808
C210	C	0.091411	0.052521	-0.396344
C211	C	0.073508	0.019115	-0.380949
C212	C	-0.044320	-0.098701	-0.263125
C213	C	-0.075220	-0.114094	-0.229719
C214	C	0.073641	-0.098707	-0.381079
C215	C	0.091652	-0.114103	-0.396582
C216	C	-0.615853	-0.356193	0.361535
C217	C	-0.634487	-0.393808	0.380433
C218	C	-0.559253	-0.356195	0.304938
C219	C	-0.577972	-0.393810	0.323921
C220	C	-0.615854	-0.412792	0.361537
C221	C	-0.577972	-0.337297	0.323920
C222	C	-0.660661	-0.264512	0.396093
C223	C	-0.681373	-0.246571	0.413906
C224	C	-0.720104	-0.265909	0.451181
C225	C	-0.742568	-0.246461	0.470495
C226	C	-0.738120	-0.303189	0.470643
C227	C	-0.717405	-0.321125	0.452831
C228	C	-0.678674	-0.301785	0.415554
C229	C	-0.717784	-0.549275	0.453218
C230	C	-0.738622	-0.587926	0.471159
C231	C	-0.720740	-0.607319	0.451822
C232	C	-0.743333	-0.649227	0.471268
C233	C	-0.682012	-0.588055	0.414542
C234	C	-0.661170	-0.549403	0.396604
C235	C	-0.679063	-0.530016	0.415946
C236	C	-0.433006	-0.264522	0.168449
C237	C	-0.397253	-0.246585	0.129796
C238	C	-0.379317	-0.265926	0.110407
C239	C	-0.340553	-0.246480	0.068496
C240	C	-0.397138	-0.303204	0.129672
C241	C	-0.432891	-0.321139	0.168324
C242	C	-0.450820	-0.301793	0.187711
C243	C	-0.656216	-0.321238	0.396242
C244	C	-0.638314	-0.336743	0.380848
C245	C	-0.520488	-0.336748	0.263028
C246	C	-0.489588	-0.321245	0.229622
C247	C	-0.638451	-0.454700	0.380987
C248	C	-0.656463	-0.488106	0.396492
C249	C	0.440756	0.310302	-0.361620
C250	C	0.422038	0.310564	-0.380518
C251	C	0.384160	0.310312	-0.305026
C252	C	0.365528	0.310574	-0.324010
C253	C	0.384159	0.310303	-0.361624
C254	C	0.422038	0.310573	-0.324006
C255	C	0.566989	0.300046	-0.396172
C256	C	0.602741	0.297145	-0.413984
C257	C	0.620675	0.295684	-0.451257
C258	C	0.659436	0.292531	-0.470569
C259	C	0.602857	0.297127	-0.470719
C260	C	0.567111	0.300033	-0.452909
C261	C	0.549177	0.301493	-0.415634
C262	C	0.339351	0.300042	-0.453303
C263	C	0.318640	0.297142	-0.471244
C264	C	0.279912	0.295690	-0.451908
C265	C	0.257449	0.292541	-0.471354
C266	C	0.261899	0.297143	-0.414629
C267	C	0.282613	0.300049	-0.396692
C268	C	0.321341	0.301496	-0.416033
C269	C	0.339354	0.300088	-0.168540
C270	C	0.318640	0.297192	-0.129888
C271	C	0.279912	0.295742	-0.110501
C272	C	0.257450	0.292601	-0.068591
C273	C	0.261898	0.297184	-0.129766
C274	C	0.282612	0.300078	-0.168417
C275	C	0.321344	0.301533	-0.187802
C276	C	0.510413	0.304640	-0.396323
C277	C	0.479516	0.307151	-0.380931
C278	C	0.361701	0.307173	-0.263117
C279	C	0.343799	0.304671	-0.229712
C280	C	0.361700	0.307154	-0.381073
C281	C	0.343798	0.304644	-0.396578
O282	O	0.275503	0.336913	-0.548651
O283	O	0.211494	0.227461	-0.503201
O284	O	0.275490	0.291455	-0.503192
O285	O	0.211507	0.272919	-0.548659
O286	O	0.223502	0.291457	-0.451211
O287	O	0.159506	0.227463	-0.451219
O288	O	0.223515	0.336915	-0.496669
Zn289	Zn	0.183256	0.282189	-0.465691
Zn290	Zn	0.251753	0.282187	-0.534179
O291	O	0.159519	0.272921	-0.496677
C292	C	0.051032	0.254111	0.361530
C293	C	0.013154	0.253851	0.380425
C294	C	0.051031	0.254102	0.304932
C295	C	0.013153	0.253842	0.323913
C296	C	-0.005564	0.254113	0.361527
C297	C	0.069663	0.253840	0.323916
C298	C	0.152954	0.264360	0.396096
C299	C	0.173791	0.267260	0.413911
C300	C	0.155906	0.268721	0.451185
C301	C	0.178502	0.271871	0.470501
C302	C	0.117182	0.267279	0.470643
C303	C	0.096345	0.264374	0.452830
C304	C	0.114233	0.262915	0.415555
C305	C	-0.131796	0.264379	0.453195
C306	C	-0.167548	0.267281	0.471133
C307	C	-0.185483	0.268734	0.451793
C308	C	-0.224243	0.271886	0.471236
C309	C	-0.167664	0.267282	0.414515
C310	C	-0.131919	0.264374	0.396581
C311	C	-0.113984	0.262925	0.415925
C312	C	0.152952	0.264325	0.168451
C313	C	0.173792	0.267221	0.129798
C314	C	0.155907	0.268673	0.110407
C315	C	0.178502	0.271814	0.068498
C316	C	0.117186	0.267232	0.129669
C317	C	0.096350	0.264339	0.168320
C318	C	0.114234	0.262881	0.187709
C319	C	0.091638	0.259769	0.396240
C320	C	0.073627	0.257260	0.380845
C321	C	0.073626	0.257242	0.263024
C322	C	0.091636	0.259743	0.229619
C323	C	-0.044324	0.257264	0.380973
C324	C	-0.075221	0.259775	0.396474
H325	H	0.167516	0.097925	0.019049
H326	H	0.064825	-0.186540	-0.366338
C327	C	-0.008218	-0.019288	-0.270663
C328	C	-0.007987	-0.021202	-0.303443
H329	H	-0.021274	-0.006587	-0.257962
H330	H	-0.024799	-0.044454	-0.253971
H331	H	0.021265	-0.005519	-0.277828
H332	H	-0.037470	-0.034974	-0.296278
H333	H	0.008593	0.003967	-0.320138
C334	C	-0.513369	-0.394086	0.292809
C335	C	-0.556823	-0.414389	0.303360
H336	H	-0.500315	-0.406792	0.280121
H337	H	-0.496790	-0.368928	0.276103
H338	H	-0.513532	-0.392773	0.315049
H339	H	-0.556660	-0.415699	0.281119
H340	H	-0.573406	-0.439554	0.320067
H341	H	0.230097	-0.219111	-0.398135
H342	H	0.102618	0.168275	0.013770
C343	C	0.227653	0.148356	0.015259
C344	C	0.216353	0.173535	0.013372
H345	H	0.253934	0.161430	0.014272
H346	H	0.204346	0.127420	0.038534
H347	H	0.232349	0.139146	-0.005754
H348	H	0.211654	0.182743	0.034386
H349	H	0.239665	0.194478	-0.009906
C350	C	0.095239	0.172792	-0.359148
C351	C	0.096775	0.173522	-0.392625
H352	H	0.083020	0.185869	-0.345943
H353	H	0.077357	0.147001	-0.343206
H354	H	0.124299	0.185016	-0.365591
H355	H	0.067714	0.161295	-0.386181
H356	H	0.114656	0.199318	-0.408570
C357	C	-0.076948	-0.061449	-0.227855
C358	C	-0.112089	-0.072972	-0.189861
H359	H	-0.064779	-0.036156	-0.241013
H360	H	-0.054839	-0.062047	-0.228295
H361	H	-0.087396	-0.078328	-0.240025
H362	H	-0.101639	-0.056096	-0.177690
H363	H	-0.134202	-0.072372	-0.189419
H364	H	0.335046	0.310999	-0.308768
H365	H	0.064821	0.263164	0.184001
C366	C	0.657504	-0.193959	-0.010606
C367	C	0.622336	-0.205619	-0.013458
H368	H	0.669592	-0.168663	-0.009622
H369	H	0.647108	-0.210790	0.012012
H370	H	0.679665	-0.194509	-0.032277
H371	H	0.600174	-0.205070	0.008215
H372	H	0.632731	-0.188783	-0.036077
C373	C	0.550721	-0.239872	-0.053863
C374	C	0.547285	-0.243275	-0.019552
H375	H	0.538545	-0.226753	-0.054852
H376	H	0.580945	-0.225912	-0.074871
H377	H	0.534994	-0.264644	-0.055132
H378	H	0.563015	-0.218503	-0.018284
H379	H	0.517055	-0.257235	0.001462
H380	H	-0.182272	0.268459	0.398770
C381	C	0.146241	-0.266796	0.343992
C382	C	0.172601	-0.243288	0.355650
H383	H	0.158464	-0.253589	0.318696
H384	H	0.145198	-0.289505	0.344543
H385	H	0.117183	-0.273230	0.360826
H386	H	0.201658	-0.236856	0.338818
H387	H	0.173649	-0.220572	0.355096
H388	H	0.100149	0.253421	0.308676
C389	C	0.095999	-0.230352	-0.359889
C390	C	0.097534	-0.229479	-0.393365
H391	H	0.083857	-0.255647	-0.346762
H392	H	0.125046	-0.213481	-0.366321
H393	H	0.078046	-0.222525	-0.343876
H394	H	0.115489	-0.237302	-0.409379
H395	H	0.068482	-0.246355	-0.386933
C396	C	0.252332	-0.386168	0.011458
C397	C	0.262802	-0.362127	-0.019517
H398	H	0.240107	-0.411464	0.010475
H399	H	0.278361	-0.377218	0.010173
H400	H	0.231423	-0.386132	0.034732
H401	H	0.283713	-0.362162	-0.042792
H402	H	0.236770	-0.371080	-0.018236
H403	H	0.552629	0.098160	-0.469035
H404	H	0.437930	-0.026285	-0.308746
H405	H	0.267897	-0.186572	-0.184305
H406	H	-0.382753	-0.216236	0.114110
H407	H	0.617485	0.168277	-0.501573
H408	H	0.167543	-0.083608	-0.469060
C409	C	0.042481	0.117842	0.017548
C410	C	0.053777	0.092662	0.019441
H411	H	0.016207	0.104770	0.018522
H412	H	0.037775	0.127047	0.038561
H413	H	0.065797	0.138783	-0.005728
H414	H	0.030463	0.071722	0.042718
H415	H	0.058480	0.083451	-0.001574
H416	H	0.064802	-0.186523	0.019045
C417	C	0.227684	-0.073904	-0.525405
C418	C	0.216381	-0.110384	-0.512217
H419	H	0.253968	-0.060698	-0.550698
H420	H	0.204380	-0.076272	-0.525377
H421	H	0.232376	-0.060001	-0.509085
H422	H	0.211686	-0.124288	-0.528535
H423	H	0.239690	-0.108018	-0.512248
H424	H	0.335269	-0.128941	-0.308748
H425	H	-0.002525	-0.129181	0.028805
C426	C	0.657950	0.212024	-0.416958
C427	C	0.622810	0.174030	-0.393344
H428	H	0.670117	0.225180	-0.403831
H429	H	0.680061	0.212465	-0.439665
H430	H	0.647501	0.224194	-0.423386
H431	H	0.633259	0.161859	-0.386918
H432	H	0.600695	0.173587	-0.370630
C433	C	-0.688150	-0.389781	0.434790
C434	C	-0.675658	-0.414393	0.422145
H435	H	-0.713574	-0.402494	0.460536
H436	H	-0.664629	-0.367556	0.433359
H437	H	-0.694725	-0.382609	0.419054
H438	H	-0.669080	-0.421563	0.437879
H439	H	-0.699185	-0.436625	0.423580
H440	H	-0.382532	-0.318952	0.113884
H441	H	0.370892	0.301275	-0.184323
H442	H	-0.117201	-0.533500	0.468702
C443	C	0.210970	-0.206810	0.164346
C444	C	0.172605	-0.243289	0.189524
H445	H	0.223191	-0.193604	0.177420
H446	H	0.231876	-0.209179	0.143407
H447	H	0.203860	-0.192906	0.155139
H448	H	0.179716	-0.257194	0.198728
H449	H	0.151695	-0.240922	0.210469
C450	C	0.571051	0.118073	-0.342502
C451	C	0.547763	0.092894	-0.355692
H452	H	0.558956	0.105000	-0.317204
H453	H	0.601269	0.127277	-0.358813
H454	H	0.568716	0.139014	-0.342539
H455	H	0.550101	0.071954	-0.355658
H456	H	0.517538	0.083683	-0.339377
C457	C	0.250177	0.204648	-0.511696
C458	C	0.215888	0.173774	-0.511720
H459	H	0.276460	0.217801	-0.536990
H460	H	0.242413	0.221650	-0.502660
H461	H	0.254915	0.195428	-0.495426
H462	H	0.211148	0.182994	-0.527988
H463	H	0.223653	0.156769	-0.520761
C464	C	0.123968	-0.240996	0.010523
C465	C	0.097506	-0.229465	0.013370
H466	H	0.111826	-0.266292	0.009539
H467	H	0.153014	-0.224125	-0.012093
H468	H	0.125003	-0.240397	0.032196
H469	H	0.096473	-0.230062	-0.008305
H470	H	0.068452	-0.246341	0.035988
H471	H	0.167506	-0.083593	0.019063
H472	H	0.437707	0.310988	-0.411425
C473	C	-0.135293	-0.059646	0.017580
C474	C	-0.112104	-0.072964	0.019460
H475	H	-0.123125	-0.034353	0.018570
H476	H	-0.132961	-0.059636	-0.005694
H477	H	-0.165520	-0.075916	0.038594
H478	H	-0.081878	-0.056696	-0.001556
H479	H	-0.114432	-0.072972	0.042737
H480	H	-0.182059	-0.115906	-0.114213
H481	H	-0.181841	-0.603391	0.398082
C482	C	0.418973	-0.045565	-0.434875
C483	C	0.443419	-0.020950	-0.422224
H484	H	0.432029	-0.032861	-0.460631
H485	H	0.418820	-0.067799	-0.433420
H486	H	0.389492	-0.052725	-0.419158
H487	H	0.472899	-0.013793	-0.437940
H488	H	0.443577	0.001290	-0.423683
C489	C	-0.067787	-0.171564	-0.203161
C490	C	-0.112334	-0.192069	-0.189591
H491	H	-0.055699	-0.184773	-0.216229
H492	H	-0.051992	-0.146821	-0.220239
H493	H	-0.065461	-0.169198	-0.182215
H494	H	-0.114660	-0.194433	-0.210538
H495	H	-0.128134	-0.216820	-0.172512
H496	H	0.100131	-0.026521	0.028807
H497	H	0.205322	0.268398	0.114116
H498	H	0.370892	-0.533512	-0.019136
C499	C	-0.222533	-0.240992	-0.070462
C500	C	-0.187387	-0.229464	-0.108455
H501	H	-0.234705	-0.266288	-0.057307
H502	H	-0.212091	-0.224121	-0.058288
H503	H	-0.244642	-0.240392	-0.070025
H504	H	-0.165277	-0.230061	-0.108892
H505	H	-0.197828	-0.246340	-0.120632
C506	C	0.307620	-0.639988	0.020847
C507	C	0.338445	-0.609121	-0.013464
H508	H	0.319844	-0.653060	0.021827
H509	H	0.300519	-0.630776	0.041855
H510	H	0.281593	-0.657064	0.022123
H511	H	0.364471	-0.592043	-0.014739
H512	H	0.345552	-0.618332	-0.034478
H513	H	0.230368	0.295965	-0.398887
H514	H	0.230365	-0.603862	-0.013858
C515	C	0.224441	-0.553428	-0.017639
C516	C	0.262810	-0.528248	-0.019530
H517	H	0.212214	-0.540356	-0.018614
H518	H	0.231547	-0.562632	-0.038652
H519	H	0.203538	-0.574369	0.005637
H520	H	0.283715	-0.507309	-0.042807
H521	H	0.255706	-0.519038	0.001485
C522	C	0.186492	-0.357950	0.018521
C523	C	0.219312	-0.324477	-0.013424
H524	H	0.160210	-0.371072	0.019508
H525	H	0.196251	-0.373965	0.016584
H526	H	0.180752	-0.351513	0.041137
H527	H	0.225054	-0.330914	-0.036040
H528	H	0.209551	-0.308459	-0.011489
C529	C	-0.581261	-0.282921	0.327961
C530	C	-0.556816	-0.295574	0.303345
H531	H	-0.568197	-0.257163	0.315259
H532	H	-0.610736	-0.298629	0.335115
H533	H	-0.581421	-0.284385	0.350200
H534	H	-0.556659	-0.294113	0.281107
H535	H	-0.527334	-0.279862	0.296186
H536	H	0.267896	-0.186572	-0.365817
H537	H	-0.447603	-0.248768	0.184232
H538	H	0.230091	-0.219108	-0.114185
C539	C	-0.606646	-0.206743	0.341803
C540	C	-0.618086	-0.243251	0.355121
H541	H	-0.580362	-0.193619	0.316509
H542	H	-0.629908	-0.209062	0.341790
H543	H	-0.601904	-0.192788	0.358074
H544	H	-0.622832	-0.257208	0.338851
H545	H	-0.594819	-0.240934	0.355130
H546	H	0.100368	-0.306171	0.308703
C547	C	0.123335	-0.301484	0.523812
C548	C	0.096975	-0.324991	0.512153
H549	H	0.111110	-0.314691	0.549108
H550	H	0.152389	-0.295049	0.506980
H551	H	0.124375	-0.278773	0.523262
H552	H	0.095937	-0.347701	0.512700
H553	H	0.067913	-0.331432	0.528989
H554	H	-0.002509	-0.129196	-0.308775
H555	H	0.064526	-0.351765	0.468991
C556	C	0.550717	0.335965	-0.355229
C557	C	0.547280	0.301653	-0.355201
H558	H	0.538546	0.336954	-0.329935
H559	H	0.580941	0.356971	-0.371495
H560	H	0.534987	0.337234	-0.364269
H561	H	0.563013	0.300385	-0.346164
H562	H	0.517050	0.280641	-0.338929
H563	H	-0.002298	-0.408829	0.411365
H564	H	0.064321	0.097912	-0.365848
C565	C	0.312065	-0.193966	-0.010585
C566	C	0.338428	-0.205624	-0.013442
H567	H	0.324289	-0.168670	-0.009602
H568	H	0.311018	-0.194521	-0.032249
H569	H	0.283009	-0.210799	0.012039
H570	H	0.367483	-0.188793	-0.036068
H571	H	0.339479	-0.205067	0.008224
H572	H	0.332799	-0.116397	-0.501067
H573	H	0.370881	-0.248784	-0.019122
H574	H	0.437704	-0.306410	-0.028878
C575	C	-0.651104	-0.181554	0.413018
C576	C	-0.661573	-0.205598	0.392513
H577	H	-0.638878	-0.156259	0.399809
H578	H	-0.677133	-0.190503	0.437763
H579	H	-0.630196	-0.181590	0.415384
H580	H	-0.682484	-0.205565	0.390150
H581	H	-0.635542	-0.196646	0.367762
C582	C	-0.795075	-0.300831	0.523137
C583	C	-0.780694	-0.324446	0.511612
H584	H	-0.821361	-0.313958	0.548429
H585	H	-0.772812	-0.278126	0.522543
H586	H	-0.800812	-0.294401	0.506256
H587	H	-0.774954	-0.330874	0.528491
H588	H	-0.802962	-0.347158	0.512208
H589	H	0.370607	-0.083853	-0.468752
H590	H	-0.447397	-0.351491	0.184007
C591	C	-0.775577	-0.375288	0.510698
C592	C	-0.737207	-0.362100	0.474221
H593	H	-0.787804	-0.400585	0.523902
H594	H	-0.768473	-0.358978	0.524606
H595	H	-0.796480	-0.375249	0.508325
H596	H	-0.716303	-0.362135	0.476594
H597	H	-0.744310	-0.378414	0.460310
C598	C	0.392928	-0.060038	-0.164386
C599	C	0.381630	-0.073226	-0.189566
H600	H	0.419203	-0.034740	-0.177457
H601	H	0.369616	-0.060078	-0.143445
H602	H	0.397634	-0.076349	-0.155184
H603	H	0.376921	-0.056917	-0.198766
H604	H	0.404948	-0.073183	-0.210514
H605	H	0.167518	0.263140	0.184235
C606	C	-0.775833	-0.553031	0.510988
C607	C	-0.737446	-0.527964	0.474480
H608	H	-0.787968	-0.539872	0.524113
H609	H	-0.796788	-0.573975	0.508669
H610	H	-0.768775	-0.562242	0.524944
H611	H	-0.744505	-0.518754	0.460523
H612	H	-0.716487	-0.507013	0.476798
H613	H	0.437704	0.310998	-0.308766
H614	H	0.332793	-0.116391	-0.113952
H615	H	-0.770155	-0.603608	0.501511
C616	C	0.657730	-0.300852	-0.010599
C617	C	0.622589	-0.324466	-0.013451
H618	H	0.669899	-0.313977	-0.009611
H619	H	0.679839	-0.278146	-0.032268
H620	H	0.647282	-0.294423	0.012021
H621	H	0.633038	-0.330893	-0.036073
H622	H	0.600476	-0.347179	0.008219
H623	H	-0.629638	-0.533721	0.366252
C624	C	0.210997	0.264625	0.341812
C625	C	0.172613	0.262751	0.355126
H626	H	0.223130	0.263629	0.316520
H627	H	0.231954	0.287900	0.341797
H628	H	0.203935	0.243612	0.358087
H629	H	0.179675	0.283765	0.338853
H630	H	0.151651	0.239473	0.355139
C631	C	0.016450	0.253091	0.266244
C632	C	-0.007995	0.253267	0.303339
H633	H	0.003392	0.252734	0.253545
H634	H	0.045928	0.275408	0.252478
H635	H	0.016601	0.231007	0.267552
H636	H	-0.008143	0.275352	0.302030
H637	H	-0.037480	0.230948	0.317108
H638	H	-0.182070	-0.115902	0.013781
H639	H	-0.667447	-0.603843	0.398798
C640	C	0.311905	-0.389784	-0.029212
C641	C	0.324385	-0.414401	-0.029039
H642	H	0.286511	-0.402484	-0.029578
H643	H	0.305288	-0.382631	-0.006890
H644	H	0.335452	-0.367545	-0.051291
H645	H	0.300839	-0.436639	-0.006959
H646	H	0.330999	-0.421559	-0.051364
C647	C	0.381272	0.328956	-0.126743
C648	C	0.338441	0.295609	-0.108712
H649	H	0.393495	0.327980	-0.113668
H650	H	0.399147	0.330885	-0.152532
H651	H	0.380218	0.350620	-0.126250
H652	H	0.339495	0.273945	-0.109208
H653	H	0.320561	0.293676	-0.082917
H654	H	0.437709	-0.409066	-0.028885
H655	H	0.552621	-0.351498	-0.019128
H656	H	-0.002293	-0.408830	0.308704
C657	C	0.230464	-0.194368	0.416919
C658	C	0.216085	-0.205894	0.393304
H659	H	0.256746	-0.169074	0.403793
H660	H	0.208197	-0.194965	0.439627
H661	H	0.236208	-0.211244	0.423347
H662	H	0.210339	-0.189019	0.386879
H663	H	0.238357	-0.205293	0.370590
C664	C	-0.222537	-0.240984	0.010502
C665	C	-0.187398	-0.229458	0.013357
H666	H	-0.234704	-0.266277	0.009512
H667	H	-0.244648	-0.240386	0.032170
H668	H	-0.212087	-0.224107	-0.012118
H669	H	-0.197849	-0.246333	0.035979
H670	H	-0.165283	-0.230058	-0.008313
H671	H	0.205059	-0.216514	0.113907
C672	C	0.058607	-0.361463	0.133827
C673	C	0.096977	-0.324987	0.108646
H674	H	0.046380	-0.374666	0.120755
H675	H	0.065711	-0.375372	0.143031
H676	H	0.037704	-0.359089	0.154768
H677	H	0.117881	-0.327362	0.087706
H678	H	0.089874	-0.311076	0.099436
C679	C	0.019204	-0.362354	0.220662
C680	C	0.053490	-0.362383	0.189788
H681	H	-0.007079	-0.387648	0.233821
H682	H	0.026972	-0.353313	0.237661
H683	H	0.014463	-0.346088	0.211442
H684	H	0.058233	-0.378647	0.199009
H685	H	0.045721	-0.371429	0.172787
C686	C	0.599033	0.297448	-0.356114
C687	C	0.622323	0.295555	-0.392591
H688	H	0.611121	0.296464	-0.342907
H689	H	0.601372	0.320723	-0.358487
H690	H	0.568810	0.276436	-0.342208
H691	H	0.652545	0.316569	-0.406499
H692	H	0.619989	0.272277	-0.390220
C693	C	0.210775	0.117818	-0.510800
C694	C	0.172404	0.092640	-0.474322
H695	H	0.223002	0.104746	-0.524001
H696	H	0.203671	0.127021	-0.524710
H697	H	0.231676	0.138760	-0.508427
H698	H	0.151501	0.071699	-0.476696
H699	H	0.179506	0.083432	-0.460409
C700	C	-0.135641	-0.228542	0.017559
C701	C	-0.112352	-0.192064	0.019449
H702	H	-0.123547	-0.241746	0.018538
H703	H	-0.165859	-0.242448	0.038572
H704	H	-0.133306	-0.226171	-0.005717
H705	H	-0.114691	-0.194436	0.042727
H706	H	-0.082127	-0.178155	-0.001565
C707	C	-0.135064	-0.552815	0.341828
C708	C	-0.111873	-0.527747	0.355145
H709	H	-0.122897	-0.539657	0.316535
H710	H	-0.132733	-0.573758	0.341814
H711	H	-0.165291	-0.562027	0.358100
H712	H	-0.081647	-0.518537	0.338875
H713	H	-0.114201	-0.506797	0.355156
C714	C	0.570812	0.299722	-0.510775
C715	C	0.547525	0.301619	-0.474299
H716	H	0.558717	0.300697	-0.523979
H717	H	0.601030	0.320733	-0.524684
H718	H	0.568475	0.276445	-0.508399
H719	H	0.549865	0.324897	-0.476675
H720	H	0.517299	0.280606	-0.460387
H721	H	-0.182052	0.268464	0.501484
C722	C	0.657707	0.292665	-0.523212
C723	C	0.622568	0.295521	-0.511688
H724	H	0.669873	0.291671	-0.548504
H725	H	0.679819	0.314335	-0.522618
H726	H	0.647257	0.270048	-0.506331
H727	H	0.633019	0.318140	-0.528567
H728	H	0.600453	0.273849	-0.512285
C729	C	0.393361	0.299755	-0.511070
C730	C	0.381923	0.301640	-0.474563
H731	H	0.419644	0.300744	-0.524194
H732	H	0.370097	0.276481	-0.508749
H733	H	0.398106	0.320768	-0.525028
H734	H	0.377175	0.280625	-0.460604
H735	H	0.405192	0.324917	-0.476883
C736	C	0.250709	0.303162	0.389036
C737	C	0.216357	0.268850	0.392523
H738	H	0.276987	0.304142	0.375833
H739	H	0.255406	0.324168	0.375126
H740	H	0.243033	0.304441	0.413787
H741	H	0.224031	0.267572	0.367772
H742	H	0.211660	0.247838	0.406433
H743	H	0.333308	0.295959	-0.501595
C744	C	-0.163980	-0.584074	0.524956
C745	C	-0.187167	-0.609145	0.511637
H746	H	-0.176153	-0.597231	0.550251
H747	H	-0.133757	-0.574863	0.508690
H748	H	-0.166313	-0.563129	0.524966
H749	H	-0.184831	-0.630089	0.511624
H750	H	-0.217397	-0.618362	0.527907
H751	H	0.267941	0.301250	-0.184099
C752	C	0.123318	0.015893	-0.434901
C753	C	0.110834	-0.021205	-0.422249
H754	H	0.148728	0.028593	-0.460654
H755	H	0.099785	0.014591	-0.433450
H756	H	0.129917	0.029655	-0.419180
H757	H	0.104232	-0.034968	-0.437968
H758	H	0.134372	-0.019905	-0.423703
H759	H	0.267945	0.301232	-0.366341
H760	H	0.230362	0.296001	-0.113978
H761	H	0.102623	0.268466	0.500992
C762	C	0.016469	0.253145	0.434789
C763	C	-0.007982	0.253304	0.422139
H764	H	0.003426	0.252815	0.460538
H765	H	0.016609	0.231057	0.433351
H766	H	0.045954	0.275458	0.419059
H767	H	-0.037466	0.230989	0.437867
H768	H	-0.008126	0.275394	0.423580
C769	C	0.042487	0.264689	0.510692
C770	C	0.053784	0.262792	0.474216
H771	H	0.016214	0.263716	0.523893
H772	H	0.037781	0.243677	0.524603
H773	H	0.065803	0.287965	0.508317
H774	H	0.030470	0.239515	0.476591
H775	H	0.058488	0.283806	0.460302
C776	C	-0.135280	0.264662	0.510967
C777	C	-0.112089	0.262778	0.474461
H778	H	-0.123114	0.263671	0.524094
H779	H	-0.132945	0.287937	0.508645
H780	H	-0.165507	0.243650	0.524923
H781	H	-0.081863	0.283792	0.460504
H782	H	-0.114419	0.239500	0.476781
C783	C	0.123986	0.271671	0.070365
C784	C	0.097524	0.268828	0.108357
H785	H	0.111846	0.272654	0.057210
H786	H	0.153033	0.294285	0.058190
H787	H	0.125020	0.249997	0.069930
H788	H	0.096493	0.290503	0.108791
H789	H	0.068469	0.246211	0.120535
H790	H	-0.117415	0.263190	0.366230
H791	H	-0.002524	-0.026519	0.028802
H792	H	0.205307	-0.115910	0.013801
