data_functionalizedCrystal
_audit_creation_method	'MofGen! by Chris Wilmer'
_symmetry_space_group_name_H-M	'P1'
_symmetry_Int_Tables_number	1
_symmetry_cell_setting	triclinic
loop_
_symmetry_equiv_pos_as_xyz
  x,y,z
_cell_length_a	14.044220
_cell_length_b	14.519709
_cell_length_c	13.596369
_cell_angle_alpha	89.998664
_cell_angle_beta	90.001331
_cell_angle_gamma	91.565489
loop_
_atom_site_label
_atom_site_type_symbol
_atom_site_fract_x
_atom_site_fract_y
_atom_site_fract_z
O1	O	1.258086	-0.222362	0.081691
O2	O	1.591420	0.110971	0.415024
O3	O	1.924753	0.444304	0.748358
O4	O	0.982103	-0.214338	0.081716
O5	O	1.315437	0.118995	0.415049
O6	O	1.648770	0.452328	0.748382
O7	O	1.127412	-0.084702	0.081694
O8	O	1.460745	0.248631	0.415027
O9	O	1.794079	0.581965	0.748360
O10	O	1.112778	-0.351999	0.081713
O11	O	1.446111	-0.018665	0.415046
O12	O	1.779444	0.314668	0.748380
O13	O	1.127394	-0.084708	-0.081889
O14	O	1.460728	0.248625	0.251444
O15	O	1.794061	0.581958	0.584778
O16	O	0.982086	-0.214345	-0.081867
O17	O	1.315419	0.118989	0.251466
O18	O	1.648752	0.452322	0.584799
O19	O	1.258068	-0.222369	-0.081892
O20	O	1.591402	0.110965	0.251441
O21	O	1.924735	0.444298	0.584775
Zn22	Zn	1.120074	-0.218358	-0.107852
Zn23	Zn	1.453407	0.114976	0.225481
Zn24	Zn	1.786741	0.448309	0.558815
Zn25	Zn	1.120098	-0.218349	0.107676
Zn26	Zn	1.453431	0.114984	0.441009
Zn27	Zn	1.786764	0.448317	0.774342
O28	O	1.112760	-0.352005	-0.081870
O29	O	1.446093	-0.018672	0.251463
O30	O	1.779426	0.314662	0.584797
C31	C	0.946774	-0.210829	-0.000073
C32	C	1.280107	0.122504	0.333261
C33	C	1.613441	0.455838	0.666594
C34	C	0.841531	-0.200352	-0.000064
C35	C	1.174864	0.132982	0.333270
C36	C	1.508197	0.466315	0.666603
C37	C	1.126721	-0.050290	-0.000098
C38	C	1.460054	0.283043	0.333236
C39	C	1.793388	0.616376	0.666569
C40	C	1.124677	0.052256	-0.000098
C41	C	1.458011	0.385589	0.333235
C42	C	1.791344	0.718922	0.666569
N43	N	1.120065	-0.218363	-0.254944
N44	N	1.453398	0.114970	0.078390
N45	N	1.786732	0.448303	0.411723
C46	C	0.648837	-0.181197	-0.000084
C47	C	0.982170	0.152136	0.333249
C48	C	1.315503	0.485469	0.666582
C49	C	0.591329	-0.255505	-0.000083
C50	C	0.924663	0.077828	0.333250
C51	C	1.257996	0.411161	0.666583
C52	C	0.484108	-0.244848	-0.000095
C53	C	0.817441	0.088486	0.333238
C54	C	1.150775	0.421819	0.666572
C55	C	0.756068	-0.191854	-0.000073
C56	C	1.089402	0.141480	0.333261
C57	C	1.422735	0.474813	0.666594
C58	C	1.293398	-0.225878	-0.000101
C59	C	1.626731	0.107455	0.333232
C60	C	1.960064	0.440789	0.666565
C61	C	1.398641	-0.236355	-0.000104
C62	C	1.731975	0.096978	0.333229
C63	C	2.065308	0.430311	0.666563
C64	C	1.113451	-0.386417	-0.000076
C65	C	1.446784	-0.053083	0.333257
C66	C	1.780117	0.280250	0.666590
C67	C	1.115494	-0.488963	-0.000070
C68	C	1.448828	-0.155629	0.333264
C69	C	1.782161	0.177704	0.666597
C70	C	1.117153	0.427758	-0.000072
C71	C	1.450487	0.761092	0.333261
C72	C	1.783820	1.094425	0.666595
C73	C	1.119243	0.323282	-0.000079
C74	C	1.452576	0.656615	0.333254
C75	C	1.785909	0.989949	0.666587
C76	C	1.120915	0.240010	-0.000086
C77	C	1.454248	0.573344	0.333247
C78	C	1.787582	0.906677	0.666581
C79	C	1.123005	0.135527	-0.000092
C80	C	1.456338	0.468861	0.333242
C81	C	1.789672	0.802194	0.666575
C82	C	1.120070	-0.218366	-0.343942
C83	C	1.453403	0.114967	-0.010608
C84	C	1.786736	0.448301	0.322725
C85	C	1.120079	-0.218360	-0.455593
C86	C	1.453412	0.114973	-0.122260
C87	C	1.786746	0.448306	0.211074
C88	C	1.120091	-0.218351	-0.544583
C89	C	1.453425	0.114982	-0.211250
C90	C	1.786758	0.448316	0.122083
C91	C	1.120102	-0.218346	-0.656242
C92	C	1.453435	0.114987	-0.322909
C93	C	1.786769	0.448320	0.010425
N94	N	1.120114	-0.218337	0.254767
N95	N	1.453448	0.114996	0.588101
N96	N	1.786781	0.448330	0.921434
H97	H	0.622622	-0.327127	-0.000073
H98	H	0.955955	0.006206	0.333260
H99	H	1.289289	0.339540	0.666593
F100	F	0.607938	-0.087589	-0.000094
F101	F	0.941271	0.245745	0.333239
F102	F	1.274605	0.579078	0.666573
