data_functionalizedCrystal
_audit_creation_method	'MofGen! by Chris Wilmer'
_symmetry_space_group_name_H-M	'P1'
_symmetry_Int_Tables_number	1
_symmetry_cell_setting	triclinic
loop_
_symmetry_equiv_pos_as_xyz
  x,y,z
_cell_length_a	14.044191
_cell_length_b	14.044202
_cell_length_c	12.503572
_cell_angle_alpha	93.856143
_cell_angle_beta	93.844747
_cell_angle_gamma	86.807761
loop_
_atom_site_label
_atom_site_type_symbol
_atom_site_fract_x
_atom_site_fract_y
_atom_site_fract_z
O1	O	1.272127	-0.235249	-0.089306
O2	O	1.772127	0.264751	0.410694
O3	O	0.995454	-0.226937	-0.089318
O4	O	1.495454	0.273063	0.410682
O5	O	1.129635	-0.092755	-0.089283
O6	O	1.629635	0.407245	0.410717
O7	O	1.137946	-0.369431	-0.089341
O8	O	1.637946	0.130569	0.410659
O9	O	1.139729	-0.082651	0.089361
O10	O	1.639729	0.417349	0.589361
O11	O	1.005549	-0.216833	0.089326
O12	O	1.505549	0.283167	0.589326
O13	O	1.282222	-0.225145	0.089339
O14	O	1.782222	0.274855	0.589339
Cu15	Cu	1.144807	-0.220066	0.105644
Cu16	Cu	1.644807	0.279934	0.605644
Cu17	Cu	1.132869	-0.232016	-0.105624
Cu18	Cu	1.632869	0.267984	0.394376
O19	O	1.148041	-0.359327	0.089303
O20	O	1.648041	0.140673	0.589303
C21	C	0.964879	-0.218248	0.000003
C22	C	1.464879	0.281752	0.500003
C23	C	0.858735	-0.207401	-0.000000
C24	C	1.358735	0.292599	0.500000
C25	C	0.613279	-0.264502	-0.000002
C26	C	1.113279	0.235498	0.499998
C27	C	0.664402	-0.187585	0.000013
C28	C	1.164402	0.312415	0.500013
C29	C	0.772539	-0.198613	0.000005
C30	C	1.272539	0.301387	0.500005
C31	C	0.505132	-0.253475	0.000006
C32	C	1.005132	0.246525	0.500006
C33	C	1.131045	-0.052081	0.000044
C34	C	1.631045	0.447919	0.500044
C35	C	1.120198	0.054064	0.000059
C36	C	1.620198	0.554064	0.500059
C37	C	1.312797	-0.233834	0.000015
C38	C	1.812797	0.266166	0.500015
C39	C	1.418940	-0.244681	0.000011
C40	C	1.918940	0.255319	0.500011
N41	N	1.124472	-0.240413	-0.254218
N42	N	1.624472	0.259587	0.245782
C43	C	1.177295	0.299519	0.000034
C44	C	1.677295	0.799519	0.500034
C45	C	1.100379	0.248396	0.000035
C46	C	1.600379	0.748396	0.500035
C47	C	1.111409	0.140259	0.000048
C48	C	1.611409	0.640259	0.500048
C49	C	1.166267	0.407665	0.000021
C50	C	1.666267	0.907665	0.500021
C51	C	1.146629	0.599999	-0.000012
C52	C	1.646629	1.099999	0.499988
C53	C	1.157472	0.493857	0.000010
C54	C	1.657472	0.993857	0.500010
C55	C	1.112112	-0.252766	-0.473337
C56	C	1.612112	0.247234	0.026663
C57	C	1.165568	-0.199311	-0.526650
C58	C	1.665568	0.300689	-0.026650
C59	C	1.158691	-0.206185	-0.648575
C60	C	1.658691	0.293815	-0.148575
C61	C	1.118988	-0.245894	-0.351401
C62	C	1.618988	0.254106	0.148599
N63	N	1.153211	-0.211661	0.254239
N64	N	1.653211	0.288339	0.754239
H65	H	0.650721	-0.338630	-0.000021
H66	H	1.150721	0.161370	0.499979
H67	H	0.626953	-0.113455	-0.000048
H68	H	1.126953	0.386545	0.499952
H69	H	1.026246	0.285841	0.000028
H70	H	1.526246	0.785841	0.500028
H71	H	1.251423	0.262077	0.000046
H72	H	1.751423	0.762077	0.500046
H73	H	1.216497	-0.148384	-0.480724
H74	H	1.716497	0.351616	0.019276
H75	H	1.061185	-0.303689	-0.519258
H76	H	1.561185	0.196311	-0.019258
