data_functionalizedCrystal
_audit_creation_method	'MofGen! by Chris Wilmer'
_symmetry_space_group_name_H-M	'P1'
_symmetry_Int_Tables_number	1
_symmetry_cell_setting	triclinic
loop_
_symmetry_equiv_pos_as_xyz
  x,y,z
_cell_length_a	12.759401
_cell_length_b	12.827892
_cell_length_c	12.827885
_cell_angle_alpha	90.029786
_cell_angle_beta	89.981935
_cell_angle_gamma	89.984447
loop_
_atom_site_label
_atom_site_type_symbol
_atom_site_fract_x
_atom_site_fract_y
_atom_site_fract_z
Zn1	Zn	1.606246	0.415978	-0.590815
Zn2	Zn	2.106246	0.915978	-0.090815
Zn3	Zn	1.606139	0.590755	-0.416075
Zn4	Zn	2.106139	1.090755	0.083925
Zn5	Zn	1.430549	0.416029	-0.416092
Zn6	Zn	1.930549	0.916029	0.083908
Zn7	Zn	1.430534	0.590678	-0.590779
Zn8	Zn	1.930534	1.090678	-0.090779
O9	O	1.518367	0.503360	-0.503440
O10	O	2.018367	1.003360	-0.003440
O11	O	1.753253	0.439173	-0.567643
O12	O	2.253253	0.939173	-0.067643
O13	O	1.582809	0.567631	-0.269841
O14	O	2.082809	1.067631	0.230159
O15	O	1.453906	0.269787	-0.439292
O16	O	1.953906	0.769787	0.060708
O17	O	1.753175	0.567582	-0.439263
O18	O	2.253175	1.067582	0.060737
O19	O	1.582990	0.269749	-0.567660
O20	O	2.082990	0.769749	-0.067660
O21	O	1.453803	0.439261	-0.269854
O22	O	1.953803	0.939261	0.230146
O23	O	1.283526	0.439186	-0.439257
O24	O	1.783526	0.939186	0.060743
O25	O	1.453881	0.567450	-0.737020
O26	O	1.953881	1.067450	-0.237020
O27	O	1.283515	0.567500	-0.567598
O28	O	1.783515	1.067500	-0.067598
O29	O	1.582976	0.439098	-0.737046
O30	O	2.082976	0.939098	-0.237046
O31	O	1.582794	0.736981	-0.439228
O32	O	2.082794	1.236981	0.060772
O33	O	1.453778	0.736924	-0.567582
O34	O	1.953778	1.236924	-0.067582
C35	C	1.245400	0.503341	-0.503426
C36	C	1.745400	1.003341	-0.003426
C37	C	1.128623	0.503358	-0.503445
C38	C	1.628623	1.003358	-0.003445
C39	C	1.518301	0.774870	-0.503422
C40	C	2.018301	1.274870	-0.003422
C41	C	1.518369	0.891023	-0.503449
C42	C	2.018369	1.391023	-0.003449
C43	C	1.518439	0.503260	-0.776011
C44	C	2.018439	1.003260	-0.276011
C45	C	1.518469	0.503217	-0.892164
C46	C	2.018469	1.003217	-0.392164
C47	C	1.073783	0.570278	-0.570162
C48	C	1.573783	1.070278	-0.070162
C49	C	0.964059	0.570291	-0.570173
C50	C	1.464059	1.070291	-0.070173
C51	C	0.964025	0.436462	-0.436742
C52	C	1.464025	0.936462	0.063258
C53	C	1.073747	0.436444	-0.436736
C54	C	1.573747	0.936444	0.063264
C55	C	1.128659	0.637192	-0.636870
C56	C	1.628659	1.137192	-0.136870
C57	C	1.073819	0.704118	-0.703592
C58	C	1.573819	1.204118	-0.203592
C59	C	0.964095	0.704131	-0.703603
C60	C	1.464095	1.204131	-0.203603
C61	C	0.909211	0.637218	-0.636893
C62	C	1.409211	1.137218	-0.136893
C63	C	1.792400	0.503380	-0.503455
C64	C	2.292400	1.003380	-0.003455
C65	C	1.909177	0.503389	-0.503462
C66	C	2.409177	1.003389	-0.003462
C67	C	1.518462	0.230790	-0.503482
C68	C	2.018462	0.730790	-0.003482
C69	C	1.518502	0.114637	-0.503499
C70	C	2.018502	0.614637	-0.003499
C71	C	1.582287	0.942801	-0.440006
C72	C	2.082287	1.442801	0.059994
C73	C	1.582358	1.062852	-0.440032
C74	C	2.082358	1.562852	0.059968
C75	C	1.582356	0.439692	-0.943962
C76	C	2.082356	0.939692	-0.443962
C77	C	1.582389	0.439647	-1.064012
C78	C	2.082389	0.939647	-0.564012
C79	C	1.518356	0.503385	-0.231931
C80	C	2.018356	1.003385	0.268069
C81	C	1.518529	0.503133	-0.115778
C82	C	2.018529	1.003133	0.384222
H83	H	1.218002	0.637190	-0.636867
H84	H	1.718002	1.137190	-0.136867
Cl85	Cl	1.666844	1.131594	-0.356162
Cl86	Cl	2.166844	1.631594	0.143838
H87	H	0.919447	0.758618	-0.757938
H88	H	1.419447	1.258618	-0.257938
Cl89	Cl	1.142813	0.788226	-0.787457
Cl90	Cl	1.642813	1.288226	-0.287457
H91	H	1.463773	1.070117	-0.557815
H92	H	1.963773	1.570117	-0.057815
Cl93	Cl	0.771271	0.637229	-0.636918
Cl94	Cl	1.271271	1.137229	-0.136918
Cl95	Cl	1.434050	0.587131	-0.960907
Cl96	Cl	1.934050	1.087131	-0.460907
H97	H	1.463705	0.935571	-0.557789
H98	H	1.963705	1.435571	-0.057789
Cl99	Cl	1.666743	0.355746	-0.875219
Cl100	Cl	2.166743	0.855746	-0.375219
Cl101	Cl	0.895027	0.352352	-0.352881
Cl102	Cl	1.395027	0.852352	0.147119
H103	H	1.118399	0.381944	-0.382417
H104	H	1.618399	0.881944	0.117583
Cl105	Cl	1.666702	0.874032	-0.356118
Cl106	Cl	2.166702	1.374032	0.143882
H107	H	1.463834	0.557526	-1.071240
H108	H	1.963834	1.057526	-0.571240
Cl109	Cl	1.666846	0.355680	-1.132780
Cl110	Cl	2.166846	0.855680	-0.632780
