data_functionalizedCrystal
_audit_creation_method	'MofGen! by Chris Wilmer'
_symmetry_space_group_name_H-M	'P1'
_symmetry_Int_Tables_number	1
_symmetry_cell_setting	triclinic
loop_
_symmetry_equiv_pos_as_xyz
  x,y,z
_cell_length_a	17.917559
_cell_length_b	14.560438
_cell_length_c	14.560438
_cell_angle_alpha	60.005846
_cell_angle_beta	89.998518
_cell_angle_gamma	57.009515
loop_
_atom_site_label
_atom_site_type_symbol
_atom_site_fract_x
_atom_site_fract_y
_atom_site_fract_z
Zr1	Zr	0.754953	0.920615	-0.078102
O2	O	0.629836	1.126217	-0.231728
O3	O	0.793303	0.724733	-0.031027
O4	O	0.793313	0.916317	-0.222601
O5	O	0.629823	0.934632	0.110986
O6	O	0.922272	0.901870	-0.215380
O7	O	0.629826	0.934632	-0.040154
O8	O	0.922255	0.559161	0.127311
O9	O	0.629841	1.277341	-0.231705
O10	O	0.905906	0.790920	-0.005537
O11	O	0.809663	0.801702	0.101867
O12	O	0.809675	1.027267	-0.123687
O13	O	0.713432	1.038049	-0.016282
Zr14	Zr	0.960623	0.897573	0.174465
Zr15	Zr	0.960628	0.897573	-0.066585
Zr16	Zr	0.754949	0.920615	0.162948
Zr17	Zr	0.754961	1.161641	-0.078066
Zr18	Zr	0.960615	0.656546	0.174430
O19	O	0.922273	1.093454	0.127391
O20	O	0.922279	1.093454	-0.215352
O21	O	0.629830	1.126216	0.111014
O22	O	1.085740	0.691971	0.328091
O23	O	1.085746	0.691971	-0.014651
O24	O	0.793298	0.724733	0.311715
O25	O	1.085753	0.883555	-0.014623
O26	O	0.922263	0.901870	0.318965
O27	O	0.793304	0.916317	0.311743
O28	O	1.085750	0.883555	0.136517
O29	O	0.793325	1.259026	-0.222551
O30	O	0.922251	0.559161	0.318914
O31	O	1.085735	0.540846	0.328069
O32	O	1.085739	0.540846	0.136466
O33	O	0.629838	1.277341	-0.040103
O34	O	0.793322	1.259026	-0.030948
O35	O	0.905902	0.790920	0.220050
O36	O	1.002144	0.780138	0.112646
O37	O	0.905913	1.016486	-0.005504
O38	O	0.809671	1.027267	0.101901
C39	C	0.857778	0.607606	0.048137
C40	C	0.857774	0.505284	0.048122
C41	C	0.786737	0.548369	-0.039077
C42	C	0.786752	0.452178	-0.039020
C43	C	0.928846	0.269818	0.135446
C44	C	0.928834	0.366008	0.135383
C45	C	0.704698	0.653653	-0.139801
C46	C	0.704713	0.557462	-0.139744
C47	C	0.600521	0.937915	0.033775
C48	C	0.513206	0.947697	0.028886
C49	C	0.362210	0.852639	0.076403
C50	C	0.353374	0.965543	0.019963
C51	C	0.442314	0.955610	0.024929
C52	C	0.273263	0.862569	0.071438
C53	C	1.115056	0.880272	0.062588
C54	C	1.202370	0.870490	0.067478
C55	C	0.857793	0.909094	-0.253335
C56	C	0.857795	0.909094	-0.355667
C57	C	0.857798	1.210581	0.048226
C58	C	0.857802	1.312904	0.048242
C59	C	0.928835	0.901141	-0.399773
C60	C	0.928831	0.901136	-0.495923
C61	C	0.786737	0.917043	-0.503855
C62	C	0.786747	0.917039	-0.407702
C63	C	1.010869	0.891962	-0.395197
C64	C	1.010865	0.891957	-0.491347
C65	C	0.857783	0.909094	0.349699
C66	C	0.857781	0.909094	0.452031
C67	C	1.115045	0.578785	0.062543
C68	C	1.202356	0.466681	0.067418
C69	C	0.857773	0.607606	0.349654
C70	C	0.857767	0.505284	0.451971
C71	C	1.115040	0.578784	0.364060
C72	C	1.202349	0.466681	0.471267
C73	C	0.600536	1.239403	-0.267697
C74	C	0.513227	1.351507	-0.374903
C75	C	0.600531	1.239403	0.033820
C76	C	0.513220	1.351507	0.028946
C77	C	0.857804	1.210581	-0.253290
C78	C	0.857809	1.312904	-0.355607
C79	C	1.193123	0.419663	0.008006
C80	C	1.275153	0.314344	0.012563
C81	C	1.366415	0.256037	0.076539
C82	C	1.375647	0.303064	0.135952
C83	C	1.293618	0.408388	0.131388
C84	C	1.293597	0.408406	0.465548
C85	C	1.375641	0.303085	0.566271
C86	C	1.366435	0.256034	0.672711
C87	C	1.275178	0.314319	0.678427
C88	C	1.193136	0.419644	0.577705
C89	C	0.421980	1.409793	-0.369185
C90	C	0.339936	1.515144	-0.469908
C91	C	0.349141	1.562200	-0.576348
C92	C	0.440398	1.503909	-0.582064
C93	C	0.522440	1.398567	-0.481342
C94	C	0.522454	1.398534	0.088347
C95	C	0.440424	1.503880	0.083764
C96	C	0.349161	1.562190	0.019785
C97	C	0.339930	1.515159	-0.039624
C98	C	0.421959	1.409821	-0.035046
C99	C	0.908002	0.451580	0.561730
C100	C	0.907989	0.355443	0.657863
C101	C	0.807506	0.366720	0.534464
C102	C	0.807514	0.462862	0.438333
C103	C	0.966019	0.445064	0.632974
C104	C	0.966006	0.348928	0.729108
H105	H	0.711761	0.715837	-0.221537
H106	H	0.933756	0.538682	0.631198
N107	N	0.260086	1.096155	-0.045351
N108	N	0.203139	1.128667	-0.126000
H109	H	0.137252	1.220908	-0.172132
H110	H	1.076113	0.791383	-0.470895
N111	N	1.303041	0.456403	0.192094
N112	N	1.229803	0.550433	0.188029
H113	H	1.236463	0.584340	0.230907
N114	N	0.455479	0.722015	0.141679
N115	N	0.463845	0.615852	0.194736
H116	H	0.529723	0.523599	0.240832
N117	N	1.099909	0.479230	-0.057373
N118	N	1.042930	0.603645	-0.138073
H119	H	0.977099	0.645714	-0.184256
H120	H	0.728908	0.923497	-0.371784
N121	N	0.615676	1.338986	0.153683
N122	N	0.688919	1.244941	0.157768
H123	H	0.754757	1.202894	0.203909
N124	N	0.265322	1.669810	-0.679217
N125	N	0.183859	1.721829	-0.674082
H126	H	0.124658	1.797827	-0.746729
N127	N	0.714177	0.925149	-0.557019
N128	N	0.714182	0.925142	-0.642862
H129	H	0.662935	0.930867	-0.680409
H130	H	0.927734	0.389343	0.777893
H131	H	1.267617	0.276069	-0.035819
H132	H	1.080936	0.793721	-0.320000
H133	H	1.003790	0.983150	-0.563033
N134	N	1.450191	0.148343	0.081292
N135	N	1.441922	0.106308	0.028312
H136	H	1.501086	0.030205	0.031708
N137	N	1.265766	0.266247	0.787148
N138	N	1.184293	0.318270	0.792254
H139	H	1.177647	0.284312	0.869040
N140	N	0.992854	1.011003	-0.417301
N141	N	0.979359	1.100151	-0.514259
H142	H	0.966621	1.184235	-0.529876
N143	N	1.303032	0.456431	0.356841
N144	N	1.384518	0.404375	0.351772
H145	H	1.391191	0.438289	0.275000
H146	H	0.282376	1.647962	0.016067
H147	H	1.449964	0.255575	0.188039
H148	H	1.449939	0.255640	0.561597
H149	H	1.040292	0.400612	0.628399
N150	N	1.450254	0.148445	0.775580
N151	N	1.531717	0.096431	0.770445
H152	H	1.590919	0.020443	0.843093
N153	N	0.449850	1.551904	0.144464
N154	N	0.376611	1.645954	0.140379
H155	H	0.383269	1.679868	0.183250
H156	H	0.265613	1.562651	-0.091714
H157	H	1.118841	0.467079	0.582377
H158	H	0.414466	1.371487	-0.282526
H159	H	0.719047	0.555823	-0.215398
N160	N	0.246735	1.574658	-0.464033
N161	N	0.238537	1.532612	-0.368986
H162	H	0.172716	1.574641	-0.364832
H163	H	0.447882	1.542237	-0.668739
N164	N	0.412501	1.361805	-0.095732
N165	N	0.331007	1.413887	-0.152846
H166	H	0.324321	1.379983	-0.195712
H167	H	0.596736	1.351111	-0.486011
H168	H	0.766597	0.506599	0.348964
N169	N	0.756176	0.323376	0.520559
N170	N	0.756168	0.237544	0.606396
H171	H	0.719915	0.206934	0.596575
H172	H	1.042817	0.250307	0.785594
H173	H	0.986688	0.330915	0.206380
H174	H	0.639450	0.720636	-0.126659
N175	N	1.001439	0.127553	0.224566
N176	N	1.056147	0.049165	0.200702
H177	H	1.107419	-0.051311	0.263646
N178	N	0.616820	0.580884	-0.134245
N179	N	0.554887	0.676260	-0.130408
H180	H	0.492814	0.692802	-0.126525
