data_functionalizedCrystal
_audit_creation_method	'MofGen! by Chris Wilmer'
_symmetry_space_group_name_H-M	'P1'
_symmetry_Int_Tables_number	1
_symmetry_cell_setting	triclinic
loop_
_symmetry_equiv_pos_as_xyz
  x,y,z
_cell_length_a	10.489741
_cell_length_b	14.044220
_cell_length_c	12.503572
_cell_angle_alpha	86.156832
_cell_angle_beta	93.551639
_cell_angle_gamma	88.864026
loop_
_atom_site_label
_atom_site_type_symbol
_atom_site_fract_x
_atom_site_fract_y
_atom_site_fract_z
O1	O	-1.714360	-0.128402	-0.089257
O2	O	-1.381026	0.204931	0.244077
O3	O	-1.047693	0.538265	0.577410
O4	O	-1.344439	-0.140964	-0.089274
O5	O	-1.011106	0.192370	0.244060
O6	O	-0.677773	0.525703	0.577393
O7	O	-1.523846	0.003339	-0.089255
O8	O	-1.190513	0.336672	0.244079
O9	O	-0.857180	0.670006	0.577412
O10	O	-1.534953	-0.272705	-0.089275
O11	O	-1.201620	0.060629	0.244058
O12	O	-0.868286	0.393962	0.577391
O13	O	-1.510356	-0.007531	0.089386
O14	O	-1.177022	0.325802	0.422719
O15	O	-0.843689	0.659135	0.756052
O16	O	-1.330949	-0.151834	0.089367
O17	O	-0.997616	0.181499	0.422700
O18	O	-0.664282	0.514833	0.756034
O19	O	-1.700869	-0.139273	0.089384
O20	O	-1.367536	0.194061	0.422717
O21	O	-1.034203	0.527394	0.756051
Cu22	Cu	-1.514677	-0.146546	0.105687
Cu23	Cu	-1.181344	0.186787	0.439020
Cu24	Cu	-0.848011	0.520121	0.772353
Cu25	Cu	-1.530631	-0.133690	-0.105576
Cu26	Cu	-1.197298	0.199643	0.227757
Cu27	Cu	-0.863965	0.532976	0.561090
O28	O	-1.521462	-0.283575	0.089365
O29	O	-1.188129	0.049758	0.422698
O30	O	-0.854796	0.383091	0.756032
C31	C	-1.290066	-0.145450	0.000045
C32	C	-0.956733	0.187883	0.333378
C33	C	-0.623400	0.521217	0.666711
C34	C	-1.148150	-0.142611	0.000038
C35	C	-0.814816	0.190722	0.333372
C36	C	-0.481483	0.524056	0.666705
C37	C	-1.755242	-0.134786	0.000063
C38	C	-1.421909	0.198547	0.333397
C39	C	-1.088576	0.531881	0.666730
C40	C	-1.897160	-0.137625	0.000062
C41	C	-1.563827	0.195709	0.333396
C42	C	-1.230493	0.529042	0.666729
C43	C	-1.070696	-0.050796	0.000055
C44	C	-0.737362	0.282538	0.333389
C45	C	-0.404029	0.615871	0.666722
C46	C	-0.989620	-0.088809	-0.088025
C47	C	-0.656286	0.244524	0.245309
C48	C	-0.322953	0.577858	0.578642
C49	C	-0.976355	-0.099548	0.088101
C50	C	-0.643022	0.233785	0.421434
C51	C	-0.309689	0.567118	0.754768
C52	C	-1.068948	-0.180657	-0.088114
C53	C	-0.735615	0.152676	0.245219
C54	C	-0.402281	0.486009	0.578552
C55	C	-1.055686	-0.191389	0.088090
C56	C	-0.722353	0.141944	0.421424
C57	C	-0.389019	0.475278	0.754757
C58	C	-0.974646	-0.229468	-0.000011
C59	C	-0.641312	0.103866	0.333322
C60	C	-0.307979	0.437199	0.666655
C61	C	-1.512240	0.033251	0.000066
C62	C	-1.178907	0.366585	0.333399
C63	C	-0.845573	0.699918	0.666732
C64	C	-1.497740	0.138576	0.000066
C65	C	-1.164407	0.471909	0.333400
C66	C	-0.831074	0.805243	0.666733
C67	C	-1.533069	-0.313487	0.000042
C68	C	-1.199736	0.019846	0.333376
C69	C	-0.866402	0.353179	0.666709
C70	C	-1.547569	-0.418812	0.000034
C71	C	-1.214236	-0.085478	0.333368
C72	C	-0.880902	0.247855	0.666701
N73	N	-1.503465	-0.155587	0.254278
N74	N	-1.170132	0.177746	0.587611
N75	N	-0.836799	0.511079	0.920944
C76	C	-1.471233	0.331419	0.000050
C77	C	-1.137900	0.664753	0.333383
C78	C	-0.804566	0.998086	0.666716
C79	C	-1.574071	0.388351	0.000051
C80	C	-1.240737	0.721684	0.333384
C81	C	-0.907404	1.055017	0.666718
C82	C	-1.559322	0.495655	0.000042
C83	C	-1.225988	0.828989	0.333375
C84	C	-0.892655	1.162322	0.666709
C85	C	-1.485980	0.224105	0.000059
C86	C	-1.152647	0.557438	0.333392
C87	C	-0.819313	0.890771	0.666726
N88	N	-1.541853	-0.124641	-0.254168
N89	N	-1.208519	0.208692	0.079166
N90	N	-0.875186	0.542025	0.412499
C91	C	-1.486973	-0.168896	0.473391
C92	C	-1.153640	0.164438	0.806725
C93	C	-0.820306	0.497771	1.140058
C94	C	-1.558341	-0.111336	0.526726
C95	C	-1.225008	0.221997	0.860059
C96	C	-0.891674	0.555331	1.193393
C97	C	-1.549164	-0.118741	0.648648
C98	C	-1.215831	0.214592	0.981981
C99	C	-0.882498	0.547926	1.315315
C100	C	-1.496148	-0.161492	0.351458
C101	C	-1.162815	0.171841	0.684791
C102	C	-0.829482	0.505175	1.018125
H103	H	-1.112738	0.024690	-0.000049
H104	H	-0.779404	0.358023	0.333284
H105	H	-0.446071	0.691356	0.666618
Br106	Br	-1.136265	-0.237800	-0.212369
Br107	Br	-0.802932	0.095534	0.120964
Br108	Br	-0.469598	0.428867	0.454298
Br109	Br	-0.940737	-0.016511	-0.212136
Br110	Br	-0.607404	0.316823	0.121197
Br111	Br	-0.274070	0.650156	0.454531
H112	H	-0.932889	-0.305023	-0.000065
H113	H	-0.599556	0.028310	0.333268
H114	H	-0.266223	0.361644	0.666602
Br115	Br	-1.373656	-0.260296	0.549897
Br116	Br	-1.040322	0.073037	0.883230
Br117	Br	-0.706989	0.406370	1.216563
Br118	Br	-1.672251	-0.020337	0.450221
Br119	Br	-1.338918	0.312997	0.783554
Br120	Br	-1.005584	0.646330	1.116888
H121	H	-1.085046	-0.234738	0.162555
H122	H	-0.751712	0.098595	0.495888
H123	H	-0.418379	0.431929	0.829221
Br124	Br	-0.908779	-0.042325	0.212215
Br125	Br	-0.575446	0.291008	0.545549
Br126	Br	-0.242113	0.624342	0.878882
H127	H	-1.673195	0.356507	-0.000016
H128	H	-1.339862	0.689840	0.333317
H129	H	-1.006529	1.023174	0.666650
Br130	Br	-1.306037	0.384499	0.000033
Br131	Br	-0.972703	0.717832	0.333366
Br132	Br	-0.639370	1.051166	0.666700
