data_functionalizedCrystal
_audit_creation_method	'MofGen! by Chris Wilmer'
_symmetry_space_group_name_H-M	'P1'
_symmetry_Int_Tables_number	1
_symmetry_cell_setting	triclinic
loop_
_symmetry_equiv_pos_as_xyz
  x,y,z
_cell_length_a	17.640112
_cell_length_b	16.625546
_cell_length_c	17.639477
_cell_angle_alpha	101.244476
_cell_angle_beta	65.723826
_cell_angle_gamma	101.247770
loop_
_atom_site_label
_atom_site_type_symbol
_atom_site_fract_x
_atom_site_fract_y
_atom_site_fract_z
Zn1	Zn	1.165546	-0.036717	0.211672
Zn2	Zn	1.193305	-0.194251	0.073883
Zn3	Zn	1.055603	-0.082127	0.101695
Zn4	Zn	1.027728	-0.194235	0.239444
O5	O	1.110545	-0.126833	0.156674
O6	O	1.284535	-0.038617	0.170132
O7	O	1.198322	-0.198388	-0.037741
O8	O	1.070235	0.036742	0.116302
O9	O	1.304929	-0.154356	0.068899
O10	O	1.151010	0.070105	0.197101
O11	O	1.097152	-0.116012	-0.017308
O12	O	0.936599	-0.115996	0.143230
O13	O	1.022727	-0.154329	0.351073
O14	O	0.916119	-0.198362	0.244433
O15	O	1.123981	-0.038602	0.330670
O16	O	1.171293	-0.307095	0.095827
O17	O	1.049644	-0.307083	0.217464
C18	C	0.896461	-0.162105	0.199864
C19	C	0.804871	-0.177211	0.218360
C20	C	0.556759	-0.012059	0.016165
C21	C	0.470694	-0.026267	0.033556
C22	C	0.449460	-0.112206	0.138757
C23	C	0.535524	-0.098001	0.121378
C24	C	0.589168	-0.047928	0.060080
C25	C	0.567933	-0.133870	0.165292
C26	C	0.653991	-0.119670	0.147911
C27	C	0.707640	-0.069600	0.086614
C28	C	0.675225	-0.033727	0.042698
C29	C	0.514289	-0.183949	0.226586
C30	C	0.546697	-0.219818	0.270501
C31	C	0.632756	-0.205613	0.253123
C32	C	0.686405	-0.155543	0.191827
C33	C	0.665170	-0.241486	0.297040
C34	C	0.751228	-0.227285	0.279658
C35	C	0.772462	-0.141343	0.174445
C36	C	1.110474	-0.336342	0.156655
C37	C	1.110514	-0.425954	0.156659
C38	C	1.110640	-0.754092	0.156716
C39	C	1.110602	-0.662794	0.156703
C40	C	1.110577	-0.590026	0.156687
C41	C	1.110539	-0.498722	0.156675
C42	C	1.325466	-0.091423	0.113315
C43	C	1.417052	-0.076333	0.094839
C44	C	1.067148	-0.091398	0.371607
C45	C	1.048655	-0.076298	0.463199
C46	C	1.110636	0.083502	0.156706
C47	C	1.110674	0.173133	0.156720
C48	C	1.153821	-0.162063	-0.057433
C49	C	1.172474	-0.176910	-0.149057
C50	C	1.251213	-0.241082	0.711213
C51	C	1.233825	-0.226886	0.797280
C52	C	1.128484	-0.141113	0.818555
C53	C	1.145860	-0.155305	0.732489
C54	C	1.207226	-0.205290	0.678824
C55	C	1.101873	-0.119512	0.700100
C56	C	1.119251	-0.133700	0.614041
C57	C	1.180616	-0.183680	0.560371
C58	C	1.224604	-0.219477	0.592765
C59	C	1.040512	-0.069523	0.753766
C60	C	0.996525	-0.033731	0.721377
C61	C	1.013899	-0.047923	0.635317
C62	C	1.075264	-0.097903	0.581647
C63	C	0.969911	-0.012126	0.602923
C64	C	0.987289	-0.026314	0.516864
C65	C	1.092642	-0.112091	0.495588
H66	H	0.405773	-0.152979	0.188663
Cl67	Cl	1.051343	-0.078276	0.886026
H68	H	1.274582	-0.260171	0.549066
Cl69	Cl	0.815829	-0.051752	0.064757
H70	H	0.503010	-0.260590	0.320407
Cl71	Cl	0.429957	0.018824	-0.021664
H72	H	0.444216	-0.195509	0.240735
Cl73	Cl	0.919384	0.029107	0.788848
H74	H	0.777614	-0.256492	0.315419
Cl75	Cl	0.892778	0.050719	0.670395
Cl76	Cl	0.597727	-0.304451	0.374080
Cl77	Cl	1.018670	-0.051682	0.861955
H78	H	1.301190	-0.281776	0.667514
H79	H	0.600437	0.028731	-0.033738
Cl80	Cl	1.169778	-0.174942	0.428119
Cl81	Cl	0.742668	0.029230	-0.034358
Cl82	Cl	1.202468	-0.201514	0.452180
Cl83	Cl	1.289137	-0.271881	0.837992
H84	H	0.951473	0.002835	0.490493
H85	H	0.816140	-0.100553	0.124543
