data_functionalizedCrystal
_audit_creation_method	'MofGen! by Chris Wilmer'
_symmetry_space_group_name_H-M	'P1'
_symmetry_Int_Tables_number	1
_symmetry_cell_setting	triclinic
loop_
_symmetry_equiv_pos_as_xyz
  x,y,z
_cell_length_a	14.044191
_cell_length_b	14.044220
_cell_length_c	12.503572
_cell_angle_alpha	86.156832
_cell_angle_beta	86.162165
_cell_angle_gamma	86.809673
loop_
_atom_site_label
_atom_site_type_symbol
_atom_site_fract_x
_atom_site_fract_y
_atom_site_fract_z
O1	O	1.282208	-0.225145	-0.089273
O2	O	1.782208	0.274855	0.410727
O3	O	1.005536	-0.216832	-0.089287
O4	O	1.505536	0.283168	0.410713
O5	O	1.139719	-0.082653	-0.089269
O6	O	1.639719	0.417347	0.410731
O7	O	1.148026	-0.359324	-0.089290
O8	O	1.648026	0.140676	0.410710
O9	O	1.129629	-0.092762	0.089371
O10	O	1.629629	0.407238	0.589371
O11	O	0.995447	-0.226941	0.089354
O12	O	1.495447	0.273059	0.589354
O13	O	1.272118	-0.235254	0.089368
O14	O	1.772118	0.264746	0.589368
Cu15	Cu	1.132861	-0.232021	0.105672
Cu16	Cu	1.632861	0.267979	0.605672
Cu17	Cu	1.144794	-0.220065	-0.105591
Cu18	Cu	1.644794	0.279935	0.394409
O19	O	1.137936	-0.369433	0.089350
O20	O	1.637936	0.130567	0.589350
C21	C	0.964870	-0.218250	0.000032
C22	C	1.464870	0.281750	0.500032
C23	C	0.858727	-0.207402	0.000027
C24	C	1.358727	0.292598	0.500027
C25	C	0.613268	-0.264503	0.000034
C26	C	1.113268	0.235497	0.500034
C27	C	0.664393	-0.187587	0.000038
C28	C	1.164393	0.312413	0.500038
C29	C	0.772531	-0.198615	0.000032
C30	C	1.272531	0.301385	0.500032
C31	C	0.505121	-0.253477	0.000040
C32	C	1.005121	0.246523	0.500040
C33	C	1.131038	-0.052086	0.000051
C34	C	1.631038	0.447914	0.500051
C35	C	1.120194	0.054057	0.000052
C36	C	1.620194	0.554057	0.500052
C37	C	1.312785	-0.233836	0.000046
C38	C	1.812785	0.266164	0.500046
C39	C	1.418929	-0.244683	0.000044
C40	C	1.918929	0.255317	0.500044
C41	C	1.146617	-0.400000	0.000027
C42	C	1.646617	0.100000	0.500027
C43	C	1.157462	-0.506143	0.000020
C44	C	1.657462	-0.006143	0.500020
N45	N	1.124476	-0.240429	0.254263
N46	N	1.624476	0.259571	0.754263
C47	C	1.100368	0.248396	0.000036
C48	C	1.600368	0.748396	0.500036
C49	C	1.177283	0.299524	0.000036
C50	C	1.677283	0.799524	0.500036
C51	C	1.166252	0.407661	0.000027
C52	C	1.666252	0.907661	0.500027
C53	C	1.111398	0.140249	0.000045
C54	C	1.611398	0.640249	0.500045
N55	N	1.153186	-0.211650	-0.254182
N56	N	1.653186	0.288350	0.245818
C57	C	1.112141	-0.252807	0.473377
C58	C	1.612141	0.247193	0.973377
C59	C	1.165518	-0.199275	0.526711
C60	C	1.665518	0.300725	1.026711
C61	C	1.158655	-0.206162	0.648633
C62	C	1.658655	0.293838	1.148633
C63	C	1.119003	-0.245921	0.351444
C64	C	1.619003	0.254079	0.851444
H65	H	1.251420	0.262087	-0.000032
H66	H	1.751420	0.762087	0.499968
H67	H	0.650710	-0.338629	0.000025
H68	H	1.150710	0.161371	0.500025
H69	H	1.026241	0.285835	0.000029
H70	H	1.526241	0.785835	0.500029
O71	O	1.225982	-0.138322	0.471788
O72	O	1.725982	0.361678	0.971788
C73	C	1.287700	-0.075462	0.298425
C74	C	1.787700	0.424538	0.798425
C75	C	1.219328	-0.144665	0.360495
C76	C	1.719328	0.355335	0.860495
H77	H	1.282329	-0.080553	0.208434
H78	H	1.782329	0.419447	0.708434
H79	H	1.364138	-0.095252	0.320214
H80	H	1.864138	0.404748	0.820214
H81	H	1.267199	0.000708	0.320687
H82	H	1.767199	0.500708	0.820687
H83	H	1.239742	-0.220857	0.338267
H84	H	1.739742	0.279143	0.838267
H85	H	1.142908	-0.124794	0.338701
H86	H	1.642908	0.375206	0.838701
H87	H	0.626954	-0.113450	-0.000032
H88	H	1.126954	0.386550	0.499968
O89	O	1.051562	-0.313637	0.528298
O90	O	1.551562	0.186363	1.028298
C91	C	0.989345	-0.375982	0.701670
C92	C	1.489345	0.124018	1.201670
C93	C	1.058000	-0.307067	0.639590
C94	C	1.558000	0.192933	1.139590
H95	H	0.994511	-0.370678	0.791660
H96	H	1.494511	0.129322	1.291660
H97	H	1.009605	-0.452283	0.679712
H98	H	1.509605	0.047717	1.179712
H99	H	0.913033	-0.355953	0.679586
H100	H	1.413033	0.144047	1.179586
H101	H	1.134333	-0.327008	0.661640
H102	H	1.634333	0.172992	1.161640
H103	H	1.037658	-0.230784	0.661553
H104	H	1.537658	0.269216	1.161553
