data_functionalizedCrystal
_audit_creation_method	'MofGen! by Chris Wilmer'
_symmetry_space_group_name_H-M	'P1'
_symmetry_Int_Tables_number	1
_symmetry_cell_setting	triclinic
loop_
_symmetry_equiv_pos_as_xyz
  x,y,z
_cell_length_a	16.109301
_cell_length_b	11.026607
_cell_length_c	14.586319
_cell_angle_alpha	89.998207
_cell_angle_beta	89.999213
_cell_angle_gamma	96.023749
loop_
_atom_site_label
_atom_site_type_symbol
_atom_site_fract_x
_atom_site_fract_y
_atom_site_fract_z
O1	O	1.126503	0.155971	-0.076179
O2	O	0.887350	0.175382	-0.076193
O3	O	0.987106	-0.010969	-0.076183
O4	O	1.026747	0.342322	-0.076188
O5	O	0.987097	-0.010971	0.076297
O6	O	0.887341	0.175379	0.076288
O7	O	1.126494	0.155969	0.076302
Cu8	Cu	1.006916	0.165674	0.090218
Cu9	Cu	1.006927	0.165677	-0.090108
O10	O	1.026738	0.342319	0.076293
C11	C	0.856253	0.174594	0.000046
C12	C	0.763604	0.172237	0.000040
C13	C	0.557080	0.277333	0.000050
C14	C	0.470027	0.275108	0.000056
C15	C	0.456769	0.054010	0.000055
C16	C	0.543821	0.056235	0.000055
C17	C	0.593975	0.167900	0.000048
C18	C	0.419869	0.163450	0.000053
C19	C	0.325481	0.161038	0.000060
C20	C	0.688369	0.170314	0.000043
C21	C	0.979788	-0.056178	0.000055
C22	C	0.957987	-0.190883	0.000051
C23	C	1.018183	-0.264713	0.000053
C24	C	0.995652	-0.403938	0.000048
C25	C	1.157591	0.156756	0.000062
C26	C	1.250240	0.159114	0.000061
C27	C	1.034056	0.387529	0.000052
C28	C	1.055857	0.522234	0.000051
N29	N	1.006915	0.165671	0.217050
N30	N	1.006934	0.165670	-0.216940
C31	C	1.051109	0.083182	0.452060
C32	C	1.051111	0.083179	0.548041
C33	C	0.962734	0.248163	0.548043
C34	C	0.962728	0.248159	0.452063
C35	C	1.006920	0.165670	0.404074
C36	C	1.006929	0.165671	0.596035
C37	C	1.006930	0.165668	0.700102
C38	C	1.006918	0.165671	0.300001
H39	H	0.597913	0.368257	0.000051
C40	C	0.914160	0.338962	0.399276
N41	N	0.877595	0.407369	0.359516
C42	C	1.099715	-0.007574	0.600821
N43	N	1.136321	-0.075937	0.640575
H44	H	0.927432	-0.443797	0.000038
H45	H	0.439992	0.364219	0.000059
C46	C	0.584407	-0.064155	0.000054
N47	N	0.614977	-0.154829	0.000055
C48	C	0.401593	-0.068815	0.000054
N49	N	0.360034	-0.161330	0.000050
C50	C	1.110342	-0.210864	0.000065
N51	N	1.179758	-0.170307	0.000078
H52	H	1.087092	0.016013	0.412990
C53	C	1.148021	-0.423926	0.000057
N54	N	1.217438	-0.383372	0.000063
C55	C	0.865828	-0.244732	0.000047
N56	N	0.796412	-0.285289	0.000046
C57	C	0.914123	0.338893	0.600839
N58	N	0.877508	0.407233	0.640605
