data_functionalizedCrystal
_audit_creation_method	'MofGen! by Chris Wilmer'
_symmetry_space_group_name_H-M	'P1'
_symmetry_Int_Tables_number	1
_symmetry_cell_setting	triclinic
loop_
_symmetry_equiv_pos_as_xyz
  x,y,z
_cell_length_a	29.839133
_cell_length_b	18.215407
_cell_length_c	18.215399
_cell_angle_alpha	89.982632
_cell_angle_beta	89.979424
_cell_angle_gamma	90.027045
loop_
_atom_site_label
_atom_site_type_symbol
_atom_site_fract_x
_atom_site_fract_y
_atom_site_fract_z
Zn1	Zn	-0.178889	1.125048	-0.416105
Zn2	Zn	0.071111	1.375048	-0.166105
Zn3	Zn	0.321111	1.625048	0.083895
Zn4	Zn	0.571111	1.875048	0.333895
Zn5	Zn	-0.254018	1.124946	-0.293055
Zn6	Zn	-0.004018	1.374946	-0.043055
Zn7	Zn	0.245982	1.624946	0.206945
Zn8	Zn	0.495982	1.874946	0.456945
Zn9	Zn	-0.178899	1.001980	-0.293058
Zn10	Zn	0.071101	1.251980	-0.043058
Zn11	Zn	0.321101	1.501980	0.206942
Zn12	Zn	0.571101	1.751980	0.456942
Zn13	Zn	-0.253989	1.001936	-0.416085
Zn14	Zn	-0.003989	1.251936	-0.166085
Zn15	Zn	0.246011	1.501936	0.083915
Zn16	Zn	0.496011	1.751936	0.333915
O17	O	-0.216449	1.063478	-0.354576
O18	O	0.033551	1.313478	-0.104576
O19	O	0.283551	1.563478	0.145424
O20	O	0.533551	1.813478	0.395424
O21	O	-0.188862	1.228019	-0.399789
O22	O	0.061138	1.478019	-0.149789
O23	O	0.311138	1.728019	0.100211
O24	O	0.561138	1.978019	0.350211
O25	O	-0.244070	1.108610	-0.190071
O26	O	0.005930	1.358610	0.059929
O27	O	0.255930	1.608610	0.309929
O28	O	0.505930	1.858610	0.559929
O29	O	-0.116031	1.018367	-0.309390
O30	O	0.133969	1.268367	-0.059390
O31	O	0.383969	1.518367	0.190610
O32	O	0.633969	1.768367	0.440610
O33	O	-0.244059	1.227944	-0.309385
O34	O	0.005941	1.477944	-0.059385
O35	O	0.255941	1.727944	0.190615
O36	O	0.505941	1.977944	0.440615
O37	O	-0.116023	1.108784	-0.399792
O38	O	0.133977	1.358784	-0.149792
O39	O	0.383977	1.608784	0.100208
O40	O	0.633977	1.858784	0.350208
O41	O	-0.188881	1.018268	-0.190073
O42	O	0.061119	1.268268	0.059927
O43	O	0.311119	1.518268	0.309927
O44	O	0.561119	1.768268	0.559927
O45	O	-0.188852	0.898990	-0.309370
O46	O	0.061148	1.148990	-0.059370
O47	O	0.311148	1.398990	0.190630
O48	O	0.561148	1.648990	0.440630
O49	O	-0.244010	1.018291	-0.519072
O50	O	0.005990	1.268291	-0.269072
O51	O	0.255990	1.518291	-0.019072
O52	O	0.505990	1.768291	0.230928
O53	O	-0.244020	0.898958	-0.399758
O54	O	0.005980	1.148958	-0.149758
O55	O	0.255980	1.398958	0.100242
O56	O	0.505980	1.648958	0.350242
O57	O	-0.188834	1.108741	-0.519087
O58	O	0.061166	1.358741	-0.269087
O59	O	0.311166	1.608741	-0.019087
O60	O	0.561166	1.858741	0.230913
O61	O	-0.316881	1.108567	-0.309365
O62	O	-0.066881	1.358567	-0.059365
O63	O	0.183119	1.608567	0.190635
O64	O	0.433119	1.858567	0.440635
O65	O	-0.316860	1.018193	-0.399755
O66	O	-0.066860	1.268193	-0.149755
O67	O	0.183140	1.518193	0.100245
O68	O	0.433140	1.768193	0.350245
C69	C	-0.216435	0.872271	-0.354563
C70	C	0.033565	1.122271	-0.104563
C71	C	0.283565	1.372271	0.145437
C72	C	0.533565	1.622271	0.395437
C73	C	-0.216440	0.790472	-0.354575
C74	C	0.033560	1.040472	-0.104575
C75	C	0.283560	1.290472	0.145425
C76	C	0.533560	1.540472	0.395425
C77	C	-0.187758	0.602316	-0.401723
C78	C	0.062242	0.852316	-0.151723
C79	C	0.312242	1.102316	0.098277
C80	C	0.562242	1.352316	0.348277
C81	C	-0.187762	0.525458	-0.401725
C82	C	0.062238	0.775458	-0.151725
C83	C	0.312238	1.025458	0.098275
C84	C	0.562238	1.275458	0.348275
C85	C	-0.245152	0.525391	-0.307441
C86	C	0.004848	0.775391	-0.057441
C87	C	0.254848	1.025391	0.192559
C88	C	0.504848	1.275391	0.442559
C89	C	-0.245146	0.602248	-0.307436
C90	C	0.004854	0.852248	-0.057436
C91	C	0.254854	1.102248	0.192564
C92	C	0.504854	1.352248	0.442564
C93	C	-0.216449	0.640709	-0.354581
C94	C	0.033551	0.890709	-0.104581
C95	C	0.283551	1.140709	0.145419
C96	C	0.533551	1.390709	0.395419
C97	C	-0.216459	0.486993	-0.354589
C98	C	0.033541	0.736993	-0.104589
C99	C	0.283541	0.986993	0.145411
C100	C	0.533541	1.236993	0.395411
C101	C	-0.216464	0.403659	-0.354591
C102	C	0.033536	0.653659	-0.104591
C103	C	0.283536	0.903659	0.145409
C104	C	0.533536	1.153659	0.395409
C105	C	-0.216444	0.724048	-0.354578
C106	C	0.033556	0.974048	-0.104578
C107	C	0.283556	1.224048	0.145422
C108	C	0.533556	1.474048	0.395422
C109	C	-0.333171	1.063384	-0.354574
C110	C	-0.083171	1.313384	-0.104574
C111	C	0.166829	1.563384	0.145426
C112	C	0.416829	1.813384	0.395426
C113	C	-0.383106	1.063412	-0.354597
C114	C	-0.133106	1.313412	-0.104597
C115	C	0.116894	1.563412	0.145403
C116	C	0.366894	1.813412	0.395403
C117	C	-0.739654	1.110585	-0.401702
C118	C	-0.489654	1.360585	-0.151702
C119	C	-0.239654	1.610585	0.098298
C120	C	0.010346	1.860585	0.348298
C121	C	-0.551981	1.110515	-0.401701
C122	C	-0.301981	1.360515	-0.151701
C123	C	-0.051981	1.610515	0.098299
C124	C	0.198019	1.860515	0.348299
O125	O	-0.527683	1.150528	-0.441741
O126	O	-0.277683	1.400528	-0.191741
O127	O	-0.027683	1.650528	0.058259
O128	O	0.222317	1.900528	0.308259
N129	N	-0.528551	1.063470	-0.354596
N130	N	-0.278551	1.313470	-0.104596
N131	N	-0.028551	1.563470	0.145404
N132	N	0.221449	1.813470	0.395404
C133	C	-0.552042	1.016442	-0.307483
C134	C	-0.302042	1.266442	-0.057483
C135	C	-0.052042	1.516442	0.192517
C136	C	0.197958	1.766442	0.442517
O137	O	-0.527807	0.976430	-0.267412
O138	O	-0.277807	1.226430	-0.017412
O139	O	-0.027807	1.476430	0.232588
O140	O	0.222193	1.726430	0.482588
C141	C	-0.739714	1.016516	-0.307481
C142	C	-0.489714	1.266516	-0.057481
C143	C	-0.239714	1.516516	0.192519
C144	C	0.010286	1.766516	0.442519
C145	C	-0.763142	1.063559	-0.354595
C146	C	-0.513142	1.313559	-0.104595
C147	C	-0.263142	1.563559	0.145405
C148	C	-0.013142	1.813559	0.395405
C149	C	-0.763081	1.157625	-0.448812
C150	C	-0.513081	1.407625	-0.198812
C151	C	-0.263081	1.657625	0.051188
C152	C	-0.013081	1.907625	0.301188
C153	C	-0.809997	1.157639	-0.448814
C154	C	-0.559997	1.407639	-0.198814
C155	C	-0.309997	1.657639	0.051186
C156	C	-0.059997	1.907639	0.301186
C157	C	-0.833485	1.110613	-0.401707
C158	C	-0.583485	1.360613	-0.151707
C159	C	-0.333485	1.610613	0.098293
C160	C	-0.083485	1.860613	0.348293
C161	C	-0.810057	1.063573	-0.354598
C162	C	-0.560057	1.313573	-0.104598
C163	C	-0.310057	1.563573	0.145402
C164	C	-0.060057	1.813573	0.395402
C165	C	-0.763205	0.969492	-0.260365
C166	C	-0.513205	1.219492	-0.010365
C167	C	-0.263205	1.469492	0.239635
C168	C	-0.013205	1.719492	0.489635
C169	C	-0.810126	0.969516	-0.260368
C170	C	-0.560126	1.219516	-0.010368
C171	C	-0.310126	1.469516	0.239632
C172	C	-0.060126	1.719516	0.489632
C173	C	-0.833553	1.016559	-0.307482
C174	C	-0.583553	1.266559	-0.057482
C175	C	-0.333553	1.516559	0.192518
C176	C	-0.083553	1.766559	0.442518
C177	C	-0.880461	1.016561	-0.307493
C178	C	-0.630461	1.266561	-0.057493
C179	C	-0.380461	1.516561	0.192507
C180	C	-0.130461	1.766561	0.442507
N181	N	-0.903890	1.063607	-0.354599
N182	N	-0.653890	1.313607	-0.104599
N183	N	-0.403890	1.563607	0.145401
N184	N	-0.153890	1.813607	0.395401
C185	C	-0.880402	1.110633	-0.401706
C186	C	-0.630402	1.360633	-0.151706
C187	C	-0.380402	1.610633	0.098294
C188	C	-0.130402	1.860633	0.348294
C189	C	-0.453511	1.016405	-0.307489
C190	C	-0.203511	1.266405	-0.057489
C191	C	0.046489	1.516405	0.192511
C192	C	0.296489	1.766405	0.442511
C193	C	-0.406594	1.016386	-0.307490
C194	C	-0.156594	1.266386	-0.057490
C195	C	0.093406	1.516386	0.192510
C196	C	0.343406	1.766386	0.442510
C197	C	-0.406535	1.110460	-0.401707
C198	C	-0.156535	1.360460	-0.151707
C199	C	0.093465	1.610460	0.098293
C200	C	0.343465	1.860460	0.348293
C201	C	-0.453454	1.110476	-0.401709
C202	C	-0.203454	1.360476	-0.151709
C203	C	0.046546	1.610476	0.098291
C204	C	0.296546	1.860476	0.348291
C205	C	-0.476941	1.063451	-0.354595
C206	C	-0.226941	1.313451	-0.104595
C207	C	0.023059	1.563451	0.145405
C208	C	0.273059	1.813451	0.395405
C209	C	-0.978928	1.110658	-0.401708
C210	C	-0.728928	1.360658	-0.151708
C211	C	-0.478928	1.610658	0.098292
C212	C	-0.228928	1.860658	0.348292
C213	C	-1.025848	1.110666	-0.401709
C214	C	-0.775848	1.360666	-0.151709
C215	C	-0.525848	1.610666	0.098291
C216	C	-0.275848	1.860666	0.348291
C217	C	-1.025902	1.016594	-0.307489
C218	C	-0.775902	1.266594	-0.057489
C219	C	-0.525902	1.516594	0.192511
C220	C	-0.275902	1.766594	0.442511
C221	C	-0.978986	1.016583	-0.307491
C222	C	-0.728986	1.266583	-0.057491
C223	C	-0.478986	1.516583	0.192509
C224	C	-0.228986	1.766583	0.442509
C225	C	-0.955501	1.063621	-0.354603
C226	C	-0.705501	1.313621	-0.104603
C227	C	-0.455501	1.563621	0.145397
C228	C	-0.205501	1.813621	0.395397
O229	O	-0.904787	0.976575	-0.267469
O230	O	-0.654787	1.226575	-0.017469
O231	O	-0.404787	1.476575	0.232531
O232	O	-0.154787	1.726575	0.482531
O233	O	-0.904645	1.150649	-0.441760
O234	O	-0.654645	1.400649	-0.191760
O235	O	-0.404645	1.650649	0.058240
O236	O	-0.154645	1.900649	0.308240
C237	C	-0.692738	1.110571	-0.401700
C238	C	-0.442738	1.360571	-0.151700
C239	C	-0.192738	1.610571	0.098300
C240	C	0.057262	1.860571	0.348300
C241	C	-0.669311	1.063531	-0.354590
C242	C	-0.419311	1.313531	-0.104590
C243	C	-0.169311	1.563531	0.145410
C244	C	0.080689	1.813531	0.395410
C245	C	-0.692799	1.016505	-0.307483
C246	C	-0.442799	1.266505	-0.057483
C247	C	-0.192799	1.516505	0.192517
C248	C	0.057201	1.766505	0.442517
C249	C	-0.622393	1.063511	-0.354591
C250	C	-0.372393	1.313511	-0.104591
C251	C	-0.122393	1.563511	0.145409
C252	C	0.127607	1.813511	0.395409
C253	C	-0.598905	1.110537	-0.401698
C254	C	-0.348905	1.360537	-0.151698
C255	C	-0.098905	1.610537	0.098302
C256	C	0.151095	1.860537	0.348302
C257	C	-0.622335	1.157583	-0.448804
C258	C	-0.372335	1.407583	-0.198804
C259	C	-0.122335	1.657583	0.051196
C260	C	0.127665	1.907583	0.301196
C261	C	-0.669250	1.157597	-0.448807
C262	C	-0.419250	1.407597	-0.198807
C263	C	-0.169250	1.657597	0.051193
C264	C	0.080750	1.907597	0.301193
C265	C	-0.669369	0.969459	-0.260377
C266	C	-0.419369	1.219459	-0.010377
C267	C	-0.169369	1.469459	0.239623
C268	C	0.080631	1.719459	0.489623
C269	C	-0.622453	0.969448	-0.260379
C270	C	-0.372453	1.219448	-0.010379
C271	C	-0.122453	1.469448	0.239621
C272	C	0.127547	1.719448	0.489621
C273	C	-0.598965	1.016474	-0.307486
C274	C	-0.348965	1.266474	-0.057486
C275	C	-0.098965	1.516474	0.192514
C276	C	0.151035	1.766474	0.442514
C277	C	-0.099270	1.063591	-0.354594
C278	C	0.150730	1.313591	-0.104594
C279	C	0.400730	1.563591	0.145406
C280	C	0.650730	1.813591	0.395406
C281	C	-0.049336	1.063640	-0.354602
C282	C	0.200664	1.313640	-0.104602
C283	C	0.450664	1.563640	0.145398
C284	C	0.700664	1.813640	0.395398
C285	C	-0.216418	1.063522	-0.546529
C286	C	0.033582	1.313522	-0.296529
C287	C	0.283582	1.563522	-0.046529
C288	C	0.533582	1.813522	0.203471
C289	C	-0.216404	1.063542	-0.628328
C290	C	0.033596	1.313542	-0.378328
C291	C	0.283596	1.563542	-0.128328
C292	C	0.533596	1.813542	0.121672
C293	C	-0.216463	1.255430	-0.354589
C294	C	0.033537	1.505430	-0.104589
C295	C	0.283537	1.755430	0.145411
C296	C	0.533537	2.005430	0.395411
C297	C	-0.216469	1.337229	-0.354595
C298	C	0.033531	1.587229	-0.104595
C299	C	0.283531	1.837229	0.145405
C300	C	0.533531	2.087229	0.395405
C301	C	-0.187648	1.110656	-0.816531
C302	C	0.062352	1.360656	-0.566531
C303	C	0.312352	1.610656	-0.316531
C304	C	0.562352	1.860656	-0.066531
C305	C	-0.187634	1.110664	-0.893389
C306	C	0.062366	1.360664	-0.643389
C307	C	0.312366	1.610664	-0.393389
C308	C	0.562366	1.860664	-0.143389
C309	C	-0.245092	1.016480	-0.893363
C310	C	0.004908	1.266480	-0.643363
C311	C	0.254908	1.516480	-0.393363
C312	C	0.504908	1.766480	-0.143363
C313	C	-0.245102	1.016468	-0.816505
C314	C	0.004898	1.266468	-0.566505
C315	C	0.254898	1.516468	-0.316505
C316	C	0.504898	1.766468	-0.066505
C317	C	-0.216381	1.063560	-0.778091
C318	C	0.033619	1.313560	-0.528091
C319	C	0.283619	1.563560	-0.278091
C320	C	0.533619	1.813560	-0.028091
C321	C	-0.216357	1.063581	-0.931807
C322	C	0.033643	1.313581	-0.681807
C323	C	0.283643	1.563581	-0.431807
C324	C	0.533643	1.813581	-0.181807
C325	C	-0.216343	1.063590	-1.015141
C326	C	0.033657	1.313590	-0.765141
C327	C	0.283657	1.563590	-0.515141
C328	C	0.533657	1.813590	-0.265141
C329	C	-0.216394	1.063550	-0.694752
C330	C	0.033606	1.313550	-0.444752
C331	C	0.283606	1.563550	-0.194752
C332	C	0.533606	1.813550	0.055248
C333	C	-0.216447	1.063475	-0.163369
C334	C	0.033553	1.313475	0.086631
C335	C	0.283553	1.563475	0.336631
C336	C	0.533553	1.813475	0.586631
C337	C	-0.216334	1.063599	-0.081571
C338	C	0.033666	1.313599	0.168429
C339	C	0.283666	1.563599	0.418429
C340	C	0.533666	1.813599	0.668429
H341	H	-0.164390	0.633629	-0.440109
H342	H	0.085610	0.883629	-0.190109
H343	H	0.335610	1.133629	0.059891
H344	H	0.585610	1.383629	0.309891
H345	H	-0.164397	0.494202	-0.440112
H346	H	0.085603	0.744202	-0.190112
H347	H	0.335603	0.994202	0.059888
H348	H	0.585603	1.244202	0.309888
H349	H	-0.744137	0.931185	-0.222001
H350	H	-0.494137	1.181185	0.027999
H351	H	-0.244137	1.431185	0.277999
H352	H	0.005863	1.681185	0.527999
H353	H	-0.268516	0.494067	-0.269059
H354	H	-0.018516	0.744067	-0.019059
H355	H	0.231484	0.994067	0.230941
H356	H	0.481484	1.244067	0.480941
H357	H	-0.164259	1.148999	-0.785256
H358	H	0.085741	1.398999	-0.535256
H359	H	0.335741	1.648999	-0.285256
H360	H	0.585741	1.898999	-0.035256
H361	H	-0.164236	1.149013	-0.924683
H362	H	0.085764	1.399013	-0.674683
H363	H	0.335764	1.649013	-0.424683
H364	H	0.585764	1.899013	-0.174683
H365	H	-0.268477	0.978140	-0.924649
H366	H	-0.018477	1.228140	-0.674649
H367	H	0.231523	1.478140	-0.424649
H368	H	0.481523	1.728140	-0.174649
H369	H	-1.045034	0.978305	-0.269137
H370	H	-0.795034	1.228305	-0.019137
H371	H	-0.545034	1.478305	0.230863
H372	H	-0.295034	1.728305	0.480863
H373	H	-0.268500	0.978111	-0.785207
H374	H	-0.018500	1.228111	-0.535207
H375	H	0.231500	1.478111	-0.285207
H376	H	0.481500	1.728111	-0.035207
H377	H	-0.268510	0.633508	-0.269043
H378	H	-0.018510	0.883508	-0.019043
H379	H	0.231490	1.133508	0.230957
H380	H	0.481490	1.383508	0.480957
H381	H	-1.044920	1.148973	-0.440079
H382	H	-0.794920	1.398973	-0.190079
H383	H	-0.544920	1.648973	0.059921
H384	H	-0.294920	1.898973	0.309921
H385	H	-0.959812	1.148962	-0.440070
H386	H	-0.709812	1.398962	-0.190070
H387	H	-0.459812	1.648962	0.059930
H388	H	-0.209812	1.898962	0.309930
H389	H	-0.829067	1.195952	-0.487174
H390	H	-0.579067	1.445952	-0.237174
H391	H	-0.329067	1.695952	0.012826
H392	H	-0.079067	1.945952	0.262826
H393	H	-0.743961	1.195922	-0.487172
H394	H	-0.493961	1.445922	-0.237172
H395	H	-0.243961	1.695922	0.012828
H396	H	0.006039	1.945922	0.262828
H397	H	-0.472526	1.148779	-0.440077
H398	H	-0.222526	1.398779	-0.190077
H399	H	0.027474	1.648779	0.059923
H400	H	0.277474	1.898779	0.309923
H401	H	-0.688488	0.931165	-0.222015
H402	H	-0.438488	1.181165	0.027985
H403	H	-0.188488	1.431165	0.277985
H404	H	0.061512	1.681165	0.527985
H405	H	-0.387404	1.148750	-0.440065
H406	H	-0.137404	1.398750	-0.190065
H407	H	0.112596	1.648750	0.059935
H408	H	0.362596	1.898750	0.309935
H409	H	-0.688321	1.195904	-0.487173
H410	H	-0.438321	1.445904	-0.237173
H411	H	-0.188321	1.695904	0.012827
H412	H	0.061679	1.945904	0.262827
H413	H	-0.387522	0.978070	-0.269134
H414	H	-0.137522	1.228070	-0.019134
H415	H	0.112478	1.478070	0.230866
H416	H	0.362478	1.728070	0.480866
H417	H	-0.472630	0.978109	-0.269120
H418	H	-0.222630	1.228109	-0.019120
H419	H	0.027370	1.478109	0.230880
H420	H	0.277370	1.728109	0.480880
H421	H	-0.829246	0.931222	-0.222000
H422	H	-0.579246	1.181222	0.028000
H423	H	-0.329246	1.431222	0.278000
H424	H	-0.079246	1.681222	0.528000
H425	H	-0.959911	0.978269	-0.269134
H426	H	-0.709911	1.228269	-0.019134
H427	H	-0.459911	1.478269	0.230866
H428	H	-0.209911	1.728269	0.480866
H429	H	-0.603203	1.195871	-0.487163
H430	H	-0.353203	1.445871	-0.237163
H431	H	-0.103203	1.695871	0.012837
H432	H	0.146797	1.945871	0.262837
H433	H	-0.603382	0.931133	-0.222015
H434	H	-0.353382	1.181133	0.027985
H435	H	-0.103382	1.431133	0.277985
H436	H	0.146618	1.681133	0.527985
