data_functionalizedCrystal
_audit_creation_method	'MofGen! by Chris Wilmer'
_symmetry_space_group_name_H-M	'P1'
_symmetry_Int_Tables_number	1
_symmetry_cell_setting	triclinic
loop_
_symmetry_equiv_pos_as_xyz
  x,y,z
_cell_length_a	10.686220
_cell_length_b	13.032721
_cell_length_c	10.686551
_cell_angle_alpha	93.335252
_cell_angle_beta	90.308082
_cell_angle_gamma	100.973619
loop_
_atom_site_label
_atom_site_type_symbol
_atom_site_fract_x
_atom_site_fract_y
_atom_site_fract_z
Zn1	Zn	1.936448	-0.254400	-0.604121
Zn2	Zn	1.893610	-0.443269	-0.425347
Zn3	Zn	1.706806	-0.281093	-0.414818
Zn4	Zn	1.700338	-0.441154	-0.650778
O5	O	1.809301	-0.354979	-0.523766
O6	O	2.107756	-0.269167	-0.565287
O7	O	1.853609	-0.433812	-0.250383
O8	O	1.757902	-0.131524	-0.415997
O9	O	2.076284	-0.407929	-0.433943
O10	O	1.926619	-0.111912	-0.555077
O11	O	1.716365	-0.314662	-0.242647
O12	O	1.528957	-0.312612	-0.461238
O13	O	1.746880	-0.404324	-0.818156
O14	O	1.524205	-0.430208	-0.634597
O15	O	1.920348	-0.267117	-0.783878
O16	O	1.847338	-0.589017	-0.479184
O17	O	1.705342	-0.587463	-0.644807
C18	C	1.480689	-0.374078	-0.551838
C19	C	1.340107	-0.382271	-0.563881
C20	C	1.771027	-0.626100	-0.568225
C21	C	1.754773	-0.742077	-0.587276
C22	C	1.817856	-0.794509	-0.513873
C23	C	1.801058	-0.914377	-0.533562
C24	C	2.139195	-0.335806	-0.495585
C25	C	2.279776	-0.327636	-0.483576
C26	C	1.837671	-0.332507	-0.847280
C27	C	1.849761	-0.322931	-0.985142
C28	C	1.847760	-0.082796	-0.479158
C29	C	1.864150	0.033193	-0.460149
C30	C	1.781124	-0.377284	-0.201492
C31	C	1.769320	-0.386552	-0.063562
H32	H	1.284201	-0.435326	-0.641847
H33	H	1.884306	-0.750658	-0.436458
Cl34	Cl	1.698473	-0.982069	-0.653106
Cl35	Cl	1.966749	-0.899117	-0.340614
H36	H	1.688334	-0.785929	-0.664699
H37	H	1.691206	-0.448349	-1.025232
H38	H	1.927889	-0.261136	-1.023478
H39	H	1.335674	-0.274592	-0.405608
