data_functionalizedCrystal
_audit_creation_method	'MofGen! by Chris Wilmer'
_symmetry_space_group_name_H-M	'P1'
_symmetry_Int_Tables_number	1
_symmetry_cell_setting	triclinic
loop_
_symmetry_equiv_pos_as_xyz
  x,y,z
_cell_length_a	12.827893
_cell_length_b	13.897449
_cell_length_c	12.827885
_cell_angle_alpha	90.020099
_cell_angle_beta	89.974949
_cell_angle_gamma	89.995211
loop_
_atom_site_label
_atom_site_type_symbol
_atom_site_fract_x
_atom_site_fract_y
_atom_site_fract_z
Zn1	Zn	0.415947	1.474792	0.590906
Zn2	Zn	0.590724	1.474727	0.416181
Zn3	Zn	0.416002	1.313483	0.416177
Zn4	Zn	0.590650	1.313502	0.590878
O5	O	0.503331	1.394126	0.503536
O6	O	0.439139	1.609765	0.567742
O7	O	0.567601	1.453303	0.269944
O8	O	0.269758	1.334899	0.439366
O9	O	0.567547	1.609717	0.439372
O10	O	0.269718	1.453412	0.567738
O11	O	0.439233	1.334837	0.269942
O12	O	0.439161	1.178504	0.439339
O13	O	0.567422	1.334933	0.737118
O14	O	0.567475	1.178518	0.567691
O15	O	0.439068	1.453431	0.737139
O16	O	0.736950	1.453322	0.439345
O17	O	0.736896	1.334871	0.567694
C18	C	0.503317	1.143512	0.503512
C19	C	0.503336	1.036298	0.503526
C20	C	0.230761	1.394161	0.503555
C21	C	0.114607	1.394175	0.503563
C22	C	0.062843	1.335544	0.440050
C23	C	-0.057208	1.335558	0.440057
C24	C	0.503340	0.840003	0.503554
C25	C	0.503334	0.949235	0.503536
C26	C	0.774841	1.394118	0.503540
C27	C	0.890994	1.394202	0.503576
C28	C	0.503230	1.394192	0.776106
C29	C	0.503188	1.394220	0.892259
C30	C	0.503345	1.645719	0.503560
C31	C	0.503352	1.752933	0.503571
C32	C	0.503355	1.394116	0.232026
C33	C	0.503104	1.394275	0.115873
C34	C	0.439661	1.452863	0.944054
C35	C	0.439616	1.452893	1.064104
H36	H	0.107402	1.285334	0.385673
H37	H	-0.064497	1.444405	0.557951
O38	O	0.367665	1.519350	0.885080
H39	H	0.379007	1.508900	0.800042
H40	H	0.557534	1.344029	0.936793
H41	H	0.070049	1.444379	0.557947
H42	H	0.557497	1.344069	1.071338
H43	H	-0.101723	1.285365	0.385677
O44	O	0.367557	1.519384	1.123105
H45	H	0.414348	1.568420	1.172849
