data_functionalizedCrystal
_audit_creation_method	'MofGen! by Chris Wilmer'
_symmetry_space_group_name_H-M	'P1'
_symmetry_Int_Tables_number	1
_symmetry_cell_setting	triclinic
loop_
_symmetry_equiv_pos_as_xyz
  x,y,z
_cell_length_a	19.077269
_cell_length_b	29.839131
_cell_length_c	19.076919
_cell_angle_alpha	87.732541
_cell_angle_beta	85.330942
_cell_angle_gamma	87.744649
loop_
_atom_site_label
_atom_site_type_symbol
_atom_site_fract_x
_atom_site_fract_y
_atom_site_fract_z
Zn1	Zn	1.061556	-0.215186	0.355254
Zn2	Zn	1.561556	0.284814	0.855254
Zn3	Zn	1.066178	-0.287409	0.237368
Zn4	Zn	1.566178	0.212591	0.737368
Zn5	Zn	0.948416	-0.209397	0.242122
Zn6	Zn	1.448416	0.290603	0.742122
Zn7	Zn	0.943608	-0.287387	0.359951
Zn8	Zn	1.443608	0.212613	0.859951
O9	O	1.004939	-0.249845	0.298674
O10	O	1.504939	0.250155	0.798674
O11	O	1.160814	-0.227199	0.335661
O12	O	1.660814	0.272801	0.835661
O13	O	1.054502	-0.274647	0.139351
O14	O	1.554502	0.225353	0.639351
O15	O	0.963502	-0.147300	0.257153
O16	O	1.463502	0.352700	0.757153
O17	O	1.164210	-0.280261	0.249051
O18	O	1.664210	0.219739	0.749051
O19	O	1.046625	-0.151553	0.340271
O20	O	1.546625	0.348447	0.840271
O21	O	0.967983	-0.217332	0.142844
O22	O	1.467983	0.282668	0.642844
O23	O	0.849133	-0.217310	0.261708
O24	O	1.349133	0.282690	0.761708
O25	O	0.955308	-0.280222	0.457975
O26	O	1.455308	0.219778	0.957975
O27	O	0.845601	-0.274609	0.348276
O28	O	1.345601	0.225391	0.848276
O29	O	1.041964	-0.227177	0.454525
O30	O	1.541964	0.272823	0.954525
O31	O	1.049841	-0.350271	0.253605
O32	O	1.549841	0.149729	0.753605
O33	O	0.959790	-0.350254	0.343666
O34	O	1.459790	0.149746	0.843666
C35	C	0.821789	-0.245329	0.306018
C36	C	1.321789	0.254671	0.806018
C37	C	0.743436	-0.243409	0.309176
C38	C	1.243436	0.256591	0.809176
C39	C	0.708393	-0.270085	0.265500
C40	C	1.208393	0.229915	0.765500
C41	C	0.634772	-0.268281	0.268477
C42	C	1.134772	0.231719	0.768477
C43	C	0.596195	-0.239798	0.315127
C44	C	1.096195	0.260202	0.815127
C45	C	0.631243	-0.213121	0.358809
C46	C	1.131243	0.286879	0.858809
C47	C	0.704863	-0.214928	0.355835
C48	C	1.204863	0.285072	0.855835
C49	C	0.375825	-0.231439	0.328868
C50	C	0.875825	0.268561	0.828868
C51	C	0.302200	-0.229634	0.331837
C52	C	0.802200	0.270366	0.831837
C53	C	0.305734	-0.284794	0.241506
C54	C	0.805734	0.215206	0.741506
C55	C	0.379356	-0.286596	0.238533
C56	C	0.879356	0.213404	0.738533
C57	C	0.414397	-0.259921	0.282217
C58	C	0.914397	0.240079	0.782217
N59	N	0.520942	-0.237952	0.318170
N60	N	1.020942	0.262048	0.818170
N61	N	0.489648	-0.261770	0.279177
N62	N	0.989648	0.238230	0.779177
C63	C	1.004814	-0.366563	0.298644
C64	C	1.504814	0.133437	0.798644
C65	C	1.004823	-0.416498	0.298652
C66	C	1.504823	0.083502	0.798652
C67	C	1.051908	-0.726145	0.251842
C68	C	1.551908	-0.226145	0.751842
C69	C	1.051994	-0.913820	0.251866
C70	C	1.551994	-0.413820	0.751866
O71	O	1.091928	-0.938085	0.212043
O72	O	1.591928	-0.438085	0.712043
N73	N	1.005083	-0.937292	0.298721
N74	N	1.505083	-0.437292	0.798721
C75	C	0.958151	-0.913841	0.345577
C76	C	1.458151	-0.413841	0.845577
O77	O	0.918257	-0.938111	0.385436
O78	O	1.418257	-0.438111	0.885436
C79	C	0.958069	-0.726166	0.345556
C80	C	1.458069	-0.226166	0.845556
C81	C	1.004978	-0.702697	0.298693
C82	C	1.504978	-0.202697	0.798693
C83	C	1.098814	-0.702676	0.204983
C84	C	1.598814	-0.202676	0.704983
C85	C	1.098789	-0.655759	0.204974
C86	C	1.598789	-0.155759	0.704974
C87	C	1.051859	-0.632312	0.251826
C88	C	1.551859	-0.132312	0.751826
C89	C	1.004954	-0.655781	0.298685
C90	C	1.504954	-0.155781	0.798685
C91	C	0.911141	-0.702717	0.392415
C92	C	1.411141	-0.202717	0.892415
C93	C	0.911126	-0.655795	0.392407
C94	C	1.411126	-0.155795	0.892407
C95	C	0.958034	-0.632326	0.345544
C96	C	1.458034	-0.132326	0.845544
C97	C	0.957999	-0.585417	0.345528
C98	C	1.457999	-0.085417	0.845528
N99	N	1.004909	-0.561946	0.298672
N100	N	1.504909	-0.061946	0.798672
C101	C	1.051840	-0.585394	0.251821
C102	C	1.551840	-0.085394	0.751821
C103	C	0.958196	-1.012373	0.345584
C104	C	1.458196	-0.512373	0.845584
C105	C	0.958216	-1.059291	0.345589
C106	C	1.458216	-0.559291	0.845589
C107	C	1.052060	-1.059268	0.251878
C108	C	1.552060	-0.559268	0.751878
C109	C	1.052037	-1.012348	0.251870
C110	C	1.552037	-0.512348	0.751870
C111	C	1.005107	-0.988902	0.298729
C112	C	1.505107	-0.488902	0.798729
C113	C	1.051784	-0.486866	0.251807
C114	C	1.551784	0.013134	0.751807
C115	C	1.051753	-0.439945	0.251801
C116	C	1.551753	0.060055	0.751801
C117	C	0.957912	-0.439973	0.345514
C118	C	1.457912	0.060027	0.845514
C119	C	0.957940	-0.486890	0.345518
C120	C	1.457940	0.013110	0.845518
C121	C	1.004882	-0.510335	0.298662
C122	C	1.504882	-0.010335	0.798662
O123	O	0.918092	-0.561124	0.385335
O124	O	1.418092	-0.061124	0.885335
O125	O	1.091738	-0.561116	0.211979
O126	O	1.591738	-0.061116	0.711979
C127	C	1.051933	-0.773061	0.251850
C128	C	1.551933	-0.273061	0.751850
C129	C	1.005027	-0.796530	0.298709
C130	C	1.505027	-0.296530	0.798709
C131	C	0.958097	-0.773082	0.345560
C132	C	1.458097	-0.273082	0.845560
C133	C	1.005047	-0.843448	0.298714
C134	C	1.505047	-0.343448	0.798714
C135	C	1.051977	-0.866896	0.251862
C136	C	1.551977	-0.366896	0.751862
C137	C	1.098888	-0.843425	0.205007
C138	C	1.598888	-0.343425	0.705007
C139	C	1.098863	-0.796508	0.204999
C140	C	1.598863	-0.296508	0.704999
C141	C	0.911186	-0.796554	0.392416
C142	C	1.411186	-0.296554	0.892416
C143	C	0.911214	-0.843470	0.392420
C144	C	1.411214	-0.343470	0.892420
C145	C	0.958144	-0.866917	0.345568
C146	C	1.458144	-0.366917	0.845568
C147	C	1.188805	-0.254378	0.291302
C148	C	1.688805	0.245622	0.791302
C149	C	1.267157	-0.256310	0.288160
C150	C	1.767157	0.243690	0.788160
C151	C	0.997584	-0.254343	0.482543
C152	C	1.497584	0.245657	0.982543
C153	C	0.994450	-0.256259	0.560898
C154	C	1.494450	0.243741	1.060898
C155	C	1.005084	-0.132671	0.298719
C156	C	1.505084	0.367329	0.798719
C157	C	1.005146	-0.082739	0.298738
C158	C	1.505146	0.417261	0.798738
C159	C	1.012306	-0.245333	0.115518
C160	C	1.512306	0.254667	0.615518
C161	C	1.015577	-0.243293	0.037159
C162	C	1.515577	0.256707	0.537159
C163	C	1.038092	-0.229543	0.595913
C164	C	1.538092	0.270457	1.095913
C165	C	1.035139	-0.231342	0.669536
C166	C	1.535139	0.268658	1.169536
C167	C	0.988546	-0.259860	0.708141
C168	C	1.488546	0.240140	1.208141
C169	C	0.944899	-0.286578	0.673121
C170	C	1.444899	0.213422	1.173121
C171	C	0.947850	-0.284776	0.599500
C172	C	1.447850	0.215224	1.099500
C173	C	0.974881	-0.268208	0.928517
C174	C	1.474881	0.231792	1.428517
C175	C	0.971935	-0.270009	1.002143
C176	C	1.471935	0.229991	1.502143
C177	C	1.062174	-0.214773	0.998553
C178	C	1.562174	0.285227	1.498553
C179	C	1.065123	-0.212976	0.924931
C180	C	1.565123	0.287024	1.424931
C181	C	1.021474	-0.239691	0.889917
C182	C	1.521474	0.260309	1.389917
N183	N	0.985528	-0.261701	0.783395
N184	N	1.485528	0.238299	1.283395
N185	N	1.024489	-0.237848	0.814664
N186	N	1.524489	0.262152	1.314664
H187	H	0.606243	-0.290003	0.232910
H188	H	1.106243	0.209997	0.732910
H189	H	0.599827	-0.189932	0.396796
H190	H	1.099827	0.310068	0.896796
N191	N	1.102676	-1.084565	0.201346
N192	N	1.602676	-0.584565	0.701346
H193	H	1.134174	-1.105509	0.228722
H194	H	1.634174	-0.605509	0.728722
H195	H	1.132350	-1.062554	0.171670
H196	H	1.632350	-0.562554	0.671670
H197	H	1.097710	-0.193022	1.027070
H198	H	1.597710	0.306978	1.527070
H199	H	0.933992	-0.293233	1.033574
H200	H	1.433992	0.206767	1.533574
H201	H	1.103066	-0.189755	0.893503
H202	H	1.603066	0.310245	1.393503
H203	H	0.939349	-0.289969	0.900017
H204	H	1.439349	0.210031	1.400017
H205	H	0.906960	-0.309796	0.704559
H206	H	1.406960	0.190204	1.204559
N207	N	0.907303	-0.414674	0.396045
N208	N	1.407303	0.085326	0.896045
H209	H	0.916202	-0.424319	0.445985
H210	H	1.416202	0.075681	0.945985
H211	H	0.857406	-0.421371	0.387023
H212	H	1.357406	0.078629	0.887023
H213	H	0.270792	-0.206436	0.369823
H214	H	0.770792	0.293564	0.869823
N215	N	1.088354	-0.198788	0.554281
N216	N	1.588354	0.301212	1.054281
H217	H	1.122223	-0.217106	0.522427
H218	H	1.622223	0.282894	1.022427
H219	H	1.115502	-0.182145	0.587687
H220	H	1.615502	0.317855	1.087687
H221	H	0.872939	-0.721817	0.430574
H222	H	1.372939	-0.221817	0.930574
N223	N	0.900771	-0.313590	0.561737
N224	N	1.400771	0.186410	1.061737
H225	H	0.911163	-0.346272	0.574096
H226	H	1.411163	0.153728	1.074096
H227	H	0.909726	-0.308084	0.509252
H228	H	1.409726	0.191916	1.009252
N229	N	0.749999	-0.300802	0.215178
N230	N	1.249999	0.199198	0.715178
H231	H	0.716625	-0.317428	0.187962
H232	H	1.216625	0.182572	0.687962
H233	H	0.779389	-0.323071	0.242578
H234	H	1.279389	0.176929	0.742578
N235	N	0.413625	-0.202660	0.375958
N236	N	0.913625	0.297340	0.875958
H237	H	0.442862	-0.222491	0.407344
H238	H	0.942862	0.277509	0.907344
H239	H	0.377980	-0.184340	0.405914
H240	H	0.877980	0.315660	0.905914
N241	N	0.420963	-0.317314	0.188212
N242	N	0.920963	0.182686	0.688212
H243	H	0.387591	-0.333939	0.160993
H244	H	0.887591	0.166061	0.660993
H245	H	0.450354	-0.339583	0.215610
H246	H	0.950354	0.160417	0.715610
H247	H	0.277196	-0.306513	0.205942
H248	H	0.777196	0.193487	0.705942
N249	N	0.742663	-0.186158	0.402946
N250	N	1.242663	0.313842	0.902946
H251	H	0.707054	-0.167840	0.432950
H252	H	1.207054	0.332160	0.932950
H253	H	0.774367	-0.165389	0.373079
H254	H	1.274367	0.334611	0.873079
H255	H	1.089952	-0.420838	0.213637
H256	H	1.589952	0.079162	0.713637
H257	H	1.090010	-0.505950	0.213654
H258	H	1.590010	-0.005950	0.713654
H259	H	1.136989	-0.636654	0.166816
H260	H	1.636989	-0.136654	0.666816
N261	N	1.149437	-0.727961	0.154447
N262	N	1.649437	-0.227961	0.654447
H263	H	1.179143	-0.705967	0.124766
H264	H	1.679143	-0.205967	0.624766
H265	H	1.122083	-0.745947	0.122949
H266	H	1.622083	-0.245947	0.622949
N267	N	0.860503	-0.630504	0.442941
N268	N	1.360503	-0.130504	0.942941
H269	H	0.887804	-0.612514	0.474482
H270	H	1.387804	-0.112514	0.974482
H271	H	0.830802	-0.652520	0.472578
H272	H	1.330802	-0.152520	0.972578
H273	H	0.873009	-0.862574	0.430581
H274	H	1.373009	-0.362574	0.930581
N275	N	1.102633	-0.987037	0.201328
N276	N	1.602633	-0.487037	0.701328
H277	H	1.132363	-1.009015	0.171651
H278	H	1.632363	-0.509015	0.671651
H279	H	1.134078	-0.969050	0.228740
H280	H	1.634078	-0.469050	0.728740
H281	H	0.920012	-1.078395	0.383743
H282	H	1.420012	-0.578395	0.883743
H283	H	0.919745	-0.505999	0.383680
H284	H	1.419745	-0.005999	0.883680
H285	H	0.919979	-0.993286	0.383743
H286	H	1.419979	-0.493286	0.883743
H287	H	1.137061	-0.777403	0.166838
H288	H	1.637061	-0.277403	0.666838
N289	N	1.149500	-0.868718	0.154468
N290	N	1.649500	-0.368718	0.654468
H291	H	1.142391	-0.902001	0.161588
H292	H	1.642391	-0.402001	0.661588
H293	H	1.199394	-0.861993	0.163458
H294	H	1.699394	-0.361993	0.663458
H295	H	1.070679	-0.209588	0.698042
H296	H	1.570679	0.290412	1.198042
H297	H	0.872971	-0.777466	0.430569
H298	H	1.372971	-0.277466	0.930569
