data_functionalizedCrystal
_audit_creation_method	'MofGen! by Chris Wilmer'
_symmetry_space_group_name_H-M	'P1'
_symmetry_Int_Tables_number	1
_symmetry_cell_setting	triclinic
loop_
_symmetry_equiv_pos_as_xyz
  x,y,z
_cell_length_a	14.519709
_cell_length_b	10.654541
_cell_length_c	12.996460
_cell_angle_alpha	90.005903
_cell_angle_beta	90.000034
_cell_angle_gamma	95.917963
loop_
_atom_site_label
_atom_site_type_symbol
_atom_site_fract_x
_atom_site_fract_y
_atom_site_fract_z
O1	O	1.224721	-0.164626	-0.085432
O2	O	1.724721	0.335374	0.414568
O3	O	0.956345	-0.184012	-0.085464
O4	O	1.456345	0.315988	0.414536
O5	O	1.096705	0.008480	-0.085441
O6	O	1.596705	0.508480	0.414559
O7	O	1.084361	-0.357118	-0.085455
O8	O	1.584361	0.142882	0.414545
O9	O	1.096690	0.008491	0.085693
O10	O	1.596690	0.508491	0.585693
O11	O	0.956330	-0.184002	0.085670
O12	O	1.456330	0.315998	0.585670
O13	O	1.224706	-0.164615	0.085702
O14	O	1.724706	0.335385	0.585702
Cu15	Cu	1.090517	-0.174307	0.101312
Cu16	Cu	1.590517	0.325693	0.601312
Cu17	Cu	1.090534	-0.174320	-0.101074
Cu18	Cu	1.590534	0.325680	0.398926
O19	O	1.084347	-0.357107	0.085679
O20	O	1.584347	0.142893	0.585679
C21	C	0.921973	-0.183103	0.000099
C22	C	1.421973	0.316897	0.500099
C23	C	0.819578	-0.180396	0.000087
C24	C	1.319578	0.319604	0.500087
N25	N	1.090547	-0.174320	-0.243421
N26	N	1.590547	0.325680	0.256579
C27	C	1.095791	0.055275	0.000125
C28	C	1.595791	0.555275	0.500125
C29	C	1.093081	0.194692	0.000123
C30	C	1.593081	0.694692	0.500123
C31	C	0.444630	-0.170429	0.000135
C32	C	0.944630	0.329571	0.500135
C33	C	0.548952	-0.173197	0.000121
C34	C	1.048952	0.326803	0.500121
C35	C	0.632101	-0.175412	0.000110
C36	C	1.132101	0.324588	0.500110
C37	C	0.736429	-0.178181	0.000098
C38	C	1.236429	0.321819	0.500098
C39	C	1.259078	-0.165524	0.000136
C40	C	1.759078	0.334476	0.500136
C41	C	1.361474	-0.168231	0.000141
C42	C	1.861474	0.331769	0.500141
C43	C	1.085260	-0.403902	0.000110
C44	C	1.585260	0.096098	0.500110
C45	C	1.087970	-0.543319	0.000106
C46	C	1.587970	-0.043319	0.500106
C47	C	1.260920	0.224277	0.000156
C48	C	1.760920	0.724277	0.500156
C49	C	1.343562	0.304566	0.000174
C50	C	1.843562	0.804566	0.500174
C51	C	1.341010	0.435559	0.000171
C52	C	1.841010	0.935559	0.500171
C53	C	1.255806	0.486265	0.000146
C54	C	1.755806	0.986265	0.500146
C55	C	1.173164	0.405976	0.000127
C56	C	1.673164	0.905976	0.500127
C57	C	1.175725	0.274981	0.000134
C58	C	1.675725	0.774981	0.500134
C59	C	1.005328	0.376392	0.000087
C60	C	1.505328	0.876392	0.500087
C61	C	1.007878	0.245398	0.000098
C62	C	1.507878	0.745398	0.500098
C63	C	0.920124	0.427098	0.000063
C64	C	1.420124	0.927098	0.500063
C65	C	0.837480	0.346809	0.000052
C66	C	1.337480	0.846809	0.500052
C67	C	0.840036	0.215808	0.000056
C68	C	1.340036	0.715808	0.500056
C69	C	0.925236	0.165109	0.000080
C70	C	1.425236	0.665109	0.500080
N71	N	1.090511	-0.174298	0.243659
N72	N	1.590511	0.325702	0.743659
C73	C	1.090533	-0.174321	0.663473
C74	C	1.590533	0.325679	1.163473
C75	C	1.090524	-0.174319	0.546668
C76	C	1.590524	0.325681	1.046668
C77	C	1.090523	-0.174310	0.453570
C78	C	1.590523	0.325690	0.953570
C79	C	1.090513	-0.174306	0.336757
C80	C	1.590513	0.325694	0.836757
H81	H	1.263006	0.117616	0.000173
H82	H	1.763006	0.617616	0.500173
O83	O	1.430141	0.522169	0.000197
O84	O	1.930141	1.022169	0.500197
H85	H	1.489817	0.464910	0.000222
H86	H	1.989817	0.964910	0.500222
H87	H	1.253736	0.592928	0.000130
H88	H	1.753736	1.092928	0.500130
H89	H	0.918052	0.533761	0.000053
H90	H	1.418052	1.033761	0.500053
O91	O	0.745590	0.401493	0.000034
O92	O	1.245590	0.901493	0.500034
H93	H	0.757699	0.506069	0.000037
H94	H	1.257699	1.006069	0.500037
H95	H	0.772738	0.150442	0.000037
H96	H	1.272738	0.650442	0.500037
H97	H	0.927325	0.058449	0.000090
H98	H	1.427325	0.558449	0.500090
H99	H	1.412933	0.263266	0.000203
H100	H	1.912933	0.763266	0.500203
