data_functionalizedCrystal
_audit_creation_method	'MofGen! by Chris Wilmer'
_symmetry_space_group_name_H-M	'P1'
_symmetry_Int_Tables_number	1
_symmetry_cell_setting	triclinic
loop_
_symmetry_equiv_pos_as_xyz
  x,y,z
_cell_length_a	9.730217
_cell_length_b	16.992694
_cell_length_c	16.992695
_cell_angle_alpha	90.668223
_cell_angle_beta	89.996317
_cell_angle_gamma	90.004200
loop_
_atom_site_label
_atom_site_type_symbol
_atom_site_fract_x
_atom_site_fract_y
_atom_site_fract_z
O1	O	0.114119	-1.050847	-0.166915
O2	O	0.114159	-0.822447	-0.165084
O3	O	0.114128	-0.935731	-0.051799
O4	O	0.114150	-0.937563	-0.280199
O5	O	-0.114452	-0.935728	-0.051798
O6	O	-0.114421	-0.822443	-0.165083
O7	O	-0.114461	-1.050843	-0.166914
Zn8	Zn	-0.150733	-0.936643	-0.165998
Zn9	Zn	0.150431	-0.936648	-0.166000
O10	O	-0.114430	-0.937559	-0.280198
C11	C	-0.000125	-0.793085	-0.162727
C12	C	-0.000110	-0.705600	-0.155699
N13	N	-0.356269	-0.936645	-0.165997
C14	C	-0.000161	-0.933374	-0.022439
C15	C	-0.000159	-0.926345	0.065046
C16	C	-0.356287	-1.037004	-0.065717
C17	C	-0.428236	-1.087189	-0.015579
C18	C	-0.572116	-1.087197	-0.015579
C19	C	-0.644050	-1.037013	-0.065720
C20	C	-0.572101	-0.986828	-0.115858
C21	C	-0.428218	-0.986827	-0.115854
C22	C	-0.572083	-0.886466	-0.216132
C23	C	-0.428204	-0.886461	-0.216138
C24	C	-0.644018	-0.836283	-0.266274
C25	C	-0.572069	-0.786101	-0.316416
C26	C	-0.428180	-0.786095	-0.316415
C27	C	-0.356255	-0.836276	-0.266275
N28	N	0.355968	-0.936651	-0.165995
C29	C	-0.000173	-1.080205	-0.169270
C30	C	-0.000179	-1.167690	-0.176299
C31	C	-0.000105	-0.659610	-0.223517
C32	C	-0.000125	-0.577409	-0.216908
C33	C	-0.000140	-0.541201	-0.142480
C34	C	-0.000149	-0.587198	-0.074657
C35	C	-0.000139	-0.669397	-0.081267
C36	C	-0.000179	-0.295886	-0.115086
C37	C	-0.000185	-0.213681	-0.108481
C38	C	-0.000163	-0.203898	-0.250732
C39	C	-0.000145	-0.286099	-0.257336
C40	C	-0.000161	-0.332089	-0.189512
N41	N	-0.000155	-0.457178	-0.135723
N42	N	-0.000155	-0.416110	-0.196270
C43	C	-0.000138	-0.939917	-0.309559
C44	C	-0.000130	-0.946945	-0.397044
C45	C	-0.000173	-0.994163	0.111037
C46	C	-0.000159	-0.987554	0.193238
C47	C	-0.000141	-0.913127	0.229446
C48	C	-0.000123	-0.845303	0.183449
C49	C	-0.000128	-0.851913	0.101250
C50	C	-0.000117	-0.885732	0.474760
C51	C	-0.000117	-0.879127	0.556966
C52	C	-0.000150	-1.021379	0.566749
C53	C	-0.000162	-1.027982	0.484547
C54	C	-0.000137	-0.960159	0.438558
N55	N	-0.000131	-0.906369	0.313468
N56	N	-0.000138	-0.966917	0.354537
H57	H	-0.239133	-1.037009	-0.065719
H58	H	-0.761205	-1.037015	-0.065710
H59	H	-0.000092	-0.689084	-0.284124
C60	C	-0.000192	-1.076034	0.071215
H61	H	-0.000186	-1.115477	0.110381
H62	H	-0.079904	-1.081570	0.039356
H63	H	0.079528	-1.081570	0.039350
C64	C	-0.000151	-0.153312	-0.325333
H65	H	-0.000131	-0.186649	-0.370605
H66	H	-0.079863	-0.121046	-0.325715
H67	H	0.079569	-0.121039	-0.325710
C68	C	-0.000204	-0.173853	-0.026607
H69	H	-0.000223	-0.213015	0.012840
H70	H	0.079506	-0.141987	-0.021072
H71	H	-0.079926	-0.141994	-0.021078
H72	H	-0.000177	-1.088589	0.455073
H73	H	-0.630697	-1.128058	0.025250
C74	C	-0.000187	-1.062154	0.243824
H75	H	-0.000219	-1.107427	0.210487
H76	H	0.079523	-1.062542	0.276091
H77	H	-0.079909	-1.062525	0.276096
C78	C	-0.349047	-0.730892	-0.371568
H79	H	-0.412499	-0.701013	-0.401431
H80	H	-0.292917	-0.696353	-0.341177
H81	H	-0.292922	-0.761260	-0.406137
C82	C	-0.000157	-1.095977	0.617338
H83	H	-0.000139	-1.081384	0.671479
H84	H	-0.079870	-1.126286	0.605883
H85	H	0.079562	-1.126280	0.605871
C86	C	-0.000114	-0.811129	0.424182
H87	H	-0.000122	-0.765859	0.457521
H88	H	0.079593	-0.810745	0.391906
H89	H	-0.079839	-0.810752	0.391919
H90	H	-0.000181	-0.557710	-0.014056
H91	H	-0.761172	-0.836288	-0.266268
H92	H	-0.000194	-0.333322	-0.059859
H93	H	-0.000124	-0.818517	0.586443
H94	H	-0.630646	-0.745241	-0.357234
H95	H	-0.000143	-0.706842	-0.026042
C96	C	-0.000108	-0.763435	0.223276
H97	H	-0.000122	-0.769210	0.278818
H98	H	0.079607	-0.735293	0.207792
H99	H	-0.079825	-0.735296	0.207795
C100	C	-0.000116	-0.777314	0.050660
H101	H	-0.000117	-0.732040	0.083995
H102	H	0.079594	-0.776938	0.018387
H103	H	-0.079838	-0.776933	0.018395
C104	C	-0.349114	-1.142389	0.039572
H105	H	-0.412572	-1.172272	0.069436
H106	H	-0.292981	-1.176924	0.009180
H107	H	-0.292994	-1.112017	0.074140
H108	H	-0.000116	-0.315574	-0.317942
C109	C	-0.197991	-0.836273	-0.266270
H110	H	-0.165460	-0.873342	-0.229225
H111	H	-0.165428	-0.850186	-0.317265
H112	H	-0.165447	-0.785284	-0.252300
C113	C	-0.000105	-0.526819	-0.291505
H114	H	-0.000126	-0.472678	-0.276912
H115	H	0.079617	-0.538273	-0.321807
H116	H	-0.079815	-0.538286	-0.321816
