data_functionalizedCrystal
_audit_creation_method	'MofGen! by Chris Wilmer'
_symmetry_space_group_name_H-M	'P1'
_symmetry_Int_Tables_number	1
_symmetry_cell_setting	triclinic
loop_
_symmetry_equiv_pos_as_xyz
  x,y,z
_cell_length_a	16.992694
_cell_length_b	23.532407
_cell_length_c	15.455313
_cell_angle_alpha	92.643560
_cell_angle_beta	87.142206
_cell_angle_gamma	86.758451
loop_
_atom_site_label
_atom_site_type_symbol
_atom_site_fract_x
_atom_site_fract_y
_atom_site_fract_z
O1	O	1.042902	0.118384	-0.072037
O2	O	1.542902	0.618384	0.427963
O3	O	0.814628	0.117059	-0.072062
O4	O	1.314628	0.617059	0.427938
O5	O	0.935648	0.035132	-0.072033
O6	O	1.435648	0.535132	0.427967
O7	O	0.921882	0.200311	-0.072066
O8	O	1.421882	0.700311	0.427934
O9	O	0.928727	0.039796	0.072228
O10	O	1.428727	0.539796	0.572228
O11	O	0.807707	0.121723	0.072198
O12	O	1.307707	0.621723	0.572198
O13	O	1.035981	0.123049	0.072224
O14	O	1.535981	0.623049	0.572224
Cu15	Cu	0.921212	0.122812	0.085383
Cu16	Cu	1.421212	0.622812	0.585383
Cu17	Cu	0.929397	0.117296	-0.085222
Cu18	Cu	1.429397	0.617296	0.414778
O19	O	0.914962	0.204976	0.072194
O20	O	1.414962	0.704976	0.572194
C21	C	0.781968	0.117688	0.000065
C22	C	1.281968	0.617688	0.500065
C23	C	0.694964	0.112604	0.000056
C24	C	1.194964	0.612604	0.500056
C25	C	0.644342	0.161650	0.000047
C26	C	1.144342	0.661650	0.500047
C27	C	0.562592	0.156871	0.000060
C28	C	1.062592	0.656871	0.500060
C29	C	0.531466	0.103045	0.000076
C30	C	1.031466	0.603045	0.500076
C31	C	0.582095	0.053995	0.000088
C32	C	1.082095	0.553995	0.500088
C33	C	0.663843	0.058775	0.000081
C34	C	1.163843	0.558775	0.500081
C35	C	0.288022	0.083234	0.000103
C36	C	0.788022	0.583234	0.500103
C37	C	0.206267	0.078457	0.000107
C38	C	0.706267	0.578457	0.500107
C39	C	0.186770	0.181334	0.000081
C40	C	0.686770	0.681334	0.500081
C41	C	0.268521	0.186109	0.000069
C42	C	0.768521	0.686109	0.500069
C43	C	0.319142	0.137059	0.000085
C44	C	0.819142	0.637059	0.500085
N45	N	0.447905	0.098158	0.000086
N46	N	0.947905	0.598158	0.500086
N47	N	0.402701	0.141946	0.000081
N48	N	0.902701	0.641946	0.500081
C49	C	0.931837	0.016231	0.000100
C50	C	1.431837	0.516231	0.500100
C51	C	0.930782	-0.047038	0.000106
C52	C	1.430782	0.452962	0.500106
C53	C	0.995791	-0.442917	0.000066
C54	C	1.495791	0.057083	0.500066
C55	C	0.994812	-0.502366	0.000059
C56	C	1.494812	-0.002366	0.500059
O57	O	1.055075	-0.536121	0.000034
O58	O	1.555075	-0.036121	0.500034
N59	N	0.922865	-0.528562	0.000052
N60	N	1.422865	-0.028562	0.500052
C61	C	0.851893	-0.495307	0.000042
C62	C	1.351893	0.004693	0.500042
O63	O	0.790607	-0.523048	0.000035
O64	O	1.290607	-0.023048	0.500035
C65	C	0.852873	-0.435859	0.000043
C66	C	1.352873	0.064141	0.500043
C67	C	0.924824	-0.409666	0.000059
C68	C	1.424824	0.090334	0.500059
C69	C	1.067736	-0.416723	0.000081
C70	C	1.567736	0.083277	0.500081
C71	C	1.068714	-0.357278	0.000089
C72	C	1.568714	0.142722	0.500089
C73	C	0.997748	-0.324027	0.000083
C74	C	1.497748	0.175973	0.500083
C75	C	0.925803	-0.350221	0.000067
C76	C	1.425803	0.149779	0.500067
C77	C	0.781902	-0.402605	0.000027
C78	C	1.281902	0.097395	0.500027
C79	C	0.782889	-0.343154	0.000027
C80	C	1.282889	0.156846	0.500027
C81	C	0.854839	-0.316960	0.000043
C82	C	1.354839	0.183040	0.500043
C83	C	0.855814	-0.257525	0.000069
C84	C	1.355814	0.242475	0.500069
N85	N	0.927761	-0.231328	0.000076
N86	N	1.427761	0.268672	0.500076
C87	C	0.998728	-0.264579	0.000083
C88	C	1.498728	0.235421	0.500083
C89	C	0.849841	-0.620151	0.000040
C90	C	1.349841	-0.120151	0.500040
C91	C	0.848860	-0.679598	0.000046
C92	C	1.348860	-0.179598	0.500046
C93	C	0.991779	-0.686653	0.000061
C94	C	1.491779	-0.186653	0.500061
C95	C	0.992759	-0.627205	0.000061
C96	C	1.492759	-0.127205	0.500061
C97	C	0.921788	-0.593955	0.000047
C98	C	1.421788	-0.093955	0.500047
C99	C	1.000777	-0.139740	0.000101
C100	C	1.500777	0.360260	0.500101
C101	C	1.001749	-0.080289	0.000113
C102	C	1.501749	0.419711	0.500113
C103	C	0.858831	-0.073240	0.000093
C104	C	1.358831	0.426760	0.500093
C105	C	0.857858	-0.132685	0.000086
C106	C	1.357858	0.367315	0.500086
C107	C	0.928838	-0.165934	0.000087
C108	C	1.428838	0.334066	0.500087
O109	O	0.795583	-0.223733	0.000090
O110	O	1.295583	0.276267	0.500090
O111	O	1.060004	-0.236831	0.000079
O112	O	1.560004	0.263169	0.500079
C113	C	1.068641	0.122420	0.000095
C114	C	1.568641	0.622420	0.500095
C115	C	1.155645	0.127504	0.000098
C116	C	1.655645	0.627504	0.500098
C117	C	0.918772	0.223877	0.000060
C118	C	1.418772	0.723877	0.500060
C119	C	0.919827	0.287146	0.000048
C120	C	1.419827	0.787146	0.500048
N121	N	0.915462	0.126692	0.205377
N122	N	1.415462	0.626692	0.705377
N123	N	0.935153	0.113412	-0.205216
N124	N	1.435153	0.613412	0.294784
C125	C	0.966893	0.091901	0.250784
C126	C	1.466893	0.591901	0.750784
C127	C	0.962551	0.094840	0.341591
C128	C	1.462551	0.594840	0.841591
C129	C	0.906782	0.132574	0.386989
C130	C	1.406782	0.632574	0.886989
C131	C	0.855345	0.167366	0.341576
C132	C	1.355345	0.667366	0.841576
C133	C	0.859684	0.164424	0.250771
C134	C	1.359684	0.664424	0.750771
C135	C	0.888055	0.145261	0.658566
C136	C	1.388055	0.645261	1.158566
C137	C	0.883722	0.148203	0.749378
C138	C	1.383722	0.648203	1.249378
C139	C	0.990928	0.075676	0.749386
C140	C	1.490928	0.575676	1.249386
C141	C	0.995265	0.072738	0.658579
C142	C	1.495265	0.572738	1.158579
C143	C	0.943825	0.107529	0.613174
C144	C	1.443825	0.607529	1.113174
N145	N	0.902344	0.135581	0.479808
N146	N	1.402344	0.635581	0.979808
N147	N	0.948260	0.104518	0.520356
N148	N	1.448260	0.604518	1.020356
H149	H	0.145546	0.221267	0.000069
H150	H	0.645546	0.721267	0.500069
C151	C	1.133695	-0.269288	0.000095
C152	C	1.633695	0.230712	0.500095
C153	C	1.147806	-0.328491	0.000094
C154	C	1.647806	0.171509	0.500094
H155	H	1.182527	-0.251521	0.000100
H156	H	1.682527	0.248479	0.500100
H157	H	1.106911	-0.259718	-0.050209
H158	H	1.606911	0.240282	0.449791
H159	H	1.102088	-0.256475	0.050405
H160	H	1.602088	0.243525	0.550405
H161	H	1.179408	-0.341305	-0.050220
H162	H	1.679408	0.158695	0.449780
H163	H	1.174603	-0.338065	0.050403
H164	H	1.674603	0.161935	0.550403
H165	H	0.809932	0.198088	0.378545
H166	H	1.309932	0.698088	0.878545
H167	H	0.705059	0.018836	0.000088
H168	H	1.205059	0.518836	0.500088
H169	H	0.792043	-0.593082	0.000036
H170	H	1.292043	-0.093082	0.500036
C171	C	0.129193	0.011000	-0.074029
C172	C	0.629193	0.511000	0.425971
C173	C	0.172049	0.019288	0.000129
C174	C	0.672049	0.519288	0.500129
H175	H	0.108072	-0.025528	-0.074017
H176	H	0.608072	0.474472	0.425983
H177	H	0.087353	0.039526	-0.074032
H178	H	0.587353	0.539526	0.425968
H179	H	0.163097	0.013371	-0.124331
H180	H	0.663097	0.513371	0.375669
H181	H	0.138145	0.016921	0.050431
H182	H	0.638145	0.516921	0.550431
H183	H	0.213896	-0.009246	0.000140
H184	H	0.713896	0.490754	0.500140
H185	H	1.049564	-0.713737	0.000063
H186	H	1.549564	-0.213737	0.500063
C187	C	1.097322	0.003685	0.740271
C188	C	1.597322	0.503685	1.240271
C189	C	1.047458	0.037428	0.799296
C190	C	1.547458	0.537428	1.299296
H191	H	1.132223	-0.019928	0.771085
H192	H	1.632223	0.480072	1.271085
H193	H	1.066546	-0.019433	0.704866
H194	H	1.566546	0.480567	1.204866
H195	H	1.127024	0.027535	0.704842
H196	H	1.627024	0.527535	1.204842
H197	H	1.017751	0.013578	0.834721
H198	H	1.517751	0.513578	1.334721
H199	H	1.078238	0.060549	0.834716
H200	H	1.578238	0.560549	1.334716
H201	H	0.669678	0.205481	0.000033
H202	H	1.169678	0.705481	0.500033
H203	H	0.521379	0.196809	0.000051
H204	H	1.021379	0.696809	0.500051
H205	H	0.293858	0.229939	0.000046
H206	H	0.793858	0.729939	0.500046
C207	C	0.299070	-0.018933	0.000123
C208	C	0.799070	0.481067	0.500123
C209	C	0.343657	0.029319	0.000114
C210	C	0.843657	0.529319	0.500114
H211	H	0.333422	-0.052219	0.000125
H212	H	0.833422	0.447781	0.500125
H213	H	0.264374	-0.017029	0.050427
H214	H	0.764374	0.482971	0.550427
H215	H	0.269186	-0.020279	-0.050187
H216	H	0.769186	0.479721	0.449813
H217	H	0.373538	0.030667	0.050427
H218	H	0.873538	0.530667	0.550427
H219	H	0.378367	0.027414	-0.050195
H220	H	0.878367	0.527414	0.449805
H221	H	0.817802	0.192753	0.213802
H222	H	1.317802	0.692753	0.713802
C223	C	0.465440	0.000988	0.000101
C224	C	0.965440	0.500988	0.500101
C225	C	0.547883	-0.005172	0.000103
C226	C	1.047883	0.494828	0.500103
H227	H	0.444323	-0.035541	0.000104
H228	H	0.944323	0.464459	0.500104
H229	H	0.445634	0.022962	0.050401
H230	H	0.945634	0.522962	0.550401
H231	H	0.450452	0.019714	-0.050213
H232	H	0.950452	0.519714	0.449787
H233	H	0.562871	-0.023894	0.050421
H234	H	1.062871	0.476106	0.550421
H235	H	0.567696	-0.027155	-0.050202
H236	H	1.067696	0.472845	0.449798
H237	H	1.060342	-0.058966	0.000129
H238	H	1.560342	0.441034	0.500129
C239	C	0.781660	0.217251	0.667692
C240	C	1.281660	0.717251	1.167692
C241	C	0.831520	0.183507	0.608665
C242	C	1.331520	0.683507	1.108665
H243	H	0.746760	0.240866	0.636880
H244	H	1.246760	0.740866	1.136880
H245	H	0.751964	0.193406	0.703121
H246	H	1.251964	0.693406	1.203121
H247	H	0.812445	0.240373	0.703097
H248	H	1.312445	0.740373	1.203097
H249	H	0.800736	0.160382	0.573264
H250	H	1.300736	0.660382	1.073264
H251	H	0.861219	0.207355	0.573221
H252	H	1.361219	0.707355	1.073221
C253	C	1.017256	-0.007519	0.556996
C254	C	1.517256	0.492481	1.056996
C255	C	1.056363	0.030986	0.608912
C256	C	1.556363	0.530986	1.108912
H257	H	1.054919	-0.033372	0.526400
H258	H	1.554919	0.466628	1.026400
H259	H	0.982884	-0.028069	0.592594
H260	H	1.482884	0.471931	1.092594
H261	H	0.987452	0.012774	0.516773
H262	H	1.487452	0.512774	1.016773
H263	H	1.086162	0.010694	0.649139
H264	H	1.586162	0.510694	1.149139
H265	H	1.090749	0.051539	0.573311
H266	H	1.590749	0.551539	1.073311
H267	H	1.058576	-0.166805	0.000099
H268	H	1.558576	0.333195	0.500099
C269	C	1.209097	-0.417709	0.000112
C270	C	1.709097	0.082291	0.500112
C271	C	1.145752	-0.453266	0.000096
C272	C	1.645752	0.046734	0.500096
H273	H	1.257263	-0.440267	0.000132
H274	H	1.757263	0.059733	0.500132
H275	H	1.208919	-0.396001	-0.050195
H276	H	1.708919	0.103999	0.449805
H277	H	1.204074	-0.392749	0.050419
H278	H	1.704074	0.107251	0.550419
H279	H	1.150771	-0.478223	-0.050215
H280	H	1.650771	0.021777	0.449785
H281	H	1.145931	-0.474983	0.050408
H282	H	1.645931	0.025017	0.550408
H283	H	1.051348	-0.605882	0.000074
H284	H	1.551348	-0.105882	0.500074
H285	H	0.723313	-0.423922	0.000009
H286	H	1.223313	0.076078	0.500009
C287	C	0.707692	-0.666638	0.000029
C288	C	1.207692	-0.166638	0.500029
C289	C	0.769769	-0.708385	0.000035
C290	C	1.269769	-0.208385	0.500035
H291	H	0.658864	-0.684411	0.000013
H292	H	1.158864	-0.184411	0.500013
H293	H	0.708635	-0.641981	0.050336
H294	H	1.208635	-0.141981	0.550336
H295	H	0.713471	-0.645217	-0.050278
H296	H	1.213471	-0.145217	0.449722
H297	H	0.763993	-0.729804	0.050345
H298	H	1.263993	-0.229804	0.550345
H299	H	0.768824	-0.733052	-0.050278
H300	H	1.268824	-0.233052	0.449722
C301	C	0.641519	-0.342156	0.000002
C302	C	1.141519	0.157844	0.500002
C303	C	0.704872	-0.306606	0.000015
C304	C	1.204872	0.193394	0.500015
H305	H	0.593357	-0.319593	0.000001
H306	H	1.093357	0.180407	0.500001
H307	H	0.646528	-0.367108	-0.050304
H308	H	1.146528	0.132892	0.449696
H309	H	0.641702	-0.363871	0.050310
H310	H	1.141702	0.136129	0.550310
H311	H	0.704693	-0.284894	-0.050297
H312	H	1.204693	0.215106	0.449703
H313	H	0.699862	-0.281644	0.050326
H314	H	1.199862	0.218356	0.550326
C315	C	0.716688	-0.119738	0.000062
C316	C	1.216688	0.380262	0.500062
C317	C	0.778770	-0.161481	0.000067
C318	C	1.278770	0.338519	0.500067
H319	H	0.667863	-0.137513	0.000038
H320	H	1.167863	0.362487	0.500038
H321	H	0.717624	-0.095084	0.050375
H322	H	1.217624	0.404916	0.550375
H323	H	0.722468	-0.098312	-0.050239
H324	H	1.222468	0.401688	0.449761
H325	H	0.772993	-0.182904	0.050372
H326	H	1.272993	0.317096	0.550372
H327	H	0.777832	-0.186144	-0.050251
H328	H	1.277832	0.313856	0.449749
H329	H	0.801051	-0.046156	0.000091
H330	H	1.301051	0.453844	0.500091
H331	H	1.012310	0.061176	0.213826
H332	H	1.512310	0.561176	0.713826
H333	H	1.004430	0.066510	0.378560
H334	H	1.504430	0.566510	0.878560
H335	H	0.838305	0.178933	0.786337
H336	H	1.338305	0.678933	1.286337
