data_functionalizedCrystal
_audit_creation_method	'MofGen! by Chris Wilmer'
_symmetry_space_group_name_H-M	'P1'
_symmetry_Int_Tables_number	1
_symmetry_cell_setting	triclinic
loop_
_symmetry_equiv_pos_as_xyz
  x,y,z
_cell_length_a	18.215407
_cell_length_b	15.296118
_cell_length_c	18.215407
_cell_angle_alpha	99.699802
_cell_angle_beta	90.009037
_cell_angle_gamma	99.691242
loop_
_atom_site_label
_atom_site_type_symbol
_atom_site_fract_x
_atom_site_fract_y
_atom_site_fract_z
Zn1	Zn	1.074315	-0.359369	0.365331
Zn2	Zn	1.574315	0.140631	0.865331
Zn3	Zn	1.052971	-0.510233	0.220945
Zn4	Zn	1.552971	-0.010233	0.720945
Zn5	Zn	0.951272	-0.359360	0.242280
Zn6	Zn	1.451272	0.140640	0.742280
Zn7	Zn	0.929940	-0.510221	0.343972
Zn8	Zn	1.429940	-0.010221	0.843972
O9	O	1.002124	-0.434796	0.293132
O10	O	1.502124	0.065204	0.793132
O11	O	1.174467	-0.379390	0.346188
O12	O	1.674467	0.120610	0.846188
O13	O	1.039476	-0.490220	0.120791
O14	O	1.539476	0.009780	0.620791
O15	O	0.985454	-0.233088	0.276470
O16	O	1.485454	0.266912	0.776470
O17	O	1.158786	-0.490229	0.240109
O18	O	1.658786	0.009771	0.740109
O19	O	1.075853	-0.233094	0.366876
O20	O	1.575853	0.266906	0.866876
O21	O	0.964758	-0.379375	0.136465
O22	O	1.464758	0.120625	0.636465
O23	O	0.845459	-0.379363	0.255759
O24	O	1.345459	0.120637	0.755759
O25	O	0.949096	-0.490209	0.449790
O26	O	1.449096	0.009791	0.949790
O27	O	0.829786	-0.490200	0.330472
O28	O	1.329786	0.009800	0.830472
O29	O	1.055168	-0.379378	0.465482
O30	O	1.555168	0.120622	0.965482
O31	O	1.018791	-0.636505	0.219398
O32	O	1.518791	-0.136505	0.719398
O33	O	0.928400	-0.636496	0.309785
O34	O	1.428400	-0.136496	0.809785
C35	C	0.810920	-0.434780	0.293113
C36	C	1.310920	0.065220	0.793113
C37	C	0.729119	-0.434795	0.293119
C38	C	1.229119	0.065205	0.793119
C39	C	0.532771	-0.492599	0.331950
C40	C	1.032771	0.007401	0.831950
C41	C	0.455912	-0.492602	0.331959
C42	C	0.955912	0.007398	0.831959
C43	C	0.472227	-0.377009	0.254327
C44	C	0.972227	0.122991	0.754327
C45	C	0.549086	-0.377002	0.254323
C46	C	1.049086	0.122998	0.754323
C47	C	0.579355	-0.434802	0.293133
C48	C	1.079355	0.065198	0.793133
C49	C	0.425637	-0.434812	0.293146
C50	C	0.925637	0.065188	0.793146
C51	C	0.342303	-0.434814	0.293155
C52	C	0.842303	0.065186	0.793155
C53	C	0.662694	-0.434799	0.293125
C54	C	1.162694	0.065201	0.793125
C55	C	0.968985	-0.669242	0.259974
C56	C	1.468985	-0.169242	0.759974
C57	C	0.954875	-0.769539	0.245814
C58	C	1.454875	-0.269539	0.745814
C59	C	0.901204	-0.816735	0.192047
C60	C	1.401204	-0.316735	0.692047
C61	C	0.887950	-0.910969	0.178746
C62	C	1.387950	-0.410969	0.678746
C63	C	0.928361	-0.958016	0.219215
C64	C	1.428361	-0.458016	0.719215
C65	C	0.982029	-0.910819	0.272987
C66	C	1.482029	-0.410819	0.772987
C67	C	0.995288	-0.816576	0.286285
C68	C	1.495288	-0.316576	0.786285
C69	C	1.022445	-0.957857	0.313454
C70	C	1.522445	-0.457857	0.813454
C71	C	1.076113	-0.910660	0.367226
C72	C	1.576113	-0.410660	0.867226
C73	C	1.089370	-0.816426	0.380522
C74	C	1.589370	-0.316426	0.880522
C75	C	1.048959	-0.769379	0.340053
C76	C	1.548959	-0.269379	0.840053
C77	C	1.009186	-1.052100	0.300156
C78	C	1.509186	-0.552100	0.800156
C79	C	1.103270	-1.051941	0.394394
C80	C	1.603270	-0.551941	0.894394
C81	C	1.116524	-0.957707	0.407695
C82	C	1.616524	-0.457707	0.907695
C83	C	1.194075	-0.434812	0.293151
C84	C	1.694075	0.065188	0.793151
C85	C	1.275873	-0.434819	0.293160
C86	C	1.775873	0.065181	0.793160
C87	C	1.002133	-0.434793	0.485085
C88	C	1.502133	0.065207	0.985085
C89	C	1.002137	-0.434792	0.566884
C90	C	1.502137	0.065208	1.066884
C91	C	1.035413	-0.199434	0.326435
C92	C	1.535413	0.300566	0.826435
C93	C	1.049599	-0.099137	0.340627
C94	C	1.549599	0.400863	0.840627
C95	C	1.057347	-0.377090	0.840113
C96	C	1.557347	0.122910	1.340113
C97	C	1.057352	-0.377090	0.763254
C98	C	1.557352	0.122910	1.263254
C99	C	0.946903	-0.492510	0.746902
C100	C	1.446903	0.007490	1.246902
C101	C	0.946902	-0.492514	0.823759
C102	C	1.446902	0.007486	1.323759
C103	C	1.002123	-0.434799	0.870363
C104	C	1.502123	0.065201	1.370363
C105	C	1.002130	-0.434794	0.716648
C106	C	1.502130	0.065206	1.216648
C107	C	1.002135	-0.434795	0.633314
C108	C	1.502135	0.065205	1.133314
C109	C	1.002119	-0.434800	0.953702
C110	C	1.502119	0.065200	1.453702
C111	C	1.002110	-0.434813	1.101923
C112	C	1.502110	0.065187	1.601923
C113	C	1.002116	-0.434801	1.020126
C114	C	1.502116	0.065199	1.520126
H115	H	0.965488	-1.090518	0.256374
H116	H	1.465488	-0.590518	0.756374
H117	H	0.901931	-0.539512	0.848387
H118	H	1.401931	-0.039512	1.348387
Cl119	Cl	1.126781	-0.304540	0.725229
Cl120	Cl	1.626781	0.195460	1.225229
Cl121	Cl	1.126767	-0.304534	0.898699
Cl122	Cl	1.626767	0.195466	1.398699
Cl123	Cl	0.434169	-0.304352	0.205539
Cl124	Cl	0.934169	0.195648	0.705539
H125	H	0.844255	-0.949390	0.134963
H126	H	1.344255	-0.449390	0.634963
H127	H	0.901943	-0.539498	0.708948
H128	H	1.401943	-0.039498	1.208948
H129	H	0.868311	-0.778424	0.159097
H130	H	1.368311	-0.278424	0.659097
Cl131	Cl	0.570822	-0.565258	0.380743
Cl132	Cl	1.070822	-0.065258	0.880743
H133	H	1.059743	-0.692646	0.350884
H134	H	1.559743	-0.192646	0.850884
Cl135	Cl	0.607653	-0.304331	0.205526
Cl136	Cl	1.107653	0.195669	0.705526
Cl137	Cl	0.397353	-0.565262	0.380762
Cl138	Cl	0.897353	-0.065262	0.880762
H139	H	0.917566	-1.034745	0.208383
H140	H	1.417566	-0.534745	0.708383
H141	H	1.133075	-0.777998	0.424300
H142	H	1.633075	-0.277998	0.924300
H143	H	1.136177	-1.090246	0.427347
H144	H	1.636177	-0.590246	0.927347
Cl145	Cl	1.183988	-0.898363	0.475294
Cl146	Cl	1.683988	-0.398363	0.975294
