data_functionalizedCrystal
_audit_creation_method	'MofGen! by Chris Wilmer'
_symmetry_space_group_name_H-M	'P1'
_symmetry_Int_Tables_number	1
_symmetry_cell_setting	triclinic
loop_
_symmetry_equiv_pos_as_xyz
  x,y,z
_cell_length_a	16.109301
_cell_length_b	27.732048
_cell_length_c	14.586319
_cell_angle_alpha	89.991275
_cell_angle_beta	89.999213
_cell_angle_gamma	83.052068
loop_
_atom_site_label
_atom_site_type_symbol
_atom_site_fract_x
_atom_site_fract_y
_atom_site_fract_z
O1	O	1.102362	0.062130	-0.076193
O2	O	1.602362	0.562130	0.423807
O3	O	0.860204	0.069862	-0.076208
O4	O	1.360204	0.569862	0.423792
O5	O	0.988804	-0.004369	-0.076183
O6	O	1.488804	0.495631	0.423817
O7	O	0.973762	0.136361	-0.076218
O8	O	1.473762	0.636361	0.423782
O9	O	0.988795	-0.004370	0.076298
O10	O	1.488795	0.495630	0.576298
O11	O	0.860195	0.069861	0.076272
O12	O	1.360195	0.569861	0.576272
O13	O	1.102353	0.062129	0.076288
O14	O	1.602353	0.562129	0.576288
Cu15	Cu	0.981273	0.065995	0.090203
Cu16	Cu	1.481273	0.565995	0.590203
Cu17	Cu	0.981283	0.065996	-0.090123
Cu18	Cu	1.481283	0.565996	0.409877
O19	O	0.973753	0.136360	0.076262
O20	O	1.473753	0.636360	0.576262
C21	C	0.829228	0.069548	0.000030
C22	C	1.329228	0.569548	0.500030
C23	C	0.736945	0.068609	0.000025
C24	C	1.236945	0.568609	0.500025
C25	C	0.514154	0.110473	0.000025
C26	C	1.014154	0.610473	0.500025
C27	C	0.427445	0.109587	0.000031
C28	C	0.927445	0.609587	0.500031
C29	C	0.448409	0.021514	0.000050
C30	C	0.948409	0.521514	0.500050
C31	C	0.535117	0.022401	0.000050
C32	C	1.035117	0.522401	0.500050
C33	C	0.567987	0.066882	0.000033
C34	C	1.067987	0.566882	0.500033
C35	C	0.394570	0.065109	0.000039
C36	C	0.894570	0.565109	0.500039
C37	C	0.300556	0.064148	0.000045
C38	C	0.800556	0.564148	0.500045
C39	C	0.662007	0.067843	0.000028
C40	C	1.162007	0.567843	0.500028
C41	C	0.988483	-0.022378	0.000060
C42	C	1.488483	0.477622	0.500060
C43	C	0.987533	-0.076037	0.000068
C44	C	1.487533	0.423963	0.500068
C45	C	1.057541	-0.414559	0.000025
C46	C	1.557541	0.085441	0.500025
C47	C	1.054013	-0.616233	0.000012
C48	C	1.554013	-0.116233	0.500012
O49	O	1.118031	-0.647221	-0.000024
O50	O	1.618031	-0.147221	0.499976
N51	N	0.977759	-0.635676	0.000008
N52	N	1.477759	-0.135676	0.500008
C53	C	0.902381	-0.604697	0.000001
C54	C	1.402381	-0.104697	0.500001
O55	O	0.837441	-0.625862	-0.000012
O56	O	1.337441	-0.125862	0.499988
C57	C	0.905910	-0.403024	0.000008
C58	C	1.405910	0.096976	0.500008
C59	C	0.982169	-0.383584	0.000021
C60	C	1.482169	0.116416	0.500021
C61	C	1.133794	-0.395119	0.000038
C62	C	1.633794	0.104881	0.500038
C63	C	1.134675	-0.344703	0.000046
C64	C	1.634675	0.155297	0.500046
C65	C	1.059303	-0.313728	0.000042
C66	C	1.559303	0.186272	0.500042
C67	C	0.983050	-0.333168	0.000029
C68	C	1.483050	0.166832	0.500029
C69	C	0.830533	-0.372045	-0.000006
C70	C	1.330533	0.127955	0.499994
C71	C	0.831422	-0.321624	-0.000006
C72	C	1.331422	0.178376	0.499994
C73	C	0.907681	-0.302184	0.000007
C74	C	1.407681	0.197816	0.500007
C75	C	0.908559	-0.251777	0.000034
C76	C	1.408559	0.248223	0.500034
N77	N	0.984814	-0.232334	0.000038
N78	N	1.484814	0.267666	0.500038
C79	C	1.060186	-0.263310	0.000042
C80	C	1.560186	0.236690	0.500042
C81	C	0.900534	-0.710579	-0.000000
C82	C	1.400534	-0.210579	0.500000
C83	C	0.899652	-0.760997	-0.000000
C84	C	1.399652	-0.260997	0.500000
C85	C	1.051284	-0.772530	0.000009
C86	C	1.551284	-0.272530	0.500009
C87	C	1.052166	-0.722111	0.000016
C88	C	1.552166	-0.222111	0.500016
C89	C	0.976789	-0.691136	0.000004
C90	C	1.476789	-0.191136	0.500004
C91	C	1.062030	-0.157433	0.000060
C92	C	1.562030	0.342567	0.500060
C93	C	1.062905	-0.107012	0.000072
C94	C	1.562905	0.392988	0.500072
C95	C	0.911273	-0.095484	0.000058
C96	C	1.411273	0.404516	0.500058
C97	C	0.910398	-0.145900	0.000051
C98	C	1.410398	0.354100	0.500051
C99	C	0.985783	-0.176874	0.000049
C100	C	1.485783	0.323126	0.500049
O101	O	0.844576	-0.220761	0.000059
O102	O	1.344576	0.279239	0.500059
O103	O	1.125116	-0.242135	0.000035
O104	O	1.625116	0.257865	0.500035
C105	C	1.056660	-0.464975	0.000017
C106	C	1.556660	0.035025	0.500017
C107	C	0.980407	-0.484415	0.000005
C108	C	1.480407	0.015585	0.500005
C109	C	0.905035	-0.453440	0.000001
C110	C	1.405035	0.046560	0.500001
C111	C	0.979525	-0.534833	0.000005
C112	C	1.479525	-0.034833	0.500005
C113	C	1.054897	-0.565808	0.000009
C114	C	1.554897	-0.065808	0.500009
C115	C	1.131151	-0.546365	0.000013
C116	C	1.631151	-0.046365	0.500013
C117	C	1.132032	-0.495950	0.000021
C118	C	1.632032	0.004050	0.500021
C119	C	0.828781	-0.472883	-0.000004
C120	C	1.328781	0.027117	0.499996
C121	C	0.827906	-0.523299	-0.000011
C122	C	1.327906	-0.023299	0.499989
C123	C	0.903278	-0.554274	-0.000007
C124	C	1.403278	-0.054274	0.499993
C125	C	1.133328	0.062443	0.000048
C126	C	1.633328	0.562443	0.500048
C127	C	1.225612	0.063382	0.000047
C128	C	1.725612	0.563382	0.500047
C129	C	0.974073	0.154369	0.000017
C130	C	1.474073	0.654369	0.500017
C131	C	0.975024	0.208028	0.000004
C132	C	1.475024	0.708028	0.500004
N133	N	0.981272	0.065994	0.217035
N134	N	1.481272	0.565994	0.717035
N135	N	0.981291	0.065994	-0.216955
N136	N	1.481291	0.565994	0.283045
C137	C	1.038234	0.033135	0.452053
C138	C	1.538234	0.533135	0.952053
C139	C	1.038237	0.033134	0.548034
C140	C	1.538237	0.533134	1.048034
C141	C	0.924323	0.098854	0.548020
C142	C	1.424323	0.598854	1.048020
C143	C	0.924317	0.098852	0.452041
C144	C	1.424317	0.598852	0.952041
C145	C	0.981278	0.065993	0.404060
C146	C	1.481278	0.565993	0.904060
C147	C	0.981286	0.065994	0.596020
C148	C	1.481286	0.565994	1.096020
C149	C	0.981288	0.065993	0.700087
C150	C	1.481288	0.565993	1.200087
C151	C	0.981275	0.065994	0.299986
C152	C	1.481275	0.565994	0.799986
H153	H	0.421636	-0.014700	0.000069
H154	H	0.921636	0.485300	0.500069
H155	H	0.877932	0.125610	0.412962
H156	H	1.377932	0.625610	0.912962
H157	H	0.877948	0.125607	0.587097
H158	H	1.377948	0.625607	1.087097
H159	H	0.765802	-0.539121	-0.000014
H160	H	1.265802	-0.039121	0.499986
N161	N	0.819225	-0.677177	-0.000002
N162	N	1.319225	-0.177177	0.499998
H163	H	0.816205	-0.656006	0.056523
H164	H	1.316205	-0.156006	0.556523
H165	H	0.816251	-0.656028	-0.056564
H166	H	1.316251	-0.156028	0.443436
N167	N	0.817400	-0.781960	-0.000012
N168	N	1.317400	-0.281960	0.499988
H169	H	0.828269	-0.818600	-0.000012
H170	H	1.328269	-0.318600	0.499988
H171	H	0.784443	-0.770631	0.056511
H172	H	1.284443	-0.270631	0.556511
H173	H	0.540913	0.146692	0.000018
H174	H	1.040913	0.646692	0.500018
H175	H	0.770039	-0.296407	-0.000017
H176	H	1.270039	0.203593	0.499983
N177	N	0.369381	0.156603	0.000073
N178	N	0.869381	0.656603	0.500073
H179	H	0.403364	0.184914	0.000079
H180	H	0.903364	0.684914	0.500079
H181	H	0.332925	0.158173	-0.056436
H182	H	0.832925	0.658173	0.443564
N183	N	1.099680	-0.002299	0.599799
N184	N	1.599680	0.497701	1.099799
H185	H	1.135764	-0.023111	0.554836
H186	H	1.635764	0.476889	1.054836
H187	H	1.136189	0.016221	0.639606
H188	H	1.636189	0.516221	1.139606
N189	N	0.593188	-0.024618	0.000070
N190	N	1.093188	0.475382	0.500070
H191	H	0.559209	-0.052931	0.000075
H192	H	1.059209	0.447069	0.500075
H193	H	0.629625	-0.026168	-0.056453
H194	H	1.129625	0.473832	0.443547
H195	H	1.125007	-0.091187	0.000085
H196	H	1.625007	0.408813	0.500085
N197	N	1.134415	-0.701145	0.000024
N198	N	1.634415	-0.201145	0.500024
H199	H	1.138160	-0.680489	0.056549
H200	H	1.638160	-0.180489	0.556549
H201	H	1.181976	-0.728449	-0.000005
H202	H	1.681976	-0.228449	0.499995
N203	N	1.143336	-0.190836	0.000058
N204	N	1.643336	0.309164	0.500058
H205	H	1.191770	-0.170863	0.000069
H206	H	1.691770	0.329137	0.500069
H207	H	1.146272	-0.212011	0.056583
H208	H	1.646272	0.287989	0.556583
H209	H	1.196773	-0.328880	0.000053
H210	H	1.696773	0.171120	0.500053
N211	N	0.748274	-0.392997	-0.000029
N212	N	1.248274	0.107003	0.499971
H213	H	0.744528	-0.413651	-0.056557
H214	H	1.244528	0.086349	0.443443
H215	H	0.744554	-0.413639	0.056529
H216	H	1.244554	0.086361	0.556529
H217	H	1.195175	-0.420334	0.000038
H218	H	1.695175	0.079666	0.500038
H219	H	1.112655	-0.797759	0.000013
H220	H	1.612655	-0.297759	0.500013
H221	H	0.848301	-0.161728	0.000065
H222	H	1.348301	0.338272	0.500065
H223	H	0.849907	-0.070255	0.000058
H224	H	1.349907	0.429745	0.500058
H225	H	1.194130	-0.480127	0.000032
H226	H	1.694130	0.019873	0.500032
H227	H	1.192521	-0.571594	0.000020
H228	H	1.692521	-0.071594	0.500020
N229	N	1.099665	-0.002304	0.400299
N230	N	1.599665	0.497696	0.900299
H231	H	1.135746	-0.023120	0.445271
H232	H	1.635746	0.476880	0.945271
H233	H	1.068111	-0.023679	0.360486
H234	H	1.568111	0.476321	0.860486
N235	N	0.747485	-0.439475	-0.000003
N236	N	1.247485	0.060525	0.499997
H237	H	0.714187	-0.445723	-0.056529
H238	H	1.214187	0.054277	0.443471
H239	H	0.714256	-0.445754	0.056558
H240	H	1.214256	0.054246	0.556558
