data_functionalizedCrystal
_audit_creation_method	'MofGen! by Chris Wilmer'
_symmetry_space_group_name_H-M	'P1'
_symmetry_Int_Tables_number	1
_symmetry_cell_setting	triclinic
loop_
_symmetry_equiv_pos_as_xyz
  x,y,z
_cell_length_a	10.489741
_cell_length_b	10.489741
_cell_length_c	8.965430
_cell_angle_alpha	89.999293
_cell_angle_beta	89.998843
_cell_angle_gamma	95.460826
loop_
_atom_site_label
_atom_site_type_symbol
_atom_site_fract_x
_atom_site_fract_y
_atom_site_fract_z
O1	O	1.694053	-0.179958	-0.123946
O2	O	1.322858	-0.196851	-0.123969
O3	O	1.516902	-0.002807	-0.123948
O4	O	1.500009	-0.374003	-0.123967
O5	O	1.516886	-0.002820	0.124130
O6	O	1.322841	-0.196864	0.124110
O7	O	1.694037	-0.179971	0.124133
Cu8	Cu	1.508438	-0.188419	0.146773
Cu9	Cu	1.508457	-0.188404	-0.146609
O10	O	1.499993	-0.374016	0.124112
C11	C	1.275318	-0.195582	0.000067
C12	C	1.133688	-0.191765	0.000059
C13	C	1.065548	-0.068300	0.000079
C14	C	0.973430	-0.126617	-0.122237
C15	C	0.973447	-0.126659	0.122349
C16	C	1.043435	-0.250133	-0.122358
C17	C	1.043462	-0.250158	0.122338
C18	C	0.951371	-0.308564	-0.000007
C19	C	1.515618	0.044718	0.000090
C20	C	1.511801	0.186348	0.000087
C21	C	1.741577	-0.181241	0.000093
C22	C	1.883206	-0.185058	0.000092
C23	C	1.501277	-0.421541	0.000070
C24	C	1.505094	-0.563170	0.000063
N25	N	1.508433	-0.188429	0.353122
C26	C	1.388336	0.254488	0.000069
C27	C	1.446652	0.346604	0.122388
C28	C	1.446697	0.346591	-0.122198
C29	C	1.570167	0.276599	0.122508
C30	C	1.570195	0.276576	-0.122189
C31	C	1.628600	0.368665	0.000161
N32	N	1.508471	-0.188384	-0.352958
C33	C	1.418666	-0.278138	0.450418
C34	C	1.534163	-0.303949	0.549838
C35	C	1.392986	-0.162629	0.549830
C36	C	1.623988	-0.214298	0.450352
C37	C	1.482735	-0.072927	0.450336
C38	C	1.598314	-0.098690	0.549711
H39	H	1.074270	-0.302327	-0.225883
C40	C	1.453492	0.057121	0.391788
C41	C	1.342850	0.042500	0.303704
C42	C	1.315866	0.162269	0.249725
H43	H	1.440298	0.112217	0.473287
H44	H	1.523436	0.093180	0.333394
H45	H	1.272922	0.006460	0.362096
H46	H	1.356015	-0.012573	0.222183
H47	H	1.385809	0.198327	0.191331
H48	H	1.302677	0.217356	0.331234
H49	H	1.240800	0.152364	0.189944
H50	H	0.901947	-0.410168	-0.000079
H51	H	1.721659	-0.236216	0.406840
C52	C	0.932247	-0.057100	-0.260300
C53	C	0.969458	-0.120767	-0.388077
C54	C	0.931570	-0.056747	-0.515284
H55	H	0.841823	-0.055828	-0.259977
H56	H	0.971752	0.028247	-0.260248
H57	H	0.929949	-0.206091	-0.388130
H58	H	1.059876	-0.122041	-0.388450
H59	H	0.971075	0.028599	-0.515231
H60	H	0.841147	-0.055478	-0.514945
H61	H	0.956822	-0.099929	-0.601995
H62	H	1.074502	-0.302361	0.225749
H63	H	1.622398	0.245537	-0.225600
H64	H	1.730204	0.418089	0.000235
H65	H	0.942463	-0.074402	0.225758
C66	C	1.699577	0.002679	0.607281
C67	C	1.673396	0.123108	0.554603
C68	C	1.766664	0.216511	0.607592
H69	H	1.698657	0.002793	0.713226
H70	H	1.781530	-0.015759	0.572987
H71	H	1.591464	0.141542	0.588906
H72	H	1.674327	0.123037	0.448665
H73	H	1.848617	0.198073	0.573298
H74	H	1.765736	0.216612	0.713536
H75	H	1.748920	0.298231	0.571847
H76	H	1.555925	-0.401606	0.593543
C77	C	1.131594	0.067119	0.000151
C78	C	1.094562	0.132131	0.127030
C79	C	1.155365	0.256882	0.127126
H80	H	1.221784	0.063924	0.001107
H81	H	1.107746	0.110849	-0.086805
H82	H	1.118417	0.088413	0.213964
H83	H	1.004381	0.135362	0.126101
H84	H	1.131517	0.300612	0.040170
H85	H	1.245553	0.253674	0.128078
H86	H	1.130238	0.301012	0.213204
H87	H	1.286824	0.204837	0.000185
C88	C	1.262909	-0.133362	0.608297
C89	C	1.277170	-0.021414	0.694146
C90	C	1.157373	0.005565	0.748041
H91	H	1.207364	-0.121735	0.526760
H92	H	1.227525	-0.202625	0.668187
H93	H	1.312536	0.047833	0.634259
H94	H	1.332693	-0.033012	0.775705
H95	H	1.121989	-0.063698	0.807931
H96	H	1.101836	0.017186	0.666495
H97	H	1.167034	0.081516	0.806306
H98	H	1.394404	0.377610	0.225794
C99	C	1.639897	0.235333	0.260375
C100	C	1.746753	0.173946	0.216898
C101	C	1.811002	0.135897	0.343859
H102	H	1.667047	0.308451	0.318809
H103	H	1.583843	0.178019	0.317549
H104	H	1.802796	0.231256	0.159749
H105	H	1.719638	0.100813	0.158481
H106	H	1.754949	0.078584	0.401032
H107	H	1.838144	0.209022	0.402284
H108	H	1.883504	0.094232	0.314377
C109	C	1.377047	0.387658	-0.260220
C110	C	1.336263	0.279533	-0.345402
C111	C	1.272104	0.317309	-0.472560
H112	H	1.304899	0.429976	-0.231020
H113	H	1.433355	0.444299	-0.317912
H114	H	1.279957	0.222914	-0.287721
H115	H	1.408386	0.237203	-0.374640
H116	H	1.328412	0.373950	-0.530252
H117	H	1.199961	0.359627	-0.443346
H118	H	1.244434	0.243955	-0.530378
C119	C	1.317565	-0.379267	0.391972
C120	C	1.318069	-0.377199	0.235822
C121	C	1.224950	-0.470330	0.181927
H122	H	1.335936	-0.461338	0.425883
H123	H	1.235674	-0.361756	0.427409
H124	H	1.399942	-0.394719	0.200400
H125	H	1.299684	-0.295151	0.201871
H126	H	1.143059	-0.452819	0.217364
H127	H	1.243329	-0.552394	0.215848
H128	H	1.225271	-0.468932	0.075975
