data_functionalizedCrystal
_audit_creation_method	'MofGen! by Chris Wilmer'
_symmetry_space_group_name_H-M	'P1'
_symmetry_Int_Tables_number	1
_symmetry_cell_setting	triclinic
loop_
_symmetry_equiv_pos_as_xyz
  x,y,z
_cell_length_a	10.489741
_cell_length_b	16.992695
_cell_length_c	15.455301
_cell_angle_alpha	87.173129
_cell_angle_beta	92.972980
_cell_angle_gamma	92.396302
loop_
_atom_site_label
_atom_site_type_symbol
_atom_site_fract_x
_atom_site_fract_y
_atom_site_fract_z
O1	O	1.708979	-0.113779	0.072078
O2	O	2.208979	0.386221	0.572078
O3	O	1.338688	-0.124170	0.072092
O4	O	1.838688	0.375830	0.572092
O5	O	1.522348	-0.004823	0.072078
O6	O	2.022348	0.495177	0.572078
O7	O	1.525318	-0.233126	0.072092
O8	O	2.025318	0.266874	0.572092
O9	O	1.511733	0.001367	-0.072184
O10	O	2.011733	0.501367	0.427816
O11	O	1.328072	-0.117980	-0.072171
O12	O	1.828072	0.382020	0.427829
O13	O	1.698363	-0.107589	-0.072184
O14	O	2.198363	0.392411	0.427816
Cu15	Cu	1.512248	-0.112219	-0.085350
Cu16	Cu	2.012248	0.387781	0.414650
Cu17	Cu	1.524803	-0.119540	0.085258
Cu18	Cu	2.024803	0.380460	0.585258
O19	O	1.514702	-0.226936	-0.072171
O20	O	2.014702	0.273064	0.427829
C21	C	1.285780	-0.120290	-0.000038
C22	C	1.785780	0.379710	0.499962
C23	C	1.143947	-0.117942	-0.000033
C24	C	1.643947	0.382058	0.499967
C25	C	1.513221	0.027506	-0.000053
C26	C	2.013221	0.527506	0.499947
C27	C	1.501826	0.114614	-0.000052
C28	C	2.001826	0.614614	0.499948
C29	C	1.523830	-0.259265	-0.000038
C30	C	2.023830	0.240735	0.499962
C31	C	1.535225	-0.346374	-0.000033
C32	C	2.035225	0.153626	0.499967
C33	C	1.069200	-0.042006	-0.000045
C34	C	1.569200	0.457994	0.499955
C35	C	0.985428	-0.080929	0.071084
C36	C	1.485428	0.419071	0.571084
C37	C	0.974997	-0.074844	-0.071148
C38	C	1.474997	0.425156	0.428852
C39	C	1.062047	-0.156900	0.071155
C40	C	1.562047	0.343100	0.571155
C41	C	1.051621	-0.150802	-0.071140
C42	C	1.551621	0.349198	0.428860
C43	C	0.967882	-0.189781	0.000007
C44	C	1.467882	0.310219	0.500007
C45	C	1.751271	-0.111469	-0.000053
C46	C	2.251271	0.388531	0.499947
C47	C	1.893104	-0.113817	-0.000052
C48	C	2.393104	0.386183	0.499948
N49	N	1.503427	-0.107070	-0.205346
N50	N	2.003427	0.392930	0.294654
C51	C	1.611775	0.164234	-0.000057
C52	C	2.111775	0.664234	0.499943
C53	C	1.601061	0.246081	-0.000048
C54	C	2.101061	0.746081	0.499952
C55	C	1.480396	0.278307	-0.000041
C56	C	1.980396	0.778307	0.499959
C57	C	1.370439	0.228680	-0.000033
C58	C	1.870439	0.728680	0.499967
C59	C	1.381155	0.146835	-0.000036
C60	C	1.881155	0.646835	0.499964
C61	C	1.435984	0.522155	-0.000027
C62	C	1.935984	1.022155	0.499973
C63	C	1.425276	0.604006	-0.000028
C64	C	1.925276	1.104006	0.499972
C65	C	1.655899	0.621402	-0.000041
C66	C	2.155899	1.121402	0.499959
C67	C	1.666604	0.539554	-0.000049
C68	C	2.166604	1.039554	0.499951
C69	C	1.556647	0.489935	-0.000036
C70	C	2.056647	0.989935	0.499964
N71	N	1.469442	0.361967	-0.000035
N72	N	1.969442	0.861967	0.499965
N73	N	1.567604	0.406276	-0.000036
N74	N	2.067604	0.906276	0.499964
C75	C	1.582343	-0.153173	-0.250736
C76	C	2.082343	0.346827	0.249264
C77	C	1.575689	-0.149274	-0.341544
C78	C	2.075689	0.350726	0.158456
C79	C	1.490112	-0.099276	-0.386960
C80	C	1.990112	0.400724	0.113040
C81	C	1.411193	-0.053168	-0.341564
C82	C	1.911193	0.446832	0.158436
C83	C	1.417854	-0.057063	-0.250757
C84	C	1.917854	0.442937	0.249243
C85	C	1.461375	-0.082470	-0.658543
C86	C	1.961375	0.417530	-0.158543
C87	C	1.454717	-0.078580	-0.749356
C88	C	1.954717	0.421420	-0.249356
C89	C	1.619216	-0.174685	-0.749331
C90	C	2.119216	0.325315	-0.249331
C91	C	1.625864	-0.178580	-0.658522
C92	C	2.125864	0.321420	-0.158522
C93	C	1.546950	-0.132469	-0.613133
C94	C	2.046950	0.367531	-0.113133
N95	N	1.483305	-0.095291	-0.479781
N96	N	1.983305	0.404709	0.020219
N97	N	1.553764	-0.136450	-0.520314
N98	N	2.053764	0.363550	-0.020314
N99	N	1.533633	-0.124683	0.205253
N100	N	2.033633	0.375317	0.705253
H101	H	1.113465	0.020415	0.000040
H102	H	1.613465	0.520415	0.500040
H103	H	1.710033	0.138003	-0.000068
H104	H	2.210033	0.638003	0.499932
H105	H	1.745420	0.661810	-0.000049
H106	H	2.245420	1.161810	0.499951
H107	H	1.695554	-0.219291	-0.621551
H108	H	2.195554	0.280709	-0.121551
H109	H	1.764862	0.513322	-0.000055
H110	H	2.264862	1.013322	0.499945
H111	H	1.385023	-0.037865	-0.786331
H112	H	1.885023	0.462135	-0.286331
H113	H	1.327011	0.630241	-0.000036
H114	H	1.827011	1.130241	0.499964
H115	H	1.291622	0.106435	-0.000032
H116	H	1.791622	0.606435	0.499968
H117	H	1.397118	-0.044922	-0.621598
H118	H	1.897118	0.455078	-0.121598
H119	H	1.341520	-0.012454	-0.378549
H120	H	1.841520	0.487546	0.121451
H121	H	1.081034	-0.180326	-0.131275
H122	H	1.581034	0.319674	0.368725
H123	H	1.353592	-0.019521	-0.213801
H124	H	1.853592	0.480479	0.286199
H125	H	1.272192	0.254924	-0.000022
H126	H	1.772192	0.754924	0.499978
H127	H	0.956043	-0.051379	0.131216
H128	H	1.456043	0.448621	0.631216
H129	H	1.683464	-0.212226	-0.786296
H130	H	2.183464	0.287774	-0.286296
H131	H	1.346449	0.481764	-0.000018
H132	H	1.846449	0.981764	0.499982
H133	H	1.100098	-0.191588	0.131358
H134	H	1.600098	0.308412	0.631358
H135	H	1.639953	-0.186815	-0.378497
H136	H	2.139953	0.313185	0.121503
H137	H	0.923898	-0.252274	0.000049
H138	H	1.423898	0.247726	0.500049
H139	H	1.652023	-0.193892	-0.213765
H140	H	2.152023	0.306108	0.286235
H141	H	0.936797	-0.040120	-0.131282
H142	H	1.436797	0.459880	0.368718
H143	H	1.690593	0.286479	-0.000054
H144	H	2.190593	0.786479	0.499946
