data_functionalizedCrystal
_audit_creation_method	'MofGen! by Chris Wilmer'
_symmetry_space_group_name_H-M	'P1'
_symmetry_Int_Tables_number	1
_symmetry_cell_setting	triclinic
loop_
_symmetry_equiv_pos_as_xyz
  x,y,z
_cell_length_a	6.817900
_cell_length_b	10.943632
_cell_length_c	17.329378
_cell_angle_alpha	90.379255
_cell_angle_beta	103.025558
_cell_angle_gamma	108.838880
loop_
_atom_site_label
_atom_site_type_symbol
_atom_site_fract_x
_atom_site_fract_y
_atom_site_fract_z
V1	V	-4.033568	-0.152242	-0.245013
O2	O	-3.992830	0.034471	-0.240368
O3	O	-4.012085	-0.327988	-0.243319
O4	O	-3.975796	-0.137985	-0.351880
O5	O	-4.029370	-0.156847	-0.131055
V6	V	-4.514922	-0.131317	-0.231385
O7	O	-4.299583	-0.198144	-0.274907
O8	O	-4.699104	-0.085416	-0.201491
O9	O	-4.313199	0.044428	-0.233079
O10	O	-4.673057	-0.318031	-0.236030
O11	O	-4.636518	-0.126713	-0.345343
O12	O	-4.349487	-0.145574	-0.124518
C13	C	-3.863937	-0.371203	-0.239449
C14	C	-3.927596	-0.514801	-0.238776
C15	C	-3.773939	-0.592436	-0.234300
C16	C	-3.873988	-0.671915	-0.170858
C17	C	-3.941001	-0.691189	-0.301026
C18	C	-4.026780	-0.592381	-0.175289
C19	C	-4.093792	-0.611655	-0.305515
C20	C	-4.193955	-0.691098	-0.242061
C21	C	-3.817646	-0.128835	-0.377929
C22	C	-3.851873	-0.118341	-0.465293
C23	C	-3.925296	-0.230436	-0.517547
C24	C	-3.957464	-0.220573	-0.599635
C25	C	-3.916193	-0.098615	-0.629467
C26	C	-3.842769	0.013488	-0.577206
C27	C	-3.810617	0.003625	-0.495120
C28	C	-4.010415	-0.062978	-0.876753
C29	C	-4.042568	-0.053122	-0.958846
C30	C	-4.157265	-0.287185	-0.981269
C31	C	-4.125094	-0.297038	-0.899180
C32	C	-4.051685	-0.184935	-0.846927
C33	C	-3.949066	-0.088531	-0.713374
C34	C	-4.018828	-0.195021	-0.763022
C35	C	-4.124690	0.087637	-0.236947
C36	C	-4.040269	0.231234	-0.237625
C37	C	-4.170980	-0.154730	-0.098465
C38	C	-4.115991	-0.165217	-0.011100
H39	H	-4.372122	-0.733971	-0.245319
C40	C	-3.970699	-0.364594	-0.484736
C41	C	-4.196545	-0.465509	-0.509087
C42	C	-4.241959	-0.599671	-0.476279
C43	C	-4.061527	-0.632918	-0.419120
C44	C	-3.835667	-0.532001	-0.394766
C45	C	-3.790253	-0.397839	-0.427574
H46	H	-4.330124	-0.440900	-0.551402
H47	H	-4.409156	-0.674377	-0.494307
H48	H	-4.095145	-0.732233	-0.394833
H49	H	-3.702087	-0.556610	-0.352451
H50	H	-3.623055	-0.323133	-0.409545
C51	C	-4.238008	-0.410492	-1.038748
C52	C	-4.273369	-0.399655	-1.129041
C53	C	-4.354112	-0.522968	-1.186520
C54	C	-4.399495	-0.657119	-1.153706
C55	C	-4.364135	-0.667961	-1.063409
C56	C	-4.283392	-0.544648	-1.005930
H57	H	-4.239773	-0.300344	-1.153335
H58	H	-4.380287	-0.514941	-1.253364
H59	H	-4.459266	-0.748402	-1.196255
H60	H	-4.397731	-0.767273	-1.039114
H61	H	-4.257216	-0.552676	-0.939086
H62	H	-4.017259	-0.311854	-0.642178
H63	H	-4.158713	-0.396350	-0.874898
C64	C	-3.903646	0.045625	-0.746188
C65	C	-4.026002	0.135100	-0.729467
C66	C	-3.980587	0.269256	-0.762283
C67	C	-3.812816	0.313938	-0.811820
C68	C	-3.690450	0.224462	-0.828544
C69	C	-3.735865	0.090306	-0.795728
H70	H	-4.150206	0.102025	-0.692794
H71	H	-4.071172	0.335492	-0.749903
H72	H	-3.779197	0.413248	-0.836113
H73	H	-3.566246	0.257537	-0.865217
H74	H	-3.645280	0.024070	-0.808108
H75	H	-4.185979	-0.584732	-0.362454
H76	H	-4.052438	-0.294320	-0.738730
H77	H	-3.809180	0.112790	-0.601502
H78	H	-4.008999	0.046195	-0.983132
H79	H	-3.781721	-0.698805	-0.113919
H80	H	-3.595748	-0.549313	-0.230944
H81	H	-4.062400	-0.549342	-0.122097
H82	H	-3.905318	-0.734388	-0.354147
H83	H	-3.950643	0.028305	-0.834218
H84	H	-3.750833	0.094904	-0.452575
