data_functionalizedCrystal
_audit_creation_method	'MofGen! by Chris Wilmer'
_symmetry_space_group_name_H-M	'P1'
_symmetry_Int_Tables_number	1
_symmetry_cell_setting	triclinic
loop_
_symmetry_equiv_pos_as_xyz
  x,y,z
_cell_length_a	19.188933
_cell_length_b	19.188930
_cell_length_c	18.266242
_cell_angle_alpha	90.011475
_cell_angle_beta	90.007623
_cell_angle_gamma	83.145175
loop_
_atom_site_label
_atom_site_type_symbol
_atom_site_fract_x
_atom_site_fract_y
_atom_site_fract_z
O1	O	0.926148	0.087175	0.060865
O2	O	1.426148	0.587175	0.560865
O3	O	0.722837	0.098908	0.060873
O4	O	1.222837	0.598908	0.560873
O5	O	0.830360	-0.008614	0.060854
O6	O	1.330360	0.491386	0.560854
O7	O	0.818626	0.194697	0.060883
O8	O	1.318626	0.694697	0.560883
O9	O	0.830342	-0.008620	-0.060908
O10	O	1.330342	0.491380	0.439092
O11	O	0.722819	0.098902	-0.060889
O12	O	1.222819	0.598902	0.439111
O13	O	0.926130	0.087170	-0.060897
O14	O	1.426130	0.587170	0.439103
Zn15	Zn	0.824472	0.093035	-0.080226
Zn16	Zn	1.324472	0.593035	0.419774
Zn17	Zn	0.824496	0.093042	0.080201
Zn18	Zn	1.324496	0.593042	0.580201
O19	O	0.818608	0.194692	-0.060879
O20	O	1.318608	0.694692	0.439121
C21	C	0.696817	0.098525	-0.000008
C22	C	1.196817	0.598525	0.499992
C23	C	0.619313	0.097384	-0.000005
C24	C	1.119313	0.597384	0.499995
C25	C	0.066067	0.089242	0.066358
C26	C	0.566067	0.589242	0.566358
C27	C	0.138892	0.090310	0.066361
C28	C	0.638892	0.590310	0.566361
C29	C	0.175299	0.090844	-0.000011
C30	C	0.675299	0.590844	0.499989
C31	C	0.138878	0.090292	-0.066391
C32	C	0.638878	0.590292	0.433609
C33	C	0.066056	0.089217	-0.066392
C34	C	0.566056	0.589217	0.433608
N35	N	0.284311	0.132260	-0.049409
N36	N	0.784311	0.632260	0.450591
N37	N	0.353489	0.133283	-0.049403
N38	N	0.853489	0.633283	0.450597
C39	C	0.394707	0.094082	-0.000012
C40	C	0.894707	0.594082	0.499988
N41	N	0.364134	0.053828	0.049385
N42	N	0.864134	0.553828	0.549385
N43	N	0.294949	0.052808	0.049382
N44	N	0.794949	0.552808	0.549382
C45	C	0.254262	0.092009	-0.000017
C46	C	0.754262	0.592009	0.499983
C47	C	0.510084	0.095787	0.066367
C48	C	1.010084	0.595787	0.566367
C49	C	0.582911	0.096851	0.066368
C50	C	1.082911	0.596851	0.566368
C51	C	0.582894	0.096840	-0.066386
C52	C	1.082894	0.596840	0.433614
C53	C	0.510071	0.095769	-0.066385
C54	C	1.010071	0.595769	0.433615
C55	C	0.473669	0.095246	-0.000006
C56	C	0.973669	0.595246	0.499994
C57	C	0.829971	-0.034628	-0.000029
C58	C	1.329971	0.465372	0.499971
C59	C	0.828830	-0.112132	-0.000035
C60	C	1.328830	0.387868	0.499965
C61	C	0.891921	-0.157056	-0.000041
C62	C	1.391921	0.342944	0.499959
C63	C	0.890849	-0.229880	-0.000029
C64	C	1.390849	0.270120	0.499971
C65	C	0.826683	-0.257777	-0.000026
C66	C	1.326683	0.242223	0.499974
C67	C	0.763584	-0.212843	-0.000016
C68	C	1.263584	0.287157	0.499984
C69	C	0.764658	-0.140021	-0.000021
C70	C	1.264658	0.359979	0.499979
N71	N	0.777630	-0.365784	-0.041462
N72	N	1.277630	0.134216	0.458538
N73	N	0.776614	-0.434962	-0.041460
N74	N	1.276614	0.065038	0.458540
C75	C	0.823445	-0.477185	-0.000011
C76	C	1.323445	0.022815	0.499989
N77	N	0.871340	-0.447618	0.041425
N78	N	1.371340	0.052382	0.541425
N79	N	0.872358	-0.378433	0.041419
N80	N	1.372358	0.121567	0.541419
C81	C	0.825512	-0.336739	-0.000021
C82	C	1.325512	0.163261	0.499979
C83	C	0.885378	-0.601073	-0.000004
C84	C	1.385378	-0.101073	0.499996
C85	C	0.884304	-0.673898	0.000013
C86	C	1.384304	-0.173898	0.500013
C87	C	0.757037	-0.656860	0.000019
C88	C	1.257037	-0.156860	0.500019
C89	C	0.758113	-0.584037	0.000010
C90	C	1.258113	-0.084037	0.500010
C91	C	0.822286	-0.556148	-0.000005
C92	C	1.322286	-0.056148	0.499995
C93	C	0.952150	0.087553	-0.000015
C94	C	1.452150	0.587553	0.499985
C95	C	1.029655	0.088694	-0.000013
C96	C	1.529655	0.588694	0.499987
C97	C	0.818997	0.220705	0.000006
C98	C	1.318997	0.720705	0.500006
C99	C	0.820137	0.298210	0.000017
C100	C	1.320137	0.798210	0.500017
N101	N	0.824461	0.093030	-0.189713
N102	N	1.324461	0.593030	0.310287
C103	C	0.872087	0.045442	-0.228030
C104	C	1.372087	0.545442	0.271970
C105	C	0.872092	0.045439	-0.304675
C106	C	1.372092	0.545439	0.195325
C107	C	0.824476	0.093035	-0.342999
C108	C	1.324476	0.593035	0.157001
C109	C	0.776841	0.140626	-0.304673
C110	C	1.276841	0.640626	0.195327
C111	C	0.776833	0.140624	-0.228030
C112	C	1.276833	0.640624	0.271970
N113	N	0.815400	0.154843	-0.463323
N114	N	1.315400	0.654843	0.036677
N115	N	0.815412	0.154843	-0.536131
N116	N	1.315412	0.654843	-0.036131
C117	C	0.824496	0.093045	-0.573922
C118	C	1.324496	0.593045	-0.073922
N119	N	0.833581	0.031245	-0.536154
N120	N	1.333581	0.531245	-0.036154
N121	N	0.833573	0.031245	-0.463339
N122	N	1.333573	0.531245	0.036661
C123	C	0.824479	0.093043	-0.426106
C124	C	1.324479	0.593043	0.073894
C125	C	0.872130	0.045450	-0.695346
C126	C	1.372130	0.545450	-0.195346
C127	C	0.872129	0.045446	-0.771992
C128	C	1.372129	0.545446	-0.271992
C129	C	0.776882	0.140640	-0.771990
C130	C	1.276882	0.640640	-0.271990
C131	C	0.776879	0.140638	-0.695345
C132	C	1.276879	0.640638	-0.195345
C133	C	0.824506	0.093044	-0.657028
C134	C	1.324506	0.593044	-0.157028
N135	N	0.824512	0.093042	0.189688
N136	N	1.324512	0.593042	0.689688
H137	H	0.168544	0.090760	0.120410
H138	H	0.668544	0.590760	0.620410
C139	C	1.000737	-0.149149	0.062544
C140	C	1.500737	0.350851	0.562544
C141	C	0.962459	-0.126402	-0.000048
C142	C	1.462459	0.373598	0.499952
H143	H	1.044282	-0.130220	0.062541
H144	H	1.544282	0.369780	0.562541
H145	H	1.009123	-0.198943	0.062539
H146	H	1.509123	0.301057	0.562539
H147	H	0.974769	-0.133700	0.105001
H148	H	1.474769	0.366300	0.605001
H149	H	0.988425	-0.141856	-0.042506
H150	H	1.488425	0.358144	0.457494
H151	H	0.954075	-0.076597	-0.000050
H152	H	1.454075	0.423403	0.499950
C153	C	0.966272	-0.048649	-0.703044
C154	C	1.466272	0.451351	-0.203044
C155	C	0.924473	-0.006871	-0.653222
C156	C	1.424473	0.493129	-0.153222
H157	H	0.998582	-0.080953	-0.677038
H158	H	1.498582	0.419047	-0.177038
H159	H	0.991298	-0.019649	-0.732924
H160	H	1.491298	0.480351	-0.232924
H161	H	0.937281	-0.073689	-0.732952
H162	H	1.437281	0.426311	-0.232952
H163	H	0.953463	0.018174	-0.623318
H164	H	1.453463	0.518174	-0.123318
H165	H	0.899445	-0.035875	-0.623330
H166	H	1.399445	0.464125	-0.123330
C167	C	0.436224	0.034584	0.143375
C168	C	0.936224	0.534584	0.643375
C169	C	0.470068	0.095204	0.139329
C170	C	0.970068	0.595204	0.639329
H171	H	0.411519	0.034228	0.188417
H172	H	0.911519	0.534228	0.688417
H173	H	0.470080	-0.005697	0.140614
H174	H	0.970080	0.494303	0.640614
H175	H	0.404113	0.034117	0.103842
H176	H	0.904113	0.534117	0.603842
H177	H	0.502183	0.095668	0.178859
H178	H	1.002183	0.595668	0.678859
H179	H	0.436209	0.135495	0.142097
H180	H	0.936209	0.635495	0.642097
C181	C	0.887594	-0.049619	-0.858194
C182	C	1.387594	0.450381	-0.358194
C183	C	0.924484	-0.006869	-0.814111
C184	C	1.424484	0.493131	-0.314111
H185	H	0.919918	-0.081919	-0.884193
H186	H	1.419918	0.418081	-0.384193
H187	H	0.859240	-0.021278	-0.891985
H188	H	1.359240	0.478722	-0.391985
H189	H	0.858613	-0.074663	-0.828298
H190	H	1.358613	0.425337	-0.328298
H191	H	0.953461	0.018179	-0.844008
H192	H	1.453461	0.518179	-0.344008
H193	H	0.952850	-0.035214	-0.780317
H194	H	1.452850	0.464786	-0.280317
C195	C	0.250501	0.091947	-0.125333
C196	C	0.750501	0.591947	0.374667
C197	C	0.178893	0.090882	-0.139349
C198	C	0.678893	0.590882	0.360651
H199	H	0.275203	0.092313	-0.170376
H200	H	0.775203	0.592313	0.329624
H201	H	0.267885	0.051422	-0.098069
H202	H	0.767885	0.551422	0.401931
H203	H	0.256979	0.132835	-0.098056
H204	H	0.756979	0.632835	0.401944
H205	H	0.172415	0.049992	-0.166621
H206	H	0.672415	0.549992	0.333379
H207	H	0.161504	0.131411	-0.166624
H208	H	0.661504	0.631411	0.333376
H209	H	0.480423	0.095326	-0.120432
H210	H	0.980423	0.595326	0.379568
H211	H	0.738109	0.179391	-0.803193
H212	H	1.238109	0.679391	-0.303193
C213	C	0.575605	0.096769	0.197587
C214	C	1.075605	0.596769	0.697587
C215	C	0.622938	0.097452	0.139329
C216	C	1.122938	0.597452	0.639329
H217	H	0.600318	0.097145	0.242630
H218	H	1.100318	0.597145	0.742630
H219	H	0.552650	0.055648	0.194826
H220	H	1.052650	0.555648	0.694826
H221	H	0.541752	0.137060	0.194820
H222	H	1.041752	0.637060	0.694820
H223	H	0.656788	0.057159	0.142093
H224	H	1.156788	0.557159	0.642093
H225	H	0.645905	0.138578	0.142092
H226	H	1.145905	0.638578	0.642092
H227	H	0.738099	0.179391	-0.664145
H228	H	1.238099	0.679391	-0.164145
C229	C	0.035635	0.148922	0.179522
C230	C	0.535635	0.648922	0.679522
C231	C	0.026061	0.088655	0.139323
C232	C	0.526061	0.588655	0.639323
H233	H	0.010940	0.148554	0.224569
H234	H	0.510940	0.648554	0.724569
H235	H	0.018240	0.189442	0.152258
H236	H	0.518240	0.689442	0.652258
H237	H	0.084220	0.149635	0.189011
H238	H	0.584220	0.649635	0.689011
H239	H	-0.022524	0.087944	0.129829
H240	H	0.477476	0.587944	0.629829
H241	H	0.043453	0.048124	0.166594
H242	H	0.543453	0.548124	0.666594
C243	C	0.648221	-0.664770	-0.062566
C244	C	1.148221	-0.164770	0.437434
C245	C	0.686503	-0.687515	0.000024
C246	C	1.186503	-0.187515	0.500024
H247	H	0.604673	-0.683695	-0.062557
H248	H	1.104673	-0.183695	0.437443
H249	H	0.674182	-0.680219	-0.105020
H250	H	1.174182	-0.180219	0.394980
H251	H	0.639836	-0.614970	-0.062563
H252	H	1.139836	-0.114970	0.437437
H253	H	0.694892	-0.737316	0.000018
H254	H	1.194892	-0.237316	0.500018
H255	H	0.660536	-0.672070	0.042489
H256	H	1.160536	-0.172070	0.542489
H257	H	0.036409	0.088774	-0.120441
H258	H	0.536409	0.588774	0.379559
H259	H	0.612537	0.097273	-0.120428
H260	H	1.112537	0.597273	0.379572
H261	H	0.706738	-0.547459	0.000010
H262	H	1.206738	-0.047459	0.500010
H263	H	0.942227	-0.266463	-0.000031
H264	H	1.442227	0.233537	0.499969
C265	C	0.992465	-0.710814	0.062591
C266	C	1.492465	-0.210814	0.562591
C267	C	0.953661	-0.723279	0.000007
C268	C	1.453661	-0.223279	0.500007
H269	H	1.035286	-0.741298	0.062583
H270	H	1.535286	-0.241298	0.562583
H271	H	0.966156	-0.719242	0.105049
H272	H	1.466156	-0.219242	0.605049
H273	H	1.002280	-0.663449	0.062575
H274	H	1.502280	-0.163449	0.562575
H275	H	0.943842	-0.770643	0.000025
H276	H	1.443842	-0.270643	0.500025
H277	H	0.979976	-0.714856	-0.042462
H278	H	1.479976	-0.214856	0.457538
C279	C	0.914396	0.003185	-0.422170
C280	C	1.414396	0.503185	0.077830
C281	C	0.924448	-0.006870	-0.346806
C282	C	1.424448	0.493130	0.153194
H283	H	0.946717	-0.029111	-0.448176
H284	H	1.446717	0.470889	0.051824
H285	H	0.921830	0.049763	-0.434708
H286	H	1.421830	0.549763	0.065292
H287	H	0.867825	-0.004289	-0.434736
H288	H	1.367825	0.495711	0.065264
H289	H	0.971018	0.000610	-0.334238
H290	H	1.471018	0.500610	0.165762
H291	H	0.917020	-0.053458	-0.334262
H292	H	1.417020	0.446542	0.165738
H293	H	0.937631	-0.578365	-0.000012
H294	H	1.437631	-0.078365	0.499988
H295	H	0.910867	0.006687	-0.196834
H296	H	1.410867	0.506687	0.303166
H297	H	0.738070	0.179379	-0.335881
H298	H	1.238070	0.679379	0.164119
C299	C	0.688563	-0.284848	0.062579
C300	C	1.188563	0.215152	0.562579
C301	C	0.693052	-0.243507	-0.000014
C302	C	1.193052	0.256493	0.499986
H303	H	0.645019	-0.303781	0.062579
H304	H	1.145019	0.196219	0.562579
H305	H	0.691630	-0.256784	0.105031
H306	H	1.191630	0.243216	0.605031
H307	H	0.725990	-0.322025	0.062568
H308	H	1.225990	0.177975	0.562568
H309	H	0.655628	-0.206327	-0.000001
H310	H	1.155628	0.293673	0.499999
H311	H	0.689978	-0.271572	-0.042477
H312	H	1.189978	0.228428	0.457523
C313	C	0.638753	-0.130496	-0.000015
C314	C	1.138753	0.369504	0.499985
C315	C	0.695303	-0.090636	-0.000021
C316	C	1.195303	0.409364	0.499979
H317	H	0.595937	-0.100006	-0.000021
H318	H	1.095937	0.399994	0.499979
H319	H	0.640987	-0.159239	0.042447
H320	H	1.140987	0.340761	0.542447
H321	H	0.640980	-0.159269	-0.042475
H322	H	1.140980	0.340731	0.457525
H323	H	0.693080	-0.061867	0.042442
H324	H	1.193080	0.438133	0.542442
H325	H	0.693069	-0.061881	-0.042488
H326	H	1.193069	0.438119	0.457512
C327	C	0.682687	0.234719	-0.235727
C328	C	1.182687	0.734719	0.264273
C329	C	0.724483	0.192941	-0.185907
C330	C	1.224483	0.692941	0.314093
H331	H	0.650373	0.267020	-0.209720
H332	H	1.150373	0.767020	0.290280
H333	H	0.657666	0.205717	-0.265630
H334	H	1.157666	0.705717	0.234370
H335	H	0.711680	0.259760	-0.265612
H336	H	1.211680	0.759760	0.234388
H337	H	0.695491	0.167895	-0.156026
H338	H	1.195491	0.667895	0.343974
H339	H	0.749506	0.221946	-0.155992
H340	H	1.249506	0.721946	0.344008
