data_functionalizedCrystal
_audit_creation_method	'MofGen! by Chris Wilmer'
_symmetry_space_group_name_H-M	'P1'
_symmetry_Int_Tables_number	1
_symmetry_cell_setting	triclinic
loop_
_symmetry_equiv_pos_as_xyz
  x,y,z
_cell_length_a	21.395364
_cell_length_b	12.827892
_cell_length_c	21.395355
_cell_angle_alpha	90.010241
_cell_angle_beta	90.025298
_cell_angle_gamma	90.034032
loop_
_atom_site_label
_atom_site_type_symbol
_atom_site_fract_x
_atom_site_fract_y
_atom_site_fract_z
Zn1	Zn	-0.957917	0.415688	-0.354310
Zn2	Zn	-0.457917	0.915688	0.145690
Zn3	Zn	-0.957844	0.590415	-0.249548
Zn4	Zn	-0.457844	1.090415	0.250452
Zn5	Zn	-0.853132	0.415740	-0.249545
Zn6	Zn	-0.353132	0.915740	0.250455
Zn7	Zn	-0.853126	0.590439	-0.354286
Zn8	Zn	-0.353126	1.090439	0.145714
O9	O	-0.905505	0.503070	-0.301922
O10	O	-0.405505	1.003070	0.198078
O11	O	-1.045586	0.438835	-0.340424
O12	O	-0.545586	0.938835	0.159576
O13	O	-0.943926	0.567255	-0.161869
O14	O	-0.443926	1.067255	0.338131
O15	O	-0.867066	0.269497	-0.263451
O16	O	-0.367066	0.769497	0.236549
O17	O	-1.045532	0.567206	-0.263455
O18	O	-0.545532	1.067206	0.236545
O19	O	-0.944051	0.269459	-0.340422
O20	O	-0.444051	0.769459	0.159578
O21	O	-0.866995	0.438922	-0.161868
O22	O	-0.366995	0.938922	0.338132
O23	O	-0.765454	0.438945	-0.263429
O24	O	-0.265454	0.938945	0.236571
O25	O	-0.867055	0.567247	-0.441967
O26	O	-0.367055	1.067247	0.058033
O27	O	-0.765449	0.567296	-0.340381
O28	O	-0.265449	1.067296	0.159619
O29	O	-0.944045	0.438858	-0.441985
O30	O	-0.444045	0.938858	0.058015
O31	O	-0.943920	0.736654	-0.263433
O32	O	-0.443920	1.236654	0.236567
O33	O	-0.866984	0.736672	-0.340384
O34	O	-0.366984	1.236672	0.159616
C35	C	-0.742717	0.503130	-0.301903
C36	C	-0.242717	1.003130	0.198097
C37	C	-0.673076	0.503180	-0.301909
C38	C	-0.173076	1.003180	0.198091
C39	C	-0.640413	0.436448	-0.342048
C40	C	-0.140413	0.936448	0.157952
C41	C	-0.574978	0.436424	-0.342050
C42	C	-0.074978	0.936424	0.157950
C43	C	-0.542208	0.503150	-0.301919
C44	C	-0.042208	1.003150	0.198081
C45	C	-0.574879	0.569886	-0.261772
C46	C	-0.074879	1.069886	0.238228
C47	C	-0.640313	0.569901	-0.261767
C48	C	-0.140313	1.069901	0.238233
C49	C	-0.438497	0.597265	-0.296888
C50	C	0.061503	1.097265	0.203112
C51	C	-0.373064	0.597251	-0.296897
C52	C	0.126936	1.097251	0.203103
C53	C	-0.340387	0.503103	-0.301930
C54	C	0.159613	1.003103	0.198070
C55	C	-0.373152	0.408964	-0.306967
C56	C	0.126848	0.908964	0.193033
C57	C	-0.438586	0.408980	-0.306962
C58	C	0.061414	0.908980	0.193038
C59	C	-0.471256	0.503140	-0.301919
C60	C	0.028744	1.003140	0.198081
C61	C	-0.236772	0.436339	-0.342073
C62	C	0.263228	0.936339	0.157927
C63	C	-0.171335	0.436313	-0.342070
C64	C	0.328665	0.936313	0.157930
C65	C	-0.171237	0.569784	-0.261796
C66	C	0.328763	1.069784	0.238204
C67	C	-0.236672	0.569801	-0.261795
C68	C	0.263328	1.069801	0.238205
C69	C	-0.269436	0.503080	-0.301937
C70	C	0.230564	1.003080	0.198063
C71	C	-0.905460	0.774580	-0.301920
C72	C	-0.405460	1.274580	0.198080
C73	C	-0.905499	0.890734	-0.301939
C74	C	-0.405499	1.390734	0.198061
C75	C	-0.068928	0.503025	-0.301939
C76	C	0.431072	1.003025	0.198061
C77	C	-0.138570	0.503038	-0.301938
C78	C	0.361430	1.003038	0.198062
C79	C	-0.943613	0.942475	-0.263905
C80	C	-0.443613	1.442475	0.236095
C81	C	-0.943654	1.062525	-0.263925
C82	C	-0.443654	1.562525	0.236075
C83	C	-0.905557	0.503049	-0.465346
C84	C	-0.405557	1.003049	0.034654
C85	C	-0.905579	0.503040	-0.534987
C86	C	-0.405579	1.003040	-0.034987
C87	C	-0.905562	1.230500	-0.301947
C88	C	-0.405562	1.730500	0.198053
C89	C	-0.905573	1.114347	-0.301976
C90	C	-0.405573	1.614347	0.198024
C91	C	-0.945666	0.436186	-0.567710
C92	C	-0.445666	0.936186	-0.067710
C93	C	-0.945665	0.436141	-0.633146
C94	C	-0.445665	0.936141	-0.133146
C95	C	-0.905584	0.502969	-0.665855
C96	C	-0.405584	1.002969	-0.165855
C97	C	-0.865489	0.569828	-0.633124
C98	C	-0.365489	1.069828	-0.133124
C99	C	-0.865487	0.569864	-0.567690
C100	C	-0.365487	1.069864	-0.067690
C101	C	-0.900621	0.597065	-0.769529
C102	C	-0.400621	1.097065	-0.269529
C103	C	-0.900628	0.597031	-0.834962
C104	C	-0.400628	1.097031	-0.334962
C105	C	-0.905588	0.502859	-0.867676
C106	C	-0.405588	1.002859	-0.367676
C107	C	-0.910554	0.408717	-0.834949
C108	C	-0.410554	0.908717	-0.334949
C109	C	-0.910552	0.408752	-0.769515
C110	C	-0.410552	0.908752	-0.269515
C111	C	-0.905582	0.502937	-0.736808
C112	C	-0.405582	1.002937	-0.236808
C113	C	-0.945676	0.435950	-0.971352
C114	C	-0.445676	0.935950	-0.471352
C115	C	-0.945671	0.435903	-1.036789
C116	C	-0.445671	0.935903	-0.536789
C117	C	-0.865498	0.569600	-1.036766
C118	C	-0.365498	1.069600	-0.536766
C119	C	-0.865500	0.569637	-0.971331
C120	C	-0.365500	1.069637	-0.471331
C121	C	-0.905593	0.502814	-0.938628
C122	C	-0.405593	1.002814	-0.438628
C123	C	-0.905489	0.503016	-0.139135
C124	C	-0.405489	1.003016	0.360865
C125	C	-0.905589	0.502731	-0.069494
C126	C	-0.405589	1.002731	0.430506
H127	H	-0.465097	0.673937	-0.292789
H128	H	0.034903	1.173937	0.207211
H129	H	-0.832857	0.624002	-1.063398
H130	H	-0.332857	1.124002	-0.563398
H131	H	-0.896588	0.673688	-0.861603
H132	H	-0.396588	1.173688	-0.361603
H133	H	-0.976283	1.107022	-0.231361
H134	H	-0.476283	1.607022	0.268639
Br135	Br	-0.851163	0.965024	-0.356245
Br136	Br	-0.351163	1.465024	0.143755
H137	H	-0.976217	0.897898	-0.231330
H138	H	-0.476217	1.397898	0.268670
Br139	Br	-1.000074	0.345493	-0.523330
Br140	Br	-0.500074	0.845493	-0.023330
Br141	Br	-0.530640	0.345850	-0.396526
Br142	Br	-0.030640	0.845850	0.103474
Br143	Br	-1.000057	0.345377	-0.677566
Br144	Br	-0.500057	0.845377	-0.177566
Br145	Br	-0.328604	0.725009	-0.290075
Br146	Br	0.171396	1.225009	0.209925
H147	H	-0.832841	0.624304	-0.541047
H148	H	-0.332841	1.124304	-0.041047
Br149	Br	-0.127005	0.345732	-0.396545
Br150	Br	0.372995	0.845732	0.103455
H151	H	-0.914594	0.332099	-0.742872
H152	H	-0.414594	0.832099	-0.242872
H153	H	-0.667085	0.382118	-0.374734
H154	H	-0.167085	0.882118	0.125266
Br155	Br	-0.893908	0.724886	-0.725138
Br156	Br	-0.393908	1.224886	-0.225138
H157	H	-0.914594	0.332032	-0.861584
H158	H	-0.414594	0.832032	-0.361584
Br159	Br	-1.000083	0.345259	-0.926965
Br160	Br	-0.500083	0.845259	-0.426965
Br161	Br	-1.000089	0.345179	-1.081200
Br162	Br	-0.500089	0.845179	-0.581200
Br163	Br	-0.811095	0.660376	-0.926917
Br164	Br	-0.311095	1.160376	-0.426917
H165	H	-0.832853	0.624237	-0.659761
H166	H	-0.332853	1.124237	-0.159761
H167	H	-0.346548	0.332300	-0.311065
H168	H	0.153452	0.832300	0.188935
Br169	Br	-0.483050	0.281228	-0.313795
Br170	Br	0.016950	0.781228	0.186205
H171	H	-0.144556	0.624113	-0.229120
H172	H	0.355444	1.124113	0.270880
Br173	Br	-0.281004	0.660362	-0.207313
Br174	Br	0.218996	1.160362	0.292687
Br175	Br	-0.530407	0.660436	-0.207303
Br176	Br	-0.030407	1.160436	0.292697
Br177	Br	-0.684644	0.660468	-0.207285
Br178	Br	-0.184644	1.160468	0.292715
H179	H	-0.263449	0.382004	-0.374755
H180	H	0.236551	0.882004	0.125245
H181	H	-0.872937	1.069858	-0.334538
H182	H	-0.372937	1.569858	0.165462
