data_functionalizedCrystal
_audit_creation_method	'MofGen! by Chris Wilmer'
_symmetry_space_group_name_H-M	'P1'
_symmetry_Int_Tables_number	1
_symmetry_cell_setting	triclinic
loop_
_symmetry_equiv_pos_as_xyz
  x,y,z
_cell_length_a	16.120490
_cell_length_b	12.645330
_cell_length_c	16.120297
_cell_angle_alpha	87.125115
_cell_angle_beta	89.870317
_cell_angle_gamma	87.105131
loop_
_atom_site_label
_atom_site_type_symbol
_atom_site_fract_x
_atom_site_fract_y
_atom_site_fract_z
Zn1	Zn	1.247526	-0.537168	0.534551
Zn2	Zn	1.747526	-0.037168	1.034551
Zn3	Zn	1.254502	-0.705931	0.395499
Zn4	Zn	1.754502	-0.205931	0.895499
Zn5	Zn	1.115513	-0.519245	0.388472
Zn6	Zn	1.615513	-0.019245	0.888472
Zn7	Zn	1.108457	-0.704945	0.527472
Zn8	Zn	1.608457	-0.204945	1.027472
O9	O	1.181500	-0.616823	0.461498
O10	O	1.681500	-0.116823	0.961498
O11	O	1.364820	-0.567469	0.522009
O12	O	1.864820	-0.067469	1.022009
O13	O	1.241937	-0.674079	0.278201
O14	O	1.741937	-0.174079	0.778201
O15	O	1.133058	-0.373279	0.407872
O16	O	1.633058	0.126721	0.907872
O17	O	1.369944	-0.691458	0.419848
O18	O	1.869944	-0.191458	0.919848
O19	O	1.230048	-0.386447	0.515196
O20	O	1.730048	0.113553	1.015196
O21	O	1.139822	-0.536922	0.273038
O22	O	1.639822	-0.036922	0.773038
O23	O	0.998209	-0.535965	0.401007
O24	O	1.498209	-0.035965	0.901007
O25	O	1.121033	-0.689777	0.644777
O26	O	1.621033	-0.189777	1.144777
O27	O	0.993025	-0.672398	0.503129
O28	O	1.493025	-0.172398	1.003129
O29	O	1.223206	-0.566512	0.649978
O30	O	1.723206	-0.066512	1.149978
O31	O	1.235095	-0.854144	0.412983
O32	O	1.735095	-0.354144	0.912983
O33	O	1.127797	-0.853419	0.509943
O34	O	1.627797	-0.353419	1.009943
C35	C	0.965444	-0.602130	0.450538
C36	C	1.465444	-0.102130	0.950538
C37	C	0.873014	-0.595872	0.445869
C38	C	1.373014	-0.095872	0.945869
C39	C	0.660060	-0.649279	0.485720
C40	C	1.160060	-0.149279	0.985720
C41	C	0.703787	-0.584455	0.437343
C42	C	1.203787	-0.084455	0.937343
C43	C	0.797954	-0.590809	0.442088
C44	C	1.297954	-0.090809	0.942088
C45	C	0.565885	-0.642926	0.480976
C46	C	1.065885	-0.142926	0.980976
C47	C	1.181459	-0.892248	0.461477
C48	C	1.681459	-0.392248	0.961477
C49	C	1.181516	-1.010083	0.461499
C50	C	1.681516	-0.510083	0.961499
C51	C	1.248921	-1.178044	0.400366
C52	C	1.748921	-0.678044	0.900366
C53	C	1.249122	-1.055508	0.400534
C54	C	1.749122	-0.555508	0.900534
C55	C	1.200837	-1.061450	0.550355
C56	C	1.700837	-0.561450	1.050355
C57	C	1.201363	-1.184062	0.550039
C58	C	1.701363	-0.684062	1.050039
C59	C	1.094722	-1.170067	0.434638
C60	C	1.594722	-0.670067	0.934638
C61	C	1.095243	-1.047371	0.432694
C62	C	1.595243	-0.547371	0.932694
C63	C	1.398399	-0.631573	0.472502
C64	C	1.898399	-0.131573	0.972502
C65	C	1.490828	-0.637859	0.477191
C66	C	1.990828	-0.137859	0.977191
C67	C	1.170554	-0.630034	0.678393
C68	C	1.670554	-0.130034	1.178393
C69	C	1.165890	-0.635664	0.770821
C70	C	1.665890	-0.135664	1.270821
C71	C	1.181562	-0.340324	0.461540
C72	C	1.681562	0.159676	0.961540
C73	C	1.181589	-0.222497	0.461557
C74	C	1.681589	0.277503	0.961557
C75	C	1.192450	-0.603589	0.245450
C76	C	1.692450	-0.103589	0.745450
C77	C	1.197275	-0.597672	0.153031
C78	C	1.697275	-0.097672	0.653031
C79	C	1.157344	-0.645917	0.940046
C80	C	1.657344	-0.145917	1.440046
C81	C	1.205819	-0.587421	0.983811
C82	C	1.705819	-0.087421	1.483811
C83	C	1.201064	-0.593126	1.077974
C84	C	1.701064	-0.093126	1.577974
C85	C	1.162098	-0.640214	0.845875
C86	C	1.662098	-0.140214	1.345875
H87	H	1.237549	-1.020513	0.334788
H88	H	1.737549	-0.520513	0.834788
H89	H	1.154226	-1.213743	0.597443
H90	H	1.654226	-0.713743	1.097443
O91	O	0.659698	-0.504632	0.377752
O92	O	1.159698	-0.004632	0.877752
H93	H	0.675578	-0.423427	0.392941
H94	H	1.175578	0.076573	0.892941
H95	H	0.693342	-0.709545	0.530697
H96	H	1.193342	-0.209545	1.030697
O97	O	1.097643	-0.717925	0.984085
O98	O	1.597643	-0.217925	1.484085
H99	H	1.112706	-0.801108	0.968194
H100	H	1.612706	-0.301108	1.468194
H101	H	1.153095	-1.032253	0.597360
H102	H	1.653095	-0.532253	1.097360
H103	H	1.313009	-1.214077	0.418340
H104	H	1.813009	-0.714077	0.918340
O105	O	1.234348	-1.211461	0.313189
O106	O	1.734348	-0.711461	0.813189
H107	H	1.178895	-1.259993	0.312518
H108	H	1.678895	-0.759993	0.812518
H109	H	1.313551	-1.031436	0.418692
H110	H	1.813551	-0.531436	0.918692
H111	H	1.080595	-1.013205	0.367282
H112	H	1.580595	-0.513205	0.867282
H113	H	1.264726	-1.218108	0.572324
H114	H	1.764726	-0.718108	1.072324
H115	H	1.250891	-0.533056	0.950561
H116	H	1.750891	-0.033056	1.450561
O117	O	1.283789	-1.027980	0.580250
O118	O	1.783789	-0.527980	1.080250
H119	H	1.311384	-0.974793	0.531975
H120	H	1.811384	-0.474793	1.031975
H121	H	1.076295	-1.195761	0.370741
H122	H	1.576295	-0.695761	0.870741
O123	O	1.025674	-1.005826	0.486919
O124	O	1.525674	-0.505826	0.986919
H125	H	1.051619	-0.957745	0.535468
H126	H	1.551619	-0.457745	1.035468
H127	H	1.044609	-1.198709	0.479152
H128	H	1.544609	-0.698709	0.979152
