data_functionalizedCrystal
_audit_creation_method	'MofGen! by Chris Wilmer'
_symmetry_space_group_name_H-M	'P1'
_symmetry_Int_Tables_number	1
_symmetry_cell_setting	triclinic
loop_
_symmetry_equiv_pos_as_xyz
  x,y,z
_cell_length_a	16.120484
_cell_length_b	13.033293
_cell_length_c	13.032268
_cell_angle_alpha	89.079182
_cell_angle_beta	99.642751
_cell_angle_gamma	100.430752
loop_
_atom_site_label
_atom_site_type_symbol
_atom_site_fract_x
_atom_site_fract_y
_atom_site_fract_z
Zn1	Zn	-0.262705	1.479900	-0.795792
Zn2	Zn	0.070628	1.813233	-0.462459
Zn3	Zn	0.403962	2.146567	-0.129126
Zn4	Zn	-0.384050	1.493069	-0.630429
Zn5	Zn	-0.050717	1.826402	-0.297096
Zn6	Zn	0.282616	2.159736	0.036237
Zn7	Zn	-0.258246	1.330075	-0.601725
Zn8	Zn	0.075087	1.663409	-0.268392
Zn9	Zn	0.408421	1.996742	0.064941
Zn10	Zn	-0.419251	1.296833	-0.782387
Zn11	Zn	-0.085917	1.630166	-0.449053
Zn12	Zn	0.247416	1.963499	-0.115720
O13	O	-0.331063	1.399969	-0.702583
O14	O	0.002270	1.733303	-0.369250
O15	O	0.335604	2.066636	-0.035917
O16	O	-0.265936	1.626475	-0.791480
O17	O	0.067397	1.959808	-0.458146
O18	O	0.400730	2.293141	-0.124813
O19	O	-0.350765	1.490871	-0.481809
O20	O	-0.017431	1.824204	-0.148476
O21	O	0.315902	2.157538	0.184858
O22	O	-0.140673	1.358351	-0.621066
O23	O	0.192660	1.691684	-0.287733
O24	O	0.525994	2.025018	0.045600
O25	O	-0.355088	1.636150	-0.669988
O26	O	-0.021755	1.969483	-0.336655
O27	O	0.311578	2.302817	-0.003322
O28	O	-0.143949	1.468427	-0.763647
O29	O	0.189384	1.801760	-0.430313
O30	O	0.522718	2.135093	-0.096980
O31	O	-0.258337	1.371120	-0.460720
O32	O	0.074997	1.704454	-0.127387
O33	O	0.408330	2.037787	0.205946
O34	O	-0.292469	1.180838	-0.608067
O35	O	0.040864	1.514171	-0.274734
O36	O	0.374198	1.847505	0.058599
O37	O	-0.415082	1.301693	-0.928978
O38	O	-0.081749	1.635027	-0.595644
O39	O	0.251585	1.968360	-0.262311
O40	O	-0.410758	1.156415	-0.740799
O41	O	-0.077425	1.489748	-0.407465
O42	O	0.255908	1.823081	-0.074132
O43	O	-0.300069	1.436192	-0.938827
O44	O	0.033265	1.769526	-0.605493
O45	O	0.366598	2.102859	-0.272160
O46	O	-0.506884	1.458637	-0.656989
O47	O	-0.173551	1.791970	-0.323656
O48	O	0.159782	2.125303	0.009677
O49	O	-0.532746	1.314463	-0.768632
O50	O	-0.199412	1.647796	-0.435298
O51	O	0.133921	1.981129	-0.101965
C52	C	-0.354950	1.131074	-0.669864
C53	C	-0.021617	1.464407	-0.336531
C54	C	0.311717	1.797741	-0.003197
C55	C	-0.365192	1.016035	-0.655892
C56	C	-0.031859	1.349368	-0.322559
C57	C	0.301474	1.682701	0.010774
C58	C	-0.325739	0.959940	-0.709877
C59	C	0.007595	1.293274	-0.376543
C60	C	0.340928	1.626607	-0.043210
C61	C	-0.336324	0.841041	-0.695437
C62	C	-0.002990	1.174374	-0.362104
C63	C	0.330343	1.507708	-0.028771
C64	C	-0.550454	1.384397	-0.714497
C65	C	-0.217120	1.717730	-0.381163
C66	C	0.116213	2.051063	-0.047830
C67	C	-0.644306	1.377825	-0.719639
C68	C	-0.310972	1.711158	-0.386306
C69	C	0.022361	2.044491	-0.052973
C70	C	-0.816134	1.365829	-0.729050
C71	C	-0.482801	1.699162	-0.395717
C72	C	-0.149468	2.032496	-0.062384
C73	C	-0.845136	1.434293	-0.676156
C74	C	-0.511803	1.767626	-0.342823
C75	C	-0.178470	2.100960	-0.009490
C76	C	-0.940748	1.427618	-0.681393
C77	C	-0.607414	1.760952	-0.348059
C78	C	-0.274081	2.094285	-0.014726
C79	C	-0.720515	1.372502	-0.723815
C80	C	-0.387181	1.705835	-0.390482
C81	C	-0.053848	2.039168	-0.057148
C82	C	-0.110816	1.415628	-0.690650
C83	C	0.222518	1.748961	-0.357317
C84	C	0.555851	2.082295	-0.023983
C85	C	-0.016959	1.422301	-0.685564
C86	C	0.316374	1.755634	-0.352231
C87	C	0.649707	2.088967	-0.018898
C88	C	-0.361999	1.363766	-0.972500
C89	C	-0.028666	1.697099	-0.639167
C90	C	0.304667	2.030432	-0.305834
C91	C	-0.375183	1.348338	-1.087523
C92	C	-0.041849	1.681671	-0.754190
C93	C	0.291484	2.015005	-0.420856
C94	C	-0.307083	1.669915	-0.735431
C95	C	0.026250	2.003248	-0.402098
C96	C	0.359583	2.336581	-0.068765
C97	C	-0.296865	1.784949	-0.749429
C98	C	0.036469	2.118282	-0.416096
C99	C	0.369802	2.451616	-0.082762
C100	C	-0.324154	1.408007	-1.143677
C101	C	0.009180	1.741341	-0.810343
C102	C	0.342513	2.074674	-0.477010
C103	C	-0.337778	1.392063	-1.262558
C104	C	-0.004445	1.725397	-0.929225
C105	C	0.328889	2.058730	-0.595892
C106	C	-0.300181	1.436096	-0.433721
C107	C	0.033153	1.769429	-0.100387
C108	C	0.366486	2.102762	0.232946
C109	C	-0.286742	1.451741	-0.318710
C110	C	0.046591	1.785074	0.014623
C111	C	0.379925	2.118408	0.347957
H112	H	-0.377938	0.801046	-0.638523
H113	H	-0.044605	1.134379	-0.305190
H114	H	0.288728	1.467712	0.028143
O115	O	-0.782915	1.518576	-0.610961
O116	O	-0.449582	1.851909	-0.277628
O117	O	-0.116249	2.185243	0.055705
H118	H	-0.792088	1.510631	-0.528487
H119	H	-0.458755	1.843964	-0.195153
H120	H	-0.125422	2.177298	0.138180
H121	H	-0.391551	1.329164	-1.302489
H122	H	-0.058217	1.662497	-0.969156
H123	H	0.275116	1.995831	-0.635823
O124	O	-0.878360	1.281545	-0.794225
O125	O	-0.545026	1.614879	-0.460892
O126	O	-0.211693	1.948212	-0.127559
H127	H	-0.869210	1.289481	-0.876709
H128	H	-0.535876	1.622814	-0.543375
H129	H	-0.202543	1.956147	-0.210042
O130	O	-0.215507	1.535058	-1.265833
O131	O	0.117827	1.868392	-0.932500
O132	O	0.451160	2.201725	-0.599167
H133	H	-0.215987	1.534516	-1.180758
H134	H	0.117346	1.867850	-0.847425
H135	H	0.450680	2.201183	-0.514092
O136	O	-0.252925	1.491322	-1.090794
O137	O	0.080409	1.824655	-0.757460
O138	O	0.413742	2.157989	-0.424127
H139	H	-0.253407	1.490779	-1.005719
H140	H	0.079926	1.824112	-0.672386
H141	H	0.413259	2.157445	-0.339052
H142	H	-0.255243	0.824945	-0.806336
H143	H	0.078091	1.158278	-0.473002
H144	H	0.411424	1.491611	-0.139669
O145	O	-0.446412	1.265024	-1.140407
O146	O	-0.113078	1.598357	-0.807074
O147	O	0.220255	1.931691	-0.473740
H148	H	-0.490867	1.301729	-1.197616
H149	H	-0.157534	1.635063	-0.864283
H150	H	0.175800	1.968396	-0.530949
O151	O	-0.270612	1.012910	-0.785260
O152	O	0.062721	1.346243	-0.451927
O153	O	0.396055	1.679576	-0.118594
H154	H	-0.270953	1.097985	-0.784776
H155	H	0.062381	1.431318	-0.451442
H156	H	0.395714	1.764652	-0.118109
O157	O	-0.420317	0.963066	-0.580506
O158	O	-0.086984	1.296399	-0.247173
O159	O	0.246350	1.629732	0.086160
H160	H	-0.419984	0.877989	-0.580999
H161	H	-0.086651	1.211322	-0.247666
H162	H	0.246683	1.544655	0.085667
