data_functionalizedCrystal
_audit_creation_method	'MofGen! by Chris Wilmer'
_symmetry_space_group_name_H-M	'P1'
_symmetry_Int_Tables_number	1
_symmetry_cell_setting	triclinic
loop_
_symmetry_equiv_pos_as_xyz
  x,y,z
_cell_length_a	17.038272
_cell_length_b	16.109301
_cell_length_c	14.586319
_cell_angle_alpha	90.005214
_cell_angle_beta	89.998439
_cell_angle_gamma	92.713482
loop_
_atom_site_label
_atom_site_type_symbol
_atom_site_fract_x
_atom_site_fract_y
_atom_site_fract_z
O1	O	1.037364	-0.180538	-0.076209
O2	O	1.537364	0.319462	0.423791
O3	O	0.809734	-0.177672	-0.076219
O4	O	1.309734	0.322328	0.423781
O5	O	0.929802	-0.058518	-0.076204
O6	O	1.429802	0.441482	0.423796
O7	O	0.917296	-0.299692	-0.076223
O8	O	1.417296	0.200308	0.423777
O9	O	0.929794	-0.058516	0.076277
O10	O	1.429794	0.441484	0.576277
O11	O	0.809725	-0.177669	0.076262
O12	O	1.309725	0.322331	0.576262
O13	O	1.037356	-0.180536	0.076272
O14	O	1.537356	0.319464	0.576272
Cu15	Cu	0.923540	-0.179102	0.090190
Cu16	Cu	1.423540	0.320898	0.590190
Cu17	Cu	0.923550	-0.179105	-0.090137
Cu18	Cu	1.423550	0.320895	0.409863
O19	O	0.917287	-0.299690	0.076257
O20	O	1.417287	0.200310	0.576257
C21	C	0.780601	-0.175063	0.000021
C22	C	1.280601	0.324937	0.500021
C23	C	0.693808	-0.167284	0.000017
C24	C	1.193808	0.332716	0.500017
C25	C	1.066488	-0.183145	0.000031
C26	C	1.566488	0.316855	0.500031
C27	C	1.153281	-0.190924	0.000028
C28	C	1.653281	0.309076	0.500028
C29	C	0.929291	-0.027506	0.000037
C30	C	1.429291	0.472494	0.500037
C31	C	0.927773	0.064897	0.000038
C32	C	1.427773	0.564897	0.500038
C33	C	1.203396	-0.119503	0.000031
C34	C	1.703396	0.380497	0.500031
C35	C	1.284946	-0.126817	0.000033
C36	C	1.784946	0.373183	0.500033
C37	C	1.316381	-0.205553	0.000027
C38	C	1.816381	0.294447	0.500027
C39	C	1.266259	-0.276979	0.000027
C40	C	1.766259	0.223021	0.500027
C41	C	1.184710	-0.269664	0.000031
C42	C	1.684710	0.230336	0.500031
C43	C	1.562138	-0.231395	0.000021
C44	C	2.062138	0.268605	0.500021
C45	C	1.643694	-0.238705	0.000015
C46	C	2.143694	0.261295	0.500015
C47	C	1.662375	-0.088542	0.000023
C48	C	2.162375	0.411458	0.500023
C49	C	1.580824	-0.081234	0.000021
C50	C	2.080824	0.418766	0.500021
C51	C	1.530710	-0.152660	0.000026
C52	C	2.030710	0.347340	0.500026
C53	C	1.399738	-0.213031	0.000027
C54	C	1.899738	0.286969	0.500027
C55	C	1.447354	-0.145181	0.000032
C56	C	1.947354	0.354819	0.500032
C57	C	0.917798	-0.330702	0.000014
C58	C	1.417798	0.169298	0.500014
C59	C	0.919317	-0.423105	0.000007
C60	C	1.419317	0.076895	0.500007
N61	N	0.923539	-0.179100	0.217021
N62	N	1.423539	0.320900	0.717021
C63	C	0.995487	0.282360	0.000026
C64	C	1.495487	0.782360	0.500026
C65	C	0.994054	0.369183	0.000019
C66	C	1.494054	0.869183	0.500019
C67	C	0.851597	0.359425	0.000016
C68	C	1.351597	0.859425	0.500016
C69	C	0.853031	0.272605	0.000017
C70	C	1.353031	0.772605	0.500017
C71	C	0.924978	0.234075	0.000027
C72	C	1.424978	0.734075	0.500027
C73	C	0.922111	0.407718	0.000018
C74	C	1.422111	0.907718	0.500018
C75	C	0.920557	0.501854	0.000010
C76	C	1.420557	1.001854	0.500010
C77	C	0.926533	0.139932	0.000033
C78	C	1.426533	0.639932	0.500033
N79	N	0.923557	-0.179101	-0.216968
N80	N	1.423557	0.320899	0.283032
C81	C	0.976723	-0.126359	0.452034
C82	C	1.476723	0.373641	0.952034
C83	C	0.976725	-0.126357	0.548015
C84	C	1.476725	0.373643	1.048015
C85	C	0.870368	-0.231845	0.548012
C86	C	1.370368	0.268155	1.048012
C87	C	0.870362	-0.231842	0.452033
C88	C	1.370362	0.268158	0.952033
C89	C	0.923544	-0.179100	0.404046
C90	C	1.423544	0.320900	0.904046
C91	C	0.923552	-0.179101	0.596007
C92	C	1.423552	0.320899	1.096007
C93	C	0.923554	-0.179100	0.700074
C94	C	1.423554	0.320900	1.200074
C95	C	0.923541	-0.179100	0.299972
C96	C	1.423541	0.320900	0.799972
H97	H	1.177809	-0.055388	0.000030
H98	H	1.677809	0.444612	0.500030
Br99	Br	0.757333	0.207068	0.000006
Br100	Br	1.257333	0.707068	0.500006
Br101	Br	0.753958	0.411722	0.000000
Br102	Br	1.253958	0.911722	0.500000
Br103	Br	1.442405	-0.319884	0.000009
Br104	Br	1.942405	0.180116	0.500009
H105	H	1.291859	-0.341087	0.000027
H106	H	1.791859	0.158913	0.500027
Br107	Br	0.798196	-0.303421	0.613140
Br108	Br	1.298196	0.196579	1.113140
Br109	Br	1.048896	-0.054780	0.386913
Br110	Br	1.548896	0.445220	0.886913
H111	H	0.827054	-0.274790	0.412958
H112	H	1.327054	0.225210	0.912958
H113	H	1.051470	0.408493	0.000016
H114	H	1.551470	0.908493	0.500016
Br115	Br	1.048895	-0.054773	0.613141
Br116	Br	1.548895	0.445227	1.113141
H117	H	1.521345	-0.289556	0.000020
H118	H	2.021345	0.210444	0.500020
H119	H	1.325747	-0.068658	0.000039
H120	H	1.825747	0.431342	0.500039
H121	H	1.555237	-0.017120	0.000026
H122	H	2.055237	0.482880	0.500026
H123	H	1.669283	-0.302824	0.000022
H124	H	2.169283	0.197176	0.500022
Br125	Br	1.730390	0.008387	0.000021
Br126	Br	2.230390	0.508387	0.500021
Br127	Br	1.404692	-0.038329	0.000049
Br128	Br	1.904692	0.461671	0.500049
Br129	Br	1.093130	0.230072	0.000040
Br130	Br	1.593130	0.730072	0.500040
Br131	Br	1.116696	-0.366596	0.000038
Br132	Br	1.616696	0.133404	0.500038
