data_functionalizedCrystal
_audit_creation_method	'MofGen! by Chris Wilmer'
_symmetry_space_group_name_H-M	'P1'
_symmetry_Int_Tables_number	1
_symmetry_cell_setting	triclinic
loop_
_symmetry_equiv_pos_as_xyz
  x,y,z
_cell_length_a	18.050591
_cell_length_b	19.120786
_cell_length_c	18.050583
_cell_angle_alpha	87.525261
_cell_angle_beta	89.975765
_cell_angle_gamma	92.460873
loop_
_atom_site_label
_atom_site_type_symbol
_atom_site_fract_x
_atom_site_fract_y
_atom_site_fract_z
Zn1	Zn	1.122716	-0.279681	-0.407401
Zn2	Zn	1.372716	-0.029681	-0.157401
Zn3	Zn	1.622716	0.220319	0.092599
Zn4	Zn	1.872716	0.470319	0.342599
Zn5	Zn	1.117327	-0.397152	-0.277906
Zn6	Zn	1.367327	-0.147152	-0.027906
Zn7	Zn	1.617327	0.102848	0.222094
Zn8	Zn	1.867327	0.352848	0.472094
Zn9	Zn	0.998527	-0.279704	-0.283211
Zn10	Zn	1.248527	-0.029704	-0.033211
Zn11	Zn	1.498527	0.220296	0.216789
Zn12	Zn	1.748527	0.470296	0.466789
Zn13	Zn	0.993193	-0.397095	-0.402044
Zn14	Zn	1.243193	-0.147095	-0.152044
Zn15	Zn	1.493193	0.102905	0.097956
Zn16	Zn	1.743193	0.352905	0.347956
O17	O	1.057941	-0.338408	-0.342641
O18	O	1.307941	-0.088408	-0.092641
O19	O	1.557941	0.161592	0.157359
O20	O	1.807941	0.411592	0.407359
O21	O	1.225925	-0.295278	-0.390245
O22	O	1.475925	-0.045278	-0.140245
O23	O	1.725925	0.204722	0.109755
O24	O	1.975925	0.454722	0.359755
O25	O	1.101545	-0.381606	-0.174684
O26	O	1.351545	-0.131606	0.075316
O27	O	1.601545	0.118394	0.325316
O28	O	1.851545	0.368394	0.575316
O29	O	1.019488	-0.181411	-0.304147
O30	O	1.269488	0.068589	-0.054147
O31	O	1.519488	0.318589	0.195853
O32	O	1.769488	0.568589	0.445853
O33	O	1.221966	-0.381584	-0.295106
O34	O	1.471966	-0.131584	-0.045106
O35	O	1.721966	0.118416	0.204894
O36	O	1.971966	0.368416	0.454894
O37	O	1.110729	-0.181394	-0.395389
O38	O	1.360729	0.068606	-0.145389
O39	O	1.610729	0.318606	0.104611
O40	O	1.860729	0.568606	0.354611
O41	O	1.014263	-0.295318	-0.178581
O42	O	1.264263	-0.045318	0.071419
O43	O	1.514263	0.204682	0.321419
O44	O	1.764263	0.454682	0.571419
O45	O	0.893895	-0.295262	-0.298953
O46	O	1.143895	-0.045262	-0.048953
O47	O	1.393895	0.204738	0.201047
O48	O	1.643895	0.454738	0.451047
O49	O	1.010398	-0.381486	-0.506681
O50	O	1.260398	-0.131486	-0.256681
O51	O	1.510398	0.118514	-0.006681
O52	O	1.760398	0.368514	0.243319
O53	O	0.889977	-0.381508	-0.386259
O54	O	1.139977	-0.131508	-0.136259
O55	O	1.389977	0.118492	0.113741
O56	O	1.639977	0.368492	0.363741
O57	O	1.105557	-0.295223	-0.510617
O58	O	1.355557	-0.045223	-0.260617
O59	O	1.605557	0.204777	-0.010617
O60	O	1.855557	0.454777	0.239383
O61	O	1.096372	-0.495435	-0.289912
O62	O	1.346372	-0.245435	-0.039912
O63	O	1.596372	0.004565	0.210088
O64	O	1.846372	0.254565	0.460088
O65	O	1.005172	-0.495393	-0.381115
O66	O	1.255172	-0.245393	-0.131115
O67	O	1.505172	0.004607	0.118885
O68	O	1.755172	0.254607	0.368885
C69	C	0.864990	-0.338382	-0.342601
C70	C	1.114990	-0.088382	-0.092601
C71	C	1.364990	0.161618	0.157399
C72	C	1.614990	0.411618	0.407399
C73	C	0.782444	-0.338388	-0.342601
C74	C	1.032444	-0.088388	-0.092601
C75	C	1.282444	0.161612	0.157399
C76	C	1.532444	0.411612	0.407399
C77	C	0.585105	-0.291433	-0.295240
C78	C	0.835105	-0.041433	-0.045240
C79	C	1.085105	0.208567	0.204760
C80	C	1.335105	0.458567	0.454760
C81	C	0.532798	-0.355499	-0.274071
C82	C	0.782798	-0.105499	-0.024071
C83	C	1.032798	0.144501	0.225929
C84	C	1.282798	0.394501	0.475929
C85	C	0.631312	-0.338409	-0.342633
C86	C	0.881312	-0.088409	-0.092633
C87	C	1.131312	0.161591	0.157367
C88	C	1.381312	0.411591	0.407367
C89	C	0.536537	-0.274365	-0.363800
C90	C	0.786537	-0.024365	-0.113800
C91	C	1.036537	0.225635	0.136200
C92	C	1.286537	0.475635	0.386200
C93	C	0.485327	-0.338424	-0.342664
C94	C	0.735327	-0.088424	-0.092664
C95	C	0.985327	0.161576	0.157336
C96	C	1.235327	0.411576	0.407336
C97	C	0.580091	-0.402509	-0.321427
C98	C	0.830091	-0.152509	-0.071427
C99	C	1.080091	0.097491	0.178573
C100	C	1.330091	0.347491	0.428573
C101	C	0.583836	-0.321332	-0.411189
C102	C	0.833836	-0.071332	-0.161189
C103	C	1.083836	0.178668	0.088811
C104	C	1.333836	0.428668	0.338811
C105	C	0.531549	-0.385442	-0.390044
C106	C	0.781549	-0.135442	-0.140044
C107	C	1.031549	0.114558	0.109956
C108	C	1.281549	0.364558	0.359956
C109	C	0.715411	-0.338400	-0.342614
C110	C	0.965411	-0.088400	-0.092614
C111	C	1.215411	0.161600	0.157386
C112	C	1.465411	0.411600	0.407386
C113	C	0.401229	-0.338441	-0.342683
C114	C	0.651229	-0.088441	-0.092683
C115	C	0.901229	0.161559	0.157317
C116	C	1.151229	0.411559	0.407317
C117	C	1.049629	-0.520899	-0.334373
C118	C	1.299629	-0.270899	-0.084373
C119	C	1.549629	-0.020899	0.165627
C120	C	1.799629	0.229101	0.415627
C121	C	1.046141	-0.598970	-0.330860
C122	C	1.296141	-0.348970	-0.080860
C123	C	1.546141	-0.098970	0.169140
C124	C	1.796141	0.151030	0.419140
C125	C	1.091971	-0.635579	-0.376754
C126	C	1.341971	-0.385579	-0.126754
C127	C	1.591971	-0.135579	0.123246
C128	C	1.841971	0.114421	0.373246
C129	C	1.088691	-0.708934	-0.373455
C130	C	1.338691	-0.458934	-0.123455
C131	C	1.588691	-0.208934	0.126545
C132	C	1.838691	0.041066	0.376545
C133	C	1.039584	-0.745680	-0.324258
C134	C	1.289584	-0.495680	-0.074258
C135	C	1.539584	-0.245680	0.175742
C136	C	1.789584	0.004320	0.425742
C137	C	0.993748	-0.709066	-0.278363
C138	C	1.243748	-0.459066	-0.028363
C139	C	1.493748	-0.209066	0.221637
C140	C	1.743748	0.040934	0.471637
C141	C	0.997025	-0.635712	-0.281666
C142	C	1.247025	-0.385712	-0.031666
C143	C	1.497025	-0.135712	0.218334
C144	C	1.747025	0.114288	0.468334
C145	C	1.027311	-0.967166	-0.311910
C146	C	1.277311	-0.717166	-0.061910
C147	C	1.527311	-0.467166	0.188090
C148	C	1.777311	-0.217166	0.438090
C149	C	1.024039	-1.040525	-0.308608
C150	C	1.274039	-0.790525	-0.058608
C151	C	1.524039	-0.540525	0.191392
C152	C	1.774039	-0.290525	0.441392
C153	C	1.118981	-1.040388	-0.403701
C154	C	1.368981	-0.790388	-0.153701
C155	C	1.618981	-0.540388	0.096299
C156	C	1.868981	-0.290388	0.346299
C157	C	1.122257	-0.967032	-0.406997
C158	C	1.372257	-0.717032	-0.156997
C159	C	1.622257	-0.467032	0.093003
C160	C	1.872257	-0.217032	0.343003
C161	C	1.076419	-0.930425	-0.361105
C162	C	1.326419	-0.680425	-0.111105
C163	C	1.576419	-0.430425	0.138895
C164	C	1.826419	-0.180425	0.388895
C165	C	1.036231	-0.820661	-0.320883
C166	C	1.286231	-0.570661	-0.070883
C167	C	1.536231	-0.320661	0.179117
C168	C	1.786231	-0.070661	0.429117
C169	C	1.079768	-0.855445	-0.364484
C170	C	1.329768	-0.605445	-0.114484
C171	C	1.579768	-0.355445	0.135516
C172	C	1.829768	-0.105445	0.385516
C173	C	1.251645	-0.338435	-0.342681
C174	C	1.501645	-0.088435	-0.092681
C175	C	1.751645	0.161565	0.157319
C176	C	2.001645	0.411565	0.407319
C177	C	1.334190	-0.338446	-0.342699
C178	C	1.584190	-0.088446	-0.092699
C179	C	1.834190	0.161554	0.157301
C180	C	2.084190	0.411554	0.407301
C181	C	1.057984	-0.338345	-0.536349
C182	C	1.307984	-0.088345	-0.286349
C183	C	1.557984	0.161655	-0.036349
C184	C	1.807984	0.411655	0.213651
C185	C	1.058002	-0.338319	-0.618896
C186	C	1.308002	-0.088319	-0.368896
C187	C	1.558002	0.161681	-0.118896
C188	C	1.808002	0.411681	0.131104
C189	C	1.066305	-0.155204	-0.350958
C190	C	1.316305	0.094796	-0.100958
C191	C	1.566305	0.344796	0.149042
C192	C	1.816305	0.594796	0.399042
C193	C	1.069869	-0.077134	-0.354502
C194	C	1.319869	0.172866	-0.104502
C195	C	1.569869	0.422866	0.145498
C196	C	1.819869	0.672866	0.395498
C197	C	1.109799	-0.291361	-0.869865
C198	C	1.359799	-0.041361	-0.619865
C199	C	1.609799	0.208639	-0.369865
C200	C	1.859799	0.458639	-0.119865
C201	C	1.125033	-0.355452	-0.817558
C202	C	1.375033	-0.105452	-0.567558
C203	C	1.625033	0.144548	-0.317558
C204	C	1.875033	0.394548	-0.067558
C205	C	1.058052	-0.338274	-0.916019
C206	C	1.308052	-0.088274	-0.666019
C207	C	1.558052	0.161726	-0.416019
C208	C	1.808052	0.411726	-0.166019
C209	C	1.042828	-0.274209	-0.821243
C210	C	1.292828	-0.024209	-0.571243
C211	C	1.542828	0.225791	-0.321243
C212	C	1.792828	0.475791	-0.071243
C213	C	1.058029	-0.338293	-0.770033
C214	C	1.308029	-0.088293	-0.520033
C215	C	1.558029	0.161707	-0.270033
C216	C	1.808029	0.411707	-0.020033
C217	C	1.073320	-0.402398	-0.864798
C218	C	1.323320	-0.152398	-0.614798
C219	C	1.573320	0.097602	-0.364798
C220	C	1.823320	0.347602	-0.114798
C221	C	0.991086	-0.321112	-0.868489
C222	C	1.241086	-0.071112	-0.618489
C223	C	1.491086	0.178888	-0.368489
C224	C	1.741086	0.428888	-0.118489
C225	C	1.006292	-0.385247	-0.816203
C226	C	1.256292	-0.135247	-0.566203
C227	C	1.506292	0.114753	-0.316203
C228	C	1.756292	0.364753	-0.066203
C229	C	1.058067	-0.338262	-1.000118
C230	C	1.308067	-0.088262	-0.750118
C231	C	1.558067	0.161738	-0.500118
C232	C	1.808067	0.411738	-0.250118
C233	C	1.058014	-0.338311	-0.685936
C234	C	1.308014	-0.088311	-0.435936
C235	C	1.558014	0.161689	-0.185936
C236	C	1.808014	0.411689	0.064064
C237	C	1.057943	-0.338420	-0.149688
C238	C	1.307943	-0.088420	0.100312
C239	C	1.557943	0.161580	0.350312
C240	C	1.807943	0.411580	0.600312
C241	C	1.058077	-0.338249	-0.067151
C242	C	1.308077	-0.088249	0.182849
C243	C	1.558077	0.161751	0.432849
C244	C	1.808077	0.411751	0.682849
H245	H	0.508238	-0.425221	-0.430133
H246	H	0.758238	-0.175221	-0.180133
H247	H	1.008238	0.074779	0.069867
H248	H	1.258238	0.324779	0.319867
Cl249	Cl	1.177418	-0.230174	-0.906134
Cl250	Cl	1.427418	0.019826	-0.656134
Cl251	Cl	1.677418	0.269826	-0.406134
Cl252	Cl	1.927418	0.519826	-0.156134
H253	H	1.086270	-0.456596	-0.883936
H254	H	1.336270	-0.206596	-0.633936
H255	H	1.586270	0.043404	-0.383936
H256	H	1.836270	0.293404	-0.133936
Cl257	Cl	1.176599	-1.086412	-0.461394
Cl258	Cl	1.426599	-0.836412	-0.211394
Cl259	Cl	1.676599	-0.586412	0.038606
Cl260	Cl	1.926599	-0.336412	0.288606
Cl261	Cl	1.153713	-0.589391	-0.438600
Cl262	Cl	1.403713	-0.339391	-0.188600
Cl263	Cl	1.653713	-0.089391	0.061400
Cl264	Cl	1.903713	0.160609	0.311400
Cl265	Cl	1.212452	-0.377884	-0.783055
Cl266	Cl	1.462452	-0.127884	-0.533055
Cl267	Cl	1.712452	0.122116	-0.283055
Cl268	Cl	1.962452	0.372116	-0.033055
Cl269	Cl	0.939406	-0.589690	-0.223970
Cl270	Cl	1.189406	-0.339690	0.026030
Cl271	Cl	1.439406	-0.089690	0.276030
Cl272	Cl	1.689406	0.160310	0.526030
Cl273	Cl	0.498223	-0.377818	-0.184581
Cl274	Cl	0.748223	-0.127818	0.065419
Cl275	Cl	0.998223	0.122182	0.315419
Cl276	Cl	1.248223	0.372182	0.565419
H277	H	0.996250	-0.850588	-0.280826
H278	H	1.246250	-0.600588	-0.030826
H279	H	1.496250	-0.350588	0.219174
H280	H	1.746250	-0.100588	0.469174
Cl281	Cl	0.609631	-0.486165	-0.293702
Cl282	Cl	0.859631	-0.236165	-0.043702
Cl283	Cl	1.109631	0.013835	0.206298
Cl284	Cl	1.359631	0.263835	0.456298
H285	H	1.126017	-0.738737	-0.410820
H286	H	1.376017	-0.488737	-0.160820
H287	H	1.626017	-0.238737	0.089180
H288	H	1.876017	0.011263	0.339180
Cl289	Cl	0.938709	-0.446578	-0.780141
Cl290	Cl	1.188709	-0.196578	-0.530141
Cl291	Cl	1.438709	0.053422	-0.280141
Cl292	Cl	1.688709	0.303422	-0.030141
Cl293	Cl	0.618437	-0.298985	-0.500658
Cl294	Cl	0.868437	-0.048985	-0.250658
Cl295	Cl	1.118437	0.201015	-0.000658
Cl296	Cl	1.368437	0.451015	0.249342
H297	H	1.029961	-0.220023	-0.802012
H298	H	1.279961	0.029977	-0.552012
H299	H	1.529961	0.279977	-0.302012
H300	H	1.779961	0.529977	-0.052012
Cl301	Cl	0.962302	-1.086719	-0.246754
Cl302	Cl	1.212302	-0.836719	0.003246
Cl303	Cl	1.462302	-0.586719	0.253246
Cl304	Cl	1.712302	-0.336719	0.503246
Cl305	Cl	0.506845	-0.190736	-0.391419
Cl306	Cl	0.756845	0.059264	-0.141419
Cl307	Cl	1.006845	0.309264	0.108581
Cl308	Cl	1.256845	0.559264	0.358581
H309	H	0.608548	-0.251749	-0.255114
H310	H	0.858548	-0.001749	-0.005114
H311	H	1.108548	0.248251	0.244886
H312	H	1.358548	0.498251	0.494886
H313	H	1.162244	-0.937115	-0.447057
H314	H	1.412244	-0.687115	-0.197057
H315	H	1.662244	-0.437115	0.052943
H316	H	1.912244	-0.187115	0.302943
Cl317	Cl	0.903693	-0.298652	-0.903024
Cl318	Cl	1.153693	-0.048652	-0.653024
Cl319	Cl	1.403693	0.201348	-0.403024
Cl320	Cl	1.653693	0.451348	-0.153024
H321	H	0.953761	-0.738991	-0.238309
H322	H	1.203761	-0.488991	0.011691
H323	H	1.453761	-0.238991	0.261691
H324	H	1.703761	0.011009	0.511691
Cl325	Cl	0.969679	-0.921155	-0.254223
Cl326	Cl	1.219679	-0.671155	-0.004223
Cl327	Cl	1.469679	-0.421155	0.245777
Cl328	Cl	1.719679	-0.171155	0.495777
Cl329	Cl	1.141497	-0.809249	-0.426332
Cl330	Cl	1.391497	-0.559249	-0.176332
Cl331	Cl	1.641497	-0.309249	0.073668
Cl332	Cl	1.891497	-0.059249	0.323668
