data_functionalizedCrystal
_audit_creation_method	'MofGen! by Chris Wilmer'
_symmetry_space_group_name_H-M	'P1'
_symmetry_Int_Tables_number	1
_symmetry_cell_setting	triclinic
loop_
_symmetry_equiv_pos_as_xyz
  x,y,z
_cell_length_a	15.944493
_cell_length_b	23.532407
_cell_length_c	14.421503
_cell_angle_alpha	89.999621
_cell_angle_beta	89.992936
_cell_angle_gamma	83.161861
loop_
_atom_site_label
_atom_site_type_symbol
_atom_site_fract_x
_atom_site_fract_y
_atom_site_fract_z
O1	O	1.113942	0.073285	-0.077109
O2	O	0.869309	0.082375	-0.077115
O3	O	0.999003	-0.005074	-0.077095
O4	O	0.984249	0.160734	-0.077129
O5	O	0.998981	-0.005061	0.077129
O6	O	0.869288	0.082388	0.077109
O7	O	1.113921	0.073298	0.077114
Cu8	Cu	0.991602	0.077844	0.091193
Cu9	Cu	0.991628	0.077829	-0.091194
O10	O	0.984227	0.160747	0.077094
C11	C	0.838007	0.082010	-0.000004
C12	C	0.744768	0.080896	-0.000005
C13	C	0.998616	-0.026285	0.000019
C14	C	0.997486	-0.089506	0.000026
C15	C	0.508574	0.132371	-0.000016
C16	C	0.458239	0.104619	0.076034
C17	C	0.574064	0.078832	-0.000003
C18	C	0.458265	0.104593	-0.076019
C19	C	0.409171	0.076843	-0.000005
C20	C	0.524957	0.051095	0.076110
C21	C	0.524986	0.051077	-0.076011
C22	C	0.474684	0.023286	0.000058
C23	C	0.669054	0.079980	-0.000001
C24	C	0.314184	0.075691	0.000000
C25	C	1.067151	-0.488350	-0.000023
C26	C	1.066102	-0.547754	-0.000030
O27	O	1.130682	-0.584257	-0.000063
N28	N	0.988999	-0.570668	-0.000031
C29	C	0.912941	-0.534174	-0.000034
O30	O	0.847263	-0.559119	-0.000037
C31	C	0.913991	-0.474771	-0.000034
C32	C	0.991099	-0.451861	-0.000023
C33	C	1.144253	-0.465439	-0.000013
C34	C	1.145302	-0.406038	-0.000004
C35	C	1.069249	-0.369549	-0.000005
C36	C	0.992148	-0.392460	-0.000015
C37	C	0.837934	-0.438278	-0.000044
C38	C	0.838991	-0.378872	-0.000044
C39	C	0.916098	-0.355962	-0.000034
C40	C	0.917144	-0.296571	-0.000007
N41	N	0.994247	-0.273657	-0.000005
C42	C	1.070300	-0.310146	-0.000005
C43	C	0.910741	-0.658925	-0.000037
C44	C	0.909690	-0.718327	-0.000031
C45	C	1.062852	-0.731902	-0.000028
C46	C	1.063902	-0.672499	-0.000027
C47	C	0.987844	-0.636011	-0.000036
C48	C	1.072497	-0.185401	0.000015
C49	C	1.073539	-0.125996	0.000027
C50	C	0.920378	-0.112425	0.000019
C51	C	0.919335	-0.171826	0.000012
C52	C	0.995402	-0.208313	0.000006
O53	O	0.852598	-0.260033	0.000022
O54	O	1.135967	-0.285193	-0.000014
C55	C	1.145223	0.073663	0.000001
C56	C	1.238462	0.074777	-0.000003
C57	C	0.984614	0.181958	-0.000022
C58	C	0.985743	0.245179	-0.000035
N59	N	0.991590	0.077855	0.219475
N60	N	0.991646	0.077814	-0.219475
C61	C	0.931610	0.118273	0.469119
C62	C	1.007419	0.129319	0.530921
C63	C	0.991611	0.077841	0.408636
C64	C	0.915821	0.066808	0.530928
C65	C	0.991624	0.077829	0.591357
C66	C	1.067458	0.088912	0.469077
C67	C	0.975811	0.026380	0.469079
C68	C	1.051675	0.037404	0.530853
C69	C	0.991602	0.077849	0.303375
C70	C	0.991641	0.077820	0.696616
H71	H	0.523809	0.178488	0.000045
H72	H	0.962411	-0.017121	0.441894
Cl73	Cl	0.451396	-0.047967	0.000140
H74	H	1.208091	-0.387391	0.000000
Cl75	Cl	0.816859	0.052408	0.572877
Cl76	Cl	0.413251	0.139534	0.175282
H77	H	1.102477	0.003205	0.557788
H78	H	1.131571	0.098291	0.442023
H79	H	0.846902	-0.736975	-0.000023
Cl80	Cl	0.569739	0.016217	0.175477
Cl81	Cl	0.570000	0.016193	-0.175266
H82	H	0.429145	0.127209	-0.140304
H83	H	1.136332	-0.107346	0.000038
H84	H	1.134437	-0.215103	0.000006
Cl85	Cl	0.740992	-0.467065	-0.000064
H86	H	1.206187	-0.495143	-0.000016
H87	H	1.126690	-0.653850	-0.000020
H88	H	1.124778	-0.761623	-0.000031
Cl89	Cl	0.853350	0.171102	0.427263
H90	H	0.848802	-0.629218	-0.000036
Cl91	Cl	0.743369	-0.333004	-0.000056
H92	H	0.856548	-0.190480	0.000029
H93	H	0.858458	-0.082705	0.000022
H94	H	1.020795	0.172833	0.558084
