data_functionalizedCrystal
_audit_creation_method	'MofGen! by Chris Wilmer'
_symmetry_space_group_name_H-M	'P1'
_symmetry_Int_Tables_number	1
_symmetry_cell_setting	triclinic
loop_
_symmetry_equiv_pos_as_xyz
  x,y,z
_cell_length_a	14.560432
_cell_length_b	20.875641
_cell_length_c	20.875658
_cell_angle_alpha	55.998508
_cell_angle_beta	87.030617
_cell_angle_gamma	62.441128
loop_
_atom_site_label
_atom_site_type_symbol
_atom_site_fract_x
_atom_site_fract_y
_atom_site_fract_z
Zr1	Zr	0.929814	0.702124	-0.109937
O2	O	0.798174	0.835939	-0.217267
O3	O	0.965039	0.568307	-0.073630
O4	O	0.982378	0.702123	-0.212358
O5	O	0.772992	0.702124	0.027019
O6	O	1.133516	0.702126	-0.212358
O7	O	0.780835	0.702122	-0.078539
O8	O	1.102499	0.462753	0.035800
O9	O	0.804009	0.941497	-0.221140
O10	O	1.099051	0.623351	-0.062259
O11	O	0.980406	0.623350	0.016518
O12	O	1.000821	0.780902	-0.146816
O13	O	0.882175	0.780901	-0.068039
Zr14	Zr	1.158353	0.702132	0.058415
Zr15	Zr	1.170861	0.702129	-0.109938
Zr16	Zr	0.917305	0.702127	0.058416
Zr17	Zr	0.939119	0.870478	-0.116114
Zr18	Zr	1.149047	0.533778	0.064592
O19	O	1.123128	0.835949	0.022108
O20	O	1.140913	0.835945	-0.217268
O21	O	0.780389	0.835943	0.022109
O22	O	1.289992	0.568317	0.165745
O23	O	1.307777	0.568313	-0.073631
O24	O	0.947254	0.568311	0.165746
O25	O	1.315174	0.702132	-0.078541
O26	O	1.105788	0.702132	0.160836
O27	O	0.954651	0.702130	0.160837
O28	O	1.307331	0.702134	0.027018
O29	O	0.995610	0.941501	-0.221140
O30	O	1.092557	0.462755	0.169619
O31	O	1.284157	0.462758	0.169618
O32	O	1.294099	0.462756	0.035800
O33	O	0.794067	0.941500	-0.087322
O34	O	0.985667	0.941503	-0.087322
O35	O	1.087346	0.623354	0.095294
O36	O	1.205991	0.623354	0.016517
O37	O	1.107760	0.780906	-0.068040
O38	O	0.989115	0.780905	0.010737
C39	C	1.032443	0.491543	-0.018035
C40	C	1.028492	0.420072	-0.015413
C41	C	0.742570	0.702122	-0.025760
C42	C	0.640239	0.702121	-0.025760
C43	C	1.088565	0.386496	-0.055302
C44	C	1.084855	0.319337	-0.052831
C45	C	1.021066	0.285760	-0.010474
C46	C	0.960991	0.319340	0.029420
C47	C	0.964708	0.386493	0.026953
C48	C	1.003316	0.084916	0.001318
C49	C	0.999601	0.017760	0.003780
C50	C	1.123467	0.017761	-0.078469
C51	C	1.127173	0.084919	-0.080936
C52	C	1.067103	0.118489	-0.041039
N53	N	1.017270	0.217115	-0.007949
N54	N	1.070905	0.187129	-0.043560
C55	C	0.742776	0.537636	0.062511
C56	C	0.745968	0.455396	0.106642
C57	C	0.649816	0.455400	0.106640
C58	C	0.550464	0.537652	0.062503
C59	C	0.547272	0.619892	0.018372
C60	C	0.643432	0.619879	0.018377
C61	C	0.444735	0.784375	-0.069893
C62	C	0.540887	0.784373	-0.069897
C63	C	0.345383	0.866627	-0.114030
C64	C	0.342190	0.948869	-0.158167
C65	C	0.438350	0.948862	-0.158163
C66	C	0.537695	0.866613	-0.114028
C67	C	1.345597	0.702133	-0.025762
C68	C	1.447928	0.702135	-0.025762
C69	C	1.059729	0.702124	-0.236345
C70	C	1.065039	0.702123	-0.307815
C71	C	1.055723	0.912713	-0.033487
C72	C	1.059674	0.984184	-0.036109
C73	C	0.984274	0.702120	-0.341394
C74	C	0.989266	0.702127	-0.408552
C75	C	1.075029	0.702130	-0.442127
C76	C	1.155798	0.702136	-0.408545
C77	C	1.150801	0.702136	-0.341391
C78	C	1.098899	0.702138	-0.642971
C79	C	1.103892	0.702136	-0.710128
C80	C	0.937359	0.702128	-0.710131
C81	C	0.932372	0.702122	-0.642974
C82	C	1.013139	0.702133	-0.609400
N83	N	1.080136	0.702135	-0.510772
N84	N	1.008027	0.702135	-0.540760
C85	C	1.028437	0.702131	0.184823
C86	C	1.023127	0.702133	0.256293
C87	C	1.333956	0.491548	-0.018036
C88	C	1.432337	0.420080	-0.015414
C89	C	1.016797	0.491546	0.192549
C90	C	1.007537	0.420077	0.266642
C91	C	1.318311	0.491552	0.192548
C92	C	1.411381	0.420084	0.266641
C93	C	0.769856	0.912704	-0.244070
C94	C	0.676785	0.984172	-0.318163
C95	C	0.754210	0.912707	-0.033486
C96	C	0.655829	0.984176	-0.036108
C97	C	1.071369	0.912709	-0.244071
C98	C	1.080630	0.984179	-0.318163
C99	C	1.422716	0.386515	-0.055310
C100	C	1.515148	0.319372	-0.052863
C101	C	1.617198	0.285790	-0.010514
C102	C	1.626816	0.319361	0.029384
C103	C	1.534386	0.386507	0.026931
C104	C	1.059008	0.386516	0.342564
C105	C	1.050303	0.319372	0.412188
C106	C	0.990131	0.285786	0.405888
C107	C	0.938653	0.319354	0.329957
C108	C	0.947353	0.386501	0.260335
C109	C	1.517029	0.386523	0.260314
C110	C	1.604489	0.319381	0.329925
C111	C	1.586298	0.285797	0.405862
C112	C	1.480638	0.319365	0.412186
C113	C	1.393181	0.386510	0.342576
C114	C	0.571137	1.017741	-0.311837
C115	C	0.483679	1.084904	-0.381448
C116	C	0.501870	1.118491	-0.457385
C117	C	0.607529	1.084919	-0.463709
C118	C	0.694986	1.017762	-0.394098
C119	C	0.665451	1.017748	0.003781
C120	C	0.573022	1.084909	0.001314
C121	C	0.470972	1.118494	-0.041037
C122	C	0.461353	1.084920	-0.080931
C123	C	0.553782	1.017764	-0.078469
C124	C	1.140810	1.017744	-0.311837
C125	C	1.149532	1.084888	-0.381448
C126	C	1.098067	1.118471	-0.457385
C127	C	1.037885	1.084899	-0.463709
C128	C	1.029170	1.017752	-0.394099
H129	H	1.140504	0.413833	-0.089797
H130	H	1.690514	0.292056	0.324761
C131	C	0.369307	1.192364	-0.043734
N132	N	0.292737	1.248000	-0.045759
H133	H	0.980160	0.990431	-0.399261
H134	H	0.378252	1.112275	-0.115413
C135	C	1.198226	0.702164	-0.747072
N136	N	1.269271	0.702192	-0.774902
C137	C	1.544986	0.423412	0.070833
N138	N	1.552978	0.451204	0.103903
H139	H	0.983056	0.231111	0.462585
C140	C	0.929384	-0.019141	0.050345
N141	N	0.876483	-0.046923	0.085402
C142	C	1.682515	0.211928	0.482428
N143	N	1.754990	0.156286	0.540095
C144	C	0.543179	0.980833	-0.122343
N145	N	0.535184	0.953018	-0.155389
H146	H	0.580875	1.112234	0.033804
H147	H	1.465842	0.292011	0.474023
H148	H	0.909059	0.291992	0.063911
C149	C	0.811198	0.980832	-0.401070
N150	N	0.898728	0.953018	-0.406328
H151	H	1.172375	-0.009579	-0.110951
C152	C	1.276968	0.423419	0.349549
N153	N	1.189437	0.451216	0.354807
C154	C	1.107663	1.192337	-0.533951
N155	N	1.114892	1.247975	-0.591618
H156	H	1.182720	0.990411	-0.250013
H157	H	1.709918	0.292008	0.063863
H158	H	0.615994	0.866599	-0.114023
H159	H	0.556304	0.990398	-0.250011
H160	H	1.108006	0.413854	0.347709
C161	C	1.106950	0.282452	0.495703
N162	N	1.149620	0.254643	0.558605
C163	C	0.937273	0.121806	0.045236
N164	N	0.887541	0.149583	0.078329
H165	H	1.164664	0.702144	-0.615639
C166	C	1.215732	1.121808	-0.374474
N167	N	1.265592	1.149615	-0.369218
H168	H	0.889661	0.291998	0.324840
C169	C	0.981323	1.121818	-0.547246
N170	N	0.938734	1.149619	-0.610167
C171	C	1.718863	0.211920	-0.007817
N172	N	1.795433	0.156278	-0.005786
H173	H	0.397654	1.112227	-0.376283
H174	H	0.905441	0.413818	0.198518
H175	H	1.179115	0.112256	-0.115426
C176	C	1.150912	0.282427	-0.096734
N177	N	1.200660	0.254634	-0.129812
H178	H	0.430648	1.173175	-0.514060
C179	C	0.848521	0.702118	-0.747068
N180	N	0.781604	0.702111	-0.774890
H181	H	0.915787	0.413832	0.059432
C182	C	0.848551	0.537624	0.062511
N183	N	0.928223	0.537613	0.062514
H184	H	0.826870	0.388428	0.142579
C185	C	0.627522	1.121867	-0.547247
N186	N	0.642577	1.149692	-0.610170
H187	H	1.507295	0.292047	-0.085352
H188	H	1.531862	0.413857	0.198489
H189	H	0.472176	0.537648	0.062513
H190	H	0.267095	0.866625	-0.114024
C191	C	0.653328	0.364933	0.155186
N192	N	0.655974	0.296793	0.191749
C193	C	0.232904	1.039336	-0.206713
N194	N	0.150585	1.107478	-0.243281
C195	C	0.434826	1.039334	-0.206713
N196	N	0.432167	1.107479	-0.243284
H197	H	0.914440	0.702112	-0.314059
H198	H	0.748536	0.990408	0.038274
H199	H	0.862538	0.702120	-0.615638
C200	C	0.900422	0.702117	-0.445482
N201	N	0.833502	0.702107	-0.473296
H202	H	1.225625	0.702145	-0.435888
H203	H	1.216567	0.702140	-0.314053
H204	H	1.339632	0.413857	-0.089805
