data_functionalizedCrystal
_audit_creation_method	'MofGen! by Chris Wilmer'
_symmetry_space_group_name_H-M	'P1'
_symmetry_Int_Tables_number	1
_symmetry_cell_setting	triclinic
loop_
_symmetry_equiv_pos_as_xyz
  x,y,z
_cell_length_a	16.974901
_cell_length_b	9.065218
_cell_length_c	8.140239
_cell_angle_alpha	90.003526
_cell_angle_beta	93.651936
_cell_angle_gamma	84.207938
loop_
_atom_site_label
_atom_site_type_symbol
_atom_site_fract_x
_atom_site_fract_y
_atom_site_fract_z
O1	O	-1.050469	-0.188174	-0.276118
O2	O	-0.820439	-0.212093	-0.245571
O3	O	-0.940209	0.014636	-0.261473
O4	O	-0.930699	-0.414904	-0.260216
O5	O	-0.940208	0.014648	0.011755
O6	O	-0.820438	-0.212081	0.027656
O7	O	-1.050468	-0.188163	-0.002891
Zn8	Zn	-0.935453	-0.200120	0.055763
Zn9	Zn	-0.935454	-0.200135	-0.304225
O10	O	-0.930698	-0.414892	0.013011
C11	C	-0.790974	-0.211172	-0.105044
C12	C	-0.703179	-0.208428	-0.093386
C13	C	-0.661926	-0.207148	-0.236832
C14	C	-0.579432	-0.204594	-0.225853
C15	C	-0.538194	-0.203308	-0.071426
C16	C	-0.579452	-0.204592	0.072031
C17	C	-0.661944	-0.207157	0.061051
C18	C	-0.291480	-0.195645	-0.022616
C19	C	-0.208983	-0.193075	-0.011646
C20	C	-0.208969	-0.193080	-0.309532
C21	C	-0.291463	-0.195636	-0.320499
C22	C	-0.332713	-0.196928	-0.177041
N23	N	-0.453872	-0.200692	-0.060200
N24	N	-0.417033	-0.199554	-0.188269
C25	C	-0.939294	0.069604	-0.124740
C26	C	-0.936562	0.233374	-0.124385
C27	C	-0.079934	-0.189076	-0.143422
C28	C	-0.167730	-0.191795	-0.155093
N29	N	-0.935455	-0.200135	-0.549908
C30	C	-0.931613	-0.469860	-0.123725
C31	C	-0.934345	-0.633629	-0.124091
N32	N	-0.935458	-0.200109	0.301445
H33	H	-0.325057	-0.196687	0.094198
Cl34	Cl	-0.527608	-0.202987	0.266170
H35	H	-0.175406	-0.192069	0.114114
Cl36	Cl	-0.343300	-0.197244	-0.514644
H37	H	-0.695530	-0.208205	0.177861
H38	H	-0.695497	-0.208191	-0.362584
Cl39	Cl	-0.527575	-0.202987	-0.406196
Cl40	Cl	-0.157107	-0.191440	-0.489866
