data_functionalizedCrystal
_audit_creation_method	'MofGen! by Chris Wilmer'
_symmetry_space_group_name_H-M	'P1'
_symmetry_Int_Tables_number	1
_symmetry_cell_setting	triclinic
loop_
_symmetry_equiv_pos_as_xyz
  x,y,z
_cell_length_a	19.805407
_cell_length_b	16.625545
_cell_length_c	19.805399
_cell_angle_alpha	89.974296
_cell_angle_beta	90.019573
_cell_angle_gamma	89.975963
loop_
_atom_site_label
_atom_site_type_symbol
_atom_site_fract_x
_atom_site_fract_y
_atom_site_fract_z
Zn1	Zn	1.034747	0.321020	0.382728
Zn2	Zn	1.368080	0.654354	0.716062
Zn3	Zn	1.701414	0.987687	1.049395
Zn4	Zn	1.034666	0.455857	0.269544
Zn5	Zn	1.368000	0.789191	0.602877
Zn6	Zn	1.701333	1.122524	0.936211
Zn7	Zn	0.921561	0.321043	0.269553
Zn8	Zn	1.254895	0.654376	0.602886
Zn9	Zn	1.588228	0.987709	0.936220
Zn10	Zn	0.921530	0.455815	0.382691
Zn11	Zn	1.254863	0.789148	0.716024
Zn12	Zn	1.588196	1.122481	1.049357
O13	O	0.978126	0.388434	0.326129
O14	O	1.311459	0.721767	0.659462
O15	O	1.644793	1.055100	0.992796
O16	O	1.129453	0.338915	0.367726
O17	O	1.462786	0.672249	0.701060
O18	O	1.796119	1.005582	1.034393
O19	O	1.019642	0.438001	0.174829
O20	O	1.352976	0.771335	0.508162
O21	O	1.686309	1.104668	0.841495
O22	O	0.936623	0.208207	0.284586
O23	O	1.269956	0.541541	0.617919
O24	O	1.603289	0.874874	0.951252
O25	O	1.129394	0.437980	0.284570
O26	O	1.462727	0.771313	0.617903
O27	O	1.796060	1.104646	0.951237
O28	O	1.019780	0.208191	0.367735
O29	O	1.353113	0.541524	0.701068
O30	O	1.686446	0.874858	1.034402
O31	O	0.936545	0.338953	0.174835
O32	O	1.269878	0.672287	0.508169
O33	O	1.603211	1.005620	0.841502
O34	O	0.826841	0.338912	0.284549
O35	O	1.160174	0.672245	0.617882
O36	O	1.493507	1.005578	0.951216
O37	O	0.936569	0.437907	0.477412
O38	O	1.269902	0.771240	0.810746
O39	O	1.603235	1.104573	1.144079
O40	O	0.826817	0.437928	0.367671
O41	O	1.160151	0.771262	0.701004
O42	O	1.493484	1.104595	1.034337
O43	O	1.019749	0.338874	0.477440
O44	O	1.353082	0.672207	0.810773
O45	O	1.686415	1.005540	1.144107
O46	O	1.019612	0.568684	0.284533
O47	O	1.352945	0.902018	0.617867
O48	O	1.686278	1.235351	0.951200
O49	O	0.936491	0.568653	0.367662
O50	O	1.269824	0.901986	0.700995
O51	O	1.603157	1.235319	1.034329
C52	C	0.802270	0.388418	0.326107
C53	C	1.135603	0.721752	0.659440
C54	C	1.468937	1.055085	0.992774
C55	C	0.727038	0.388431	0.326114
C56	C	1.060371	0.721764	0.659447
C57	C	1.393705	1.055098	0.992781
C58	C	0.978057	0.597925	0.326107
C59	C	1.311391	0.931258	0.659441
C60	C	1.644724	1.264591	0.992774
C61	C	0.978090	0.687546	0.326121
C62	C	1.311423	1.020879	0.659454
C63	C	1.644756	1.354212	0.992787
C64	C	0.691699	0.440067	0.369325
C65	C	1.025033	0.773400	0.702659
C66	C	1.358366	1.106733	1.035992
C67	C	0.621011	0.440068	0.369335
C68	C	0.954344	0.773401	0.702668
C69	C	1.287678	1.106735	1.036001
C70	C	0.585663	0.388437	0.326129
C71	C	0.918996	0.721771	0.659462
C72	C	1.252329	1.055104	0.992796
C73	C	0.621006	0.336796	0.282916
C74	C	0.954339	0.670130	0.616249
C75	C	1.287673	1.003463	0.949582
C76	C	0.691693	0.336791	0.282910
C77	C	1.025027	0.670125	0.616243
C78	C	1.358360	1.003458	0.949577
C79	C	0.335933	0.336814	0.282938
C80	C	0.669266	0.670147	0.616271
C81	C	1.002599	1.003481	0.949605
C82	C	0.265241	0.336825	0.282946
C83	C	0.598574	0.670158	0.616279
C84	C	0.931907	1.003491	0.949612
C85	C	0.265251	0.440091	0.369363
C86	C	0.598584	0.773424	0.702696
C87	C	0.931917	1.106757	1.036029
C88	C	0.335938	0.440086	0.369357
C89	C	0.669271	0.773419	0.702691
C90	C	1.002604	1.106753	1.036024
C91	C	0.371275	0.388442	0.326147
C92	C	0.704608	0.721775	0.659480
C93	C	1.037942	1.055109	0.992813
C94	C	0.447924	0.388440	0.326138
C95	C	0.781257	0.721773	0.659471
C96	C	1.114590	1.055107	0.992804
C97	C	0.509015	0.388443	0.326134
C98	C	0.842349	0.721776	0.659467
C99	C	1.175682	1.055110	0.992801
C100	C	0.978200	1.015721	0.326202
C101	C	1.311534	1.349055	0.659535
C102	C	1.644867	1.682388	0.992868
C103	C	0.978167	0.924413	0.326181
C104	C	1.311501	1.257746	0.659514
C105	C	1.644834	1.591079	0.992848
C106	C	0.978144	0.851636	0.326161
C107	C	1.311478	1.184970	0.659494
C108	C	1.644811	1.518303	0.992827
C109	C	0.978113	0.760322	0.326141
C110	C	1.311446	1.093655	0.659474
C111	C	1.644779	1.426989	0.992808
C112	C	1.154669	0.388450	0.326151
C113	C	1.488002	0.721783	0.659485
C114	C	1.821335	1.055116	0.992818
C115	C	1.229901	0.388457	0.326161
C116	C	1.563234	0.721790	0.659494
C117	C	1.896567	1.055123	0.992828
C118	C	0.978164	0.388383	0.502672
C119	C	1.311497	0.721716	0.836005
C120	C	1.644831	1.055050	1.169339
C121	C	0.978180	0.388361	0.577904
C122	C	1.311514	0.721695	0.911237
C123	C	1.644847	1.055028	1.244571
C124	C	0.978208	1.178125	0.326174
C125	C	1.311541	1.511458	0.659507
C126	C	1.644875	1.844791	0.992840
C127	C	0.978228	1.088504	0.326213
C128	C	1.311561	1.421837	0.659546
C129	C	1.644895	1.755170	0.992880
C130	C	0.978127	0.388426	0.150273
C131	C	1.311461	0.721759	0.483606
C132	C	1.644794	1.055093	0.816940
C133	C	0.978242	0.388221	0.075041
C134	C	1.311576	0.721554	0.408375
C135	C	1.644909	1.054887	0.741708
C136	C	1.021493	0.336792	0.613264
C137	C	1.354826	0.670126	0.946597
C138	C	1.688160	1.003459	1.279930
C139	C	1.021500	0.336769	0.683952
C140	C	1.354833	0.670102	1.017285
C141	C	1.688167	1.003436	1.350619
C142	C	0.978197	0.388319	0.719280
C143	C	1.311530	0.721653	1.052613
C144	C	1.644864	1.054986	1.385946
C145	C	0.934879	0.439890	0.683915
C146	C	1.268213	0.773224	1.017248
C147	C	1.601546	1.106557	1.350582
C148	C	0.934870	0.439909	0.613228
C149	C	1.268203	0.773242	0.946561
C150	C	1.601536	1.106576	1.279894
C151	C	0.934918	0.439815	0.968988
C152	C	1.268251	0.773149	1.302322
C153	C	1.601584	1.106482	1.635655
C154	C	0.934932	0.439794	1.039680
C155	C	1.268266	0.773128	1.373014
C156	C	1.601599	1.106461	1.706347
C157	C	1.021548	0.336675	1.039713
C158	C	1.354881	0.670008	1.373046
C159	C	1.688215	1.003342	1.706379
C160	C	1.021538	0.336694	0.969025
C161	C	1.354872	0.670027	1.302359
C162	C	1.688205	1.003360	1.635692
C163	C	0.978218	0.388262	0.933667
C164	C	1.311552	0.721595	1.267000
C165	C	1.644885	1.054928	1.600334
C166	C	0.978210	0.388285	0.857019
C167	C	1.311544	0.721619	1.190352
C168	C	1.644877	1.054952	1.523685
C169	C	0.978208	0.388300	0.795927
C170	C	1.311541	0.721634	1.129260
C171	C	1.644875	1.054967	1.462593
H172	H	0.720475	0.482113	0.404506
H173	H	1.053809	0.815446	0.737840
H174	H	1.387142	1.148780	1.071173
H175	H	0.899667	0.481774	1.068442
H176	H	1.233000	0.815108	1.401775
H177	H	1.566333	1.148441	1.735109
H178	H	1.056819	0.294683	1.068510
H179	H	1.390152	0.628017	1.401843
H180	H	1.723486	0.961350	1.735177
F181	F	0.729303	0.281832	0.236920
F182	F	1.062636	0.615166	0.570253
F183	F	1.395970	0.948499	0.903587
H184	H	0.364696	0.294769	0.247748
H185	H	0.698029	0.628102	0.581082
H186	H	1.031363	0.961435	0.914415
F187	F	0.888813	0.494698	0.931366
F188	F	1.222146	0.828032	1.264699
F189	F	1.555479	1.161365	1.598033
F190	F	1.067629	0.281830	0.931431
F191	F	1.400963	0.615163	1.264764
F192	F	1.734296	0.948497	1.598098
F193	F	0.583384	0.281842	0.236937
F194	F	0.916717	0.615175	0.570270
F195	F	1.250050	0.948508	0.903604
H196	H	1.056758	0.294817	0.584505
H197	H	1.390091	0.628150	0.917838
H198	H	1.723424	0.961483	1.251172
H199	H	0.236470	0.482139	0.404549
H200	H	0.569804	0.815472	0.737883
H201	H	0.903137	1.148805	1.071216
H202	H	0.899619	0.481861	0.712684
H203	H	1.232952	0.815194	1.046017
H204	H	1.566286	1.148527	1.379351
F205	F	0.888768	0.494794	0.575596
F206	F	1.222102	0.828127	0.908929
F207	F	1.555435	1.161461	1.242262
H208	H	0.236462	0.294776	0.247762
H209	H	0.569795	0.628109	0.581095
H210	H	0.903129	0.961442	0.914429
H211	H	0.592241	0.482116	0.404521
H212	H	0.925575	0.815449	0.737855
H213	H	1.258908	1.148782	1.071188
F214	F	0.373555	0.495041	0.415340
F215	F	0.706888	0.828374	0.748673
F216	F	1.040221	1.161708	1.082007
H217	H	1.056771	0.294778	0.712739
H218	H	1.390105	0.628112	1.046072
H219	H	1.723438	0.961445	1.379405
