data_functionalizedCrystal
_audit_creation_method	'MofGen! by Chris Wilmer'
_symmetry_space_group_name_H-M	'P1'
_symmetry_Int_Tables_number	1
_symmetry_cell_setting	triclinic
loop_
_symmetry_equiv_pos_as_xyz
  x,y,z
_cell_length_a	25.639242
_cell_length_b	16.959454
_cell_length_c	16.959447
_cell_angle_alpha	90.026818
_cell_angle_beta	89.973163
_cell_angle_gamma	89.984397
loop_
_atom_site_label
_atom_site_type_symbol
_atom_site_fract_x
_atom_site_fract_y
_atom_site_fract_z
Zn1	Zn	0.799317	0.314760	-0.447137
Zn2	Zn	1.299317	0.814760	0.052863
Zn3	Zn	0.799262	0.446952	-0.314967
Zn4	Zn	1.299262	0.946952	0.185033
Zn5	Zn	0.711886	0.314781	-0.314952
Zn6	Zn	1.211886	0.814781	0.185048
Zn7	Zn	0.711867	0.446890	-0.447082
Zn8	Zn	1.211867	0.946890	0.052918
O9	O	0.755583	0.380846	-0.381034
O10	O	1.255583	0.880846	0.118966
O11	O	0.872475	0.332312	-0.429633
O12	O	1.372475	0.832312	0.070367
O13	O	0.787656	0.429455	-0.204354
O14	O	1.287656	0.929455	0.295646
O15	O	0.723515	0.204167	-0.332503
O16	O	1.223515	0.704167	0.167497
O17	O	0.872434	0.429434	-0.332528
O18	O	1.372434	0.929434	0.167472
O19	O	0.787750	0.204152	-0.429619
O20	O	1.287750	0.704152	0.070381
O21	O	0.723462	0.332349	-0.204343
O22	O	1.223462	0.832349	0.295657
O23	O	0.638718	0.332289	-0.332450
O24	O	1.138718	0.832289	0.167550
O25	O	0.723482	0.429327	-0.557701
O26	O	1.223482	0.929327	-0.057701
O27	O	0.638704	0.429348	-0.429526
O28	O	1.138704	0.929348	0.070474
O29	O	0.787731	0.332252	-0.557741
O30	O	1.287731	0.832252	-0.057741
O31	O	0.787637	0.557555	-0.332476
O32	O	1.287637	1.057555	0.167524
O33	O	0.723429	0.557509	-0.429541
O34	O	1.223429	1.057509	0.070459
C35	C	0.755539	0.586212	-0.381021
C36	C	1.255539	1.086212	0.118979
C37	C	0.755568	0.674068	-0.381042
C38	C	1.255568	1.174068	0.118958
C39	C	0.619740	0.380814	-0.380981
C40	C	1.119740	0.880814	0.119019
C41	C	0.561626	0.380820	-0.380977
C42	C	1.061626	0.880820	0.119023
C43	C	0.755611	0.380780	-0.587203
C44	C	1.255611	0.880780	-0.087203
C45	C	0.755623	0.380752	-0.675059
C46	C	1.255623	0.880752	-0.175059
C47	C	0.201265	0.431469	-0.431534
C48	C	0.701265	0.931469	0.068466
C49	C	0.146660	0.431474	-0.431546
C50	C	0.646660	0.931474	0.068454
O51	O	0.118425	0.474499	-0.474487
O52	O	0.618425	0.974499	0.025513
N53	N	0.119344	0.380867	-0.381086
N54	N	0.619344	0.880867	0.118914
C55	C	0.146634	0.330247	-0.330616
C56	C	0.646634	0.830247	0.169384
O57	O	0.118385	0.287202	-0.287697
O58	O	0.618385	0.787202	0.212303
C59	C	0.201238	0.330239	-0.330608
C60	C	0.701238	0.830239	0.169392
C61	C	0.228551	0.380854	-0.381066
C62	C	0.728551	0.880854	0.118934
C63	C	0.228578	0.482080	-0.481989
C64	C	0.728578	0.982080	0.018011
C65	C	0.283179	0.482076	-0.481975
C66	C	0.783179	0.982076	0.018025
C67	C	0.310466	0.431461	-0.431507
C68	C	0.810466	0.931461	0.068493
C69	C	0.283152	0.380850	-0.381052
C70	C	0.783152	0.880850	0.118948
C71	C	0.228527	0.279615	-0.280142
C72	C	0.728527	0.779615	0.219858
C73	C	0.283134	0.279611	-0.280139
C74	C	0.783134	0.779611	0.219861
C75	C	0.310448	0.330226	-0.330597
C76	C	0.810448	0.830226	0.169403
C77	C	0.365039	0.330232	-0.330570
C78	C	0.865039	0.830232	0.169430
N79	N	0.392356	0.380838	-0.381030
N80	N	0.892356	0.880838	0.118970
C81	C	0.365069	0.431453	-0.431499
C82	C	0.865069	0.931453	0.068501
C83	C	0.031964	0.330267	-0.330637
C84	C	0.531964	0.830267	0.169363
C85	C	-0.022639	0.330279	-0.330640
C86	C	0.477361	0.830279	0.169360
C87	C	-0.022609	0.431505	-0.431572
C88	C	0.477391	0.931505	0.068428
C89	C	0.031994	0.431497	-0.431565
C90	C	0.531994	0.931497	0.068435
C91	C	0.059280	0.380874	-0.381097
C92	C	0.559280	0.880874	0.118903
C93	C	0.479734	0.431441	-0.431466
C94	C	0.979734	0.931441	0.068534
C95	C	0.534339	0.431435	-0.431445
C96	C	1.034339	0.931435	0.068555
C97	C	0.534305	0.330206	-0.330516
C98	C	1.034305	0.830206	0.169484
C99	C	0.479704	0.330215	-0.330533
C100	C	0.979704	0.830215	0.169467
C101	C	0.452420	0.380835	-0.381014
C102	C	0.952420	0.880835	0.118986
O103	O	0.393309	0.287227	-0.287654
O104	O	0.893309	0.787227	0.212346
O105	O	0.393325	0.474483	-0.474418
O106	O	0.893325	0.974483	0.025582
C107	C	0.891956	0.380877	-0.381089
C108	C	1.391956	0.880877	0.118911
C109	C	0.950070	0.380891	-0.381112
C110	C	1.450070	0.880891	0.118888
C111	C	0.755641	0.174677	-0.381065
C112	C	1.255641	0.674677	0.118935
C113	C	0.755666	0.086821	-0.381078
C114	C	1.255666	0.586821	0.118922
C115	C	0.722198	1.045550	-0.431571
C116	C	1.222198	1.545550	0.068429
C117	C	0.789113	1.045538	-0.330579
C118	C	1.289113	1.545538	0.169421
C119	C	0.789095	0.962992	-0.330571
C120	C	1.289095	1.462992	0.169429
C121	C	0.755627	0.921721	-0.381064
C122	C	1.255627	1.421721	0.118936
C123	C	0.722177	0.962997	-0.431563
C124	C	1.222177	1.462997	0.068437
C125	C	0.822540	0.921711	-0.280067
C126	C	1.322540	1.421711	0.219933
C127	C	0.822523	0.839160	-0.280057
C128	C	1.322523	1.339160	0.219943
C129	C	0.789057	0.797888	-0.330554
C130	C	1.289057	1.297888	0.169446
C131	C	0.755607	0.839168	-0.381056
C132	C	1.255607	1.339168	0.118944
C133	C	0.722139	0.797897	-0.431549
C134	C	1.222139	1.297897	0.068451
C135	C	0.688690	0.839176	-0.482056
C136	C	1.188690	1.339176	0.017944
C137	C	0.688712	0.921724	-0.482060
C138	C	1.188712	1.421724	0.017940
C139	C	0.789036	0.715339	-0.330549
C140	C	1.289036	1.215339	0.169451
C141	C	0.722118	0.715344	-0.431541
C142	C	1.222118	1.215344	0.068459
C143	C	0.722246	0.330110	-1.046536
C144	C	1.222246	0.830110	-0.546536
C145	C	0.789092	0.431227	-1.046535
C146	C	1.289092	0.931227	-0.546535
C147	C	0.789083	0.431245	-0.963989
C148	C	1.289083	0.931245	-0.463989
C149	C	0.755654	0.380696	-0.922713
C150	C	1.255654	0.880696	-0.422713
C151	C	0.722234	0.330129	-0.963982
C152	C	1.222234	0.830129	-0.463982
C153	C	0.822498	0.481818	-0.922713
C154	C	1.322498	0.981818	-0.422713
C155	C	0.822490	0.481839	-0.840162
C156	C	1.322490	0.981839	-0.340162
C157	C	0.789063	0.431285	-0.798884
C158	C	1.289063	0.931285	-0.298884
C159	C	0.755643	0.380715	-0.840159
C160	C	1.255643	0.880715	-0.340159
C161	C	0.722214	0.330166	-0.798883
C162	C	1.222214	0.830166	-0.298883
C163	C	0.688796	0.279591	-0.840156
C164	C	1.188796	0.779591	-0.340156
C165	C	0.688808	0.279575	-0.922704
C166	C	1.188808	0.779575	-0.422704
C167	C	0.789051	0.431301	-0.716336
C168	C	1.289051	0.931301	-0.216336
C169	C	0.722203	0.330184	-0.716329
C170	C	1.222203	0.830184	-0.216329
C171	C	0.755585	0.380854	-0.175668
C172	C	1.255585	0.880854	0.324332
C173	C	0.755674	0.380659	-0.087812
C174	C	1.255674	0.880659	0.412188
H175	H	0.556576	0.472655	-0.472535
H176	H	1.056576	0.972655	0.027465
C177	C	0.198494	0.223925	-0.224641
C178	C	0.698494	0.723925	0.275359
N179	N	0.175874	0.181971	-0.182839
N180	N	0.675874	0.681971	0.317161
C181	C	0.685487	0.274480	-1.091936
C182	C	1.185487	0.774480	-0.591936
N183	N	0.657801	0.232580	-1.126133
N184	N	1.157801	0.732580	-0.626133
H185	H	0.849708	0.522981	-0.956326
H186	H	1.349708	1.022981	-0.456326
H187	H	0.816358	1.079146	-0.289465
H188	H	1.316358	1.579146	0.210535
C189	C	0.685306	0.669952	-0.487098
C190	C	1.185306	1.169952	0.012902
N191	N	0.657581	0.635764	-0.528945
N192	N	1.157581	1.135764	-0.028945
H193	H	0.661438	0.805564	-0.523163
H194	H	1.161438	1.305564	-0.023163
H195	H	-0.044836	0.472716	-0.472669
H196	H	0.455164	0.972716	0.027331
H197	H	-0.044873	0.289071	-0.289544
H198	H	0.455127	0.789071	0.210456
C199	C	0.825828	0.669937	-0.274996
C200	C	1.325828	1.169937	0.225004
N201	N	0.853543	0.635740	-0.233153
N202	N	1.353543	1.135740	0.266847
H203	H	0.054230	0.472711	-0.472653
H204	H	0.554230	0.972711	0.027347
C205	C	0.652049	0.223952	-0.968111
C206	C	1.152049	0.723952	-0.468111
N207	N	0.624361	0.182058	-1.002314
N208	N	1.124361	0.682058	-0.502314
H209	H	0.206367	0.523296	-0.523090
H210	H	0.706367	1.023296	-0.023090
C211	C	0.825707	0.487060	-1.091941
C212	C	1.325707	0.987060	-0.591941
N213	N	0.853232	0.529198	-1.126144
N214	N	1.353232	1.029198	-0.626144
C215	C	0.859267	0.537446	-0.794769
C216	C	1.359267	1.037446	-0.294769
N217	N	0.886975	0.579320	-0.760578
N218	N	1.386975	1.079320	-0.260578
H219	H	0.054176	0.289045	-0.289535
H220	H	0.554176	0.789045	0.210465
H221	H	0.305413	0.523290	-0.523065
H222	H	0.805413	1.023290	-0.023065
H223	H	0.305347	0.238382	-0.239046
H224	H	0.805347	0.738382	0.260954
C225	C	0.825807	0.486933	-0.670939
C226	C	1.325807	0.986933	-0.170939
N227	N	0.853494	0.528837	-0.636747
N228	N	1.353494	1.028837	-0.136747
C229	C	0.449730	0.487131	-0.486992
C230	C	0.949730	0.987131	0.013008
N231	N	0.427130	0.529082	-0.528809
N232	N	0.927130	1.029082	-0.028809
C233	C	0.449658	0.274542	-0.275021
C234	C	0.949658	0.774542	0.224979
N235	N	0.427031	0.232603	-0.233213
N236	N	0.927031	0.732603	0.266787
C237	C	0.859313	0.793761	-0.224494
C238	C	1.359313	1.293761	0.275506
N239	N	0.887024	0.759566	-0.182643
N240	N	1.387024	1.259566	0.317357
H241	H	0.556532	0.289000	-0.289424
H242	H	1.056532	0.789000	0.210576
H243	H	0.661479	0.955341	-0.523179
H244	H	1.161479	1.455341	-0.023179
C245	C	0.685404	1.090957	-0.487122
C246	C	1.185404	1.590957	0.012878
N247	N	0.657690	1.125158	-0.528962
N248	N	1.157690	1.625158	-0.028962
C249	C	0.859345	0.967113	-0.224518
C250	C	1.359345	1.467113	0.275482
N251	N	0.887066	1.001314	-0.182674
N252	N	1.387066	1.501314	0.317326
C253	C	0.685428	0.274575	-0.670932
C254	C	1.185428	0.774575	-0.170932
N255	N	0.657728	0.232691	-0.636739
N256	N	1.157728	0.732691	-0.136739
C257	C	0.652028	0.223985	-0.794741
C258	C	1.152028	0.723985	-0.294741
N259	N	0.624337	0.182102	-0.760532
N260	N	1.124337	0.682102	-0.260532
