data_functionalizedCrystal
_audit_creation_method	'MofGen! by Chris Wilmer'
_symmetry_space_group_name_H-M	'P1'
_symmetry_Int_Tables_number	1
_symmetry_cell_setting	triclinic
loop_
_symmetry_equiv_pos_as_xyz
  x,y,z
_cell_length_a	19.188930
_cell_length_b	19.188930
_cell_length_c	17.666332
_cell_angle_alpha	90.011603
_cell_angle_beta	89.976766
_cell_angle_gamma	96.855221
loop_
_atom_site_label
_atom_site_type_symbol
_atom_site_fract_x
_atom_site_fract_y
_atom_site_fract_z
O1	O	0.926150	-0.087169	-0.063200
O2	O	1.426150	0.412831	0.436800
O3	O	0.722838	-0.098903	-0.063149
O4	O	1.222838	0.401097	0.436851
O5	O	0.830361	0.008620	-0.063161
O6	O	1.330361	0.508620	0.436839
O7	O	0.818627	-0.194692	-0.063188
O8	O	1.318627	0.305308	0.436812
O9	O	0.830342	0.008625	0.062735
O10	O	1.330342	0.508625	0.562735
O11	O	0.722820	-0.098897	0.062747
O12	O	1.222820	0.401103	0.562747
O13	O	0.926131	-0.087163	0.062697
O14	O	1.426131	0.412837	0.562697
Cu15	Cu	0.824473	-0.093030	0.074217
Cu16	Cu	1.324473	0.406970	0.574217
Cu17	Cu	0.824496	-0.093036	-0.074670
Cu18	Cu	1.324496	0.406964	0.425330
O19	O	0.818608	-0.194686	0.062709
O20	O	1.318608	0.305314	0.562709
C21	C	0.696818	-0.098520	-0.000194
C22	C	1.196818	0.401480	0.499806
C23	C	0.619313	-0.097380	-0.000174
C24	C	1.119313	0.402620	0.499826
C25	C	0.829972	0.034634	-0.000211
C26	C	1.329972	0.534634	0.499789
C27	C	0.828831	0.112138	-0.000204
C28	C	1.328831	0.612138	0.499796
C29	C	0.574389	-0.160470	-0.000194
C30	C	1.074389	0.339530	0.499806
C31	C	0.501566	-0.159399	-0.000203
C32	C	1.001566	0.340601	0.499797
C33	C	0.473669	-0.095233	-0.000206
C34	C	0.973669	0.404767	0.499794
C35	C	0.518603	-0.032133	-0.000181
C36	C	1.018603	0.467867	0.499819
C37	C	0.591425	-0.033207	-0.000166
C38	C	1.091425	0.466793	0.499834
N39	N	0.365695	-0.046188	-0.043078
N40	N	0.865695	0.453812	0.456922
N41	N	0.296517	-0.045172	-0.043095
N42	N	0.796517	0.454828	0.456905
C43	C	0.254260	-0.091994	-0.000252
C44	C	0.754260	0.408006	0.499748
N45	N	0.283795	-0.139881	0.042599
N46	N	0.783795	0.360119	0.542599
N47	N	0.352979	-0.140899	0.042612
N48	N	0.852979	0.359101	0.542612
C49	C	0.394707	-0.094062	-0.000222
C50	C	0.894707	0.405938	0.499778
C51	C	0.130372	-0.153928	-0.000280
C52	C	0.630372	0.346072	0.499720
C53	C	0.057547	-0.152853	-0.000283
C54	C	0.557547	0.347147	0.499717
C55	C	0.074586	-0.025586	-0.000270
C56	C	0.574586	0.474414	0.499730
C57	C	0.147409	-0.026662	-0.000258
C58	C	0.647409	0.473338	0.499742
C59	C	0.175298	-0.090835	-0.000267
C60	C	0.675298	0.409165	0.499733
C61	C	0.952151	-0.087546	-0.000260
C62	C	1.452151	0.412454	0.499740
C63	C	1.029656	-0.088687	-0.000285
C64	C	1.529656	0.411313	0.499715
C65	C	0.818997	-0.220700	-0.000244
C66	C	1.318997	0.279300	0.499756
C67	C	0.820138	-0.298204	-0.000255
C68	C	1.320138	0.201796	0.499745
N69	N	0.824463	-0.093025	0.178937
N70	N	1.324463	0.406975	0.678937
C71	C	0.891922	0.157062	-0.000216
C72	C	1.391922	0.657062	0.499784
C73	C	0.890850	0.229886	-0.000228
C74	C	1.390850	0.729886	0.499772
C75	C	0.826684	0.257782	-0.000212
C76	C	1.326684	0.757782	0.499788
C77	C	0.763585	0.212849	-0.000205
C78	C	1.263585	0.712849	0.499795
C79	C	0.764658	0.140026	-0.000200
C80	C	1.264658	0.640026	0.499800
N81	N	0.777630	0.365789	0.042645
N82	N	1.277630	0.865789	0.542645
N83	N	0.776615	0.434968	0.042642
N84	N	1.276615	0.934968	0.542642
C85	C	0.823446	0.477191	-0.000227
C86	C	1.323446	0.977191	0.499773
N87	N	0.871341	0.447624	-0.043084
N88	N	1.371341	0.947624	0.456916
N89	N	0.872359	0.378439	-0.043079
N90	N	1.372359	0.878439	0.456921
C91	C	0.825513	0.336745	-0.000218
C92	C	1.325513	0.836745	0.499782
C93	C	0.885379	0.601079	-0.000253
C94	C	1.385379	1.101079	0.499747
C95	C	0.884305	0.673904	-0.000270
C96	C	1.384305	1.173904	0.499730
C97	C	0.757038	0.656865	-0.000239
C98	C	1.257038	1.156865	0.499761
C99	C	0.758114	0.584042	-0.000230
C100	C	1.258114	1.084042	0.499770
C101	C	0.822287	0.556154	-0.000233
C102	C	1.322287	1.056154	0.499767
N103	N	0.824512	-0.093036	-0.179390
N104	N	1.324512	0.406964	0.320610
C105	C	0.872089	-0.045437	0.218541
C106	C	1.372089	0.454563	0.718541
C107	C	0.872093	-0.045433	0.297789
C108	C	1.372093	0.454567	0.797789
C109	C	0.824478	-0.093030	0.337429
C110	C	1.324478	0.406970	0.837429
C111	C	0.776842	-0.140621	0.297815
C112	C	1.276842	0.359379	0.797815
C113	C	0.776835	-0.140619	0.218569
C114	C	1.276835	0.359381	0.718569
N115	N	0.815401	-0.154837	0.461841
N116	N	1.315401	0.345163	0.961841
N117	N	0.815413	-0.154837	0.537121
N118	N	1.315413	0.345163	1.037121
C119	C	0.824496	-0.093040	0.576193
C120	C	1.324496	0.406960	1.076193
N121	N	0.833582	-0.031239	0.537140
N122	N	1.333582	0.468761	1.037140
N123	N	0.833574	-0.031240	0.461853
N124	N	1.333574	0.468760	0.961853
C125	C	0.824480	-0.093038	0.423358
C126	C	1.324480	0.406962	0.923358
C127	C	0.872130	-0.045444	0.701727
C128	C	1.372130	0.454556	1.201727
C129	C	0.872129	-0.045440	0.780976
C130	C	1.372129	0.454560	1.280976
C131	C	0.776881	-0.140634	0.781000
C132	C	1.276881	0.359366	1.281000
C133	C	0.776878	-0.140632	0.701753
C134	C	1.276878	0.359368	1.201753
C135	C	0.824506	-0.093038	0.662121
C136	C	1.324506	0.406962	1.162121
H137	H	0.597091	-0.212725	-0.000203
H138	H	1.097091	0.287275	0.499797
N139	N	0.696610	0.091563	-0.000173
N140	N	1.196610	0.591563	0.499827
H141	H	0.694226	0.060955	-0.046837
H142	H	1.194226	0.560955	0.453163
H143	H	0.655834	0.120328	-0.000136
H144	H	1.155834	0.620328	0.499864
H145	H	0.628003	0.018171	-0.000150
H146	H	1.128003	0.518171	0.499850
H147	H	0.942228	0.266470	-0.000241
H148	H	1.442228	0.766470	0.499759
H149	H	0.704792	0.679578	-0.000230
H150	H	1.204792	1.179578	0.499770
N151	N	0.488513	0.037072	-0.000179
N152	N	0.988513	0.537072	0.499821
H153	H	0.458705	0.040354	-0.046855
H154	H	0.958705	0.540354	0.453145
H155	H	0.528061	0.076840	-0.000133
H156	H	1.028061	0.576840	0.499867
N157	N	0.725471	-0.191956	0.175850
N158	N	1.225471	0.308044	0.675850
H159	H	0.732694	-0.184734	0.119634
H160	H	1.232694	0.315266	0.619634
H161	H	0.675968	-0.184013	0.189727
H162	H	1.175968	0.315987	0.689727
H163	H	0.020970	-0.204232	-0.000295
H164	H	0.520970	0.295768	0.499705
N165	N	0.453100	-0.227449	-0.000226
N166	N	0.953100	0.272551	0.499774
H167	H	0.481817	-0.268264	-0.000229
H168	H	0.981817	0.231736	0.499771
H169	H	0.422543	-0.229769	-0.046907
H170	H	0.922543	0.270231	0.453093
N171	N	0.725487	-0.191956	0.340570
N172	N	1.225487	0.308044	0.840570
H173	H	0.733369	-0.241491	0.326760
H174	H	1.233369	0.258509	0.826760
H175	H	0.675983	-0.183973	0.326794
H176	H	1.175983	0.316027	0.826794
N177	N	0.725509	-0.191959	0.659031
N178	N	1.225509	0.308041	1.159031
H179	H	0.695344	-0.222111	0.696165
H180	H	1.195344	0.277889	1.196165
H181	H	0.752136	-0.222761	0.626126
H182	H	1.252136	0.277239	1.126126
H183	H	0.910878	-0.006680	0.330041
H184	H	1.410878	0.493320	0.830041
H185	H	0.937632	0.578372	-0.000259
H186	H	1.437632	1.078372	0.499741
N187	N	0.160459	-0.223138	-0.000285
N188	N	0.660459	0.276862	0.499715
H189	H	0.120946	-0.262945	-0.000293
H190	H	0.620946	0.237055	0.499707
H191	H	0.190280	-0.226352	0.046390
H192	H	0.690280	0.273648	0.546390
H193	H	0.711340	0.235567	-0.000194
H194	H	1.211340	0.735567	0.499806
H195	H	0.910910	-0.006684	0.813222
H196	H	1.410910	0.493316	1.313222
H197	H	0.910909	-0.006688	0.669457
H198	H	1.410909	0.493312	1.169457
H199	H	0.051874	0.026659	-0.000319
H200	H	0.551874	0.526659	0.499681
H201	H	0.910869	-0.006681	0.186275
H202	H	1.410869	0.493319	0.686275
N203	N	0.952356	0.722362	-0.000286
N204	N	1.452356	1.222362	0.499714
H205	H	0.993169	0.693642	-0.000285
H206	H	1.493169	1.193642	0.499715
H207	H	0.954669	0.752959	0.046382
H208	H	1.454669	1.252959	0.546382
N209	N	0.725517	-0.191966	0.823743
N210	N	1.225517	0.308034	1.323743
H211	H	0.732746	-0.184746	0.879956
H212	H	1.232746	0.315254	1.379956
H213	H	0.733425	-0.241479	0.809876
H214	H	1.233425	0.258521	1.309876
H215	H	0.183988	0.024713	-0.000246
H216	H	0.683988	0.524713	0.499754
N217	N	0.961133	0.126982	-0.000221
N218	N	1.461133	0.626982	0.499779
H219	H	1.000939	0.166496	-0.000231
H220	H	1.500939	0.666496	0.499769
H221	H	0.964361	0.097129	-0.046892
H222	H	1.464361	0.597129	0.453108
H223	H	0.706738	0.547464	-0.000216
H224	H	1.206738	1.047464	0.499784
