data_functionalizedCrystal
_audit_creation_method	'MofGen! by Chris Wilmer'
_symmetry_space_group_name_H-M	'P1'
_symmetry_Int_Tables_number	1
_symmetry_cell_setting	triclinic
loop_
_symmetry_equiv_pos_as_xyz
  x,y,z
_cell_length_a	18.050591
_cell_length_b	19.121063
_cell_length_c	18.050582
_cell_angle_alpha	92.415032
_cell_angle_beta	89.979078
_cell_angle_gamma	92.465257
loop_
_atom_site_label
_atom_site_type_symbol
_atom_site_fract_x
_atom_site_fract_y
_atom_site_fract_z
Zn1	Zn	1.122676	-0.279734	-0.432630
Zn2	Zn	1.117290	-0.397178	-0.313729
Zn3	Zn	0.998495	-0.279737	-0.308441
Zn4	Zn	0.993148	-0.397141	-0.437863
O5	O	1.057903	-0.338447	-0.373166
O6	O	1.225886	-0.295327	-0.416880
O7	O	1.101515	-0.381616	-0.209104
O8	O	1.019460	-0.181452	-0.320512
O9	O	1.221929	-0.381613	-0.329524
O10	O	1.110695	-0.181449	-0.411753
O11	O	1.014237	-0.295332	-0.205219
O12	O	0.893862	-0.295296	-0.325586
O13	O	1.010347	-0.381550	-0.541093
O14	O	0.889934	-0.381552	-0.420672
O15	O	1.105510	-0.295291	-0.537248
O16	O	1.096331	-0.495458	-0.334599
O17	O	1.005124	-0.495430	-0.425799
C18	C	0.864952	-0.338421	-0.373123
C19	C	0.782406	-0.338427	-0.373124
C20	C	0.585072	-0.291466	-0.321528
C21	C	0.532763	-0.355526	-0.306137
C22	C	0.631274	-0.338448	-0.373158
C23	C	0.536500	-0.274410	-0.388548
C24	C	0.485288	-0.338463	-0.373190
C25	C	0.580051	-0.402542	-0.357733
C26	C	0.583794	-0.321383	-0.440174
C27	C	0.531506	-0.385487	-0.424811
C28	C	0.715373	-0.338439	-0.373138
C29	C	0.401191	-0.338480	-0.373211
C30	C	1.049583	-0.520928	-0.381357
C31	C	1.046092	-0.598994	-0.384886
C32	C	1.091975	-0.635661	-0.339100
C33	C	1.088695	-0.709012	-0.342424
C34	C	1.039529	-0.745696	-0.391530
C35	C	0.993644	-0.709024	-0.437321
C36	C	0.996928	-0.635674	-0.434001
C37	C	1.027241	-0.967166	-0.403932
C38	C	1.023960	-1.040521	-0.407247
C39	C	1.119012	-1.040504	-0.312351
C40	C	1.122288	-0.967153	-0.309032
C41	C	1.076406	-0.930487	-0.354825
C42	C	1.036174	-0.820673	-0.394927
C43	C	1.079765	-0.855512	-0.351432
C44	C	1.251607	-0.338474	-0.373208
C45	C	1.334152	-0.338485	-0.373227
C46	C	1.057933	-0.338416	-0.566870
C47	C	1.057946	-0.338403	-0.649415
C48	C	1.066275	-0.155254	-0.364959
C49	C	1.069843	-0.077188	-0.361461
C50	C	1.006237	-0.385246	-0.850954
C51	C	1.073218	-0.402419	-0.901126
C52	C	1.057985	-0.338349	-0.800543
C53	C	0.991042	-0.321157	-0.897452
C54	C	1.058017	-0.338299	-0.946526
C55	C	1.125000	-0.355556	-0.849629
C56	C	1.042780	-0.274264	-0.845950
C57	C	1.109809	-0.291412	-0.896099
C58	C	1.057966	-0.338380	-0.716446
C59	C	1.058044	-0.338268	-1.030621
C60	C	1.057917	-0.338428	-0.180213
C61	C	1.058057	-0.338243	-0.097659
H62	H	0.508190	-0.425270	-0.468489
H63	H	0.606202	-0.306918	-0.496817
O64	O	1.027525	-0.209635	-0.817089
C65	C	1.087606	-0.183098	-0.772939
H66	H	1.140185	-0.209994	-0.791036
H67	H	1.095490	-0.124252	-0.779802
H68	H	1.075726	-0.193587	-0.712281
O69	O	0.923517	-0.303706	-0.922502
C70	C	0.907053	-0.236638	-0.893215
H71	H	0.960780	-0.206223	-0.877227
H72	H	0.876474	-0.207305	-0.936706
H73	H	0.870591	-0.242152	-0.842030
H74	H	0.517235	-0.220255	-0.401527
H75	H	1.132008	-0.605798	-0.299109
O76	O	0.505951	-0.372842	-0.238607
C77	C	0.460164	-0.434334	-0.246410
H78	H	0.475700	-0.465037	-0.299242
H79	H	0.468057	-0.467937	-0.196557
H80	H	0.399712	-0.419752	-0.249739
O81	O	0.602960	-0.467171	-0.342241
C82	C	0.645285	-0.493638	-0.401946
H83	H	0.668941	-0.448289	-0.434903
H84	H	0.692649	-0.524293	-0.379657
H85	H	0.608491	-0.529733	-0.439555
H86	H	0.962512	-0.424957	-0.831065
H87	H	1.181639	-0.370137	-0.828690
H88	H	1.162323	-0.937286	-0.269045
H89	H	1.119799	-0.825642	-0.311452
H90	H	0.996142	-0.850549	-0.434907
O91	O	1.133211	-0.744760	-0.298015
C92	C	1.089145	-0.787310	-0.251917
H93	H	1.032304	-0.798274	-0.278459
H94	H	1.117107	-0.838893	-0.244487
H95	H	1.082391	-0.759171	-0.195531
O96	O	0.613176	-0.244127	-0.269448
C97	C	0.691269	-0.244328	-0.270564
H98	H	0.710538	-0.265274	-0.327086
H99	H	0.715135	-0.188649	-0.259868
H100	H	0.711283	-0.279222	-0.225644
O101	O	1.088460	-0.467088	-0.929899
C102	C	1.033766	-0.516404	-0.906955
H103	H	0.980963	-0.488470	-0.891829
H104	H	1.021511	-0.556931	-0.953970
H105	H	1.054595	-0.543689	-0.856514
O106	O	1.162183	-0.244153	-0.919641
C107	C	1.232645	-0.262503	-0.895158
H108	H	1.231390	-0.320779	-0.883992
H109	H	1.275647	-0.250706	-0.939700
H110	H	1.247874	-0.230863	-0.841987
H111	H	1.156368	-1.070365	-0.275069
H112	H	0.983931	-1.070387	-0.447248
H113	H	0.989881	-0.937319	-0.441218
H114	H	0.953615	-0.738898	-0.477307
H115	H	0.959566	-0.605821	-0.471285
