data_functionalizedCrystal
_audit_creation_method	'MofGen! by Chris Wilmer'
_symmetry_space_group_name_H-M	'P1'
_symmetry_Int_Tables_number	1
_symmetry_cell_setting	triclinic
loop_
_symmetry_equiv_pos_as_xyz
  x,y,z
_cell_length_a	19.121112
_cell_length_b	21.295417
_cell_length_c	19.120904
_cell_angle_alpha	92.409419
_cell_angle_beta	90.088845
_cell_angle_gamma	87.583854
loop_
_atom_site_label
_atom_site_type_symbol
_atom_site_fract_x
_atom_site_fract_y
_atom_site_fract_z
Zn1	Zn	1.054818	-0.307921	-0.442026
Zn2	Zn	1.304818	-0.057921	-0.192026
Zn3	Zn	1.554818	0.192079	0.057974
Zn4	Zn	1.804818	0.442079	0.307974
Zn5	Zn	1.059729	-0.408895	-0.324781
Zn6	Zn	1.309729	-0.158895	-0.074781
Zn7	Zn	1.559729	0.091105	0.175219
Zn8	Zn	1.809729	0.341105	0.425219
Zn9	Zn	0.942588	-0.298967	-0.319812
Zn10	Zn	1.192588	-0.048967	-0.069812
Zn11	Zn	1.442588	0.201033	0.180188
Zn12	Zn	1.692588	0.451033	0.430188
Zn13	Zn	0.937541	-0.408472	-0.436985
Zn14	Zn	1.187541	-0.158472	-0.186985
Zn15	Zn	1.437541	0.091528	0.063015
Zn16	Zn	1.687541	0.341528	0.313015
O17	O	0.998669	-0.356064	-0.380901
O18	O	1.248669	-0.106064	-0.130901
O19	O	1.498669	0.143936	0.119099
O20	O	1.748669	0.393936	0.369099
O21	O	1.153575	-0.325239	-0.430662
O22	O	1.403575	-0.075239	-0.180662
O23	O	1.653575	0.174761	0.069338
O24	O	1.903575	0.424761	0.319338
O25	O	1.048358	-0.390743	-0.226017
O26	O	1.298358	-0.140743	0.023983
O27	O	1.548358	0.109257	0.273983
O28	O	1.798358	0.359257	0.523983
O29	O	0.957533	-0.212069	-0.336053
O30	O	1.207533	0.037931	-0.086053
O31	O	1.457533	0.287931	0.163947
O32	O	1.707533	0.537931	0.413947
O33	O	1.157183	-0.399425	-0.344523
O34	O	1.407183	-0.149425	-0.094523
O35	O	1.657183	0.100575	0.155477
O36	O	1.907183	0.350575	0.405477
O37	O	1.039988	-0.218647	-0.425844
O38	O	1.289988	0.031353	-0.175844
O39	O	1.539988	0.281353	0.074156
O40	O	1.789988	0.531353	0.324156
O41	O	0.962295	-0.309980	-0.222366
O42	O	1.212295	-0.059980	0.027634
O43	O	1.462295	0.190020	0.277634
O44	O	1.712295	0.440020	0.527634
O45	O	0.843813	-0.309569	-0.331165
O46	O	1.093813	-0.059569	-0.081165
O47	O	1.343813	0.190431	0.168835
O48	O	1.593813	0.440431	0.418835
O49	O	0.948930	-0.398704	-0.535758
O50	O	1.198930	-0.148704	-0.285758
O51	O	1.448930	0.101296	-0.035758
O52	O	1.698930	0.351296	0.214242
O53	O	0.840105	-0.390022	-0.417252
O54	O	1.090105	-0.140022	-0.167252
O55	O	1.340105	0.109978	0.082748
O56	O	1.590105	0.359978	0.332748
O57	O	1.035094	-0.324829	-0.539462
O58	O	1.285094	-0.074829	-0.289462
O59	O	1.535094	0.175171	-0.039462
O60	O	1.785094	0.425171	0.210538
O61	O	1.043463	-0.496925	-0.339635
O62	O	1.293463	-0.246925	-0.089635
O63	O	1.543463	0.003075	0.160365
O64	O	1.793463	0.253075	0.410365
O65	O	0.953692	-0.496614	-0.422071
O66	O	1.203692	-0.246614	-0.172071
O67	O	1.453692	0.003386	0.077929
O68	O	1.703692	0.253386	0.327929
C69	C	0.816522	-0.348779	-0.373123
C70	C	1.066522	-0.098779	-0.123123
C71	C	1.316522	0.151221	0.126877
C72	C	1.566522	0.401221	0.376877
C73	C	0.738598	-0.345678	-0.369812
C74	C	0.988598	-0.095678	-0.119812
C75	C	1.238598	0.154322	0.130188
C76	C	1.488598	0.404322	0.380188
C77	C	0.297970	-0.326006	-0.348843
C78	C	0.547970	-0.076006	-0.098843
C79	C	0.797970	0.173994	0.151157
C80	C	1.047970	0.423994	0.401157
C81	C	0.371188	-0.328923	-0.351958
C82	C	0.621188	-0.078923	-0.101958
C83	C	0.871188	0.171077	0.148042
C84	C	1.121188	0.421077	0.398042
C85	C	0.405885	-0.372333	-0.398263
C86	C	0.655885	-0.122333	-0.148263
C87	C	0.905885	0.127667	0.101737
C88	C	1.155885	0.377667	0.351737
C89	C	0.367361	-0.412823	-0.441461
C90	C	0.617361	-0.162823	-0.191461
C91	C	0.867361	0.087177	0.058539
C92	C	1.117361	0.337177	0.308539
C93	C	0.294144	-0.409903	-0.438350
C94	C	0.544144	-0.159903	-0.188350
C95	C	0.794144	0.090097	0.061650
C96	C	1.044144	0.340097	0.311650
C97	C	0.626856	-0.383247	-0.409899
C98	C	0.876856	-0.133247	-0.159899
C99	C	1.126856	0.116753	0.090101
C100	C	1.376856	0.366753	0.340101
C101	C	0.700078	-0.386166	-0.413006
C102	C	0.950078	-0.136166	-0.163006
C103	C	1.200078	0.113834	0.086994
C104	C	1.450078	0.363834	0.336994
C105	C	0.703901	-0.302265	-0.323503
C106	C	0.953901	-0.052265	-0.073503
C107	C	1.203901	0.197735	0.176497
C108	C	1.453901	0.447735	0.426497
C109	C	0.630683	-0.299351	-0.320393
C110	C	0.880683	-0.049351	-0.070393
C111	C	1.130683	0.200649	0.179607
C112	C	1.380683	0.450649	0.429607
C113	C	0.592164	-0.339839	-0.363594
C114	C	0.842164	-0.089839	-0.113594
C115	C	1.092164	0.160161	0.136406
C116	C	1.342164	0.410161	0.386406
C117	C	0.480726	-0.375317	-0.401446
C118	C	0.730726	-0.125317	-0.151446
C119	C	0.980726	0.124683	0.098554
C120	C	1.230726	0.374683	0.348554
C121	C	0.517325	-0.336851	-0.360414
C122	C	0.767325	-0.086851	-0.110414
C123	C	1.017325	0.163149	0.139586
C124	C	1.267325	0.413149	0.389586
C125	C	0.998581	-0.519611	-0.380861
C126	C	1.248581	-0.269611	-0.130861
C127	C	1.498581	-0.019611	0.119139
C128	C	1.748581	0.230389	0.369139
C129	C	0.998607	-0.589580	-0.380871
C130	C	1.248607	-0.339580	-0.130871
C131	C	1.498607	-0.089580	0.119129
C132	C	1.748607	0.160420	0.369129
C133	C	1.041514	-0.625815	-0.427656
C134	C	1.291514	-0.375815	-0.177656
C135	C	1.541514	-0.125815	0.072344
C136	C	1.791514	0.124185	0.322344
C137	C	1.041538	-0.691559	-0.427674
C138	C	1.291538	-0.441559	-0.177674
C139	C	1.541538	-0.191559	0.072326
C140	C	1.791538	0.058441	0.322326
C141	C	0.998663	-0.721066	-0.380895
C142	C	1.248663	-0.471066	-0.130895
C143	C	1.498663	-0.221066	0.119105
C144	C	1.748663	0.028934	0.369105
C145	C	0.955747	-0.684822	-0.334107
C146	C	1.205747	-0.434822	-0.084107
C147	C	1.455747	-0.184822	0.165893
C148	C	1.705747	0.065178	0.415893
C149	C	0.955719	-0.619080	-0.334095
C150	C	1.205719	-0.369080	-0.084095
C151	C	1.455719	-0.119080	0.165905
C152	C	1.705719	0.130920	0.415905
N153	N	0.995988	-0.821870	-0.319316
N154	N	1.245988	-0.571870	-0.069316
N155	N	1.495988	-0.321870	0.180684
N156	N	1.745988	-0.071870	0.430684
N157	N	0.996018	-0.884323	-0.319330
N158	N	1.246018	-0.634323	-0.069330
N159	N	1.496018	-0.384323	0.180670
N160	N	1.746018	-0.134323	0.430670
C161	C	0.998743	-0.919145	-0.380930
C162	C	1.248743	-0.669145	-0.130930
C163	C	1.498743	-0.419145	0.119070
C164	C	1.748743	-0.169145	0.369070
N165	N	1.001450	-0.889154	-0.442519
N166	N	1.251450	-0.639154	-0.192519
N167	N	1.501450	-0.389154	0.057481
N168	N	1.751450	-0.139154	0.307481
N169	N	1.001423	-0.826696	-0.442504
N170	N	1.251423	-0.576696	-0.192504
N171	N	1.501423	-0.326696	0.057496
N172	N	1.751423	-0.076696	0.307496
C173	C	0.998688	-0.792352	-0.380904
C174	C	1.248688	-0.542352	-0.130904
C175	C	1.498688	-0.292352	0.119096
C176	C	1.748688	-0.042352	0.369096
C177	C	1.041679	-1.026667	-0.427739
C178	C	1.291679	-0.776667	-0.177739
C179	C	1.541679	-0.526667	0.072261
C180	C	1.791679	-0.276667	0.322261
C181	C	1.041698	-1.092412	-0.427758
C182	C	1.291698	-0.842412	-0.177758
C183	C	1.541698	-0.592412	0.072242
C184	C	1.791698	-0.342412	0.322242
C185	C	0.955910	-1.085674	-0.334185
C186	C	1.205910	-0.835674	-0.084185
C187	C	1.455910	-0.585674	0.165815
C188	C	1.705910	-0.335674	0.415815
C189	C	0.955887	-1.019930	-0.334172
C190	C	1.205887	-0.769930	-0.084172
C191	C	1.455887	-0.519930	0.165828
C192	C	1.705887	-0.269930	0.415828
C193	C	0.998775	-0.990431	-0.380948
C194	C	1.248775	-0.740431	-0.130948
C195	C	1.498775	-0.490431	0.119052
C196	C	1.748775	-0.240431	0.369052
C197	C	1.181527	-0.363378	-0.388709
C198	C	1.431527	-0.113378	-0.138709
C199	C	1.681527	0.136622	0.111291
C200	C	1.931527	0.386622	0.361291
C201	C	1.259451	-0.366495	-0.392037
C202	C	1.509451	-0.116495	-0.142037
C203	C	1.759451	0.133505	0.107963
C204	C	2.009451	0.383505	0.357963
C205	C	0.990901	-0.362718	-0.563759
C206	C	1.240901	-0.112718	-0.313759
C207	C	1.490901	0.137282	-0.063759
C208	C	1.740901	0.387282	0.186241
C209	C	0.987591	-0.365553	-0.641682
C210	C	1.237591	-0.115553	-0.391682
C211	C	1.487591	0.134447	-0.141682
C212	C	1.737591	0.384447	0.108318
C213	C	0.998776	-0.191880	-0.380956
C214	C	1.248776	0.058120	-0.130956
C215	C	1.498776	0.308120	0.119044
C216	C	1.748776	0.558120	0.369044
C217	C	0.998821	-0.121914	-0.380980
C218	C	1.248821	0.128086	-0.130980
C219	C	1.498821	0.378086	0.119020
C220	C	1.748821	0.628086	0.369020
C221	C	1.030894	-0.328425	-0.680219
C222	C	1.280894	-0.078425	-0.430219
C223	C	1.530894	0.171575	-0.180219
C224	C	1.780894	0.421575	0.069781
C225	C	1.027775	-0.331086	-0.753436
C226	C	1.277775	-0.081086	-0.503436
C227	C	1.527775	0.168914	-0.253436
C228	C	1.777775	0.418914	-0.003436
C229	C	0.981356	-0.370880	-0.788114
C230	C	1.231356	-0.120880	-0.538114
C231	C	1.481356	0.129120	-0.288114
C232	C	1.731356	0.379120	-0.038114
C233	C	0.938048	-0.408010	-0.749571
C234	C	1.188048	-0.158010	-0.499571
C235	C	1.438048	0.091990	-0.249571
C236	C	1.688048	0.341990	0.000429
C237	C	0.941164	-0.405345	-0.676355
C238	C	1.191164	-0.155345	-0.426355
C239	C	1.441164	0.094655	-0.176355
C240	C	1.691164	0.344655	0.073645
C241	C	0.969701	-0.380849	-1.009081
C242	C	1.219701	-0.130849	-0.759081
C243	C	1.469701	0.119151	-0.509081
C244	C	1.719701	0.369151	-0.259081
C245	C	0.966590	-0.383513	-1.082301
C246	C	1.216590	-0.133513	-0.832301
C247	C	1.466590	0.116487	-0.582301
C248	C	1.716590	0.366487	-0.332301
C249	C	1.056316	-0.306588	-1.086162
C250	C	1.306316	-0.056588	-0.836162
C251	C	1.556316	0.193412	-0.586162
C252	C	1.806316	0.443412	-0.336162
C253	C	1.059431	-0.303929	-1.012945
C254	C	1.309431	-0.053929	-0.762945
C255	C	1.559431	0.196071	-0.512945
C256	C	1.809431	0.446071	-0.262945
C257	C	1.016120	-0.341056	-0.974408
C258	C	1.266120	-0.091056	-0.724408
C259	C	1.516120	0.158944	-0.474408
C260	C	1.766120	0.408944	-0.224408
C261	C	0.978169	-0.373603	-0.862953
C262	C	1.228169	-0.123603	-0.612953
C263	C	1.478169	0.126397	-0.362953
C264	C	1.728169	0.376397	-0.112953
C265	C	1.019305	-0.338330	-0.899570
C266	C	1.269305	-0.088330	-0.649570
C267	C	1.519305	0.161670	-0.399570
C268	C	1.769305	0.411670	-0.149570
C269	C	1.006447	-0.349392	-0.198756
C270	C	1.256447	-0.099392	0.051244
C271	C	1.506447	0.150608	0.301244
C272	C	1.756447	0.400608	0.551244
C273	C	1.009893	-0.346384	-0.120839
C274	C	1.259893	-0.096384	0.129161
C275	C	1.509893	0.153616	0.379161
C276	C	1.759893	0.403616	0.629161
H277	H	0.735270	-0.269301	-0.288332
H278	H	0.985270	-0.019301	-0.038332
H279	H	1.235270	0.230699	0.211668
H280	H	1.485270	0.480699	0.461668
H281	H	1.091576	-0.276360	-1.117546
H282	H	1.341576	-0.026360	-0.867546
H283	H	1.591576	0.223640	-0.617546
H284	H	1.841576	0.473640	-0.367546
Br285	Br	0.241866	-0.464849	-0.496977
Br286	Br	0.491866	-0.214849	-0.246977
Br287	Br	0.741866	0.035151	0.003023
Br288	Br	0.991866	0.285151	0.253023
H289	H	0.508984	-0.410663	-0.439146
H290	H	0.758984	-0.160663	-0.189146
H291	H	1.008984	0.089337	0.060854
H292	H	1.258984	0.339337	0.310854
Br293	Br	1.099923	-1.141590	-0.491268
Br294	Br	1.349923	-0.891590	-0.241268
Br295	Br	1.599923	-0.641590	0.008732
Br296	Br	1.849923	-0.391590	0.258732
Br297	Br	0.910921	-0.431235	-0.956790
Br298	Br	1.160921	-0.181235	-0.706790
Br299	Br	1.410921	0.068765	-0.456790
Br300	Br	1.660921	0.318765	-0.206790
Br301	Br	0.875046	-0.462013	-0.796633
Br302	Br	1.125046	-0.212013	-0.546633
Br303	Br	1.375046	0.037987	-0.296633
Br304	Br	1.625046	0.287987	-0.046633
Br305	Br	0.897551	-0.724865	-0.270628
Br306	Br	1.147551	-0.474865	-0.020628
Br307	Br	1.397551	-0.224865	0.229372
Br308	Br	1.647551	0.025135	0.479372
Br309	Br	0.897717	-1.125712	-0.270703
Br310	Br	1.147717	-0.875712	-0.020703
Br311	Br	1.397717	-0.625712	0.229297
Br312	Br	1.647717	-0.375712	0.479297
Br313	Br	1.099880	-0.986628	-0.491220
Br314	Br	1.349880	-0.736628	-0.241220
Br315	Br	1.599880	-0.486628	0.008780
Br316	Br	1.849880	-0.236628	0.258780
Br317	Br	0.470235	-0.277936	-0.297577
Br318	Br	0.720235	-0.027936	-0.047577
Br319	Br	0.970235	0.222064	0.202423
Br320	Br	1.220235	0.472064	0.452423
H321	H	1.076434	-0.601798	-0.465745
H322	H	1.326434	-0.351798	-0.215745
H323	H	1.576434	-0.101798	0.034255
H324	H	1.826434	0.148202	0.284255
H325	H	0.920778	-0.589576	-0.295996
H326	H	1.170778	-0.339576	-0.045996
H327	H	1.420778	-0.089576	0.204004
H328	H	1.670778	0.160424	0.454004
Br329	Br	1.122433	-0.249923	-0.965887
Br330	Br	1.372433	0.000077	-0.715887
Br331	Br	1.622433	0.250077	-0.465887
Br332	Br	1.872433	0.500077	-0.215887
H333	H	1.076472	-0.721067	-0.465779
H334	H	1.326472	-0.471067	-0.215779
H335	H	1.576472	-0.221067	0.034221
H336	H	1.826472	0.028933	0.284221
Br337	Br	0.574591	-0.438198	-0.468527
Br338	Br	0.824591	-0.188198	-0.218527
Br339	Br	1.074591	0.061802	0.031473
Br340	Br	1.324591	0.311802	0.281473
Br341	Br	0.897651	-0.970751	-0.270677
Br342	Br	1.147651	-0.720751	-0.020677
Br343	Br	1.397651	-0.470751	0.229323
Br344	Br	1.647651	-0.220751	0.479323
H345	H	0.928788	-0.415919	-1.110534
H346	H	1.178788	-0.165919	-0.860534
H347	H	1.428788	0.084081	-0.610534
H348	H	1.678788	0.334081	-0.360534
H349	H	0.905895	-0.435572	-0.644978
H350	H	1.155895	-0.185572	-0.394978
H351	H	1.405895	0.064428	-0.144978
H352	H	1.655895	0.314428	0.105022
H353	H	1.068696	-0.296022	-0.651990
H354	H	1.318696	-0.046022	-0.401990
H355	H	1.568696	0.203978	-0.151990
H356	H	1.818696	0.453978	0.098010
H357	H	1.063039	-0.300854	-0.784810
H358	H	1.313039	-0.050854	-0.534810
H359	H	1.563039	0.199146	-0.284810
H360	H	1.813039	0.449146	-0.034810
Br361	Br	1.082291	-0.284317	-0.852506
Br362	Br	1.332291	-0.034317	-0.602506
Br363	Br	1.582291	0.215683	-0.352506
Br364	Br	1.832291	0.465683	-0.102506
H365	H	0.402548	-0.295956	-0.316781
H366	H	0.652548	-0.045956	-0.066781
H367	H	0.902548	0.204044	0.183219
H368	H	1.152548	0.454044	0.433219
H369	H	0.728326	-0.421516	-0.450717
H370	H	0.978326	-0.171516	-0.200717
H371	H	1.228326	0.078484	0.049283
H372	H	1.478326	0.328484	0.299283
H373	H	0.269725	-0.290658	-0.311136
H374	H	0.519725	-0.040658	-0.061136
H375	H	0.769725	0.209342	0.188864
H376	H	1.019725	0.459342	0.438864
H377	H	0.940377	-0.406007	-0.891196
H378	H	1.190377	-0.156007	-0.641196
H379	H	1.440377	0.093993	-0.391196
H380	H	1.690377	0.343993	-0.141196
Br381	Br	0.583598	-0.240433	-0.257551
Br382	Br	0.833598	0.009567	-0.007551
Br383	Br	1.083598	0.259567	0.242449
Br384	Br	1.333598	0.509567	0.492449
H385	H	0.395617	-0.448166	-0.479167
H386	H	0.645617	-0.198166	-0.229167
H387	H	0.895617	0.051834	0.020833
H388	H	1.145617	0.301834	0.270833
