data_functionalizedCrystal
_audit_creation_method	'MofGen! by Chris Wilmer'
_symmetry_space_group_name_H-M	'P1'
_symmetry_Int_Tables_number	1
_symmetry_cell_setting	triclinic
loop_
_symmetry_equiv_pos_as_xyz
  x,y,z
_cell_length_a	11.169417
_cell_length_b	18.215405
_cell_length_c	11.169409
_cell_angle_alpha	90.036788
_cell_angle_beta	90.019824
_cell_angle_gamma	90.023610
loop_
_atom_site_label
_atom_site_type_symbol
_atom_site_fract_x
_atom_site_fract_y
_atom_site_fract_z
Zn1	Zn	1.834859	-0.292907	0.678506
Zn2	Zn	2.334859	0.207093	1.178506
Zn3	Zn	1.834705	-0.415999	0.477807
Zn4	Zn	2.334705	0.084001	0.977807
Zn5	Zn	1.634145	-0.292952	0.477840
Zn6	Zn	2.134145	0.207048	0.977840
Zn7	Zn	1.634109	-0.415939	0.678452
Zn8	Zn	2.134109	0.084061	1.178452
O9	O	1.734454	-0.354449	0.578151
O10	O	2.234454	0.145551	1.078151
O11	O	2.002788	-0.309242	0.651891
O12	O	2.502788	0.190758	1.151891
O13	O	1.808051	-0.399720	0.309861
O14	O	2.308051	0.100280	0.809861
O15	O	1.660850	-0.189962	0.504495
O16	O	2.160850	0.310038	1.004495
O17	O	2.002675	-0.399677	0.504439
O18	O	2.502675	0.100323	1.004439
O19	O	1.808313	-0.189929	0.651923
O20	O	2.308313	0.310071	1.151923
O21	O	1.660700	-0.309318	0.309886
O22	O	2.160700	0.190682	0.809886
O23	O	1.466190	-0.309260	0.504443
O24	O	1.966190	0.190740	1.004443
O25	O	1.660788	-0.399574	0.846409
O26	O	2.160788	0.100426	1.346409
O27	O	1.466164	-0.399618	0.651832
O28	O	1.966164	0.100382	1.151832
O29	O	1.808279	-0.309184	0.846448
O30	O	2.308279	0.190816	1.346448
O31	O	1.808016	-0.518975	0.504387
O32	O	2.308016	-0.018975	1.004387
O33	O	1.660639	-0.518931	0.651799
O34	O	2.160639	-0.018931	1.151799
C35	C	1.422630	-0.354438	0.578136
C36	C	1.922630	0.145562	1.078136
C37	C	1.289230	-0.354451	0.578157
C38	C	1.789230	0.145549	1.078157
C39	C	1.734339	-0.545656	0.578110
C40	C	2.234339	-0.045656	1.078110
C41	C	1.734400	-0.627454	0.578132
C42	C	2.234400	-0.127454	1.078132
C43	C	1.811221	-0.815570	0.655002
C44	C	2.311221	-0.315570	1.155002
C45	C	1.811264	-0.892429	0.655024
C46	C	2.311264	-0.392429	1.155024
C47	C	1.657836	-0.892576	0.501375
C48	C	2.157836	-0.392576	1.001375
C49	C	1.657788	-0.815719	0.501359
C50	C	2.157788	-0.315719	1.001359
C51	C	1.734487	-0.777218	0.578171
C52	C	2.234487	-0.277218	1.078171
C53	C	1.734579	-0.930934	0.578209
C54	C	2.234579	-0.430934	1.078209
C55	C	1.734626	-1.014268	0.578233
C56	C	2.234626	-0.514268	1.078233
C57	C	1.734439	-0.693879	0.578149
C58	C	2.234439	-0.193879	1.078149
C59	C	2.047497	-0.354461	0.578167
C60	C	2.547497	0.145539	1.078167
C61	C	2.180897	-0.354466	0.578174
C62	C	2.680897	0.145534	1.078174
C63	C	1.734547	-0.354368	0.891194
C64	C	2.234547	0.145632	1.391194
C65	C	1.734586	-0.354333	1.024594
C66	C	2.234586	0.145667	1.524594
C67	C	1.734603	-0.162496	0.578219
C68	C	2.234603	0.337504	1.078219
C69	C	1.734666	-0.080697	0.578248
C70	C	2.234666	0.419303	1.078248
C71	C	1.734432	-0.354478	0.266326
C72	C	2.234432	0.145522	0.766326
C73	C	1.734625	-0.354305	0.132927
C74	C	2.234625	0.145695	0.632927
H75	H	1.873672	-0.784224	0.717549
H76	H	2.373672	-0.284224	1.217549
O77	O	1.885919	-0.929570	0.729694
O78	O	2.385919	-0.429570	1.229694
C79	C	2.038045	-0.921308	0.882140
C80	C	2.538045	-0.421308	1.382140
C81	C	1.953578	-0.879155	0.797612
C82	C	2.453578	-0.379155	1.297612
H83	H	2.092752	-0.880565	0.937092
H84	H	2.592752	-0.380565	1.437092
H85	H	2.100933	-0.957268	0.827162
H86	H	2.600933	-0.457268	1.327162
H87	H	1.982912	-0.957305	0.944806
H88	H	2.482912	-0.457305	1.444806
H89	H	2.008615	-0.843117	0.734929
H90	H	2.508615	-0.343117	1.234929
H91	H	1.890688	-0.843241	0.852665
H92	H	2.390688	-0.343241	1.352665
H93	H	1.595393	-0.923933	0.438835
H94	H	2.095393	-0.423933	0.938835
H95	H	1.595296	-0.784490	0.438794
H96	H	2.095296	-0.284490	0.938794
