data_functionalizedCrystal
_audit_creation_method	'MofGen! by Chris Wilmer'
_symmetry_space_group_name_H-M	'P1'
_symmetry_Int_Tables_number	1
_symmetry_cell_setting	triclinic
loop_
_symmetry_equiv_pos_as_xyz
  x,y,z
_cell_length_a	12.594517
_cell_length_b	25.639240
_cell_length_c	12.594509
_cell_angle_alpha	90.041310
_cell_angle_beta	90.021327
_cell_angle_gamma	90.032557
loop_
_atom_site_label
_atom_site_type_symbol
_atom_site_fract_x
_atom_site_fract_y
_atom_site_fract_z
Zn1	Zn	1.627143	-0.208138	0.601763
Zn2	Zn	1.626982	-0.295580	0.423744
Zn3	Zn	1.449147	-0.208160	0.423792
Zn4	Zn	1.449078	-0.295544	0.601674
O5	O	1.538088	-0.251855	0.512743
O6	O	1.776068	-0.219743	0.578166
O7	O	1.603354	-0.284008	0.274805
O8	O	1.472855	-0.134992	0.447458
O9	O	1.775949	-0.283987	0.447376
O10	O	1.603628	-0.134976	0.578212
O11	O	1.472699	-0.219781	0.274840
O12	O	1.300192	-0.219746	0.447371
O13	O	1.472737	-0.283925	0.750632
O14	O	1.300141	-0.283946	0.578060
O15	O	1.603561	-0.219708	0.750697
O16	O	1.603286	-0.368740	0.447289
O17	O	1.472580	-0.368714	0.578014
C18	C	1.261547	-0.251845	0.512712
C19	C	1.143241	-0.251853	0.512724
C20	C	1.073985	-0.216887	0.441778
C21	C	1.003146	-0.264579	0.415576
C22	C	1.003282	-0.204184	0.538944
C23	C	1.073960	-0.299570	0.486471
C24	C	1.074102	-0.239144	0.609885
C25	C	1.003295	-0.286869	0.583720
C26	C	1.537937	-0.387698	0.512660
C27	C	1.537970	-0.445812	0.512660
C28	C	1.606215	-0.806128	0.580950
C29	C	1.606246	-0.860732	0.580972
O30	O	1.664091	-0.888929	0.638949
N31	N	1.538235	-0.888094	0.512846
C32	C	1.470181	-0.860849	0.444702
O33	O	1.412334	-0.889137	0.386759
C34	C	1.470145	-0.806246	0.444687
C35	C	1.538168	-0.778887	0.512809
C36	C	1.674232	-0.778769	0.649068
C37	C	1.674201	-0.724168	0.649045
C38	C	1.606154	-0.696927	0.580904
C39	C	1.538138	-0.724286	0.512786
C40	C	1.402086	-0.779002	0.376549
C41	C	1.402055	-0.724395	0.376540
C42	C	1.470078	-0.697036	0.444662
C43	C	1.470060	-0.642445	0.444622
N44	N	1.538071	-0.615083	0.512747
C45	C	1.606118	-0.642324	0.580888
C46	C	1.470260	-0.975520	0.444741
C47	C	1.470301	-1.030122	0.444751
C48	C	1.606365	-1.030002	0.581022
C49	C	1.606329	-0.975398	0.581006
C50	C	1.538271	-0.948158	0.512867
C51	C	1.606050	-0.527659	0.580833
C52	C	1.606017	-0.473053	0.580801
C53	C	1.469949	-0.473179	0.444534
C54	C	1.469986	-0.527780	0.444562
C55	C	1.538040	-0.555018	0.512720
O56	O	1.412242	-0.614213	0.386677
O57	O	1.663945	-0.614029	0.638832
C58	C	1.815708	-0.251866	0.512775
C59	C	1.934014	-0.251871	0.512789
C60	C	1.538159	-0.251810	0.790364
C61	C	1.538189	-0.251790	0.908670
C62	C	1.538268	-0.115482	0.512850
C63	C	1.538344	-0.057368	0.512896
C64	C	1.538078	-0.251863	0.236202
C65	C	1.538254	-0.251736	0.117898
C66	C	1.467056	-0.286698	0.977888
C67	C	1.564169	-0.299473	1.048672
C68	C	1.441152	-0.238984	1.048685
C69	C	1.635353	-0.264590	0.977896
C70	C	1.512270	-0.204079	0.977903
C71	C	1.609450	-0.216836	1.048655
H72	H	1.105024	-0.187346	0.381707
N73	N	1.675888	-1.057832	0.650619
N74	N	1.743750	-1.088289	0.613239
H75	H	1.792850	-1.107946	0.662387
N76	N	1.112718	-0.350170	0.458565
N77	N	1.089336	-0.388787	0.514403
H78	H	1.116709	-0.424523	0.494693
H79	H	0.972179	-0.163870	0.561057
H80	H	1.414549	-0.450991	0.389051
H81	H	1.359062	-0.228175	1.079780
H82	H	1.414921	-1.052394	0.389267
N83	N	0.964061	-0.278077	0.312529
N84	N	0.986699	-0.250292	0.234222
H85	H	0.959102	-0.259822	0.161442
H86	H	1.414842	-0.953344	0.389245
H87	H	1.669702	-0.187292	1.079531
N88	N	1.332581	-0.806932	0.306969
N89	N	1.271821	-0.782592	0.246156
H90	H	1.222721	-0.802316	0.197017
H91	H	1.414605	-0.550057	0.389083
N92	N	0.964611	-0.324018	0.659018
N93	N	0.987477	-0.371204	0.649081
H94	H	0.960156	-0.397443	0.702257
H95	H	1.586127	-0.339798	1.079758
H96	H	1.490284	-0.163765	0.946793
N97	N	1.391656	-0.323791	0.938915
N98	N	1.401383	-0.371000	0.961612
H99	H	1.348136	-0.397198	0.934088
N100	N	1.332519	-0.696571	0.306949
N101	N	1.234306	-0.702709	0.313930
H102	H	1.185196	-0.683059	0.264781
H103	H	1.105293	-0.228368	0.691999
H104	H	1.661414	-0.450779	0.636274
N105	N	1.743737	-0.806598	0.718673
N106	N	1.706289	-0.837056	0.786480
H107	H	1.755385	-0.856709	0.835638
H108	H	1.661459	-0.549830	0.636342
N109	N	1.743691	-0.696234	0.718639
N110	N	1.804435	-0.720572	0.779470
H111	H	1.853515	-0.700847	0.828628
H112	H	1.717467	-0.275445	0.946932
H113	H	1.661719	-0.953125	0.636478
