data_functionalizedCrystal
_audit_creation_method	'MofGen! by Chris Wilmer'
_symmetry_space_group_name_H-M	'P1'
_symmetry_Int_Tables_number	1
_symmetry_cell_setting	triclinic
loop_
_symmetry_equiv_pos_as_xyz
  x,y,z
_cell_length_a	23.532361
_cell_length_b	14.971486
_cell_length_c	13.448316
_cell_angle_alpha	90.006811
_cell_angle_beta	89.997511
_cell_angle_gamma	96.778102
loop_
_atom_site_label
_atom_site_type_symbol
_atom_site_fract_x
_atom_site_fract_y
_atom_site_fract_z
O1	O	0.755743	-0.108382	-0.082593
O2	O	0.589943	-0.124136	-0.082617
O3	O	0.677287	0.013989	-0.082597
O4	O	0.668399	-0.246507	-0.082612
O5	O	0.677276	0.013997	0.082787
O6	O	0.589932	-0.124128	0.082767
O7	O	0.755732	-0.108374	0.082791
Cu8	Cu	0.672831	-0.116250	0.097880
Cu9	Cu	0.672844	-0.116260	-0.097706
O10	O	0.668388	-0.246499	0.082771
C11	C	0.676884	0.047314	0.000095
C12	C	0.675693	0.146598	0.000093
C13	C	0.568719	-0.123737	0.000072
C14	C	0.505496	-0.122551	0.000063
N15	N	0.672826	-0.116242	0.235444
C16	C	0.232236	-0.117368	-0.090081
C17	C	0.291640	-0.118490	-0.090084
O18	O	0.322374	-0.119044	-0.166752
N19	N	0.321342	-0.119053	0.000067
C20	C	0.291638	-0.118484	0.090227
O21	O	0.322356	-0.119065	0.166907
C22	C	0.232235	-0.117354	0.090228
C23	C	0.202535	-0.116801	0.000071
C24	C	0.202536	-0.116813	-0.180231
C25	C	0.143135	-0.115692	-0.180228
C26	C	0.113435	-0.115125	-0.090075
C27	C	0.143134	-0.115680	0.000074
C28	C	0.202531	-0.116779	0.180387
C29	C	0.143125	-0.115649	0.180380
C30	C	0.113425	-0.115095	0.090223
C31	C	0.054033	-0.113992	0.090230
N32	N	0.024331	-0.113430	0.000079
C33	C	0.054032	-0.113996	-0.090074
C34	C	0.416388	-0.120854	0.090217
C35	C	0.475789	-0.121989	0.090216
C36	C	0.475788	-0.121994	-0.090094
C37	C	0.416385	-0.120865	-0.090093
C38	C	0.386686	-0.120291	0.000066
C39	C	-0.070714	-0.111643	-0.090061
C40	C	-0.130120	-0.110525	-0.090050
C41	C	-0.130113	-0.110516	0.090260
C42	C	-0.070713	-0.111638	0.090250
C43	C	-0.041014	-0.112198	0.000081
O44	O	0.023262	-0.113434	0.166858
O45	O	0.023307	-0.113403	-0.166741
C46	C	0.776955	-0.108772	0.000100
C47	C	0.840179	-0.109959	0.000102
C48	C	0.668791	-0.279824	0.000078
C49	C	0.669982	-0.379108	0.000072
C50	C	0.727005	0.204379	0.000102
C51	C	0.725882	0.297666	0.000091
C52	C	0.673447	0.333171	0.000080
C53	C	0.622131	0.275382	0.000069
C54	C	0.623254	0.182097	0.000072
C55	C	0.619793	0.469820	0.000065
C56	C	0.618670	0.563111	0.000064
C57	C	0.722421	0.585389	0.000084
C58	C	0.723545	0.492103	0.000087
C59	C	0.672228	0.434321	0.000078
N60	N	0.672853	-0.116260	-0.235270
C61	C	0.711514	-0.055106	0.287493
C62	C	0.711517	-0.055105	0.391597
C63	C	0.672835	-0.116246	0.443649
C64	C	0.634143	-0.177386	0.391592
C65	C	0.634137	-0.177382	0.287491
C66	C	0.634159	-0.177392	0.608573
C67	C	0.634165	-0.177397	0.712681
C68	C	0.711539	-0.055115	0.712678
C69	C	0.711533	-0.055111	0.608577
C70	C	0.672842	-0.116252	0.556527
H71	H	-0.154299	-0.110077	-0.163470
C72	C	0.778870	0.648951	0.000087
N73	N	0.821385	0.696829	0.000091
H74	H	0.602666	-0.227184	0.755057
C75	C	-0.038055	-0.112265	-0.189251
N76	N	-0.013457	-0.112740	-0.263961
H77	H	0.743015	-0.005321	0.245119
C78	C	0.383722	-0.120246	-0.189272
N79	N	0.359123	-0.119777	-0.263977
C80	C	0.563342	0.406261	0.000060
N81	N	0.520824	0.358389	0.000063
C82	C	0.591582	-0.244644	0.230238
N83	N	0.559529	-0.295309	0.187116
H84	H	0.743033	-0.005329	0.566196
H85	H	0.743042	-0.005332	0.755062
H86	H	0.602651	-0.227177	0.566198
C87	C	0.508471	-0.122609	-0.189265
N88	N	0.533090	-0.123070	-0.263955
H89	H	0.602645	-0.227165	0.433979
C90	C	0.110475	-0.115064	-0.279409
N91	N	0.085879	-0.114584	-0.354117
C92	C	0.235189	-0.117379	0.279568
N93	N	0.259785	-0.117827	0.354278
H94	H	0.499965	-0.122454	0.163631
C95	C	0.235198	-0.117435	-0.279415
N96	N	0.259794	-0.117908	-0.354127
H97	H	0.392210	-0.120398	0.163640
H98	H	-0.046531	-0.112106	0.163663
C99	C	0.110459	-0.115022	0.279565
N100	N	0.085856	-0.114555	0.354271
H101	H	-0.154307	-0.110058	0.163660
C102	C	0.784688	0.165333	0.000114
N103	N	0.828138	0.135927	0.000119
C104	C	0.782330	0.361222	0.000117
N105	N	0.824848	0.409092	0.000140
H106	H	0.743019	-0.005322	0.433974
C107	C	0.560989	0.602164	0.000039
N108	N	0.517542	0.631578	0.000017
H109	H	0.579437	0.304297	0.000054
C110	C	0.566807	0.118538	0.000066
N111	N	0.524289	0.070665	0.000058
H112	H	0.766242	0.463199	0.000104
