data_functionalizedCrystal
_audit_creation_method	'MofGen! by Chris Wilmer'
_symmetry_space_group_name_H-M	'P1'
_symmetry_Int_Tables_number	1
_symmetry_cell_setting	triclinic
loop_
_symmetry_equiv_pos_as_xyz
  x,y,z
_cell_length_a	18.101398
_cell_length_b	18.050590
_cell_length_c	18.101389
_cell_angle_alpha	90.019149
_cell_angle_beta	90.009745
_cell_angle_gamma	90.014109
loop_
_atom_site_label
_atom_site_type_symbol
_atom_site_fract_x
_atom_site_fract_y
_atom_site_fract_z
Zn1	Zn	1.132186	-0.295825	0.418547
Zn2	Zn	1.132109	-0.420000	0.294704
Zn3	Zn	1.008344	-0.295818	0.294740
Zn4	Zn	1.008322	-0.419968	0.418524
O5	O	1.070240	-0.357903	0.356628
O6	O	1.235808	-0.312313	0.402113
O7	O	1.115668	-0.403537	0.191076
O8	O	1.024814	-0.191895	0.311187
O9	O	1.235752	-0.403544	0.311126
O10	O	1.115799	-0.191900	0.402148
O11	O	1.024739	-0.312301	0.191102
O12	O	0.904709	-0.312271	0.311165
O13	O	1.024776	-0.403491	0.522160
O14	O	0.904692	-0.403484	0.402109
O15	O	1.115778	-0.312283	0.522177
O16	O	1.115647	-0.523920	0.311104
O17	O	1.024701	-0.523897	0.402074
C18	C	0.877830	-0.357874	0.356639
C19	C	0.795516	-0.357879	0.356661
C20	C	0.496425	-0.357923	0.356630
C21	C	0.527764	-0.415589	0.413567
C22	C	0.613383	-0.415408	0.413801
C23	C	0.644807	-0.357902	0.356645
C24	C	0.613736	-0.279684	0.377974
C25	C	0.528091	-0.280030	0.378379
C26	C	0.527976	-0.377785	0.278227
C27	C	0.613627	-0.379502	0.278646
C28	C	0.728667	-0.357885	0.356653
C29	C	0.412565	-0.357934	0.356624
C30	C	1.070183	-0.550855	0.356599
C31	C	1.070227	-0.633401	0.356611
C32	C	1.119786	-0.832837	0.307211
C33	C	1.137875	-0.882182	0.374798
C34	C	1.070269	-0.784531	0.356641
C35	C	1.052255	-0.882268	0.289084
C36	C	1.070311	-0.930516	0.356663
C37	C	1.088393	-0.832789	0.424263
C38	C	1.002741	-0.832871	0.338504
C39	C	1.020805	-0.882193	0.406138
C40	C	1.070246	-0.700433	0.356627
C41	C	1.070333	-1.014613	0.356685
C42	C	1.263402	-0.357933	0.356619
C43	C	1.345716	-0.357946	0.356614
C44	C	1.070283	-0.357884	0.549790
C45	C	1.070301	-0.357876	0.632105
C46	C	1.070318	-0.164197	0.356674
C47	C	1.070350	-0.081652	0.356694
C48	C	1.070240	-0.357868	0.164218
C49	C	1.070365	-0.357667	0.081904
C50	C	1.070344	-0.357737	0.931196
C51	C	1.012891	-0.414940	0.899860
C52	C	1.013047	-0.415205	0.814242
C53	C	1.070322	-0.357806	0.782813
C54	C	1.148352	-0.379056	0.813899
C55	C	1.148032	-0.379431	0.899544
C56	C	1.050446	-0.279157	0.899626
C57	C	1.048710	-0.279611	0.813975
C58	C	1.070315	-0.357844	0.698954
C59	C	1.070357	-0.357701	1.015055
H60	H	0.635018	-0.340549	0.233945
N61	N	0.500774	-0.399321	0.486021
N62	N	0.432840	-0.399526	0.498394
H63	H	0.413776	-0.388035	0.549565
N64	N	0.640662	-0.258155	0.449089
N65	N	0.708593	-0.252016	0.459901
H66	H	0.727611	-0.236813	0.510128
N67	N	1.029646	-0.488240	0.788522
N68	N	1.032685	-0.501121	0.720737
H69	H	1.044441	-0.552697	0.702572
H70	H	1.164899	-0.436874	0.919522
N71	N	0.502066	-0.224308	0.328630
N72	N	0.462404	-0.241952	0.274894
H73	H	0.444027	-0.202597	0.239762
H74	H	0.634390	-0.473412	0.400433
N75	N	0.502566	-0.325103	0.224991
N76	N	0.548045	-0.286974	0.189581
H77	H	0.530098	-0.249766	0.151986
N78	N	1.172342	-0.805643	0.254837
N79	N	1.224287	-0.765124	0.275803
H80	H	1.261407	-0.745917	0.238819
N81	N	0.501905	-0.488593	0.397011
N82	N	0.464688	-0.523524	0.443582
H83	H	0.446419	-0.575086	0.431893
N84	N	1.209532	-0.909390	0.394029
N85	N	1.264100	-0.893592	0.354762
H86	H	1.314707	-0.912820	0.368330
H87	H	1.092292	-0.236538	0.919892
N88	N	0.500862	-0.448100	0.253895
N89	N	0.432952	-0.458211	0.246440
H90	H	0.413801	-0.507873	0.229261
N91	N	1.107613	-0.805634	0.495964
N92	N	1.110722	-0.737429	0.507518
H93	H	1.124300	-0.718248	0.558154
H94	H	1.087501	-0.234729	0.792582
N95	N	1.169889	-0.450355	0.787014
N96	N	1.230692	-0.477378	0.805574
H97	H	1.245900	-0.527736	0.786589
N98	N	0.976680	-0.259516	0.788463
N99	N	0.964295	-0.254136	0.720741
H100	H	0.913424	-0.239949	0.702713
H101	H	0.633882	-0.402267	0.471892
N102	N	0.503051	-0.258891	0.450282
N103	N	0.548828	-0.243987	0.499817
H104	H	0.531148	-0.229057	0.550601
H105	H	0.634090	-0.235554	0.337798
N106	N	0.639102	-0.451715	0.258480
N107	N	0.680071	-0.487181	0.301352
H108	H	0.698066	-0.538182	0.287113
N109	N	1.203565	-0.329457	0.925568
N110	N	1.213225	-0.320836	0.993405
H111	H	1.252448	-0.285547	1.011783
H112	H	0.945633	-0.811192	0.323129
H113	H	0.994534	-0.259798	0.921226
N114	N	0.968283	-0.909207	0.458636
N115	N	0.901570	-0.892458	0.452427
H116	H	0.864477	-0.911535	0.489506
N117	N	0.940465	-0.398530	0.787856
N118	N	0.928161	-0.395878	0.719958
H119	H	0.876897	-0.384104	0.701325
N120	N	1.033126	-0.909529	0.217399
N121	N	1.072454	-0.893715	0.162883
H122	H	1.058950	-0.912966	0.112254
N123	N	0.940081	-0.398421	0.925688
N124	N	0.911232	-0.337253	0.911050
H125	H	0.859808	-0.325585	0.929296
N126	N	1.029210	-0.487558	0.926868
N127	N	1.082969	-0.497367	0.969093
H128	H	1.094496	-0.548653	0.988170
N129	N	1.203491	-0.328427	0.788361
N130	N	1.185852	-0.275995	0.746865
H131	H	1.224792	-0.240237	0.728827
