data_functionalizedCrystal
_audit_creation_method	'MofGen! by Chris Wilmer'
_symmetry_space_group_name_H-M	'P1'
_symmetry_Int_Tables_number	1
_symmetry_cell_setting	triclinic
loop_
_symmetry_equiv_pos_as_xyz
  x,y,z
_cell_length_a	17.699083
_cell_length_b	15.538191
_cell_length_c	16.776229
_cell_angle_alpha	89.995703
_cell_angle_beta	89.998886
_cell_angle_gamma	65.277554
loop_
_atom_site_label
_atom_site_type_symbol
_atom_site_fract_x
_atom_site_fract_y
_atom_site_fract_z
O1	O	0.971508	0.119201	-0.066172
O2	O	0.746892	0.134709	-0.066198
O3	O	0.902923	-0.010275	-0.066184
O4	O	0.815476	0.264184	-0.066186
O5	O	0.902910	-0.010283	0.066393
O6	O	0.746879	0.134700	0.066379
O7	O	0.971495	0.119192	0.066404
Zn8	Zn	0.859185	0.126945	0.087441
Zn9	Zn	0.859202	0.126956	-0.087235
O10	O	0.815463	0.264176	0.066390
C11	C	0.718840	0.134149	0.000087
C12	C	0.635277	0.132482	0.000077
C13	C	0.563403	0.217584	0.000077
C14	C	0.484889	0.216012	0.000087
C15	C	0.478252	0.129337	0.000092
C16	C	0.550134	0.044228	0.000095
C17	C	0.628646	0.045801	0.000090
C18	C	0.233505	0.037882	0.000115
C19	C	0.154985	0.036316	0.000117
C20	C	0.089748	0.208094	0.000111
C21	C	0.168260	0.209667	0.000107
C22	C	0.240135	0.124558	0.000114
C23	C	0.325269	0.126264	0.000104
C24	C	0.393120	0.127630	0.000096
C25	C	0.912066	-0.045395	0.000103
C26	C	0.939318	-0.150032	0.000098
C27	C	0.668571	-0.437202	0.000084
C28	C	0.694198	-0.535527	0.000089
C29	C	0.838344	-0.558300	0.000105
C30	C	0.812729	-0.459975	0.000096
C31	C	0.727842	-0.399434	0.000087
C32	C	0.872000	-0.422207	0.000099
C33	C	0.846387	-0.323891	0.000095
C34	C	0.761503	-0.263343	0.000087
C35	C	0.702229	-0.301118	0.000082
C36	C	0.956887	-0.482750	0.000114
C37	C	1.016158	-0.444981	0.000117
C38	C	0.990545	-0.346663	0.000107
C39	C	0.905661	-0.286116	0.000100
C40	C	1.049819	-0.308889	0.000112
C41	C	1.024206	-0.210573	0.000107
C42	C	0.880048	-0.187800	0.000095
C43	C	0.999546	0.119752	0.000117
C44	C	1.083109	0.121419	0.000122
C45	C	0.806321	0.299297	0.000102
C46	C	0.779068	0.403933	0.000101
N47	N	0.859179	0.126936	0.206652
N48	N	0.859216	0.126957	-0.206446
C49	C	0.928278	0.062764	0.248375
C50	C	0.928282	0.062763	0.331827
C51	C	0.859189	0.126940	0.373555
C52	C	0.790084	0.191115	0.331826
C53	C	0.790078	0.191111	0.248375
C54	C	0.790106	0.191134	0.668373
C55	C	0.790118	0.191135	0.751829
C56	C	0.928310	0.062786	0.751825
C57	C	0.928304	0.062781	0.668375
C58	C	0.859198	0.126953	0.626653
C59	C	0.859193	0.126952	0.536164
C60	C	0.859195	0.126946	0.464042
H61	H	0.149589	-0.034270	0.000122
O62	O	0.174596	0.293924	-0.000006
C63	C	0.135577	0.345784	-0.068678
H64	H	0.087849	0.320217	-0.091566
H65	H	0.184283	0.334770	-0.116761
C66	C	0.150251	0.483254	-0.019712
C67	C	0.091626	0.451856	-0.047819
H68	H	0.123144	0.548684	-0.006847
H69	H	0.176542	0.448314	0.026552
H70	H	0.190835	0.474066	-0.059786
H71	H	0.051050	0.461033	-0.007742
H72	H	0.065328	0.486800	-0.094077
H73	H	0.984547	0.010508	0.365798
O74	O	0.415154	0.298768	0.000050
C75	C	0.437848	0.375606	0.000060
H76	H	0.503376	0.351546	-0.025045
H77	H	0.436175	0.402181	0.063661
C78	C	0.295901	0.485693	-0.021098
C79	C	0.376380	0.456144	-0.051939
H80	H	0.257983	0.535375	-0.053169
H81	H	0.280610	0.433927	-0.021101
H82	H	0.294518	0.507833	0.031903
H83	H	0.377764	0.433994	-0.104934
H84	H	0.391670	0.507909	-0.051945
H85	H	0.687169	-0.023498	0.000090
O86	O	0.995450	0.000330	0.207968
C87	C	1.056446	-0.056295	0.262694
H88	H	1.025699	-0.057306	0.322184
H89	H	1.104283	-0.025776	0.271560
C90	C	1.137754	-0.156766	0.157069
C91	C	1.099989	-0.158015	0.230134
H92	H	1.164616	-0.219511	0.136984
H93	H	1.096661	-0.118615	0.120199
H94	H	1.177613	-0.131329	0.164467
H95	H	1.060124	-0.183440	0.222733
H96	H	1.141076	-0.196173	0.267003
H97	H	0.599448	-0.387905	0.000070
O98	O	0.995475	0.000348	0.627965
C99	C	1.056474	-0.056279	0.682687
H100	H	1.025730	-0.057292	0.742179
H101	H	1.104313	-0.025762	0.691550
C102	C	1.137774	-0.156748	0.577058
C103	C	1.100013	-0.157999	0.650125
H104	H	1.164634	-0.219493	0.556971
H105	H	1.096679	-0.118595	0.540190
H106	H	1.177634	-0.131313	0.584454
H107	H	1.060147	-0.183423	0.642726
H108	H	1.141102	-0.196158	0.686991
H109	H	0.984580	0.010531	0.785804
H110	H	0.645927	-0.566272	0.000098
O111	O	0.303233	-0.044875	0.000083
C112	C	0.280534	-0.121710	0.000106
H113	H	0.215005	-0.097646	-0.024995
H114	H	0.282212	-0.148287	0.063711
C115	C	0.422478	-0.231803	-0.021052
C116	C	0.341996	-0.202248	-0.051888
H117	H	0.460392	-0.281485	-0.053120
H118	H	0.437772	-0.180039	-0.021064
H119	H	0.423865	-0.253944	0.031952
H120	H	0.340609	-0.180097	-0.104886
H121	H	0.326704	-0.254011	-0.051885
O122	O	0.722911	0.253510	0.792241
C123	C	0.661920	0.310163	0.737523
H124	H	0.671678	0.271518	0.678039
H125	H	0.667253	0.380154	0.728638
C126	C	0.562926	0.377169	0.843166
C127	C	0.574907	0.329701	0.770109
H128	H	0.509252	0.389226	0.863267
H129	H	0.604017	0.339004	0.880031
H130	H	0.567376	0.435490	0.835751
H131	H	0.570468	0.271377	0.777526
H132	H	0.533813	0.367857	0.733245
O133	O	0.723075	0.253521	0.627768
C134	C	0.747641	0.311624	0.579505
H135	H	0.817200	0.273981	0.566989
H136	H	0.733659	0.381275	0.611666
C137	C	0.613965	0.378091	0.515616
C138	C	0.699397	0.331853	0.500239
H139	H	0.584204	0.390574	0.466722
H140	H	0.597413	0.338949	0.548133
H141	H	0.602325	0.436128	0.542419
H142	H	0.711037	0.273812	0.473445
H143	H	0.715950	0.370987	0.467714
O144	O	0.543794	-0.040027	-0.000007
C145	C	0.582805	-0.091879	-0.068680
H146	H	0.630534	-0.066315	-0.091572
H147	H	0.534093	-0.080853	-0.116760
C148	C	0.568122	-0.229349	-0.019706
C149	C	0.626749	-0.197955	-0.047819
H150	H	0.595226	-0.294782	-0.006840
H151	H	0.541837	-0.194415	0.026559
H152	H	0.527534	-0.220152	-0.059778
H153	H	0.667330	-0.207141	-0.007745
H154	H	0.653043	-0.232893	-0.094077
H155	H	0.977738	-0.562804	0.000111
O156	O	0.722902	0.253542	0.207966
C157	C	0.661911	0.310173	0.262688
H158	H	0.692665	0.311195	0.322170
H159	H	0.614077	0.279652	0.271575
C160	C	0.580589	0.410627	0.157051
C161	C	0.618362	0.411888	0.230106
H162	H	0.553722	0.473368	0.136952
H163	H	0.621678	0.372471	0.120183
H164	H	0.540733	0.385188	0.164466
H165	H	0.658225	0.437315	0.222688
H166	H	0.577279	0.450050	0.266973
H167	H	0.568797	0.288165	0.000072
H168	H	0.031216	0.277393	0.000110
H169	H	0.810924	-0.138503	0.000082
H170	H	1.118934	-0.358196	0.000127
H171	H	0.740650	-0.183289	0.000088
H172	H	0.733824	0.243366	0.365805
H173	H	0.633105	-0.251821	0.000069
H174	H	1.085273	-0.494287	0.000128
H175	H	0.907460	-0.607605	0.000116
H176	H	1.072470	-0.179822	0.000111
