data_functionalizedCrystal
_audit_creation_method	'MofGen! by Chris Wilmer'
_symmetry_space_group_name_H-M	'P1'
_symmetry_Int_Tables_number	1
_symmetry_cell_setting	triclinic
loop_
_symmetry_equiv_pos_as_xyz
  x,y,z
_cell_length_a	14.044220
_cell_length_b	8.559649
_cell_length_c	7.088929
_cell_angle_alpha	84.674985
_cell_angle_beta	83.206932
_cell_angle_gamma	98.516229
loop_
_atom_site_label
_atom_site_type_symbol
_atom_site_fract_x
_atom_site_fract_y
_atom_site_fract_z
O1	O	-0.021003	-2.100735	-0.158955
O2	O	0.027448	-1.642435	-0.158968
O3	O	-0.134262	-1.864708	-0.158943
O4	O	0.140708	-1.878463	-0.158981
O5	O	-0.155917	-1.894406	0.159035
O6	O	0.005793	-1.672134	0.159010
O7	O	-0.042657	-2.130433	0.159023
Cu8	Cu	-0.020409	-1.903995	0.188051
Cu9	Cu	0.005200	-1.868874	-0.187996
O10	O	0.119053	-1.908161	0.158998
C11	C	0.020292	-1.598278	0.000019
C12	C	0.031222	-1.422455	0.000015
C13	C	-0.035501	-2.174590	0.000031
C14	C	-0.046430	-2.350412	0.000023
C15	C	-0.179966	-1.873535	0.000047
C16	C	-0.283884	-1.855571	0.000048
C17	C	-0.474153	-1.822727	0.000020
C18	C	-0.541060	-1.950133	0.000018
C19	C	-0.646933	-1.931858	0.000002
C20	C	-0.368270	-1.841000	0.000036
C21	C	0.164757	-1.899334	0.000004
C22	C	0.268676	-1.917296	-0.000011
N23	N	-0.038422	-1.928709	0.452541
N24	N	0.023205	-1.844171	-0.452487
H25	H	-0.518820	-2.072921	-0.000107
H26	H	0.106070	-1.349615	-0.000005
H27	H	0.087069	-1.756556	0.465857
Br28	Br	-0.144865	-2.074776	0.588643
Br29	Br	-0.511204	-1.618061	-0.000002
Br30	Br	-0.171177	-1.471794	0.000021
