data_functionalizedCrystal
_audit_creation_method	'MofGen! by Chris Wilmer'
_symmetry_space_group_name_H-M	'P1'
_symmetry_Int_Tables_number	1
_symmetry_cell_setting	triclinic
loop_
_symmetry_equiv_pos_as_xyz
  x,y,z
_cell_length_a	15.944545
_cell_length_b	15.021413
_cell_length_c	14.044190
_cell_angle_alpha	90.004310
_cell_angle_beta	88.343975
_cell_angle_gamma	89.990408
loop_
_atom_site_label
_atom_site_type_symbol
_atom_site_fract_x
_atom_site_fract_y
_atom_site_fract_z
O1	O	1.123668	0.073984	0.122216
O2	O	1.623668	0.573984	0.622216
O3	O	0.880247	0.074000	0.137294
O4	O	1.380247	0.574000	0.637294
O5	O	0.998301	0.073975	-0.008230
O6	O	1.498301	0.573975	0.491770
O7	O	1.005615	0.074009	0.267740
O8	O	1.505615	0.574009	0.767740
O9	O	0.998317	-0.074089	-0.008221
O10	O	1.498317	0.425911	0.491779
O11	O	0.880263	-0.074064	0.137303
O12	O	1.380263	0.425936	0.637303
O13	O	1.123684	-0.074080	0.122225
O14	O	1.623684	0.425920	0.622225
Zn15	Zn	1.001976	-0.097581	0.129765
Zn16	Zn	1.501976	0.402419	0.629765
Zn17	Zn	1.001955	0.097500	0.129753
Zn18	Zn	1.501955	0.597500	0.629753
O19	O	1.005630	-0.074055	0.267749
O20	O	1.505630	0.425945	0.767749
C21	C	0.848914	-0.000030	0.136674
C22	C	1.348914	0.499970	0.636674
C23	C	0.755528	-0.000025	0.134800
C24	C	1.255528	0.499975	0.634800
C25	C	0.477719	-0.000047	0.038999
C26	C	0.977719	0.499953	0.538999
C27	C	0.531768	-0.073046	0.085191
C28	C	1.031768	0.426954	0.585191
C29	C	0.419383	-0.000041	0.128119
C30	C	0.919383	0.499959	0.628119
C31	C	0.531735	0.072933	0.085206
C32	C	1.031735	0.572933	0.585206
C33	C	0.584542	-0.000032	0.131397
C34	C	1.084542	0.499968	0.631397
C35	C	0.472202	-0.073101	0.174287
C36	C	0.972202	0.426899	0.674287
C37	C	0.472165	0.072944	0.174289
C38	C	0.972165	0.572944	0.674289
C39	C	0.526185	-0.000074	0.220546
C40	C	1.026185	0.499926	0.720546
C41	C	0.324240	-0.000048	0.126228
C42	C	0.824240	0.499952	0.626228
C43	C	0.679684	-0.000032	0.133294
C44	C	1.179684	0.499968	0.633294
N45	N	1.001996	-0.230718	0.129773
N46	N	1.501996	0.269282	0.629773
C47	C	1.056595	-0.470389	0.062467
C48	C	1.556595	0.029611	0.562467
C49	C	0.979316	-0.529716	0.044055
C50	C	1.479316	-0.029716	0.544055
C51	C	1.001976	-0.412325	0.129761
C52	C	1.501976	0.087675	0.629761
C53	C	1.079232	-0.529740	0.148117
C54	C	1.579232	-0.029740	0.648117
C55	C	1.001963	-0.587749	0.129747
C56	C	1.501963	-0.087749	0.629747
C57	C	0.924655	-0.470345	0.111307
C58	C	1.424655	0.029655	0.611307
C59	C	1.024624	-0.470364	0.215406
C60	C	1.524624	0.029636	0.715406
C61	C	0.947293	-0.529664	0.197030
C62	C	1.447293	-0.029664	0.697030
C63	C	1.001984	-0.311268	0.129766
C64	C	1.501984	0.188732	0.629766
C65	C	1.001945	-0.688804	0.129742
C66	C	1.501945	-0.188804	0.629742
C67	C	1.155017	-0.000048	0.122845
C68	C	1.655017	0.499952	0.622845
C69	C	1.248404	-0.000047	0.124718
C70	C	1.748404	0.499953	0.624718
C71	C	0.995109	-0.000060	-0.043540
C72	C	1.495109	0.499940	0.456460
C73	C	0.985566	-0.000067	-0.148767
C74	C	1.485566	0.499933	0.351233
N75	N	1.001941	0.230638	0.129738
N76	N	1.501941	0.730638	0.629738
C77	C	1.035804	-0.000035	-0.399051
C78	C	1.535804	0.499965	0.100949
C79	C	0.968131	-0.000037	-0.341425
C80	C	1.468131	0.499963	0.158575
C81	C	0.977834	-0.000054	-0.234220
C82	C	1.477834	0.499946	0.265780
C83	C	1.026102	-0.000019	-0.506266
C84	C	1.526102	0.499981	-0.006266
C85	C	1.008822	-0.000018	0.303059
C86	C	1.508822	0.499982	0.803059
C87	C	1.018366	-0.000005	0.408285
C88	C	1.518366	0.499995	0.908285
H89	H	0.547430	-0.000107	0.297356
H90	H	1.047430	0.499893	0.797356
H91	H	0.902908	-0.000028	-0.372603
H92	H	1.402908	0.499972	0.127397
H93	H	0.557826	0.134645	0.047550
H94	H	1.057826	0.634645	0.547550
H95	H	0.859294	-0.444366	0.095693
H96	H	1.359294	0.055634	0.595693
N97	N	0.449366	-0.000143	-0.062662
N98	N	0.949366	0.499857	0.437338
H99	H	0.471096	-0.055346	-0.096213
H100	H	0.971096	0.444654	0.403787
H101	H	0.386040	0.000456	-0.063127
H102	H	0.886040	0.500456	0.436873
H103	H	1.102729	-0.444362	0.005527
H104	H	1.602729	0.055638	0.505527
H105	H	1.101022	-0.000049	-0.367875
H106	H	1.601022	0.499951	0.132125
N107	N	0.886038	-0.563929	0.272411
N108	N	1.386038	-0.063929	0.772411
H109	H	0.827724	-0.542205	0.258415
H110	H	1.327724	-0.042205	0.758415
H111	H	0.886792	-0.631159	0.272331
H112	H	1.386792	-0.131159	0.772331
N113	N	0.566349	-0.154822	0.035357
N114	N	1.066349	0.345178	0.535357
H115	H	0.548821	-0.154782	-0.033178
H116	H	1.048821	0.345218	0.466822
H117	H	0.629603	-0.154483	0.037593
H118	H	1.129603	0.345517	0.537593
H119	H	0.960149	-0.555787	-0.028378
H120	H	1.460149	-0.055787	0.471622
H121	H	1.043813	-0.444274	0.287816
H122	H	1.543813	0.055726	0.787816
H123	H	0.446216	-0.134883	0.211900
H124	H	0.946216	0.365117	0.711900
H125	H	0.446028	0.134671	0.211889
H126	H	0.946028	0.634671	0.711889
N127	N	1.165777	-0.564306	0.168696
N128	N	1.665777	-0.064306	0.668696
H129	H	1.206988	-0.542744	0.117824
H130	H	1.706988	-0.042744	0.617824
H131	H	1.183242	-0.541783	0.232917
H132	H	1.683242	-0.041783	0.732917
