data_functionalizedCrystal
_audit_creation_method	'MofGen! by Chris Wilmer'
_symmetry_space_group_name_H-M	'P1'
_symmetry_Int_Tables_number	1
_symmetry_cell_setting	triclinic
loop_
_symmetry_equiv_pos_as_xyz
  x,y,z
_cell_length_a	19.121102
_cell_length_b	19.805405
_cell_length_c	19.805399
_cell_angle_alpha	90.028055
_cell_angle_beta	87.542719
_cell_angle_gamma	92.412596
loop_
_atom_site_label
_atom_site_type_symbol
_atom_site_fract_x
_atom_site_fract_y
_atom_site_fract_z
Zn1	Zn	1.073672	0.313691	-0.426785
Zn2	Zn	1.573672	0.813691	0.073215
Zn3	Zn	1.073570	0.426876	-0.313592
Zn4	Zn	1.573570	0.926876	0.186408
Zn5	Zn	0.956224	0.308874	-0.308789
Zn6	Zn	1.456224	0.808874	0.191211
Zn7	Zn	0.956173	0.422005	-0.421920
Zn8	Zn	1.456173	0.922005	0.078080
O9	O	1.014910	0.367861	-0.367771
O10	O	1.514910	0.867861	0.132229
O11	O	1.171943	0.332760	-0.415816
O12	O	1.671943	0.832760	0.084184
O13	O	1.057983	0.411244	-0.218237
O14	O	1.557983	0.911244	0.281763
O15	O	0.971869	0.214799	-0.324468
O16	O	1.471869	0.714799	0.175532
O17	O	1.171868	0.415916	-0.332653
O18	O	1.671868	0.915916	0.167347
O19	O	1.058157	0.218338	-0.411159
O20	O	1.558157	0.718338	0.088841
O21	O	0.971769	0.324549	-0.214709
O22	O	1.471769	0.824549	0.285291
O23	O	0.857934	0.319826	-0.319750
O24	O	1.357934	0.819826	0.180250
O25	O	0.971780	0.407615	-0.517283
O26	O	1.471780	0.907615	-0.017283
O27	O	0.857896	0.402944	-0.402867
O28	O	1.357896	0.902944	0.097133
O29	O	1.058107	0.328037	-0.520857
O30	O	1.558107	0.828037	-0.020857
O31	O	1.057933	0.520943	-0.327935
O32	O	1.557933	1.020943	0.172065
O33	O	0.971681	0.517365	-0.407524
O34	O	1.471681	1.017365	0.092476
C35	C	0.832431	0.360334	-0.360260
C36	C	1.332431	0.860334	0.139740
C37	C	0.754366	0.357130	-0.357062
C38	C	1.254366	0.857130	0.142938
C39	C	0.717689	0.398965	-0.398767
C40	C	1.217689	0.898965	0.101233
C41	C	0.644338	0.395946	-0.395766
C42	C	1.144338	0.895946	0.104234
C43	C	0.607666	0.351095	-0.351056
C44	C	1.107666	0.851095	0.148944
C45	C	0.644347	0.309255	-0.309351
C46	C	1.144347	0.809255	0.190649
C47	C	0.717697	0.312272	-0.312355
C48	C	1.217697	0.812272	0.187645
C49	C	0.386198	0.339816	-0.339825
C50	C	0.886198	0.839816	0.160175
C51	C	0.312844	0.336804	-0.336822
C52	C	0.812844	0.836804	0.163178
C53	C	0.312839	0.423494	-0.423238
C54	C	0.812839	0.923494	0.076762
C55	C	0.386190	0.426509	-0.426236
C56	C	0.886190	0.926509	0.073764
C57	C	0.422866	0.384668	-0.384533
C58	C	0.922866	0.884668	0.115467
C59	C	0.532689	0.348009	-0.347986
C60	C	1.032689	0.848009	0.152014
C61	C	0.497840	0.387750	-0.387607
C62	C	0.997840	0.887750	0.112393
C63	C	1.014809	0.543713	-0.367738
C64	C	1.514809	1.043713	0.132262
C65	C	1.014831	0.618946	-0.367749
C66	C	1.514831	1.118946	0.132251
C67	C	1.059730	0.656074	-0.412921
C68	C	1.559730	1.156074	0.087079
C69	C	1.059747	0.726763	-0.412933
C70	C	1.559747	1.226763	0.087067
C71	C	1.014868	0.760323	-0.367769
C72	C	1.514868	1.260323	0.132231
C73	C	0.969963	0.723190	-0.322595
C74	C	1.469963	1.223190	0.177405
C75	C	0.969943	0.652502	-0.322587
C76	C	1.469943	1.152502	0.177413
C77	C	0.970043	1.008267	-0.322625
C78	C	1.470043	1.508267	0.177375
C79	C	0.970068	1.078960	-0.322635
C80	C	1.470068	1.578960	0.177365
C81	C	1.059847	1.082528	-0.412971
C82	C	1.559847	1.582528	0.087029
C83	C	1.059827	1.011840	-0.412964
C84	C	1.559827	1.511840	0.087036
C85	C	1.014920	0.974713	-0.367792
C86	C	1.514920	1.474713	0.132208
C87	C	1.014901	0.898064	-0.367781
C88	C	1.514901	1.398064	0.132219
C89	C	1.014890	0.836971	-0.367776
C90	C	1.514890	1.336971	0.132224
C91	C	1.198101	0.375419	-0.375313
C92	C	1.698101	0.875419	0.124687
C93	C	1.276167	0.378639	-0.378526
C94	C	1.776167	0.878639	0.121474
C95	C	1.014949	0.367820	-0.544316
C96	C	1.514949	0.867820	-0.044316
C97	C	1.014966	0.367803	-0.619548
C98	C	1.514966	0.867803	-0.119548
C99	C	1.015001	1.191322	-0.367813
C100	C	1.515001	1.691322	0.132187
C101	C	1.014964	1.116089	-0.367811
C102	C	1.514964	1.616089	0.132189
C103	C	1.059917	0.326365	-0.656755
C104	C	1.559917	0.826365	-0.156755
C105	C	1.059925	0.326345	-0.727444
C106	C	1.559925	0.826345	-0.227444
C107	C	1.014984	0.367768	-0.760925
C108	C	1.514984	0.867768	-0.260925
C109	C	0.970027	0.409208	-0.723713
C110	C	1.470027	0.909208	-0.223713
C111	C	0.970017	0.409224	-0.653026
C112	C	1.470017	0.909224	-0.153026
C113	C	0.970067	0.409147	-1.008788
C114	C	1.470067	0.909147	-0.508788
C115	C	0.970082	0.409130	-1.079481
C116	C	1.470082	0.909130	-0.579481
C117	C	1.059974	0.326269	-1.083206
C118	C	1.559974	0.826269	-0.583206
C119	C	1.059964	0.326284	-1.012519
C120	C	1.559964	0.826284	-0.512519
C121	C	1.015006	0.367721	-0.975313
C122	C	1.515006	0.867721	-0.475313
C123	C	1.014998	0.367740	-0.898664
C124	C	1.514998	0.867740	-0.398664
C125	C	1.014995	0.367753	-0.837572
C126	C	1.514995	0.867753	-0.337572
C127	C	1.014911	0.367855	-0.191915
C128	C	1.514911	0.867855	0.308085
C129	C	1.015030	0.367688	-0.116689
C130	C	1.515030	0.867688	0.383311
H131	H	0.614479	0.430013	-0.429725
H132	H	1.114479	0.930013	0.070275
C133	C	1.109104	0.619164	-0.462605
C134	C	1.609104	1.119164	0.037395
N135	N	1.146291	0.591366	-0.500030
N136	N	1.646291	1.091366	-0.000030
H137	H	1.096562	0.292555	-0.985262
H138	H	1.596562	0.792555	-0.485262
C139	C	0.920568	0.454810	-0.612099
C140	C	1.420568	0.954810	-0.112099
N141	N	0.883321	0.489146	-0.581274
N142	N	1.383321	0.989146	-0.081274
H143	H	0.933433	0.442933	-0.750979
H144	H	1.433433	0.942933	-0.250979
C145	C	1.109376	0.280761	-0.768368
C146	C	1.609376	0.780761	-0.268368
N147	N	1.146625	0.246425	-0.799191
N148	N	1.646625	0.746425	-0.299191
C149	C	0.758022	0.448306	-0.447951
C150	C	1.258022	0.948306	0.052049
N151	N	0.788399	0.485469	-0.484999
N152	N	1.288399	0.985469	0.015001
H153	H	1.096315	0.756990	-0.449711
H154	H	1.596315	1.256990	0.050289
C155	C	0.920627	0.967436	-0.272950
C156	C	1.420627	1.467436	0.227050
N157	N	0.883399	0.936679	-0.235538
N158	N	1.383399	1.436679	0.264462
H159	H	0.933469	0.442898	-0.978504
H160	H	1.433469	0.942898	-0.478504
H161	H	0.282987	0.300273	-0.300418
H162	H	0.782987	0.800273	0.199582
C163	C	0.920550	0.611662	-0.272894
C164	C	1.420550	1.111662	0.227106
N165	N	0.883345	0.580902	-0.235465
N166	N	1.383345	1.080902	0.264535
H167	H	0.416044	0.463034	-0.462642
H168	H	0.916044	0.963034	0.037358
H169	H	0.933518	1.106283	-0.285856
H170	H	1.433518	1.606283	0.214144
C171	C	1.109202	0.974928	-0.462643
C172	C	1.609202	1.474928	0.037357
N173	N	1.146392	0.947126	-0.500064
N174	N	1.646392	1.447126	-0.000064
C175	C	0.272491	0.469512	-0.469114
C176	C	0.772491	0.969512	0.030886
N177	N	0.242100	0.504172	-0.503672
N178	N	0.742100	1.004172	-0.003672
C179	C	0.426531	0.293792	-0.293945
C180	C	0.926531	0.793792	0.206055
N181	N	0.456913	0.259126	-0.259385
N182	N	0.956913	0.759126	0.240615
H183	H	0.614483	0.272734	-0.272950
H184	H	1.114483	0.772734	0.227050
C185	C	1.109422	0.280678	-1.124138
C186	C	1.609422	0.780678	-0.624138
N187	N	1.146664	0.246339	-1.154967
N188	N	1.646664	0.746339	-0.654967
C189	C	0.758041	0.266251	-0.266476
C190	C	1.258041	0.766251	0.233524
N191	N	0.788427	0.231586	-0.231919
N192	N	1.288427	0.731586	0.268081
H193	H	0.933483	0.442863	-1.106739
H194	H	1.433483	0.942863	-0.606739
H195	H	1.096410	1.112765	-0.449754
H196	H	1.596410	1.612765	0.050246
C197	C	0.920637	0.760111	-0.272874
C198	C	1.420637	1.260111	0.227126
N199	N	0.883502	0.787920	-0.235408
N200	N	1.383502	1.287920	0.264592
C201	C	0.538183	0.437087	-0.436784
C202	C	1.038183	0.937087	0.063216
N203	N	0.568575	0.474251	-0.473821
N204	N	1.068575	0.974251	0.026179
H205	H	0.502822	0.311492	-0.311583
H206	H	1.002822	0.811492	0.188417
C207	C	1.109356	0.280795	-0.619932
C208	C	1.609356	0.780795	-0.119932
N209	N	1.146593	0.246467	-0.592199
N210	N	1.646593	0.746467	-0.092199
