data_functionalizedCrystal
_audit_creation_method	'MofGen! by Chris Wilmer'
_symmetry_space_group_name_H-M	'P1'
_symmetry_Int_Tables_number	1
_symmetry_cell_setting	triclinic
loop_
_symmetry_equiv_pos_as_xyz
  x,y,z
_cell_length_a	16.109301
_cell_length_b	17.666332
_cell_length_c	16.109301
_cell_angle_alpha	90.007897
_cell_angle_beta	83.461481
_cell_angle_gamma	90.006633
loop_
_atom_site_label
_atom_site_type_symbol
_atom_site_fract_x
_atom_site_fract_y
_atom_site_fract_z
O1	O	1.103138	0.062903	0.106869
O2	O	0.861076	0.062915	0.120168
O3	O	0.988756	0.062901	-0.007513
O4	O	0.975457	0.062917	0.234549
O5	O	0.988734	-0.062996	-0.007520
O6	O	0.861053	-0.062982	0.120161
O7	O	1.103115	-0.062994	0.106862
Cu8	Cu	0.982082	-0.074483	0.113511
Cu9	Cu	0.982109	0.074404	0.113519
O10	O	0.975435	-0.062980	0.234542
C11	C	0.830090	-0.000032	0.119626
C12	C	0.737794	-0.000027	0.118011
N13	N	0.982070	-0.179203	0.113505
C14	C	0.515522	-0.000031	0.190018
C15	C	0.428801	-0.000036	0.188494
C16	C	0.448676	-0.000043	0.037006
C17	C	0.535394	-0.000044	0.038530
C18	C	0.568815	-0.000034	0.115039
C19	C	0.395376	-0.000038	0.111990
C20	C	0.301350	-0.000044	0.110337
C21	C	0.662847	-0.000030	0.116693
C22	C	1.038625	-0.218819	0.056995
C23	C	1.038630	-0.298066	0.056991
C24	C	0.982087	-0.337695	0.113511
C25	C	0.925521	-0.298069	0.170025
C26	C	0.925512	-0.218823	0.170021
N27	N	0.971484	-0.462108	0.187080
N28	N	0.971497	-0.537389	0.187081
C29	C	0.982109	-0.576459	0.113523
N30	N	0.992723	-0.537404	0.039962
N31	N	0.992714	-0.462117	0.039962
C32	C	0.982090	-0.423624	0.113520
C33	C	1.038673	-0.702004	0.057004
C34	C	1.038672	-0.781253	0.056999
C35	C	0.925567	-0.781254	0.170040
C36	C	0.925564	-0.702007	0.170038
C37	C	0.982121	-0.662386	0.113521
C38	C	1.134101	-0.000045	0.107404
C39	C	1.226397	-0.000045	0.109019
C40	C	0.988206	-0.000048	-0.038491
C41	C	0.986591	-0.000049	-0.130786
N42	N	0.982128	0.179124	0.113518
C43	C	1.058599	-0.000040	-0.353059
C44	C	1.057075	-0.000034	-0.439779
C45	C	0.905586	-0.000029	-0.419905
C46	C	0.907111	-0.000030	-0.333186
C47	C	0.983620	-0.000040	-0.299766
C48	C	0.980571	-0.000032	-0.473205
C49	C	0.978918	-0.000026	-0.567231
C50	C	0.985273	-0.000045	-0.205734
C51	C	0.975984	-0.000029	0.265521
C52	C	0.977600	-0.000023	0.357816
H53	H	0.542730	-0.000029	0.252317
C54	C	0.781634	-0.805668	0.218816
C55	C	0.863411	-0.824805	0.232166
H56	H	0.743260	-0.832561	0.257167
H57	H	0.773543	-0.752808	0.226906
H58	H	0.772637	-0.818670	0.163322
H59	H	0.872411	-0.811798	0.287659
H60	H	0.871506	-0.877677	0.224083
H61	H	0.879515	-0.669749	0.216056
H62	H	0.385413	-0.000036	0.249550
H63	H	1.120897	-0.000046	-0.325851
C64	C	1.206966	-0.000050	-0.450707
C65	C	1.139494	-0.000040	-0.498359
H66	H	1.257849	-0.000058	-0.486874
H67	H	1.204418	0.043849	-0.416465
H68	H	1.204393	-0.043957	-0.416476
H69	H	1.142063	0.043870	-0.532587
H70	H	1.142043	-0.043944	-0.532616
H71	H	1.084675	-0.186562	0.010974
H72	H	0.846050	-0.000027	-0.289792
C73	C	0.812394	-0.387215	0.188034
C74	C	0.863370	-0.341628	0.232152
H75	H	0.774025	-0.414109	0.226390
H76	H	0.782497	-0.356313	0.153423
H77	H	0.846088	-0.422149	0.154380
H78	H	0.829676	-0.306691	0.265802
H79	H	0.893269	-0.372533	0.266778
C80	C	0.324566	-0.000038	-0.032597
C81	C	0.411936	-0.000044	-0.047090
H82	H	0.301888	-0.000032	-0.084517
H83	H	0.306270	-0.043937	-0.001737
H84	H	0.306287	0.043869	-0.001719
H85	H	0.430216	-0.043954	-0.077963
H86	H	0.430240	0.043860	-0.077963
H87	H	1.084685	-0.330327	0.010973
C88	C	0.816000	0.064688	-0.505897
C89	C	0.821492	-0.000028	-0.456647
H90	H	0.764085	0.064684	-0.528583
H91	H	0.819743	0.108584	-0.472474
H92	H	0.860442	0.064679	-0.550045
H93	H	0.777053	-0.000016	-0.412496
H94	H	0.817741	-0.043934	-0.490072
C95	C	0.546337	-0.000042	-0.111369
C96	C	0.593982	-0.000043	-0.043893
H97	H	0.582508	-0.000039	-0.162250
H98	H	0.512097	-0.043941	-0.108821
H99	H	0.512103	0.043865	-0.108805
H100	H	0.628211	-0.043953	-0.046454
H101	H	0.628236	0.043861	-0.046443
C102	C	0.813717	-0.226786	0.281757
C103	C	0.863348	-0.175272	0.232147
H104	H	0.775344	-0.199897	0.320115
H105	H	0.783825	-0.257701	0.247140
H106	H	0.848324	-0.257688	0.311673
H107	H	0.828742	-0.144374	0.202227
H108	H	0.893242	-0.144344	0.266769
H109	H	1.084723	-0.669744	0.010982
H110	H	1.084723	-0.813509	0.010978
