data_functionalizedCrystal
_audit_creation_method	'MofGen! by Chris Wilmer'
_symmetry_space_group_name_H-M	'P1'
_symmetry_Int_Tables_number	1
_symmetry_cell_setting	triclinic
loop_
_symmetry_equiv_pos_as_xyz
  x,y,z
_cell_length_a	9.065215
_cell_length_b	6.394989
_cell_length_c	8.140239
_cell_angle_alpha	90.000568
_cell_angle_beta	89.997810
_cell_angle_gamma	94.243796
loop_
_atom_site_label
_atom_site_type_symbol
_atom_site_fract_x
_atom_site_fract_y
_atom_site_fract_z
O1	O	1.963205	-0.306345	-0.136582
O2	O	2.463205	0.193655	0.363418
O3	O	1.534150	-0.331481	-0.136589
O4	O	2.034150	0.168519	0.363411
O5	O	1.754768	-0.014964	-0.136587
O6	O	2.254768	0.485036	0.363413
O7	O	1.742588	-0.622862	-0.136585
O8	O	2.242588	-0.122862	0.363415
O9	O	1.754755	-0.014960	0.136640
O10	O	2.254755	0.485040	0.636640
O11	O	1.534138	-0.331477	0.136638
O12	O	2.034138	0.168523	0.636638
O13	O	1.963193	-0.306341	0.136645
O14	O	2.463193	0.193659	0.636645
Zn15	Zn	1.748663	-0.318908	0.180022
Zn16	Zn	2.248663	0.181092	0.680022
Zn17	Zn	1.748680	-0.318914	-0.179966
Zn18	Zn	2.248680	0.181086	0.320034
O19	O	1.742575	-0.622858	0.136643
O20	O	2.242575	-0.122858	0.636643
C21	C	1.479135	-0.329065	0.000024
C22	C	1.979135	0.170935	0.500024
C23	C	1.315226	-0.321846	0.000021
C24	C	1.815226	0.178154	0.500021
C25	C	2.018208	-0.308757	0.000028
C26	C	2.518208	0.191243	0.500028
C27	C	2.182117	-0.315976	0.000021
C28	C	2.682117	0.184024	0.500021
C29	C	1.752354	0.062905	0.000021
C30	C	2.252354	0.562905	0.500021
C31	C	1.744993	0.299279	0.000019
C32	C	2.244993	0.799279	0.500019
N33	N	1.748663	-0.318904	0.425705
N34	N	2.248663	0.181096	0.925705
N35	N	1.748692	-0.318902	-0.425649
N36	N	2.248692	0.181098	0.074351
