data_functionalizedCrystal
_audit_creation_method	'MofGen! by Chris Wilmer'
_symmetry_space_group_name_H-M	'P1'
_symmetry_Int_Tables_number	1
_symmetry_cell_setting	triclinic
loop_
_symmetry_equiv_pos_as_xyz
  x,y,z
_cell_length_a	15.995300
_cell_length_b	15.995292
_cell_length_c	11.892095
_cell_angle_alpha	93.891493
_cell_angle_beta	86.100122
_cell_angle_gamma	83.470212
loop_
_atom_site_label
_atom_site_type_symbol
_atom_site_fract_x
_atom_site_fract_y
_atom_site_fract_z
O1	O	1.116346	0.102373	-0.094037
O2	O	0.872562	0.115745	-0.094029
O3	O	1.001143	-0.012833	-0.094035
O4	O	0.987765	0.230951	-0.094031
O5	O	0.990423	-0.002129	0.093973
O6	O	0.861841	0.126449	0.093979
O7	O	1.105625	0.113077	0.093971
Zn8	Zn	0.982031	0.121463	0.123825
Zn9	Zn	0.996156	0.107360	-0.123884
O10	O	0.977044	0.241655	0.093977
C11	C	0.836006	0.120552	-0.000025
C12	C	0.743054	0.118917	-0.000022
C13	C	0.995239	-0.038677	-0.000034
C14	C	0.993607	-0.131630	-0.000043
C15	C	0.572872	0.115897	-0.000031
C16	C	0.525387	0.207448	-0.000027
C17	C	0.428723	0.205753	-0.000456
C18	C	0.405316	0.112925	-0.000038
C19	C	0.452568	0.061403	-0.107189
C20	C	0.549206	0.063714	-0.107276
C21	C	0.537294	0.074532	0.106532
C22	C	0.440269	0.074620	0.107937
C23	C	0.310621	0.111240	-0.000046
C24	C	0.667567	0.117579	-0.000030
C25	C	0.987605	-0.469367	-0.000032
C26	C	1.080387	-0.446047	0.000385
C27	C	1.082176	-0.349396	-0.000043
C28	C	0.990583	-0.301812	-0.000037
C29	C	0.950306	-0.337017	-0.107393
C30	C	0.949194	-0.433812	-0.107479
C31	C	0.935107	-0.421496	0.106321
C32	C	0.938465	-0.324923	0.107736
C33	C	0.992261	-0.207116	-0.000043
C34	C	0.985924	-0.564062	-0.000033
C35	C	1.142181	0.108270	-0.000037
C36	C	1.235134	0.109905	-0.000047
C37	C	0.982949	0.267499	-0.000027
C38	C	0.984581	0.360452	-0.000026
N39	N	0.972397	0.131087	0.292880
N40	N	1.005797	0.097728	-0.292938
C41	C	1.072834	0.030709	0.529523
C42	C	1.066106	0.037442	0.647865
C43	C	0.952209	0.151283	0.647908
C44	C	0.958937	0.144550	0.529566
C45	C	1.019253	0.084261	0.470377
C46	C	1.025984	0.077532	0.352033
C47	C	0.912084	0.191369	0.352079
C48	C	0.905356	0.198102	0.470421
H49	H	0.539489	0.248613	0.076800
N50	N	0.558300	0.120578	0.214149
H51	H	0.591098	0.168723	0.194911
H52	H	0.504366	0.143503	0.260638
H53	H	0.881424	-0.448626	-0.112339
N54	N	1.091019	0.012493	0.288193
H55	H	1.087150	0.016348	0.204248
H56	H	1.149246	0.023346	0.308852
H57	H	1.120326	-0.479430	-0.076175
N58	N	0.849412	-0.280767	0.116336
H59	H	0.808202	-0.324149	0.115386
H60	H	0.838896	-0.243582	0.189182
H61	H	1.121951	-0.018375	0.481331
N62	N	0.967462	-0.452793	0.214113
H63	H	1.016484	-0.498327	0.195092
H64	H	0.986690	-0.404390	0.260697
H65	H	1.114126	-0.325996	0.076913
N66	N	0.997832	-0.475403	-0.213772
H67	H	0.970543	-0.453925	-0.282064
H68	H	1.057935	-0.461559	-0.215471
H69	H	0.967722	-0.301842	0.187158
H70	H	0.572103	0.091872	-0.187675
H71	H	1.109737	-0.006167	0.696018
H72	H	0.866753	-0.435433	0.107049
H73	H	0.883133	-0.305364	-0.111380
H74	H	0.903097	0.200363	0.696115
N75	N	0.999017	-0.316486	-0.213235
H76	H	1.047178	-0.284402	-0.191887
H77	H	1.022144	-0.370573	-0.259237
H78	H	0.856246	0.247186	0.518626
H79	H	0.868456	0.234977	0.303909
H80	H	0.395874	0.245815	0.076336
H81	H	0.549362	0.239323	-0.076749
H82	H	0.581754	-0.003772	-0.111855
N83	N	0.397653	0.246990	-0.102794
H84	H	0.446769	0.266336	-0.147806
H85	H	0.370621	0.205007	-0.151450
N86	N	0.579330	-0.014797	0.107919
H87	H	0.567708	-0.048882	0.037255
H88	H	0.642216	-0.014233	0.110903
N89	N	0.421037	0.096640	-0.213212
H90	H	0.431664	0.157623	-0.214549
H91	H	0.451834	0.063012	-0.281642
N92	N	0.434190	-0.029247	-0.112093
H93	H	0.488655	-0.067791	-0.110855
H94	H	0.394939	-0.037735	-0.044734
H95	H	0.408402	0.112303	0.187209
H96	H	1.111769	-0.469668	0.077375
N97	N	0.419404	-0.014515	0.116985
H98	H	0.386862	-0.031410	0.050916
H99	H	0.473374	-0.054091	0.116272
H100	H	1.123125	-0.335388	-0.077137
