data_functionalizedCrystal
_audit_creation_method	'MofGen! by Chris Wilmer'
_symmetry_space_group_name_H-M	'P1'
_symmetry_Int_Tables_number	1
_symmetry_cell_setting	triclinic
loop_
_symmetry_equiv_pos_as_xyz
  x,y,z
_cell_length_a	16.120530
_cell_length_b	16.120531
_cell_length_c	16.959447
_cell_angle_alpha	92.863042
_cell_angle_beta	92.912567
_cell_angle_gamma	89.826117
loop_
_atom_site_label
_atom_site_type_symbol
_atom_site_fract_x
_atom_site_fract_y
_atom_site_fract_z
Zn1	Zn	1.254386	0.395580	0.526140
Zn2	Zn	1.247223	0.534645	0.400287
Zn3	Zn	1.115337	0.388554	0.386961
Zn4	Zn	1.108223	0.527532	0.525408
O5	O	1.181292	0.461578	0.459699
O6	O	1.369800	0.419944	0.515328
O7	O	1.229707	0.515302	0.287909
O8	O	1.139758	0.273123	0.400152
O9	O	1.364537	0.522115	0.422866
O10	O	1.241916	0.278286	0.502406
O11	O	1.132812	0.407969	0.278118
O12	O	0.998029	0.401072	0.399442
O13	O	1.127632	0.509993	0.636115
O14	O	0.992802	0.503179	0.501159
O15	O	1.235018	0.413048	0.636653
O16	O	1.222809	0.650064	0.422156
O17	O	1.120686	0.644838	0.514082
C18	C	0.965244	0.450592	0.448776
C19	C	0.872816	0.445913	0.444122
C20	C	0.703591	0.437349	0.435633
C21	C	0.659831	0.485867	0.483826
C22	C	0.565668	0.481103	0.479102
C23	C	0.797762	0.442113	0.440355
C24	C	1.170221	0.677623	0.469504
C25	C	1.165560	0.770053	0.473729
C26	C	1.157056	0.939282	0.481459
C27	C	1.205559	0.983034	0.437896
C28	C	1.200828	1.077200	0.442197
C29	C	1.161787	0.845108	0.477159
C30	C	1.398184	0.472607	0.470665
C31	C	1.490611	0.477307	0.475338
C32	C	1.181330	0.461511	0.665866
C33	C	1.181347	0.461482	0.753722
C34	C	1.192400	1.244688	0.449858
C35	C	1.197058	1.152259	0.445623
C36	C	1.181305	0.461587	0.254334
C37	C	1.181462	0.461389	0.166476
C38	C	1.125540	0.511874	1.124921
C39	C	1.237361	0.410925	1.125476
C40	C	1.237338	0.410941	1.042930
C41	C	1.181416	0.461426	1.001376
C42	C	1.125516	0.511894	1.042368
C43	C	1.293242	0.360480	1.001932
C44	C	1.293222	0.360495	0.919381
C45	C	1.237295	0.410976	0.877825
C46	C	1.181393	0.461446	0.918822
C47	C	1.125470	0.511930	0.877268
C48	C	1.069564	0.562396	0.918263
C49	C	1.069589	0.562375	1.000811
C50	C	1.237269	0.410997	0.795276
C51	C	1.125447	0.511950	0.794714
H52	H	1.250637	0.949771	0.397369
Cl53	Cl	1.087460	0.990634	0.544022
H54	H	0.670338	0.392238	0.390828
Cl55	Cl	1.307551	0.347566	0.743744
Cl56	Cl	1.055136	0.575416	0.742480
H57	H	0.693086	0.530982	0.528634
H58	H	1.024035	0.603504	0.884419
H59	H	1.338776	0.319384	1.035772
Cl60	Cl	0.999318	0.625816	1.052353
H61	H	1.080019	0.552960	1.158303
H62	H	1.282895	0.369827	1.159315
H63	H	1.338744	0.319403	0.886010
