data_functionalizedCrystal
_audit_creation_method	'MofGen! by Chris Wilmer'
_symmetry_space_group_name_H-M	'P1'
_symmetry_Int_Tables_number	1
_symmetry_cell_setting	triclinic
loop_
_symmetry_equiv_pos_as_xyz
  x,y,z
_cell_length_a	12.759401
_cell_length_b	16.120444
_cell_length_c	12.759393
_cell_angle_alpha	92.864613
_cell_angle_beta	89.981287
_cell_angle_gamma	92.928028
loop_
_atom_site_label
_atom_site_type_symbol
_atom_site_fract_x
_atom_site_fract_y
_atom_site_fract_z
Zn1	Zn	1.584953	-0.331833	-0.615188
Zn2	Zn	1.575905	-0.471269	-0.448403
Zn3	Zn	1.409256	-0.331878	-0.439526
Zn4	Zn	1.400301	-0.471211	-0.624036
O5	O	1.492604	-0.401548	-0.531788
O6	O	1.730773	-0.350336	-0.593076
O7	O	1.553759	-0.452822	-0.300207
O8	O	1.440097	-0.215206	-0.455410
O9	O	1.724126	-0.452779	-0.470539
O10	O	1.569181	-0.215173	-0.584468
O11	O	1.431323	-0.350411	-0.293685
O12	O	1.261047	-0.350355	-0.463990
O13	O	1.424835	-0.452679	-0.769881
O14	O	1.254468	-0.452722	-0.599549
O15	O	1.560498	-0.350279	-0.763380
O16	O	1.545076	-0.587928	-0.479119
O17	O	1.416061	-0.587885	-0.608156
C18	C	1.219637	-0.401538	-0.531767
C19	C	1.102859	-0.401553	-0.531784
C20	C	1.478644	-0.618156	-0.545584
C21	C	1.472768	-0.710822	-0.551521
C22	C	1.044594	-0.454937	-0.602269
C23	C	0.934870	-0.454941	-0.602290
C24	C	0.941686	-0.348174	-0.461332
C25	C	1.051408	-0.348167	-0.461317
C26	C	0.783050	-0.484855	-0.728059
C27	C	0.724780	-0.538252	-0.798535
C28	C	0.755157	-0.619614	-0.819673
C29	C	0.843801	-0.647595	-0.770320
C30	C	0.902065	-0.594203	-0.699836
C31	C	0.871690	-0.512829	-0.678718
C32	C	1.203230	-0.318260	-0.335547
C33	C	1.261496	-0.264872	-0.265057
C34	C	1.231121	-0.183509	-0.243908
C35	C	1.142473	-0.155530	-0.293243
C36	C	1.084207	-0.208919	-0.363733
C37	C	1.114590	-0.290281	-0.384883
C38	C	1.523343	-0.921766	-0.501216
C39	C	1.462059	-0.880479	-0.562372
C40	C	1.468019	-0.786073	-0.556333
C41	C	1.517384	-1.016180	-0.507254
C42	C	1.766636	-0.401559	-0.531811
C43	C	1.883413	-0.401563	-0.531820
C44	C	1.492677	-0.401468	-0.805817
C45	C	1.492708	-0.401434	-0.922591
C46	C	1.506647	-0.184094	-0.517962
C47	C	1.512631	-0.091428	-0.512070
C48	C	1.422093	-0.454728	-0.980838
C49	C	1.422132	-0.454698	-1.090561
C50	C	1.563406	-0.348070	-1.083778
C51	C	1.563370	-0.348105	-0.974059
C52	C	1.378290	-0.552970	-1.246764
C53	C	1.307659	-0.606257	-1.305014
C54	C	1.204307	-0.619063	-1.270215
C55	C	1.171565	-0.578569	-1.177167
C56	C	1.242192	-0.525276	-1.118922
C57	C	1.345558	-0.512485	-1.153720
C58	C	1.607201	-0.249832	-0.817853
C59	C	1.677823	-0.196534	-0.759606
C60	C	1.781178	-0.183719	-0.794402
C61	C	1.813916	-0.224198	-0.887453
C62	C	1.743294	-0.277497	-0.945700
C63	C	1.639941	-0.290313	-0.910897
C64	C	1.492595	-0.401568	-0.258822
C65	C	1.492783	-0.401367	-0.142033
H66	H	1.086482	-0.498406	-0.659650
H67	H	1.838674	-0.140309	-0.746974
H68	H	1.117729	-0.089283	-0.276006
H69	H	1.580281	-0.886216	-0.444326
H70	H	1.364549	-0.498147	-0.938937
O71	O	1.914378	-0.211842	-0.921121
C72	C	2.097916	-0.222800	-0.882768
C73	C	1.984194	-0.236859	-0.844523
H74	H	2.154395	-0.243003	-0.820848
H75	H	2.109261	-0.260911	-0.959246
H76	H	2.114282	-0.154013	-0.896498
H77	H	1.967751	-0.305625	-0.830732
H78	H	1.972906	-0.198695	-0.768077
H79	H	1.146798	-0.662451	-1.317651
O80	O	1.394147	-0.923016	-0.630152
C81	C	1.326288	-1.057263	-0.698115
C82	C	1.403225	-1.009189	-0.621296
H83	H	1.333617	-1.126942	-0.690996
H84	H	1.242607	-1.040342	-0.678521
H85	H	1.345735	-1.040086	-0.781760
H86	H	1.383874	-1.026341	-0.537625
H87	H	1.486884	-1.026115	-0.640981
H88	H	1.012031	-0.186130	-0.403910
O89	O	0.698467	-0.671364	-0.888198
C90	C	0.549511	-0.688003	-1.004773
C91	C	0.613632	-0.629310	-0.927206
H92	H	0.480895	-0.654031	-1.036317
H93	H	0.601811	-0.708571	-1.072689
H94	H	0.518317	-0.744887	-0.962675
H95	H	0.644837	-0.572387	-0.969212
H96	H	0.561288	-0.608809	-0.859295
H97	H	0.868519	-0.713851	-0.787528
H98	H	1.523042	-0.260265	-0.789510
H99	H	0.652607	-0.515462	-0.838719
H100	H	1.620935	-0.304651	-1.125697
O101	O	0.988070	-0.621376	-0.651725
C102	C	1.071202	-0.646939	-0.487715
C103	C	0.973722	-0.616166	-0.542063
H104	H	1.059645	-0.642722	-0.399044
H105	H	1.082925	-0.714285	-0.514828
H106	H	1.143243	-0.606535	-0.509046
H107	H	0.901624	-0.656509	-0.520757
H108	H	0.962092	-0.548808	-0.514947
H109	H	1.215533	-0.492304	-1.043167
O110	O	1.071129	-0.591105	-1.143512
C111	C	0.901974	-0.660853	-1.176660
C112	C	1.015700	-0.646756	-1.214875
H113	H	0.857121	-0.705832	-1.234350
H114	H	0.902251	-0.688116	-1.095927
H115	H	0.862336	-0.598989	-1.171443
H116	H	1.055406	-0.708586	-1.220158
H117	H	1.015350	-0.619453	-1.295583
O118	O	0.753697	-0.405762	-0.707638
C119	C	0.802190	-0.259562	-0.712434
C120	C	0.835559	-0.349092	-0.735636
H121	H	0.868365	-0.213720	-0.735039
H122	H	0.728862	-0.248675	-0.759832
H123	H	0.784658	-0.250013	-0.625172
H124	H	0.853147	-0.358704	-0.822874
H125	H	0.908855	-0.359936	-0.688167
O126	O	1.339362	-0.645502	-1.395496
C127	C	1.313759	-0.666660	-1.582209
C128	C	1.277776	-0.622150	-1.479819
H129	H	1.263970	-0.647810	-1.650408
H130	H	1.399749	-0.648352	-1.597160
H131	H	1.304154	-0.736824	-1.574841
H132	H	1.287312	-0.551978	-1.487111
H133	H	1.191801	-0.640526	-1.464904
O134	O	0.891537	-0.296396	-0.392921
C135	C	0.725527	-0.249047	-0.330520
C136	C	0.782183	-0.307742	-0.408036
H137	H	0.637107	-0.258188	-0.342729
H138	H	0.746044	-0.263602	-0.246673
H139	H	0.751503	-0.181849	-0.344822
H140	H	0.756239	-0.374960	-0.393830
H141	H	0.761666	-0.293116	-0.491857
O142	O	1.287860	-0.131744	-0.175434
C143	C	1.436729	-0.115138	-0.058745
C144	C	1.372588	-0.173842	-0.136283
H145	H	1.505233	-0.149157	-0.027052
H146	H	1.468062	-0.058267	-0.100789
H147	H	1.384323	-0.094543	0.009070
H148	H	1.424928	-0.194502	-0.204115
H149	H	1.341245	-0.230671	-0.094162
O150	O	1.478703	-0.540687	-1.280601
C151	C	1.641456	-0.603160	-1.325235
C152	C	1.527754	-0.617191	-1.286922
H153	H	1.681154	-0.664999	-1.330337
H154	H	1.641133	-0.575985	-1.406019
H155	H	1.686283	-0.558087	-1.267635
H156	H	1.482860	-0.662279	-1.344446
H157	H	1.528155	-0.644325	-1.206117
O158	O	1.775276	-0.316779	-1.036047
C159	C	1.917688	-0.338546	-1.156760
C160	C	1.881618	-0.294027	-1.054410
H161	H	2.003662	-0.320154	-1.171651
H162	H	1.908154	-0.408724	-1.149487
H163	H	1.867916	-0.319672	-1.224959
H164	H	1.931364	-0.312833	-0.986160
H165	H	1.891128	-0.223858	-1.061773
H166	H	1.333676	-0.287659	-0.224886
O167	O	1.232556	-0.397353	-0.356068
C168	C	1.184117	-0.543556	-0.351174
C169	C	1.150763	-0.454028	-0.327916
H170	H	1.118014	-0.589403	-0.328403
H171	H	1.201568	-0.553193	-0.438444
H172	H	1.257505	-0.554348	-0.303823
H173	H	1.077356	-0.443174	-0.375200
H174	H	1.133381	-0.444434	-0.240628
H175	H	1.651156	-0.163567	-0.683844
