data_functionalizedCrystal
_audit_creation_method	'MofGen! by Chris Wilmer'
_symmetry_space_group_name_H-M	'P1'
_symmetry_Int_Tables_number	1
_symmetry_cell_setting	triclinic
loop_
_symmetry_equiv_pos_as_xyz
  x,y,z
_cell_length_a	6.817900
_cell_length_b	10.773890
_cell_length_c	16.255661
_cell_angle_alpha	96.333553
_cell_angle_beta	103.488922
_cell_angle_gamma	96.645716
loop_
_atom_site_label
_atom_site_type_symbol
_atom_site_fract_x
_atom_site_fract_y
_atom_site_fract_z
V1	V	-3.992025	-0.173597	-0.262484
O2	O	-4.015650	0.007305	-0.258906
O3	O	-3.909685	-0.343216	-0.259325
O4	O	-3.944030	-0.171382	-0.377585
O5	O	-3.981067	-0.165719	-0.139827
V6	V	-4.479998	-0.151905	-0.247979
O7	O	-4.243521	-0.221180	-0.294302
O8	O	-4.678700	-0.104323	-0.216161
O9	O	-4.339132	0.017714	-0.251139
O10	O	-4.573770	-0.332807	-0.251557
O11	O	-4.608353	-0.159783	-0.370637
O12	O	-4.304787	-0.154120	-0.132878
C13	C	-3.746415	-0.384552	-0.254832
C14	C	-3.760382	-0.523220	-0.253016
C15	C	-3.938468	-0.591095	-0.256172
C16	C	-3.952907	-0.734417	-0.254295
C17	C	-3.790225	-0.165358	-0.405684
C18	C	-3.832043	-0.164669	-0.499771
C19	C	-3.744244	-0.156440	-0.722655
C20	C	-3.879437	-0.262650	-0.791283
C21	C	-3.908685	-0.163377	-0.672030
C22	C	-3.848025	-0.055952	-0.771049
C23	C	-3.982704	-0.162124	-0.838423
C24	C	-4.043342	-0.269682	-0.739427
C25	C	-4.011886	-0.062890	-0.719178
C26	C	-4.147211	-0.169130	-0.787786
C27	C	-3.866040	-0.164100	-0.576175
C28	C	-4.025364	-0.161410	-0.934278
C29	C	-4.165742	0.059043	-0.255629
C30	C	-4.131013	0.197711	-0.257451
C31	C	-4.121933	-0.160148	-0.104775
C32	C	-4.059355	-0.160831	-0.010688
H33	H	-4.272806	-0.754302	-0.261546
C34	C	-3.516688	-0.149408	-0.684555
C35	C	-3.479944	-0.149023	-0.596108
C36	C	-3.270350	-0.142538	-0.560979
H37	H	-3.469393	-0.220458	-0.709366
H38	H	-3.446729	-0.074201	-0.695899
H39	H	-3.549876	-0.224223	-0.584770
H40	H	-3.527191	-0.077978	-0.571273
H41	H	-3.200392	-0.067330	-0.572323
H42	H	-3.223074	-0.213589	-0.585797
H43	H	-3.245390	-0.142264	-0.500963
H44	H	-3.811120	-0.782408	-0.250208
H45	H	-3.618608	-0.571217	-0.248929
C46	C	-3.804969	-0.375137	-0.833110
C47	C	-3.594493	-0.368038	-0.799942
C48	C	-3.525804	-0.471624	-0.838456
H49	H	-3.872792	-0.451045	-0.821758
H50	H	-3.833298	-0.374296	-0.893092
H51	H	-3.566182	-0.368890	-0.739973
H52	H	-3.526619	-0.292152	-0.811293
H53	H	-3.554133	-0.470783	-0.898438
H54	H	-3.593641	-0.547524	-0.827101
H55	H	-3.382988	-0.466815	-0.815963
C56	C	-4.152635	-0.390210	-0.720342
C57	C	-4.111749	-0.389511	-0.631777
C58	C	-4.212360	-0.500527	-0.614164
H59	H	-4.295331	-0.395098	-0.743146
H60	H	-4.105886	-0.461109	-0.745658
H61	H	-4.158509	-0.318631	-0.606472
H62	H	-3.969073	-0.384642	-0.608954
H63	H	-4.165611	-0.571426	-0.639479
H64	H	-4.355052	-0.505405	-0.636972
H65	H	-4.184619	-0.500073	-0.554072
C66	C	-4.085509	0.049886	-0.677279
C67	C	-3.982126	0.161481	-0.692831
C68	C	-4.049853	0.265406	-0.654234
H69	H	-4.227821	0.046347	-0.700401
H70	H	-4.059230	0.048232	-0.617415
H71	H	-4.008420	0.163133	-0.752683
H72	H	-3.839814	0.165062	-0.669707
H73	H	-4.023575	0.263753	-0.594371
H74	H	-4.192165	0.261854	-0.677360
H75	H	-3.979705	0.341135	-0.664775
H76	H	-3.765834	0.034351	-0.785380
C77	C	-4.127369	-0.526999	-0.261449
C78	C	-4.095701	-0.435486	-0.189645
C79	C	-4.269685	-0.376428	-0.194471
H80	H	-4.153235	-0.487903	-0.311722
H81	H	-4.241009	-0.588116	-0.263140
H82	H	-3.982096	-0.374378	-0.187963
H83	H	-4.069861	-0.474549	-0.139362
H84	H	-4.383324	-0.437544	-0.196162
H85	H	-4.295537	-0.337339	-0.244747
H86	H	-4.248229	-0.314338	-0.145750
C87	C	-4.374882	-0.176052	-0.825553
C88	C	-4.411954	-0.068418	-0.864312
C89	C	-4.621659	-0.074749	-0.899103
H90	H	-4.422452	-0.249223	-0.867000
H91	H	-4.444419	-0.180165	-0.781406
H92	H	-4.342443	-0.064318	-0.908454
H93	H	-4.364433	0.004769	-0.822882
H94	H	-4.691196	-0.078862	-0.854956
H95	H	-4.669210	-0.147923	-0.940547
H96	H	-4.646842	-0.001717	-0.925398
