data_functionalizedCrystal
_audit_creation_method	'MofGen! by Chris Wilmer'
_symmetry_space_group_name_H-M	'P1'
_symmetry_Int_Tables_number	1
_symmetry_cell_setting	triclinic
loop_
_symmetry_equiv_pos_as_xyz
  x,y,z
_cell_length_a	17.038272
_cell_length_b	11.792241
_cell_length_c	10.268362
_cell_angle_alpha	90.000374
_cell_angle_beta	89.994496
_cell_angle_gamma	92.347514
loop_
_atom_site_label
_atom_site_type_symbol
_atom_site_fract_x
_atom_site_fract_y
_atom_site_fract_z
O1	O	0.107207	-1.516303	-0.108175
O2	O	0.118256	-1.186930	-0.108205
O3	O	-0.001093	-1.349659	-0.108180
O4	O	0.226556	-1.353574	-0.108200
O5	O	-0.001098	-1.349643	0.108421
O6	O	0.118251	-1.186914	0.108396
O7	O	0.107202	-1.516287	0.108426
Cu8	Cu	0.112726	-1.351600	0.128188
Cu9	Cu	0.112732	-1.351618	-0.127967
O10	O	0.226551	-1.353558	0.108401
C11	C	0.117559	-1.144571	0.000092
C12	C	0.115482	-1.018375	0.000080
N13	N	0.112721	-1.351595	0.308354
C14	C	-0.030239	-1.346090	0.000120
C15	C	-0.117079	-1.335466	0.000119
C16	C	-0.166762	-1.433006	0.000129
C17	C	-0.248357	-1.423017	0.000116
C18	C	-0.280267	-1.315487	0.000102
C19	C	-0.230577	-1.217940	0.000087
C20	C	-0.148984	-1.227930	0.000091
C21	C	-0.526181	-1.280194	0.000081
C22	C	-0.607780	-1.270211	0.000080
C23	C	-0.625554	-1.475289	0.000107
C24	C	-0.543958	-1.485270	0.000118
C25	C	-0.494276	-1.387723	0.000097
C26	C	-0.363669	-1.305274	0.000092
C27	C	-0.410875	-1.397937	0.000097
C28	C	0.255697	-1.357127	0.000098
C29	C	0.342537	-1.367751	0.000091
C30	C	0.107899	-1.558647	0.000127
C31	C	0.109976	-1.684843	0.000130
C32	C	0.111662	-0.787328	0.000118
C33	C	0.113785	-0.915899	0.000097
N34	N	0.112730	-1.351631	-0.308133
C35	C	0.112730	-1.351612	0.574025
C36	C	0.112728	-1.351599	0.426187
H37	H	-0.140788	-1.520568	0.000149
H38	H	-0.256565	-1.130387	0.000067
H39	H	-0.288806	-1.502445	0.000127
H40	H	-0.633757	-1.182643	0.000090
H41	H	-0.517984	-1.572832	0.000130
H42	H	-0.485738	-1.200764	0.000064
H43	H	-0.389660	-1.217723	0.000083
H44	H	-0.108532	-1.148503	0.000083
H45	H	-0.666014	-1.554706	0.000121
H46	H	-0.384890	-1.485487	0.000080
