data_functionalizedCrystal
_audit_creation_method	'MofGen! by Chris Wilmer'
_symmetry_space_group_name_H-M	'P1'
_symmetry_Int_Tables_number	1
_symmetry_cell_setting	triclinic
loop_
_symmetry_equiv_pos_as_xyz
  x,y,z
_cell_length_a	18.215407
_cell_length_b	13.897448
_cell_length_c	18.215399
_cell_angle_alpha	89.973672
_cell_angle_beta	89.980167
_cell_angle_gamma	90.018140
loop_
_atom_site_label
_atom_site_type_symbol
_atom_site_fract_x
_atom_site_fract_y
_atom_site_fract_z
Zn1	Zn	1.125109	-0.384013	-0.416124
Zn2	Zn	1.125033	-0.545323	-0.293061
Zn3	Zn	1.002041	-0.384045	-0.293072
Zn4	Zn	1.002023	-0.545269	-0.416086
O5	O	1.063551	-0.464663	-0.354586
O6	O	1.228083	-0.405421	-0.399811
O7	O	1.108693	-0.523965	-0.190078
O8	O	1.018406	-0.249059	-0.309415
O9	O	1.228027	-0.523934	-0.309398
O10	O	1.108823	-0.249036	-0.399821
O11	O	1.018332	-0.405474	-0.190086
O12	O	0.899055	-0.405422	-0.309378
O13	O	1.018374	-0.523843	-0.519076
O14	O	0.899041	-0.523873	-0.399757
O15	O	1.108805	-0.405369	-0.519103
O16	O	1.108675	-0.680297	-0.309361
O17	O	1.018300	-0.680258	-0.399747
C18	C	0.872345	-0.464646	-0.354565
C19	C	0.790546	-0.464662	-0.354573
C20	C	0.602364	-0.526437	-0.401574
C21	C	0.525506	-0.526440	-0.401583
C22	C	0.525490	-0.402906	-0.307614
C23	C	0.602348	-0.402899	-0.307609
C24	C	0.640783	-0.464670	-0.354588
C25	C	0.487067	-0.464680	-0.354602
C26	C	0.403733	-0.464683	-0.354612
C27	C	0.724122	-0.464666	-0.354579
C28	C	1.063498	-0.715277	-0.354565
C29	C	1.063542	-0.822491	-0.354580
C30	C	1.063619	-1.018786	-0.354626
C31	C	1.063574	-0.909553	-0.354603
C32	C	1.255504	-0.464680	-0.354607
C33	C	1.337303	-0.464687	-0.354617
C34	C	1.063596	-0.464596	-0.546539
C35	C	1.063615	-0.464568	-0.628338
C36	C	1.063625	-0.213070	-0.354623
C37	C	1.063657	-0.105856	-0.354639
C38	C	1.110720	-0.402821	-0.816547
C39	C	1.110728	-0.402792	-0.893406
C40	C	1.016563	-0.526166	-0.893366
C41	C	1.016551	-0.526188	-0.816509
C42	C	1.063634	-0.464517	-0.778101
C43	C	1.063654	-0.464466	-0.931818
C44	C	1.063663	-0.464436	-1.015151
C45	C	1.063624	-0.464546	-0.694762
C46	C	1.063549	-0.464659	-0.163380
C47	C	1.063672	-0.464416	-0.081581
H48	H	0.494187	-0.352616	-0.269364
C49	C	1.162503	-0.334977	-0.774299
C50	C	1.162496	-0.334999	-0.689759
C51	C	1.214280	-0.267151	-0.647512
C52	C	1.266071	-0.199283	-0.689806
C53	C	1.266079	-0.199259	-0.774351
C54	C	1.214296	-0.267106	-0.816597
H55	H	1.124156	-0.385242	-0.658446
H56	H	1.214273	-0.267170	-0.584926
H57	H	1.304404	-0.149058	-0.658533
H58	H	1.304420	-0.149016	-0.805663
H59	H	1.214303	-0.267088	-0.879183
C60	C	1.162526	-0.334926	-0.935696
C61	C	1.246184	-0.342810	-0.925146
C62	C	1.297983	-0.274939	-0.967435
C63	C	1.266123	-0.199185	-1.020275
C64	C	1.182461	-0.191298	-1.030828
C65	C	1.130662	-0.259169	-0.988538
H66	H	1.269772	-0.398890	-0.886028
H67	H	1.359915	-0.280777	-0.959622
H68	H	1.304468	-0.148942	-1.051580
H69	H	1.158873	-0.135218	-1.069945
H70	H	1.068730	-0.253331	-0.996351
H71	H	0.494229	-0.576735	-0.439845
H72	H	0.633629	-0.352595	-0.269347
C73	C	0.964780	-0.594009	-0.935616
C74	C	0.964794	-0.593992	-1.020156
C75	C	0.913011	-0.661840	-1.062404
C76	C	0.861216	-0.729704	-1.020112
C77	C	0.861200	-0.729723	-0.935567
C78	C	0.912983	-0.661875	-0.893319
H79	H	1.003137	-0.543753	-1.051467
H80	H	0.913023	-0.661825	-1.124990
H81	H	0.822883	-0.779928	-1.051386
H82	H	0.822856	-0.779962	-0.904256
H83	H	0.912971	-0.661890	-0.830733
H84	H	0.978203	-0.576428	-0.785205
H85	H	0.633656	-0.576732	-0.439829
