data_functionalizedCrystal
_audit_creation_method	'MofGen! by Chris Wilmer'
_symmetry_space_group_name_H-M	'P1'
_symmetry_Int_Tables_number	1
_symmetry_cell_setting	triclinic
loop_
_symmetry_equiv_pos_as_xyz
  x,y,z
_cell_length_a	9.065218
_cell_length_b	16.776229
_cell_length_c	9.065215
_cell_angle_alpha	89.994350
_cell_angle_beta	85.015325
_cell_angle_gamma	89.990718
loop_
_atom_site_label
_atom_site_type_symbol
_atom_site_fract_x
_atom_site_fract_y
_atom_site_fract_z
O1	O	-1.960404	0.066327	-0.216362
O2	O	-1.531119	0.066320	-0.234108
O3	O	-1.754637	0.066320	-0.010592
O4	O	-1.736887	0.066327	-0.439878
O5	O	-1.754607	-0.066256	-0.010578
O6	O	-1.531089	-0.066257	-0.234094
O7	O	-1.960374	-0.066249	-0.216347
Zn8	Zn	-1.745727	-0.087302	-0.225218
Zn9	Zn	-1.745767	0.087373	-0.225237
O10	O	-1.736856	-0.066250	-0.439863
C11	C	-1.476118	0.000031	-0.232395
C12	C	-1.312275	0.000028	-0.227296
N13	N	-1.745710	-0.206514	-0.225205
C14	C	-1.844715	-0.248230	-0.126273
C15	C	-1.844724	-0.331683	-0.126272
C16	C	-1.745733	-0.373416	-0.225211
C17	C	-1.646717	-0.331694	-0.324147
C18	C	-1.646703	-0.248243	-0.324139
C19	C	-1.646771	-0.668241	-0.324176
C20	C	-1.646796	-0.751697	-0.324179
C21	C	-1.844791	-0.751681	-0.126309
C22	C	-1.844777	-0.668230	-0.126302
C23	C	-1.745757	-0.626514	-0.225232
C24	C	-1.745748	-0.536026	-0.225230
C25	C	-1.745748	-0.463903	-0.225221
C26	C	-1.015376	0.000037	-0.218060
C27	C	-1.179219	0.000030	-0.223159
C28	C	-1.752917	0.000033	0.044402
C29	C	-1.747819	0.000035	0.208245
N30	N	-1.745795	0.206584	-0.225239
C31	C	-1.738576	0.000039	-0.494857
C32	C	-1.743674	0.000042	-0.658700
H33	H	-1.925331	-0.214256	-0.045713
H34	H	-1.566110	-0.365678	-0.404699
H35	H	-1.566180	-0.785676	-0.404749
H36	H	-1.925340	-0.365648	-0.045714
H37	H	-1.566148	-0.634283	-0.404731
H38	H	-1.566082	-0.214278	-0.404697
H39	H	-1.925415	-0.785654	-0.045750
H40	H	-1.925389	-0.634253	-0.045742
