data_functionalizedCrystal
_audit_creation_method	'MofGen! by Chris Wilmer'
_symmetry_space_group_name_H-M	'P1'
_symmetry_Int_Tables_number	1
_symmetry_cell_setting	triclinic
loop_
_symmetry_equiv_pos_as_xyz
  x,y,z
_cell_length_a	19.188925
_cell_length_b	19.188930
_cell_length_c	15.021413
_cell_angle_alpha	89.998889
_cell_angle_beta	89.991764
_cell_angle_gamma	83.143665
loop_
_atom_site_label
_atom_site_type_symbol
_atom_site_fract_x
_atom_site_fract_y
_atom_site_fract_z
O1	O	0.926151	0.087140	-0.074061
O2	O	1.426151	0.587140	0.425939
O3	O	0.722839	0.098878	-0.074060
O4	O	1.222839	0.598878	0.425940
O5	O	0.830362	-0.008647	-0.074043
O6	O	1.330362	0.491353	0.425957
O7	O	0.818628	0.194665	-0.074078
O8	O	1.318628	0.694665	0.425922
O9	O	0.830345	-0.008631	0.074021
O10	O	1.330345	0.491369	0.574021
O11	O	0.722822	0.098894	0.074004
O12	O	1.222822	0.598894	0.574004
O13	O	0.926134	0.087155	0.074003
O14	O	1.426134	0.587155	0.574003
Zn15	Zn	0.824475	0.093027	0.097512
Zn16	Zn	1.324475	0.593027	0.597512
Zn17	Zn	0.824498	0.093007	-0.097569
Zn18	Zn	1.324498	0.593007	0.402431
O19	O	0.818611	0.194680	0.073986
O20	O	1.318611	0.694680	0.573986
C21	C	0.696820	0.098507	-0.000028
C22	C	1.196820	0.598507	0.499972
C23	C	0.619315	0.097367	-0.000026
C24	C	1.119315	0.597367	0.499974
C25	C	0.057545	0.152831	-0.000038
C26	C	0.557545	0.652831	0.499962
C27	C	0.130368	0.153908	-0.000043
C28	C	0.630368	0.653908	0.499957
C29	C	0.175302	0.090816	-0.000031
C30	C	0.675302	0.590816	0.499969
C31	C	0.147408	0.026642	-0.000036
C32	C	0.647408	0.526642	0.499964
C33	C	0.074586	0.025568	-0.000040
C34	C	0.574586	0.525568	0.499960
N35	N	0.295974	0.045145	0.050379
N36	N	0.795974	0.545145	0.550379
N37	N	0.365151	0.046170	0.050385
N38	N	0.865151	0.546170	0.550385
C39	C	0.394712	0.094050	-0.000021
C40	C	0.894712	0.594050	0.499979
N41	N	0.352480	0.140876	-0.050421
N42	N	0.852480	0.640876	0.449579
N43	N	0.283296	0.139853	-0.050423
N44	N	0.783296	0.639853	0.449577
C45	C	0.254267	0.091974	-0.000027
C46	C	0.754267	0.591974	0.499973
C47	C	0.501561	0.159386	-0.000027
C48	C	1.001561	0.659386	0.499973
C49	C	0.574385	0.160460	-0.000037
C50	C	1.074385	0.660460	0.499963
C51	C	0.591425	0.033193	-0.000021
C52	C	1.091425	0.533193	0.499979
C53	C	0.518601	0.032121	-0.000020
C54	C	1.018601	0.532121	0.499980
C55	C	0.473673	0.095220	-0.000018
C56	C	0.973673	0.595220	0.499982
C57	C	0.829974	-0.034650	-0.000009
C58	C	1.329974	0.465350	0.499991
C59	C	0.828833	-0.112154	-0.000001
C60	C	1.328833	0.387846	0.499999
C61	C	0.891924	-0.157079	0.000003
C62	C	1.391924	0.342921	0.500003
C63	C	0.890852	-0.229903	-0.000011
C64	C	1.390852	0.270097	0.499989
C65	C	0.826686	-0.257799	-0.000012
C66	C	1.326686	0.242201	0.499988
C67	C	0.763587	-0.212864	-0.000021
C68	C	1.263587	0.287136	0.499979
C69	C	0.764660	-0.140041	-0.000015
C70	C	1.264660	0.359959	0.499985
N71	N	0.777633	-0.365797	0.050378
N72	N	1.277633	0.134203	0.550378
N73	N	0.776617	-0.434976	0.050375
N74	N	1.276617	0.065024	0.550375
C75	C	0.823448	-0.477207	-0.000030
C76	C	1.323448	0.022793	0.499970
N77	N	0.871343	-0.447648	-0.050419
N78	N	1.371343	0.052352	0.449581
N79	N	0.872361	-0.378463	-0.050412
N80	N	1.372361	0.121537	0.449588
C81	C	0.825515	-0.336761	-0.000018
C82	C	1.325515	0.163239	0.499982
C83	C	0.885381	-0.601097	-0.000042
C84	C	1.385381	-0.101097	0.499958
C85	C	0.884307	-0.673922	-0.000062
C86	C	1.384307	-0.173922	0.499938
C87	C	0.757040	-0.656880	-0.000062
C88	C	1.257040	-0.156880	0.499938
C89	C	0.758116	-0.584057	-0.000052
C90	C	1.258116	-0.084057	0.499948
C91	C	0.822289	-0.556170	-0.000037
C92	C	1.322289	-0.056170	0.499963
C93	C	0.952154	0.087527	-0.000031
C94	C	1.452154	0.587527	0.499969
C95	C	1.029658	0.088666	-0.000038
C96	C	1.529658	0.588666	0.499962
C97	C	0.819000	0.220684	-0.000050
C98	C	1.319000	0.720684	0.499950
C99	C	0.820140	0.298188	-0.000064
C100	C	1.320140	0.798188	0.499936
N101	N	0.824465	0.093040	0.230650
N102	N	1.324465	0.593040	0.730650
N103	N	0.824514	0.092988	-0.230707
N104	N	1.324514	0.592988	0.269293
C105	C	0.774739	0.142737	0.470325
C106	C	1.274739	0.642737	0.970325
C107	C	0.837788	0.156094	0.529656
C108	C	1.337788	0.656094	1.029656
C109	C	0.824483	0.093023	0.412256
C110	C	1.324483	0.593023	0.912256
C111	C	0.761451	0.079681	0.529667
C112	C	1.261451	0.579681	1.029667
C113	C	0.824495	0.093008	0.587681
C114	C	1.324495	0.593008	1.087681
C115	C	0.887563	0.106412	0.470281
C116	C	1.387563	0.606412	0.970281
C117	C	0.811186	0.029971	0.470287
C118	C	1.311186	0.529971	0.970287
C119	C	0.874280	0.043302	0.529591
C120	C	1.374280	0.543302	1.029591
C121	C	0.824475	0.093034	0.311199
C122	C	1.324475	0.593034	0.811199
C123	C	0.824510	0.092996	0.688736
C124	C	1.324510	0.592996	1.188736
H125	H	0.597088	0.212713	-0.000044
H126	H	1.097088	0.712713	0.499956
Br127	Br	0.208389	-0.058984	-0.000027
Br128	Br	0.708389	0.441016	0.499973
H129	H	0.628010	-0.018178	-0.000018
H130	H	1.128010	0.481822	0.499982
Br131	Br	0.669955	-0.694730	-0.000072
Br132	Br	1.169955	-0.194730	0.499928
Br133	Br	0.480752	-0.054965	-0.000028
Br134	Br	0.980752	0.445035	0.499972
Br135	Br	0.440583	0.245018	-0.000025
Br136	Br	0.940583	0.745018	0.499975
Br137	Br	0.672487	-0.523083	-0.000056
Br138	Br	1.172487	-0.023083	0.499944
Br139	Br	0.036738	-0.061520	-0.000046
Br140	Br	0.536738	0.438480	0.499954
Br141	Br	0.979015	-0.119236	-0.000002
Br142	Br	1.479015	0.380764	0.499998
H143	H	0.711342	-0.235581	-0.000023
H144	H	1.211342	0.264419	0.499977
H145	H	0.708142	0.068403	0.555755
H146	H	1.208142	0.568403	1.055755
H147	H	0.942230	-0.266488	-0.000012
H148	H	1.442230	0.233512	0.499988
Br149	Br	0.679030	-0.079067	-0.000023
Br150	Br	1.179030	0.420933	0.499977
Br151	Br	0.704695	0.212860	0.426947
Br152	Br	1.204695	0.712860	0.926947
Br153	Br	0.972470	-0.563245	-0.000014
Br154	Br	1.472470	-0.063245	0.499986
H155	H	0.849045	0.209409	0.555734
H156	H	1.349045	0.709409	1.055734
H157	H	0.935686	-0.710500	-0.000064
H158	H	1.435686	-0.210500	0.499936
Br159	Br	0.976438	0.125311	0.426994
Br160	Br	1.476438	0.625311	0.926994
H161	H	0.916398	0.001251	0.555450
H162	H	1.416398	0.501251	1.055450
H163	H	0.799909	-0.023326	0.444188
H164	H	1.299909	0.476674	0.944188
H165	H	0.153078	0.206160	-0.000034
H166	H	0.653078	0.706160	0.499966
Br167	Br	-0.003426	0.238465	-0.000046
Br168	Br	0.496574	0.738465	0.499954
