data_functionalizedCrystal
_audit_creation_method	'MofGen! by Chris Wilmer'
_symmetry_space_group_name_H-M	'P1'
_symmetry_Int_Tables_number	1
_symmetry_cell_setting	triclinic
loop_
_symmetry_equiv_pos_as_xyz
  x,y,z
_cell_length_a	14.853569
_cell_length_b	17.666332
_cell_length_c	14.853568
_cell_angle_alpha	89.998117
_cell_angle_beta	96.364624
_cell_angle_gamma	90.007377
loop_
_atom_site_label
_atom_site_type_symbol
_atom_site_fract_x
_atom_site_fract_y
_atom_site_fract_z
O1	O	1.196370	0.062906	-0.117712
O2	O	0.933911	0.062914	-0.131732
O3	O	1.072151	0.062913	0.006507
O4	O	1.058130	0.062906	-0.255952
O5	O	1.072127	-0.062983	0.006515
O6	O	0.933887	-0.062983	-0.131725
O7	O	1.196346	-0.062991	-0.117705
Cu8	Cu	1.065114	-0.074482	-0.124714
Cu9	Cu	1.065143	0.074405	-0.124723
O10	O	1.058106	-0.062990	-0.255945
C11	C	0.900310	-0.000033	-0.131093
C12	C	0.800227	-0.000030	-0.129189
C13	C	0.763850	-0.000025	-0.046178
C14	C	0.742561	-0.000038	-0.210410
C15	C	0.648527	-0.000039	-0.208624
C16	C	0.612150	-0.000034	-0.125613
C17	C	0.669807	-0.000028	-0.044389
C18	C	0.590862	-0.000052	-0.289847
C19	C	0.496822	-0.000054	-0.288064
C20	C	0.460444	-0.000043	-0.205052
C21	C	0.518107	-0.000037	-0.123824
C22	C	0.481730	-0.000032	-0.040813
C23	C	0.539393	-0.000020	0.040415
C24	C	0.633429	-0.000018	0.038623
C25	C	0.366407	-0.000046	-0.203259
C26	C	0.387688	-0.000035	-0.039024
N27	N	1.065101	-0.179202	-0.124708
C28	C	1.126333	-0.218812	-0.063525
C29	C	1.126338	-0.298059	-0.063521
C30	C	1.065120	-0.337694	-0.124714
C31	C	1.003876	-0.298074	-0.185902
C32	C	1.003866	-0.218828	-0.185898
N33	N	1.053744	-0.462114	-0.204472
N34	N	1.053758	-0.537395	-0.204473
C35	C	1.065143	-0.576458	-0.124727
N36	N	1.076531	-0.537396	-0.044978
N37	N	1.076521	-0.462109	-0.044979
C38	C	1.065123	-0.423623	-0.124725
C39	C	1.126385	-0.701997	-0.063535
C40	C	1.126384	-0.781246	-0.063529
C41	C	1.003925	-0.781260	-0.185918
C42	C	1.003922	-0.702012	-0.185916
C43	C	1.065157	-0.662386	-0.124725
C44	C	1.229947	-0.000042	-0.118344
C45	C	1.330030	-0.000041	-0.120249
C46	C	1.071504	-0.000032	0.040100
C47	C	1.069599	-0.000025	0.140183
N48	N	1.065164	0.179125	-0.124723
C49	C	0.979433	-0.000031	0.552718
C50	C	1.143666	-0.000036	0.573998
C51	C	1.145456	-0.000033	0.479964
C52	C	1.064233	-0.000030	0.422303
C53	C	0.981221	-0.000030	0.458675
C54	C	1.228467	-0.000040	0.443584
C55	C	1.230261	-0.000038	0.349545
C56	C	1.149037	-0.000029	0.291882
C57	C	1.066021	-0.000029	0.328260
C58	C	0.984799	-0.000026	0.270598
C59	C	0.901782	-0.000020	0.306974
C60	C	0.899997	-0.000022	0.401012
C61	C	1.150822	-0.000028	0.197845
C62	C	0.986587	-0.000025	0.176556
C63	C	1.058753	-0.000040	0.710463
C64	C	1.060655	-0.000034	0.610379
H65	H	0.509762	-0.000011	0.108003
H66	H	0.772185	-0.000047	-0.277994
H67	H	1.176192	-0.186550	-0.013698
H68	H	0.954077	-0.813530	-0.235740
H69	H	0.954029	-0.330349	-0.235725
O70	O	0.819820	0.000122	0.032748
C71	C	0.803298	0.065318	0.083139
H72	H	0.771222	0.110884	0.035575
H73	H	0.869968	0.087214	0.119208
H74	H	0.755348	0.050577	0.135380
H75	H	1.176203	-0.330316	-0.013697
H76	H	1.297858	-0.000042	0.319937
O77	O	0.689405	0.000124	0.117545
C78	C	0.672900	0.065322	0.167941
H79	H	0.640824	0.110892	0.120383
H80	H	0.739577	0.087210	0.204003
H81	H	0.624955	0.050584	0.220189
O82	O	0.310360	-0.000192	-0.282130
C83	C	0.255303	-0.065385	-0.285986
H84	H	0.289675	-0.110953	-0.239916
H85	H	0.244822	-0.087282	-0.358589
H86	H	0.186895	-0.050640	-0.262574
O87	O	0.626248	0.000065	-0.370451
C88	C	0.680035	0.065256	-0.376406
H89	H	0.657731	0.110842	-0.329294
H90	H	0.671707	0.087122	-0.449063
H91	H	0.754159	0.050519	-0.355679
O92	O	0.440943	-0.000026	-0.367048
C93	C	0.493216	-0.000051	-0.440697
H94	H	0.563374	0.023783	-0.417900
H95	H	0.458610	0.036498	-0.497616
H96	H	0.499935	-0.060452	-0.466130
H97	H	1.218413	-0.000037	0.168232
H98	H	0.832409	-0.000018	0.430638
H99	H	0.954002	-0.186577	-0.235721
O100	O	1.185892	-0.663616	-0.004004
C101	C	1.239949	-0.715575	0.049992
H102	H	1.202992	-0.772070	0.051078
H103	H	1.253612	-0.692678	0.121966
H104	H	1.306955	-0.723991	0.020597
O105	O	0.944414	-0.663648	-0.245443
C106	C	0.890364	-0.715620	-0.299440
H107	H	0.927331	-0.772103	-0.300529
H108	H	0.876695	-0.692722	-0.371413
H109	H	0.823361	-0.724063	-0.270044
O110	O	0.352462	0.000072	0.041671
C111	C	0.381899	0.065292	0.091167
H112	H	0.447150	0.087032	0.066514
H113	H	0.394854	0.050636	0.166230
H114	H	0.327499	0.110944	0.080783
O115	O	0.822801	-0.000049	0.251087
C116	C	0.749143	-0.000022	0.303349
H117	H	0.771927	-0.023856	0.373506
H118	H	0.692222	-0.036569	0.268732
H119	H	0.723719	0.060380	0.310071
O120	O	0.907769	0.000012	0.120418
C121	C	0.927143	-0.000011	0.029616
H122	H	0.997965	0.023819	0.025916
H123	H	0.875387	0.036542	-0.012921
H124	H	0.923743	-0.060411	0.002430
H125	H	1.176244	-0.813497	-0.013702
O126	O	0.898872	-0.000060	0.588197
C127	C	0.914703	-0.000038	0.683561
H128	H	0.985025	-0.023875	0.705556
H129	H	0.861571	-0.036586	0.712504
H130	H	0.910315	0.060362	0.709738
O131	O	1.222535	0.000093	0.630044
C132	C	1.226413	0.065283	0.685096
H133	H	1.180363	0.110859	0.650719
H134	H	1.299023	0.087167	0.695582
H135	H	1.202989	0.050537	0.753504
H136	H	1.294594	-0.000050	0.490539
