data_functionalizedCrystal
_audit_creation_method	'MofGen! by Chris Wilmer'
_symmetry_space_group_name_H-M	'P1'
_symmetry_Int_Tables_number	1
_symmetry_cell_setting	triclinic
loop_
_symmetry_equiv_pos_as_xyz
  x,y,z
_cell_length_a	10.686285
_cell_length_b	10.686154
_cell_length_c	10.685910
_cell_angle_alpha	90.320585
_cell_angle_beta	99.055934
_cell_angle_gamma	89.656155
loop_
_atom_site_label
_atom_site_type_symbol
_atom_site_fract_x
_atom_site_fract_y
_atom_site_fract_z
Zn1	Zn	-0.308208	-1.993873	0.537250
Zn2	Zn	-0.536679	-1.993836	0.308759
Zn3	Zn	-0.340411	-1.770325	0.340911
Zn4	Zn	-0.534231	-1.800021	0.534732
O5	O	-0.429882	-1.889514	0.430413
O6	O	-0.326063	-2.168536	0.494539
O7	O	-0.525146	-1.951743	0.136285
O8	O	-0.159409	-1.787566	0.381465
O9	O	-0.493919	-2.168509	0.326668
O10	O	-0.135749	-1.951806	0.525715
O11	O	-0.380948	-1.787530	0.159907
O12	O	-0.378574	-1.599596	0.379023
O13	O	-0.489746	-1.838180	0.711805
O14	O	-0.520973	-1.621414	0.521423
O15	O	-0.323688	-1.980602	0.713655
O16	O	-0.713085	-1.980539	0.324226
O17	O	-0.711286	-1.838144	0.490247
C18	C	-0.453003	-1.565216	0.453439
C19	C	-0.462922	-1.426484	0.463317
C20	C	-0.758005	-1.912596	0.403499
C21	C	-0.898365	-1.922587	0.392019
C22	C	-0.100474	-1.866378	0.457458
C23	C	0.039900	-1.856518	0.468982
C24	C	-0.402852	-1.912707	0.759838
C25	C	-0.391333	-1.922591	0.900219
C26	C	-0.406666	-1.215077	0.407285
C27	C	-0.396759	-1.353809	0.397395
C28	C	-0.456838	-1.866405	1.102268
C29	C	-0.468363	-1.856529	0.961885
H30	H	-0.332528	-1.397728	0.333388
O31	O	-0.557616	-1.780200	0.896597
C32	C	-0.741455	-1.765033	0.734752
C33	C	-0.640434	-1.851609	0.808589
H34	H	-0.808456	-1.822736	0.663600
H35	H	-0.693209	-1.691418	0.682293
H36	H	-0.797544	-1.716851	0.803779
H37	H	-0.584313	-1.899877	0.739648
H38	H	-0.688757	-1.925148	0.861067
O39	O	-0.895140	-1.779742	0.557955
C40	C	-0.864888	-1.568851	0.637495
C41	C	-0.938538	-1.655653	0.536638
H42	H	-0.899965	-1.468511	0.620312
H43	H	-0.759471	-1.574063	0.631205
H44	H	-0.880763	-1.599743	0.735702
H45	H	-0.922767	-1.624821	0.438385
H46	H	-1.043928	-1.650431	0.543040
O47	O	-0.302167	-1.998991	0.965554
C48	C	-0.209083	-2.078926	1.169723
C49	C	-0.310099	-1.992339	1.095892
H50	H	-0.215480	-2.073597	1.275111
H51	H	-0.110875	-2.048051	1.153873
H52	H	-0.226171	-2.179311	1.134818
H53	H	-0.293131	-1.891930	1.130750
H54	H	-0.408273	-2.023320	1.111742
H55	H	-0.527158	-1.382570	0.527311
O56	O	-0.963234	-1.999371	0.302981
C57	C	-0.993524	-2.210306	0.223575
C58	C	-0.919960	-2.123478	0.324463
H59	H	-0.958583	-2.310668	0.240924
H60	H	-0.977588	-2.179590	0.125330
H61	H	-1.098939	-2.204941	0.229832
H62	H	-0.814522	-2.128800	0.318323
H63	H	-0.936001	-2.154220	0.422665
