data_functionalizedCrystal
_audit_creation_method	'MofGen! by Chris Wilmer'
_symmetry_space_group_name_H-M	'P1'
_symmetry_Int_Tables_number	1
_symmetry_cell_setting	triclinic
loop_
_symmetry_equiv_pos_as_xyz
  x,y,z
_cell_length_a	12.759401
_cell_length_b	12.645330
_cell_length_c	12.759393
_cell_angle_alpha	90.028694
_cell_angle_beta	90.018202
_cell_angle_gamma	90.017853
loop_
_atom_site_label
_atom_site_type_symbol
_atom_site_fract_x
_atom_site_fract_y
_atom_site_fract_z
Zn1	Zn	1.606230	-0.421986	0.593992
Zn2	Zn	1.606117	-0.599286	0.418317
Zn3	Zn	1.430533	-0.422038	0.418332
Zn4	Zn	1.430512	-0.599209	0.593959
O5	O	1.518348	-0.510630	0.506150
O6	O	1.753236	-0.445517	0.570697
O7	O	1.582786	-0.575828	0.271298
O8	O	1.453897	-0.273684	0.441654
O9	O	1.753153	-0.575778	0.441629
O10	O	1.582981	-0.273646	0.570711
O11	O	1.453786	-0.445604	0.271309
O12	O	1.283510	-0.445529	0.441621
O13	O	1.453860	-0.575646	0.740984
O14	O	1.283494	-0.575696	0.570653
O15	O	1.582960	-0.445442	0.741009
O16	O	1.582766	-0.747623	0.441596
O17	O	1.453750	-0.747566	0.570639
C18	C	1.245381	-0.510610	0.506136
C19	C	1.128604	-0.510627	0.506155
C20	C	1.518271	-0.786060	0.506135
C21	C	1.518335	-0.903890	0.506164
C22	C	1.073761	-0.578514	0.573231
C23	C	0.964037	-0.578527	0.573242
C24	C	0.964008	-0.442765	0.439092
C25	C	1.073730	-0.442747	0.439087
C26	C	1.128635	-0.646394	0.640298
C27	C	1.073792	-0.714287	0.707379
C28	C	0.964068	-0.714300	0.707390
C29	C	0.909187	-0.646421	0.640321
C30	C	1.437506	-1.071462	0.587595
C31	C	1.437092	-0.948902	0.587334
C32	C	1.488362	-0.948491	0.395443
C33	C	1.487868	-1.071090	0.395937
C34	C	1.629631	-1.070977	0.534556
C35	C	1.628949	-0.948370	0.536977
C36	C	1.792381	-0.510650	0.506165
C37	C	1.909158	-0.510659	0.506171
C38	C	1.518420	-0.510529	0.780183
C39	C	1.518451	-0.510487	0.896960
C40	C	1.518454	-0.234125	0.506188
C41	C	1.518499	-0.116294	0.506204
C42	C	1.518337	-0.510653	0.233183
C43	C	1.518509	-0.510398	0.116407
C44	C	1.585660	-0.578217	1.061546
C45	C	1.585628	-0.578265	0.951821
C46	C	1.451293	-0.442664	0.951829
C47	C	1.451320	-0.442622	1.061551
C48	C	1.652849	-0.645992	1.116401
C49	C	1.720006	-0.713817	1.061540
C50	C	1.719974	-0.713864	0.951816
C51	C	1.652786	-0.646088	0.896953
H52	H	1.217978	-0.646393	0.640294
H53	H	0.919315	-0.387502	0.384487
C54	C	1.133093	-0.369014	0.366136
C55	C	1.061555	-0.309601	0.307372
C56	C	1.116201	-0.241677	0.240147
H57	H	1.175925	-0.322771	0.406279
H58	H	1.175846	-0.409490	0.320237
H59	H	1.018820	-0.269128	0.353266
H60	H	1.018720	-0.355816	0.267208
H61	H	1.158955	-0.282153	0.194248
H62	H	1.159032	-0.195441	0.280299
H63	H	1.067672	-0.201364	0.200261
C64	C	1.710240	-1.109688	0.455692
C65	C	1.787826	-1.167652	0.507831
C66	C	1.862098	-1.203323	0.435216
H67	H	1.676916	-1.153499	0.405187
H68	H	1.741332	-1.050746	0.421581
H69	H	1.756736	-1.226586	0.541924
H70	H	1.821177	-1.123863	0.558329
H71	H	1.893190	-1.144380	0.401105
H72	H	1.828764	-1.247130	0.384715
H73	H	1.914753	-1.242647	0.470582
C74	C	1.378461	-0.369099	1.121312
C75	C	1.392848	-0.383591	1.229142
C76	C	1.325736	-0.315891	1.284227
H77	H	1.393794	-0.297836	1.103468
H78	H	1.307836	-0.384623	1.103387
H79	H	1.463457	-0.368060	1.247059
H80	H	1.377507	-0.454840	1.247017
H81	H	1.255111	-0.331415	1.266302
H82	H	1.341075	-0.244632	1.266375
H83	H	1.335481	-0.325721	1.357395
H84	H	1.652754	-0.646144	0.807608
C85	C	1.379465	-1.109149	0.363948
C86	C	1.315032	-1.021757	0.344351
C87	C	1.215158	-1.056770	0.314896
H88	H	1.384706	-1.151001	0.302332
H89	H	1.350172	-1.150317	0.418893
H90	H	1.344318	-0.980607	0.289410
H91	H	1.309760	-0.979896	0.405953
H92	H	1.185865	-1.097938	0.369841
H93	H	1.220410	-1.098622	0.253282
H94	H	1.171425	-0.997481	0.301605
H95	H	1.396593	-0.387482	0.907151
C96	C	1.133561	-0.787937	0.780083
C97	C	1.241390	-0.773418	0.765699
C98	C	1.296479	-0.841255	0.832649
H99	H	1.115738	-0.772578	0.850744
H100	H	1.115620	-0.859171	0.764577
H101	H	1.259325	-0.702200	0.781212
H102	H	1.259245	-0.788784	0.695052
H103	H	1.278538	-0.912489	0.817143
H104	H	1.278647	-0.825891	0.903306
H105	H	1.369647	-0.831420	0.822892
C106	C	0.904712	-0.788121	0.780260
C107	C	0.976257	-0.847577	0.838971
C108	C	0.921619	-0.915607	0.906098
H109	H	0.861931	-0.747752	0.826205
H110	H	0.861908	-0.834323	0.740017
H111	H	1.019043	-0.801380	0.879212
H112	H	1.019040	-0.887967	0.793054
H113	H	0.878815	-0.961809	0.865855
H114	H	0.878840	-0.875229	0.952036
H115	H	0.970154	-0.955963	0.945935
H116	H	1.651553	-0.919214	0.618463
C117	C	1.563107	-1.110441	0.312223
C118	C	1.608812	-1.023826	0.261425
C119	C	1.678108	-1.060030	0.184288
H120	H	1.616335	-1.152083	0.343912
H121	H	1.525873	-1.152100	0.262651
H122	H	1.646045	-0.982184	0.310989
H123	H	1.555610	-0.982175	0.229713
H124	H	1.640873	-1.101690	0.134716
H125	H	1.731329	-1.101672	0.215987
H126	H	1.709119	-1.001268	0.149806
H127	H	1.455845	-0.918743	0.669433
C128	C	0.790056	-0.646590	0.640488
C129	C	0.753769	-0.720569	0.713588
C130	C	0.644036	-0.720752	0.713773
H131	H	0.765162	-0.578257	0.658821
H132	H	0.765128	-0.664885	0.572689
H133	H	0.778687	-0.702268	0.781371
H134	H	0.778635	-0.788913	0.695271
H135	H	0.619107	-0.739047	0.645975
H136	H	0.619151	-0.652415	0.732105
H137	H	0.619401	-0.770952	0.763364
C138	C	1.462404	-1.110834	0.697342
C139	C	1.550970	-1.176083	0.693846
C140	C	1.573929	-1.212393	0.794924
H141	H	1.475847	-1.052227	0.741967
H142	H	1.404458	-1.149831	0.723649
H143	H	1.608904	-1.137086	0.667553
H144	H	1.537552	-1.234706	0.649242
H145	H	1.515982	-1.251390	0.821231
H146	H	1.587366	-1.153779	0.839541
H147	H	1.634016	-1.256676	0.792564
H148	H	1.774703	-0.769003	1.106217
C149	C	1.328416	-1.112868	0.562846
C150	C	1.328584	-1.223465	0.567998
C151	C	1.228116	-1.261647	0.545187
H152	H	1.279866	-1.085523	0.612341
H153	H	1.308706	-1.091102	0.494366
H154	H	1.348281	-1.245220	0.636469
H155	H	1.377112	-1.250838	0.518504
H156	H	1.208406	-1.239882	0.476706
H157	H	1.179574	-1.234295	0.594685
H158	H	1.228219	-1.336691	0.548670
H159	H	1.354703	-0.919669	0.568550
H160	H	1.407970	-0.917882	0.370989
C161	C	1.713812	-0.907592	0.463828
C162	C	1.810862	-0.949174	0.494201
C163	C	1.889060	-0.911626	0.426837
H164	H	1.698600	-0.928918	0.394068
H165	H	1.716249	-0.832581	0.467306
H166	H	1.808424	-1.024169	0.490713
H167	H	1.826107	-0.927851	0.563950
H168	H	1.891496	-0.836615	0.430315
H169	H	1.873837	-0.932955	0.357081
H170	H	1.954918	-0.939826	0.447442
C171	C	1.653001	-0.646136	1.235530
C172	C	1.726194	-0.720022	1.271831
C173	C	1.726354	-0.720189	1.381565
H174	H	1.671234	-0.577778	1.260486
H175	H	1.585222	-0.664510	1.260386
H176	H	1.793959	-0.701641	1.246985
H177	H	1.707978	-0.788391	1.246903
H178	H	1.658575	-0.738563	1.406421
H179	H	1.744585	-0.651827	1.406511
H180	H	1.776007	-0.770326	1.406209
H181	H	1.545483	-0.919337	0.333143
H182	H	1.656973	-1.101815	0.613922
H183	H	1.774650	-0.769096	0.907151
