data_functionalizedCrystal
_audit_creation_method	'MofGen! by Chris Wilmer'
_symmetry_space_group_name_H-M	'P1'
_symmetry_Int_Tables_number	1
_symmetry_cell_setting	triclinic
loop_
_symmetry_equiv_pos_as_xyz
  x,y,z
_cell_length_a	15.995350
_cell_length_b	15.995350
_cell_length_c	14.472310
_cell_angle_alpha	90.001162
_cell_angle_beta	89.990621
_cell_angle_gamma	83.492375
loop_
_atom_site_label
_atom_site_type_symbol
_atom_site_fract_x
_atom_site_fract_y
_atom_site_fract_z
O1	O	1.110997	0.107921	-0.076758
O2	O	0.867221	0.121248	-0.076776
O3	O	0.995773	-0.007303	-0.076766
O4	O	0.982445	0.236472	-0.076769
O5	O	0.995740	-0.007296	0.076916
O6	O	0.867188	0.121256	0.076906
O7	O	1.110963	0.107928	0.076924
Cu8	Cu	0.989073	0.114593	0.090947
Cu9	Cu	0.989112	0.114584	-0.090800
O10	O	0.982412	0.236480	0.076913
C11	C	0.836010	0.120701	0.000062
C12	C	0.743060	0.119049	0.000055
C13	C	0.405312	0.113117	0.000074
C14	C	0.452746	0.021565	0.000418
C15	C	0.549436	0.023217	0.000065
C16	C	0.572873	0.116060	0.000065
C17	C	0.531804	0.161212	-0.087692
C18	C	0.435169	0.158912	-0.087759
C19	C	0.434792	0.160812	0.087007
C20	C	0.531737	0.160790	0.088160
C21	C	0.667570	0.117727	0.000057
C22	C	0.310614	0.111452	0.000076
C23	C	0.995205	-0.038494	0.000073
C24	C	0.993553	-0.131444	0.000068
C25	C	0.987621	-0.469192	0.000071
C26	C	0.896069	-0.421758	-0.000281
C27	C	0.897721	-0.325068	0.000066
C28	C	0.990564	-0.301631	0.000069
C29	C	1.035701	-0.342705	0.087831
C30	C	1.033401	-0.439340	0.087904
C31	C	1.035330	-0.439707	-0.086861
C32	C	1.035309	-0.342762	-0.088021
C33	C	0.992231	-0.206934	0.000071
C34	C	0.985956	-0.563890	0.000075
C35	C	1.142175	0.108476	0.000083
C36	C	1.235125	0.110127	0.000084
C37	C	0.982980	0.267671	0.000072
C38	C	0.984631	0.360621	0.000071
N39	N	0.989051	0.114598	0.218778
N40	N	0.989140	0.114572	-0.218631
C41	C	0.989111	0.114581	0.592869
C42	C	0.920095	0.183135	0.553698
C43	C	0.920254	0.183385	0.446610
C44	C	0.989081	0.114590	0.407278
C45	C	1.076445	0.133671	0.446122
C46	C	1.076057	0.134159	0.553243
C47	C	0.971542	0.026741	0.553398
C48	C	0.969538	0.027327	0.446270
C49	C	0.989069	0.114593	0.302390
C50	C	0.989128	0.114579	0.697757
H51	H	0.403031	0.228313	0.087600
O52	O	1.031807	-0.043411	0.410814
H53	H	0.997807	-0.088790	0.371739
O54	O	0.935112	0.269728	0.412644
H55	H	0.993266	0.264790	0.370200
O56	O	0.850388	-0.288144	0.083543
H57	H	0.826234	-0.339360	0.123827
O58	O	0.410927	0.115273	-0.174640
H59	H	0.468200	0.096005	-0.216210
O60	O	0.991657	-0.306607	-0.174027
H61	H	1.036985	-0.275818	-0.216787
O62	O	0.989758	-0.463589	0.174791
H63	H	0.970487	-0.406319	0.216358
H64	H	1.004324	-0.314320	0.153137
O65	O	0.834229	0.168350	0.411816
H66	H	0.839654	0.110371	0.369073
O67	O	0.934752	0.268995	0.589335
H68	H	0.878878	0.296180	0.629175
H69	H	1.021872	-0.024275	0.578728
O70	O	1.097441	0.217564	0.410585
H71	H	1.156984	0.208285	0.370588
O72	O	1.122429	-0.482067	0.093204
H73	H	1.166933	-0.433679	0.095711
H74	H	1.091540	0.198219	0.578220
H75	H	0.862239	-0.296649	-0.062846
H76	H	1.103909	-0.328579	0.091097
O77	O	0.995702	-0.466907	-0.174978
H78	H	0.941553	-0.501748	-0.157792
H79	H	1.103014	-0.327400	-0.093317
H80	H	0.402921	0.226128	-0.091741
H81	H	0.545930	0.229421	-0.090955
O82	O	1.146102	0.069293	0.412374
H83	H	1.207133	0.084201	0.440801
O84	O	0.884411	0.008135	0.412648
H85	H	0.842842	0.000943	0.472866
O86	O	0.586363	-0.024118	-0.083408
H87	H	0.619143	0.018845	-0.127284
H88	H	0.560193	0.129845	-0.153002
O89	O	0.428189	-0.026907	0.083780
H90	H	0.462458	-0.091244	0.082465
H91	H	0.577852	-0.012275	0.062973
O92	O	1.124741	-0.481780	-0.087655
H93	H	1.135190	-0.523493	-0.026471
H94	H	0.909219	0.008392	0.580461
O95	O	0.847608	-0.446325	-0.083635
H96	H	0.880466	-0.429811	-0.147514
H97	H	1.129018	0.086196	0.579154
O98	O	0.426808	-0.026705	-0.082473
H99	H	0.380282	0.014228	-0.123917
O100	O	0.407593	0.121165	0.175123
H101	H	0.372755	0.067017	0.157937
O102	O	0.833792	0.168344	0.587860
H103	H	0.839162	0.111976	0.633127
H104	H	0.859626	-0.441349	0.062299
O105	O	0.567897	0.117139	0.174165
H106	H	0.614973	0.063808	0.154262
H107	H	0.547101	0.228494	0.093461
