data_functionalizedCrystal
_audit_creation_method	'MofGen! by Chris Wilmer'
_symmetry_space_group_name_H-M	'P1'
_symmetry_Int_Tables_number	1
_symmetry_cell_setting	triclinic
loop_
_symmetry_equiv_pos_as_xyz
  x,y,z
_cell_length_a	19.188930
_cell_length_b	18.266242
_cell_length_c	15.537862
_cell_angle_alpha	90.005424
_cell_angle_beta	65.204608
_cell_angle_gamma	90.022918
loop_
_atom_site_label
_atom_site_type_symbol
_atom_site_fract_x
_atom_site_fract_y
_atom_site_fract_z
O1	O	0.896573	0.061103	0.117736
O2	O	1.396573	0.561103	0.617736
O3	O	0.689280	0.061051	0.133585
O4	O	1.189280	0.561051	0.633585
O5	O	0.833286	0.061089	-0.011642
O6	O	1.333286	0.561089	0.488358
O7	O	0.752567	0.061065	0.262963
O8	O	1.252567	0.561065	0.762963
O9	O	0.833269	-0.060673	-0.011650
O10	O	1.333269	0.439327	0.488350
O11	O	0.689264	-0.060711	0.133577
O12	O	1.189264	0.439289	0.633577
O13	O	0.896556	-0.060659	0.117728
O14	O	1.396556	0.439341	0.617728
Zn15	Zn	0.792907	-0.080017	0.125652
Zn16	Zn	1.292907	0.419983	0.625652
Zn17	Zn	0.792929	0.080410	0.125662
Zn18	Zn	1.292929	0.580410	0.625662
O19	O	0.752551	-0.060697	0.262956
O20	O	1.252551	0.439303	0.762956
C21	C	0.663390	0.000164	0.133068
C22	C	1.163390	0.500164	0.633068
C23	C	0.586272	0.000145	0.131527
C24	C	1.086272	0.500145	0.631527
C25	C	0.519941	0.000149	0.216742
C26	C	1.019941	0.500149	0.716742
C27	C	0.447481	0.000157	0.215294
C28	C	0.947481	0.500157	0.715294
C29	C	0.441356	0.000176	0.128627
C30	C	0.941356	0.500176	0.628627
C31	C	0.507700	0.000168	0.043402
C32	C	1.007700	0.500168	0.543402
C33	C	0.580158	0.000152	0.044851
C34	C	1.080158	0.500152	0.544851
N35	N	0.350023	0.041652	0.062384
N36	N	0.850023	0.541652	0.562384
N37	N	0.281189	0.041668	0.061012
N38	N	0.781189	0.541668	0.561012
C39	C	0.223046	0.000221	0.124254
C40	C	0.723046	0.500221	0.624254
N41	N	0.236333	-0.041234	0.188933
N42	N	0.736333	0.458766	0.688933
N43	N	0.305172	-0.041247	0.190307
N44	N	0.805172	0.458753	0.690307
C45	C	0.362791	0.000192	0.127046
C46	C	0.862791	0.500192	0.627046
C47	C	0.078144	0.000233	0.207905
C48	C	0.578144	0.500233	0.707905
C49	C	0.005684	0.000237	0.206454
C50	C	0.505684	0.500237	0.706454
C51	C	0.065905	0.000254	0.034559
C52	C	0.565905	0.500254	0.534559
C53	C	0.138363	0.000243	0.036012
C54	C	0.638363	0.500243	0.536012
C55	C	0.144477	0.000236	0.122688
C56	C	0.644477	0.500236	0.622688
N57	N	0.792898	-0.189504	0.125645
N58	N	1.292898	0.310496	0.625645
C59	C	0.856671	-0.227796	0.061369
C60	C	1.356671	0.272204	0.561369
C61	C	0.856677	-0.304441	0.061365
C62	C	1.356677	0.195559	0.561365
C63	C	0.792912	-0.342791	0.125652
C64	C	1.292912	0.157209	0.625652
C65	C	0.729128	-0.304490	0.189932
C66	C	1.229128	0.195510	0.689932
C67	C	0.729121	-0.227846	0.189928
C68	C	1.229121	0.272154	0.689928
N69	N	0.762864	-0.463132	0.209133
N70	N	1.262864	0.036868	0.709133
N71	N	0.762876	-0.535940	0.209134
N72	N	1.262876	-0.035940	0.709134
C73	C	0.792928	-0.573713	0.125666
C74	C	1.292928	-0.073713	0.625666
N75	N	0.822982	-0.535928	0.042194
N76	N	1.322982	-0.035928	0.542194
N77	N	0.822974	-0.463113	0.042194
N78	N	1.322974	0.036887	0.542194
C79	C	0.792912	-0.425898	0.125663
C80	C	1.292912	0.074102	0.625663
C81	C	0.856711	-0.695113	0.061380
C82	C	1.356711	-0.195113	0.561380
C83	C	0.856712	-0.771759	0.061375
C84	C	1.356712	-0.271759	0.561375
C85	C	0.729165	-0.771806	0.189950
C86	C	1.229165	-0.271806	0.689950
C87	C	0.729162	-0.695161	0.189948
C88	C	1.229162	-0.195161	0.689948
C89	C	0.792939	-0.656819	0.125664
C90	C	1.292939	-0.156819	0.625664
C91	C	0.922447	0.000230	0.118245
C92	C	1.422447	0.500230	0.618245
C93	C	0.999564	0.000254	0.119786
C94	C	1.499564	0.500254	0.619786
C95	C	0.841723	0.000212	-0.046778
C96	C	1.341723	0.500212	0.453222
C97	C	0.866880	0.000225	-0.151461
C98	C	1.366880	0.500225	0.348539
N99	N	0.792946	0.189896	0.125661
N100	N	1.292946	0.689896	0.625661
C101	C	0.744113	0.000182	0.298092
C102	C	1.244113	0.500182	0.798092
C103	C	0.718956	0.000174	0.402774
C104	C	1.218956	0.500174	0.902774
C105	C	0.616985	0.000148	0.561823
C106	C	1.116985	0.500148	1.061823
C107	C	0.640631	0.000154	0.463457
C108	C	1.140631	0.500154	0.963457
C109	C	0.773666	0.000191	0.440443
C110	C	1.273666	0.500191	0.940443
C111	C	0.750031	0.000188	0.538809
C112	C	1.250031	0.500188	1.038809
C113	C	0.671689	0.000165	0.599492
C114	C	1.171689	0.500165	1.099492
C115	C	0.804735	0.000206	0.576478
C116	C	1.304735	0.500206	1.076478
C117	C	0.781101	0.000199	0.674837
C118	C	1.281101	0.500199	1.174837
C119	C	0.702763	0.000174	0.735526
C120	C	1.202763	0.500174	1.235526
C121	C	0.648055	0.000158	0.697851
C122	C	1.148055	0.500158	1.197851
C123	C	0.883076	0.000223	0.515794
C124	C	1.383076	0.500223	1.015794
C125	C	0.937781	0.000241	0.553463
C126	C	1.437781	0.500241	1.053463
C127	C	0.914147	0.000239	0.651823
C128	C	1.414147	0.500239	1.151823
C129	C	0.835809	0.000214	0.712512
C130	C	1.335809	0.500214	1.212512
C131	C	0.968855	0.000254	0.689498
C132	C	1.468855	0.500254	1.189498
C133	C	0.945222	0.000247	0.787856
C134	C	1.445222	0.500247	1.287856
C135	C	0.812175	0.000207	0.810870
C136	C	1.312175	0.500207	1.310870
H137	H	0.634168	0.000149	-0.024543
H138	H	1.134168	0.500149	0.475457
H139	H	0.083122	0.000216	0.278481
H140	H	0.583122	0.500216	0.778481
H141	H	0.584262	0.000145	0.747263
H142	H	1.084262	0.500145	1.247263
Cl143	Cl	0.936843	-0.179595	-0.019448
Cl144	Cl	1.436843	0.320405	0.480552
H145	H	0.553191	0.000135	0.611236
H146	H	1.053191	0.500135	1.111236
Cl147	Cl	1.036264	0.000263	0.477168
Cl148	Cl	1.536264	0.500263	0.977168
Cl149	Cl	1.067338	0.000268	0.613200
Cl150	Cl	1.567338	0.500268	1.113200
H151	H	0.192373	0.000244	-0.033379
H152	H	0.692373	0.500244	0.466621
Cl153	Cl	0.571850	0.000127	0.416105
Cl154	Cl	1.071850	0.500127	0.916105
H155	H	-0.048326	0.000236	0.275849
H156	H	0.451674	0.500236	0.775849
H157	H	0.908610	-0.335624	0.009022
H158	H	1.408610	0.164376	0.509022
H159	H	0.902316	0.000235	0.435705
H160	H	1.402316	0.500235	0.935705
Cl161	Cl	0.872149	0.000214	0.364147
Cl162	Cl	1.372149	0.500214	0.864147
H163	H	0.677209	-0.335718	0.242274
H164	H	1.177209	0.164282	0.742274
Cl165	Cl	0.648989	-0.647018	0.270760
Cl166	Cl	1.148989	-0.147018	0.770760
H167	H	0.989767	0.000261	0.818526
H168	H	1.489767	0.500261	1.318526
Cl169	Cl	0.058212	0.000269	-0.074396
Cl170	Cl	0.558212	0.500269	0.425604
H171	H	0.677188	-0.196668	0.242270
H172	H	1.177188	0.303332	0.742270
H173	H	0.524913	0.000144	0.287320
H174	H	1.024913	0.500144	0.787320
H175	H	0.393464	0.000158	0.284689
H176	H	0.893464	0.500158	0.784689
H177	H	0.908641	-0.663893	0.009033
H178	H	1.408641	-0.163893	0.509033
Cl179	Cl	0.500001	0.000187	-0.065551
Cl180	Cl	1.000001	0.500187	0.434449
H181	H	0.748382	0.000194	0.860282
H182	H	1.248382	0.500194	1.360282
Cl183	Cl	0.936888	-0.819901	-0.019441
Cl184	Cl	1.436888	-0.319901	0.480559
Cl185	Cl	0.673050	0.000158	0.859178
Cl186	Cl	1.173050	0.500158	1.359178
Cl187	Cl	0.648999	-0.820012	0.270761
Cl188	Cl	1.148999	-0.320012	0.770761
