data_functionalizedCrystal
_audit_creation_method	'MofGen! by Chris Wilmer'
_symmetry_space_group_name_H-M	'P1'
_symmetry_Int_Tables_number	1
_symmetry_cell_setting	triclinic
loop_
_symmetry_equiv_pos_as_xyz
  x,y,z
_cell_length_a	21.395361
_cell_length_b	21.395362
_cell_length_c	21.395356
_cell_angle_alpha	89.957023
_cell_angle_beta	89.969319
_cell_angle_gamma	90.046585
loop_
_atom_site_label
_atom_site_type_symbol
_atom_site_fract_x
_atom_site_fract_y
_atom_site_fract_z
Zn1	Zn	-0.249189	0.957854	-0.354573
Zn2	Zn	0.084145	1.291187	-0.021239
Zn3	Zn	0.417478	1.624520	0.312094
Zn4	Zn	-0.353965	0.957758	-0.249790
Zn5	Zn	-0.020632	1.291091	0.083544
Zn6	Zn	0.312701	1.624424	0.416877
Zn7	Zn	-0.249235	0.853070	-0.249774
Zn8	Zn	0.084099	1.186404	0.083559
Zn9	Zn	0.417432	1.519737	0.416893
Zn10	Zn	-0.353962	0.853038	-0.354494
Zn11	Zn	-0.020628	1.186371	-0.021161
Zn12	Zn	0.312705	1.519704	0.312172
O13	O	-0.301588	0.905430	-0.302158
O14	O	0.031746	1.238763	0.031176
O15	O	0.365079	1.572097	0.364509
O16	O	-0.263070	1.045519	-0.340712
O17	O	0.070263	1.378852	-0.007379
O18	O	0.403597	1.712185	0.325954
O19	O	-0.340094	0.943844	-0.162110
O20	O	-0.006760	1.277178	0.171224
O21	O	0.326573	1.610511	0.504557
O22	O	-0.161551	0.867024	-0.263702
O23	O	0.171783	1.200357	0.069632
O24	O	0.505116	1.533690	0.402965
O25	O	-0.340049	1.045448	-0.263729
O26	O	-0.006716	1.378782	0.069605
O27	O	0.326618	1.712115	0.402938
O28	O	-0.161517	0.944008	-0.340697
O29	O	0.171816	1.277341	-0.007364
O30	O	0.505150	1.610674	0.325970
O31	O	-0.263148	0.866931	-0.162098
O32	O	0.070185	1.200264	0.171235
O33	O	0.403518	1.533598	0.504569
O34	O	-0.263145	0.765388	-0.263626
O35	O	0.070189	1.098721	0.069707
O36	O	0.403522	1.432055	0.403041
O37	O	-0.340042	0.866968	-0.442183
O38	O	-0.006709	1.200302	-0.108849
O39	O	0.326624	1.533635	0.224484
O40	O	-0.340087	0.765364	-0.340564
O41	O	-0.006754	1.098697	-0.007230
O42	O	0.326580	1.432031	0.326103
O43	O	-0.263066	0.943976	-0.442240
O44	O	0.070267	1.277309	-0.108907
O45	O	0.403600	1.610643	0.224427
O46	O	-0.441643	0.943813	-0.263653
O47	O	-0.108310	1.277146	0.069681
O48	O	0.225024	1.610479	0.403014
O49	O	-0.441640	0.866875	-0.340579
O50	O	-0.108307	1.200209	-0.007246
O51	O	0.225027	1.533542	0.326088
C52	C	-0.301621	0.742642	-0.302085
C53	C	0.031713	1.075975	0.031248
C54	C	0.365046	1.409309	0.364582
C55	C	-0.301650	0.673001	-0.302069
C56	C	0.031683	1.006334	0.031265
C57	C	0.365017	1.339668	0.364598
C58	C	-0.464375	0.905347	-0.302123
C59	C	-0.131042	1.238680	0.031211
C60	C	0.202291	1.572014	0.364544
C61	C	-0.534017	0.905369	-0.302129
C62	C	-0.200683	1.238702	0.031205
C63	C	0.132650	1.572036	0.364538
C64	C	-0.341767	0.640292	-0.342070
C65	C	-0.008434	0.973625	-0.008737
C66	C	0.324900	1.306958	0.324597
C67	C	-0.341752	0.574856	-0.342098
C68	C	-0.008418	0.908190	-0.008765
C69	C	0.324915	1.241523	0.324569
C70	C	-0.301626	0.542133	-0.302113
C71	C	0.031707	0.875466	0.031220
C72	C	0.365041	1.208799	0.364553
C73	C	-0.261501	0.574850	-0.262109
C74	C	0.071832	0.908183	0.071224
C75	C	0.405166	1.241516	0.404558
C76	C	-0.261513	0.640284	-0.262087
C77	C	0.071820	0.973617	0.071247
C78	C	0.405153	1.306950	0.404580
C79	C	-0.296587	0.438409	-0.245708
C80	C	0.036746	0.771742	0.087625
C81	C	0.370079	1.105075	0.420958
C82	C	-0.296580	0.372976	-0.245730
C83	C	0.036754	0.706309	0.087604
C84	C	0.370087	1.039643	0.420937
C85	C	-0.301585	0.340312	-0.302182
C86	C	0.031748	0.673645	0.031151
C87	C	0.365082	1.006979	0.364484
C88	C	-0.306611	0.373089	-0.358616
C89	C	0.026722	0.706422	-0.025283
C90	C	0.360056	1.039756	0.308051
C91	C	-0.306623	0.438523	-0.358594
C92	C	0.026710	0.771856	-0.025260
C93	C	0.360043	1.105190	0.308073
C94	C	-0.301608	0.471180	-0.302133
C95	C	0.031725	0.804514	0.031200
C96	C	0.365059	1.137847	0.364533
C97	C	-0.341687	0.236650	-0.342218
C98	C	-0.008354	0.569984	-0.008884
C99	C	0.324979	0.903317	0.324449
C100	C	-0.341668	0.171214	-0.342247
C101	C	-0.008334	0.504547	-0.008913
C102	C	0.324999	0.837880	0.324420
C103	C	-0.261421	0.171208	-0.262252
C104	C	0.071913	0.504542	0.071081
C105	C	0.405246	0.837875	0.404415
C106	C	-0.261437	0.236644	-0.262229
C107	C	0.071896	0.569977	0.071105
C108	C	0.405230	0.903310	0.404438
C109	C	-0.301574	0.269361	-0.302211
C110	C	0.031760	0.602694	0.031123
C111	C	0.365093	0.936027	0.364456
C112	C	-0.566710	0.945466	-0.262114
C113	C	-0.233377	1.278799	0.071219
C114	C	0.099956	1.612133	0.404552
C115	C	-0.632146	0.945495	-0.262128
C116	C	-0.298812	1.278828	0.071205
C117	C	0.034521	1.612162	0.404538
C118	C	-0.664885	0.905416	-0.302150
C119	C	-0.331552	1.238749	0.031183
C120	C	0.001782	1.572083	0.364516
C121	C	-0.632183	0.865317	-0.342172
C122	C	-0.298850	1.198650	-0.008839
C123	C	0.034484	1.531983	0.324494
C124	C	-0.566749	0.865293	-0.342162
C125	C	-0.233416	1.198626	-0.008828
C126	C	0.099918	1.531960	0.324505
C127	C	-0.768615	0.849001	-0.307041
C128	C	-0.435282	1.182335	0.026292
C129	C	-0.101948	1.515668	0.359626
C130	C	-0.834048	0.849024	-0.307047
C131	C	-0.500714	1.182357	0.026286
C132	C	-0.167381	1.515691	0.359619
C133	C	-0.866706	0.905489	-0.302187
C134	C	-0.533372	1.238822	0.031146
C135	C	-0.200039	1.572156	0.364480
C136	C	-0.833922	0.961934	-0.297307
C137	C	-0.500589	1.295267	0.036026
C138	C	-0.167256	1.628600	0.369360
C139	C	-0.768488	0.961910	-0.297296
C140	C	-0.435155	1.295243	0.036037
C141	C	-0.101821	1.628577	0.369370
C142	C	-0.735837	0.905438	-0.302167
C143	C	-0.402504	1.238771	0.031167
C144	C	-0.069171	1.572104	0.364500
C145	C	-0.970352	0.945621	-0.262186
C146	C	-0.637018	1.278954	0.071148
C147	C	-0.303685	1.612288	0.404481
C148	C	-1.035788	0.945651	-0.262204
C149	C	-0.702455	1.278984	0.071129
C150	C	-0.369122	1.612318	0.404463
C151	C	-1.035825	0.865467	-0.342245
C152	C	-0.702491	1.198800	-0.008912
C153	C	-0.369158	1.532134	0.324422
C154	C	-0.970389	0.865442	-0.342230
C155	C	-0.637056	1.198776	-0.008896
C156	C	-0.303723	1.532109	0.324437
C157	C	-0.937657	0.905519	-0.302197
C158	C	-0.604323	1.238852	0.031137
C159	C	-0.270990	1.572185	0.364470
C160	C	-0.138164	0.905530	-0.302206
C161	C	0.195169	1.238863	0.031127
C162	C	0.528502	1.572197	0.364460
C163	C	-0.068523	0.905573	-0.302227
C164	C	0.264810	1.238906	0.031106
C165	C	0.598144	1.572239	0.364440
C166	C	-0.301549	0.905479	-0.465581
C167	C	0.031785	1.238812	-0.132248
C168	C	0.365118	1.572146	0.201086
C169	C	-0.301532	0.905500	-0.535222
C170	C	0.031801	1.238833	-0.201889
C171	C	0.365134	1.572167	0.131444
C172	C	-0.301555	1.068853	-0.302231
C173	C	0.031779	1.402186	0.031102
C174	C	0.365112	1.735520	0.364436
C175	C	-0.301541	1.138494	-0.302262
C176	C	0.031792	1.471828	0.031071
C177	C	0.365126	1.805161	0.364404
C178	C	-0.261462	0.865462	-0.567919
C179	C	0.071871	1.198795	-0.234586
C180	C	0.405204	1.532129	0.098747
C181	C	-0.261451	0.865460	-0.633355
C182	C	0.071883	1.198793	-0.300022
C183	C	0.405216	1.532127	0.033312
C184	C	-0.301502	0.905507	-0.666091
C185	C	0.031831	1.238840	-0.332757
C186	C	0.365164	1.572174	0.000576
C187	C	-0.341580	0.945548	-0.633385
C188	C	-0.008247	1.278881	-0.300052
C189	C	0.325087	1.612215	0.033281
C190	C	-0.341595	0.945545	-0.567951
C191	C	-0.008262	1.278878	-0.234618
C192	C	0.325072	1.612211	0.098715
C193	C	-0.306413	0.961959	-0.769796
C194	C	0.026921	1.295292	-0.436462
C195	C	0.360254	1.628626	-0.103129
C196	C	-0.306393	0.961964	-0.835229
C197	C	0.026940	1.295297	-0.501895
C198	C	0.360273	1.628630	-0.168562
C199	C	-0.301460	0.905517	-0.867911
C200	C	0.031873	1.238851	-0.534578
C201	C	0.365207	1.572184	-0.201245
C202	C	-0.296533	0.849065	-0.835153
C203	C	0.036800	1.182398	-0.501820
C204	C	0.370134	1.515732	-0.168486
C205	C	-0.296548	0.849061	-0.769719
C206	C	0.036785	1.182395	-0.436386
C207	C	0.370119	1.515728	-0.103052
C208	C	-0.301491	0.905515	-0.737043
C209	C	0.031842	1.238848	-0.403710
C210	C	0.365176	1.572182	-0.070376
C211	C	-0.261376	0.865474	-0.971561
C212	C	0.071958	1.198807	-0.638228
C213	C	0.405291	1.532140	-0.304895
C214	C	-0.261368	0.865470	-1.036998
C215	C	0.071965	1.198804	-0.703665
C216	C	0.405298	1.532137	-0.370331
C217	C	-0.341494	0.945564	-1.037027
C218	C	-0.008161	1.278897	-0.703694
C219	C	0.325172	1.612231	-0.370361
C220	C	-0.341505	0.945562	-0.971592
C221	C	-0.008172	1.278895	-0.638259
C222	C	0.325162	1.612228	-0.304925
C223	C	-0.301442	0.905517	-0.938863
C224	C	0.031891	1.238851	-0.605529
C225	C	0.365225	1.572184	-0.272196
C226	C	-0.301581	0.905417	-0.139370
C227	C	0.031752	1.238750	0.193963
C228	C	0.365086	1.572083	0.527297
C229	C	-0.301421	0.905517	-0.069729
C230	C	0.031912	1.238851	0.263604
C231	C	0.365246	1.572184	0.596938
H232	H	-0.374419	0.548219	-0.374674
H233	H	-0.041086	0.881553	-0.041341
H234	H	0.292247	1.214886	0.291992
H235	H	-0.228818	0.832857	-0.659982
H236	H	0.104515	1.166190	-0.326649
H237	H	0.437849	1.499524	0.006684
O238	O	-0.384815	0.988734	-0.532684
O239	O	-0.051481	1.322067	-0.199350
O240	O	0.281852	1.655401	0.133983
H241	H	-0.378097	0.982002	-0.481684
H242	H	-0.044764	1.315335	-0.148351
H243	H	0.288569	1.648669	0.184982
O244	O	-0.384721	0.988752	-0.936324
O245	O	-0.051388	1.322086	-0.602991
O246	O	0.281946	1.655419	-0.269657
H247	H	-0.378006	0.982019	-0.885324
H248	H	-0.044673	1.315352	-0.551991
H249	H	0.288660	1.648685	-0.218658
H250	H	-0.292509	0.464998	-0.199735
H251	H	0.040824	0.798332	0.133599
H252	H	0.374158	1.131665	0.466932
O253	O	-1.071051	0.988908	-0.219047
O254	O	-0.737718	1.322242	0.114286
O255	O	-0.404384	1.655575	0.447619
H256	H	-1.122051	0.982201	-0.225787
H257	H	-0.788718	1.315534	0.107547
H258	H	-0.455385	1.648867	0.440880
H259	H	-0.228829	0.548202	-0.229554
H260	H	0.104504	0.881535	0.103779
H261	H	0.437837	1.214869	0.437112
H262	H	-0.860735	0.803063	-0.311015
H263	H	-0.527402	1.136396	0.022319
H264	H	-0.194068	1.469730	0.355652
H265	H	-0.742031	0.803017	-0.311001
H266	H	-0.408698	1.136350	0.022332
H267	H	-0.075365	1.469684	0.355665
O268	O	-0.311994	0.337871	-0.419513
O269	O	0.021339	0.671204	-0.086180
O270	O	0.354672	1.004537	0.247153
H271	H	-0.356604	0.350402	-0.442808
H272	H	-0.023271	0.683735	-0.109475
H273	H	0.310062	1.017068	0.223859
O274	O	-0.291165	0.337625	-0.184866
O275	O	0.042168	0.670958	0.148468
O276	O	0.375502	1.004292	0.481801
H277	H	-0.248721	0.307850	-0.185953
H278	H	0.084613	0.641183	0.147380
H279	H	0.417946	0.974516	0.480713
H280	H	-0.228843	0.666915	-0.229513
H281	H	0.104490	1.000249	0.103821
H282	H	0.437823	1.333582	0.437154
H283	H	-0.374449	0.666926	-0.374627
H284	H	-0.041115	1.000259	-0.041294
H285	H	0.292218	1.333593	0.292039
H286	H	-0.310714	0.465207	-0.404543
H287	H	0.022620	0.798541	-0.071210
H288	H	0.355953	1.131874	0.262123
O289	O	-0.935128	0.822177	-0.385376
O290	O	-0.601794	1.155510	-0.052043
O291	O	-0.268461	1.488844	0.281290
H292	H	-0.947642	0.832891	-0.434568
H293	H	-0.614308	1.166224	-0.101235
H294	H	-0.280975	1.499558	0.232099
O295	O	-0.667489	0.822080	-0.385334
O296	O	-0.334155	1.155413	-0.052000
O297	O	-0.000822	1.488747	0.281333
H298	H	-0.718483	0.828826	-0.378612
H299	H	-0.385149	1.162159	-0.045279
H300	H	-0.051816	1.495492	0.288055
H301	H	-0.228842	0.832852	-0.541276
H302	H	0.104491	1.166186	-0.207942
H303	H	0.437824	1.499519	0.125391
O304	O	-0.531480	0.822033	-0.385310
O305	O	-0.198147	1.155366	-0.051976
O306	O	0.135187	1.488699	0.281357
H307	H	-0.565236	0.794162	-0.413139
H308	H	-0.231902	1.127495	-0.079805
H309	H	0.101431	1.460829	0.253528
H310	H	-0.374335	0.144583	-0.374824
H311	H	-0.041001	0.477916	-0.041491
H312	H	0.292332	0.811250	0.291842
O313	O	-0.384966	0.271946	-0.385346
O314	O	-0.051633	0.605279	-0.052013
O315	O	0.281700	0.938612	0.281321
H316	H	-0.412853	0.238204	-0.413176
H317	H	-0.079519	0.571538	-0.079842
H318	H	0.253814	0.904871	0.253491
O319	O	-0.218172	0.822283	-0.936252
O320	O	0.115161	1.155616	-0.602919
O321	O	0.448495	1.488950	-0.269586
H322	H	-0.228929	0.773102	-0.948766
H323	H	0.104404	1.106435	-0.615432
H324	H	0.437737	1.439768	-0.282099
O325	O	-0.311753	1.022838	-0.734539
O326	O	0.021580	1.356171	-0.401206
O327	O	0.354913	1.689505	-0.067873
H328	H	-0.269796	1.029258	-0.704732
H329	H	0.063538	1.362592	-0.371399
H330	H	0.396871	1.695925	-0.038066
H331	H	-0.374104	0.978173	-1.063680
H332	H	-0.040771	1.311506	-0.730347
H333	H	0.292563	1.644839	-0.397013
O334	O	-0.733125	1.022783	-0.292038
O335	O	-0.399791	1.356116	0.041295
O336	O	-0.066458	1.689449	0.374629
H337	H	-0.745612	1.053528	-0.331922
H338	H	-0.412279	1.386861	0.001411
H339	H	-0.078946	1.720195	0.334744
O340	O	-0.384778	0.988746	-0.668687
O341	O	-0.051445	1.322079	-0.335354
O342	O	0.281889	1.655412	-0.002021
H343	H	-0.378031	0.982027	-0.719682
H344	H	-0.044698	1.315361	-0.386349
H345	H	0.288636	1.648694	-0.053015
O346	O	-0.218145	0.135924	-0.219118
O347	O	0.115188	0.469258	0.114215
O348	O	0.448521	0.802591	0.447549
H349	H	-0.224880	0.084928	-0.225849
H350	H	0.108454	0.418261	0.107485
H351	H	0.441787	0.751594	0.440818
O352	O	-0.291229	0.788180	-0.734384
O353	O	0.042104	1.121514	-0.401050
O354	O	0.375437	1.454847	-0.067717
H355	H	-0.287796	0.748927	-0.768098
H356	H	0.045537	1.082261	-0.434764
H357	H	0.378871	1.415594	-0.101431
O358	O	-0.531404	0.988697	-0.218947
O359	O	-0.198071	1.322030	0.114386
O360	O	0.135262	1.655364	0.447720
H361	H	-0.565136	1.016589	-0.191129
H362	H	-0.231803	1.349923	0.142204
H363	H	0.101530	1.683256	0.475537
H364	H	-0.292511	0.803101	-0.861762
H365	H	0.040822	1.136435	-0.528429
H366	H	0.374155	1.469768	-0.195095
H367	H	-0.228741	0.832862	-1.063619
H368	H	0.104593	1.166195	-0.730286
H369	H	0.437926	1.499529	-0.396952
H370	H	-0.310402	1.007931	-0.861896
H371	H	0.022931	1.341264	-0.528562
H372	H	0.356264	1.674597	-0.195229
H373	H	-0.860511	1.007913	-0.293349
H374	H	-0.527177	1.341246	0.039984
H375	H	-0.193844	1.674580	0.373317
O376	O	-0.218180	0.271922	-0.219066
O377	O	0.115153	0.605255	0.114268
O378	O	0.448487	0.938589	0.447601
H379	H	-0.169015	0.259422	-0.229895
H380	H	0.164318	0.592755	0.103438
H381	H	0.497651	0.926088	0.436771
O382	O	-0.667421	0.988738	-0.218963
O383	O	-0.334088	1.322071	0.114370
O384	O	-0.000754	1.655405	0.447703
H385	H	-0.633667	1.016598	-0.191122
H386	H	-0.300333	1.349931	0.142212
H387	H	0.033000	1.683264	0.475545
H388	H	-0.943700	0.978255	-0.229590
H389	H	-0.610367	1.311589	0.103743
H390	H	-0.277033	1.644922	0.437076
H391	H	-1.062480	0.832837	-0.374834
H392	H	-0.729147	1.166170	-0.041501
H393	H	-0.395813	1.499503	0.291832
