data_functionalizedCrystal
_audit_creation_method	'MofGen! by Chris Wilmer'
_symmetry_space_group_name_H-M	'P1'
_symmetry_Int_Tables_number	1
_symmetry_cell_setting	triclinic
loop_
_symmetry_equiv_pos_as_xyz
  x,y,z
_cell_length_a	14.519709
_cell_length_b	27.732048
_cell_length_c	12.996460
_cell_angle_alpha	89.988908
_cell_angle_beta	90.000034
_cell_angle_gamma	83.161400
loop_
_atom_site_label
_atom_site_type_symbol
_atom_site_fract_x
_atom_site_fract_y
_atom_site_fract_z
O1	O	1.222766	0.063362	-0.085445
O2	O	0.954160	0.070824	-0.085477
O3	O	1.096805	-0.003264	-0.085440
O4	O	1.080121	0.137450	-0.085482
O5	O	1.096791	-0.003268	0.085693
O6	O	0.954145	0.070820	0.085656
O7	O	1.222752	0.063358	0.085689
Cu8	Cu	1.088447	0.067089	0.101299
Cu9	Cu	1.088464	0.067093	-0.101087
O10	O	1.080106	0.137446	0.085652
C11	C	0.919799	0.070474	0.000086
C12	C	0.817435	0.069432	0.000074
C13	C	0.442606	0.065596	0.000122
C14	C	0.546896	0.066661	0.000108
C15	C	0.630018	0.067514	0.000097
C16	C	0.734314	0.068579	0.000085
C17	C	1.096448	-0.021274	0.000129
C18	C	1.095393	-0.074934	0.000138
C19	C	1.173048	-0.413378	0.000094
C20	C	1.169135	-0.615057	0.000080
O21	O	1.240145	-0.645973	0.000043
N22	N	1.084552	-0.634585	0.000070
C23	C	1.000941	-0.603690	0.000058
O24	O	0.928909	-0.624927	0.000039
C25	C	1.004855	-0.402012	0.000065
C26	C	1.089444	-0.382487	0.000085
C27	C	1.257630	-0.393853	0.000113
C28	C	1.258607	-0.343436	0.000122
C29	C	1.175003	-0.312545	0.000113
C30	C	1.090421	-0.332071	0.000094
C31	C	0.921246	-0.371118	0.000045
C32	C	0.922232	-0.320696	0.000045
C33	C	1.006820	-0.301171	0.000064
C34	C	1.007794	-0.250763	0.000094
N35	N	1.092377	-0.231235	0.000104
C36	C	1.175981	-0.262126	0.000113
C37	C	0.998893	-0.709574	0.000056
C38	C	0.997914	-0.759993	0.000056
C39	C	1.166108	-0.771356	0.000076
C40	C	1.167086	-0.720936	0.000083
C41	C	1.083476	-0.690045	0.000065
C42	C	1.178028	-0.156247	0.000133
C43	C	1.178998	-0.105825	0.000147
C44	C	1.010804	-0.094466	0.000122
C45	C	1.009833	-0.144883	0.000114
C46	C	1.093453	-0.175773	0.000116
O47	O	0.936822	-0.219818	0.000119
O48	O	1.248004	-0.240879	0.000109
C49	C	1.172071	-0.463795	0.000085
C50	C	1.087489	-0.483320	0.000066
C51	C	1.003885	-0.452429	0.000057
C52	C	1.086510	-0.533740	0.000066
C53	C	1.170115	-0.564631	0.000076
C54	C	1.254698	-0.545103	0.000085
C55	C	1.255675	-0.494686	0.000094
C56	C	0.919302	-0.471957	0.000048
C57	C	0.918331	-0.522375	0.000039
C58	C	1.001936	-0.553266	0.000049
C59	C	1.257113	0.063708	0.000124
C60	C	1.359476	0.064750	0.000129
C61	C	1.080464	0.155456	0.000080
C62	C	1.081518	0.209116	0.000065
N63	N	1.088442	0.067085	0.243646
N64	N	1.088477	0.067093	-0.243434
C65	C	1.088463	0.067094	0.663460
C66	C	1.088454	0.067093	0.546655
C67	C	1.088453	0.067090	0.453557
C68	C	1.088443	0.067088	0.336744
H69	H	1.247882	-0.089931	0.000166
O70	O	1.247384	-0.801319	-0.000059
C71	C	1.298770	-0.792457	-0.088705
H72	H	1.275576	-0.754229	-0.118249
H73	H	1.375737	-0.795939	-0.068775
H74	H	1.286550	-0.820037	-0.150771
O75	O	0.838994	-0.389996	-0.000024
C76	C	0.765425	-0.351911	-0.000013
H77	H	0.790797	-0.317636	-0.032400
H78	H	0.706330	-0.362491	-0.049716
H79	H	0.739658	-0.344807	0.082082
H80	H	1.246119	-0.181392	0.000131
H81	H	0.854144	-0.295547	0.000029
O82	O	0.927585	-0.163773	0.000052
C83	C	0.854005	-0.125693	0.000076
H84	H	0.879363	-0.091413	-0.032301
H85	H	0.794913	-0.136276	-0.049629
H86	H	0.828238	-0.118598	0.082174
O87	O	0.929679	-0.064385	0.000066
C88	C	0.948691	-0.015699	0.000098
H89	H	1.021105	-0.013699	-0.032282
H90	H	0.895369	0.007101	-0.049599
H91	H	0.944971	-0.001129	0.082200
O92	O	1.337926	-0.475803	0.000061
C93	C	1.411497	-0.513888	0.000092
H94	H	1.386136	-0.548156	-0.032311
H95	H	1.470604	-0.503296	-0.049586
H96	H	1.437244	-0.521008	0.082196
O97	O	1.335888	-0.575135	-0.000091
C98	C	1.340337	-0.604636	-0.088715
H99	H	1.292916	-0.586205	-0.150663
H100	H	1.414704	-0.610237	-0.118462
H101	H	1.316990	-0.641321	-0.068685
H102	H	1.327488	-0.327544	0.000134
H103	H	0.930803	-0.684426	0.000042
H104	H	0.849444	-0.538266	0.000032
O105	O	0.838000	-0.442023	0.000090
C106	C	0.763145	-0.470076	0.000054
H107	H	0.787113	-0.507687	0.032444
H108	H	0.704607	-0.451546	0.049741
H109	H	0.737185	-0.473681	-0.082050
H110	H	1.325714	-0.419000	0.000117
H111	H	0.929034	-0.775885	0.000058
H112	H	1.235965	-0.705043	0.000098
