data_functionalizedCrystal
_audit_creation_method	'MofGen! by Chris Wilmer'
_symmetry_space_group_name_H-M	'P1'
_symmetry_Int_Tables_number	1
_symmetry_cell_setting	triclinic
loop_
_symmetry_equiv_pos_as_xyz
  x,y,z
_cell_length_a	23.532407
_cell_length_b	11.792241
_cell_length_c	10.868271
_cell_angle_alpha	89.998441
_cell_angle_beta	90.001016
_cell_angle_gamma	83.521047
loop_
_atom_site_label
_atom_site_type_symbol
_atom_site_fract_x
_atom_site_fract_y
_atom_site_fract_z
O1	O	-0.756076	-0.137765	0.102169
O2	O	-0.422743	0.195568	0.435503
O3	O	-0.089409	0.528901	0.768836
O4	O	-0.590331	-0.157700	0.102205
O5	O	-0.256998	0.175634	0.435539
O6	O	0.076336	0.508967	0.768872
O7	O	-0.677226	0.017533	0.102178
O8	O	-0.343892	0.350866	0.435511
O9	O	-0.010559	0.684199	0.768845
O10	O	-0.669181	-0.312998	0.102197
O11	O	-0.335848	0.020336	0.435530
O12	O	-0.002515	0.353669	0.768864
O13	O	-0.677218	0.017527	-0.102467
O14	O	-0.343884	0.350860	0.230867
O15	O	-0.010551	0.684194	0.564200
O16	O	-0.590323	-0.157705	-0.102439
O17	O	-0.256990	0.175628	0.230894
O18	O	0.076344	0.508961	0.564227
O19	O	-0.756068	-0.137771	-0.102475
O20	O	-0.422735	0.195562	0.230858
O21	O	-0.089402	0.528896	0.564191
Zn22	Zn	-0.673194	-0.147739	-0.134949
Zn23	Zn	-0.339861	0.185594	0.198384
Zn24	Zn	-0.006528	0.518927	0.531718
Zn25	Zn	-0.673205	-0.147732	0.134679
Zn26	Zn	-0.339871	0.185602	0.468012
Zn27	Zn	-0.006538	0.518935	0.801346
O28	O	-0.669173	-0.313003	-0.102448
O29	O	-0.335840	0.020330	0.230886
O30	O	-0.002507	0.353663	0.564219
C31	C	-0.569108	-0.157195	-0.000112
C32	C	-0.235775	0.176138	0.333221
C33	C	0.097559	0.509472	0.666554
C34	C	-0.505882	-0.155669	-0.000099
C35	C	-0.172549	0.177665	0.333235
C36	C	0.160785	0.510998	0.666568
C37	C	-0.676716	0.059809	-0.000144
C38	C	-0.343383	0.393142	0.333189
C39	C	-0.010050	0.726476	0.666523
C40	C	-0.675204	0.185787	-0.000142
C41	C	-0.341871	0.519120	0.333191
C42	C	-0.008537	0.852454	0.666524
C43	C	-0.777291	-0.138276	-0.000155
C44	C	-0.443958	0.195057	0.333178
C45	C	-0.110625	0.528391	0.666512
C46	C	-0.840517	-0.139802	-0.000160
C47	C	-0.507184	0.193531	0.333173
C48	C	-0.173851	0.526865	0.666506
C49	C	-0.107337	-0.249795	-0.000149
C50	C	0.225997	0.083538	0.333184
C51	C	0.559330	0.416872	0.666518
C52	C	-0.047928	-0.248377	-0.000157
C53	C	0.285405	0.084956	0.333177
C54	C	0.618739	0.418290	0.666510
O55	O	-0.011701	-0.335633	-0.000196
O56	O	0.321633	-0.002300	0.333137
O57	O	0.654966	0.331034	0.666470
N58	N	-0.024684	-0.144202	-0.000161
N59	N	0.308649	0.189132	0.333173
N60	N	0.641982	0.522465	0.666506
C61	C	-0.060853	-0.041437	-0.000169
C62	C	0.272480	0.291896	0.333164
C63	C	0.605814	0.625230	0.666497
O64	O	-0.035627	0.047303	-0.000175
O65	O	0.297706	0.380636	0.333159
O66	O	0.631039	0.713969	0.666492
C67	C	-0.120260	-0.042856	-0.000171
C68	C	0.213073	0.290477	0.333163
C69	C	0.546406	0.623811	0.666496
C70	C	-0.143501	-0.147038	-0.000154
C71	C	0.189833	0.186295	0.333179
C72	C	0.523166	0.519628	0.666512
C73	C	-0.130577	-0.353969	-0.000134
C74	C	0.202756	-0.020635	0.333199
C75	C	0.536089	0.312698	0.666533
C76	C	-0.189982	-0.355386	-0.000124
C77	C	0.143352	-0.022053	0.333209
C78	C	0.476685	0.311281	0.666543
C79	C	-0.226146	-0.252630	-0.000129
C80	C	0.107188	0.080704	0.333204
C81	C	0.440521	0.414037	0.666537
C82	C	-0.202905	-0.148456	-0.000144
C83	C	0.130428	0.184878	0.333189
C84	C	0.463762	0.518211	0.666522
C85	C	-0.156428	0.059907	-0.000188
C86	C	0.176905	0.393241	0.333145
C87	C	0.510239	0.726574	0.666478
C88	C	-0.215839	0.058479	-0.000190
C89	C	0.117494	0.391813	0.333143
C90	C	0.450828	0.725146	0.666476
C91	C	-0.239079	-0.045703	-0.000174
C92	C	0.094254	0.287630	0.333159
C93	C	0.427588	0.620964	0.666493
C94	C	-0.298474	-0.047116	-0.000140
C95	C	0.034860	0.286217	0.333194
C96	C	0.368193	0.619550	0.666527
N97	N	-0.321717	-0.151292	-0.000136
N98	N	0.011616	0.182041	0.333198
N99	N	0.344950	0.515375	0.666531
C100	C	-0.285553	-0.254049	-0.000130
C101	C	0.047780	0.079285	0.333203
C102	C	0.381113	0.412618	0.666536
C103	C	0.063907	-0.038465	-0.000169
C104	C	0.397241	0.294868	0.333164
C105	C	0.730574	0.628202	0.666498
C106	C	0.123313	-0.037045	-0.000159
C107	C	0.456647	0.296288	0.333174
C108	C	0.789980	0.629622	0.666508
C109	C	0.136234	-0.243985	-0.000149
C110	C	0.469568	0.089348	0.333185
C111	C	0.802901	0.422681	0.666518
C112	C	0.076827	-0.245404	-0.000150
C113	C	0.410160	0.087929	0.333184
C114	C	0.743494	0.421262	0.666517
C115	C	0.040664	-0.142641	-0.000165
C116	C	0.373997	0.190693	0.333168
C117	C	0.707330	0.524026	0.666502
C118	C	-0.410308	-0.257017	-0.000109
C119	C	-0.076974	0.076316	0.333225
C120	C	0.256359	0.409650	0.666558
C121	C	-0.469718	-0.258425	-0.000094
C122	C	-0.136385	0.074908	0.333240
C123	C	0.196949	0.408241	0.666573
C124	C	-0.482634	-0.051485	-0.000111
C125	C	-0.149300	0.281848	0.333223
C126	C	0.184033	0.615181	0.666556
C127	C	-0.423229	-0.050077	-0.000119
C128	C	-0.089895	0.283257	0.333214
C129	C	0.243438	0.616590	0.666548
C130	C	-0.387066	-0.152852	-0.000122
C131	C	-0.053733	0.180482	0.333211
C132	C	0.279600	0.513815	0.666544
O133	O	-0.334736	0.040094	-0.000105
O134	O	-0.001403	0.373427	0.333228
O135	O	0.331931	0.706760	0.666562
O136	O	-0.310787	-0.342774	-0.000141
O137	O	0.022546	-0.009440	0.333192
O138	O	0.355880	0.323893	0.666525
C139	C	-0.669683	-0.355280	-0.000123
C140	C	-0.336349	-0.021946	0.333210
C141	C	-0.003016	0.311387	0.666543
C142	C	-0.671195	-0.481258	-0.000117
C143	C	-0.337862	-0.147924	0.333217
C144	C	-0.004529	0.185409	0.666550
N145	N	-0.673191	-0.147744	-0.318963
N146	N	-0.339858	0.185590	0.014370
N147	N	-0.006525	0.518923	0.347704
C148	C	-0.672423	0.416434	-0.000121
C149	C	-0.339090	0.749767	0.333212
C150	C	-0.005756	1.083100	0.666545
C151	C	-0.673968	0.288085	-0.000133
C152	C	-0.340635	0.621418	0.333201
C153	C	-0.007301	0.954752	0.666534
C154	C	-0.673196	-0.147744	-0.430301
C155	C	-0.339863	0.185589	-0.096967
C156	C	-0.006529	0.518923	0.236366
C157	C	-0.673203	-0.147733	-0.569978
C158	C	-0.339870	0.185600	-0.236645
C159	C	-0.006537	0.518933	0.096688
N160	N	-0.673212	-0.147718	0.318693
N161	N	-0.339879	0.185615	0.652027
N162	N	-0.006546	0.518949	0.985360
H163	H	-0.488636	-0.343267	-0.000079
H164	H	-0.155303	-0.009933	0.333254
H165	H	0.178030	0.323400	0.666587
H166	H	0.142230	0.047791	-0.000153
H167	H	0.475563	0.381124	0.333180
H168	H	0.808897	0.714457	0.666513
H169	H	0.034466	0.045223	-0.000171
H170	H	0.367799	0.378556	0.333163
H171	H	0.701132	0.711890	0.666496
C172	C	0.176022	-0.357017	-0.000154
C173	C	0.509356	-0.023684	0.333180
C174	C	0.842689	0.309650	0.666513
H175	H	0.214730	-0.341243	-0.000168
H176	H	0.548064	-0.007909	0.333165
H177	H	0.881397	0.325424	0.666498
H178	H	0.168947	-0.399769	0.071210
H179	H	0.502281	-0.066436	0.404544
H180	H	0.835614	0.266898	0.737877
H181	H	0.168942	-0.399761	-0.071527
H182	H	0.502275	-0.066427	0.261807
H183	H	0.835609	0.266906	0.595140
C184	C	-0.397663	0.064520	-0.000124
C185	C	-0.064330	0.397853	0.333209
C186	C	0.269004	0.731187	0.666543
H187	H	-0.427712	0.125514	-0.000129
H188	H	-0.094378	0.458847	0.333205
H189	H	0.238955	0.792181	0.666538
H190	H	-0.374751	0.069379	0.071231
H191	H	-0.041417	0.402712	0.404565
H192	H	0.291916	0.736046	0.737898
H193	H	-0.374763	0.069373	-0.071506
H194	H	-0.041430	0.402707	0.261827
H195	H	0.291903	0.736040	0.595161
H196	H	-0.512089	0.032176	-0.000110
H197	H	-0.178756	0.365509	0.333223
H198	H	0.154578	0.698843	0.666557
C199	C	-0.130877	0.174509	-0.000223
C200	C	0.202457	0.507843	0.333110
C201	C	0.535790	0.841176	0.666443
H202	H	-0.160931	0.235494	-0.000245
H203	H	0.172403	0.568827	0.333089
H204	H	0.505736	0.902160	0.666422
H205	H	-0.107968	0.179392	0.071133
H206	H	0.225366	0.512725	0.404466
H207	H	0.558699	0.846058	0.737799
H208	H	-0.107976	0.179357	-0.071604
H209	H	0.225357	0.512690	0.261729
H210	H	0.558691	0.846023	0.595062
H211	H	-0.245281	0.142164	-0.000204
H212	H	0.088052	0.475497	0.333130
H213	H	0.421386	0.808831	0.666463
H214	H	-0.208898	-0.440222	-0.000110
H215	H	0.124435	-0.106889	0.333223
H216	H	0.457769	0.226445	0.666556
C217	C	-0.090805	-0.467011	-0.000118
C218	C	0.242528	-0.133678	0.333216
C219	C	0.575861	0.199655	0.666549
H220	H	-0.113164	-0.529246	-0.000099
H221	H	0.220170	-0.195913	0.333234
H222	H	0.553503	0.137420	0.666567
H223	H	-0.067358	-0.470782	-0.071476
H224	H	0.265975	-0.137449	0.261858
H225	H	0.599309	0.195884	0.595191
H226	H	-0.067366	-0.470758	0.071262
H227	H	0.265968	-0.137424	0.404595
H228	H	0.599301	0.195909	0.737928
C229	C	-0.370538	-0.370067	-0.000096
C230	C	-0.037204	-0.036734	0.333237
C231	C	0.296129	0.296600	0.666571
H232	H	-0.392895	-0.432304	-0.000072
H233	H	-0.059561	-0.098971	0.333261
H234	H	0.273772	0.234363	0.666594
H235	H	-0.347093	-0.373837	-0.071458
H236	H	-0.013760	-0.040503	0.261876
H237	H	0.319574	0.292830	0.595209
H238	H	-0.347096	-0.373810	0.071279
H239	H	-0.013762	-0.040477	0.404613
H240	H	0.319571	0.292856	0.737946
H241	H	0.057909	-0.330239	-0.000143
H242	H	0.391243	0.003095	0.333190
H243	H	0.724576	0.336428	0.666523
