data_functionalizedCrystal
_audit_creation_method	'MofGen! by Chris Wilmer'
_symmetry_space_group_name_H-M	'P1'
_symmetry_Int_Tables_number	1
_symmetry_cell_setting	triclinic
loop_
_symmetry_equiv_pos_as_xyz
  x,y,z
_cell_length_a	19.188905
_cell_length_b	19.188924
_cell_length_c	9.798715
_cell_angle_alpha	89.994789
_cell_angle_beta	89.989196
_cell_angle_gamma	83.138260
loop_
_atom_site_label
_atom_site_type_symbol
_atom_site_fract_x
_atom_site_fract_y
_atom_site_fract_z
O1	O	0.926153	0.087083	-0.113722
O2	O	1.426153	0.587083	0.386278
O3	O	0.722839	0.098836	-0.113676
O4	O	1.222839	0.598836	0.386324
O5	O	0.830366	-0.008697	-0.113684
O6	O	1.330366	0.491303	0.386316
O7	O	0.818626	0.194616	-0.113714
O8	O	1.318626	0.694616	0.386286
O9	O	0.830358	-0.008697	0.113298
O10	O	1.330358	0.491303	0.613298
O11	O	0.722831	0.098835	0.113306
O12	O	1.222831	0.598835	0.613306
O13	O	0.926145	0.087083	0.113260
O14	O	1.426145	0.587083	0.613260
Zn15	Zn	0.824487	0.092959	0.149321
Zn16	Zn	1.324487	0.592959	0.649321
Zn17	Zn	0.824497	0.092959	-0.149737
Zn18	Zn	1.324497	0.592959	0.350263
O19	O	0.818618	0.194616	0.113268
O20	O	1.318618	0.694616	0.613268
C21	C	0.829982	-0.034708	-0.000192
C22	C	1.329982	0.465292	0.499808
C23	C	0.828844	-0.112213	-0.000188
C24	C	1.328844	0.387787	0.499812
C25	C	0.696824	0.098458	-0.000179
C26	C	1.196824	0.598458	0.499821
C27	C	0.619318	0.097324	-0.000161
C28	C	1.119318	0.597324	0.499839
C29	C	0.828317	-0.148612	-0.123916
C30	C	1.328317	0.351388	0.376084
C31	C	0.827237	-0.221434	-0.123926
C32	C	1.327237	0.278566	0.376074
C33	C	0.826698	-0.257857	-0.000201
C34	C	1.326698	0.242143	0.499799
C35	C	0.827221	-0.221449	0.123543
C36	C	1.327221	0.278551	0.623543
C37	C	0.828294	-0.148627	0.123550
C38	C	1.328294	0.351373	0.623550
N39	N	0.864743	-0.377524	0.091876
N40	N	1.364743	0.122476	0.591876
N41	N	0.863725	-0.446702	0.091861
N42	N	1.363725	0.053298	0.591861
C43	C	0.823464	-0.477266	-0.000214
C44	C	1.323464	0.022734	0.499786
N45	N	0.784267	-0.436040	-0.092294
N46	N	1.284267	0.063960	0.407706
N47	N	0.785288	-0.366856	-0.092283
N48	N	1.285288	0.133144	0.407717
C49	C	0.825534	-0.336821	-0.000195
C50	C	1.325534	0.163179	0.499805
C51	C	0.821765	-0.592627	-0.123961
C52	C	1.321765	-0.092627	0.376039
C53	C	0.820680	-0.665451	-0.123966
C54	C	1.320680	-0.165451	0.376034
C55	C	0.820672	-0.665465	0.123507
C56	C	1.320672	-0.165465	0.623507
C57	C	0.821749	-0.592642	0.123508
C58	C	1.321749	-0.092642	0.623508
C59	C	0.822299	-0.556228	-0.000230
C60	C	1.322299	-0.056228	0.499770
C61	C	0.582931	0.096780	-0.123892
C62	C	1.082931	0.596780	0.376108
C63	C	0.510107	0.095707	-0.123909
C64	C	1.010107	0.595707	0.376091
C65	C	0.473676	0.095164	-0.000188
C66	C	0.973676	0.595164	0.499812
C67	C	0.510072	0.095713	0.123560
C68	C	1.010072	0.595713	0.623560
C69	C	0.582893	0.096793	0.123574
C70	C	1.082893	0.596793	0.623574
N71	N	0.364653	0.053735	0.091893
N72	N	0.864653	0.553735	0.591893
N73	N	0.295476	0.052708	0.091871
N74	N	0.795476	0.552708	0.591871
C75	C	0.254269	0.091911	-0.000220
C76	C	0.754269	0.591911	0.499780
N77	N	0.284854	0.132173	-0.092311
N78	N	0.784854	0.632173	0.407689
N79	N	0.354037	0.133197	-0.092294
N80	N	0.854037	0.633197	0.407706
C81	C	0.394713	0.093993	-0.000188
C82	C	0.894713	0.593993	0.499812
C83	C	0.138918	0.090205	-0.123978
C84	C	0.638918	0.590205	0.376022
C85	C	0.066093	0.089136	-0.123990
C86	C	0.566093	0.589136	0.376010
C87	C	0.066059	0.089135	0.123483
C88	C	0.566059	0.589135	0.623483
C89	C	0.138882	0.090210	0.123491
C90	C	0.638882	0.590210	0.623491
C91	C	0.175308	0.090742	-0.000243
C92	C	0.675308	0.590742	0.499757
C93	C	0.952160	0.087461	-0.000240
C94	C	1.452160	0.587461	0.499760
C95	C	1.029666	0.088594	-0.000267
C96	C	1.529666	0.588594	0.499733
C97	C	0.819002	0.220627	-0.000227
C98	C	1.319002	0.720627	0.499773
C99	C	0.820141	0.298132	-0.000240
C100	C	1.320141	0.798132	0.499760
N101	N	0.824485	0.092959	0.353421
N102	N	1.324485	0.592959	0.853421
N103	N	0.824505	0.092955	-0.353837
N104	N	1.324505	0.592955	0.146163
C105	C	0.869635	0.047612	0.421195
C106	C	1.369635	0.547612	0.921195
C107	C	0.869646	0.047609	0.578357
C108	C	1.369646	0.547609	1.078357
H109	H	0.828762	-0.118968	-0.224673
H110	H	1.328762	0.381032	0.275327
C111	C	0.772282	0.145408	0.567453
C112	C	1.272282	0.645408	1.067453
H113	H	0.743966	0.173860	0.630381
H114	H	1.243966	0.673860	1.130381
H115	H	0.743242	0.120431	0.511728
H116	H	1.243242	0.620431	1.011728
H117	H	0.797425	0.174305	0.511696
H118	H	1.297425	0.674305	1.011696
C119	C	0.622996	0.097380	-0.259991
C120	C	1.122996	0.597380	0.240009
H121	H	0.671579	0.098099	-0.242267
H122	H	1.171579	0.598099	0.257733
H123	H	0.605607	0.137911	-0.310830
H124	H	1.105607	0.637911	0.189170
H125	H	0.616531	0.056493	-0.310832
H126	H	1.116531	0.556493	0.189168
H127	H	0.480475	0.095264	-0.224670
H128	H	0.980475	0.595264	0.275330
H129	H	0.036397	0.088697	0.224220
H130	H	0.536397	0.588697	0.724220
C131	C	0.622924	0.097387	0.259680
C132	C	1.122924	0.597387	0.759680
H133	H	0.671511	0.098111	0.241967
H134	H	1.171511	0.598111	0.741967
H135	H	0.616439	0.056506	0.310527
H136	H	1.116439	0.556506	0.810527
H137	H	0.605527	0.137924	0.310507
H138	H	1.105527	0.637924	0.810507
H139	H	0.480404	0.095272	0.224295
H140	H	0.980404	0.595272	0.724295
H141	H	0.908279	0.008788	0.362869
H142	H	1.408279	0.508788	0.862869
C143	C	0.026062	0.088540	-0.260098
C144	C	0.526062	0.588540	0.239902
H145	H	-0.022526	0.087830	-0.242388
H146	H	0.477474	0.587830	0.257612
H147	H	0.043458	0.048008	-0.310927
H148	H	0.543458	0.548008	0.189073
H149	H	0.032549	0.129427	-0.310942
H150	H	0.532549	0.629427	0.189058
H151	H	0.826803	-0.251075	-0.224684
H152	H	1.326803	0.248925	0.275316
H153	H	0.168576	0.090645	-0.224730
H154	H	0.668576	0.590645	0.275270
C155	C	0.178912	0.090800	0.259598
C156	C	0.678912	0.590800	0.759598
H157	H	0.146787	0.090318	0.333282
H158	H	0.646787	0.590318	0.833282
H159	H	0.201863	0.131927	0.264743
H160	H	0.701863	0.631927	0.764743
H161	H	0.212775	0.050509	0.264749
H162	H	0.712775	0.550509	0.764749
H163	H	0.826781	-0.251109	0.224281
H164	H	1.326781	0.248891	0.724281
C165	C	0.921865	-0.004841	0.657083
C166	C	1.421865	0.495159	1.157083
H167	H	0.915018	0.002034	0.752385
H168	H	1.415018	0.502034	1.252385
H169	H	0.968484	0.002475	0.633702
H170	H	1.468484	0.502475	1.133702
H171	H	0.914298	-0.051397	0.633744
H172	H	1.414298	0.448603	1.133744
H173	H	0.785836	0.131777	0.411748
H174	H	1.285836	0.631777	0.911748
H175	H	0.828720	-0.118991	0.224307
H176	H	1.328720	0.381009	0.724307
H177	H	0.822208	-0.562977	-0.224716
H178	H	1.322208	-0.062977	0.275284
H179	H	0.820228	-0.695119	0.224246
H180	H	1.320228	-0.195119	0.724246
C181	C	0.820097	-0.705489	-0.260075
C182	C	1.320097	-0.205489	0.239925
H183	H	0.820584	-0.673370	-0.333761
H184	H	1.320584	-0.173370	0.166239
H185	H	0.778971	-0.728441	-0.265219
H186	H	1.278971	-0.228441	0.234781
H187	H	0.860389	-0.739353	-0.265223
H188	H	1.360389	-0.239353	0.234777
H189	H	0.822184	-0.563007	0.224261
H190	H	1.322184	-0.063007	0.724261
