data_functionalizedCrystal
_audit_creation_method	'MofGen! by Chris Wilmer'
_symmetry_space_group_name_H-M	'P1'
_symmetry_Int_Tables_number	1
_symmetry_cell_setting	triclinic
loop_
_symmetry_equiv_pos_as_xyz
  x,y,z
_cell_length_a	15.297621
_cell_length_b	15.297327
_cell_length_c	16.625539
_cell_angle_alpha	80.352741
_cell_angle_beta	99.687197
_cell_angle_gamma	91.624289
loop_
_atom_site_label
_atom_site_type_symbol
_atom_site_fract_x
_atom_site_fract_y
_atom_site_fract_z
Zn1	Zn	-1.278684	0.580828	-0.743163
Zn2	Zn	-0.778684	1.080828	-0.243163
Zn3	Zn	-1.253219	0.727288	-0.627037
Zn4	Zn	-0.753219	1.227288	-0.127037
Zn5	Zn	-1.132204	0.555466	-0.581802
Zn6	Zn	-0.632204	1.055466	-0.081802
Zn7	Zn	-1.106827	0.701856	-0.735288
Zn8	Zn	-0.606827	1.201856	-0.235288
O9	O	-1.192733	0.641359	-0.671823
O10	O	-0.692733	1.141359	-0.171823
O11	O	-1.397873	0.621513	-0.749985
O12	O	-0.897873	1.121513	-0.249985
O13	O	-1.237129	0.704525	-0.508203
O14	O	-0.737129	1.204525	-0.008203
O15	O	-1.172913	0.436272	-0.587571
O16	O	-0.672913	0.936272	-0.087571
O17	O	-1.379164	0.729117	-0.664668
O18	O	-0.879164	1.229117	-0.164668
O19	O	-1.280531	0.454905	-0.706122
O20	O	-0.780531	0.954905	-0.206122
O21	O	-1.148221	0.578289	-0.474969
O22	O	-0.648221	1.078289	0.025031
O23	O	-1.006271	0.553628	-0.579936
O24	O	-0.506271	1.053628	-0.079936
O25	O	-1.129661	0.685771	-0.849166
O26	O	-0.629661	1.185771	-0.349166
O27	O	-0.987626	0.661180	-0.692701
O28	O	-0.487626	1.161180	-0.192701
O29	O	-1.255923	0.596852	-0.854952
O30	O	-0.755923	1.096852	-0.354952
O31	O	-1.212522	0.846473	-0.657033
O32	O	-0.712522	1.346473	-0.157033
O33	O	-1.104969	0.827788	-0.736564
O34	O	-0.604969	1.327788	-0.236564
C35	C	-0.965168	0.601893	-0.630556
C36	C	-0.465168	1.101893	-0.130556
C37	C	-0.867810	0.585030	-0.612924
C38	C	-0.367810	1.085030	-0.112924
C39	C	-1.153252	0.868912	-0.700874
C40	C	-0.653252	1.368912	-0.200874
C41	C	-1.136442	0.966275	-0.713344
C42	C	-0.636442	1.466275	-0.213344
C43	C	-0.554583	0.761850	-0.797805
C44	C	-0.054583	1.261850	-0.297805
C45	C	-0.646054	0.777700	-0.814370
C46	C	-0.146054	1.277700	-0.314370
C47	C	-0.701498	0.729534	-0.764010
C48	C	-0.201498	1.229534	-0.264010
C49	C	-0.665461	0.665515	-0.697082
C50	C	-0.165461	1.165515	-0.197082
C51	C	-0.573981	0.649669	-0.680512
C52	C	-0.073981	1.149669	-0.180512
C53	C	-0.720895	0.617352	-0.646717
C54	C	-0.220895	1.117352	-0.146717
C55	C	-0.684859	0.553333	-0.579788
C56	C	-0.184859	1.053333	-0.079788
C57	C	-0.593387	0.537489	-0.563222
C58	C	-0.093387	1.037489	-0.063222
C59	C	-0.537943	0.585656	-0.613581
C60	C	-0.037943	1.085656	-0.113581
C61	C	-0.812376	0.633199	-0.663287
C62	C	-0.312376	1.133199	-0.163287
C63	C	-0.831773	0.521017	-0.545994
C64	C	-0.331773	1.021017	-0.045994
C65	C	-0.740302	0.505167	-0.529429
C66	C	-0.240302	1.005167	-0.029429
C67	C	-0.421189	0.680974	-0.713243
C68	C	0.078811	1.180974	-0.213243
C69	C	-0.518546	0.697837	-0.730875
C70	C	-0.018546	1.197837	-0.230875
C71	C	-1.192802	0.641304	-0.882134
C72	C	-0.692802	1.141304	-0.382134
C73	C	-1.192831	0.641280	-0.971756
C74	C	-0.692831	1.141280	-0.471756
C75	C	-1.232393	0.412922	-0.642679
C76	C	-0.732393	0.912922	-0.142679
C77	C	-1.249294	0.315575	-0.630260
C78	C	-0.749294	0.815575	-0.130260
C79	C	-1.313240	1.279543	-0.583038
C80	C	-0.813240	1.779543	-0.083038
C81	C	-1.329033	1.188066	-0.571318
C82	C	-0.829033	1.688066	-0.071318
C83	C	-1.280887	1.132614	-0.606824
C84	C	-0.780887	1.632614	-0.106824
C85	C	-1.216944	1.168647	-0.654052
C86	C	-0.716944	1.668647	-0.154052
C87	C	-1.201144	1.260132	-0.665768
C88	C	-0.701144	1.760132	-0.165768
C89	C	-1.168791	1.113203	-0.689553
C90	C	-0.668791	1.613203	-0.189553
C91	C	-1.104848	1.149236	-0.736781
C92	C	-0.604848	1.649236	-0.236781
C93	C	-1.089051	1.240712	-0.748495
C94	C	-0.589051	1.740712	-0.248495
C95	C	-1.137198	1.296164	-0.712990
C96	C	-0.637198	1.796164	-0.212990
C97	C	-1.184591	1.021718	-0.677837
C98	C	-0.684591	1.521718	-0.177837
C99	C	-1.072495	1.002307	-0.760566
C100	C	-0.572495	1.502307	-0.260566
C101	C	-1.056702	1.093783	-0.772287
C102	C	-0.556702	1.593783	-0.272287
C103	C	-1.192888	0.641189	-1.299926
C104	C	-0.692888	1.141189	-0.799926
C105	C	-1.192869	0.641217	-1.208619
C106	C	-0.692869	1.141217	-0.708619
C107	C	-1.192860	0.641236	-1.135844
C108	C	-0.692860	1.141236	-0.635844
C109	C	-1.192840	0.641262	-1.044531
C110	C	-0.692840	1.141262	-0.544531
C111	C	-1.192727	0.641360	-0.462331
C112	C	-0.692727	1.141360	0.037669
C113	C	-1.192910	0.641166	-0.372709
C114	C	-0.692910	1.141166	0.127291
H115	H	-0.775977	0.742443	-0.777502
H116	H	-0.275977	1.242443	-0.277502
O117	O	-0.684925	0.846735	-0.886557
O118	O	-0.184925	1.346735	-0.386557
H119	H	-0.631008	0.877559	-0.918798
H120	H	-0.131008	1.377559	-0.418798
H121	H	-1.033289	0.957157	-0.789476
H122	H	-0.533289	1.457157	-0.289476
O123	O	-1.120166	1.394833	-0.725623
O124	O	-0.620166	1.894833	-0.225623
H125	H	-1.133683	1.421960	-0.792736
H126	H	-0.633683	1.921960	-0.292736
H127	H	-1.352428	1.324699	-0.554129
H128	H	-0.852428	1.824699	-0.054129
H129	H	-1.381095	1.158732	-0.532865
H130	H	-0.881095	1.658732	-0.032865
O131	O	-1.020079	1.279573	-0.799428
O132	O	-0.520079	1.779573	-0.299428
H133	H	-0.968325	1.313583	-0.760573
H134	H	-0.468325	1.813583	-0.260573
H135	H	-1.004638	1.123135	-0.810740
H136	H	-0.504638	1.623135	-0.310740
H137	H	-1.293749	1.058130	-0.597277
H138	H	-0.793749	1.558130	-0.097277
H139	H	-0.564048	0.485370	-0.508717
H140	H	-0.064048	0.985370	-0.008717
H141	H	-0.841707	0.685323	-0.717781
H142	H	-0.341707	1.185323	-0.217781
H143	H	-0.710948	0.453043	-0.474935
H144	H	-0.210948	0.953043	0.025065
H145	H	-0.463460	0.572752	-0.600099
H146	H	0.036540	1.072752	-0.100099
O147	O	-0.494798	0.813813	-0.852118
O148	O	0.005202	1.313813	-0.352118
H149	H	-0.459928	0.767466	-0.880670
H150	H	0.040072	1.267466	-0.380670
O151	O	-0.891560	0.469055	-0.491672
O152	O	-0.391560	0.969055	0.008328
H153	H	-0.961224	0.490821	-0.514444
H154	H	-0.461224	0.990821	-0.014444
H155	H	-1.236654	0.992389	-0.639383
H156	H	-0.736654	1.492389	-0.139383
