data_functionalizedCrystal
_audit_creation_method	'MofGen! by Chris Wilmer'
_symmetry_space_group_name_H-M	'P1'
_symmetry_Int_Tables_number	1
_symmetry_cell_setting	triclinic
loop_
_symmetry_equiv_pos_as_xyz
  x,y,z
_cell_length_a	15.944551
_cell_length_b	15.021413
_cell_length_c	11.792241
_cell_angle_alpha	89.996104
_cell_angle_beta	83.846077
_cell_angle_gamma	90.002826
loop_
_atom_site_label
_atom_site_type_symbol
_atom_site_fract_x
_atom_site_fract_y
_atom_site_fract_z
O1	O	1.115189	0.073940	0.146365
O2	O	1.615189	0.573940	0.646365
O3	O	0.870721	0.073962	0.164412
O4	O	1.370721	0.573962	0.664412
O5	O	0.998888	0.073944	-0.009831
O6	O	1.498888	0.573944	0.490169
O7	O	0.987023	0.073957	0.320608
O8	O	1.487023	0.573957	0.820608
O9	O	0.998867	-0.074120	-0.009806
O10	O	1.498867	0.425880	0.490194
O11	O	0.870701	-0.074103	0.164437
O12	O	1.370701	0.425897	0.664437
O13	O	1.115169	-0.074125	0.146390
O14	O	1.615169	0.425875	0.646390
Zn15	Zn	0.992932	-0.097622	0.155417
Zn16	Zn	1.492932	0.402378	0.655417
Zn17	Zn	0.992958	0.097459	0.155384
Zn18	Zn	1.492958	0.597459	0.655384
O19	O	0.987002	-0.074107	0.320632
O20	O	1.487002	0.425893	0.820632
C21	C	0.839414	-0.000068	0.163675
C22	C	1.339414	0.499932	0.663675
C23	C	0.746157	-0.000059	0.161429
C24	C	1.246157	0.499941	0.661429
N25	N	0.992919	-0.230760	0.155439
N26	N	1.492919	0.269240	0.655439
C27	C	0.530789	-0.000081	0.048056
C28	C	1.030789	0.499919	0.548056
C29	C	0.470017	0.072924	0.100690
C30	C	0.970017	0.572924	0.600690
C31	C	0.575413	-0.000070	0.157365
C32	C	1.075413	0.499930	0.657365
C33	C	0.470019	-0.073055	0.100741
C34	C	0.970019	0.426945	0.600741
C35	C	0.410483	-0.000084	0.153432
C36	C	0.910483	0.499916	0.653432
C37	C	0.515869	0.072996	0.210030
C38	C	1.015869	0.572996	0.710030
C39	C	0.515878	-0.073049	0.210065
C40	C	1.015878	0.426951	0.710065
C41	C	0.455123	-0.000026	0.262778
C42	C	0.955123	0.499974	0.762778
C43	C	0.670426	-0.000061	0.159628
C44	C	1.170426	0.499939	0.659628
C45	C	0.315471	-0.000087	0.151178
C46	C	0.815471	0.499913	0.651178
C47	C	0.933646	-0.470435	0.235971
C48	C	1.433646	0.029565	0.735971
C49	C	1.009646	-0.529775	0.258005
C50	C	1.509646	-0.029775	0.758005
C51	C	0.992941	-0.412367	0.155410
C52	C	1.492941	0.087633	0.655410
C53	C	0.916962	-0.529768	0.133401
C54	C	1.416962	-0.029768	0.633401
C55	C	0.992955	-0.587791	0.155386
C56	C	1.492955	-0.087791	0.655386
C57	C	1.068979	-0.470400	0.177496
C58	C	1.568979	0.029600	0.677496
C59	C	0.976245	-0.470388	0.052847
C60	C	1.476245	0.029612	0.552847
C61	C	1.052299	-0.529702	0.074838
C62	C	1.552299	-0.029702	0.574838
C63	C	0.992932	-0.311309	0.155428
C64	C	1.492932	0.188691	0.655428
C65	C	0.992972	-0.688846	0.155367
C66	C	1.492972	-0.188846	0.655367
C67	C	1.146476	-0.000093	0.147126
C68	C	1.646476	0.499907	0.647126
C69	C	1.239733	-0.000096	0.149372
C70	C	1.739733	0.499904	0.649372
C71	C	0.998132	-0.000088	-0.052104
C72	C	1.498132	0.499912	0.447896
C73	C	0.995901	-0.000087	-0.178099
C74	C	1.495901	0.499913	0.321901
N75	N	0.992977	0.230597	0.155354
N76	N	1.492977	0.730597	0.655354
C77	C	0.991799	-0.000072	-0.408777
C78	C	1.491799	0.499928	0.091223
C79	C	0.994079	-0.000080	-0.280411
C80	C	1.494079	0.499920	0.219589
C81	C	0.987758	-0.000073	0.362905
C82	C	1.487758	0.499927	0.862905
C83	C	0.989989	-0.000068	0.488900
C84	C	1.489989	0.499932	0.988900
H85	H	0.563713	0.000005	-0.042662
H86	H	1.063713	0.500005	0.457338
F87	F	0.443471	0.153595	0.040250
F88	F	0.943471	0.653595	0.540250
F89	F	0.542274	0.153758	0.270401
F90	F	1.042274	0.653758	0.770401
H91	H	1.023780	-0.555860	0.344729
H92	H	1.523780	-0.055860	0.844729
H93	H	0.422374	0.000019	0.353590
H94	H	0.922374	0.500019	0.853590
F95	F	0.542455	-0.153722	0.270459
F96	F	1.042455	0.346278	0.770459
F97	F	0.443482	-0.153727	0.040301
F98	F	0.943482	0.346273	0.540301
F99	F	0.868172	-0.436417	0.325087
F100	F	1.368172	0.063583	0.825087
F101	F	1.152992	-0.436462	0.201945
F102	F	1.652992	0.063538	0.701945
F103	F	1.117918	-0.563507	-0.014227
F104	F	1.617918	-0.063507	0.485773
H105	H	0.962087	-0.444282	-0.033849
H106	H	1.462087	0.055718	0.466151
F107	F	0.832970	-0.563855	0.109082
F108	F	1.332970	-0.063855	0.609082
