data_functionalizedCrystal
_audit_creation_method	'MofGen! by Chris Wilmer'
_symmetry_space_group_name_H-M	'P1'
_symmetry_Int_Tables_number	1
_symmetry_cell_setting	triclinic
loop_
_symmetry_equiv_pos_as_xyz
  x,y,z
_cell_length_a	16.098538
_cell_length_b	10.489741
_cell_length_c	10.489741
_cell_angle_alpha	84.539174
_cell_angle_beta	92.751052
_cell_angle_gamma	87.236155
loop_
_atom_site_label
_atom_site_type_symbol
_atom_site_fract_x
_atom_site_fract_y
_atom_site_fract_z
O1	O	0.069204	-1.699709	-0.174324
O2	O	0.069217	-1.328514	-0.191216
O3	O	0.069205	-1.522557	0.002828
O4	O	0.069216	-1.505665	-0.368367
O5	O	-0.069307	-1.511222	-0.008463
O6	O	-0.069295	-1.317179	-0.202506
O7	O	-0.069308	-1.688373	-0.185614
Zn8	Zn	-0.091294	-1.500976	-0.195853
Zn9	Zn	0.091202	-1.515911	-0.180977
O10	O	-0.069296	-1.494330	-0.379658
C11	C	-0.000038	-1.275315	-0.195585
C12	C	-0.000033	-1.133686	-0.191767
N13	N	-0.215842	-1.490793	-0.206004
C14	C	-0.000050	-1.515614	0.044714
C15	C	-0.000049	-1.511797	0.186344
C16	C	-0.259432	-1.573183	-0.123674
C17	C	-0.346621	-1.566071	-0.130787
C18	C	-0.390218	-1.476574	-0.220238
C19	C	-0.346621	-1.394175	-0.302572
C20	C	-0.259434	-1.401282	-0.295451
C21	C	-0.653466	-1.450812	-0.246029
C22	C	-0.740659	-1.443714	-0.253146
C23	C	-0.740652	-1.615610	-0.081359
C24	C	-0.653464	-1.622713	-0.074252
C25	C	-0.609875	-1.540310	-0.156581
C26	C	-0.479338	-1.469306	-0.227514
C27	C	-0.520756	-1.547573	-0.149298
N28	N	0.215751	-1.526105	-0.170816
C29	C	-0.000052	-1.741573	-0.181245
C30	C	-0.000051	-1.883202	-0.185062
C31	C	-0.000044	-1.065545	-0.068303
C32	C	0.068250	-0.979007	-0.121060
C33	C	-0.068313	-0.967865	-0.132221
C34	C	0.068317	-1.049018	-0.244570
C35	C	-0.068306	-1.037880	-0.255719
C36	C	0.000004	-0.951371	-0.308564
C37	C	-0.000039	-1.501274	-0.421544
C38	C	-0.000035	-1.505091	-0.563173
C39	C	-0.000038	-1.388333	0.254485
C40	C	-0.068334	-1.441067	0.341040
C41	C	0.068228	-1.452272	0.352146
C42	C	-0.068401	-1.564577	0.271029
C43	C	0.068223	-1.575770	0.282131
C44	C	-0.000090	-1.628593	0.368658
H45	H	-0.223941	-1.646066	-0.050839
O46	O	-0.137161	-1.069124	-0.323773
C47	C	-0.215793	-1.044248	-0.526726
C48	C	-0.137784	-1.008732	-0.449810
H49	H	-0.216313	-0.995460	-0.628649
H50	H	-0.274004	-1.010999	-0.478797
H51	H	-0.214782	-1.152666	-0.529690
H52	H	-0.138713	-0.900325	-0.446819
H53	H	-0.079606	-1.042073	-0.497766
H54	H	0.125972	-1.404742	0.387817
H55	H	-0.000131	-1.730193	0.418078
O56	O	-0.478464	-1.634376	-0.062214
C57	C	-0.451879	-1.709300	0.161045
C58	C	-0.499810	-1.610897	0.062555
H59	H	-0.469133	-1.690369	0.261941
H60	H	-0.382063	-1.700243	0.152130
H61	H	-0.469001	-1.810208	0.141960
H62	H	-0.482758	-1.509946	0.081576
H63	H	-0.569614	-1.620067	0.071492
H64	H	-0.382111	-1.633159	-0.063747
O65	O	-0.137302	-1.621411	0.228729
C66	C	-0.215642	-1.811831	0.240402
C67	C	-0.137569	-1.747639	0.288395
H68	H	-0.215892	-1.913887	0.288641
H69	H	-0.215113	-1.814346	0.132030
H70	H	-0.273756	-1.754734	0.265070
H71	H	-0.079413	-1.804683	0.263817
H72	H	-0.138172	-1.745106	0.396758
O73	O	0.137152	-0.947864	-0.053040
C74	C	0.263202	-1.025063	0.068969
C75	C	0.185202	-1.060502	-0.008018
H76	H	0.302082	-1.116108	0.105368
H77	H	0.243543	-0.972690	0.153927
H78	H	0.301758	-0.960131	0.004518
H79	H	0.146612	-1.125473	0.056328
H80	H	0.204918	-1.112809	-0.092987
H81	H	-0.000104	-1.286816	0.204828
H82	H	0.125961	-1.632692	0.255793
O83	O	-0.611245	-1.709683	0.012758
C84	C	-0.620443	-1.879479	0.182345
C85	C	-0.668358	-1.781021	0.083892
H86	H	-0.666597	-1.937200	0.239865
H87	H	-0.579659	-1.827216	0.250027
H88	H	-0.579588	-1.946974	0.129959
H89	H	-0.709258	-1.713500	0.136171
H90	H	-0.709089	-1.833368	0.016215
O91	O	-0.782882	-1.356646	-0.340066
C92	C	-0.773693	-1.186920	-0.509727
C93	C	-0.725772	-1.285440	-0.411341
H94	H	-0.727541	-1.129343	-0.567397
H95	H	-0.814501	-1.119299	-0.457407
H96	H	-0.814523	-1.239256	-0.577276
H97	H	-0.684897	-1.233212	-0.343765
H98	H	-0.685017	-1.353057	-0.463744
H99	H	-0.776150	-1.682697	-0.014330
H100	H	0.000039	-1.115241	0.033199
O101	O	0.137306	-1.091206	-0.301295
C102	C	0.263742	-1.034381	-0.401511
C103	C	0.185639	-0.986424	-0.337330
H104	H	0.302850	-0.949693	-0.430639
H105	H	0.244210	-1.082726	-0.490252
H106	H	0.302017	-1.106258	-0.331065
H107	H	0.147330	-0.914503	-0.407677
H108	H	0.205228	-0.938156	-0.248568
O109	O	-0.137271	-1.373315	0.372517
C110	C	-0.262929	-1.376170	0.488432
C111	C	-0.184909	-1.453066	0.452866
H112	H	-0.301457	-1.440608	0.553420
H113	H	-0.301855	-1.339668	0.397468
H114	H	-0.243201	-1.291265	0.540810
H115	H	-0.204563	-1.538026	0.400520
H116	H	-0.146002	-1.489471	0.543875
H117	H	-0.617983	-1.383718	-0.313067
O118	O	-0.137221	-0.925097	-0.075673
C119	C	-0.262960	-0.788862	-0.099062
C120	C	-0.184953	-0.837159	-0.163259
H121	H	-0.301583	-0.717776	-0.169855
H122	H	-0.243310	-0.739556	-0.010993
H123	H	-0.301770	-0.873584	-0.068829
H124	H	-0.146109	-0.752509	-0.193573
H125	H	-0.204661	-0.886506	-0.251273
H126	H	0.000044	-0.901951	-0.410164
H127	H	-0.382123	-1.321298	-0.375400
H128	H	-0.223944	-1.334189	-0.362491
O129	O	-0.521656	-1.382200	-0.314274
C130	C	-0.548330	-1.158922	-0.389075
C131	C	-0.500364	-1.257432	-0.290732
H132	H	-0.531121	-1.058027	-0.370092
H133	H	-0.618141	-1.167892	-0.380006
H134	H	-0.531195	-1.177936	-0.490003
H135	H	-0.517430	-1.238481	-0.189761
H136	H	-0.430566	-1.248439	-0.299914
