data_functionalizedCrystal
_audit_creation_method	'MofGen! by Chris Wilmer'
_symmetry_space_group_name_H-M	'P1'
_symmetry_Int_Tables_number	1
_symmetry_cell_setting	triclinic
loop_
_symmetry_equiv_pos_as_xyz
  x,y,z
_cell_length_a	16.625547
_cell_length_b	12.594516
_cell_length_c	16.625539
_cell_angle_alpha	90.023675
_cell_angle_beta	89.975178
_cell_angle_gamma	89.973331
loop_
_atom_site_label
_atom_site_type_symbol
_atom_site_fract_x
_atom_site_fract_y
_atom_site_fract_z
Zn1	Zn	1.232657	0.423742	-0.456027
Zn2	Zn	1.732657	0.923742	0.043973
Zn3	Zn	1.232550	0.601743	-0.321205
Zn4	Zn	1.732550	1.101743	0.178795
Zn5	Zn	1.097818	0.423779	-0.321197
Zn6	Zn	1.597818	0.923779	0.178803
Zn7	Zn	1.097779	0.601679	-0.455985
Zn8	Zn	1.597779	1.101679	0.044015
O9	O	1.165201	0.512736	-0.388603
O10	O	1.665201	1.012736	0.111397
O11	O	1.345475	0.447366	-0.438163
O12	O	1.845475	0.947366	0.061837
O13	O	1.214649	0.578178	-0.208371
O14	O	1.714649	1.078178	0.291629
O15	O	1.115766	0.274828	-0.339097
O16	O	1.615766	0.774828	0.160903
O17	O	1.345396	0.578143	-0.339110
O18	O	1.845396	1.078143	0.160890
O19	O	1.214831	0.274801	-0.438156
O20	O	1.714831	0.774801	0.061844
O21	O	1.115663	0.447429	-0.208366
O22	O	1.615663	0.947429	0.291634
O23	O	0.984981	0.447366	-0.339056
O24	O	1.484981	0.947366	0.160944
O25	O	1.115699	0.578032	-0.568823
O26	O	1.615699	1.078032	-0.068823
O27	O	0.984952	0.578068	-0.438084
O28	O	1.484952	1.078068	0.061916
O29	O	1.214793	0.447303	-0.568854
O30	O	1.714793	0.947303	-0.068854
O31	O	1.214611	0.750681	-0.339069
O32	O	1.714611	1.250681	0.160931
O33	O	1.115595	0.750633	-0.438091
O34	O	1.615595	1.250633	0.061909
C35	C	0.955710	0.512715	-0.388565
C36	C	1.455710	1.012715	0.111435
C37	C	0.866089	0.512732	-0.388568
C38	C	1.366089	1.012732	0.111432
C39	C	0.793307	0.512734	-0.388578
C40	C	1.293307	1.012734	0.111422
C41	C	0.701998	0.512740	-0.388598
C42	C	1.201998	1.012740	0.111402
C43	C	0.629222	0.512749	-0.388619
C44	C	1.129222	1.012749	0.111381
C45	C	0.537907	0.512757	-0.388638
C46	C	1.037907	1.012757	0.111362
C47	C	1.165109	0.789277	-0.388594
C48	C	1.665109	1.289277	0.111406
C49	C	1.165143	0.907582	-0.388617
C50	C	1.665143	1.407582	0.111383
C51	C	1.111274	0.976848	-0.442437
C52	C	1.611274	1.476848	0.057563
C53	C	1.091619	1.047709	-0.368861
C54	C	1.591619	1.547709	0.131139
C55	C	1.184842	1.047521	-0.462205
C56	C	1.684842	1.547521	0.037795
C57	C	1.145450	0.976884	-0.315002
C58	C	1.645450	1.476884	0.184998
C59	C	1.238707	0.976690	-0.408396
C60	C	1.738707	1.476690	0.091604
C61	C	1.219080	1.047519	-0.334769
C62	C	1.719080	1.547519	0.165231
C63	C	1.375510	0.512757	-0.388642
C64	C	1.875510	1.012757	0.111358
C65	C	1.465131	0.512766	-0.388659
C66	C	1.965131	1.012766	0.111341
C67	C	1.165280	1.235115	-0.388629
C68	C	1.665280	1.735115	0.111371
C69	C	1.165223	1.116809	-0.388637
C70	C	1.665223	1.616809	0.111363
C71	C	1.165253	0.512656	-0.598912
C72	C	1.665253	1.012656	-0.098912
C73	C	1.165276	0.512623	-0.688534
C74	C	1.665276	1.012623	-0.188534
C75	C	1.165313	0.512503	-1.016709
C76	C	1.665313	1.012503	-0.516709
C77	C	1.165300	0.512540	-0.925401
C78	C	1.665300	1.012540	-0.425401
C79	C	1.165295	0.512564	-0.852624
C80	C	1.665295	1.012564	-0.352624
C81	C	1.165281	0.512599	-0.761310
C82	C	1.665281	1.012599	-0.261310
C83	C	1.165195	0.512738	-0.179113
C84	C	1.665195	1.012738	0.320887
C85	C	1.165329	0.512472	-0.089492
C86	C	1.665329	1.012472	0.410508
H87	H	1.065649	0.945817	-0.487885
H88	H	1.565649	1.445817	0.012115
H89	H	1.029445	1.078927	-0.352149
H90	H	1.529445	1.578927	0.147851
C91	C	1.207312	1.089435	-0.546262
C92	C	1.707312	1.589435	-0.046262
H93	H	1.168956	1.065224	-0.584425
H94	H	1.668956	1.565224	-0.084425
H95	H	1.207663	1.164852	-0.545551
H96	H	1.707663	1.664852	-0.045551
H97	H	1.259175	1.064063	-0.560674
H98	H	1.759175	1.564063	-0.060674
H99	H	1.264670	1.078354	-0.289211
H100	H	1.764670	1.578354	0.210789
C101	C	1.122879	0.935151	-0.230921
C102	C	1.622879	1.435151	0.269079
H103	H	1.122959	0.859721	-0.231435
H104	H	1.622959	1.359721	0.268565
H105	H	1.160930	0.959911	-0.192665
H106	H	1.660930	1.459911	0.307335
H107	H	1.070808	0.960059	-0.216800
H108	H	1.570808	1.460059	0.283200
C109	C	1.322693	0.934553	-0.431004
C110	C	1.822693	1.434553	0.068996
H111	H	1.336588	0.958706	-0.483321
H112	H	1.836588	1.458706	0.016679
H113	H	1.361102	0.959828	-0.393302
H114	H	1.861102	1.459828	0.106698
H115	H	1.322201	0.859132	-0.430352
H116	H	1.822201	1.359132	0.069648
