data_functionalizedCrystal
_audit_creation_method	'MofGen! by Chris Wilmer'
_symmetry_space_group_name_H-M	'P1'
_symmetry_Int_Tables_number	1
_symmetry_cell_setting	triclinic
loop_
_symmetry_equiv_pos_as_xyz
  x,y,z
_cell_length_a	14.395555
_cell_length_b	21.606444
_cell_length_c	21.606444
_cell_angle_alpha	60.001331
_cell_angle_beta	90.003431
_cell_angle_gamma	59.998460
loop_
_atom_site_label
_atom_site_type_symbol
_atom_site_fract_x
_atom_site_fract_y
_atom_site_fract_z
Zr1	Zr	0.894897	0.677424	-0.081169
O2	O	0.746557	0.806551	-0.179997
O3	O	0.940373	0.548303	-0.050876
O4	O	0.940361	0.677427	-0.179994
O5	O	0.746577	0.677423	0.050975
O6	O	1.093235	0.677422	-0.179989
O7	O	0.746569	0.677427	-0.050879
O8	O	1.093256	0.446443	0.050980
O9	O	0.746556	0.908402	-0.179994
O10	O	1.073854	0.601407	-0.037949
O11	O	0.959772	0.601407	0.038060
O12	O	0.959758	0.753434	-0.113960
O13	O	0.845675	0.753434	-0.037952
Zr14	Zr	1.138726	0.677410	0.081285
Zr15	Zr	1.138714	0.677417	-0.081160
Zr16	Zr	0.894910	0.677417	0.081276
Zr17	Zr	0.894895	0.839864	-0.081164
Zr18	Zr	1.138729	0.514970	0.081280
O19	O	1.093251	0.806531	0.050992
O20	O	1.093233	0.806541	-0.179985
O21	O	0.746575	0.806541	0.050980
O22	O	1.287066	0.548283	0.180113
O23	O	1.287049	0.548293	-0.050864
O24	O	0.940390	0.548293	0.180101
O25	O	1.287047	0.677411	-0.050859
O26	O	1.093263	0.677407	0.180110
O27	O	0.940388	0.677412	0.180105
O28	O	1.287054	0.677407	0.050995
O29	O	0.940357	0.908396	-0.179987
O30	O	1.093266	0.446438	0.180103
O31	O	1.287068	0.446432	0.180110
O32	O	1.287058	0.446437	0.050987
O33	O	0.746566	0.908396	-0.050871
O34	O	0.940367	0.908391	-0.050864
O35	O	1.073866	0.601400	0.114076
O36	O	1.187948	0.601400	0.038068
O37	O	1.073852	0.753427	-0.037944
O38	O	0.959769	0.753427	0.038065
C39	C	1.016815	0.474229	0.000051
C40	C	1.016816	0.405269	0.000049
C41	C	1.076363	0.372871	-0.039628
C42	C	1.076367	0.308071	-0.039622
C43	C	1.016817	0.275674	0.000055
C44	C	0.957268	0.308075	0.039737
C45	C	0.957271	0.372869	0.039736
C46	C	0.957254	0.046765	0.039743
C47	C	0.957253	-0.018032	0.039740
C48	C	1.076351	-0.018033	-0.039615
C49	C	1.076354	0.046762	-0.039616
C50	C	1.016810	0.079153	0.000068
C51	C	1.016808	0.149416	0.000064
C52	C	1.016811	0.205418	0.000056
C53	C	0.711834	0.677426	0.000047
C54	C	0.608328	0.677429	0.000044
C55	C	0.485529	0.760321	-0.041395
C56	C	0.454692	0.718885	-0.071429
C57	C	0.454742	0.718862	0.030072
C58	C	0.578854	0.635993	-0.030032
C59	C	0.578901	0.635981	0.071508
C60	C	0.548137	0.594485	0.041492
C61	C	1.321789	0.677408	0.000069
C62	C	1.425296	0.677405	0.000072
C63	C	1.016796	0.677426	-0.203137
C64	C	1.016791	0.677429	-0.272099
C65	C	1.016809	0.880605	0.000065
C66	C	1.016807	0.949565	0.000067
C67	C	0.957233	0.756785	-0.344175
C68	C	0.957243	0.756782	-0.408970
C69	C	1.016805	0.677423	-0.401687
C70	C	1.076370	0.598061	-0.329604
C71	C	1.076366	0.598064	-0.264810
C72	C	1.076388	0.598046	-0.590906
C73	C	1.076384	0.598048	-0.655707
C74	C	0.957265	0.756764	-0.735066
C75	C	0.957261	0.756767	-0.670273
C76	C	1.016831	0.677405	-0.598195
C77	C	1.016821	0.677409	-0.527938
C78	C	1.016808	0.677418	-0.471943
C79	C	1.016827	0.677408	0.203253
C80	C	1.016833	0.677405	0.272215
C81	C	1.321792	0.474220	0.000062
C82	C	1.425300	0.405257	0.000064
C83	C	1.016830	0.474220	0.203246
C84	C	1.016837	0.405257	0.272206
C85	C	1.321808	0.474211	0.203257
C86	C	1.425321	0.405245	0.272221
C87	C	0.711816	0.880623	-0.203141
C88	C	0.608303	0.949589	-0.272105
C89	C	0.711831	0.880614	0.000054
C90	C	0.608324	0.949577	0.000052
C91	C	1.016793	0.880614	-0.203130
C92	C	1.016787	0.949577	-0.272090
C93	C	1.414352	0.372874	-0.039622
C94	C	1.511599	0.308085	-0.039636
C95	C	1.619793	0.275675	0.000041
C96	C	1.630738	0.308063	0.039728
C97	C	1.533492	0.372856	0.039737
C98	C	1.076396	0.372868	0.344277
C99	C	1.076397	0.308079	0.409079
C100	C	1.016846	0.275676	0.401808
C101	C	0.957280	0.308071	0.329729
C102	C	0.957272	0.372864	0.264929
C103	C	1.533491	0.372857	0.264931
C104	C	1.630762	0.308065	0.329724
C105	C	1.619859	0.275657	0.401805
C106	C	1.511677	0.308051	0.409093
C107	C	1.414409	0.372846	0.344301
C108	C	0.500132	0.981984	-0.264815
C109	C	0.402861	1.046797	-0.329608
C110	C	0.413764	1.079208	-0.401689
C111	C	0.521946	1.046810	-0.408977
C112	C	0.619214	0.982003	-0.344185
C113	C	0.619271	0.981967	0.039732
C114	C	0.522024	1.046774	0.039728
C115	C	0.413831	1.079186	0.000048
C116	C	0.402885	1.046794	-0.039636
C117	C	0.500131	0.981993	-0.039636
C118	C	1.076350	0.981959	-0.264795
C119	C	1.076366	1.046749	-0.329584
C120	C	1.016812	1.079159	-0.401668
C121	C	0.957247	1.046770	-0.408962
C122	C	0.957238	0.981977	-0.344173
H123	H	0.908757	-0.044408	0.072053
Br124	Br	1.157222	0.490339	-0.645820
Br125	Br	1.751879	0.187720	0.489731
Br126	Br	0.536723	1.090804	-0.506808
Br127	Br	0.876453	0.090712	0.093607
H128	H	0.908760	1.073169	-0.467661
Br129	Br	1.751760	0.187740	0.000021
Br130	Br	1.777582	0.264066	0.093575
Br131	Br	1.777566	0.264114	0.319815
Br132	Br	0.485253	0.938040	-0.093488
Br133	Br	1.157166	0.090732	-0.093473
Br134	Br	1.016868	0.187742	0.489760
H135	H	1.326335	0.399208	0.350247
H136	H	1.124839	-0.044415	-0.071926
H137	H	0.707359	0.955581	0.072048
Br138	Br	1.548371	0.416791	0.093607
H139	H	0.908795	0.281679	0.323820
H140	H	0.908787	0.281688	0.072048
Br141	Br	0.876461	0.416834	0.093590
Br142	Br	1.496718	0.264141	-0.093499
Br143	Br	0.876390	0.864493	-0.354068
H144	H	1.124869	1.073113	-0.323630
Br145	Br	0.876384	0.938045	-0.354088
Br146	Br	1.496900	0.264060	0.506924
Br147	Br	1.157231	0.416825	0.354166
Br148	Br	1.157177	0.416838	-0.093486
H149	H	0.530958	1.073136	0.072046
H150	H	0.491233	0.955599	-0.206129
Br151	Br	0.667762	0.577670	-0.072479
Br152	Br	0.876419	0.864471	-0.832890
H153	H	0.908755	0.821389	-0.676210
H154	H	0.314784	1.073164	-0.323659
Br155	Br	1.157245	0.264126	0.506890
Br156	Br	1.157210	0.490357	-0.319718
H157	H	0.908776	0.399227	0.206248
Br158	Br	1.548320	0.416830	0.167114
H159	H	0.401238	0.753909	0.055456
Br160	Br	0.281744	1.167161	-0.489615
Br161	Br	0.876411	0.864484	-0.506788
H162	H	0.707289	0.955628	-0.350130
Br163	Br	0.281864	1.167133	0.000056
H164	H	0.314781	1.073195	-0.071942
H165	H	1.124845	0.955581	-0.206106
H166	H	1.016828	1.131918	-0.454417
H167	H	1.124856	0.281693	-0.071930
H168	H	1.124894	0.533425	-0.532226
H169	H	0.460081	0.830414	-0.076491
H170	H	0.573799	0.524335	0.076539
Br171	Br	0.365482	0.777276	-0.172140
H172	H	0.632421	0.600976	0.131921
Br173	Br	1.157215	0.490363	-0.166990
Br174	Br	1.267530	0.416847	-0.093479
