data_functionalizedCrystal
_audit_creation_method	'MofGen! by Chris Wilmer'
_symmetry_space_group_name_H-M	'P1'
_symmetry_Int_Tables_number	1
_symmetry_cell_setting	triclinic
loop_
_symmetry_equiv_pos_as_xyz
  x,y,z
_cell_length_a	14.971506
_cell_length_b	11.792254
_cell_length_c	13.448316
_cell_angle_alpha	89.993237
_cell_angle_beta	89.992937
_cell_angle_gamma	83.910493
loop_
_atom_site_label
_atom_site_type_symbol
_atom_site_fract_x
_atom_site_fract_y
_atom_site_fract_z
O1	O	1.187535	0.148018	-0.082699
O2	O	0.927208	0.165706	-0.082700
O3	O	1.063683	-0.008348	-0.082692
O4	O	1.051060	0.322072	-0.082707
O5	O	1.063666	-0.008358	0.082691
O6	O	0.927191	0.165695	0.082684
O7	O	1.187517	0.148007	0.082685
Cu8	Cu	1.057353	0.156850	0.097785
Cu9	Cu	1.057373	0.156863	-0.097800
O10	O	1.051043	0.322061	0.082677
C11	C	0.893872	0.164906	-0.000008
C12	C	0.794566	0.162523	-0.000008
C13	C	0.356660	0.255683	-0.000022
C14	C	0.449970	0.257913	-0.000027
C15	C	0.506776	0.155649	-0.000018
C16	C	0.470269	0.051149	-0.000015
C17	C	0.376962	0.048920	-0.000017
C18	C	0.664751	0.055802	-0.000007
C19	C	0.758065	0.058031	-0.000002
C20	C	0.737759	0.264794	-0.000016
C21	C	0.644451	0.262566	-0.000018
C22	C	0.607951	0.158065	-0.000013
C23	C	1.062879	-0.050639	-0.000001
C24	C	1.060499	-0.176637	-0.000002
C25	C	1.058565	-0.278961	-0.000005
C26	C	1.056147	-0.407332	-0.000015
C27	C	1.220854	0.148808	-0.000010
C28	C	1.320159	0.151191	-0.000016
C29	C	1.051846	0.364352	-0.000017
C30	C	1.054227	0.490350	-0.000022
N31	N	1.057345	0.156841	0.235349
N32	N	1.057388	0.156864	-0.235365
C33	C	1.117795	0.079801	0.287393
C34	C	1.117800	0.079800	0.391496
C35	C	1.057359	0.156845	0.443554
C36	C	0.996903	0.233888	0.391503
C37	C	0.996894	0.233883	0.287402
C38	C	0.996928	0.233896	0.608483
C39	C	0.996938	0.233903	0.712592
C40	C	1.117834	0.079813	0.712578
C41	C	1.117825	0.079808	0.608476
C42	C	1.057370	0.156853	0.556433
H43	H	0.804315	-0.025241	-0.000003
H44	H	0.479684	0.343000	-0.000041
H45	H	0.310414	0.338958	-0.000022
F46	F	0.625907	-0.055420	0.000003
H47	H	0.516529	-0.032115	-0.000013
H48	H	0.947668	0.296614	0.245029
H49	H	0.598201	0.345838	-0.000019
H50	H	0.767482	0.349883	-0.000019
F51	F	0.338115	-0.062294	-0.000011
H52	H	1.167016	0.017067	0.245014
H53	H	1.167022	0.017068	0.433870
H54	H	1.167045	0.017078	0.566091
H55	H	1.167059	0.017081	0.754958
F56	F	0.932607	0.315903	0.767988
H57	H	0.947696	0.296630	0.566113
F58	F	0.932572	0.315881	0.446908
