data_functionalizedCrystal
_audit_creation_method	'MofGen! by Chris Wilmer'
_symmetry_space_group_name_H-M	'P1'
_symmetry_Int_Tables_number	1
_symmetry_cell_setting	triclinic
loop_
_symmetry_equiv_pos_as_xyz
  x,y,z
_cell_length_a	33.592126
_cell_length_b	33.591377
_cell_length_c	33.588093
_cell_angle_alpha	60.004089
_cell_angle_beta	60.008299
_cell_angle_gamma	59.994549
loop_
_atom_site_label
_atom_site_type_symbol
_atom_site_fract_x
_atom_site_fract_y
_atom_site_fract_z
O1	O	0.055297	-0.581666	0.486338
O2	O	0.020882	-0.452873	0.391864
O3	O	0.102445	-0.534352	0.391775
O4	O	-0.026266	-0.500187	0.486427
O5	O	0.129510	-0.507292	0.418747
O6	O	0.047947	-0.425814	0.418835
O7	O	0.082362	-0.554606	0.513309
Cu8	Cu	0.067626	-0.487739	0.468535
Cu9	Cu	0.035618	-0.519740	0.436638
O10	O	0.000799	-0.473128	0.513398
N11	N	0.090139	-0.465235	0.490972
N12	N	0.013110	-0.542249	0.414202
C13	C	0.124394	-0.431229	0.734914
C14	C	0.334265	-0.431145	0.524799
C15	C	0.124204	-0.431200	0.524965
C16	C	0.124184	-0.221175	0.524955
C17	C	0.158017	-0.322536	0.558710
C18	C	0.158027	-0.397406	0.558711
C19	C	0.176763	-0.378688	0.577408
C20	C	0.258412	-0.364594	0.534386
C21	C	0.309454	-0.381596	0.517340
C22	C	0.309485	-0.464188	0.548836
C23	C	0.258444	-0.447186	0.565883
C24	C	0.170304	-0.297002	0.508532
C25	C	0.153260	-0.245956	0.491537
C26	C	0.111648	-0.245983	0.574901
C27	C	0.128691	-0.297029	0.591896
C28	C	0.107841	-0.385091	0.571080
C29	C	0.090813	-0.402108	0.554078
C30	C	0.174153	-0.443755	0.512351
C31	C	0.191183	-0.426739	0.529347
C32	C	0.107923	-0.385106	0.659111
C33	C	0.090955	-0.402138	0.710156
C34	C	0.174335	-0.443795	0.710087
C35	C	0.191302	-0.426764	0.659041
C36	C	0.158095	-0.397418	0.633555
C37	C	0.232909	-0.397388	0.558656
C38	C	0.105069	-0.449619	0.791057
C39	C	0.390406	-0.449193	0.505789
C40	C	0.104813	-0.449599	0.506607
C41	C	0.105125	-0.165028	0.506915
C42	C	-0.020560	-0.576246	0.169890
C43	C	-0.020889	-0.786183	0.379970
C44	C	-0.020859	-0.576235	0.380063
C45	C	-0.230772	-0.576015	0.379658
C46	C	-0.129417	-0.609898	0.346025
C47	C	-0.054587	-0.609979	0.346172
C48	C	-0.073269	-0.628671	0.327396
C49	C	-0.087401	-0.710299	0.370335
C50	C	-0.070424	-0.761345	0.387369
C51	C	0.012165	-0.761428	0.356003
C52	C	-0.004813	-0.710383	0.338967
C53	C	-0.155001	-0.622196	0.396191
C54	C	-0.206043	-0.605128	0.413125
C55	C	-0.205914	-0.563467	0.329724
C56	C	-0.154872	-0.580535	0.312790
C57	C	-0.066886	-0.559797	0.333828
C58	C	-0.049903	-0.542809	0.350903
C59	C	-0.008321	-0.626180	0.392654
C60	C	-0.025304	-0.643170	0.375585
C61	C	-0.066758	-0.559805	0.245702
C62	C	-0.049671	-0.542819	0.194658
C63	C	-0.008026	-0.626194	0.194706
C64	C	-0.025111	-0.643179	0.245752
C65	C	-0.054479	-0.609983	0.271248
C66	C	-0.054597	-0.684821	0.346135
C67	C	-0.002109	-0.556901	0.113746
C68	C	-0.002869	-0.842328	0.398966
C69	C	-0.002496	-0.556887	0.398501
C70	C	-0.286914	-0.556929	0.397631
N71	N	0.436349	-0.465146	0.490703
O72	O	0.592194	-0.469605	0.374236
O73	O	0.592389	-0.564393	0.502890
O74	O	0.592305	-0.564176	0.421300
O75	O	0.592277	-0.469822	0.455826
O76	O	0.511216	-0.537214	0.448415
O77	O	0.511300	-0.537431	0.530004
O78	O	0.511104	-0.442643	0.401350
Cu79	Cu	0.503798	-0.487575	0.468153
Cu80	Cu	0.599695	-0.519461	0.436087
O81	O	0.511188	-0.442860	0.482940
N82	N	0.667145	-0.541890	0.413532
N83	N	0.090108	-0.119085	0.490958
O84	O	-0.026275	0.036848	0.486394
O85	O	0.102381	0.036888	0.391584
O86	O	0.020751	0.036852	0.391854
O87	O	0.055356	0.036884	0.486124
O88	O	0.047821	-0.044242	0.418876
O89	O	0.129452	-0.044207	0.418606
O90	O	0.000796	-0.044246	0.513417
Cu91	Cu	0.067596	-0.051631	0.468479
Cu92	Cu	0.035582	0.044273	0.436522
O93	O	0.082426	-0.044211	0.513146
N94	N	0.013063	0.111726	0.414043
N95	N	0.090453	-0.465282	0.837001
O96	O	0.085913	-0.581648	0.992925
O97	O	-0.008857	-0.452947	0.992970
O98	O	-0.008635	-0.534562	0.992946
O99	O	0.085691	-0.500033	0.992949
O100	O	0.018365	-0.507512	0.911855
O101	O	0.018143	-0.425898	0.911878
O102	O	0.112912	-0.554598	0.911834
Cu103	Cu	0.067993	-0.487778	0.904452
Cu104	Cu	0.036063	-0.519767	1.000352
O105	O	0.112691	-0.472984	0.911857
N106	N	0.013602	-0.542269	1.067803
C107	C	0.031188	-0.423114	0.392334
C108	C	0.132194	-0.524016	0.392223
C109	C	0.072056	-0.584366	0.512840
C110	C	-0.028950	-0.483464	0.512950
C111	C	0.551868	-0.563965	0.532655
C112	C	0.551766	-0.563697	0.431617
C113	C	0.551623	-0.443070	0.371586
C114	C	0.551728	-0.443339	0.472623
C115	C	0.132090	-0.003555	0.392006
C116	C	0.031035	-0.003698	0.392374
C117	C	-0.028947	-0.003703	0.512961
C118	C	0.072143	-0.003661	0.512626
C119	C	-0.008408	-0.423209	0.952430
C120	C	-0.008128	-0.524272	0.952385
C121	C	0.112464	-0.584336	0.952374
C122	C	0.112190	-0.483267	0.952401
H123	H	0.050098	-0.392105	0.730957
H124	H	0.551722	-0.413701	0.480010
H125	H	-0.065919	-0.476185	0.542670
C126	C	0.210629	-0.476020	0.480050
C127	C	0.247386	-0.525248	0.499546
C128	C	0.283864	-0.557511	0.467242
C129	C	0.283585	-0.540544	0.415443
C130	C	0.246827	-0.491313	0.395945
C131	C	0.210348	-0.459051	0.428249
H132	H	0.247593	-0.537810	0.537892
H133	H	0.311075	-0.593955	0.481676
H134	H	0.310588	-0.564427	0.391530
H135	H	0.246619	-0.478751	0.357599
H136	H	0.183138	-0.422607	0.413815
C137	C	0.082152	-0.003652	0.552641
C138	C	0.078710	-0.045766	0.601686
C139	C	0.088718	-0.045757	0.641700
C140	C	0.102169	-0.003636	0.632669
C141	C	0.105611	0.038481	0.583621
C142	C	0.095603	0.038472	0.543607
H143	H	0.068752	-0.076949	0.608374
H144	H	0.086170	-0.076935	0.678009
H145	H	0.109578	-0.003630	0.662290
H146	H	0.115569	0.069664	0.576933
H147	H	0.098151	0.069650	0.507298
H148	H	0.168963	-0.003318	0.362168
C149	C	0.081986	-0.634346	0.552928
C150	C	0.078496	-0.637739	0.601958
C151	C	0.088426	-0.687719	0.642046
C152	C	0.101846	-0.734307	0.633105
C153	C	0.105337	-0.730915	0.584073
C154	C	0.095407	-0.680935	0.543985
H155	H	0.068561	-0.603251	0.608578
H156	H	0.085841	-0.690230	0.678343
H157	H	0.109196	-0.771305	0.662781
H158	H	0.115272	-0.765403	0.577452
H159	H	0.097991	-0.678424	0.507688
C160	C	-0.078860	-0.003716	0.553173
C161	C	-0.097382	-0.045839	0.572403
C162	C	-0.147295	-0.045853	0.612614
C163	C	-0.178686	-0.003743	0.633595
C164	C	-0.160164	0.038383	0.614365
C165	C	-0.110251	0.038396	0.574154
H166	H	-0.074144	-0.077014	0.556871
H167	H	-0.161006	-0.077037	0.626849
H168	H	-0.215635	-0.003753	0.663362
H169	H	-0.183402	0.069558	0.629897
H170	H	-0.096540	0.069581	0.559919
H171	H	0.169160	-0.531297	0.362501
H172	H	-0.037749	-0.531650	0.952352
H173	H	-0.038161	-0.386246	0.952443
H174	H	0.023834	-0.386116	0.362662
H175	H	0.023621	-0.003702	0.362756
C176	C	0.551941	-0.604168	0.582571
C177	C	0.594087	-0.653197	0.585845
C178	C	0.594159	-0.693400	0.635761
C179	C	0.552086	-0.684575	0.682402
C180	C	0.509937	-0.635544	0.679130
C181	C	0.509864	-0.595341	0.629215
H182	H	0.625235	-0.659731	0.551316
H183	H	0.625361	-0.729696	0.638183
H184	H	0.552140	-0.714336	0.719353
H185	H	0.478789	-0.629009	0.713659
H186	H	0.478662	-0.559045	0.626792
C187	C	0.152226	-0.473288	0.952393
C188	C	0.201262	-0.476763	0.910273
C189	C	0.241298	-0.466785	0.910266
C190	C	0.232300	-0.453332	0.952379
C191	C	0.183262	-0.449856	0.994502
C192	C	0.143226	-0.459835	0.994509
H193	H	0.207925	-0.486723	0.879096
H194	H	0.277599	-0.469358	0.879084
H195	H	0.261937	-0.445945	0.952373
H196	H	0.176599	-0.439897	1.025679
H197	H	0.106925	-0.457262	1.025691
H198	H	0.232159	-0.436796	0.638236
H199	H	0.142219	-0.621297	0.952354
H200	H	0.080878	-0.361206	0.638363
C201	C	-0.011767	-0.698368	0.389139
C202	C	0.042140	-0.730447	0.374349
C203	C	0.055683	-0.785643	0.387893
C204	C	0.015318	-0.808761	0.416227
C205	C	-0.038593	-0.776682	0.431019
C206	C	-0.052136	-0.721485	0.417475
H207	H	0.072023	-0.713334	0.353373
H208	H	0.095591	-0.809390	0.376943
H209	H	0.025343	-0.849621	0.426253
H210	H	-0.068476	-0.793795	0.451995
H211	H	-0.092044	-0.697738	0.428425
H212	H	0.551560	-0.413310	0.334638
C213	C	0.210866	-0.476067	0.738117
C214	C	0.247586	-0.456519	0.731065
C215	C	0.284118	-0.488792	0.759095
C216	C	0.283930	-0.540614	0.794177
C217	C	0.247209	-0.560165	0.801231
C218	C	0.210676	-0.527892	0.773201
H219	H	0.247726	-0.418154	0.705094
H220	H	0.311302	-0.474318	0.753874
H221	H	0.310974	-0.564504	0.814927
H222	H	0.247068	-0.598529	0.827202
H223	H	0.183493	-0.542365	0.778422
C224	C	0.071367	-0.352823	0.603377
C225	C	0.034679	-0.372371	0.652622
C226	C	-0.001796	-0.340104	0.684921
C227	C	-0.001583	-0.288288	0.667974
C228	C	0.035106	-0.268737	0.618726
C229	C	0.071581	-0.301004	0.586427
H230	H	0.034521	-0.410731	0.665169
H231	H	-0.028956	-0.354577	0.721378
H232	H	-0.028584	-0.264401	0.691883
H233	H	0.035265	-0.230377	0.606179
H234	H	0.098741	-0.286531	0.549971
H235	H	0.551779	-0.593338	0.424228
H236	H	-0.059919	-0.501948	0.340854
C237	C	0.035609	-0.388566	0.567678
C238	C	0.003606	-0.403442	0.621599
C239	C	-0.051597	-0.389901	0.635198
C240	C	-0.074797	-0.361484	0.594875
C241	C	-0.042794	-0.346606	0.540951
C242	C	0.012409	-0.360147	0.527352
H243	H	0.020780	-0.424480	0.651451
H244	H	-0.075287	-0.400915	0.675117
H245	H	-0.115662	-0.351460	0.604942
H246	H	-0.059968	-0.325568	0.511098
H247	H	0.036099	-0.349133	0.487433
C248	C	0.246394	-0.440255	0.515682
C249	C	0.269490	-0.399862	0.487221
C250	C	0.324703	-0.413366	0.473526
C251	C	0.356821	-0.467264	0.488292
C252	C	0.333725	-0.507661	0.516754
C253	C	0.278512	-0.494157	0.530449
H254	H	0.245715	-0.359960	0.476289
H255	H	0.341800	-0.383461	0.452456
H256	H	0.397693	-0.477261	0.478154
H257	H	0.357501	-0.547563	0.527686
H258	H	0.261415	-0.524062	0.551519
C259	C	0.230389	-0.483261	0.592579
C260	C	0.174245	-0.464562	0.611332
C261	C	0.146190	-0.500637	0.638029
C262	C	0.174280	-0.555412	0.645972
C263	C	0.230427	-0.574114	0.627218
C264	C	0.258482	-0.538038	0.600522
H265	H	0.153448	-0.424012	0.605453
H266	H	0.104626	-0.486792	0.651912
H267	H	0.153512	-0.582117	0.665735
H268	H	0.251223	-0.614664	0.633098
H269	H	0.300046	-0.551883	0.586639
C270	C	0.337508	-0.345521	0.490639
C271	C	0.330508	-0.314500	0.516734
C272	C	0.358563	-0.278423	0.490031
C273	C	0.393616	-0.273368	0.437234
C274	C	0.400617	-0.304389	0.411137
C275	C	0.372563	-0.340466	0.437840
H276	H	0.304558	-0.318242	0.555819
H277	H	0.353380	-0.255459	0.509350
H278	H	0.414383	-0.246661	0.417468
H279	H	0.426567	-0.300648	0.372051
H280	H	0.377746	-0.363430	0.418521
C281	C	0.230325	-0.309817	0.526437
C282	C	0.237298	-0.272696	0.474354
C283	C	0.209210	-0.217918	0.466405
C284	C	0.174148	-0.200260	0.510539
C285	C	0.167172	-0.237382	0.562626
C286	C	0.195261	-0.292160	0.570575
H287	H	0.263255	-0.285767	0.441680
H288	H	0.214374	-0.190438	0.427847
H289	H	0.153355	-0.159710	0.504655
H290	H	0.141216	-0.224311	0.595299
H291	H	0.190097	-0.319640	0.609133
H292	H	0.330277	-0.504737	0.554712
H293	H	0.194180	-0.317769	0.481510
H294	H	0.087777	-0.225214	0.601924
C295	C	0.166775	-0.217864	0.436338
C296	C	0.199035	-0.245921	0.399835
C297	C	0.212551	-0.217830	0.344636
C298	C	0.193808	-0.161682	0.325941
C299	C	0.161546	-0.133622	0.362444
C300	C	0.148030	-0.161713	0.417643
H301	H	0.212911	-0.287488	0.413674
H302	H	0.236433	-0.238602	0.317614
H303	H	0.203814	-0.140887	0.285079
H304	H	0.147669	-0.092055	0.348605
H305	H	0.124147	-0.140941	0.444665
H306	H	0.118680	-0.317820	0.632757
H307	H	-0.090673	-0.532769	0.266460
C308	C	-0.063189	-0.487618	0.166563
C309	C	-0.095494	-0.451108	0.194612
C310	C	-0.109011	-0.395908	0.166515
C311	C	-0.090223	-0.377219	0.110369
C312	C	-0.057915	-0.413731	0.082317
C313	C	-0.044398	-0.468930	0.110414
H314	H	-0.109404	-0.464942	0.236177
H315	H	-0.132927	-0.368880	0.187281
H316	H	-0.100229	-0.336358	0.089570
H317	H	-0.044005	-0.399897	0.040752
H318	H	-0.020482	-0.495958	0.089648
H319	H	-0.015108	-0.684041	0.266548
C320	C	0.024268	-0.662711	0.166665
C321	C	0.073460	-0.699480	0.173772
C322	C	0.105755	-0.735999	0.145730
C323	C	0.088857	-0.735751	0.110582
C324	C	0.039662	-0.698981	0.103473
C325	C	0.007367	-0.662462	0.131515
H326	H	0.085971	-0.699665	0.199792
H327	H	0.142172	-0.763218	0.150993
H328	H	0.112763	-0.762785	0.089824
H329	H	0.027151	-0.698796	0.077453
H330	H	-0.029050	-0.635242	0.126252
C331	C	0.023905	-0.662699	0.424991
C332	C	0.075718	-0.662521	0.408111
C333	C	0.107949	-0.699044	0.440444
C334	C	0.088366	-0.735746	0.489657
C335	C	0.036550	-0.735925	0.506539
C336	C	0.004319	-0.699402	0.474206
H337	H	0.090217	-0.635351	0.371679
H338	H	0.146307	-0.698911	0.427947
H339	H	0.112225	-0.762783	0.513591
H340	H	0.022051	-0.763095	0.542971
H341	H	-0.034039	-0.699535	0.486704
C342	C	0.031274	-0.682355	0.312348
C343	C	0.012602	-0.626207	0.293607
C344	C	0.048689	-0.598179	0.266986
C345	C	0.103448	-0.626299	0.259108
C346	C	0.122123	-0.682449	0.277850
C347	C	0.086036	-0.710477	0.304470
H348	H	-0.027936	-0.605388	0.299439
H349	H	0.034865	-0.556612	0.253112
H350	H	0.130162	-0.605551	0.239402
H351	H	0.162662	-0.703268	0.272018
H352	H	0.099860	-0.752044	0.318344
C353	C	-0.106509	-0.789374	0.413992
C354	C	-0.161270	-0.761256	0.421879
C355	C	-0.197355	-0.789287	0.448503
C356	C	-0.178680	-0.845434	0.467239
C357	C	-0.123917	-0.873555	0.459353
C358	C	-0.087831	-0.845525	0.432729
H359	H	-0.175096	-0.719690	0.408009
H360	H	-0.237895	-0.768470	0.454341
H361	H	-0.205393	-0.866184	0.486948
H362	H	-0.110090	-0.915122	0.473223
H363	H	-0.047292	-0.866342	0.426891
H364	H	-0.090726	-0.532768	0.309877
H365	H	0.052703	-0.782242	0.350169
H366	H	-0.127938	-0.689491	0.376175
H367	H	-0.226875	-0.615140	0.453976
C368	C	-0.127000	-0.654492	0.432747
C369	C	-0.155143	-0.668012	0.487931
C370	C	-0.127142	-0.700307	0.524489
C371	C	-0.070998	-0.719083	0.505864
C372	C	-0.042852	-0.705563	0.450678
C373	C	-0.070853	-0.673267	0.414120
H374	H	-0.196707	-0.654113	0.501720
H375	H	-0.147978	-0.710315	0.565341
H376	H	-0.050270	-0.742990	0.532926
H377	H	-0.001288	-0.719461	0.436888
H378	H	-0.050016	-0.663259	0.373267
H379	H	-0.226640	-0.539563	0.302661
H380	H	-0.134040	-0.570516	0.271939
