data_functionalizedCrystal
_audit_creation_method	'MofGen! by Chris Wilmer'
_symmetry_space_group_name_H-M	'P1'
_symmetry_Int_Tables_number	1
_symmetry_cell_setting	triclinic
loop_
_symmetry_equiv_pos_as_xyz
  x,y,z
_cell_length_a	29.839131
_cell_length_b	12.759401
_cell_length_c	12.759393
_cell_angle_alpha	90.019426
_cell_angle_beta	89.967235
_cell_angle_gamma	89.960148
loop_
_atom_site_label
_atom_site_type_symbol
_atom_site_fract_x
_atom_site_fract_y
_atom_site_fract_z
Zn1	Zn	-0.178853	-1.606057	-0.593995
Zn2	Zn	0.321147	-1.106057	-0.093995
Zn3	Zn	-0.253991	-1.605869	-0.418309
Zn4	Zn	0.246009	-1.105869	0.081691
Zn5	Zn	-0.178873	-1.430359	-0.418331
Zn6	Zn	0.321127	-0.930359	0.081669
Zn7	Zn	-0.253955	-1.430265	-0.593947
Zn8	Zn	0.246045	-0.930265	-0.093947
O9	O	-0.216418	-1.518137	-0.506146
O10	O	0.283582	-1.018137	-0.006146
O11	O	-0.188827	-1.753053	-0.570701
O12	O	0.311173	-1.253053	-0.070701
O13	O	-0.244049	-1.582548	-0.271291
O14	O	0.255951	-1.082548	0.228709
O15	O	-0.116003	-1.453784	-0.441663
O16	O	0.383997	-0.953784	0.058337
O17	O	-0.244030	-1.752915	-0.441625
O18	O	0.255970	-1.252915	0.058375
O19	O	-0.115989	-1.582868	-0.570723
O20	O	0.384011	-1.082868	-0.070723
O21	O	-0.188861	-1.453602	-0.271307
O22	O	0.311139	-0.953602	0.228693
O23	O	-0.188826	-1.283326	-0.441616
O24	O	0.311174	-0.783326	0.058384
O25	O	-0.243969	-1.453623	-0.740975
O26	O	0.256031	-0.953623	-0.240975
O27	O	-0.243988	-1.283256	-0.570640
O28	O	0.256012	-0.783256	-0.070640
O29	O	-0.188792	-1.582777	-0.741010
O30	O	0.311208	-1.082777	-0.241010
O31	O	-0.316853	-1.582456	-0.441578
O32	O	0.183147	-1.082456	0.058422
O33	O	-0.316826	-1.453441	-0.570619
O34	O	0.183174	-0.953441	-0.070619
C35	C	-0.216405	-1.245170	-0.506126
C36	C	0.283595	-0.745170	-0.006126
C37	C	-0.216411	-1.128393	-0.506143
C38	C	0.283589	-0.628393	-0.006143
C39	C	-0.245179	-1.073523	-0.573214
C40	C	0.254821	-0.573523	-0.073214
C41	C	-0.245183	-0.963799	-0.573223
C42	C	0.254817	-0.463799	-0.073223
C43	C	-0.187650	-0.963826	-0.439082
C44	C	0.312350	-0.463826	0.060918
C45	C	-0.187644	-1.073548	-0.439079
C46	C	0.312356	-0.573548	0.060921
C47	C	-0.278397	-1.073506	-0.650656
C48	C	0.221603	-0.573506	-0.150656
C49	C	-0.278401	-0.963782	-0.650665
C50	C	0.221599	-0.463782	-0.150665
C51	C	-0.333140	-1.517946	-0.506113
C52	C	0.166860	-1.017946	-0.006113
C53	C	-0.383075	-1.517961	-0.506135
C54	C	0.116925	-1.017961	-0.006135
C55	C	-0.739664	-1.451002	-0.573333
C56	C	-0.239664	-0.951002	-0.073333
C57	C	-0.551991	-1.450863	-0.573300
C58	C	-0.051991	-0.950863	-0.073300
O59	O	-0.527728	-1.393704	-0.630414
O60	O	-0.027728	-0.893704	-0.130414
N61	N	-0.528520	-1.518072	-0.506166
N62	N	-0.028520	-1.018072	-0.006166
C63	C	-0.551970	-1.585325	-0.439041
C64	C	-0.051970	-1.085325	0.060959
O65	O	-0.527701	-1.642494	-0.381946
O66	O	-0.027701	-1.142494	0.118054
C67	C	-0.739642	-1.585468	-0.439080
C68	C	-0.239642	-1.085468	0.060920
C69	C	-0.763111	-1.518248	-0.506210
C70	C	-0.263111	-1.018248	-0.006210
C71	C	-0.763132	-1.383788	-0.640458
C72	C	-0.263132	-0.883788	-0.140458
C73	C	-0.810048	-1.383820	-0.640462
C74	C	-0.310048	-0.883820	-0.140462
C75	C	-0.833495	-1.451065	-0.573340
C76	C	-0.333495	-0.951065	-0.073340
C77	C	-0.810026	-1.518279	-0.506214
C78	C	-0.310026	-1.018279	-0.006214
C79	C	-0.763092	-1.652725	-0.371961
C80	C	-0.263092	-1.152725	0.128039
C81	C	-0.810013	-1.652757	-0.371978
C82	C	-0.310013	-1.152757	0.128022
C83	C	-0.833481	-1.585537	-0.439109
C84	C	-0.333481	-1.085537	0.060891
C85	C	-0.880389	-1.585556	-0.439095
C86	C	-0.380389	-1.085556	0.060905
N87	N	-0.903860	-1.518347	-0.506228
N88	N	-0.403860	-1.018347	-0.006228
C89	C	-0.880413	-1.451102	-0.573351
C90	C	-0.380413	-0.951102	-0.073351
C91	C	-0.453440	-1.585243	-0.439024
C92	C	0.046560	-1.085243	0.060976
C93	C	-0.406522	-1.585206	-0.439012
C94	C	0.093478	-1.085206	0.060988
C95	C	-0.406546	-1.450746	-0.573273
C96	C	0.093454	-0.950746	-0.073273
C97	C	-0.453464	-1.450778	-0.573278
C98	C	0.046536	-0.950778	-0.073278
C99	C	-0.476910	-1.518035	-0.506157
C100	C	0.023090	-1.018035	-0.006157
C101	C	-0.978938	-1.451172	-0.573352
C102	C	-0.478938	-0.951172	-0.073352
C103	C	-1.025858	-1.451206	-0.573347
C104	C	-0.525858	-0.951206	-0.073347
C105	C	-1.025830	-1.585670	-0.439091
C106	C	-0.525830	-1.085670	0.060909
C107	C	-0.978915	-1.585632	-0.439092
C108	C	-0.478915	-1.085632	0.060908
C109	C	-0.955470	-1.518380	-0.506231
C110	C	-0.455470	-1.018380	-0.006231
O111	O	-0.904681	-1.642693	-0.382019
O112	O	-0.404681	-1.142693	0.117981
O113	O	-0.904690	-1.393958	-0.630453
O114	O	-0.404690	-0.893958	-0.130453
C115	C	-0.692748	-1.450971	-0.573329
C116	C	-0.192748	-0.950971	-0.073329
C117	C	-0.669280	-1.518185	-0.506203
C118	C	-0.169280	-1.018185	-0.006203
C119	C	-0.692727	-1.585430	-0.439081
C120	C	-0.192727	-1.085430	0.060919
C121	C	-0.622362	-1.518148	-0.506192
C122	C	-0.122362	-1.018148	-0.006192
C123	C	-0.598915	-1.450903	-0.573314
C124	C	-0.098915	-0.950903	-0.073314
C125	C	-0.622386	-1.383694	-0.640448
C126	C	-0.122386	-0.883694	-0.140448
C127	C	-0.669301	-1.383726	-0.640451
C128	C	-0.169301	-0.883726	-0.140451
C129	C	-0.669256	-1.652639	-0.371947
C130	C	-0.169256	-1.152639	0.128053
C131	C	-0.622341	-1.652601	-0.371948
C132	C	-0.122341	-1.152601	0.128052
C133	C	-0.598894	-1.585356	-0.439071
C134	C	-0.098894	-1.085356	0.060929
C135	C	-0.099239	-1.518358	-0.506201
C136	C	0.400761	-1.018358	-0.006201
C137	C	-0.049305	-1.518452	-0.506225
C138	C	0.450695	-1.018452	-0.006225
C139	C	-0.216374	-1.518210	-0.780179
C140	C	0.283626	-1.018210	-0.280179
C141	C	-0.216356	-1.518241	-0.896956
C142	C	0.283644	-1.018241	-0.396956
C143	C	-0.216427	-0.792171	-0.506161
C144	C	0.283573	-0.292171	-0.006161
C145	C	-0.216421	-0.908947	-0.506156
C146	C	0.283579	-0.408947	-0.006156
C147	C	-0.187601	-1.585524	-1.061563
C148	C	0.312399	-1.085524	-0.561563
C149	C	-0.187620	-1.585499	-0.951839
C150	C	0.312380	-1.085499	-0.451839
C151	C	-0.245078	-1.451012	-0.951803
C152	C	0.254922	-0.951012	-0.451803
C153	C	-0.245062	-1.451043	-1.061525
C154	C	0.254938	-0.951043	-0.561525
C155	C	-0.154427	-1.663166	-1.061583
C156	C	0.345573	-1.163166	-0.561583
C157	C	-0.154445	-1.663141	-0.951859
C158	C	0.345555	-1.163141	-0.451859
C159	C	-0.216429	-1.518125	-0.233178
C160	C	0.283571	-1.018125	0.266822
C161	C	-0.216321	-1.518298	-0.116402
C162	C	0.283679	-1.018298	0.383598
H163	H	-0.265982	-0.929798	-0.728017
H164	H	0.234018	-0.429798	-0.228017
H165	H	-0.269119	-1.103324	-0.732064
H166	H	0.230881	-0.603324	-0.232064
Cl167	Cl	-0.103409	-1.618160	-1.114159
Cl168	Cl	0.396591	-1.118160	-0.614159
H169	H	-0.164228	-0.919157	-0.384482
H170	H	0.335772	-0.419157	0.115518
Cl171	Cl	-0.329414	-1.125974	-0.605540
Cl172	Cl	0.170586	-0.625974	-0.105540
H173	H	-0.313186	-0.933948	-0.628729
H174	H	0.186814	-0.433948	-0.128729
Cl175	Cl	-1.055358	-1.366695	-0.657746
Cl176	Cl	-0.555358	-0.866695	-0.157746
Cl177	Cl	-0.949472	-1.366623	-0.657755
Cl178	Cl	-0.449472	-0.866623	-0.157755
Cl179	Cl	-1.055315	-1.670208	-0.354718
Cl180	Cl	-0.555315	-1.170208	0.145282
H181	H	-0.829152	-1.329080	-0.695125
H182	H	-0.329152	-0.829080	-0.195125
Cl183	Cl	-0.733665	-1.299240	-0.724853
Cl184	Cl	-0.233665	-0.799240	-0.224853
H185	H	-0.472569	-1.396047	-0.627947
H186	H	0.027431	-0.896047	-0.127947
H187	H	-0.387447	-1.395990	-0.627925
H188	H	0.112553	-0.895990	-0.127925
H189	H	-0.387417	-1.639931	-0.384337
H190	H	0.112583	-1.139931	0.115663
Cl191	Cl	-0.482908	-1.669800	-0.354631
Cl192	Cl	0.017092	-1.169800	0.145369
Cl193	Cl	-0.100734	-1.629578	-0.905898
Cl194	Cl	0.399266	-1.129578	-0.405898
Cl195	Cl	-0.173698	-1.782429	-0.899308
Cl196	Cl	0.326302	-1.282429	-0.399308
H197	H	-0.743990	-1.707462	-0.317298
H198	H	-0.243990	-1.207462	0.182702
Cl199	Cl	-0.839485	-1.737315	-0.287593
Cl200	Cl	-0.339485	-1.237315	0.212407
Cl201	Cl	-0.949411	-1.670117	-0.354677
Cl202	Cl	-0.449411	-1.170117	0.145323
H203	H	-0.688405	-1.328989	-0.695117
H204	H	-0.188405	-0.828989	-0.195117
H205	H	-0.603236	-1.707337	-0.317274
H206	H	-0.103236	-1.207337	0.182726
Cl207	Cl	-0.592901	-1.299156	-0.724827
Cl208	Cl	-0.092901	-0.799156	-0.224827
Cl209	Cl	-0.151468	-1.142525	-0.354777
Cl210	Cl	0.348532	-0.642525	0.145223
Cl211	Cl	-0.698725	-1.737184	-0.287556
Cl212	Cl	-0.198725	-1.237184	0.212444
H213	H	-0.268452	-1.396311	-1.106171
H214	H	0.231548	-0.896311	-0.606171
Cl215	Cl	-0.281208	-1.366468	-0.882807
Cl216	Cl	0.218792	-0.866468	-0.382807
H217	H	-0.163743	-1.744528	-1.091359
H218	H	0.336257	-1.244528	-0.591359
