data_functionalizedCrystal
_audit_creation_method	'MofGen! by Chris Wilmer'
_symmetry_space_group_name_H-M	'P1'
_symmetry_Int_Tables_number	1
_symmetry_cell_setting	triclinic
loop_
_symmetry_equiv_pos_as_xyz
  x,y,z
_cell_length_a	13.032831
_cell_length_b	12.645323
_cell_length_c	13.032721
_cell_angle_alpha	97.153264
_cell_angle_beta	90.902885
_cell_angle_gamma	82.806191
loop_
_atom_site_label
_atom_site_type_symbol
_atom_site_fract_x
_atom_site_fract_y
_atom_site_fract_z
Zn1	Zn	1.520297	-0.873412	-0.609399
Zn2	Zn	2.020297	-0.373412	-0.109399
Zn3	Zn	1.498329	-0.715465	-0.781373
Zn4	Zn	1.998329	-0.215465	-0.281373
Zn5	Zn	1.348302	-0.671226	-0.587562
Zn6	Zn	1.848302	-0.171226	-0.087562
Zn7	Zn	1.326445	-0.867753	-0.759446
Zn8	Zn	1.826445	-0.367753	-0.259446
O9	O	1.423343	-0.781964	-0.684445
O10	O	1.923343	-0.281964	-0.184445
O11	O	1.661297	-0.873343	-0.650528
O12	O	2.161297	-0.373343	-0.150528
O13	O	1.478382	-0.561248	-0.755701
O14	O	1.978382	-0.061248	-0.255701
O15	O	1.389459	-0.681901	-0.446553
O16	O	1.889459	-0.181901	0.053447
O17	O	1.645158	-0.757300	-0.776876
O18	O	2.145158	-0.257300	-0.276876
O19	O	1.515822	-0.830447	-0.462597
O20	O	2.015822	-0.330447	0.037403
O21	O	1.368158	-0.528746	-0.613309
O22	O	1.868158	-0.028746	-0.113309
O23	O	1.201488	-0.676413	-0.592047
O24	O	1.701488	-0.176413	-0.092047
O25	O	1.352206	-1.016852	-0.739505
O26	O	1.852206	-0.516852	-0.239505
O27	O	1.185430	-0.820800	-0.718330
O28	O	1.685430	-0.320800	-0.218330
O29	O	1.494628	-1.021010	-0.629266
O30	O	1.994628	-0.521010	-0.129266
O31	O	1.457187	-0.751812	-0.922371
O32	O	1.957187	-0.251812	-0.422371
O33	O	1.330904	-0.863697	-0.906261
O34	O	1.830904	-0.363697	-0.406261
C35	C	1.156143	-0.743193	-0.650440
C36	C	1.656143	-0.243193	-0.150440
C37	C	1.041831	-0.726634	-0.635917
C38	C	1.541831	-0.226634	-0.135917
C39	C	1.423429	-1.058472	-0.684375
C40	C	1.923429	-0.558472	-0.184375
C41	C	1.423466	-1.176303	-0.684346
C42	C	1.923466	-0.676303	-0.184346
C43	C	0.982936	-0.790606	-0.692025
C44	C	1.482936	-0.290606	-0.192025
C45	C	0.864788	-0.773494	-0.677016
C46	C	1.364788	-0.273494	-0.177016
C47	C	1.333670	-1.341173	-0.753291
C48	C	1.833670	-0.841173	-0.253291
C49	C	1.333829	-1.218687	-0.753709
C50	C	1.833829	-0.718687	-0.253709
C51	C	1.528091	-1.239838	-0.727541
C52	C	2.028091	-0.739838	-0.227541
C53	C	1.527591	-1.362429	-0.727981
C54	C	2.027591	-0.862429	-0.227981
C55	C	1.409716	-1.327256	-0.571893
C56	C	1.909716	-0.827256	-0.071893
C57	C	1.407216	-1.204373	-0.572238
C58	C	1.907216	-0.704373	-0.072238
C59	C	1.691586	-0.820888	-0.718584
C60	C	2.191586	-0.320888	-0.218584
C61	C	1.805895	-0.837475	-0.733132
C62	C	2.305895	-0.337475	-0.233132
C63	C	1.389318	-0.811968	-0.951633
C64	C	1.889318	-0.311968	-0.451633
C65	C	1.374856	-0.824853	-1.065948
C66	C	1.874856	-0.324853	-0.565948
C67	C	1.423326	-0.506533	-0.684448
C68	C	1.923326	-0.006533	-0.184448
C69	C	1.423526	-0.388699	-0.684214
C70	C	1.923526	0.111301	-0.184214
C71	C	1.430946	-0.775295	-1.124857
C72	C	1.930946	-0.275295	-0.624857
C73	C	1.416000	-0.788611	-1.243009
C74	C	1.916000	-0.288611	-0.743009
C75	C	1.457529	-0.751870	-0.416218
C76	C	1.957529	-0.251870	0.083782
C77	C	1.472097	-0.739046	-0.301916
C78	C	1.972097	-0.239046	0.198084
H79	H	1.019983	-0.858047	-0.751169
H80	H	1.519983	-0.358047	-0.251169
Cl81	Cl	1.522179	-0.694574	-1.067685
Cl82	Cl	2.022179	-0.194574	-0.567685
H83	H	0.842936	-0.904923	-0.792278
H84	H	1.342936	-0.404923	-0.292278
Cl85	Cl	1.548149	-1.425651	-0.855382
Cl86	Cl	2.048149	-0.925651	-0.355382
H87	H	1.315775	-0.877144	-1.102986
H88	H	1.815775	-0.377144	-0.602986
Cl89	Cl	1.563334	-0.658318	-1.244751
Cl90	Cl	2.063334	-0.158318	-0.744751
Cl91	Cl	0.807606	-0.669371	-0.585684
Cl92	Cl	1.307606	-0.169371	-0.085684
H93	H	1.356914	-0.840906	-1.280042
H94	H	1.856914	-0.340906	-0.780042
H95	H	1.004785	-0.659200	-0.576766
H96	H	1.504785	-0.159200	-0.076766
H97	H	1.255393	-1.356914	-0.724812
H98	H	1.755393	-0.856914	-0.224812
Cl99	Cl	1.213379	-1.151027	-0.709509
Cl100	Cl	1.713379	-0.651027	-0.209509
H101	H	1.341550	-1.383620	-0.835747
H102	H	1.841550	-0.883620	-0.335747
H103	H	1.341823	-1.201084	-0.836692
H104	H	1.841823	-0.701084	-0.336692
H105	H	1.596070	-1.394815	-0.680599
H106	H	2.096070	-0.894815	-0.180599
H107	H	1.596234	-1.213273	-0.679425
H108	H	2.096234	-0.713273	-0.179425
H109	H	1.541916	-1.221449	-0.809276
H110	H	2.041916	-0.721449	-0.309276
H111	H	1.335480	-1.343891	-0.535208
H112	H	1.835480	-0.843891	-0.035208
H113	H	1.330288	-1.161219	-0.539915
H114	H	1.830288	-0.661219	-0.039915
H115	H	1.468981	-1.174577	-0.516942
H116	H	1.968981	-0.674577	-0.016942
H117	H	1.475331	-1.358062	-0.520258
H118	H	1.975331	-0.858062	-0.020258
