data_functionalizedCrystal
_audit_creation_method	'MofGen! by Chris Wilmer'
_symmetry_space_group_name_H-M	'P1'
_symmetry_Int_Tables_number	1
_symmetry_cell_setting	triclinic
loop_
_symmetry_equiv_pos_as_xyz
  x,y,z
_cell_length_a	29.839135
_cell_length_b	29.839131
_cell_length_c	10.686551
_cell_angle_alpha	94.410099
_cell_angle_beta	94.400108
_cell_angle_gamma	90.043950
loop_
_atom_site_label
_atom_site_type_symbol
_atom_site_fract_x
_atom_site_fract_y
_atom_site_fract_z
Zn1	Zn	0.706273	-0.159298	0.713579
Zn2	Zn	0.700422	-0.240203	0.502551
Zn3	Zn	0.625374	-0.165091	0.502573
Zn4	Zn	0.631101	-0.234408	0.713486
O5	O	0.665792	-0.199750	0.608047
O6	O	0.768365	-0.170032	0.685615
O7	O	0.685622	-0.235089	0.325970
O8	O	0.636157	-0.101454	0.530612
O9	O	0.764066	-0.229472	0.530573
O10	O	0.695593	-0.097198	0.685638
O11	O	0.630484	-0.179904	0.325986
O12	O	0.563265	-0.174284	0.530522
O13	O	0.645918	-0.219595	0.890083
O14	O	0.567473	-0.225212	0.685479
O15	O	0.701146	-0.164412	0.890151
O16	O	0.691175	-0.302303	0.530483
O17	O	0.640245	-0.298045	0.685457
C18	C	0.549068	-0.199748	0.607994
C19	C	0.499134	-0.199757	0.608000
C20	C	0.191730	-0.168840	0.688897
C21	C	0.004058	-0.168842	0.688933
O22	O	-0.018304	-0.142546	0.757654
N23	N	-0.021648	-0.199749	0.608094
C24	C	-0.000435	-0.230656	0.527234
O25	O	-0.026606	-0.256942	0.458468
C26	C	0.187237	-0.230652	0.527193
C27	C	0.212941	-0.199745	0.608046
C28	C	0.217435	-0.137935	0.769742
C29	C	0.264350	-0.137937	0.769737
C30	C	0.285561	-0.168842	0.688887
C31	C	0.259857	-0.199747	0.608041
C32	C	0.208449	-0.261556	0.446328
C33	C	0.255370	-0.261552	0.446323
C34	C	0.281075	-0.230645	0.527176
C35	C	0.327983	-0.230654	0.527186
N36	N	0.353689	-0.199746	0.608025
C37	C	0.332479	-0.168841	0.688875
C38	C	-0.098964	-0.230657	0.527263
C39	C	-0.145882	-0.230659	0.527275
C40	C	-0.141386	-0.168844	0.688972
C41	C	-0.094467	-0.168844	0.688966
C42	C	-0.073258	-0.199750	0.608102
C43	C	0.431004	-0.168846	0.688859
C44	C	0.477923	-0.168851	0.688851
C45	C	0.473423	-0.230665	0.527150
C46	C	0.426508	-0.230661	0.527162
C47	C	0.405300	-0.199748	0.608021
O48	O	0.350375	-0.256932	0.458491
O49	O	0.358657	-0.142552	0.757612
C50	C	0.144815	-0.168838	0.688902
C51	C	0.119111	-0.199742	0.608056
C52	C	0.140321	-0.230648	0.527206
C53	C	0.072193	-0.199744	0.608068
C54	C	0.050982	-0.168839	0.688918
C55	C	0.076689	-0.137931	0.769757
C56	C	0.123604	-0.137933	0.769752
C57	C	0.114615	-0.261556	0.446367
C58	C	0.067700	-0.261552	0.446379
C59	C	0.046489	-0.230646	0.527230
C60	C	0.665710	-0.316474	0.607985
C61	C	0.665716	-0.366408	0.608000
C62	C	0.692367	-0.678251	0.527471
C63	C	0.692424	-0.865923	0.527520
O64	O	0.715018	-0.892060	0.459002
N65	N	0.665888	-0.887189	0.608143
C66	C	0.639338	-0.861534	0.688765
O67	O	0.616773	-0.883929	0.757350
C68	C	0.639284	-0.673863	0.688721
C69	C	0.665819	-0.652600	0.608084
C70	C	0.718900	-0.656988	0.446841
C71	C	0.718883	-0.610073	0.446825
C72	C	0.692335	-0.584421	0.527438
C73	C	0.665802	-0.605685	0.608068
C74	C	0.612737	-0.648209	0.769349
C75	C	0.612727	-0.601289	0.769333
C76	C	0.639261	-0.580025	0.688696
C77	C	0.639237	-0.533119	0.688665
N78	N	0.665773	-0.511852	0.608042
C79	C	0.692322	-0.537504	0.527429
C80	C	0.639368	-0.960065	0.688780
C81	C	0.639381	-1.006982	0.688790
C82	C	0.692467	-1.011368	0.527546
C83	C	0.692452	-0.964449	0.527531
C84	C	0.665904	-0.938798	0.608157
C85	C	0.692285	-0.438979	0.527400
C86	C	0.692265	-0.392060	0.527387
C87	C	0.639181	-0.387678	0.688635
C88	C	0.639199	-0.434593	0.688644
C89	C	0.665755	-0.460243	0.608022
O90	O	0.616659	-0.506954	0.757156
O91	O	0.714892	-0.515101	0.458874
C92	C	0.692384	-0.725166	0.527487
C93	C	0.665851	-0.746430	0.608117
C94	C	0.639302	-0.720779	0.688730
C95	C	0.665864	-0.793348	0.608126
C96	C	0.692413	-0.818999	0.527513
C97	C	0.718949	-0.797733	0.446890
C98	C	0.718932	-0.750818	0.446874
C99	C	0.612767	-0.742045	0.769353
C100	C	0.612785	-0.788960	0.769362
C101	C	0.639333	-0.814612	0.688748
C102	C	0.782972	-0.199752	0.608102
C103	C	0.832907	-0.199753	0.608126
C104	C	0.674823	-0.190711	0.937183
C105	C	0.678672	-0.186859	1.077441
C106	C	0.665889	-0.082569	0.608138
C107	C	0.665930	-0.032634	0.608176
C108	C	0.656822	-0.208721	0.280192
C109	C	0.653061	-0.212446	0.139935
H110	H	0.046775	-0.286724	0.380541
C111	C	0.194111	-0.103935	0.858697
N112	N	0.176547	-0.078327	0.925712
H113	H	0.591173	-0.806269	0.835025
H114	H	0.714084	-1.032261	0.461908
H115	H	0.591148	-0.721163	0.835000
H116	H	-0.073541	-0.143677	0.754801
H117	H	0.703546	-0.162007	1.131246
C118	C	0.721643	-0.941064	0.438829
N119	N	0.743631	-0.923452	0.372016
H120	H	0.498850	-0.143683	0.754696
C121	C	0.407682	-0.134842	0.777815
N122	N	0.390116	-0.109233	0.844824
H123	H	-0.158663	-0.143679	0.754805
H124	H	0.617770	-1.024291	0.754441
C125	C	0.292619	-0.103931	0.858666
N126	N	0.313908	-0.078314	0.925645
C127	C	0.748069	-0.586690	0.358106
N128	N	0.770053	-0.569081	0.291275
C129	C	-0.174152	-0.264660	0.438337
N130	N	-0.195443	-0.290269	0.371338
H131	H	0.617594	-0.451907	0.754309
H132	H	-0.081700	-0.255826	0.461411
H133	H	0.059411	-0.112768	0.835593
H134	H	0.628192	-0.237301	1.086136
H135	H	0.187528	-0.286723	0.380487
H136	H	0.272636	-0.286719	0.380470
C137	C	0.398232	-0.264663	0.438232
N138	N	0.376938	-0.290272	0.371239
H139	H	0.144529	-0.112765	0.835591
C140	C	0.496764	-0.264656	0.438209
N141	N	0.514345	-0.290256	0.371208
C142	C	0.583548	-0.671588	0.858062
N143	N	0.561562	-0.689196	0.924888
C144	C	0.137940	-0.295558	0.357424
N145	N	0.155507	-0.321172	0.290431
C146	C	0.721454	-0.368673	0.438670
N147	N	0.743438	-0.351060	0.371849
C148	C	0.721495	-0.467186	0.438704
N149	N	0.743493	-0.488432	0.371891
H150	H	0.740521	-0.677868	0.381195
C151	C	0.748121	-0.727434	0.358161
N152	N	0.770106	-0.709825	0.291337
C153	C	0.609980	-0.359453	0.777310
N154	N	0.587990	-0.338192	0.844109
H155	H	0.617749	-0.939183	0.754438
H156	H	0.591109	-0.580406	0.834993
H157	H	0.740564	-0.818626	0.381248
