data_functionalizedCrystal
_audit_creation_method	'MofGen! by Chris Wilmer'
_symmetry_space_group_name_H-M	'P1'
_symmetry_Int_Tables_number	1
_symmetry_cell_setting	triclinic
loop_
_symmetry_equiv_pos_as_xyz
  x,y,z
_cell_length_a	19.121102
_cell_length_b	19.121411
_cell_length_c	19.121510
_cell_angle_alpha	90.220995
_cell_angle_beta	85.140415
_cell_angle_gamma	94.959226
loop_
_atom_site_label
_atom_site_type_symbol
_atom_site_fract_x
_atom_site_fract_y
_atom_site_fract_z
Zn1	Zn	1.107224	0.344565	-0.429609
Zn2	Zn	1.440557	0.677899	-0.096276
Zn3	Zn	1.773890	1.011232	0.237057
Zn4	Zn	1.106573	0.456970	-0.307351
Zn5	Zn	1.439907	0.790304	0.025983
Zn6	Zn	1.773240	1.123637	0.359316
Zn7	Zn	0.983982	0.334302	-0.307364
Zn8	Zn	1.317316	0.667636	0.025969
Zn9	Zn	1.650649	1.000969	0.359303
Zn10	Zn	0.994099	0.456749	-0.419974
Zn11	Zn	1.327432	0.790082	-0.086641
Zn12	Zn	1.660766	1.123416	0.246693
O13	O	1.047970	0.398147	-0.366074
O14	O	1.381303	0.731480	-0.032741
O15	O	1.714636	1.064813	0.300592
O16	O	1.205785	0.363864	-0.417418
O17	O	1.539119	0.697197	-0.084085
O18	O	1.872452	1.030531	0.249248
O19	O	1.085805	0.436496	-0.209059
O20	O	1.419138	0.769829	0.124274
O21	O	1.752472	1.103163	0.457608
O22	O	0.996369	0.237377	-0.327618
O23	O	1.329702	0.570711	0.005715
O24	O	1.663036	0.904044	0.339049
O25	O	1.205307	0.446448	-0.327595
O26	O	1.538641	0.779781	0.005738
O27	O	1.871974	1.113114	0.339071
O28	O	1.086914	0.244918	-0.417431
O29	O	1.420247	0.578251	-0.084098
O30	O	1.753581	0.911584	0.249235
O31	O	0.995738	0.346372	-0.209069
O32	O	1.329072	0.679705	0.124265
O33	O	1.662405	1.013039	0.457598
O34	O	0.886677	0.346157	-0.318275
O35	O	1.220010	0.679490	0.015058
O36	O	1.553343	1.012824	0.348392
O37	O	1.013611	0.446070	-0.519545
O38	O	1.346945	0.779403	-0.186212
O39	O	1.680278	1.112737	0.147121
O40	O	0.894109	0.436118	-0.401009
O41	O	1.227443	0.769451	-0.067676
O42	O	1.560776	1.102785	0.265658
O43	O	1.096724	0.363649	-0.526625
O44	O	1.430057	0.696982	-0.193291
O45	O	1.763390	1.030316	0.140042
O46	O	1.095615	0.555227	-0.318252
O47	O	1.428948	0.888561	0.015081
O48	O	1.762282	1.221894	0.348414
O49	O	1.012981	0.555065	-0.400996
O50	O	1.346314	0.888398	-0.067663
O51	O	1.679647	1.221731	0.265671
C52	C	0.864815	0.390000	-0.358598
C53	C	1.198148	0.723334	-0.025265
C54	C	1.531481	1.056667	0.308068
C55	C	0.786462	0.386533	-0.355416
C56	C	1.119795	0.719866	-0.022082
C57	C	1.453128	1.053200	0.311251
C58	C	1.055345	0.580632	-0.358593
C59	C	1.388678	0.913965	-0.025260
C60	C	1.722011	1.247299	0.308073
C61	C	1.058565	0.658704	-0.355419
C62	C	1.391899	0.992037	-0.022086
C63	C	1.725232	1.325371	0.311248
C64	C	1.056369	0.405980	-0.549284
C65	C	1.389702	0.739313	-0.215951
C66	C	1.723035	1.072646	0.117383
C67	C	1.059948	0.409318	-0.627357
C68	C	1.393281	0.742651	-0.294024
C69	C	1.726614	1.075984	0.039310
C70	C	0.753539	0.431807	-0.396923
C71	C	1.086872	0.765140	-0.063589
C72	C	1.420206	1.098473	0.269744
C73	C	0.679918	0.428540	-0.393936
C74	C	1.013251	0.761873	-0.060603
C75	C	1.346585	1.095206	0.272731
C76	C	0.639221	0.380002	-0.349439
C77	C	0.972554	0.713335	-0.016105
C78	C	1.305887	1.046668	0.317228
C79	C	0.672148	0.334723	-0.307930
C80	C	1.005482	0.668057	0.025403
C81	C	1.338815	1.001390	0.358736
C82	C	0.745768	0.337987	-0.310921
C83	C	1.079101	0.671321	0.022412
C84	C	1.412435	1.004654	0.355746
C85	C	0.416742	0.367796	-0.338261
C86	C	0.750075	0.701130	-0.004928
C87	C	1.083408	1.034463	0.328406
C88	C	0.343117	0.364537	-0.335272
C89	C	0.676450	0.697870	-0.001939
C90	C	1.009783	1.031204	0.331395
C91	C	0.350892	0.458353	-0.421279
C92	C	0.684225	0.791686	-0.087946
C93	C	1.017558	1.125019	0.245388
C94	C	0.424513	0.461616	-0.424263
C95	C	0.757846	0.794949	-0.090929
C96	C	1.091179	1.128282	0.242404
C97	C	0.457434	0.416335	-0.382757
C98	C	0.790767	0.749668	-0.049424
C99	C	1.124100	1.083001	0.283910
C100	C	0.563968	0.376663	-0.346383
C101	C	0.897301	0.709996	-0.013050
C102	C	1.230635	1.043329	0.320283
C103	C	0.532685	0.419671	-0.385817
C104	C	0.866019	0.753004	-0.052483
C105	C	1.199352	1.086338	0.280850
C106	C	1.231840	0.406325	-0.373580
C107	C	1.565173	0.739659	-0.040247
C108	C	1.898506	1.072992	0.293086
C109	C	1.310194	0.409811	-0.376779
C110	C	1.643527	0.743144	-0.043445
C111	C	1.976861	1.076477	0.289888
C112	C	1.078955	1.100266	-0.335289
C113	C	1.412288	1.433599	-0.001955
C114	C	1.745621	1.766932	0.331378
C115	C	1.075922	1.026909	-0.338273
C116	C	1.409256	1.360242	-0.004939
C117	C	1.742589	1.693575	0.328394
C118	C	1.031350	0.990171	-0.382809
C119	C	1.364683	1.323504	-0.049476
C120	C	1.698016	1.656837	0.283857
C121	C	0.989801	1.026793	-0.424359
C122	C	1.323135	1.360126	-0.091026
C123	C	1.656468	1.693459	0.242307
C124	C	0.992830	1.100148	-0.421371
C125	C	1.326164	1.433481	-0.088038
C126	C	1.659497	1.766815	0.245295
C127	C	1.020046	0.768681	-0.393981
C128	C	1.353380	1.102015	-0.060648
C129	C	1.686713	1.435348	0.272686
C130	C	1.017022	0.695321	-0.396968
C131	C	1.350355	1.028654	-0.063634
C132	C	1.683689	1.361988	0.269699
C133	C	1.103142	0.695442	-0.310879
C134	C	1.436476	1.028775	0.022454
C135	C	1.769809	1.362109	0.355787
C136	C	1.106171	0.768799	-0.307898
C137	C	1.439504	1.102132	0.025435
C138	C	1.772837	1.435466	0.358768
C139	C	1.064620	0.805415	-0.349446
C140	C	1.397953	1.138748	-0.016112
C141	C	1.731286	1.472081	0.317221
C142	C	1.028251	0.915188	-0.385862
C143	C	1.361584	1.248521	-0.052529
C144	C	1.694917	1.581855	0.280805
C145	C	1.067715	0.880396	-0.346389
C146	C	1.401049	1.213729	-0.013056
C147	C	1.734382	1.547062	0.320278
C148	C	1.040579	1.214950	-0.373608
C149	C	1.373912	1.548284	-0.040275
C150	C	1.707245	1.881617	0.293058
C151	C	1.037411	1.136883	-0.376837
C152	C	1.370744	1.470216	-0.043504
C153	C	1.704078	1.803550	0.289829
C154	C	1.039642	0.390295	-0.183581
C155	C	1.372975	0.723629	0.149752
C156	C	1.706308	1.056962	0.483085
C157	C	1.036191	0.386766	-0.105522
C158	C	1.369525	0.720099	0.227811
C159	C	1.702858	1.053432	0.561144
C160	C	1.014360	0.364378	0.335957
C161	C	1.347693	0.697711	0.669290
C162	C	1.681027	1.031044	1.002623
C163	C	1.017592	0.367712	0.262613
C164	C	1.350925	0.701046	0.595947
C165	C	1.684259	1.034379	0.929280
C166	C	1.066416	0.415984	0.225957
C167	C	1.399749	0.749317	0.559290
C168	C	1.733082	1.082651	0.892624
C169	C	1.112006	0.460929	0.262649
C170	C	1.445339	0.794262	0.595982
C171	C	1.778672	1.127596	0.929315
C172	C	1.108770	0.457597	0.335991
C173	C	1.442103	0.790930	0.669324
C174	C	1.775436	1.124264	1.002658
C175	C	1.078545	0.428379	0.004512
C176	C	1.411878	0.761712	0.337845
C177	C	1.745212	1.095045	0.671178
C178	C	1.081779	0.431706	-0.068836
C179	C	1.415112	0.765039	0.264497
C180	C	1.748446	1.098372	0.597831
C181	C	0.987364	0.338490	-0.068866
C182	C	1.320697	0.671823	0.264467
C183	C	1.654031	1.005156	0.597800
C184	C	0.984135	0.335159	0.004477
C185	C	1.317469	0.668492	0.337810
C186	C	1.650802	1.001826	0.671144
C187	C	1.029723	0.380106	0.041162
C188	C	1.363056	0.713440	0.374496
C189	C	1.696389	1.046773	0.707829
C190	C	1.069722	0.419392	0.150988
C191	C	1.403056	0.752726	0.484322
C192	C	1.736389	1.086059	0.817655
C193	C	1.026412	0.376701	0.116130
C194	C	1.359746	0.710034	0.449464
C195	C	1.693079	1.043368	0.782797
H196	H	0.786670	0.471334	-0.433155
H197	H	1.120003	0.804667	-0.099821
H198	H	1.453337	1.138000	0.233512
H199	H	1.151756	0.500236	0.232798
H200	H	1.485089	0.833570	0.566131
H201	H	1.818422	1.166903	0.899465
Cl202	Cl	0.291955	0.303518	-0.279323
Cl203	Cl	0.625288	0.636852	0.054011
Cl204	Cl	0.958622	0.970185	0.387344
H205	H	0.959005	1.129961	-0.455209
H206	H	1.292338	1.463294	-0.121875
H207	H	1.625672	1.796628	0.211458
H208	H	0.944376	0.295853	0.034318
H209	H	1.277709	0.629186	0.367651
H210	H	1.611043	0.962520	0.700984
H211	H	1.136970	0.665623	-0.277052
H212	H	1.470304	0.998956	0.056281
H213	H	1.803637	1.332290	0.389614
Cl214	Cl	0.952981	0.303686	0.382031
Cl215	Cl	1.286315	0.637020	0.715364
Cl216	Cl	1.619648	0.970353	1.048698
H217	H	1.115658	0.464985	0.034373
H218	H	1.448992	0.798319	0.367706
H219	H	1.782325	1.131652	0.701039
Cl220	Cl	1.166080	0.514099	0.382112
Cl221	Cl	1.499413	0.847432	0.715445
Cl222	Cl	1.832746	1.180765	1.048778
Cl223	Cl	0.930056	0.281991	-0.114989
Cl224	Cl	1.263389	0.615324	0.218344
Cl225	Cl	1.596722	0.948657	0.551678
Cl226	Cl	0.458119	0.310869	-0.286084
Cl227	Cl	0.791452	0.644203	0.047249
Cl228	Cl	1.124785	0.977536	0.380583
Cl229	Cl	0.965038	0.316017	0.162213
Cl230	Cl	1.298371	0.649350	0.495546
Cl231	Cl	1.631705	0.982683	0.828880
Cl232	Cl	1.123746	0.926582	-0.290401
Cl233	Cl	1.457079	1.259915	0.042933
Cl234	Cl	1.790413	1.593248	0.376266
Cl235	Cl	1.162210	0.814979	-0.251910
Cl236	Cl	1.495543	1.148313	0.081423
Cl237	Cl	1.828877	1.481646	0.414757
H238	H	0.991960	0.885270	-0.422126
H239	H	1.325293	1.218603	-0.088793
H240	H	1.658627	1.551936	0.244541
Cl241	Cl	0.933767	0.980607	-0.480349
Cl242	Cl	1.267100	1.313941	-0.147016
Cl243	Cl	1.600433	1.647274	0.186318
H244	H	1.109474	0.458696	0.121135
H245	H	1.442807	0.792029	0.454468
H246	H	1.776141	1.125363	0.787801
Cl247	Cl	0.638533	0.485458	-0.446119
Cl248	Cl	0.971866	0.818791	-0.112785
Cl249	Cl	1.305199	1.152125	0.220548
H250	H	0.457644	0.501142	-0.460495
H251	H	0.790977	0.834475	-0.127162
H252	H	1.124310	1.167808	0.206171
H253	H	0.324079	0.495217	-0.455072
H254	H	0.657412	0.828550	-0.121738
H255	H	0.990746	1.161884	0.211595
H256	H	0.639007	0.295200	-0.271703
H257	H	0.972340	0.628533	0.061631
H258	H	1.305673	0.961866	0.394964
Cl259	Cl	0.960247	0.311245	0.216499
Cl260	Cl	1.293581	0.644578	0.549832
Cl261	Cl	1.626914	0.977911	0.883166
Cl262	Cl	0.787157	0.281068	-0.258741
Cl263	Cl	1.120490	0.614401	0.074593
Cl264	Cl	1.453823	0.947734	0.407926
H265	H	0.565824	0.459187	-0.422049
H266	H	0.899157	0.792521	-0.088716
H267	H	1.232491	1.125854	0.244617
H268	H	1.121540	0.471015	-0.098679
H269	H	1.454874	0.804349	0.234654
H270	H	1.788207	1.137682	0.567987
H271	H	0.530824	0.337144	-0.310152
H272	H	0.864157	0.670478	0.023181
H273	H	1.197491	1.003811	0.356515
Cl274	Cl	1.134995	1.146444	-0.279300
Cl275	Cl	1.468329	1.479777	0.054033
Cl276	Cl	1.801662	1.813111	0.387367
H277	H	0.980724	0.665412	-0.433237
H278	H	1.314057	0.998745	-0.099904
H279	H	1.647390	1.332079	0.233429
Cl280	Cl	1.128159	0.980880	-0.286045
Cl281	Cl	1.461493	1.314213	0.047288
Cl282	Cl	1.794826	1.647546	0.380621
Cl283	Cl	0.967823	0.814704	-0.446225
Cl284	Cl	1.301156	1.148037	-0.112892
Cl285	Cl	1.634490	1.481370	0.220441
