data_functionalizedCrystal
_audit_creation_method	'MofGen! by Chris Wilmer'
_symmetry_space_group_name_H-M	'P1'
_symmetry_Int_Tables_number	1
_symmetry_cell_setting	triclinic
loop_
_symmetry_equiv_pos_as_xyz
  x,y,z
_cell_length_a	10.654551
_cell_length_b	10.654550
_cell_length_c	15.455313
_cell_angle_alpha	92.692163
_cell_angle_beta	87.293430
_cell_angle_gamma	84.485087
loop_
_atom_site_label
_atom_site_type_symbol
_atom_site_fract_x
_atom_site_fract_y
_atom_site_fract_z
O1	O	1.673297	0.170960	-0.072117
O2	O	1.307818	0.187764	-0.072121
O3	O	1.498960	-0.003377	-0.072116
O4	O	1.482155	0.362101	-0.072123
O5	O	1.488030	0.007508	0.072146
O6	O	1.296888	0.198649	0.072140
O7	O	1.662366	0.181844	0.072144
Cu8	Cu	1.478629	0.191241	0.085315
Cu9	Cu	1.491556	0.178368	-0.085292
O10	O	1.471224	0.372986	0.072139
C11	C	1.255555	0.191973	0.000009
C12	C	1.116112	0.188280	0.000008
C13	C	1.492261	-0.044733	0.000014
C14	C	1.488569	-0.184176	0.000011
C15	C	0.913622	0.188996	0.078646
C16	C	1.044642	0.192476	0.078646
C17	C	1.056554	0.180616	-0.078636
C18	C	0.925535	0.177144	-0.078636
C19	C	0.842160	0.193179	0.157289
C20	C	0.901709	0.200846	0.235933
C21	C	1.032729	0.204327	0.235934
C22	C	1.104201	0.200141	0.157290
C23	C	1.601111	-0.263661	0.000015
C24	C	1.597634	-0.394683	0.000008
C25	C	1.369066	-0.366721	-0.000002
C26	C	1.372544	-0.235702	-0.000002
C27	C	1.717136	-0.212135	0.000027
C28	C	1.829687	-0.291621	0.000032
C29	C	1.826211	-0.422643	0.000026
C30	C	1.710184	-0.474178	0.000015
C31	C	1.714629	0.177636	0.000012
C32	C	1.854073	0.181328	0.000008
C33	C	1.477923	0.414341	0.000007
C34	C	1.481615	0.553784	0.000005
N35	N	1.469546	0.200294	0.205310
N36	N	1.500648	0.169305	-0.205287
C37	C	1.550778	0.119121	0.250706
C38	C	1.543921	0.125979	0.341514
C39	C	1.455836	0.214017	0.386924
C40	C	1.374595	0.295194	0.341521
C41	C	1.381447	0.288329	0.250715
C42	C	1.426259	0.243616	0.658504
C43	C	1.419416	0.250478	0.749317
C44	C	1.588741	0.081261	0.749304
C45	C	1.595590	0.074408	0.658496
C46	C	1.514345	0.155580	0.613101
N47	N	1.448828	0.221032	0.479744
N48	N	1.521348	0.148558	0.520283
H49	H	0.735476	0.190344	0.157298
H50	H	1.622511	0.047436	0.213740
H51	H	1.210884	0.202990	0.157296
F52	F	1.252765	-0.151104	-0.000006
F53	F	1.096100	0.212501	0.319632
H54	H	1.302868	0.366873	0.378499
F55	F	0.862154	0.168988	-0.162331
F56	F	1.689341	-0.019290	0.610169
F57	F	1.945995	-0.507235	0.000022
H58	H	1.924153	-0.249654	0.000019
F59	F	0.825641	0.205315	0.319627
H60	H	1.274602	-0.408691	-0.000009
F61	F	1.339796	0.330008	0.610199
H62	H	1.610066	0.059881	0.378475
F63	F	1.675200	-0.005126	0.797621
H64	H	1.347683	0.322175	0.786285
H65	H	1.315298	0.354427	0.213754
H66	H	1.114756	0.177207	-0.142664
F67	F	1.720845	-0.072692	0.000036
H68	H	1.707364	-0.580866	0.000001
