data_functionalizedCrystal
_audit_creation_method	'MofGen! by Chris Wilmer'
_symmetry_space_group_name_H-M	'P1'
_symmetry_Int_Tables_number	1
_symmetry_cell_setting	triclinic
loop_
_symmetry_equiv_pos_as_xyz
  x,y,z
_cell_length_a	12.811439
_cell_length_b	11.892095
_cell_length_c	12.837942
_cell_angle_alpha	85.697431
_cell_angle_beta	90.588939
_cell_angle_gamma	91.497754
loop_
_atom_site_label
_atom_site_type_symbol
_atom_site_fract_x
_atom_site_fract_y
_atom_site_fract_z
O1	O	-1.403420	-0.049853	0.143153
O2	O	-0.903420	0.450147	0.643153
O3	O	-1.101351	-0.018888	0.156174
O4	O	-0.601351	0.481112	0.656174
O5	O	-1.245687	-0.033691	-0.001316
O6	O	-0.745687	0.466309	0.498684
O7	O	-1.259084	-0.035050	0.300643
O8	O	-0.759084	0.464950	0.800643
O9	O	-1.233650	-0.220464	0.011795
O10	O	-0.733650	0.279536	0.511795
O11	O	-1.089315	-0.205661	0.169285
O12	O	-0.589315	0.294339	0.669285
O13	O	-1.391383	-0.236626	0.156264
O14	O	-0.891383	0.263374	0.656264
Zn15	Zn	-1.238438	-0.250798	0.164856
Zn16	Zn	-0.738438	0.249202	0.664856
Zn17	Zn	-1.254296	-0.004716	0.147582
Zn18	Zn	-0.754296	0.495284	0.647582
O19	O	-1.247047	-0.221823	0.313754
O20	O	-0.747047	0.278177	0.813754
C21	C	-1.056401	-0.108284	0.161599
C22	C	-0.556401	0.391716	0.661599
C23	C	-0.940395	-0.096392	0.158218
C24	C	-0.440395	0.403608	0.658218
C25	C	-0.709283	-0.277688	0.166140
C26	C	-0.209283	0.222312	0.666140
C27	C	-0.600285	-0.266521	0.162963
C28	C	-0.100285	0.233479	0.662963
C29	C	-0.613399	-0.062890	0.148680
C30	C	-0.113399	0.437110	0.648680
C31	C	-0.722397	-0.074057	0.151857
C32	C	-0.222397	0.425943	0.651857
C33	C	-0.770335	-0.181460	0.160589
C34	C	-0.270335	0.318540	0.660589
C35	C	-0.879335	-0.192627	0.163773
C36	C	-0.379335	0.307373	0.663773
C37	C	-0.892447	0.011003	0.149483
C38	C	-0.392447	0.511003	0.649483
C39	C	-0.783449	0.022171	0.146306
C40	C	-0.283449	0.522171	0.646306
N41	N	-1.227622	-0.418743	0.176644
N42	N	-0.727622	0.081257	0.676644
C43	C	-1.340373	-0.666954	0.053696
C44	C	-0.840373	-0.166954	0.553696
C45	C	-1.332821	-0.784522	0.061944
C46	C	-0.832821	-0.284522	0.561944
C47	C	-1.204963	-0.771447	0.201382
C48	C	-0.704963	-0.271447	0.701382
C49	C	-1.212514	-0.653879	0.193134
C50	C	-0.712514	-0.153879	0.693134
C51	C	-1.280223	-0.601638	0.119290
C52	C	-0.780223	-0.101638	0.619290
C53	C	-1.287779	-0.484069	0.111048
C54	C	-0.787779	0.015931	0.611048
C55	C	-1.159916	-0.470995	0.250480
C56	C	-0.659916	0.029005	0.750480
C57	C	-1.152364	-0.588563	0.258728
C58	C	-0.652364	-0.088563	0.758728
C59	C	-0.436333	-0.147231	0.150843
C60	C	0.063667	0.352769	0.650843
C61	C	-0.552338	-0.159125	0.154235
C62	C	-0.052338	0.340875	0.654235
C63	C	-1.235143	-0.126613	-0.033433
C64	C	-0.735143	0.373387	0.466567
C65	C	-1.221647	-0.125228	-0.148666
C66	C	-0.721647	0.374772	0.351334
N67	N	-1.265119	0.163228	0.135785
N68	N	-0.765119	0.663228	0.635785
C69	C	-1.383905	-0.141837	-0.387757
C70	C	-0.883905	0.358163	0.112243
C71	C	-1.371229	-0.140536	-0.496029
C72	C	-0.871229	0.359464	0.003971
C73	C	-1.183618	-0.121315	-0.473484
C74	C	-0.683618	0.378685	0.026516
C75	C	-1.196295	-0.122617	-0.365212
C76	C	-0.696295	0.377383	0.134788
C77	C	-1.296441	-0.132880	-0.322353
C78	C	-0.796441	0.367120	0.177647
C79	C	-1.309117	-0.134189	-0.214078
C80	C	-0.809117	0.365811	0.285922
C81	C	-1.121508	-0.114961	-0.191536
C82	C	-0.621508	0.385039	0.308464
C83	C	-1.108831	-0.113659	-0.299808
C84	C	-0.608831	0.386341	0.200192
C85	C	-1.257591	-0.128899	0.345871
C86	C	-0.757591	0.371101	0.845871
C87	C	-1.271088	-0.130277	0.461103
C88	C	-0.771088	0.369723	0.961103
H89	H	-0.748314	-0.365140	0.173263
H90	H	-0.248314	0.134860	0.673263
H91	H	-1.465448	-0.150205	-0.352860
H92	H	-0.965448	0.349795	0.147140
H93	H	-0.550580	-0.344880	0.167489
H94	H	-0.050580	0.155120	0.667489
N95	N	-1.465563	-0.150195	-0.566575
N96	N	-0.965563	0.349805	-0.066575
H97	H	-1.530925	-0.156893	-0.522990
H98	H	-1.030925	0.343107	-0.022990
H99	H	-1.459932	-0.219314	-0.607132
H100	H	-0.959932	0.280686	-0.107132
N101	N	-1.397705	-0.854974	-0.008794
N102	N	-0.897705	-0.354974	0.491206
H103	H	-1.441745	-0.804035	-0.056820
H104	H	-0.941745	-0.304035	0.443180
H105	H	-1.444632	-0.908865	0.034925
H106	H	-0.944632	-0.408865	0.534925
H107	H	-1.102084	-0.112948	-0.508401
H108	H	-0.602084	0.387052	-0.008401
H109	H	-1.149829	-0.813997	0.261497
H110	H	-0.649829	-0.313997	0.761497
H111	H	-1.027295	-0.105299	-0.334720
H112	H	-0.527295	0.394701	0.165280
H113	H	-1.097234	-0.631111	0.318848
H114	H	-0.597234	-0.131111	0.818848
H115	H	-1.050288	-0.107676	-0.138271
H116	H	-0.550288	0.392324	0.361729
H117	H	-0.918364	-0.280080	0.170889
H118	H	-0.418364	0.219920	0.670889
H119	H	-0.574349	0.024553	0.141554
H120	H	-0.074349	0.524553	0.641554
H121	H	-1.390661	-0.142550	-0.179184
H122	H	-0.890661	0.357450	0.320816
N123	N	-0.731732	0.138002	0.136883
N124	N	-0.231732	0.638002	0.636883
H125	H	-0.684726	0.147383	0.199441
H126	H	-0.184726	0.647383	0.699441
H127	H	-0.787010	0.197201	0.133816
H128	H	-0.287010	0.697201	0.633816
N129	N	-0.958295	0.114802	0.143505
N130	N	-0.458295	0.614802	0.643505
H131	H	-1.034620	0.091433	0.146846
H132	H	-0.534620	0.591433	0.646846
H133	H	-0.944183	0.161008	0.075635
H134	H	-0.444183	0.661008	0.575635
H135	H	-1.342913	-0.441535	0.050923
H136	H	-0.842913	0.058465	0.550923
N137	N	-1.413392	-0.610580	-0.025937
N138	N	-0.913392	-0.110580	0.474063
H139	H	-1.487306	-0.638723	-0.011661
H140	H	-0.987306	-0.138723	0.488339
H141	H	-1.392666	-0.629072	-0.098273
H142	H	-0.892666	-0.129072	0.401727
N143	N	-1.095031	-0.400557	0.321240
N144	N	-0.595031	0.099443	0.821240
H145	H	-1.142591	-0.356325	0.364251
H146	H	-0.642591	0.143675	0.864251
H147	H	-1.048041	-0.346714	0.277542
H148	H	-0.548041	0.153286	0.777542
