data_functionalizedCrystal
_audit_creation_method	'MofGen! by Chris Wilmer'
_symmetry_space_group_name_H-M	'P1'
_symmetry_Int_Tables_number	1
_symmetry_cell_setting	triclinic
loop_
_symmetry_equiv_pos_as_xyz
  x,y,z
_cell_length_a	18.215407
_cell_length_b	18.215404
_cell_length_c	18.215399
_cell_angle_alpha	89.972485
_cell_angle_beta	89.980167
_cell_angle_gamma	90.024271
loop_
_atom_site_label
_atom_site_type_symbol
_atom_site_fract_x
_atom_site_fract_y
_atom_site_fract_z
Zn1	Zn	-1.125077	0.292983	0.416118
Zn2	Zn	-1.124988	0.416054	0.293053
Zn3	Zn	-1.002010	0.293007	0.293065
Zn4	Zn	-1.001978	0.416013	0.416078
O5	O	-1.063513	0.354514	0.354578
O6	O	-1.228050	0.309316	0.399805
O7	O	-1.108651	0.399759	0.190070
O8	O	-1.018386	0.190020	0.309411
O9	O	-1.227984	0.399736	0.309389
O10	O	-1.108803	0.190002	0.399817
O11	O	-1.018299	0.309357	0.190079
O12	O	-0.899021	0.309317	0.309372
O13	O	-1.018332	0.399666	0.519067
O14	O	-0.898998	0.399689	0.399748
O15	O	-1.108772	0.309276	0.519097
O16	O	-1.108620	0.519033	0.309350
O17	O	-1.018245	0.519003	0.399736
C18	C	-0.872307	0.354502	0.354557
C19	C	-0.790508	0.354514	0.354566
C20	C	-1.063439	0.545721	0.354553
C21	C	-1.063475	0.627520	0.354567
C22	C	-1.063558	0.354464	0.546531
C23	C	-1.063577	0.354442	0.628330
C24	C	-1.255466	0.354528	0.354600
C25	C	-1.337265	0.354533	0.354609
C26	C	-0.602321	0.401645	0.401566
C27	C	-0.525463	0.401647	0.401575
C28	C	-0.525457	0.307397	0.307607
C29	C	-0.602315	0.307392	0.307602
C30	C	-0.640745	0.354520	0.354581
C31	C	-0.487029	0.354528	0.354595
C32	C	-0.403695	0.354530	0.354604
C33	C	-0.724084	0.354517	0.354572
C34	C	-1.110647	0.815705	0.307600
C35	C	-1.110681	0.892563	0.307622
C36	C	-1.016492	0.892572	0.401663
C37	C	-1.016462	0.815715	0.401644
C38	C	-1.063539	0.777283	0.354609
C39	C	-1.063603	0.930999	0.354649
C40	C	-1.063640	1.014333	0.354673
C41	C	-1.063503	0.693944	0.354585
C42	C	-1.063613	1.162561	0.354633
C43	C	-1.063667	1.080763	0.354691
C44	C	-1.063511	0.354512	0.163372
C45	C	-1.063635	0.354326	0.081574
C46	C	-1.110687	0.307332	0.816541
C47	C	-1.110695	0.307311	0.893400
C48	C	-1.016520	0.401438	0.893358
C49	C	-1.016508	0.401455	0.816500
C50	C	-1.063596	0.354403	0.778094
C51	C	-1.063616	0.354365	0.931810
C52	C	-1.063625	0.354342	1.015144
C53	C	-1.063586	0.354425	0.694755
H54	H	-0.494182	0.440020	0.439836
H55	H	-0.978101	0.784430	0.439928
O56	O	-0.488011	0.261690	0.261997
C57	C	-0.369606	0.219891	0.220395
C58	C	-0.411920	0.271705	0.272073
H59	H	-0.308079	0.227960	0.228534
H60	H	-0.384633	0.232737	0.161013
H61	H	-0.384790	0.160574	0.233416
H62	H	-0.396759	0.331040	0.259119
H63	H	-0.396890	0.258797	0.331440
O64	O	-0.639734	0.447315	0.447240
C65	C	-0.726509	0.457327	0.546609
C66	C	-0.684201	0.405524	0.494914
H67	H	-0.762459	0.423559	0.585177
H68	H	-0.762514	0.495754	0.512796
H69	H	-0.685827	0.491023	0.580159
H70	H	-0.724830	0.371780	0.461353
H71	H	-0.648185	0.367146	0.528769
O72	O	-0.639530	0.261589	0.261888
C73	C	-0.631421	0.168075	0.168716
C74	C	-0.589183	0.219920	0.220432
H75	H	-0.590734	0.134361	0.135197
H76	H	-0.667357	0.201777	0.130127
H77	H	-0.667450	0.129667	0.202583
H78	H	-0.553114	0.258338	0.186625
H79	H	-0.553294	0.186172	0.259023
O80	O	-0.970864	0.447221	0.779067
C81	C	-0.960910	0.546624	0.692293
C82	C	-1.012682	0.494836	0.734627
H83	H	-0.994699	0.585144	0.656365
H84	H	-0.922452	0.512881	0.656262
H85	H	-0.927245	0.580220	0.732957
H86	H	-1.046395	0.461228	0.694016
H87	H	-1.051091	0.528621	0.770669
H88	H	-1.149026	0.269017	0.785273
O89	O	-1.156560	0.929896	0.262083
C90	C	-1.256004	1.016553	0.252371
C91	C	-1.204075	0.974322	0.304014
H92	H	-1.294423	1.052493	0.286250
H93	H	-1.289695	0.975887	0.218795
H94	H	-1.222296	1.052583	0.213824
H95	H	-1.237725	0.938291	0.342605
H96	H	-1.170381	1.015028	0.337537
H97	H	-0.978164	0.923873	0.439957
O98	O	-1.156406	0.261484	0.930664
C99	C	-1.192164	0.136293	0.954241
C100	C	-1.140361	0.188113	0.911983
H101	H	-1.179200	0.076961	0.939165
H102	H	-1.251508	0.149164	0.939124
H103	H	-1.184099	0.144394	1.015768
H104	H	-1.148361	0.180041	0.850447
H105	H	-1.081036	0.175230	0.927161
H106	H	-1.148980	0.784415	0.269301
H107	H	-0.978185	0.439748	0.924637
