data_functionalizedCrystal
_audit_creation_method	'MofGen! by Chris Wilmer'
_symmetry_space_group_name_H-M	'P1'
_symmetry_Int_Tables_number	1
_symmetry_cell_setting	triclinic
loop_
_symmetry_equiv_pos_as_xyz
  x,y,z
_cell_length_a	15.624803
_cell_length_b	19.188924
_cell_length_c	14.750779
_cell_angle_alpha	77.399495
_cell_angle_beta	85.131014
_cell_angle_gamma	83.710912
loop_
_atom_site_label
_atom_site_type_symbol
_atom_site_fract_x
_atom_site_fract_y
_atom_site_fract_z
O1	O	1.083538	0.177734	-0.457108
O2	O	0.841703	0.172647	-0.372906
O3	O	0.969605	0.074019	-0.417428
O4	O	0.955636	0.276363	-0.412587
O5	O	1.005761	0.046141	-0.270363
O6	O	0.877860	0.144769	-0.225842
O7	O	1.119694	0.149857	-0.310044
Zn8	Zn	1.004517	0.142887	-0.244593
Zn9	Zn	0.956880	0.179617	-0.438357
O10	O	0.991792	0.248485	-0.265522
C11	C	0.828842	0.156176	-0.288601
C12	C	0.736652	0.148623	-0.256502
C13	C	0.334981	0.199741	-0.551846
C14	C	0.248357	0.192629	-0.521683
C15	C	0.287752	0.162236	-0.361352
C16	C	0.374381	0.169342	-0.391502
C17	C	0.397988	0.188095	-0.486750
C18	C	0.437388	0.157696	-0.326405
C19	C	0.524010	0.164804	-0.356552
C20	C	0.547623	0.183559	-0.451796
C21	C	0.484609	0.195203	-0.516897
C22	C	0.413779	0.138948	-0.231157
C23	C	0.476787	0.127302	-0.166061
C24	C	0.563410	0.134406	-0.196208
C25	C	0.587024	0.153160	-0.291452
C26	C	0.626425	0.122761	-0.131107
C27	C	0.713046	0.129870	-0.161254
C28	C	0.673645	0.160269	-0.321599
C29	C	0.987232	0.034037	-0.343738
C30	C	0.985878	-0.043563	-0.343264
C31	C	0.965537	-0.064809	-0.423209
C32	C	0.964251	-0.137720	-0.422768
C33	C	0.983323	-0.189383	-0.342384
C34	C	1.003662	-0.168129	-0.262427
C35	C	1.004940	-0.095219	-0.262866
N36	N	1.043249	-0.317208	-0.298478
N37	N	1.042036	-0.386469	-0.298066
C38	C	0.979475	-0.409058	-0.341053
N39	N	0.918179	-0.359768	-0.384484
N40	N	0.919395	-0.290501	-0.384900
C41	C	0.981940	-0.268443	-0.341898
C42	C	0.957736	-0.509362	-0.420525
C43	C	0.956446	-0.582274	-0.420080
C44	C	0.995866	-0.612683	-0.259739
C45	C	0.997148	-0.539771	-0.260184
C46	C	0.978086	-0.488114	-0.340581
C47	C	1.132555	0.166328	-0.394350
C48	C	1.224743	0.173882	-0.426455
C49	C	0.974165	0.288467	-0.339214
C50	C	0.975517	0.366068	-0.339694
N51	N	1.037035	0.117819	-0.112356
N52	N	0.924369	0.204679	-0.570596
C53	C	0.833553	0.274658	0.310292
C54	C	0.856345	0.257098	0.402857
C55	C	0.969625	0.169798	0.363388
C56	C	0.946840	0.187349	0.270819
C57	C	0.878804	0.239780	0.244278
C58	C	0.992091	0.152471	0.204805
C59	C	0.969310	0.170024	0.112242
C60	C	0.901278	0.222454	0.085694
C61	C	0.856023	0.257333	0.151716
C62	C	1.060130	0.100044	0.231346
C63	C	1.105381	0.065166	0.165332
C64	C	1.082596	0.082715	0.072769
C65	C	1.014565	0.135145	0.046220
C66	C	1.127851	0.047836	0.006747
C67	C	1.105071	0.065388	-0.085816
C68	C	0.991784	0.152697	-0.046342
H69	H	0.268518	0.146970	-0.283801
Br70	Br	1.197717	-0.005985	0.201356
Br71	Br	1.024751	-0.510934	-0.151679
Br72	Br	0.296219	0.129307	-0.190242
H73	H	0.950013	-0.022753	-0.488673
Br74	Br	0.763675	0.328480	0.115696
Br75	Br	0.367029	0.225179	-0.681114
H76	H	0.457553	0.112035	-0.088509
H77	H	1.183252	0.005151	0.028367
H78	H	1.078678	0.085758	0.306717
Br79	Br	1.061961	0.098647	0.399413
H80	H	0.942210	-0.467300	-0.485988
Br81	Br	0.936640	-0.166564	-0.531271
H82	H	0.939877	-0.599569	-0.485182
Br83	Br	1.029536	-0.238241	-0.153329
H84	H	0.936376	0.195387	-0.067949
Br85	Br	0.594373	0.097326	-0.001846
H86	H	0.764348	0.120390	-0.108246
H87	H	1.021501	-0.077923	-0.197762
Br88	Br	1.021743	-0.682789	-0.150640
Br89	Br	0.870365	0.246281	-0.039931
H90	H	1.141920	0.036987	-0.139567
H91	H	0.778146	0.317348	0.288685
Br92	Br	0.794927	0.304444	0.492443
H93	H	0.618156	0.189351	-0.476340
Br94	Br	0.705693	0.185708	-0.450867
H95	H	0.503830	0.210472	-0.594457
H96	H	0.197056	0.202116	-0.574700
