data_functionalizedCrystal
_audit_creation_method	'MofGen! by Chris Wilmer'
_symmetry_space_group_name_H-M	'P1'
_symmetry_Int_Tables_number	1
_symmetry_cell_setting	triclinic
loop_
_symmetry_equiv_pos_as_xyz
  x,y,z
_cell_length_a	12.594517
_cell_length_b	19.121449
_cell_length_c	12.594509
_cell_angle_alpha	92.472026
_cell_angle_beta	90.014305
_cell_angle_gamma	87.585379
loop_
_atom_site_label
_atom_site_type_symbol
_atom_site_fract_x
_atom_site_fract_y
_atom_site_fract_z
Zn1	Zn	1.645265	-0.279590	0.583565
Zn2	Zn	1.652717	-0.397051	0.397984
Zn3	Zn	1.467270	-0.279620	0.405614
Zn4	Zn	1.474809	-0.397003	0.575939
O5	O	1.560015	-0.338316	0.490776
O6	O	1.795199	-0.295179	0.558946
O7	O	1.628081	-0.381507	0.250049
O8	O	1.484608	-0.181333	0.435604
O9	O	1.800674	-0.381478	0.422601
O10	O	1.615380	-0.181311	0.566344
O11	O	1.491834	-0.295231	0.255654
O12	O	1.319324	-0.295184	0.428210
O13	O	1.497456	-0.381395	0.725899
O14	O	1.324862	-0.381424	0.553347
O15	O	1.622689	-0.295132	0.731502
O16	O	1.635390	-0.495328	0.415206
O17	O	1.504682	-0.495293	0.545949
C18	C	1.283473	-0.338303	0.490779
C19	C	1.165168	-0.338314	0.490805
C20	C	1.028200	-0.385305	0.558730
C21	C	1.100071	-0.402400	0.460482
C22	C	1.094871	-0.321249	0.589040
C23	C	1.026257	-0.355465	0.392470
C24	C	1.021049	-0.274284	0.521096
C25	C	1.092886	-0.291355	0.422782
C26	C	1.571692	-0.520794	0.478945
C27	C	1.576784	-0.598859	0.473920
C28	C	1.511078	-0.635541	0.539573
C29	C	1.515867	-0.708891	0.534847
C30	C	1.586370	-0.745558	0.464472
C31	C	1.652079	-0.708871	0.398811
C32	C	1.647283	-0.635522	0.403533
C33	C	1.604252	-0.967024	0.446808
C34	C	1.609046	-1.040378	0.442093
C35	C	1.472832	-1.040394	0.578128
C36	C	1.468047	-0.967043	0.582848
C37	C	1.533752	-0.930363	0.517184
C38	C	1.591270	-0.820534	0.459641
C39	C	1.528846	-0.855388	0.522009
C40	C	1.837637	-0.338330	0.490773
C41	C	1.955943	-0.338336	0.490772
C42	C	1.560082	-0.338255	0.768401
C43	C	1.560111	-0.338228	0.886708
C44	C	1.548322	-0.155125	0.502676
C45	C	1.543339	-0.077060	0.507747
C46	C	1.560006	-0.338327	0.214234
C47	C	1.560171	-0.338155	0.095940
C48	C	1.492017	-0.385120	0.952916
C49	C	1.590243	-0.402281	1.022584
C50	C	1.461959	-0.321026	1.027842
C51	C	1.658389	-0.355423	0.954815
C52	C	1.530038	-0.274138	0.960070
C53	C	1.628329	-0.291274	1.029707
H54	H	1.134645	-0.456558	0.434840
O55	O	0.994010	-0.432680	0.627175
C56	C	0.843431	-0.485394	0.704454
C57	C	0.882006	-0.431705	0.626933
H58	H	0.752873	-0.484633	0.704267
H59	H	0.872793	-0.471377	0.788004
H60	H	0.876083	-0.539960	0.678423
H61	H	0.849370	-0.377120	0.652866
H62	H	0.852656	-0.445782	0.543400
O63	O	0.990251	-0.372796	0.293384
C64	C	0.837655	-0.392212	0.182191
C65	C	0.878291	-0.372587	0.294455
H66	H	0.747131	-0.392035	0.183014
H67	H	0.870868	-0.446652	0.156207
H68	H	0.864892	-0.352425	0.124216
H69	H	0.851068	-0.412327	0.352507
H70	H	0.845086	-0.318129	0.320350
H71	H	1.121191	-0.251626	0.365257
H72	H	1.434484	-0.424837	0.919295
H73	H	1.471439	-0.825532	0.579305
H74	H	1.686008	-0.251588	1.063131
H75	H	1.741448	-0.370004	0.922903
H76	H	0.986452	-0.220142	0.546764
H77	H	1.709479	-0.738731	0.341505
O78	O	1.667930	-0.931370	0.382917
C79	C	1.676934	-0.848598	0.244580
C80	C	1.604690	-0.888946	0.316859
H81	H	1.625834	-0.814277	0.191170
H82	H	1.728126	-0.887378	0.193404
H83	H	1.730338	-0.814230	0.295722
H84	H	1.551221	-0.923315	0.265800
H85	H	1.553570	-0.850128	0.368042
H86	H	1.125048	-0.306807	0.672131
H87	H	1.453672	-0.605692	0.596885
H88	H	1.462352	-0.738755	0.588299
H89	H	1.648674	-0.850396	0.402343
H90	H	1.700787	-0.605656	0.350070
O91	O	1.499440	-0.209556	0.927154
C92	C	1.361340	-0.118425	0.927025
C93	C	1.395864	-0.191575	0.964355
H94	H	1.277605	-0.103859	0.957106
H95	H	1.362295	-0.118944	0.836481
H96	H	1.418605	-0.078295	0.959915
H97	H	1.338631	-0.231747	0.931541
H98	H	1.394938	-0.190999	1.054902
H99	H	1.410638	-0.937191	0.640153
O100	O	1.409045	-1.076134	0.641797
C101	C	1.356100	-1.189139	0.694859
C102	C	1.428388	-1.148751	0.622677
H103	H	1.371729	-1.247856	0.679442
H104	H	1.269327	-1.174831	0.677014
H105	H	1.373781	-1.174622	0.781622
H106	H	1.410802	-1.163247	0.535890
H107	H	1.515138	-1.163063	0.640613
H108	H	1.666464	-1.070231	0.384786
O109	O	1.620455	-0.466944	1.055463
C110	C	1.582868	-0.589518	1.053497
C111	C	1.548529	-0.516323	1.016215
H112	H	1.524746	-0.629463	1.021762
H113	H	1.583306	-0.588775	1.144056
H114	H	1.666032	-0.604508	1.022211
H115	H	1.465357	-0.501287	1.047425
H116	H	1.548166	-0.517105	0.925654
H117	H	1.378928	-0.306506	1.059882
