data_functionalizedCrystal
_audit_creation_method	'MofGen! by Chris Wilmer'
_symmetry_space_group_name_H-M	'P1'
_symmetry_Int_Tables_number	1
_symmetry_cell_setting	triclinic
loop_
_symmetry_equiv_pos_as_xyz
  x,y,z
_cell_length_a	21.295420
_cell_length_b	21.295417
_cell_length_c	19.120904
_cell_angle_alpha	92.408338
_cell_angle_beta	92.422904
_cell_angle_gamma	90.026289
loop_
_atom_site_label
_atom_site_type_symbol
_atom_site_fract_x
_atom_site_fract_y
_atom_site_fract_z
Zn1	Zn	0.947123	-0.265876	-0.397094
Zn2	Zn	1.447123	0.234124	0.102906
Zn3	Zn	0.951531	-0.366654	-0.279638
Zn4	Zn	1.451531	0.133346	0.220362
Zn5	Zn	0.846351	-0.261396	-0.279660
Zn6	Zn	1.346351	0.238604	0.220340
Zn7	Zn	0.841817	-0.371101	-0.397046
Zn8	Zn	1.341817	0.128899	0.102954
O9	O	0.896705	-0.316257	-0.338360
O10	O	1.396705	0.183743	0.161640
O11	O	1.035796	-0.279258	-0.381524
O12	O	1.535796	0.220742	0.118476
O13	O	0.941320	-0.348955	-0.181359
O14	O	1.441320	0.151045	0.318641
O15	O	0.859771	-0.173902	-0.295267
O16	O	1.359771	0.326098	0.204733
O17	O	1.039035	-0.353299	-0.295230
O18	O	1.539035	0.146701	0.204770
O19	O	0.933808	-0.177193	-0.381545
O20	O	1.433808	0.322807	0.118455
O21	O	0.864045	-0.271622	-0.181375
O22	O	1.364045	0.228378	0.318625
O23	O	0.757660	-0.275935	-0.295221
O24	O	1.257660	0.224065	0.204779
O25	O	0.852044	-0.360879	-0.495335
O26	O	1.352044	0.139121	0.004665
O27	O	0.754330	-0.356535	-0.381464
O28	O	1.254330	0.143465	0.118536
O29	O	0.929411	-0.283570	-0.495370
O30	O	1.429411	0.216430	0.004630
O31	O	0.936924	-0.455332	-0.295183
O32	O	1.436924	0.044668	0.204817
O33	O	0.856318	-0.458600	-0.381442
O34	O	1.356318	0.041400	0.118558
C35	C	0.733154	-0.316232	-0.338340
C36	C	1.233154	0.183768	0.161660
C37	C	0.663186	-0.316237	-0.338348
C38	C	1.163186	0.183763	0.161652
C39	C	0.162037	-0.277801	-0.383377
C40	C	0.662037	0.222199	0.116623
C41	C	0.227780	-0.277797	-0.383376
C42	C	0.727780	0.222203	0.116624
C43	C	0.262345	-0.316276	-0.338376
C44	C	0.762345	0.183724	0.161624
C45	C	0.231163	-0.354776	-0.293385
C46	C	0.731163	0.145224	0.206615
C47	C	0.165421	-0.354784	-0.293391
C48	C	0.665421	0.145216	0.206609
N49	N	0.367894	-0.318670	-0.276878
N50	N	0.867894	0.181330	0.223122
N51	N	0.430346	-0.318658	-0.276874
N52	N	0.930346	0.181342	0.223126
C53	C	0.460421	-0.316255	-0.338355
C54	C	0.960421	0.183745	0.161645
N55	N	0.425685	-0.313851	-0.399842
N56	N	0.925685	0.186149	0.100158
N57	N	0.363228	-0.313859	-0.399845
N58	N	0.863228	0.186141	0.100155
C59	C	0.333631	-0.316272	-0.338364
C60	C	0.833631	0.183728	0.161636
C61	C	0.562881	-0.277756	-0.383347
C62	C	1.062881	0.222244	0.116653
C63	C	0.628625	-0.277756	-0.383348
C64	C	1.128625	0.222244	0.116652
C65	C	0.632007	-0.354731	-0.293350
C66	C	1.132007	0.145269	0.206650
C67	C	0.566264	-0.354735	-0.293355
C68	C	1.066264	0.145265	0.206645
C69	C	0.531705	-0.316244	-0.338353
C70	C	1.031705	0.183756	0.161647
C71	C	0.896624	-0.479807	-0.338321
C72	C	1.396624	0.020193	0.161679
C73	C	0.896646	-0.549775	-0.338328
C74	C	1.396646	-0.049775	0.161672
C75	C	0.938652	-0.580921	-0.293458
C76	C	1.438652	-0.080921	0.206542
C77	C	0.938681	-0.646664	-0.293474
C78	C	1.438681	-0.146664	0.206526
C79	C	0.896693	-0.681259	-0.338352
C80	C	1.396693	-0.181259	0.161648
C81	C	0.854684	-0.650105	-0.383230
C82	C	1.354684	-0.150105	0.116770
C83	C	0.854661	-0.584363	-0.383217
C84	C	1.354661	-0.084363	0.116783
N85	N	0.841421	-0.784725	-0.343699
N86	N	1.341421	-0.284725	0.156301
N87	N	0.841445	-0.847177	-0.343707
N88	N	1.341445	-0.347177	0.156293
C89	C	0.896762	-0.879335	-0.338392
C90	C	1.396762	-0.379335	0.161608
N91	N	0.952056	-0.846682	-0.333056
N92	N	1.452056	-0.346682	0.166944
N93	N	0.952031	-0.784224	-0.333045
N94	N	1.452031	-0.284224	0.166955
C95	C	0.896714	-0.752545	-0.338370
C96	C	1.396714	-0.252545	0.161630
C97	C	0.938802	-0.981767	-0.293538
C98	C	1.438802	-0.481767	0.206462
C99	C	0.938832	-1.047512	-0.293558
C100	C	1.438832	-0.547512	0.206442
C101	C	0.854830	-1.050951	-0.383310
C102	C	1.354830	-0.550951	0.116690
C103	C	0.854806	-0.985207	-0.383293
C104	C	1.354806	-0.485207	0.116707
C105	C	0.896791	-0.950620	-0.338403
C106	C	1.396791	-0.450620	0.161597
C107	C	1.060895	-0.316282	-0.338380
C108	C	1.560895	0.183718	0.161620
C109	C	1.130862	-0.316293	-0.338389
C110	C	1.630862	0.183707	0.161611
C111	C	0.889730	-0.323220	-0.521548
C112	C	1.389730	0.176780	-0.021548
C113	C	0.886758	-0.326188	-0.599612
C114	C	1.386758	0.173812	-0.099612
C115	C	0.896803	-0.152068	-0.338414
C116	C	1.396803	0.347932	0.161586
C117	C	0.896845	-0.082101	-0.338437
C118	C	1.396845	0.417899	0.161563
C119	C	0.925641	-0.287333	-0.636306
C120	C	1.425641	0.212667	-0.136306
C121	C	0.922840	-0.290119	-0.709656
C122	C	1.422840	0.209881	-0.209656
C123	C	0.881160	-0.331763	-0.746310
C124	C	1.381160	0.168237	-0.246310
C125	C	0.842273	-0.370619	-0.709610
C126	C	1.342273	0.129381	-0.209610
C127	C	0.845071	-0.367830	-0.636262
C128	C	1.345071	0.132170	-0.136262
C129	C	0.870694	-0.342197	-0.967773
C130	C	1.370694	0.157803	-0.467773
C131	C	0.867901	-0.344984	-1.041126
C132	C	1.367901	0.155016	-0.541126
C133	C	0.948468	-0.264483	-1.041166
C134	C	1.448468	0.235517	-0.541166
C135	C	0.951264	-0.261700	-0.967817
C136	C	1.451264	0.238300	-0.467817
C137	C	0.912375	-0.300554	-0.931124
C138	C	1.412375	0.199446	-0.431124
C139	C	0.878298	-0.334613	-0.821285
C140	C	1.378298	0.165387	-0.321285
C141	C	0.915235	-0.297700	-0.856150
C142	C	1.415235	0.202300	-0.356150
C143	C	0.903689	-0.309275	-0.155884
C144	C	1.403689	0.190725	0.344116
C145	C	0.906784	-0.306130	-0.077820
C146	C	1.406784	0.193870	0.422180
H147	H	0.534742	-0.246415	-0.419986
H148	H	1.034742	0.253585	0.080014
C149	C	0.961083	-0.251894	-0.815833
C150	C	1.461083	0.248106	-0.315833
C151	C	0.935760	-0.200553	-0.765416
C152	C	1.435760	0.299447	-0.265416
C153	C	0.981612	-0.154749	-0.725092
C154	C	1.481612	0.345251	-0.225092
C155	C	1.052785	-0.160286	-0.735183
C156	C	1.552785	0.339714	-0.235183
C157	C	1.078112	-0.211629	-0.785602
C158	C	1.578112	0.288371	-0.285602
C159	C	1.032261	-0.257433	-0.825927
C160	C	1.532261	0.242567	-0.325927
H161	H	0.883070	-0.196452	-0.757944
H162	H	1.383070	0.303548	-0.257944
H163	H	0.962863	-0.116742	-0.687768
H164	H	1.462863	0.383258	-0.187768
H165	H	1.086727	-0.126379	-0.705333
H166	H	1.586727	0.373621	-0.205333
H167	H	1.130802	-0.215729	-0.793075
H168	H	1.630802	0.284271	-0.293075
H169	H	1.051009	-0.295440	-0.863251
H170	H	1.551009	0.204560	-0.363251
C171	C	0.971491	-0.241524	-0.595990
C172	C	1.471491	0.258476	-0.095990
C173	C	0.946167	-0.190182	-0.545575
C174	C	1.446167	0.309818	-0.045575
C175	C	0.992017	-0.144370	-0.505261
C176	C	1.492017	0.355630	-0.005261
C177	C	1.063190	-0.149899	-0.515361
C178	C	1.563190	0.350101	-0.015361
C179	C	1.088517	-0.201243	-0.565778
C180	C	1.588517	0.298757	-0.065778
C181	C	1.042667	-0.247056	-0.606092
C182	C	1.542667	0.252944	-0.106092
H183	H	0.893477	-0.186086	-0.538096
H184	H	1.393477	0.313914	-0.038096
H185	H	0.973268	-0.106361	-0.467939
H186	H	1.473268	0.393639	0.032061
H187	H	1.097130	-0.115986	-0.485518
H188	H	1.597130	0.384014	0.014482
H189	H	1.141207	-0.205339	-0.573257
H190	H	1.641207	0.294661	-0.073257
H191	H	1.061416	-0.285064	-0.643414
H192	H	1.561416	0.214936	-0.143414
H193	H	0.844364	-0.368523	-0.851137
H194	H	1.344364	0.131477	-0.351137
C195	C	0.531968	-0.397072	-0.243862
C196	C	1.031968	0.102928	0.256138
C197	C	0.569984	-0.439401	-0.194362
C198	C	1.069984	0.060599	0.305638
C199	C	0.535688	-0.481743	-0.144868
C200	C	1.035688	0.018257	0.355132
C201	C	0.463375	-0.481755	-0.144874
C202	C	0.963375	0.018245	0.355126
C203	C	0.425354	-0.439424	-0.194376
C204	C	0.925354	0.060576	0.305624
C205	C	0.459650	-0.397083	-0.243869
C206	C	0.959650	0.102917	0.256131
H207	H	0.623518	-0.439394	-0.194355
H208	H	1.123518	0.060606	0.305645
H209	H	0.563833	-0.513079	-0.108223
H210	H	1.063833	-0.013079	0.391777
H211	H	0.437986	-0.513098	-0.108236
H212	H	0.937986	-0.013098	0.391764
H213	H	0.371820	-0.439431	-0.194382
H214	H	0.871820	0.060569	0.305618
H215	H	0.431505	-0.365747	-0.280514
H216	H	0.931505	0.134253	0.219486
C217	C	0.808644	-1.088998	-0.432677
C218	C	1.308644	-0.588998	0.067323
C219	C	0.810680	-1.082957	-0.512522
C220	C	1.310680	-0.582957	-0.012522
C221	C	0.764494	-1.121008	-0.561893
C222	C	1.264494	-0.621008	-0.061893
C223	C	0.716272	-1.165100	-0.531418
C224	C	1.216272	-0.665100	-0.031418
C225	C	0.714235	-1.171142	-0.451568
C226	C	1.214235	-0.671142	0.048432
C227	C	0.760420	-1.133091	-0.402198
C228	C	1.260420	-0.633091	0.097802
H229	H	0.846378	-1.050316	-0.535085
H230	H	1.346378	-0.550316	-0.035085
H231	H	0.766003	-1.116535	-0.621003
H232	H	1.266003	-0.616535	-0.121003
H233	H	0.682083	-1.193268	-0.567965
H234	H	1.182083	-0.693268	-0.067965
H235	H	0.678536	-1.203783	-0.429005
H236	H	1.178536	-0.703783	0.070995
H237	H	0.758911	-1.137564	-0.343088
H238	H	1.258911	-0.637564	0.156912
H239	H	0.133903	-0.246462	-0.420020
H240	H	0.633903	0.253538	0.079980
H241	H	0.820454	-0.559004	-0.419756
H242	H	1.320454	-0.059004	0.080244
C243	C	0.262083	-0.235450	-0.432862
C244	C	0.762083	0.264550	0.067138
C245	C	0.224070	-0.193113	-0.482357
C246	C	0.724070	0.306887	0.017643
C247	C	0.258371	-0.150766	-0.531842
C248	C	0.758371	0.349234	-0.031842
C249	C	0.330684	-0.150757	-0.531832
C250	C	0.830684	0.349243	-0.031832
C251	C	0.368701	-0.193096	-0.482335
C252	C	0.868701	0.306904	0.017665
C253	C	0.334400	-0.235443	-0.432851
C254	C	0.834400	0.264557	0.067149
H255	H	0.170536	-0.193119	-0.482366
H256	H	0.670536	0.306881	0.017634
H257	H	0.230228	-0.119424	-0.568482
H258	H	0.730228	0.380576	-0.068482
H259	H	0.356075	-0.119409	-0.568463
H260	H	0.856075	0.380591	-0.068463
H261	H	0.422235	-0.193090	-0.482327
H262	H	0.922235	0.306910	0.017673
H263	H	0.362543	-0.266785	-0.396210
H264	H	0.862543	0.233215	0.103790
H265	H	0.820499	-0.678276	-0.419770
H266	H	1.320499	-0.178276	0.080230
H267	H	0.259310	-0.386108	-0.256747
H268	H	0.759310	0.113892	0.243253
C269	C	0.822047	-0.390793	-1.081447
C270	C	1.322047	0.109207	-0.581447
C271	C	0.818976	-0.393863	-1.162127
C272	C	1.318976	0.106137	-0.662127
C273	C	0.773126	-0.439671	-1.202449
C274	C	1.273126	0.060329	-0.702449
C275	C	0.730347	-0.482408	-1.162091
C276	C	1.230347	0.017592	-0.662091
C277	C	0.733417	-0.479339	-1.081406
C278	C	1.233417	0.020661	-0.581406
C279	C	0.779267	-0.433532	-1.041084
C280	C	1.279267	0.066468	-0.541084
H281	H	0.850644	-0.362226	-1.192007
H282	H	1.350644	0.137774	-0.692007
H283	H	0.770853	-0.441942	-1.262177
H284	H	1.270853	0.058058	-0.762177
H285	H	0.696407	-0.516317	-1.191939
H286	H	1.196407	-0.016317	-0.691939
H287	H	0.701749	-0.510977	-1.051526
H288	H	1.201749	-0.010977	-0.551526
H289	H	0.781539	-0.431261	-0.981356
H290	H	1.281539	0.068739	-0.481356
C291	C	0.984991	-0.943714	-0.244171
C292	C	1.484991	-0.443714	0.255829
C293	C	0.959842	-0.896467	-0.188992
C294	C	1.459842	-0.396467	0.311008
C295	C	1.006032	-0.858415	-0.139627
C296	C	1.506032	-0.358415	0.360373
C297	C	1.077371	-0.867609	-0.145443
C298	C	1.577371	-0.367609	0.354557
C299	C	1.102524	-0.914857	-0.200625
C300	C	1.602524	-0.414857	0.299375
C301	C	1.056334	-0.952910	-0.249989
C302	C	1.556334	-0.452910	0.250011
H303	H	0.907029	-0.889659	-0.184685
H304	H	1.407029	-0.389659	0.315315
H305	H	0.987412	-0.823438	-0.098778
H306	H	1.487412	-0.323438	0.401222
H307	H	1.111564	-0.839440	-0.108900
H308	H	1.611564	-0.339440	0.391100
H309	H	1.155337	-0.921665	-0.204932
H310	H	1.655337	-0.421665	0.295068
H311	H	1.074954	-0.987886	-0.290838
H312	H	1.574954	-0.487886	0.209162
C313	C	0.131125	-0.397124	-0.243898
C314	C	0.631125	0.102876	0.256102
C315	C	0.143193	-0.388844	-0.164065
C316	C	0.643193	0.111156	0.335935
C317	C	0.108896	-0.431183	-0.114570
C318	C	0.608896	0.068817	0.385430
C319	C	0.062531	-0.481803	-0.144907
C320	C	0.562531	0.018197	0.355093
C321	C	0.050462	-0.490085	-0.224743
C322	C	0.550462	0.009915	0.275257
C323	C	0.084759	-0.447746	-0.274238
C324	C	0.584759	0.052254	0.225762
H325	H	0.177517	-0.351370	-0.141605
H326	H	0.677517	0.148630	0.358395
H327	H	0.117831	-0.425052	-0.055470
H328	H	0.617831	0.074948	0.444530
H329	H	0.037143	-0.513145	-0.108267
H330	H	0.537143	-0.013145	0.391733
H331	H	0.016138	-0.527558	-0.247204
H332	H	0.516138	-0.027558	0.252796
H333	H	0.075824	-0.453877	-0.333339
H334	H	0.575824	0.046123	0.166661
H335	H	0.972840	-0.552762	-0.256908
H336	H	1.472840	-0.052762	0.243092
H337	H	0.973042	-1.072870	-0.257022
H338	H	1.473042	-0.572870	0.242978
H339	H	0.820599	-0.959847	-0.419827
H340	H	1.320599	-0.459847	0.080173
H341	H	0.654006	-0.246414	-0.419988
H342	H	1.154006	0.253586	0.080012
H343	H	0.808334	-0.404525	-0.739460
H344	H	1.308334	0.095475	-0.239460
H345	H	0.660149	-0.386068	-0.256715
H346	H	1.160149	0.113932	0.243285
H347	H	0.972889	-0.672029	-0.256937
H348	H	1.472889	-0.172029	0.243063
H349	H	0.954504	-0.258481	-0.739529
H350	H	1.454504	0.241519	-0.239529
C351	C	0.997109	-0.215883	-0.927504
C352	C	1.497109	0.284117	-0.427504
C353	C	0.971782	-0.164540	-0.877093
C354	C	1.471782	0.335460	-0.377093
C355	C	1.017628	-0.118723	-0.836781
C356	C	1.517628	0.381277	-0.336781
C357	C	1.088802	-0.124248	-0.846881
C358	C	1.588802	0.375752	-0.346881
C359	C	1.114133	-0.175593	-0.897294
C360	C	1.614133	0.324407	-0.397294
C361	C	1.068286	-0.221411	-0.937605
C362	C	1.568286	0.278589	-0.437605
H363	H	0.919092	-0.160448	-0.869614
H364	H	1.419092	0.339552	-0.369614
H365	H	0.998877	-0.080714	-0.799462
H366	H	1.498877	0.419286	-0.299462
H367	H	1.122740	-0.090331	-0.817040
H368	H	1.622740	0.409669	-0.317040
H369	H	1.166823	-0.179685	-0.904772
H370	H	1.666823	0.320315	-0.404772
H371	H	1.087038	-0.259420	-0.974925
H372	H	1.587038	0.240580	-0.474925
C373	C	0.991239	-0.221741	-1.081529
C374	C	1.491239	0.278259	-0.581529
C375	C	0.988164	-0.224803	-1.162209
C376	C	1.488164	0.275197	-0.662209
C377	C	1.030934	-0.182056	-1.202572
C378	C	1.530934	0.317944	-0.702572
C379	C	1.076780	-0.136247	-1.162254
C380	C	1.576780	0.363753	-0.662254
C381	C	1.079857	-0.133183	-1.081569
C382	C	1.579857	0.366817	-0.581569
C383	C	1.037086	-0.175930	-1.041207
C384	C	1.537086	0.324070	-0.541207
H385	H	0.954224	-0.258715	-1.192059
H386	H	1.454224	0.241285	-0.692059
H387	H	1.028656	-0.184324	-1.262300
H388	H	1.528656	0.315676	-0.762300
H389	H	1.108441	-0.104603	-1.192133
H390	H	1.608441	0.395397	-0.692133
H391	H	1.113796	-0.099271	-1.051720
H392	H	1.613796	0.400729	-0.551720
H393	H	1.039364	-0.173662	-0.981479
H394	H	1.539364	0.326338	-0.481479
H395	H	0.839037	-0.373843	-0.937906
H396	H	1.339037	0.126157	-0.437906
C397	C	0.802303	-0.410572	-0.595893
C398	C	1.302303	0.089428	-0.095893
C399	C	0.730360	-0.405809	-0.605963
C400	C	1.230360	0.094191	-0.105963
C401	C	0.687589	-0.448550	-0.565593
C402	C	1.187589	0.051450	-0.065593
C403	C	0.716761	-0.496054	-0.515154
C404	C	1.216761	0.003946	-0.015154
C405	C	0.788708	-0.500819	-0.505081
C406	C	1.288708	-0.000819	-0.005081
C407	C	0.831478	-0.458078	-0.545451
C408	C	1.331478	0.041922	-0.045451
H409	H	0.708762	-0.370642	-0.643304
H410	H	1.208762	0.129358	-0.143304
H411	H	0.634329	-0.445022	-0.573050
H412	H	1.134329	0.054978	-0.073050
H413	H	0.685100	-0.527693	-0.485269
H414	H	1.185100	-0.027693	0.014731
H415	H	0.810306	-0.535986	-0.467740
H416	H	1.310306	-0.035986	0.032260
H417	H	0.884738	-0.461606	-0.537994
H418	H	1.384738	0.038394	-0.037994
