data_functionalizedCrystal
_audit_creation_method	'MofGen! by Chris Wilmer'
_symmetry_space_group_name_H-M	'P1'
_symmetry_Int_Tables_number	1
_symmetry_cell_setting	triclinic
loop_
_symmetry_equiv_pos_as_xyz
  x,y,z
_cell_length_a	6.817900
_cell_length_b	11.102188
_cell_length_c	16.255661
_cell_angle_alpha	93.854852
_cell_angle_beta	103.488922
_cell_angle_gamma	108.603875
loop_
_atom_site_label
_atom_site_type_symbol
_atom_site_fract_x
_atom_site_fract_y
_atom_site_fract_z
V1	V	-4.052929	-0.176865	-0.263871
O2	O	-4.013087	0.007443	-0.258848
O3	O	-4.030098	-0.349678	-0.262067
O4	O	-4.004157	-0.174608	-0.378954
O5	O	-4.039208	-0.168839	-0.141151
V6	V	-4.533292	-0.154765	-0.249193
O7	O	-4.321119	-0.225344	-0.296069
O8	O	-4.715300	-0.106287	-0.216995
O9	O	-4.332917	0.018048	-0.250997
O10	O	-4.690531	-0.339073	-0.254216
O11	O	-4.664411	-0.162792	-0.371913
O12	O	-4.358858	-0.157022	-0.134110
C13	C	-3.881331	-0.391792	-0.257904
C14	C	-3.943947	-0.533072	-0.257196
C15	C	-3.930405	-0.580995	-0.179361
C16	C	-3.989264	-0.713744	-0.178699
C17	C	-4.075197	-0.750636	-0.333712
C18	C	-4.016353	-0.617890	-0.334374
C19	C	-4.135732	-0.877166	-0.087394
C20	C	-4.122155	-0.925091	-0.009555
C21	C	-3.947437	-0.861553	0.061374
C22	C	-3.786246	-0.750090	0.054468
C23	C	-3.799809	-0.702171	-0.023372
C24	C	-3.974571	-0.765708	-0.094299
C25	C	-3.869864	-0.454464	-0.425673
C26	C	-3.883412	-0.406543	-0.503513
C27	C	-4.058120	-0.470079	-0.574449
C28	C	-4.219287	-0.581547	-0.567551
C29	C	-4.205739	-0.629468	-0.489710
C30	C	-4.031030	-0.565923	-0.418774
C31	C	-3.848239	-0.168471	-0.407005
C32	C	-3.889815	-0.167769	-0.501086
C33	C	-3.799128	-0.159385	-0.723905
C34	C	-3.971585	-0.267595	-0.793381
C35	C	-3.966004	-0.166453	-0.673335
C36	C	-3.867655	-0.057005	-0.771496
C37	C	-4.039583	-0.165176	-0.839718
C38	C	-4.137957	-0.274760	-0.741581
C39	C	-4.033950	-0.064074	-0.719680
C40	C	-4.206548	-0.172315	-0.789137
C41	C	-3.923612	-0.167190	-0.577485
C42	C	-4.081993	-0.164449	-0.935567
C43	C	-4.145028	0.060155	-0.255158
C44	C	-4.061649	0.201433	-0.255872
C45	C	-4.178119	-0.163164	-0.106055
C46	C	-4.115781	-0.163859	-0.011973
H47	H	-4.278027	-0.928899	-0.145142
C48	C	-3.594056	-0.680203	0.132492
H49	H	-3.609075	-0.724698	0.179842
H50	H	-3.464533	-0.677950	0.119230
H51	H	-3.590023	-0.594839	0.146552
H52	H	-4.253412	-1.015846	-0.003938
C53	C	-4.411477	-0.651447	-0.645575
H54	H	-4.505511	-0.724701	-0.630319
H55	H	-4.486487	-0.594839	-0.663611
H56	H	-4.360989	-0.677946	-0.690931
H57	H	-3.753782	0.034998	-0.785106
H58	H	-4.251829	-0.366887	-0.728114
H59	H	-4.069125	-0.431056	-0.637833
C60	C	-4.154816	-0.843938	-0.418600
H61	H	-4.187901	-0.929861	-0.407060
H62	H	-4.279943	-0.833914	-0.453258
H63	H	-4.045685	-0.825609	-0.447849
C64	C	-3.932496	-0.914262	0.146996
H65	H	-3.805341	-0.860465	0.188250
H66	H	-4.054184	-0.915865	0.166449
H67	H	-3.928715	-0.998979	0.139112
H68	H	-3.871450	-0.511938	-0.116518
C69	C	-4.383019	-0.752078	-0.482115
H70	H	-4.349918	-0.771521	-0.425599
H71	H	-4.516987	-0.738629	-0.494366
H72	H	-4.391490	-0.821736	-0.521688
C73	C	-3.622557	-0.579557	-0.030968
H74	H	-3.516559	-0.548570	0.022426
H75	H	-3.558128	-0.598756	-0.073672
H76	H	-3.683645	-0.515679	-0.046327
C77	C	-3.706182	-0.283895	-0.511091
H78	H	-3.600217	-0.252894	-0.457690
H79	H	-3.641699	-0.303064	-0.553783
H80	H	-3.767318	-0.220040	-0.526458
H81	H	-3.727594	-0.402718	-0.367913
C82	C	-3.566045	-0.152183	-0.685418
H83	H	-3.492309	-0.076796	-0.644113
H84	H	-3.566440	-0.225816	-0.658790
H85	H	-3.495579	-0.149473	-0.729611
C86	C	-3.936575	-0.383824	-0.836737
H87	H	-3.792147	-0.379124	-0.814283
H88	H	-4.031213	-0.461078	-0.825970
H89	H	-3.964722	-0.382953	-0.896710
C90	C	-4.439823	-0.179737	-0.827442
H91	H	-4.535822	-0.257112	-0.817430
H92	H	-4.462752	-0.108165	-0.801217
H93	H	-4.464818	-0.178543	-0.887322
H94	H	-4.059790	0.021975	-0.687572
