data_functionalizedCrystal
_audit_creation_method	'MofGen! by Chris Wilmer'
_symmetry_space_group_name_H-M	'P1'
_symmetry_Int_Tables_number	1
_symmetry_cell_setting	triclinic
loop_
_symmetry_equiv_pos_as_xyz
  x,y,z
_cell_length_a	14.560438
_cell_length_b	12.970454
_cell_length_c	14.560438
_cell_angle_alpha	89.998538
_cell_angle_beta	59.995857
_cell_angle_gamma	60.000657
loop_
_atom_site_label
_atom_site_type_symbol
_atom_site_fract_x
_atom_site_fract_y
_atom_site_fract_z
Zr1	Zr	1.005311	0.993229	-0.120604
O2	O	1.196923	0.828606	-0.267263
O3	O	0.813702	1.043694	-0.075637
O4	O	1.005314	1.043695	-0.267254
O5	O	1.005309	0.828605	0.075494
O6	O	1.005313	1.213363	-0.267256
O7	O	1.005311	0.828605	-0.075646
O8	O	0.662555	1.213360	0.075511
O9	O	1.348067	0.828607	-0.267273
O10	O	0.892512	1.191839	-0.056471
O11	O	0.892511	1.065218	0.056325
O12	O	1.118109	1.065220	-0.169279
O13	O	1.118107	0.938599	-0.056482
Zr14	Zr	1.005306	1.263830	0.120444
Zr15	Zr	1.005310	1.263829	-0.120608
Zr16	Zr	1.005307	0.993230	0.120448
Zr17	Zr	1.246368	0.993231	-0.120620
Zr18	Zr	0.764249	1.263828	0.120460
O19	O	1.196915	1.213365	0.075477
O20	O	1.196921	1.213364	-0.267268
O21	O	1.196917	0.828607	0.075482
O22	O	0.813694	1.428453	0.267103
O23	O	0.813700	1.428452	-0.075642
O24	O	0.813696	1.043695	0.267108
O25	O	1.005308	1.428454	-0.075655
O26	O	1.005303	1.213364	0.267093
O27	O	1.005304	1.043696	0.267096
O28	O	1.005306	1.428454	0.075486
O29	O	1.348066	1.043698	-0.267276
O30	O	0.662551	1.213361	0.267116
O31	O	0.662550	1.428452	0.267113
O32	O	0.662554	1.428451	0.075508
O33	O	1.348063	0.828608	-0.075668
O34	O	1.348062	1.043699	-0.075671
O35	O	0.892508	1.191839	0.169118
O36	O	0.892510	1.318460	0.056322
O37	O	1.118106	1.191841	-0.056486
O38	O	1.118105	1.065220	0.056311
C39	C	0.703783	1.128527	-0.000061
C40	C	0.601448	1.128526	-0.000054
C41	C	0.636664	1.035053	-0.083335
C42	C	0.540524	1.035058	-0.083364
C43	C	0.373953	1.222016	0.083180
C44	C	0.470092	1.222015	0.083203
C45	C	1.005310	0.790050	-0.000075
C46	C	1.005311	0.675173	-0.000074
C47	C	1.306834	1.128532	-0.000100
C48	C	1.409169	1.128533	-0.000106
C49	C	1.005314	1.128529	-0.301600
C50	C	1.005316	1.128529	-0.403933
C51	C	1.005307	1.467009	-0.000085
C52	C	1.005306	1.581886	-0.000086
C53	C	1.005316	1.222000	-0.452010
C54	C	1.005305	1.222004	-0.548156
C55	C	1.005297	1.035054	-0.548142
C56	C	1.005299	1.035057	-0.451993
C57	C	1.005303	1.128530	0.301439
C58	C	1.005301	1.128530	0.403772
C59	C	0.703781	1.467006	-0.000065
C60	C	0.601446	1.581882	-0.000060
C61	C	0.703778	1.128527	0.301459
C62	C	0.601441	1.128527	0.403798
C63	C	0.703776	1.467007	0.301454
C64	C	0.601439	1.581883	0.403792
C65	C	1.306841	0.790052	-0.301614
C66	C	1.409178	0.675176	-0.403952
C67	C	1.306836	0.790053	-0.000095
C68	C	1.409171	0.675177	-0.000100
C69	C	1.306839	1.128532	-0.301619
C70	C	1.409176	1.128532	-0.403959
C71	C	0.470107	1.635830	0.083217
C72	C	0.373939	1.743757	0.083225
C73	C	0.409111	1.797740	-0.000040
C74	C	0.540463	1.743783	-0.083325
C75	C	0.636629	1.635852	-0.083337
C76	C	0.470101	1.635838	0.451856
C77	C	0.373929	1.743788	0.548002
C78	C	0.409098	1.797777	0.596088
C79	C	0.540449	1.743816	0.548016
C80	C	0.636618	1.635873	0.451867
C81	C	1.540516	0.621230	-0.452025
C82	C	1.636687	0.513304	-0.548193
C83	C	1.601518	0.459320	-0.596282
C84	C	1.470168	0.513276	-0.548205
C85	C	1.373999	0.621205	-0.452043
C86	C	1.373958	0.621228	0.083180
C87	C	1.470099	0.513301	0.083198
C88	C	1.601454	0.459319	-0.000069
C89	C	1.636667	0.513277	-0.083353
C90	C	1.540526	0.621208	-0.083366
C91	C	0.553359	1.194620	0.510755
C92	C	0.457212	1.194605	0.606910
C93	C	0.457232	1.062402	0.489139
C94	C	0.553384	1.062410	0.392986
H95	H	0.441407	1.298139	0.151023
H96	H	0.266985	1.787703	0.587134
H97	H	0.743570	1.591940	-0.151150
H98	H	0.592536	1.008583	0.305891
C99	C	1.781161	0.453881	-0.174949
C100	C	1.886898	0.335153	-0.174929
C101	C	2.031394	0.275747	-0.266529
C102	C	2.070153	0.335070	-0.358149
C103	C	1.964414	0.453805	-0.358173
C104	C	1.819917	0.513210	-0.266573
H105	H	1.858209	0.291233	-0.107103
H106	H	2.109670	0.187852	-0.266511
H107	H	2.177118	0.291094	-0.425957
H108	H	1.993103	0.497725	-0.425999
H109	H	1.741642	0.601106	-0.266591
H110	H	1.441403	0.469380	0.151018
C111	C	0.229460	1.803103	0.174851
C112	C	0.190783	1.743730	0.266449
C113	C	0.046309	1.803073	0.358076
C114	C	-0.059488	1.921789	0.358105
C115	C	-0.020814	1.981169	0.266504
C116	C	0.123660	1.921826	0.174877
H117	H	0.269103	1.655843	0.266430
H118	H	0.017680	1.759116	0.425885
H119	H	-0.166437	1.965719	0.425933
H120	H	-0.099134	2.069056	0.266523
H121	H	0.152289	1.965784	0.107069
H122	H	1.267059	0.665115	-0.412906
C123	C	0.579138	1.803185	-0.174903
C124	C	0.535918	1.814443	-0.253876
C125	C	0.574586	1.873857	-0.345447
C126	C	0.656475	1.922011	-0.358044
C127	C	0.699700	1.910754	-0.279069
C128	C	0.661031	1.851340	-0.187498
H129	H	0.475294	1.778795	-0.244553
H130	H	0.542588	1.882190	-0.403910
H131	H	0.685101	1.965992	-0.425830
H132	H	0.760324	1.946402	-0.288392
H133	H	0.693030	1.843007	-0.129035
H134	H	0.266995	1.298130	0.150965
H135	H	0.743616	0.958922	-0.151122
C136	C	0.606233	1.267335	0.522645
C137	C	0.553345	1.340030	0.640299
C138	C	0.606219	1.412743	0.652195
C139	C	0.711980	1.412761	0.546436
C140	C	0.764873	1.340064	0.428774
C141	C	0.712000	1.267351	0.416878
H142	H	0.475050	1.340019	0.718596
H143	H	0.567063	1.466559	0.739297
H144	H	0.751120	1.466588	0.555242
H145	H	0.843169	1.340075	0.350477
H146	H	0.751155	1.213535	0.329776
C147	C	0.781090	1.576519	0.399014
C148	C	0.836564	1.654328	0.356157
C149	C	0.981036	1.594981	0.303311
C150	C	1.070032	1.457826	0.293321
C151	C	1.014559	1.380009	0.336180
C152	C	0.870087	1.439355	0.389026
H153	H	0.770683	1.755866	0.363550
H154	H	1.022100	1.652588	0.271584
H155	H	1.176979	1.413894	0.254202
H156	H	1.080440	1.278470	0.328786
H157	H	0.829023	1.381749	0.420752
H158	H	0.569066	1.787790	0.587182
C159	C	1.431497	0.453874	-0.601106
C160	C	1.474721	0.442617	-0.723305
C161	C	1.436056	0.383204	-0.776204
C162	C	1.354168	0.335047	-0.706905
C163	C	1.310939	0.346303	-0.584699
C164	C	1.349604	0.405716	-0.531800
H165	H	1.535344	0.478266	-0.774611
H166	H	1.468058	0.374872	-0.866670
H167	H	1.325546	0.291066	-0.746064
H168	H	1.250316	0.310653	-0.533393
H169	H	1.317603	0.414048	-0.441334
H170	H	1.569176	0.665167	-0.412880
H171	H	0.330778	1.885670	0.674380
H172	H	1.005327	1.298112	-0.412880
C173	C	0.404322	1.267312	0.724562
C174	C	0.338205	1.410887	0.759926
C175	C	0.285318	1.483595	0.877580
C176	C	0.298550	1.412727	0.959871
C177	C	0.364671	1.269144	0.924508
C178	C	0.417557	1.196436	0.806854
H179	H	0.328407	1.463355	0.699008
H180	H	0.236371	1.589885	0.903758
H181	H	0.259400	1.466549	1.046966
H182	H	0.374468	1.216676	0.985426
H183	H	0.466504	1.090146	0.780677
H184	H	0.569209	0.958944	-0.151181
C185	C	0.404363	0.989682	0.477250
C186	C	0.298597	0.989670	0.583010
C187	C	0.245729	0.916950	0.571117
C188	C	0.298627	0.844240	0.453464
C189	C	0.404398	0.844249	0.347696
C190	C	0.457266	0.916970	0.359589
H191	H	0.259434	1.043497	0.670112
H192	H	0.167430	0.916944	0.649415
H193	H	0.259490	0.790408	0.444661
H194	H	0.443561	0.790423	0.260594
H195	H	0.535565	0.916976	0.281291
H196	H	1.743632	0.469386	-0.587321
H197	H	1.005303	1.298117	-0.587297
H198	H	1.005294	0.958940	-0.412844
H199	H	1.005286	0.958950	-0.587283
H200	H	1.679838	0.371437	-0.674583
H201	H	0.330794	1.885621	-0.000019
H202	H	0.441444	1.591891	0.151024
H203	H	1.569216	0.665122	-0.151187
H204	H	1.267008	0.665162	0.150985
H205	H	0.441441	1.591894	0.412717
H206	H	1.679725	0.371434	-0.000046
