data_functionalizedCrystal
_audit_creation_method	'MofGen! by Chris Wilmer'
_symmetry_space_group_name_H-M	'P1'
_symmetry_Int_Tables_number	1
_symmetry_cell_setting	triclinic
loop_
_symmetry_equiv_pos_as_xyz
  x,y,z
_cell_length_a	14.044220
_cell_length_b	12.811442
_cell_length_c	12.503552
_cell_angle_alpha	88.119432
_cell_angle_beta	86.160109
_cell_angle_gamma	88.597742
loop_
_atom_site_label
_atom_site_type_symbol
_atom_site_fract_x
_atom_site_fract_y
_atom_site_fract_z
O1	O	1.265619	0.246098	-0.113171
O2	O	0.989561	0.237017	-0.112314
O3	O	1.133630	0.090332	-0.098009
O4	O	1.121550	0.392783	-0.127477
O5	O	1.122782	0.101373	0.079557
O6	O	0.978713	0.248058	0.065252
O7	O	1.254771	0.257139	0.064394
Cu8	Cu	1.115752	0.253606	0.081036
Cu9	Cu	1.128580	0.240549	-0.128956
O10	O	1.110703	0.403824	0.050089
C11	C	1.127195	0.056911	-0.005434
C12	C	1.124172	-0.059122	0.005863
C13	C	0.948783	0.238563	-0.023148
C14	C	0.843440	0.226707	-0.022003
C15	C	1.114002	-0.216650	0.118576
C16	C	1.116839	-0.107626	0.107963
C17	C	1.128665	-0.119649	-0.085630
C18	C	1.125828	-0.228673	-0.075017
C19	C	1.118498	-0.277170	0.027089
C20	C	1.115668	-0.386196	0.037701
C21	C	1.127487	-0.398216	-0.155891
C22	C	1.130324	-0.289192	-0.166504
C23	C	0.650562	0.205035	-0.019871
C24	C	0.593765	0.289116	-0.028058
C25	C	0.486441	0.277057	-0.026871
C26	C	0.757896	0.217092	-0.021057
C27	C	1.295549	0.255593	-0.024774
C28	C	1.400892	0.267448	-0.025926
C29	C	1.117137	0.437244	-0.042488
C30	C	1.120161	0.553277	-0.053793
N31	N	1.106736	0.262790	0.228733
N32	N	1.137603	0.231358	-0.276652
C33	C	1.150861	0.217844	0.505550
C34	C	1.093482	0.276300	0.446525
C35	C	1.100858	0.268781	0.325334
C36	C	1.143486	0.225362	0.626751
H37	H	1.109701	-0.425680	0.120841
C38	C	1.224710	0.142618	0.450871
H39	H	1.259742	0.106924	0.503840
H40	H	1.267205	0.181176	0.403243
H41	H	1.192735	0.093332	0.411802
H42	H	1.131150	-0.447503	-0.230387
H43	H	1.108040	-0.256137	0.201715
C44	C	1.138391	-0.235845	-0.278814
H45	H	1.140659	-0.287506	-0.331780
H46	H	1.194955	-0.196376	-0.286695
H47	H	1.084524	-0.190755	-0.287261
H48	H	0.625742	0.370156	-0.035959
H49	H	1.113169	-0.058355	0.182461
H50	H	1.038818	0.331994	0.487009
C51	C	0.607371	0.095562	-0.009211
H52	H	0.539857	0.101717	-0.009815
H53	H	0.624021	0.062558	0.056293
H54	H	0.631571	0.054878	-0.067559
C55	C	1.136719	-0.066290	-0.197934
H56	H	1.137765	0.007308	-0.191147
H57	H	1.083471	-0.083817	-0.236244
H58	H	1.193903	-0.089431	-0.235692
