data_functionalizedCrystal
_audit_creation_method	'MofGen! by Chris Wilmer'
_symmetry_space_group_name_H-M	'P1'
_symmetry_Int_Tables_number	1
_symmetry_cell_setting	triclinic
loop_
_symmetry_equiv_pos_as_xyz
  x,y,z
_cell_length_a	17.077404
_cell_length_b	29.839125
_cell_length_c	17.077402
_cell_angle_alpha	89.984422
_cell_angle_beta	90.023108
_cell_angle_gamma	89.987843
loop_
_atom_site_label
_atom_site_type_symbol
_atom_site_fract_x
_atom_site_fract_y
_atom_site_fract_z
Zn1	Zn	1.199998	-0.254014	-0.312613
Zn2	Zn	1.699998	0.245986	0.187387
Zn3	Zn	1.199922	-0.178887	-0.443856
Zn4	Zn	1.699922	0.321113	0.056144
Zn5	Zn	1.068746	-0.178896	-0.312608
Zn6	Zn	1.568746	0.321104	0.187392
Zn7	Zn	1.068698	-0.253988	-0.443842
Zn8	Zn	1.568698	0.246012	0.056158
O9	O	1.134341	-0.216446	-0.378230
O10	O	1.634341	0.283554	0.121770
O11	O	1.309835	-0.244055	-0.330031
O12	O	1.809835	0.255945	0.169969
O13	O	1.182510	-0.116021	-0.426449
O14	O	1.682510	0.383979	0.073551
O15	O	1.086209	-0.188876	-0.202762
O16	O	1.586209	0.311124	0.297238
O17	O	1.309779	-0.188859	-0.426454
O18	O	1.809779	0.311141	0.073546
O19	O	1.182639	-0.244064	-0.202766
O20	O	1.682639	0.255936	0.297234
O21	O	1.086136	-0.116028	-0.330023
O22	O	1.586136	0.383972	0.169977
O23	O	0.958893	-0.188851	-0.330009
O24	O	1.458893	0.311149	0.169991
O25	O	1.086126	-0.316859	-0.426430
O26	O	1.586126	0.183141	0.073570
O27	O	0.958857	-0.244020	-0.426425
O28	O	1.458857	0.255980	0.073575
O29	O	1.182592	-0.316878	-0.330017
O30	O	1.682592	0.183122	0.169983
O31	O	1.182462	-0.188834	-0.553701
O32	O	1.682462	0.311166	-0.053701
O33	O	1.086052	-0.244011	-0.553691
O34	O	1.586052	0.255989	-0.053691
C35	C	0.930393	-0.216434	-0.378216
C36	C	1.430393	0.283566	0.121784
C37	C	0.843143	-0.216439	-0.378228
C38	C	1.343143	0.283561	0.121772
C39	C	0.802155	-0.245120	-0.428508
C40	C	1.302155	0.254880	0.071492
C41	C	0.720174	-0.245127	-0.428510
C42	C	1.220174	0.254873	0.071490
C43	C	0.679184	-0.216451	-0.378235
C44	C	1.179184	0.283549	0.121765
C45	C	0.720178	-0.187769	-0.327950
C46	C	1.220178	0.312231	0.172050
C47	C	0.802157	-0.187764	-0.327945
C48	C	1.302157	0.312236	0.172055
C49	C	0.549308	-0.187780	-0.327965
C50	C	1.049308	0.312220	0.172035
C51	C	0.467323	-0.187784	-0.327971
C52	C	0.967323	0.312216	0.172029
C53	C	0.467325	-0.245142	-0.428530
C54	C	0.967325	0.254858	0.071470
C55	C	0.549304	-0.245138	-0.428525
C56	C	1.049304	0.254862	0.071475
C57	C	0.590293	-0.216455	-0.378241
C58	C	1.090293	0.283545	0.121759
C59	C	1.134362	-0.333625	-0.378223
C60	C	1.634362	0.166375	0.121777
C61	C	1.134371	-0.383559	-0.378220
C62	C	1.634371	0.116441	0.121780
C63	C	1.184654	-0.693216	-0.327886
C64	C	1.684654	-0.193216	0.172114
C65	C	1.184693	-0.880889	-0.327819
C66	C	1.684693	-0.380889	0.172181
O67	O	1.227386	-0.905165	-0.285098
O68	O	1.727386	-0.405165	0.214902
N69	N	1.134475	-0.904344	-0.378010
N70	N	1.634475	-0.404344	0.121990
C71	C	1.084241	-0.880879	-0.428217
C72	C	1.584241	-0.380879	0.071783
O73	O	1.041523	-0.905136	-0.470899
O74	O	1.541523	-0.405136	0.029101
C75	C	1.084199	-0.693207	-0.428279
C76	C	1.584199	-0.193207	0.071721
C77	C	1.134425	-0.669753	-0.378091
C78	C	1.634425	-0.169753	0.121909
C79	C	1.234875	-0.669762	-0.277702
C80	C	1.734875	-0.169762	0.222298
C81	C	1.234868	-0.622847	-0.277722
C82	C	1.734868	-0.122847	0.222278
C83	C	1.184639	-0.599385	-0.327927
C84	C	1.684639	-0.099385	0.172073
C85	C	1.134418	-0.622838	-0.378111
C86	C	1.634418	-0.122838	0.121889
C87	C	1.033961	-0.669742	-0.478481
C88	C	1.533961	-0.169742	0.021519
C89	C	1.033953	-0.622821	-0.478491
C90	C	1.533953	-0.122821	0.021509
C91	C	1.084180	-0.599368	-0.428303
C92	C	1.584180	-0.099368	0.071697
C93	C	1.084182	-0.552460	-0.428336
C94	C	1.584182	-0.052460	0.071664
N95	N	1.134399	-0.529005	-0.378146
N96	N	1.634399	-0.029005	0.121854
C97	C	1.184628	-0.552467	-0.327941
C98	C	1.684628	-0.052467	0.172059
C99	C	1.084268	-0.979410	-0.428181
C100	C	1.584268	-0.479410	0.071819
C101	C	1.084279	-1.026327	-0.428167
C102	C	1.584279	-0.526327	0.071833
C103	C	1.184730	-1.026334	-0.327768
C104	C	1.684730	-0.526334	0.172232
C105	C	1.184722	-0.979415	-0.327787
C106	C	1.684722	-0.479415	0.172213
C107	C	1.134485	-0.955954	-0.377991
C108	C	1.634485	-0.455954	0.122009
C109	C	1.184609	-0.453941	-0.327988
C110	C	1.684609	0.046059	0.172012
C111	C	1.184600	-0.407021	-0.328015
C112	C	1.684600	0.092979	0.171985
C113	C	1.084146	-0.407019	-0.428410
C114	C	1.584146	0.092981	0.071590
C115	C	1.084158	-0.453934	-0.428387
C116	C	1.584158	0.046066	0.071613
C117	C	1.134392	-0.477394	-0.378169
C118	C	1.634392	0.022606	0.121831
O119	O	1.041504	-0.528156	-0.471029
O120	O	1.541504	-0.028156	0.028971
O121	O	1.227327	-0.528202	-0.285253
O122	O	1.727327	-0.028202	0.214747
C123	C	1.184661	-0.740131	-0.327866
C124	C	1.684661	-0.240131	0.172134
C125	C	1.134439	-0.763584	-0.378050
C126	C	1.634439	-0.263584	0.121950
C127	C	1.084210	-0.740122	-0.428255
C128	C	1.584210	-0.240122	0.071745
C129	C	1.134451	-0.810502	-0.378036
C130	C	1.634451	-0.310502	0.121964
C131	C	1.184679	-0.833964	-0.327831
C132	C	1.684679	-0.333964	0.172169
C133	C	1.234897	-0.810509	-0.277641
C134	C	1.734897	-0.310509	0.222359
C135	C	1.234890	-0.763593	-0.277661
C136	C	1.734890	-0.263593	0.222339
C137	C	1.033993	-0.763578	-0.478446
C138	C	1.533993	-0.263578	0.021554
C139	C	1.034005	-0.810493	-0.478422
C140	C	1.534005	-0.310493	0.021578
C141	C	1.084234	-0.833956	-0.428217
C142	C	1.584234	-0.333956	0.071783
C143	C	1.339085	-0.216459	-0.378245
C144	C	1.839085	0.283541	0.121755
C145	C	1.426335	-0.216464	-0.378251
C146	C	1.926335	0.283536	0.121749
C147	C	1.134265	-0.216428	-0.582178
C148	C	1.634265	0.283572	-0.082178
C149	C	1.134304	-0.216436	-0.669428
C150	C	1.634304	0.283564	-0.169428
C151	C	1.134365	-0.099724	-0.378180
C152	C	1.634365	0.400276	0.121820
C153	C	1.134508	-0.049790	-0.377962
C154	C	1.634508	0.450210	0.122038
C155	C	1.184556	-0.187736	-0.710397
C156	C	1.684556	0.312264	-0.210397
C157	C	1.184595	-0.187748	-0.792377
C158	C	1.684595	0.312252	-0.292377
C159	C	1.134377	-0.216457	-0.833387
C160	C	1.634377	0.283543	-0.333387
C161	C	1.084123	-0.245159	-0.792412
C162	C	1.584123	0.254841	-0.292412
C163	C	1.084089	-0.245150	-0.710433
C164	C	1.584089	0.254850	-0.210433
C165	C	1.084195	-0.245177	-0.963282
C166	C	1.584195	0.254823	-0.463282
C167	C	1.084228	-0.245186	-1.045266
C168	C	1.584228	0.254814	-0.545266
C169	C	1.184701	-0.187774	-1.045226
C170	C	1.684701	0.312226	-0.545226
C171	C	1.184667	-0.187765	-0.963247
C172	C	1.684667	0.312235	-0.463247
C173	C	1.134412	-0.216467	-0.922278
C174	C	1.634412	0.283533	-0.422278
C175	C	1.134438	-0.216474	-0.173486
C176	C	1.634438	0.283526	0.326514
C177	C	1.134480	-0.216486	-0.086236
C178	C	1.634480	0.283514	0.413764
H179	H	1.225512	-0.473036	-0.287094
H180	H	1.725512	0.026964	0.212906
C181	C	1.290107	-0.597052	-0.222507
C182	C	1.790107	-0.097052	0.277493
H183	H	1.282918	-0.565748	-0.229703
H184	H	1.782918	-0.065748	0.270297
H185	H	1.278640	-0.604747	-0.169765
H186	H	1.778640	-0.104747	0.330235
H187	H	1.342848	-0.604745	-0.233998
H188	H	1.842848	-0.104745	0.266002
H189	H	0.433951	-0.164439	-0.287024
H190	H	0.933951	0.335561	0.212976
H191	H	0.582678	-0.164427	-0.287011
H192	H	1.082678	0.335573	0.212989
C193	C	0.675094	-0.156226	-0.272646
C194	C	1.175094	0.343774	0.227354
H195	H	0.711249	-0.139147	-0.242695
H196	H	1.211249	0.360853	0.257305
H197	H	0.643093	-0.136622	-0.302621
H198	H	1.143093	0.363378	0.197379
H199	H	0.643136	-0.173452	-0.238489
H200	H	1.143136	0.326548	0.261511
C201	C	1.029036	-1.052121	-0.483379
C202	C	1.529036	-0.552121	0.016621
H203	H	0.999117	-1.031424	-0.513273
H204	H	1.499117	-0.531424	-0.013273
H205	H	1.059045	-1.070424	-0.517580
H206	H	1.559045	-0.570424	-0.017580
H207	H	0.994847	-1.070422	-0.453338
H208	H	1.494847	-0.570422	0.046662
C209	C	1.239982	-1.052148	-0.272546
C210	C	1.739982	-0.552148	0.227454
H211	H	1.232789	-1.083449	-0.279728
H212	H	1.732789	-0.583449	0.220272
H213	H	1.292719	-1.044462	-0.284036
H214	H	1.792719	-0.544462	0.215964
H215	H	1.228511	-1.044464	-0.219802
H216	H	1.728511	-0.544464	0.280198
C217	C	1.239798	-0.156156	-0.665294
C218	C	1.739798	0.343844	-0.165294
H219	H	1.269737	-0.139069	-0.701438
H220	H	1.769737	0.360931	-0.201438
H221	H	1.209785	-0.136562	-0.633353
H222	H	1.709785	0.363438	-0.133353
H223	H	1.273969	-0.173360	-0.633274
H224	H	1.773969	0.326640	-0.133274
C225	C	1.239868	-0.156176	-0.837441
C226	C	1.739868	0.343824	-0.337441
H227	H	1.269763	-0.139072	-0.801276
H228	H	1.769763	0.360928	-0.301276
H229	H	1.274066	-0.173380	-0.869378
H230	H	1.774066	0.326620	-0.369378
H231	H	1.209870	-0.136589	-0.869461
H232	H	1.709870	0.363411	-0.369461
H233	H	0.835524	-0.268470	-0.469450
H234	H	1.335524	0.231530	0.030550
C235	C	1.028813	-0.276720	-0.665366
C236	C	1.528813	0.223280	-0.165366
H237	H	0.998906	-0.293818	-0.701530
H238	H	1.498906	0.206182	-0.201530
H239	H	1.058807	-0.296306	-0.633347
H240	H	1.558807	0.203694	-0.133347
H241	H	0.994615	-0.259513	-0.633427
H242	H	1.494615	0.240487	-0.133427
C243	C	1.029005	-0.953608	-0.483411
C244	C	1.529005	-0.453608	0.016589
H245	H	0.999108	-0.974301	-0.513300
H246	H	1.499108	-0.474301	-0.013300
H247	H	0.994809	-0.935306	-0.453391
H248	H	1.494809	-0.435306	0.046609
H249	H	1.059012	-0.935305	-0.517628
H250	H	1.559012	-0.435305	-0.017628
C251	C	1.239846	-0.381225	-0.272801
C252	C	1.739846	0.118775	0.227199
H253	H	1.269754	-0.401921	-0.242893
H254	H	1.769754	0.098079	0.257107
H255	H	1.274034	-0.362923	-0.302834
H256	H	1.774034	0.137077	0.197166
H257	H	1.209826	-0.362923	-0.238601
H258	H	1.709826	0.137077	0.261399
C259	C	0.978739	-0.737776	-0.533675
C260	C	1.478739	-0.237776	-0.033675
H261	H	0.948840	-0.758468	-0.563563
H262	H	1.448840	-0.258468	-0.063563
H263	H	0.944545	-0.719471	-0.503658
H264	H	1.444545	-0.219471	-0.003658
H265	H	1.008751	-0.719476	-0.567893
H266	H	1.508751	-0.219476	-0.067893
H267	H	1.043267	-0.473031	-0.469261
H268	H	1.543267	0.026969	0.030739
H269	H	1.043275	-0.268551	-0.929927
H270	H	1.543275	0.231449	-0.429927
H271	H	0.686805	-0.268481	-0.469454
H272	H	1.186805	0.231519	0.030546
H273	H	0.993061	-0.688830	-0.519350
H274	H	1.493061	-0.188830	-0.019350
C275	C	1.290136	-0.695564	-0.222476
C276	C	1.790136	-0.195564	0.277524
H277	H	1.320044	-0.674870	-0.192600
H278	H	1.820044	-0.174870	0.307400
H279	H	1.260142	-0.713869	-0.188259
H280	H	1.760142	-0.213869	0.311741
H281	H	1.324335	-0.713863	-0.252507
H282	H	1.824335	-0.213863	0.247493
C283	C	1.239972	-0.156197	-1.090289
C284	C	1.739972	0.343803	-0.590289
H285	H	1.232804	-0.160315	-1.144986
H286	H	1.732804	0.339685	-0.644986
H287	H	1.228501	-0.126007	-1.076883
H288	H	1.728501	0.373993	-0.576883
H289	H	1.292707	-0.162793	-1.076809
H290	H	1.792707	0.337207	-0.576809
H291	H	0.835528	-0.164412	-0.286998
H292	H	1.335528	0.335588	0.213002
C293	C	0.594393	-0.276681	-0.483825
C294	C	1.094393	0.223319	0.016175
H295	H	0.558242	-0.293767	-0.513768
H296	H	1.058242	0.206233	-0.013768
H297	H	0.626354	-0.259459	-0.517978
H298	H	1.126354	0.240541	-0.017978
H299	H	0.626391	-0.296285	-0.453839
H300	H	1.126391	0.203715	0.046161
H301	H	0.993035	-0.603721	-0.519366
H302	H	1.493035	-0.103721	-0.019366
C303	C	1.239962	-0.953621	-0.272573
C304	C	1.739962	-0.453621	0.227427
H305	H	1.269871	-0.974318	-0.242670
H306	H	1.769871	-0.474318	0.257330
H307	H	1.274147	-0.935315	-0.302601
H308	H	1.774147	-0.435315	0.197399
H309	H	1.209939	-0.935322	-0.238368
H310	H	1.709939	-0.435322	0.261632
C311	C	1.028895	-0.381205	-0.483627
C312	C	1.528895	0.118795	0.016373
H313	H	1.036082	-0.349904	-0.476440
H314	H	1.536082	0.150096	0.023560
H315	H	1.040349	-0.388889	-0.536371
H316	H	1.540349	0.111111	-0.036371
H317	H	0.976158	-0.388890	-0.472121
H318	H	1.476158	0.111110	0.027879
H319	H	1.043238	-0.268537	-0.825808
H320	H	1.543238	0.231463	-0.325808
C321	C	1.028999	-0.276770	-1.090376
C322	C	1.528999	0.223230	-0.590376
H323	H	0.999074	-0.293868	-1.054236
H324	H	1.499074	0.206132	-0.554236
H325	H	0.994828	-0.259575	-1.122400
H326	H	1.494828	0.240425	-0.622400
H327	H	1.059031	-0.296362	-1.122312
H328	H	1.559031	0.203638	-0.622312
H329	H	1.225555	-0.164385	-0.929858
H330	H	1.725555	0.335615	-0.429858
H331	H	0.433949	-0.268498	-0.469472
H332	H	0.933949	0.231502	0.030528
H333	H	1.275797	-0.829620	-0.236765
H334	H	1.775797	-0.329620	0.263235
C335	C	0.978751	-0.836287	-0.533631
C336	C	1.478751	-0.336287	-0.033631
H337	H	0.948833	-0.815590	-0.563526
H338	H	1.448833	-0.315590	-0.063526
H339	H	1.008754	-0.854594	-0.567833
H340	H	1.508754	-0.354594	-0.067833
H341	H	0.944562	-0.854584	-0.503584
H342	H	1.444562	-0.354584	-0.003584
H343	H	1.275789	-0.744502	-0.236793
H344	H	1.775789	-0.244502	0.263207
