data_functionalizedCrystal
_audit_creation_method	'MofGen! by Chris Wilmer'
_symmetry_space_group_name_H-M	'P1'
_symmetry_Int_Tables_number	1
_symmetry_cell_setting	triclinic
loop_
_symmetry_equiv_pos_as_xyz
  x,y,z
_cell_length_a	10.654550
_cell_length_b	10.540539
_cell_length_c	9.730223
_cell_angle_alpha	89.997733
_cell_angle_beta	89.999957
_cell_angle_gamma	84.505211
loop_
_atom_site_label
_atom_site_type_symbol
_atom_site_fract_x
_atom_site_fract_y
_atom_site_fract_z
O1	O	1.667902	0.178301	-0.114180
O2	O	1.302429	0.195288	-0.114205
O3	O	1.493504	0.002085	-0.114190
O4	O	1.476827	0.371504	-0.114195
O5	O	1.493491	0.002079	0.114390
O6	O	1.302417	0.195282	0.114375
O7	O	1.667889	0.178295	0.114400
Zn8	Zn	1.485151	0.186788	0.150679
Zn9	Zn	1.485167	0.186795	-0.150484
O10	O	1.476815	0.371498	0.114385
C11	C	1.255625	0.194038	0.000082
C12	C	1.116180	0.190306	0.000072
C13	C	1.036735	0.304061	0.000075
C14	C	0.905712	0.300547	0.000099
C15	C	0.933594	0.069513	0.000112
C16	C	1.064614	0.073029	0.000098
C17	C	1.492247	-0.045221	0.000097
C18	C	1.488505	-0.186167	0.000090
C19	C	1.345134	-0.369543	-0.000433
C20	C	1.348927	-0.222926	0.000082
C21	C	1.555670	-0.247852	0.130624
C22	C	1.550906	-0.394395	0.130734
C23	C	1.553759	-0.394908	-0.129204
C24	C	1.555044	-0.247927	-0.130930
C25	C	1.714694	0.179545	0.000110
C26	C	1.854139	0.183277	0.000110
C27	C	1.478072	0.418804	0.000095
C28	C	1.481813	0.559750	0.000093
N29	N	1.485149	0.186782	0.356216
N30	N	1.485179	0.186791	-0.356021
C31	C	1.569786	0.101269	0.428148
C32	C	1.569799	0.101269	0.572031
C33	C	1.400533	0.272309	0.572037
C34	C	1.400516	0.272301	0.428156
H35	H	1.296078	-0.180301	-0.093491
H36	H	1.638716	0.031634	0.630595
N37	N	0.877985	-0.056979	0.000118
H38	H	0.906888	-0.106867	0.084853
H39	H	0.782939	-0.041849	0.000070
N40	N	1.309221	0.364546	0.350574
H41	H	1.357702	0.421202	0.290861
H42	H	1.253197	0.315414	0.290975
N43	N	1.150314	-0.049670	0.000111
H44	H	1.097768	-0.124498	0.000122
H45	H	1.205281	-0.053247	-0.084627
N46	N	1.691448	-0.218310	0.137104
H47	H	1.748626	-0.300462	0.135829
H48	H	1.710683	-0.164486	0.055277
N49	N	1.092356	0.430547	0.000046
H50	H	1.022141	0.502075	0.000053
H51	H	1.146120	0.437040	0.084775
N52	N	0.820023	0.423239	0.000178
H53	H	0.872576	0.498062	0.000185
H54	H	0.765011	0.426858	-0.084527
N55	N	1.272096	-0.407402	-0.124421
H56	H	1.194524	-0.447465	-0.093274
H57	H	1.246023	-0.329305	-0.181554
N58	N	1.309271	0.364548	0.649644
H59	H	1.324532	0.454782	0.624588
H60	H	1.220043	0.348979	0.624596
N61	N	1.272379	-0.409519	0.122855
H62	H	1.327571	-0.473233	0.179047
H63	H	1.245684	-0.332272	0.181034
N64	N	1.278435	-0.167575	0.124230
H65	H	1.187997	-0.188611	0.120210
H66	H	1.319571	-0.205062	0.210521
H67	H	1.651289	-0.442400	0.136663
N68	N	1.661062	0.009034	0.350552
H69	H	1.714679	-0.045140	0.417959
H70	H	1.612477	-0.047544	0.290868
H71	H	1.501258	-0.422579	0.228305
N72	N	1.493880	-0.191398	0.259296
H73	H	1.422394	-0.125882	0.233331
H74	H	1.459915	-0.261224	0.315246
N75	N	1.689846	-0.215902	-0.141362
H76	H	1.748443	-0.297100	-0.140196
H77	H	1.701516	-0.168460	-0.229927
N78	N	1.493929	-0.436671	-0.260259
H79	H	1.541552	-0.406581	-0.341913
H80	H	1.496839	-0.532712	-0.261960
H81	H	1.505901	-0.207048	-0.227496
H82	H	1.654576	-0.442170	-0.130075
