data_functionalizedCrystal
_audit_creation_method	'MofGen! by Chris Wilmer'
_symmetry_space_group_name_H-M	'P1'
_symmetry_Int_Tables_number	1
_symmetry_cell_setting	triclinic
loop_
_symmetry_equiv_pos_as_xyz
  x,y,z
_cell_length_a	15.995350
_cell_length_b	14.519709
_cell_length_c	12.996460
_cell_angle_alpha	90.007090
_cell_angle_beta	90.001937
_cell_angle_gamma	83.586260
loop_
_atom_site_label
_atom_site_type_symbol
_atom_site_fract_x
_atom_site_fract_y
_atom_site_fract_z
O1	O	-1.111165	-0.118875	-0.085482
O2	O	-0.611165	0.381125	0.414518
O3	O	-0.867411	-0.133554	-0.085503
O4	O	-0.367411	0.366446	0.414497
O5	O	-0.995751	0.008036	-0.085483
O6	O	-0.495751	0.508036	0.414517
O7	O	-0.982825	-0.260465	-0.085502
O8	O	-0.482825	0.239535	0.414498
O9	O	-0.995737	0.008044	0.085651
O10	O	-0.495737	0.508044	0.585651
O11	O	-0.867398	-0.133546	0.085630
O12	O	-0.367398	0.366454	0.585630
O13	O	-1.111151	-0.118867	0.085652
O14	O	-0.611151	0.381133	0.585652
Cu15	Cu	-0.989273	-0.126206	0.101267
Cu16	Cu	-0.489273	0.373794	0.601267
Cu17	Cu	-0.989289	-0.126215	-0.101118
Cu18	Cu	-0.489289	0.373785	0.398882
O19	O	-0.982812	-0.260457	0.085631
O20	O	-0.482812	0.239543	0.585631
C21	C	-0.995142	0.042398	0.000084
C22	C	-0.495142	0.542398	0.500084
C23	C	-0.993337	0.144776	0.000085
C24	C	-0.493337	0.644776	0.500085
C25	C	-0.836209	-0.132943	0.000061
C26	C	-0.336209	0.367057	0.500061
C27	C	-0.743256	-0.131124	0.000053
C28	C	-0.243256	0.368876	0.500053
C29	C	-1.142354	-0.119478	0.000085
C30	C	-0.642354	0.380522	0.500085
C31	C	-1.235307	-0.121297	0.000087
C32	C	-0.735307	0.378703	0.500087
C33	C	-0.405499	-0.124590	0.000075
C34	C	0.094501	0.375410	0.500075
C35	C	-0.452782	-0.023752	0.000464
C36	C	0.047218	0.476248	0.500464
C37	C	-0.549475	-0.025572	0.000071
C38	C	-0.049475	0.474428	0.500071
C39	C	-0.573064	-0.127831	0.000065
C40	C	-0.073064	0.372169	0.500065
C41	C	-0.532059	-0.177572	-0.097661
C42	C	-0.032059	0.322428	0.402339
C43	C	-0.435419	-0.175039	-0.097735
C44	C	0.064581	0.324961	0.402265
C45	C	-0.435068	-0.177113	0.096876
C46	C	0.064932	0.322887	0.596876
C47	C	-0.532014	-0.177089	0.098160
C48	C	-0.032014	0.322911	0.598160
C49	C	-0.667764	-0.129668	0.000055
C50	C	-0.167764	0.370332	0.500055
C51	C	-0.310798	-0.122756	0.000077
C52	C	0.189202	0.377244	0.500077
C53	C	-0.983421	-0.294819	0.000062
C54	C	-0.483421	0.205181	0.500062
C55	C	-0.985226	-0.397197	0.000055
C56	C	-0.485226	0.102803	0.500055
N57	N	-0.989268	-0.126199	0.243614
N58	N	-0.489268	0.373801	0.743614
C59	C	-0.986691	0.519660	0.000057
C60	C	-0.486691	1.019660	0.500057
C61	C	-0.988537	0.415355	0.000065
C62	C	-0.488537	0.915355	0.500065
C63	C	-0.990014	0.332221	0.000072
C64	C	-0.490014	0.832221	0.500072
C65	C	-0.991859	0.227910	0.000078
C66	C	-0.491859	0.727910	0.500078
N67	N	-0.989301	-0.126215	-0.243466
N68	N	-0.489301	0.373785	0.256534
C69	C	-0.989288	-0.126216	0.663428
C70	C	-0.489288	0.373784	1.163428
C71	C	-0.989280	-0.126214	0.546623
C72	C	-0.489280	0.373786	1.046623
C73	C	-0.989279	-0.126208	0.453525
C74	C	-0.489279	0.373792	0.953525
C75	C	-0.989270	-0.126205	0.336712
C76	C	-0.489270	0.373795	0.836712
H77	H	-0.577839	0.013527	0.070125
H78	H	-0.077839	0.513527	0.570125
C79	C	-0.570317	-0.130908	-0.195908
C80	C	-0.070317	0.369092	0.304092
H81	H	-0.611268	-0.081120	-0.177581
H82	H	-0.111268	0.418880	0.322419
H83	H	-0.596120	-0.174956	-0.235450
H84	H	-0.096120	0.325044	0.264550
H85	H	-0.527160	-0.107839	-0.235296
H86	H	-0.027160	0.392161	0.264704
H87	H	-0.434194	0.016558	0.070547
H88	H	0.065806	0.516558	0.570547
H89	H	-0.433133	0.016366	-0.069227
H90	H	0.066867	0.516366	0.430773
H91	H	-0.547490	-0.251660	0.104058
H92	H	-0.047490	0.248340	0.604058
H93	H	-0.546297	-0.252699	-0.101299
H94	H	-0.046297	0.247301	0.398701
C95	C	-0.410617	-0.126040	-0.196408
C96	C	0.089383	0.373960	0.303592
H97	H	-0.459581	-0.107862	-0.236068
H98	H	0.040419	0.392138	0.263932
H99	H	-0.372707	-0.167243	-0.235481
H100	H	0.127293	0.332757	0.264519
H101	H	-0.384275	-0.072767	-0.178546
H102	H	0.115725	0.427233	0.321454
C103	C	-0.407255	-0.132578	0.196943
C104	C	0.092745	0.367422	0.696943
H105	H	-0.377347	-0.081527	0.180619
H106	H	0.122653	0.418473	0.680619
H107	H	-0.371847	-0.177077	0.235094
H108	H	0.128153	0.322923	0.735094
H109	H	-0.455417	-0.111632	0.236842
H110	H	0.044583	0.388368	0.736842
C111	C	-0.568827	-0.128037	0.195830
C112	C	-0.068827	0.371963	0.695830
H113	H	-0.609049	-0.077750	0.176916
H114	H	-0.109049	0.422250	0.676916
H115	H	-0.524896	-0.105382	0.234211
H116	H	-0.024896	0.394618	0.734211
H117	H	-0.595267	-0.170720	0.236610
H118	H	-0.095267	0.329280	0.736610
C119	C	-0.391996	-0.275044	-0.103742
C120	C	0.108004	0.224956	0.396258
H121	H	-0.332695	-0.274175	-0.103822
H122	H	0.167305	0.225825	0.396178
H123	H	-0.408634	-0.303464	-0.165145
H124	H	0.091366	0.196536	0.334855
H125	H	-0.407865	-0.309186	-0.045951
H126	H	0.092135	0.190814	0.454049
H127	H	-0.577279	0.013784	-0.070099
H128	H	-0.077279	0.513784	0.429901
H129	H	-0.403418	-0.251460	0.097532
H130	H	0.096582	0.248540	0.597532
