data_functionalizedCrystal
_audit_creation_method	'MofGen! by Chris Wilmer'
_symmetry_space_group_name_H-M	'P1'
_symmetry_Int_Tables_number	1
_symmetry_cell_setting	triclinic
loop_
_symmetry_equiv_pos_as_xyz
  x,y,z
_cell_length_a	19.077236
_cell_length_b	13.897447
_cell_length_c	19.076919
_cell_angle_alpha	92.274152
_cell_angle_beta	89.887323
_cell_angle_gamma	92.312415
loop_
_atom_site_label
_atom_site_type_symbol
_atom_site_fract_x
_atom_site_fract_y
_atom_site_fract_z
Zn1	Zn	1.058313	-0.350146	-0.440553
Zn2	Zn	1.558313	0.149854	0.059447
Zn3	Zn	1.062962	-0.504728	-0.323052
Zn4	Zn	1.562962	-0.004728	0.176948
Zn5	Zn	0.945528	-0.349641	-0.318333
Zn6	Zn	1.445528	0.150359	0.181667
Zn7	Zn	0.940782	-0.517596	-0.435790
Zn8	Zn	1.440782	-0.017596	0.064210
O9	O	1.001897	-0.430528	-0.379432
O10	O	1.501897	0.069472	0.120568
O11	O	1.157263	-0.365478	-0.428934
O12	O	1.657263	0.134522	0.071066
O13	O	1.051317	-0.478558	-0.224095
O14	O	1.551317	0.021442	0.275905
O15	O	0.960530	-0.214725	-0.334565
O16	O	1.460530	0.285275	0.165435
O17	O	1.160679	-0.479048	-0.342606
O18	O	1.660679	0.020952	0.157394
O19	O	1.043392	-0.215096	-0.424359
O20	O	1.543392	0.284904	0.075641
O21	O	0.965038	-0.364616	-0.220628
O22	O	1.465038	0.135384	0.279372
O23	O	0.846565	-0.377094	-0.329946
O24	O	1.346565	0.122906	0.170054
O25	O	0.952441	-0.500981	-0.534753
O26	O	1.452441	-0.000981	-0.034753
O27	O	0.843079	-0.500490	-0.416241
O28	O	1.343079	-0.000490	0.083759
O29	O	1.038790	-0.377956	-0.538252
O30	O	1.538790	0.122044	-0.038252
O31	O	1.046715	-0.641418	-0.337988
O32	O	1.546715	-0.141418	0.162012
O33	O	0.956950	-0.650872	-0.420817
O34	O	1.456950	-0.150872	0.079183
C35	C	0.819325	-0.440135	-0.372065
C36	C	1.319325	0.059865	0.127935
C37	C	0.741220	-0.444269	-0.368930
C38	C	1.241220	0.055731	0.131070
C39	C	0.702745	-0.387183	-0.412473
C40	C	1.202745	0.112817	0.087527
C41	C	0.629357	-0.391062	-0.409521
C42	C	1.129357	0.108938	0.090479
C43	C	0.594445	-0.452033	-0.363030
C44	C	1.094445	0.047967	0.136970
C45	C	0.632925	-0.509121	-0.319483
C46	C	1.132925	-0.009121	0.180517
C47	C	0.706312	-0.505236	-0.322432
C48	C	1.206312	-0.005236	0.177568
C49	C	0.375152	-0.469977	-0.349381
C50	C	0.875152	0.030023	0.150619
C51	C	0.301760	-0.473860	-0.346438
C52	C	0.801760	0.026140	0.153562
C53	C	0.298197	-0.355800	-0.436475
C54	C	0.798197	0.144200	0.063525
C55	C	0.371586	-0.351924	-0.439422
C56	C	0.871586	0.148076	0.060578
C57	C	0.410060	-0.409008	-0.395873
C58	C	0.910060	0.090992	0.104127
N59	N	0.519430	-0.456002	-0.360014
N60	N	1.019430	0.043998	0.139986
N61	N	0.485073	-0.405034	-0.398886
N62	N	0.985073	0.094966	0.101114
C63	C	1.001840	-0.681144	-0.379414
C64	C	1.501840	-0.181144	0.120586
C65	C	1.001879	-0.788357	-0.379432
C66	C	1.501879	-0.288357	0.120568
C67	C	1.001913	-0.875426	-0.379449
C68	C	1.501913	-0.375426	0.120551
C69	C	1.001961	-0.984657	-0.379469
C70	C	1.501961	-0.484657	0.120531
C71	C	1.185181	-0.420884	-0.386828
C72	C	1.685181	0.079116	0.113172
C73	C	1.263285	-0.416775	-0.389980
C74	C	1.763285	0.083225	0.110020
C75	C	0.994568	-0.440960	-0.562712
C76	C	1.494568	0.059040	-0.062712
C77	C	0.991444	-0.445406	-0.640815
C78	C	1.491444	0.054594	-0.140815
C79	C	1.001972	-0.178932	-0.379467
C80	C	1.501972	0.321068	0.120533
C81	C	1.002004	-0.071718	-0.379482
C82	C	1.502004	0.428282	0.120518
C83	C	1.034932	-0.383445	-0.679330
C84	C	1.534932	0.116555	-0.179330
C85	C	1.031989	-0.387619	-0.752716
C86	C	1.531989	0.112381	-0.252716
C87	C	0.985561	-0.453760	-0.787585
C88	C	1.485561	0.046240	-0.287585
C89	C	0.942069	-0.515723	-0.749063
C90	C	1.442069	-0.015723	-0.249063
C91	C	0.945009	-0.511544	-0.675679
C92	C	1.445009	-0.011544	-0.175679
C93	C	0.971944	-0.473123	-1.006865
C94	C	1.471944	0.026877	-0.506865
C95	C	0.969009	-0.477300	-1.080254
C96	C	1.469009	0.022700	-0.580254
C97	C	1.058929	-0.349194	-1.083902
C98	C	1.558929	0.150806	-0.583902
C99	C	1.061868	-0.345025	-1.010516
C100	C	1.561868	0.154975	-0.510516
C101	C	1.018373	-0.406985	-0.972001
C102	C	1.518373	0.093015	-0.472001
N103	N	0.982553	-0.458030	-0.862596
N104	N	1.482553	0.041970	-0.362596
N105	N	1.021377	-0.402709	-0.896991
N106	N	1.521377	0.097291	-0.396991
C107	C	1.009237	-0.420064	-0.196867
C108	C	1.509237	0.079936	0.303133
C109	C	1.012497	-0.415339	-0.118770
C110	C	1.512497	0.084661	0.381230
H111	H	0.400006	-0.302279	-0.477282
H112	H	0.900006	0.197721	0.022718
O113	O	0.918926	-0.548634	-1.117867
O114	O	1.418926	-0.048634	-0.617867
H115	H	0.889170	-0.591010	-1.078757
H116	H	1.389170	-0.091010	-0.578757
O117	O	0.891987	-0.587057	-0.786666
O118	O	1.391987	-0.087057	-0.286666
H119	H	0.897251	-0.579561	-0.844166
H120	H	1.397251	-0.079561	-0.344166
H121	H	0.909589	-0.561990	-0.644320
H122	H	1.409589	-0.061990	-0.144320
H123	H	0.936538	-0.523589	-0.975515
H124	H	1.436538	-0.023589	-0.475515
H125	H	1.072741	-0.329590	-0.650946
H126	H	1.572741	0.170410	-0.150946
O127	O	0.740400	-0.321415	-0.462612
O128	O	1.240400	0.178585	0.037388
H129	H	0.701314	-0.282363	-0.492387
H130	H	1.201314	0.217637	0.007613
O131	O	1.078897	-0.320797	-0.794261
O132	O	1.578897	0.179203	-0.294261
H133	H	1.111683	-0.274114	-0.757687
H134	H	1.611683	0.225886	-0.257687
O135	O	0.747809	-0.566806	-0.275464
O136	O	1.247809	-0.066806	0.224536
H137	H	0.804705	-0.553853	-0.285318
H138	H	1.304705	-0.053853	0.214682
H139	H	0.598034	-0.344579	-0.444979
H140	H	1.098034	0.155421	0.055021
H141	H	0.266864	-0.309324	-0.471929
H142	H	0.766864	0.190676	0.028071
H143	H	0.406469	-0.516461	-0.313921
H144	H	0.906469	-0.016461	0.186079
O145	O	0.264100	-0.539618	-0.296287
O146	O	0.764100	-0.039618	0.203713
H147	H	0.303182	-0.578653	-0.266494
H148	H	0.803182	-0.078653	0.233506
H149	H	1.099676	-0.291169	-0.982131
H150	H	1.599676	0.208831	-0.482131
H151	H	0.604494	-0.558760	-0.281626
H152	H	1.104494	-0.058760	0.218374
H153	H	1.094339	-0.298749	-1.115268
H154	H	1.594339	0.201251	-0.615268
