data_functionalizedCrystal
_audit_creation_method	'MofGen! by Chris Wilmer'
_symmetry_space_group_name_H-M	'P1'
_symmetry_Int_Tables_number	1
_symmetry_cell_setting	triclinic
loop_
_symmetry_equiv_pos_as_xyz
  x,y,z
_cell_length_a	29.839135
_cell_length_b	25.639240
_cell_length_c	29.839126
_cell_angle_alpha	89.969504
_cell_angle_beta	89.976855
_cell_angle_gamma	90.035287
loop_
_atom_site_label
_atom_site_type_symbol
_atom_site_fract_x
_atom_site_fract_y
_atom_site_fract_z
Zn1	Zn	0.686781	-0.208156	-0.254027
Zn2	Zn	1.186781	0.291844	0.245973
Zn3	Zn	0.686714	-0.295581	-0.178889
Zn4	Zn	1.186714	0.204419	0.321111
Zn5	Zn	0.611653	-0.208166	-0.178906
Zn6	Zn	1.111653	0.291834	0.321094
Zn7	Zn	0.611623	-0.295566	-0.253986
Zn8	Zn	1.111623	0.204434	0.246014
O9	O	0.649193	-0.251867	-0.216452
O10	O	1.149193	0.248133	0.283548
O11	O	0.749639	-0.219755	-0.244071
O12	O	1.249639	0.280245	0.255929
O13	O	0.676742	-0.283996	-0.116024
O14	O	1.176742	0.216004	0.383976
O15	O	0.621660	-0.134999	-0.188895
O16	O	1.121660	0.365001	0.311105
O17	O	0.749590	-0.283986	-0.188867
O18	O	1.249590	0.216014	0.311133
O19	O	0.676856	-0.134992	-0.244087
O20	O	1.176856	0.365008	0.255913
O21	O	0.621595	-0.219772	-0.116036
O22	O	1.121595	0.280228	0.383964
O23	O	0.548782	-0.219757	-0.188855
O24	O	1.048782	0.280243	0.311145
O25	O	0.621607	-0.283960	-0.316859
O26	O	1.121607	0.216040	0.183141
O27	O	0.548759	-0.283969	-0.244016
O28	O	1.048759	0.216031	0.255984
O29	O	0.676826	-0.219740	-0.316889
O30	O	1.176826	0.280260	0.183111
O31	O	0.676712	-0.368744	-0.188827
O32	O	1.176712	0.131256	0.311173
O33	O	0.621543	-0.368733	-0.244000
O34	O	1.121543	0.131267	0.256000
C35	C	0.532470	-0.251863	-0.216433
C36	C	1.032470	0.248137	0.283567
C37	C	0.482536	-0.251874	-0.216435
C38	C	0.982536	0.248126	0.283565
C39	C	0.649129	-0.387710	-0.216417
C40	C	1.149129	0.112290	0.283583
C41	C	0.649143	-0.445824	-0.216417
C42	C	1.149143	0.054176	0.283583
C43	C	0.677947	-0.806144	-0.245242
C44	C	1.177947	-0.306144	0.254758
C45	C	0.677961	-0.860749	-0.245251
C46	C	1.177961	-0.360749	0.254749
O47	O	0.702375	-0.888949	-0.269724
O48	O	1.202375	-0.388949	0.230276
N49	N	0.649255	-0.888106	-0.216495
N50	N	1.149255	-0.388106	0.283505
C51	C	0.620531	-0.860856	-0.187732
C52	C	1.120531	-0.360856	0.312268
O53	O	0.596116	-0.889140	-0.163274
O54	O	1.096116	-0.389140	0.336726
C55	C	0.620516	-0.806253	-0.187725
C56	C	1.120516	-0.306253	0.312275
C57	C	0.649227	-0.778898	-0.216480
C58	C	1.149227	-0.278898	0.283520
C59	C	0.706655	-0.778790	-0.273995
C60	C	1.206655	-0.278790	0.226005
C61	C	0.706643	-0.724189	-0.273985
C62	C	1.206643	-0.224189	0.226015
C63	C	0.677922	-0.696943	-0.245223
C64	C	1.177922	-0.196943	0.254777
C65	C	0.649214	-0.724298	-0.216470
C66	C	1.149214	-0.224298	0.283530
C67	C	0.591790	-0.779004	-0.158964
C68	C	1.091790	-0.279004	0.341036
C69	C	0.591777	-0.724397	-0.158960
C70	C	1.091777	-0.224397	0.341040
C71	C	0.620488	-0.697043	-0.187715
C72	C	1.120488	-0.197043	0.312285
C73	C	0.620480	-0.642451	-0.187698
C74	C	1.120480	-0.142451	0.312302
N75	N	0.649186	-0.615094	-0.216454
N76	N	1.149186	-0.115094	0.283546
C77	C	0.677907	-0.642340	-0.245216
C78	C	1.177907	-0.142340	0.254784
C79	C	0.620565	-0.975527	-0.187748
C80	C	1.120565	-0.475527	0.312252
C81	C	0.620582	-1.030129	-0.187752
C82	C	1.120582	-0.530129	0.312248
C83	C	0.678011	-1.030018	-0.245272
C84	C	1.178011	-0.530018	0.254728
C85	C	0.677996	-0.975414	-0.245266
C86	C	1.177996	-0.475414	0.254734
C87	C	0.649270	-0.948169	-0.216504
C88	C	1.149270	-0.448169	0.283496
C89	C	0.677878	-0.527675	-0.245193
C90	C	1.177878	-0.027675	0.254807
C91	C	0.677864	-0.473070	-0.245179
C92	C	1.177864	0.026930	0.254821
C93	C	0.620433	-0.473186	-0.187661
C94	C	1.120433	0.026814	0.312339
C95	C	0.620449	-0.527786	-0.187673
C96	C	1.120449	-0.027786	0.312327
C97	C	0.649173	-0.555030	-0.216442
C98	C	1.149173	-0.055030	0.283558
O99	O	0.596077	-0.614216	-0.163239
O100	O	1.096077	-0.114216	0.336761
O101	O	0.702314	-0.614050	-0.269674
O102	O	1.202314	-0.114050	0.230326
C103	C	0.172915	-0.218472	-0.245239
C104	C	0.672915	0.281528	0.254761
C105	C	-0.014758	-0.218476	-0.245252
C106	C	0.485242	0.281524	0.254748
O107	O	-0.039004	-0.190065	-0.269720
O108	O	0.460996	0.309935	0.230280
N109	N	-0.038249	-0.251868	-0.216468
N110	N	0.461751	0.248132	0.283532
C111	C	-0.014819	-0.285258	-0.187678
C112	C	0.485181	0.214742	0.312322
O113	O	-0.039106	-0.313656	-0.163193
O114	O	0.460894	0.186344	0.336807
C115	C	0.172853	-0.285251	-0.187663
C116	C	0.672853	0.214749	0.312337
C117	C	0.196341	-0.251862	-0.216452
C118	C	0.696341	0.248138	0.283548
C119	C	0.196403	-0.185085	-0.274025
C120	C	0.696403	0.314915	0.225975
C121	C	0.243319	-0.185086	-0.274023
C122	C	0.743319	0.314914	0.225977
C123	C	0.266746	-0.218475	-0.245235
C124	C	0.766746	0.281525	0.254765
C125	C	0.243257	-0.251863	-0.216450
C126	C	0.743257	0.248137	0.283550
C127	C	0.196282	-0.318639	-0.158871
C128	C	0.696282	0.181361	0.341129
C129	C	0.243203	-0.318633	-0.158869
C130	C	0.743203	0.181367	0.341131
C131	C	0.266692	-0.285244	-0.187657
C132	C	0.766692	0.214756	0.312343
C133	C	0.313599	-0.285254	-0.187661
C134	C	0.813599	0.214746	0.312339
N135	N	0.337090	-0.251862	-0.216444
N136	N	0.837090	0.248138	0.283556
C137	C	0.313664	-0.218473	-0.245231
C138	C	0.813664	0.281527	0.254769
C139	C	-0.113350	-0.285260	-0.187688
C140	C	0.386650	0.214740	0.312312
C141	C	-0.160268	-0.285262	-0.187692
C142	C	0.339732	0.214738	0.312308
C143	C	-0.160204	-0.218479	-0.245266
C144	C	0.339796	0.281521	0.254734
C145	C	-0.113285	-0.218480	-0.245264
C146	C	0.386715	0.281520	0.254736
C147	C	-0.089859	-0.251868	-0.216472
C148	C	0.410141	0.248132	0.283528
C149	C	0.412189	-0.218479	-0.245226
C150	C	0.912189	0.281521	0.254774
C151	C	0.459109	-0.218485	-0.245223
C152	C	0.959109	0.281515	0.254777
C153	C	0.459040	-0.285266	-0.187648
C154	C	0.959040	0.214734	0.312352
C155	C	0.412125	-0.285262	-0.187652
C156	C	0.912125	0.214738	0.312348
C157	C	0.388701	-0.251864	-0.216443
C158	C	0.888701	0.248136	0.283557
O159	O	0.337874	-0.313645	-0.163201
O160	O	0.837874	0.186355	0.336799
O161	O	0.337958	-0.190071	-0.269706
O162	O	0.837958	0.309929	0.230294
C163	C	0.125999	-0.218471	-0.245241
C164	C	0.625999	0.281529	0.254759
C165	C	0.102511	-0.251859	-0.216455
C166	C	0.602511	0.248141	0.283545
C167	C	0.125937	-0.285248	-0.187668
C168	C	0.625937	0.214752	0.312332
C169	C	0.055593	-0.251861	-0.216459
C170	C	0.555593	0.248139	0.283541
C171	C	0.032166	-0.218472	-0.245247
C172	C	0.532166	0.281528	0.254753
C173	C	0.055657	-0.185080	-0.274030
C174	C	0.555657	0.314920	0.225970
C175	C	0.102573	-0.185082	-0.274028
C176	C	0.602573	0.314918	0.225972
C177	C	0.102446	-0.318639	-0.158884
C178	C	0.602446	0.181361	0.341116
C179	C	0.055531	-0.318636	-0.158889
C180	C	0.555531	0.181364	0.341111
C181	C	0.032104	-0.285246	-0.187676
C182	C	0.532104	0.214754	0.312324
C183	C	0.766371	-0.251871	-0.216472
C184	C	1.266371	0.248129	0.283528
C185	C	0.816305	-0.251873	-0.216480
C186	C	1.316305	0.248127	0.283520
C187	C	0.649220	-0.251847	-0.333630
C188	C	1.149220	0.248153	0.166370
C189	C	0.649232	-0.251838	-0.383565
C190	C	1.149232	0.248162	0.116435
C191	C	0.649269	-0.115494	-0.216497
C192	C	1.149269	0.384506	0.283503
C193	C	0.649301	-0.057380	-0.216516
C194	C	1.149301	0.442620	0.283484
C195	C	0.620526	-0.218345	-0.693218
C196	C	1.120526	0.281655	-0.193218
C197	C	0.620539	-0.218308	-0.880891
C198	C	1.120539	0.281692	-0.380891
O199	O	0.596110	-0.189883	-0.905163
O200	O	1.096110	0.310117	-0.405163
N201	N	0.649254	-0.251740	-0.904350
N202	N	1.149254	0.248260	-0.404350
C203	C	0.677965	-0.285186	-0.880888
C204	C	1.177965	0.214814	-0.380888
O205	O	0.702385	-0.313625	-0.905148
O206	O	1.202385	0.186375	-0.405148
C207	C	0.677950	-0.285225	-0.693216
C208	C	1.177950	0.214775	-0.193216
C209	C	0.649236	-0.251787	-0.669759
C210	C	1.149236	0.248213	-0.169759
C211	C	0.591815	-0.184910	-0.669760
C212	C	1.091815	0.315090	-0.169760
C213	C	0.591814	-0.184917	-0.622845
C214	C	1.091814	0.315083	-0.122845
C215	C	0.620524	-0.218360	-0.599387
C216	C	1.120524	0.281640	-0.099387
C217	C	0.649235	-0.251794	-0.622844
C218	C	1.149235	0.248206	-0.122844
C219	C	0.706658	-0.318673	-0.669755
C220	C	1.206658	0.181327	-0.169755
C221	C	0.706651	-0.318680	-0.622834
C222	C	1.206651	0.181320	-0.122834
C223	C	0.677938	-0.285242	-0.599377
C224	C	1.177938	0.214758	-0.099377
C225	C	0.677944	-0.285244	-0.552470
C226	C	1.177944	0.214756	-0.052470
N227	N	0.649230	-0.251812	-0.529010
N228	N	1.149230	0.248188	-0.029010
C229	C	0.620520	-0.218370	-0.552469
C230	C	1.120520	0.281630	-0.052469
C231	C	0.677972	-0.285163	-0.979419
C232	C	1.177972	0.214837	-0.479419
C233	C	0.677976	-0.285153	-1.026337
C234	C	1.177976	0.214847	-0.526337
C235	C	0.620549	-0.218275	-1.026336
C236	C	1.120549	0.281725	-0.526336
C237	C	0.620548	-0.218283	-0.979417
C238	C	1.120548	0.281717	-0.479417
C239	C	0.649257	-0.251731	-0.955960
C240	C	1.149257	0.248269	-0.455960
C241	C	0.620520	-0.218387	-0.453943
C242	C	1.120520	0.281613	0.046057
C243	C	0.620522	-0.218396	-0.407023
C244	C	1.120522	0.281604	0.092977
C245	C	0.677947	-0.285275	-0.407028
C246	C	1.177947	0.214725	0.092972
C247	C	0.677946	-0.285265	-0.453944
C248	C	1.177946	0.214735	0.046056
C249	C	0.649229	-0.251819	-0.477400
C250	C	1.149229	0.248181	0.022600
O251	O	0.702357	-0.313658	-0.528168
O252	O	1.202357	0.186342	-0.028168
O253	O	0.596096	-0.189943	-0.528201
O254	O	1.096096	0.310057	-0.028201
C255	C	0.620528	-0.218337	-0.740133
C256	C	1.120528	0.281663	-0.240133
C257	C	0.649239	-0.251772	-0.763590
C258	C	1.149239	0.248228	-0.263590
C259	C	0.677949	-0.285214	-0.740132
C260	C	1.177949	0.214786	-0.240132
C261	C	0.649243	-0.251762	-0.810508
C262	C	1.149243	0.248238	-0.310508
C263	C	0.620533	-0.218320	-0.833966
C264	C	1.120533	0.281680	-0.333966
C265	C	0.591819	-0.184888	-0.810507
C266	C	1.091819	0.315112	-0.310507
C267	C	0.591817	-0.184895	-0.763591
C268	C	1.091817	0.315105	-0.263591
C269	C	0.706663	-0.318646	-0.763591
C270	C	1.206663	0.181354	-0.263591
C271	C	0.706663	-0.318636	-0.810507
C272	C	1.206663	0.181364	-0.310507
C273	C	0.677952	-0.285193	-0.833965
C274	C	1.177952	0.214807	-0.333965
C275	C	0.649191	-0.251849	-0.099730
C276	C	1.149191	0.248151	0.400270
C277	C	0.649266	-0.251710	-0.049795
C278	C	1.149266	0.248290	0.450205
H279	H	0.701245	-0.450799	-0.268595
H280	H	1.201245	0.049201	0.231405
C281	C	-0.087895	-0.321430	-0.156374
C282	C	0.412105	0.178570	0.343626
C283	C	-0.060967	-0.291785	-0.127614
C284	C	0.439033	0.208215	0.372386
C285	C	-0.037519	-0.325088	-0.098760
C286	C	0.462481	0.174912	0.401240
H287	H	-0.069560	-0.344249	-0.173468
H288	H	0.430440	0.155751	0.326532
H289	H	-0.108594	-0.341307	-0.139210
H290	H	0.391406	0.158693	0.360790
H291	H	-0.040271	-0.271917	-0.144777
H292	H	0.459729	0.228083	0.355223
H293	H	-0.079292	-0.268967	-0.110510
H294	H	0.420708	0.231033	0.389490
H295	H	-0.058218	-0.344965	-0.081595
H296	H	0.441782	0.155035	0.418405
H297	H	-0.019186	-0.347906	-0.115857
H298	H	0.480814	0.152094	0.384143
H299	H	-0.019248	-0.304979	-0.079240
H300	H	0.480752	0.195021	0.420760
H301	H	0.262274	-0.345822	-0.135422
H302	H	0.762274	0.154178	0.364578
H303	H	0.597074	-0.550060	-0.164255
H304	H	1.097074	-0.050060	0.335745
C305	C	0.737738	-0.694429	-0.305236
C306	C	1.237738	-0.194429	0.194764
C307	C	0.712277	-0.663078	-0.333996
C308	C	1.212277	-0.163078	0.166004
C309	C	0.740907	-0.635655	-0.362790
C310	C	1.240907	-0.135655	0.137210
H311	H	0.754851	-0.718424	-0.322408
H312	H	1.254851	-0.218424	0.177592
H313	H	0.757314	-0.673090	-0.288085
H314	H	1.257314	-0.173090	0.211915
H315	H	0.692709	-0.684415	-0.351146
H316	H	1.192709	-0.184415	0.148854
H317	H	0.695164	-0.639074	-0.316837
H318	H	1.195164	-0.139074	0.183163
H319	H	0.760482	-0.614316	-0.345639
H320	H	1.260482	-0.114316	0.154361
H321	H	0.758018	-0.659654	-0.379959
H322	H	1.258018	-0.159654	0.120041
H323	H	0.723636	-0.614377	-0.382305
H324	H	1.223636	-0.114377	0.117695
H325	H	0.730041	-0.345881	-0.744496
H326	H	1.230041	0.154119	-0.244496
H327	H	0.597136	-0.191152	-0.473035
H328	H	1.097136	0.308848	0.026965
C329	C	0.737762	-0.355003	-0.695277
C330	C	1.237762	0.144997	-0.195277
C331	C	0.712313	-0.388501	-0.722204
C332	C	1.212313	0.111499	-0.222204
C333	C	0.740953	-0.421969	-0.745726
C334	C	1.240953	0.078031	-0.245726
H335	H	0.754870	-0.374970	-0.674635
H336	H	1.254870	0.125030	-0.174635
H337	H	0.757343	-0.335012	-0.713616
H338	H	1.257343	0.164988	-0.213616
H339	H	0.692740	-0.408489	-0.703866
H340	H	1.192740	0.091511	-0.203866
H341	H	0.695206	-0.368547	-0.742854
H342	H	1.195206	0.131453	-0.242854
H343	H	0.760534	-0.401979	-0.764066
H344	H	1.260534	0.098021	-0.264066
H345	H	0.758059	-0.441933	-0.725081
H346	H	1.258059	0.058067	-0.225081
H347	H	0.723690	-0.444698	-0.764002
H348	H	1.223690	0.055302	-0.264002
H349	H	0.177334	-0.157892	-0.297467
H350	H	0.677334	0.342108	0.202533
H351	H	0.730043	-0.800968	-0.297419
H352	H	1.230043	-0.300968	0.202581
C353	C	0.589268	-0.443504	-0.156484
C354	C	1.089268	0.056496	0.343516
C355	C	0.595395	-0.389831	-0.162644
C356	C	1.095395	0.110169	0.337356
C357	C	0.566686	-0.362470	-0.133939
C358	C	1.066686	0.137530	0.366061
H359	H	0.595829	-0.452403	-0.126287
H360	H	1.095829	0.047597	0.373713
H361	H	0.559072	-0.452447	-0.163038
H362	H	1.059072	0.047553	0.336962
H363	H	0.625584	-0.380891	-0.156087
H364	H	1.125584	0.119109	0.343913
H365	H	0.588830	-0.380915	-0.192835
H366	H	1.088830	0.119085	0.307165
H367	H	0.536490	-0.371414	-0.140493
H368	H	1.036490	0.128586	0.359507
H369	H	0.573250	-0.371374	-0.103743
H370	H	1.073250	0.128626	0.396257
H371	H	0.570837	-0.326050	-0.138117
H372	H	1.070837	0.173950	0.361883
C373	C	-0.087761	-0.182313	-0.276572
C374	C	0.412239	0.317687	0.223428
C375	C	-0.060833	-0.211960	-0.305324
C376	C	0.439167	0.288040	0.194676
C377	C	-0.037322	-0.178659	-0.334176
C378	C	0.462678	0.321341	0.165824
H379	H	-0.069420	-0.159490	-0.259477
H380	H	0.430580	0.340510	0.240523
H381	H	-0.108422	-0.162439	-0.293744
H382	H	0.391578	0.337561	0.206256
H383	H	-0.040175	-0.231825	-0.288155
H384	H	0.459825	0.268175	0.211845
H385	H	-0.079163	-0.234781	-0.322430
H386	H	0.420837	0.265219	0.177570
H387	H	-0.057983	-0.158786	-0.351348
H388	H	0.442017	0.341214	0.148652
H389	H	-0.018983	-0.155838	-0.317077
H390	H	0.481017	0.344162	0.182923
H391	H	-0.019052	-0.198770	-0.353691
H392	H	0.480948	0.301230	0.146309
C393	C	0.484529	-0.182173	-0.276497
C394	C	0.984529	0.317827	0.223503
C395	C	0.453967	-0.152922	-0.301697
C396	C	0.953967	0.347078	0.198303
C397	C	0.477366	-0.119462	-0.330506
C398	C	0.977366	0.380538	0.169494
H399	H	0.502831	-0.202146	-0.296078
H400	H	1.002831	0.297854	0.203922
H401	H	0.502827	-0.159335	-0.259359
H402	H	1.002827	0.340665	0.240641
H403	H	0.435677	-0.175757	-0.318834
H404	H	0.935677	0.324243	0.181166
H405	H	0.435664	-0.132938	-0.282128
H406	H	0.935664	0.367062	0.217872
H407	H	0.495664	-0.096624	-0.313368
H408	H	0.995664	0.403376	0.186632
H409	H	0.495667	-0.139439	-0.350084
H410	H	0.995667	0.360561	0.149916
H411	H	0.456633	-0.099608	-0.347605
H412	H	0.956633	0.400392	0.152395
H413	H	0.393123	-0.191282	-0.268668
H414	H	0.893123	0.308718	0.231332
C415	C	0.560559	-0.148681	-0.597406
C416	C	1.060559	0.351319	-0.097406
C417	C	0.516107	-0.160077	-0.608798
C418	C	1.016107	0.339923	-0.108798
C419	C	0.487299	-0.126711	-0.585372
C420	C	0.987299	0.373289	-0.085372
H421	H	0.567094	-0.113532	-0.605092
H422	H	1.067094	0.386468	-0.105092
H423	H	0.564633	-0.153475	-0.566098
H424	H	1.064633	0.346525	-0.066098
H425	H	0.512034	-0.155279	-0.640099
H426	H	1.012034	0.344721	-0.140099
H427	H	0.509558	-0.195220	-0.601111
H428	H	1.009558	0.304780	-0.101111
H429	H	0.491373	-0.131505	-0.554064
H430	H	0.991373	0.368495	-0.054064
H431	H	0.493838	-0.091564	-0.593060
H432	H	0.993838	0.408436	-0.093060
H433	H	0.457135	-0.134442	-0.593095
H434	H	0.957135	0.365558	-0.093095
H435	H	0.262439	-0.157896	-0.297465
H436	H	0.762439	0.342104	0.202535
H437	H	0.701374	-0.953146	-0.268681
H438	H	1.201374	-0.453146	0.231319
C439	C	0.560584	-0.148685	-0.695246
C440	C	1.060584	0.351315	-0.195246
C441	C	0.531761	-0.178276	-0.722154
C442	C	1.031761	0.321724	-0.222154
C443	C	0.502980	-0.144919	-0.745629
C444	C	1.002980	0.355081	-0.245629
H445	H	0.577727	-0.125886	-0.713597
H446	H	1.077727	0.374114	-0.213597
H447	H	0.543460	-0.128789	-0.674562
H448	H	1.043460	0.371211	-0.174562
H449	H	0.548883	-0.198163	-0.742836
H450	H	1.048883	0.301837	-0.242836
H451	H	0.514608	-0.201073	-0.703814
H452	H	1.014608	0.298927	-0.203814
H453	H	0.485856	-0.125022	-0.724945
H454	H	0.985856	0.374978	-0.224945
H455	H	0.520127	-0.122121	-0.763977
H456	H	1.020127	0.377879	-0.263977
H457	H	0.483418	-0.164991	-0.763885
H458	H	0.983418	0.335009	-0.263885
C459	C	-0.185725	-0.182246	-0.276471
C460	C	0.314275	0.317754	0.223529
C461	C	-0.231840	-0.189390	-0.270301
C462	C	0.268160	0.310610	0.229699
C463	C	-0.255365	-0.156015	-0.299031
C464	C	0.244635	0.343985	0.200969
H465	H	-0.178082	-0.189908	-0.306663
H466	H	0.321918	0.310092	0.193337
H467	H	-0.178049	-0.147094	-0.269946
H468	H	0.321951	0.352906	0.230054
H469	H	-0.239512	-0.224533	-0.276829
H470	H	0.260488	0.275467	0.223171
H471	H	-0.239495	-0.181724	-0.240116
H472	H	0.260505	0.318276	0.259884
H473	H	-0.247690	-0.120863	-0.292507
H474	H	0.252310	0.379137	0.207493
H475	H	-0.247719	-0.163680	-0.329221
H476	H	0.252281	0.336320	0.170779
H477	H	-0.286657	-0.160854	-0.294846
H478	H	0.213343	0.339146	0.205154
H479	H	-0.179388	-0.312458	-0.164255
H480	H	0.320612	0.187542	0.335745
H481	H	0.597167	-0.191055	-0.960322
H482	H	1.097167	0.308945	-0.460322
C483	C	0.709092	-0.557312	-0.276355
C484	C	1.209092	-0.057312	0.223645
C485	C	0.737904	-0.588661	-0.250955
C486	C	1.237904	-0.088661	0.249045
C487	C	0.766662	-0.615974	-0.279645
C488	C	1.266662	-0.115974	0.220355
H489	H	0.726227	-0.533252	-0.293485
H490	H	1.226227	-0.033252	0.206515
H491	H	0.691916	-0.578644	-0.295913
H492	H	1.191916	-0.078644	0.204087
H493	H	0.755078	-0.567331	-0.231405
H494	H	1.255078	-0.067331	0.268595
H495	H	0.720781	-0.612730	-0.233827
H496	H	1.220781	-0.112730	0.266173
H497	H	0.749487	-0.637306	-0.299203
H498	H	1.249487	-0.137306	0.200797
H499	H	0.783795	-0.591910	-0.296773
H500	H	1.283795	-0.091910	0.203227
H501	H	0.786212	-0.637250	-0.262416
H502	H	1.286212	-0.137250	0.237584
C503	C	0.170869	-0.354908	-0.127561
C504	C	0.670869	0.145092	0.372439
C505	C	0.201436	-0.384130	-0.102342
C506	C	0.701436	0.115870	0.397658
C507	C	0.178044	-0.417542	-0.073488
C508	C	0.678044	0.082458	0.426512
H509	H	0.152559	-0.377769	-0.144652
H510	H	0.652559	0.122231	0.355348
H511	H	0.152580	-0.334885	-0.107996
H512	H	0.652580	0.165115	0.392004
H513	H	0.219718	-0.404152	-0.121905
H514	H	0.719718	0.095848	0.378095
H515	H	0.219747	-0.361283	-0.085242
H516	H	0.719747	0.138717	0.414758
H517	H	0.159754	-0.397519	-0.053923
H518	H	0.659754	0.102481	0.446077
H519	H	0.159735	-0.440400	-0.090582
H520	H	0.659735	0.059600	0.409418
H521	H	0.198780	-0.437370	-0.056371
H522	H	0.698780	0.062630	0.443629
C523	C	0.386701	-0.321538	-0.156352
C524	C	0.886701	0.178462	0.343648
C525	C	0.417262	-0.350772	-0.131136
C526	C	0.917262	0.149228	0.368864
C527	C	0.393862	-0.384187	-0.102290
C528	C	0.893862	0.115813	0.397710
H529	H	0.368390	-0.344391	-0.173449
H530	H	0.868390	0.155609	0.326551
H531	H	0.368412	-0.301517	-0.136785
H532	H	0.868412	0.198483	0.363215
H533	H	0.435543	-0.370792	-0.150700
H534	H	0.935543	0.129208	0.349300
H535	H	0.435574	-0.327932	-0.114029
H536	H	0.935574	0.172068	0.385971
H537	H	0.375573	-0.364166	-0.082724
H538	H	0.875573	0.135834	0.417276
H539	H	0.375552	-0.407037	-0.119391
H540	H	0.875552	0.092963	0.380609
H541	H	0.414594	-0.404023	-0.085175
H542	H	0.914594	0.095977	0.414825
C543	C	0.127990	-0.148769	-0.305300
C544	C	0.627990	0.351231	0.194700
C545	C	0.097424	-0.119522	-0.330499
C546	C	0.597424	0.380478	0.169501
C547	C	0.120818	-0.086058	-0.359307
C548	C	0.620818	0.413942	0.140693
H549	H	0.146293	-0.168739	-0.324882
H550	H	0.646293	0.331261	0.175118
H551	H	0.146286	-0.125929	-0.288162
H552	H	0.646286	0.374071	0.211838
H553	H	0.079135	-0.142359	-0.347635
H554	H	0.579135	0.357641	0.152365
H555	H	0.079119	-0.099541	-0.310928
H556	H	0.579119	0.400459	0.189072
H557	H	0.139114	-0.063218	-0.342170
H558	H	0.639114	0.436782	0.157830
H559	H	0.139120	-0.106033	-0.378887
H560	H	0.639120	0.393967	0.121113
H561	H	0.100082	-0.066207	-0.376405
H562	H	0.600082	0.433793	0.123595
H563	H	0.701350	-0.312403	-0.960324
H564	H	1.201350	0.187597	-0.460324
C565	C	0.589389	-0.182030	-1.051891
C566	C	1.089389	0.317970	-0.551891
C567	C	0.595533	-0.189194	-1.097999
C568	C	1.095533	0.310806	-0.597999
C569	C	0.566829	-0.155825	-1.121557
C570	C	1.066829	0.344175	-0.621557
H571	H	0.595945	-0.146877	-1.044275
H572	H	1.095945	0.353123	-0.544275
H573	H	0.559191	-0.189696	-1.044216
H574	H	1.059191	0.310304	-0.544216
H575	H	0.625724	-0.181524	-1.105672
H576	H	1.125724	0.318476	-0.605672
H577	H	0.588973	-0.224339	-1.105630
H578	H	1.088973	0.275661	-0.605630
H579	H	0.536631	-0.163491	-1.113881
H580	H	1.036631	0.336509	-0.613881
H581	H	0.573388	-0.120675	-1.113937
H582	H	1.073388	0.379325	-0.613937
H583	H	0.570990	-0.160685	-1.152844
H584	H	1.070990	0.339315	-0.652844
C585	C	0.589337	-1.059796	-0.156584
C586	C	1.089337	-0.559796	0.343416
C587	C	0.544880	-1.046557	-0.166330
C588	C	1.044880	-0.546557	0.333670
C589	C	0.516082	-1.073878	-0.137633
C590	C	1.016082	-0.573878	0.362367
H591	H	0.595868	-1.050886	-0.126389
H592	H	1.095868	-0.550886	0.373611
H593	H	0.593424	-1.096224	-0.160709
H594	H	1.093424	-0.596224	0.339291
H595	H	0.540795	-1.010137	-0.162202
H596	H	1.040795	-0.510137	0.337798
H597	H	0.538335	-1.055468	-0.196521
H598	H	1.038335	-0.555468	0.303479
H599	H	0.520168	-1.110306	-0.141758
H600	H	1.020168	-0.610306	0.358242
H601	H	0.522617	-1.064966	-0.107439
H602	H	1.022617	-0.564966	0.392561
H603	H	0.485914	-1.064903	-0.144245
H604	H	0.985914	-0.564903	0.355755
H605	H	0.568411	-0.801267	-0.135549
H606	H	1.068411	-0.301267	0.364451
H607	H	0.478123	-0.312451	-0.164211
H608	H	0.978123	0.187549	0.335789
C609	C	0.560534	-0.694789	-0.127806
C610	C	1.060534	-0.194789	0.372194
C611	C	0.531709	-0.663461	-0.153211
C612	C	1.031709	-0.163461	0.346789
C613	C	0.502919	-0.636185	-0.124528
C614	C	1.002919	-0.136185	0.375472
H615	H	0.577671	-0.673444	-0.108234
H616	H	1.077671	-0.173444	0.391766
H617	H	0.543412	-0.718887	-0.110692
H618	H	1.043412	-0.218887	0.389308
H619	H	0.548829	-0.639366	-0.170318
H620	H	1.048829	-0.139366	0.329682
H621	H	0.514562	-0.684793	-0.172782
H622	H	1.014562	-0.184793	0.327218
H623	H	0.485798	-0.660282	-0.107413
H624	H	0.985798	-0.160282	0.392587
H625	H	0.520060	-0.614843	-0.104958
H626	H	1.020060	-0.114843	0.395042
H627	H	0.483356	-0.614929	-0.141761
H628	H	0.983356	-0.114929	0.358239
C629	C	0.030113	-0.354911	-0.127581
C630	C	0.530113	0.145089	0.372419
C631	C	0.060677	-0.384138	-0.102363
C632	C	0.560677	0.115862	0.397637
C633	C	0.037280	-0.417550	-0.073512
C634	C	0.537280	0.082450	0.426488
H635	H	0.011802	-0.377768	-0.144674
H636	H	0.511802	0.122232	0.355326
H637	H	0.011824	-0.334887	-0.108016
H638	H	0.511824	0.165113	0.391984
H639	H	0.078958	-0.404160	-0.121926
H640	H	0.578958	0.095840	0.378074
H641	H	0.078989	-0.361294	-0.085261
H642	H	0.578989	0.138706	0.414739
H643	H	0.018992	-0.397527	-0.053946
H644	H	0.518992	0.102473	0.446054
H645	H	0.018970	-0.440404	-0.090608
H646	H	0.518970	0.059596	0.409392
H647	H	0.058014	-0.437382	-0.056395
H648	H	0.558014	0.062618	0.443605
H649	H	0.701396	-1.052211	-0.268693
H650	H	1.201396	-0.552211	0.231307
H651	H	0.036575	-0.157895	-0.297471
H652	H	0.536575	0.342105	0.202529
C653	C	0.589452	-0.945882	-0.156488
C654	C	1.089452	-0.445882	0.343512
C655	C	0.614896	-0.914521	-0.127720
C656	C	1.114896	-0.414521	0.372280
C657	C	0.586250	-0.887203	-0.098921
C658	C	1.086250	-0.387203	0.401079
H659	H	0.572351	-0.969939	-0.139321
H660	H	1.072351	-0.469939	0.360679
H661	H	0.569866	-0.924559	-0.173636
H662	H	1.069866	-0.424559	0.326364
H663	H	0.634474	-0.935842	-0.110573
H664	H	1.134474	-0.435842	0.389427
H665	H	0.631997	-0.890454	-0.144873
H666	H	1.131997	-0.390454	0.355127
H667	H	0.566665	-0.865879	-0.116069
H668	H	1.066665	-0.365879	0.383931
H669	H	0.569150	-0.911264	-0.081758
H670	H	1.069150	-0.411264	0.418242
H671	H	0.603509	-0.865917	-0.079402
H672	H	1.103509	-0.365917	0.420598
H673	H	0.121515	-0.345829	-0.135441
H674	H	0.621515	0.154171	0.364559
H675	H	0.730033	-0.345915	-0.603738
H676	H	1.230033	0.154085	-0.103738
C677	C	0.709172	-0.321510	-1.051721
C678	C	1.209172	0.178490	-0.551721
C679	C	0.734302	-0.350807	-1.021129
C680	C	1.234302	0.149193	-0.521129
C681	C	0.763039	-0.384313	-1.044494
C682	C	1.263039	0.115687	-0.544494
H683	H	0.728800	-0.301567	-1.070037
H684	H	1.228800	0.198433	-0.570037
H685	H	0.691986	-0.344316	-1.070000
H686	H	1.191986	0.155684	-0.570000
H687	H	0.751487	-0.328004	-1.002856
H688	H	1.251487	0.171996	-0.502856
H689	H	0.714686	-0.370760	-1.002811
H690	H	1.214686	0.129240	-0.502811
H691	H	0.745853	-0.407119	-1.062773
H692	H	1.245853	0.092881	-0.562773
H693	H	0.782665	-0.364366	-1.062810
H694	H	1.282665	0.135634	-0.562810
H695	H	0.780091	-0.404198	-1.023741
H696	H	1.280091	0.095802	-0.523741
C697	C	0.589393	-0.182112	-0.381475
C698	C	1.089393	0.317888	0.118525
C699	C	0.595542	-0.189264	-0.335365
C700	C	1.095542	0.310736	0.164635
C701	C	0.566879	-0.155846	-0.311818
C702	C	1.066879	0.344154	0.188182
H703	H	0.559187	-0.189730	-0.389098
H704	H	1.059187	0.310270	0.110902
H705	H	0.595992	-0.146971	-0.389154
H706	H	1.095992	0.353029	0.110846
H707	H	0.588940	-0.224397	-0.327689
H708	H	1.088940	0.275603	0.172311
H709	H	0.625743	-0.181642	-0.327729
H710	H	1.125743	0.318358	0.172271
H711	H	0.573477	-0.120704	-0.319497
H712	H	1.073477	0.379296	0.180503
H713	H	0.536674	-0.163466	-0.319444
H714	H	1.036674	0.336534	0.180556
H715	H	0.571050	-0.160689	-0.280530
H716	H	1.071050	0.339311	0.219470
C717	C	0.709140	-0.321621	-0.479333
C718	C	1.209140	0.178379	0.020667
C719	C	0.734277	-0.350917	-0.448745
C720	C	1.234277	0.149083	0.051255
C721	C	0.763010	-0.384422	-0.472113
C722	C	1.263010	0.115578	0.027887
H723	H	0.728765	-0.301679	-0.497654
H724	H	1.228765	0.198321	0.002346
H725	H	0.691952	-0.344429	-0.497610
H726	H	1.191952	0.155571	0.002390
H727	H	0.751464	-0.328112	-0.430476
H728	H	1.251464	0.171888	0.069524
H729	H	0.714663	-0.370869	-0.430423
H730	H	1.214663	0.129131	0.069577
H731	H	0.745822	-0.407230	-0.490390
H732	H	1.245822	0.092770	0.009610
H733	H	0.782633	-0.364476	-0.490433
H734	H	1.282633	0.135524	0.009567
H735	H	0.780066	-0.404307	-0.451363
H736	H	1.280066	0.095693	0.048637
H737	H	0.701323	-0.312501	-0.387920
H738	H	1.201323	0.187499	0.112080
H739	H	0.568436	-0.157667	-0.744497
H740	H	1.068436	0.342333	-0.244497
C741	C	0.560662	-0.148638	-0.836063
C742	C	1.060662	0.351362	-0.336063
C743	C	0.566805	-0.155804	-0.882171
C744	C	1.066805	0.344196	-0.382171
C745	C	0.538106	-0.122430	-0.905729
C746	C	1.038106	0.377570	-0.405729
H747	H	0.567223	-0.113487	-0.828446
H748	H	1.067223	0.386513	-0.328446
H749	H	0.530463	-0.156298	-0.828387
H750	H	1.030463	0.343702	-0.328387
H751	H	0.596997	-0.148140	-0.889843
H752	H	1.096997	0.351860	-0.389843
H753	H	0.560241	-0.190948	-0.889801
H754	H	1.060241	0.309052	-0.389801
H755	H	0.507907	-0.130090	-0.898053
H756	H	1.007907	0.369910	-0.398053
H757	H	0.544670	-0.087280	-0.898108
H758	H	1.044670	0.412720	-0.398108
H759	H	0.542267	-0.127290	-0.937015
H760	H	1.042267	0.372710	-0.437015
H761	H	0.730049	-0.345864	-0.829601
H762	H	1.230049	0.154136	-0.329601
