data_functionalizedCrystal
_audit_creation_method	'MofGen! by Chris Wilmer'
_symmetry_space_group_name_H-M	'P1'
_symmetry_Int_Tables_number	1
_symmetry_cell_setting	triclinic
loop_
_symmetry_equiv_pos_as_xyz
  x,y,z
_cell_length_a	23.532407
_cell_length_b	23.532407
_cell_length_c	22.610064
_cell_angle_alpha	89.990850
_cell_angle_beta	89.990066
_cell_angle_gamma	82.848678
loop_
_atom_site_label
_atom_site_type_symbol
_atom_site_fract_x
_atom_site_fract_y
_atom_site_fract_z
O1	O	0.755269	0.069133	-0.049117
O2	O	0.589405	0.079137	-0.049135
O3	O	0.677338	-0.008797	-0.049114
O4	O	0.667335	0.157067	-0.049137
O5	O	0.677313	-0.008797	0.049255
O6	O	0.589380	0.079137	0.049234
O7	O	0.755243	0.069133	0.049252
Zn8	Zn	0.672307	0.074135	0.064862
Zn9	Zn	0.672341	0.074135	-0.064744
O10	O	0.667310	0.157067	0.049232
C11	C	0.568176	0.078882	0.000048
C12	C	0.504959	0.078116	0.000041
C13	C	0.105856	0.125350	0.000061
C14	C	0.046456	0.124638	0.000065
O15	O	0.009711	0.168424	0.000081
N16	N	0.023830	0.072362	0.000071
C17	C	0.060607	0.020794	0.000080
O18	O	0.035908	-0.023737	0.000086
C19	C	0.120006	0.021506	0.000080
C20	C	0.142629	0.073785	0.000068
C21	C	0.128479	0.177625	0.000050
C22	C	0.187876	0.178336	0.000045
C23	C	0.224649	0.126772	0.000052
C24	C	0.202025	0.074497	0.000063
C25	C	0.156783	-0.030062	0.000093
C26	C	0.216185	-0.029345	0.000094
C27	C	0.238808	0.022934	0.000082
C28	C	0.298194	0.023643	0.000065
N29	N	0.320820	0.075920	0.000059
C30	C	0.284048	0.127484	0.000052
C31	C	-0.064135	0.019302	0.000080
C32	C	-0.123533	0.018589	0.000075
C33	C	-0.137680	0.122434	0.000061
C34	C	-0.078281	0.123146	0.000062
C35	C	-0.041509	0.071578	0.000074
C36	C	0.408784	0.128974	0.000042
C37	C	0.468186	0.129680	0.000034
C38	C	0.482329	0.025836	0.000051
C39	C	0.422932	0.025129	0.000055
C40	C	0.386160	0.076702	0.000052
O41	O	0.334974	-0.020119	0.000052
O42	O	0.308755	0.172007	0.000054
C43	C	0.677071	-0.030013	0.000072
C44	C	0.676305	-0.093230	0.000076
C45	C	0.723539	-0.492333	0.000049
C46	C	0.722827	-0.551733	0.000044
O47	O	0.766613	-0.588478	0.000027
N48	N	0.670551	-0.574359	0.000039
C49	C	0.618983	-0.537582	0.000032
O50	O	0.574452	-0.562281	0.000027
C51	C	0.619695	-0.478182	0.000033
C52	C	0.671974	-0.455560	0.000044
C53	C	0.775814	-0.469710	0.000060
C54	C	0.776525	-0.410313	0.000065
C55	C	0.724961	-0.373540	0.000060
C56	C	0.672685	-0.396164	0.000050
C57	C	0.568127	-0.441406	0.000022
C58	C	0.568844	-0.382004	0.000021
C59	C	0.621123	-0.359381	0.000033
C60	C	0.621832	-0.299995	0.000050
N61	N	0.674109	-0.277368	0.000056
C62	C	0.725673	-0.314141	0.000061
C63	C	0.617491	-0.662324	0.000031
C64	C	0.616778	-0.721722	0.000034
C65	C	0.720623	-0.735869	0.000045
C66	C	0.721335	-0.676470	0.000046
C67	C	0.669767	-0.639698	0.000036
C68	C	0.727163	-0.189405	0.000073
C69	C	0.727869	-0.130003	0.000081
C70	C	0.624025	-0.115860	0.000067
C71	C	0.623318	-0.175257	0.000062
C72	C	0.674891	-0.212029	0.000063
O73	O	0.578070	-0.263215	0.000065
O74	O	0.770196	-0.289433	0.000058
C75	C	0.776472	0.069388	0.000069
C76	C	0.839689	0.070154	0.000071
C77	C	0.667577	0.178283	0.000045
C78	C	0.668343	0.241500	0.000036
N79	N	0.672288	0.074135	0.153314
N80	N	0.672364	0.074131	-0.153196
C81	C	0.706686	0.108496	0.561955
C82	C	0.706693	0.108494	0.623874
O83	O	0.735916	0.137705	0.655892
N84	N	0.672352	0.074128	0.654851
C85	C	0.638006	0.039758	0.623905
O86	O	0.608797	0.010527	0.655939
C87	C	0.638002	0.039757	0.561986
C88	C	0.672341	0.074129	0.531013
C89	C	0.741022	0.142864	0.530981
C90	C	0.741014	0.142867	0.469065
C91	C	0.706669	0.108500	0.438123
C92	C	0.672333	0.074131	0.469097
C93	C	0.603660	0.005383	0.531041
C94	C	0.603659	0.005384	0.469118
C95	C	0.637998	0.039757	0.438144
C96	C	0.637980	0.039766	0.376239
N97	N	0.672321	0.074132	0.345262
C98	C	0.706666	0.108498	0.376204
C99	C	0.638017	0.039762	0.753938
C100	C	0.638017	0.039766	0.815856
C101	C	0.706705	0.108502	0.815821
C102	C	0.706701	0.108501	0.753903
C103	C	0.672358	0.074128	0.722962
C104	C	0.706646	0.108501	0.246177
C105	C	0.706633	0.108502	0.184256
C106	C	0.637948	0.039764	0.184296
C107	C	0.637958	0.039765	0.246212
C108	C	0.672312	0.074135	0.277151
O109	O	0.608774	0.010568	0.344182
O110	O	0.735875	0.137719	0.344163
H111	H	-0.034198	-0.022693	0.000084
H112	H	0.575496	-0.632386	0.000028
Cl113	Cl	0.551053	-0.750154	0.000032
Cl114	Cl	0.840647	-0.515929	0.000067
Cl115	Cl	-0.049848	0.188872	0.000049
Cl116	Cl	-0.183920	0.187258	0.000056
H117	H	0.512280	-0.016146	0.000054
H118	H	0.734620	0.136488	0.271360
H119	H	0.098544	0.219617	0.000046
H120	H	0.525555	-0.459814	0.000009
H121	H	0.609984	0.011785	0.159092
H122	H	0.610048	0.011784	0.841070
H123	H	0.734595	0.136494	0.159040
H124	H	0.246123	-0.071339	0.000104
Cl125	Cl	0.559205	-0.069621	0.000059
H126	H	0.768979	0.170854	0.443852
H127	H	0.609989	0.011784	0.271432
H128	H	0.763906	-0.658056	0.000054
Cl129	Cl	0.784203	0.186075	0.569868
H130	H	0.206289	0.220908	0.000035
Cl131	Cl	0.749874	0.151710	0.714971
H132	H	0.580748	-0.193677	0.000069
H133	H	0.610045	0.011774	0.728750
Cl134	Cl	0.496622	0.195408	0.000017
H135	H	0.526850	-0.352066	0.000013
Cl136	Cl	0.749885	0.151703	0.854732
Cl137	Cl	0.793597	-0.101567	0.000094
H138	H	0.762610	-0.765821	0.000047
H139	H	0.575698	-0.022607	0.556249
H140	H	0.378851	0.170970	0.000041
Cl141	Cl	-0.151965	-0.047136	0.000075
H142	H	0.575693	-0.022607	0.443929
Cl143	Cl	0.128358	-0.095789	0.000098
H144	H	0.404512	-0.017441	0.000056
Cl145	Cl	0.791999	-0.235622	0.000075
H146	H	0.819097	-0.391900	0.000072
