data_functionalizedCrystal
_audit_creation_method	'MofGen! by Chris Wilmer'
_symmetry_space_group_name_H-M	'P1'
_symmetry_Int_Tables_number	1
_symmetry_cell_setting	triclinic
loop_
_symmetry_equiv_pos_as_xyz
  x,y,z
_cell_length_a	10.654549
_cell_length_b	10.540535
_cell_length_c	9.730217
_cell_angle_alpha	89.995378
_cell_angle_beta	89.997559
_cell_angle_gamma	84.505280
loop_
_atom_site_label
_atom_site_type_symbol
_atom_site_fract_x
_atom_site_fract_y
_atom_site_fract_z
O1	O	1.667893	0.178328	-0.114328
O2	O	1.302421	0.195309	-0.114324
O3	O	1.493498	0.002109	-0.114312
O4	O	1.476816	0.371529	-0.114340
O5	O	1.493492	0.002107	0.114268
O6	O	1.302415	0.195308	0.114256
O7	O	1.667887	0.178327	0.114252
Zn8	Zn	1.485150	0.186817	0.150546
Zn9	Zn	1.485158	0.186819	-0.150618
O10	O	1.476810	0.371527	0.114240
C11	C	1.255620	0.194060	-0.000033
C12	C	1.116175	0.190326	-0.000031
C13	C	0.826266	0.414339	-0.000087
C14	C	0.877842	0.531609	-0.000090
C15	C	1.008862	0.535122	-0.000072
C16	C	1.088309	0.421353	-0.000055
C17	C	1.036733	0.304083	-0.000052
C18	C	0.905709	0.300582	-0.000066
C19	C	1.064599	0.073056	-0.000028
C20	C	0.933580	0.069541	-0.000036
C21	C	1.144046	-0.040713	-0.000011
C22	C	1.092470	-0.157985	0.000001
C23	C	0.961442	-0.161494	-0.000015
C24	C	0.882004	-0.047729	-0.000033
C25	C	1.492245	-0.045194	-0.000022
C26	C	1.488506	-0.186141	-0.000020
C27	C	1.348996	-0.222764	-0.000028
C28	C	1.345061	-0.369363	-0.000571
C29	C	1.552193	-0.395487	-0.130328
C30	C	1.555162	-0.248723	-0.130413
C31	C	1.557184	-0.248864	0.129534
C32	C	1.550732	-0.395208	0.131222
C33	C	1.714688	0.179576	-0.000042
C34	C	1.854133	0.183310	-0.000053
C35	C	1.478063	0.418830	-0.000054
C36	C	1.481802	0.559777	-0.000065
N37	N	1.485154	0.186815	0.356082
N38	N	1.485164	0.186812	-0.356155
C39	C	1.654422	0.015786	0.356084
C40	C	1.739065	-0.069724	0.428024
C41	C	1.739078	-0.069725	0.571904
C42	C	1.654436	0.015791	0.643846
C43	C	1.569794	0.101302	0.571906
C44	C	1.569793	0.101296	0.428023
C45	C	1.400521	0.272322	0.571905
C46	C	1.400512	0.272331	0.428025
C47	C	1.315880	0.357839	0.643848
C48	C	1.231241	0.443357	0.571907
C49	C	1.231233	0.443355	0.428019
C50	C	1.315870	0.357842	0.356085
H51	H	0.813142	0.624237	-0.000108
H52	H	1.650535	-0.444278	0.139479
H53	H	1.652873	-0.442877	-0.134809
Br54	Br	1.200293	-0.312369	0.000011
H55	H	1.654442	0.015775	0.761001
H56	H	1.250728	-0.037844	-0.000004
H57	H	0.919458	-0.256989	-0.000020
Br58	Br	0.648452	0.409580	-0.000075
Br59	Br	1.725619	-0.210385	-0.139609
Br60	Br	1.266122	0.426122	-0.000064
Br61	Br	0.704189	-0.052481	-0.000041
Br62	Br	1.253302	-0.418251	0.155031
Br63	Br	1.465356	-0.442862	0.291854
Br64	Br	1.471716	-0.446948	-0.292542
Br65	Br	1.078864	0.694273	-0.000091
Br66	Br	1.315883	0.357833	0.839115
H67	H	1.295420	-0.180785	0.093378
H68	H	1.807997	-0.139360	0.630478
H69	H	1.513649	-0.206399	0.228310
H70	H	1.296323	-0.179280	-0.093305
H71	H	1.654431	0.015788	0.238929
H72	H	1.162326	0.512973	0.630492
Br73	Br	1.253771	-0.416753	-0.157140
H74	H	1.315875	0.357837	0.238930
H75	H	1.807977	-0.139354	0.369436
Br76	Br	1.475941	-0.181718	-0.293331
Br77	Br	1.728263	-0.211946	0.131642
Br78	Br	1.116343	0.559402	0.330398
