data_functionalizedCrystal
_audit_creation_method	'MofGen! by Chris Wilmer'
_symmetry_space_group_name_H-M	'P1'
_symmetry_Int_Tables_number	1
_symmetry_cell_setting	triclinic
loop_
_symmetry_equiv_pos_as_xyz
  x,y,z
_cell_length_a	19.288864
_cell_length_b	11.295483
_cell_length_c	19.288865
_cell_angle_alpha	94.075585
_cell_angle_beta	96.863755
_cell_angle_gamma	94.104860
loop_
_atom_site_label
_atom_site_type_symbol
_atom_site_fract_x
_atom_site_fract_y
_atom_site_fract_z
O1	O	0.926060	0.099422	-0.081937
O2	O	1.426060	0.599422	0.418063
O3	O	0.723796	0.099342	-0.093629
O4	O	1.223796	0.599342	0.406371
O5	O	0.830772	0.099360	0.013346
O6	O	1.330772	0.599360	0.513346
O7	O	0.819085	0.099403	-0.188912
O8	O	1.319085	0.599403	0.311088
O9	O	0.821376	-0.098692	0.003965
O10	O	1.321376	0.401308	0.503965
O11	O	0.714400	-0.098710	-0.103011
O12	O	1.214400	0.401290	0.396989
O13	O	0.916665	-0.098631	-0.091318
O14	O	1.416665	0.401369	0.408682
Cu15	Cu	0.814674	-0.116754	-0.098021
Cu16	Cu	1.314674	0.383246	0.401979
Cu17	Cu	0.825786	0.117466	-0.086926
Cu18	Cu	1.325786	0.617466	0.413074
O19	O	0.809689	-0.098649	-0.198294
O20	O	1.309689	0.401351	0.301706
C21	C	0.693221	0.000305	-0.097944
C22	C	1.193221	0.500305	0.402056
C23	C	0.616116	0.000274	-0.096817
C24	C	1.116116	0.500274	0.403183
C25	C	0.571421	0.000306	-0.159583
C26	C	1.071421	0.500306	0.340417
C27	C	0.498975	0.000319	-0.158522
C28	C	0.998975	0.500319	0.341478
C29	C	0.471227	0.000324	-0.094689
C30	C	0.971227	0.500324	0.405311
C31	C	0.515932	0.000285	-0.031915
C32	C	1.015932	0.500285	0.468085
C33	C	0.588376	0.000260	-0.032979
C34	C	1.088376	0.500260	0.467021
C35	C	0.366259	0.069740	-0.041222
C36	C	0.866259	0.569740	0.458778
C37	C	0.293816	0.069772	-0.040161
C38	C	0.793816	0.569772	0.459839
C39	C	0.247785	0.000395	-0.091406
C40	C	0.747785	0.500395	0.408594
C41	C	0.274206	-0.068999	-0.143724
C42	C	0.774206	0.431001	0.356276
C43	C	0.346650	-0.069024	-0.144788
C44	C	0.846650	0.430976	0.355212
C45	C	0.392675	0.000350	-0.093529
C46	C	0.892675	0.500350	0.406471
C47	C	0.124535	0.000439	-0.153026
C48	C	0.624535	0.500439	0.346974
C49	C	0.052087	0.000445	-0.151963
C50	C	0.552087	0.500445	0.348037
C51	C	0.069046	0.000423	-0.025354
C52	C	0.569046	0.500423	0.474646
C53	C	0.141492	0.000405	-0.026420
C54	C	0.641492	0.500405	0.473580
C55	C	0.169232	0.000419	-0.090258
C56	C	0.669232	0.500419	0.409742
N57	N	0.806864	-0.281492	-0.105824
N58	N	1.306864	0.218508	0.394176
C59	C	0.889825	-0.530767	-0.022909
C60	C	1.389825	-0.030767	0.477091
C61	C	0.883927	-0.655432	-0.028811
C62	C	1.383927	-0.155432	0.471189
C63	C	0.789169	-0.655488	-0.123525
C64	C	1.289169	-0.155488	0.376475
C65	C	0.795066	-0.530824	-0.117623
C66	C	1.295066	-0.030824	0.382377
C67	C	0.845397	-0.468467	-0.067314
C68	C	1.345397	0.031533	0.432686
C69	C	0.851297	-0.343801	-0.061417
C70	C	1.351297	0.156199	0.438583
C71	C	0.756536	-0.343859	-0.156127
C72	C	1.256536	0.156141	0.343873
C73	C	0.750638	-0.468524	-0.162029
C74	C	1.250638	0.031476	0.337971
C75	C	0.947240	0.000409	-0.087003
C76	C	1.447240	0.500409	0.412997
C77	C	1.024345	0.000448	-0.088130
C78	C	1.524345	0.500448	0.411870
C79	C	0.825697	0.000331	0.034532
C80	C	1.325697	0.500331	0.534532
C81	C	0.824568	0.000320	0.111635
C82	C	1.324568	0.500320	0.611635
N83	N	0.833602	0.282203	-0.079118
N84	N	1.333602	0.782203	0.420882
C85	C	0.814763	0.000383	-0.219479
C86	C	1.314763	0.500383	0.280521
C87	C	0.815893	0.000402	-0.296582
C88	C	1.315893	0.500402	0.203418
C89	C	0.887337	0.000339	0.156332
C90	C	1.387337	0.500339	0.656332
C91	C	0.886277	0.000357	0.228780
C92	C	1.386277	0.500357	0.728780
C93	C	0.822443	0.000333	0.256527
C94	C	1.322443	0.500333	0.756527
C95	C	0.759667	0.000320	0.211820
C96	C	1.259667	0.500320	0.711820
C97	C	0.760729	0.000314	0.139374
C98	C	1.260729	0.500314	0.639374
C99	C	0.768972	-0.069061	0.361527
C100	C	1.268972	0.430939	0.861527
C101	C	0.767912	-0.069062	0.433971
C102	C	1.267912	0.430938	0.933971
C103	C	0.819165	0.000358	0.479973
C104	C	1.319165	0.500358	0.979973
C105	C	0.871489	0.069763	0.453523
C106	C	1.371489	0.569763	0.953523
C107	C	0.872551	0.069756	0.381077
C108	C	1.372551	0.569756	0.881077
C109	C	0.821285	0.000340	0.335081
C110	C	1.321285	0.500340	0.835081
C111	C	0.880789	0.000398	0.603228
C112	C	1.380789	0.500398	1.103228
C113	C	0.879727	0.000424	0.675677
C114	C	1.379727	0.500424	1.175677
C115	C	0.753115	0.000376	0.658714
C116	C	1.253115	0.500376	1.158714
C117	C	0.754179	0.000362	0.586267
C118	C	1.254179	0.500362	1.086267
C119	C	0.818018	0.000368	0.558528
C120	C	1.318018	0.500368	1.058528
H121	H	0.236729	-0.125493	-0.185453
H122	H	0.736729	0.374507	0.314547
O123	O	0.713689	-0.143949	0.311916
O124	O	1.213689	0.356051	0.811916
H125	H	0.723213	-0.132289	0.257097
H126	H	1.223213	0.367711	0.757097
O127	O	0.928972	0.144627	0.352544
O128	O	1.428972	0.644627	0.852544
H129	H	0.964431	0.192913	0.396697
H130	H	1.464431	0.692913	0.896697
O131	O	0.947434	0.000449	0.723887
O132	O	1.447434	0.500449	1.223887
H133	H	0.935973	0.000468	0.778925
H134	H	1.435973	0.500468	1.278925
H135	H	0.403732	0.126242	0.000510
H136	H	0.903732	0.626242	0.500510
H137	H	0.920104	-0.706153	0.007350
H138	H	1.420104	-0.206153	0.507350
O139	O	0.189703	0.000385	0.041282
O140	O	0.689703	0.500385	0.541282
H141	H	0.219258	-0.080356	0.040003
H142	H	0.719258	0.419644	0.540003
H143	H	0.272310	0.126281	0.002437
H144	H	0.772310	0.626281	0.502437
H145	H	0.707693	0.000303	0.234416
H146	H	1.207693	0.500303	0.734416
H147	H	0.748187	-0.706275	-0.164481
H148	H	1.248187	-0.206275	0.335519
H149	H	0.720361	-0.293121	-0.192287
H150	H	1.220361	0.206879	0.307713
H151	H	0.701140	0.000362	0.681305
H152	H	1.201140	0.500362	1.181305
H153	H	0.046459	0.000501	0.026623
H154	H	0.546459	0.500501	0.526623
H155	H	0.939319	0.000347	0.133752
H156	H	1.439319	0.500347	0.633752
O157	O	0.154457	0.000437	-0.221879
O158	O	0.654457	0.500437	0.278121
H159	H	0.212342	0.000432	-0.212074
H160	H	0.712342	0.500432	0.287926
H161	H	0.015696	0.000464	-0.203077
H162	H	0.515696	0.500464	0.296923
H163	H	0.493336	0.000305	0.020059
H164	H	0.993336	0.500305	0.520059
O165	O	0.636590	0.000231	0.034722
O166	O	1.136590	0.500231	0.534722
H167	H	0.605129	0.000240	0.079289
H168	H	1.105129	0.500240	0.579289
H169	H	0.709658	-0.519309	-0.202988
H170	H	1.209658	-0.019309	0.297012
H171	H	0.930810	-0.479996	0.018050
H172	H	1.430810	0.020004	0.518050
H173	H	0.892280	-0.293031	-0.020454
H174	H	1.392280	0.206969	0.479546
O175	O	0.953978	0.000361	0.277003
O176	O	1.453978	0.500361	0.777003
H177	H	0.998546	0.000355	0.245542
H178	H	1.498546	0.500355	0.745542
O179	O	0.693025	0.000273	0.091157
O180	O	1.193025	0.500273	0.591157
H181	H	0.648457	0.000250	0.122618
H182	H	1.148457	0.500250	0.622618
O183	O	0.926773	0.144654	0.503127
O184	O	1.426773	0.644654	1.003127
H185	H	0.917240	0.133016	0.557947
H186	H	1.417240	0.633016	1.057947
O187	O	0.949640	0.000429	0.573301
O188	O	1.449640	0.500429	1.073301
H189	H	0.993112	0.000468	0.616558
H190	H	1.493112	0.500468	1.116558
H191	H	0.703065	0.000340	0.549873
H192	H	1.203065	0.500340	1.049873
O193	O	0.711484	-0.143922	0.462499
O194	O	1.211484	0.356078	0.962499
H195	H	0.659366	-0.115367	0.442762
H196	H	1.159366	0.384633	0.942762
O197	O	0.601341	0.000286	-0.228435
O198	O	1.101341	0.500286	0.271565
H199	H	0.558085	0.000293	-0.271903
H200	H	1.058085	0.500293	0.228097
H201	H	0.368159	-0.125530	-0.187385
H202	H	0.868159	0.374470	0.312615
O203	O	0.450755	0.000366	-0.226221
O204	O	0.950755	0.500366	0.273779
H205	H	0.482216	0.000380	-0.270789
H206	H	0.982216	0.500380	0.229211
