data_functionalizedCrystal
_audit_creation_method	'MofGen! by Chris Wilmer'
_symmetry_space_group_name_H-M	'P1'
_symmetry_Int_Tables_number	1
_symmetry_cell_setting	triclinic
loop_
_symmetry_equiv_pos_as_xyz
  x,y,z
_cell_length_a	19.188930
_cell_length_b	19.188930
_cell_length_c	18.266242
_cell_angle_alpha	90.022918
_cell_angle_beta	89.988525
_cell_angle_gamma	96.855221
loop_
_atom_site_label
_atom_site_type_symbol
_atom_site_fract_x
_atom_site_fract_y
_atom_site_fract_z
O1	O	0.087169	-0.926149	-0.061124
O2	O	0.587169	-0.426149	0.438876
O3	O	0.098903	-0.722838	-0.061075
O4	O	0.598903	-0.222838	0.438925
O5	O	-0.008620	-0.830361	-0.061087
O6	O	0.491380	-0.330361	0.438913
O7	O	0.194691	-0.818627	-0.061113
O8	O	0.694691	-0.318627	0.438887
O9	O	-0.008625	-0.830343	0.060675
O10	O	0.491375	-0.330343	0.560675
O11	O	0.098897	-0.722820	0.060687
O12	O	0.598897	-0.222820	0.560687
O13	O	0.087163	-0.926131	0.060638
O14	O	0.587163	-0.426131	0.560638
Zn15	Zn	0.093029	-0.824473	0.079994
Zn16	Zn	0.593029	-0.324473	0.579994
Zn17	Zn	0.093037	-0.824497	-0.080432
Zn18	Zn	0.593037	-0.324497	0.419568
O19	O	0.194686	-0.818608	0.060649
O20	O	0.694686	-0.318608	0.560649
C21	C	0.098520	-0.696818	-0.000188
C22	C	0.598520	-0.196818	0.499812
C23	C	0.097380	-0.619313	-0.000169
C24	C	0.597380	-0.119313	0.499831
N25	N	0.093024	-0.824461	0.189481
N26	N	0.593024	-0.324461	0.689481
C27	C	-0.034634	-0.829972	-0.000204
C28	C	0.465366	-0.329972	0.499796
C29	C	-0.112138	-0.828831	-0.000197
C30	C	0.387862	-0.328831	0.499803
C31	C	-0.157062	-0.891922	-0.000209
C32	C	0.342938	-0.391922	0.499791
C33	C	-0.229886	-0.890850	-0.000220
C34	C	0.270114	-0.390850	0.499780
C35	C	-0.257782	-0.826684	-0.000206
C36	C	0.242218	-0.326684	0.499794
C37	C	-0.212849	-0.763585	-0.000198
C38	C	0.287151	-0.263585	0.499802
C39	C	-0.140026	-0.764658	-0.000194
C40	C	0.359974	-0.264658	0.499806
N41	N	-0.365789	-0.777631	0.041244
N42	N	0.134211	-0.277631	0.541244
N43	N	-0.434968	-0.776615	0.041242
N44	N	0.065032	-0.276615	0.541242
C45	C	-0.477191	-0.823446	-0.000220
C46	C	0.022809	-0.323446	0.499780
N47	N	-0.447624	-0.871341	-0.041669
N48	N	0.052376	-0.371341	0.458331
N49	N	-0.378439	-0.872359	-0.041664
N50	N	0.121561	-0.372359	0.458336
C51	C	-0.336745	-0.825513	-0.000210
C52	C	0.163255	-0.325513	0.499790
C53	C	-0.601079	-0.885379	-0.000245
C54	C	-0.101079	-0.385379	0.499755
C55	C	-0.673904	-0.884305	-0.000261
C56	C	-0.173904	-0.384305	0.499739
C57	C	-0.656865	-0.757038	-0.000231
C58	C	-0.156865	-0.257038	0.499769
C59	C	-0.584042	-0.758114	-0.000222
C60	C	-0.084042	-0.258114	0.499778
C61	C	-0.556154	-0.822287	-0.000226
C62	C	-0.056154	-0.322287	0.499774
C63	C	0.220700	-0.818997	-0.000236
C64	C	0.720700	-0.318997	0.499764
C65	C	0.298204	-0.820138	-0.000247
C66	C	0.798204	-0.320138	0.499753
C67	C	0.087546	-0.952151	-0.000252
C68	C	0.587546	-0.452151	0.499748
C69	C	0.088687	-1.029656	-0.000276
C70	C	0.588687	-0.529656	0.499724
C71	C	0.160470	-0.574389	-0.000188
C72	C	0.660470	-0.074389	0.499812
C73	C	0.159399	-0.501566	-0.000196
C74	C	0.659399	-0.001566	0.499804
C75	C	0.095233	-0.473669	-0.000199
C76	C	0.595233	0.026331	0.499801
C77	C	0.032133	-0.518603	-0.000175
C78	C	0.532133	-0.018603	0.499825
C79	C	0.033207	-0.591425	-0.000160
C80	C	0.533207	-0.091425	0.499840
N81	N	0.046188	-0.365695	-0.041663
N82	N	0.546188	0.134305	0.458337
N83	N	0.045172	-0.296516	-0.041679
N84	N	0.545172	0.203484	0.458321
C85	C	0.091994	-0.254260	-0.000243
C86	C	0.591994	0.245740	0.499757
N87	N	0.139881	-0.283795	0.041200
N88	N	0.639881	0.216205	0.541200
N89	N	0.140899	-0.352980	0.041213
N90	N	0.640899	0.147020	0.541213
C91	C	0.094062	-0.394707	-0.000215
C92	C	0.594062	0.105293	0.499785
C93	C	0.153928	-0.130372	-0.000270
C94	C	0.653928	0.369628	0.499730
C95	C	0.152853	-0.057547	-0.000274
C96	C	0.652853	0.442453	0.499726
C97	C	0.025586	-0.074586	-0.000261
C98	C	0.525586	0.425414	0.499739
C99	C	0.026662	-0.147409	-0.000250
C100	C	0.526662	0.352591	0.499750
C101	C	0.090835	-0.175298	-0.000258
C102	C	0.590835	0.324702	0.499742
N103	N	0.093037	-0.824513	-0.189919
N104	N	0.593037	-0.324513	0.310081
C105	C	0.045436	-0.872088	0.227785
C106	C	0.545436	-0.372088	0.727785
C107	C	0.045433	-0.872092	0.304430
C108	C	0.545433	-0.372092	0.804430
C109	C	0.093030	-0.824477	0.342768
C110	C	0.593030	-0.324477	0.842768
C111	C	0.140621	-0.776841	0.304455
C112	C	0.640621	-0.276841	0.804455
C113	C	0.140618	-0.776834	0.227812
C114	C	0.640618	-0.276834	0.727812
N115	N	0.154837	-0.815401	0.463094
N116	N	0.654837	-0.315401	0.963094
N117	N	0.154838	-0.815413	0.535902
N118	N	0.654838	-0.315413	1.035902
C119	C	0.093040	-0.824496	0.573691
C120	C	0.593040	-0.324496	1.073691
N121	N	0.031239	-0.833582	0.535920
N122	N	0.531239	-0.333582	1.035920
N123	N	0.031240	-0.833574	0.463106
N124	N	0.531240	-0.333574	0.963106
C125	C	0.093038	-0.824480	0.425875
C126	C	0.593038	-0.324480	0.925875
C127	C	0.045444	-0.872131	0.695101
C128	C	0.545444	-0.372131	1.195101
C129	C	0.045440	-0.872130	0.771748
C130	C	0.545440	-0.372130	1.271748
C131	C	0.140634	-0.776882	0.771772
C132	C	0.640634	-0.276882	1.271772
C133	C	0.140632	-0.776879	0.695127
C134	C	0.640632	-0.276879	1.195127
C135	C	0.093038	-0.824507	0.656796
C136	C	0.593038	-0.324507	1.156796
H137	H	-0.266470	-0.942228	-0.000233
H138	H	0.233530	-0.442228	0.499767
C139	C	-0.492274	-0.685488	0.062393
C140	C	0.007726	-0.185488	0.562393
C141	C	-0.534653	-0.688763	-0.000201
C142	C	-0.034653	-0.188763	0.499799
H143	H	-0.461781	-0.642673	0.062400
H144	H	0.038219	-0.142673	0.562400
H145	H	-0.521047	-0.687702	0.104844
H146	H	-0.021047	-0.187702	0.604844
H147	H	-0.465246	-0.723862	0.062379
H148	H	0.034754	-0.223862	0.562379
H149	H	-0.561686	-0.650392	-0.000184
H150	H	-0.061686	-0.150392	0.499816
H151	H	-0.505878	-0.686542	-0.042663
H152	H	-0.005878	-0.186542	0.457337
H153	H	0.212725	-0.597091	-0.000196
H154	H	0.712725	-0.097091	0.499804
H155	H	-0.235567	-0.711340	-0.000187
H156	H	0.264433	-0.211340	0.499813
C157	C	0.225472	0.034196	-0.062896
C158	C	0.725472	0.534196	0.437104
C159	C	0.222208	-0.008163	-0.000297
C160	C	0.722208	0.491837	0.499703
H161	H	0.268288	0.064687	-0.062908
H162	H	0.768288	0.564687	0.437092
H163	H	0.223245	0.005410	-0.105344
H164	H	0.723245	0.505410	0.394656
H165	H	0.187100	0.061228	-0.062884
H166	H	0.687100	0.561228	0.437116
H167	H	0.260578	-0.035198	-0.000312
H168	H	0.760578	0.464802	0.499688
H169	H	0.224442	0.020627	0.042162
H170	H	0.724442	0.520627	0.542162
H171	H	0.210776	-0.464982	-0.000210
H172	H	0.710776	0.035018	0.499790
C173	C	-0.074931	-0.628402	-0.062740
C174	C	0.425069	-0.128402	0.437260
C175	C	-0.036147	-0.640812	-0.000147
C176	C	0.463853	-0.140812	0.499853
H177	H	-0.117745	-0.658896	-0.062734
H178	H	0.382255	-0.158896	0.437266
H179	H	-0.084754	-0.581046	-0.062740
H180	H	0.415246	-0.081046	0.437260
H181	H	-0.048599	-0.636859	-0.105197
H182	H	0.451401	-0.136859	0.394803
H183	H	-0.062477	-0.632349	0.042310
H184	H	0.437523	-0.132349	0.542310
H185	H	-0.026326	-0.688179	-0.000141
H186	H	0.473674	-0.188179	0.499859
H187	H	-0.020111	-0.495885	-0.000188
H188	H	0.479889	0.004115	0.499812
H189	H	-0.710481	-0.935683	-0.000274
H190	H	-0.210481	-0.435683	0.499726
C191	C	0.003250	-0.914490	0.577599
C192	C	0.503250	-0.414490	1.077599
C193	C	-0.006824	-0.924525	0.652962
C194	C	0.493176	-0.424525	1.152962
H195	H	-0.029001	-0.946854	0.551587
H196	H	0.470999	-0.446854	1.051587
H197	H	-0.004270	-0.867944	0.565038
H198	H	0.495730	-0.367944	1.065038
H199	H	0.049854	-0.921877	0.565062
H200	H	0.549854	-0.421877	1.065062
H201	H	-0.053426	-0.917133	0.665499
H202	H	0.446574	-0.417133	1.165499
H203	H	0.000691	-0.971082	0.665528
H204	H	0.500691	-0.471082	1.165528
H205	H	-0.679578	-0.704792	-0.000222
H206	H	-0.179578	-0.204792	0.499778
H207	H	-0.026659	-0.051874	-0.000309
H208	H	0.473341	0.448126	0.499691
C209	C	-0.099239	-0.156934	-0.000247
C210	C	0.400761	0.343066	0.499753
C211	C	-0.042690	-0.196795	-0.000240
C212	C	0.457310	0.303205	0.499760
H213	H	-0.142055	-0.187424	-0.000244
H214	H	0.357945	0.312576	0.499756
H215	H	-0.097015	-0.128155	0.042206
H216	H	0.402985	0.371845	0.542206
H217	H	-0.097002	-0.128197	-0.042717
H218	H	0.402998	0.371803	0.457283
H219	H	-0.044924	-0.225528	0.042233
H220	H	0.455076	0.274472	0.542233
H221	H	-0.044916	-0.225586	-0.042697
H222	H	0.455084	0.274414	0.457303
H223	H	0.006681	-0.910868	0.196579
H224	H	0.506681	-0.410868	0.696579
H225	H	-0.578372	-0.937632	-0.000251
H226	H	-0.078372	-0.437632	0.499749
C227	C	-0.085044	-0.966973	-0.062815
C228	C	0.414956	-0.466973	0.437185
C229	C	-0.126408	-0.962460	-0.000223
C230	C	0.373592	-0.462460	0.499777
H231	H	-0.066117	-1.010519	-0.062822
H232	H	0.433883	-0.510519	0.437178
H233	H	-0.113092	-0.963917	-0.105268
H234	H	0.386908	-0.463917	0.394732
H235	H	-0.047864	-0.929550	-0.062798
H236	H	0.452136	-0.429550	0.437202
H237	H	-0.163591	-0.999881	-0.000243
H238	H	0.336409	-0.499881	0.499757
H239	H	-0.098359	-0.965523	0.042241
H240	H	0.401641	-0.465523	0.542241
H241	H	0.179371	-0.738049	0.196624
H242	H	0.679371	-0.238049	0.696624
C243	C	-0.048658	-0.966244	0.296716
C244	C	0.451342	-0.466244	0.796716
C245	C	-0.006881	-0.924445	0.346545
C246	C	0.493119	-0.424445	0.846545
H247	H	-0.080953	-0.998565	0.322716
H248	H	0.419047	-0.498565	0.822716
H249	H	-0.073703	-0.937260	0.266844
H250	H	0.426297	-0.437260	0.766844
H251	H	-0.019651	-0.991265	0.266801
H252	H	0.480349	-0.491265	0.766801
H253	H	-0.035889	-0.899420	0.376457
H254	H	0.464111	-0.399420	0.876457
H255	H	0.018165	-0.953433	0.376429
H256	H	0.518165	-0.453433	0.876429
H257	H	0.206181	-0.153080	-0.000267
H258	H	0.706181	0.346920	0.499733
C259	C	0.234725	-0.682734	0.764092
C260	C	0.734725	-0.182734	1.264092
C261	C	0.192953	-0.724539	0.813903
C262	C	0.692953	-0.224539	1.313903
H263	H	0.267021	-0.650416	0.790106
H264	H	0.767021	-0.150416	1.290106
H265	H	0.259768	-0.711715	0.734180
H266	H	0.759768	-0.211715	1.234180
H267	H	0.205715	-0.657712	0.734216
H268	H	0.705715	-0.157712	1.234216
H269	H	0.221964	-0.749566	0.843776
H270	H	0.721964	-0.249566	1.343776
H271	H	0.167909	-0.695555	0.843828
H272	H	0.667909	-0.195555	1.343828
H273	H	0.006685	-0.910911	0.802935
H274	H	0.506685	-0.410911	1.302935
C275	C	0.234707	-0.682689	0.296782
C276	C	0.734707	-0.182689	0.796782
C277	C	0.192938	-0.724498	0.346593
C278	C	0.692938	-0.224498	0.846593
H279	H	0.267001	-0.650369	0.322797
H280	H	0.767001	-0.150369	0.822797
H281	H	0.259752	-0.711666	0.266869
H282	H	0.759752	-0.211666	0.766869
H283	H	0.205694	-0.657668	0.266908
H284	H	0.705694	-0.157668	0.766908
H285	H	0.221951	-0.749524	0.376464
H286	H	0.721951	-0.249524	0.876464
H287	H	0.167892	-0.695517	0.376519
H288	H	0.667892	-0.195517	0.876519
H289	H	0.179386	-0.738100	0.663938
H290	H	0.679386	-0.238100	1.163938
H291	H	-0.103448	-0.713281	-0.000184
H292	H	0.396552	-0.213281	0.499816
