data_functionalizedCrystal
_audit_creation_method	'MofGen! by Chris Wilmer'
_symmetry_space_group_name_H-M	'P1'
_symmetry_Int_Tables_number	1
_symmetry_cell_setting	triclinic
loop_
_symmetry_equiv_pos_as_xyz
  x,y,z
_cell_length_a	6.817900
_cell_length_b	9.582860
_cell_length_c	10.943624
_cell_angle_alpha	90.879795
_cell_angle_beta	108.838799
_cell_angle_gamma	111.206767
loop_
_atom_site_label
_atom_site_type_symbol
_atom_site_fract_x
_atom_site_fract_y
_atom_site_fract_z
V1	V	-4.128075	-0.207016	-0.402315
O2	O	-4.072597	0.009988	-0.394900
O3	O	-4.118391	-0.410518	-0.399329
O4	O	-4.105843	-0.203814	-0.577885
O5	O	-4.085232	-0.198146	-0.215108
V6	V	-4.603295	-0.181062	-0.379952
O7	O	-4.407545	-0.263949	-0.451370
O8	O	-4.774022	-0.124130	-0.330897
O9	O	-4.389772	0.022439	-0.382937
O10	O	-4.776169	-0.398067	-0.387367
O11	O	-4.763534	-0.189933	-0.567158
O12	O	-4.402320	-0.184264	-0.204381
C13	C	-3.971963	-0.460127	-0.392922
C14	C	-4.045507	-0.626492	-0.391651
C15	C	-3.955955	-0.196455	-0.620686
C16	C	-4.019318	-0.195183	-0.764214
C17	C	-3.863628	-0.186621	-0.841371
C18	C	-4.060709	-0.313713	-0.947216
C19	C	-3.935165	-0.065840	-0.914112
C20	C	-4.215617	-0.322395	-0.868182
C21	C	-4.089986	-0.074410	-0.835055
C22	C	-4.287206	-0.201538	-0.940870
C23	C	-4.199543	0.072041	-0.389341
C24	C	-4.105239	0.238404	-0.390620
C25	C	-4.215550	-0.191629	-0.161574
C26	C	-4.131424	-0.192892	-0.018044
H27	H	-3.684054	-0.180484	-0.797930
O28	O	-4.047159	-0.434524	-1.005578
C29	C	-4.260256	-0.525783	-1.096659
H30	H	-4.396289	-0.504944	-1.069426
H31	H	-4.286085	-0.650080	-1.095757
H32	H	-4.270710	-0.496123	-1.198442
O33	O	-4.103514	0.046451	-0.776773
C34	C	-3.954568	0.181421	-0.799438
H35	H	-3.815773	0.158594	-0.821691
H36	H	-3.877049	0.270560	-0.708916
H37	H	-4.050436	0.224252	-0.886030
H38	H	-3.817229	0.042561	-0.934999
O39	O	-4.356107	-0.451845	-0.843310
C40	C	-4.294167	-0.451525	-0.707261
H41	H	-4.110217	-0.373072	-0.657255
H42	H	-4.318299	-0.571232	-0.685094
H43	H	-4.403895	-0.410014	-0.669423
O44	O	-4.501722	-0.209359	-0.992439
C45	C	-4.649449	-0.344684	-0.969466
H46	H	-4.567963	-0.431101	-0.953483
H47	H	-4.812677	-0.391566	-1.057389
H48	H	-4.687164	-0.320814	-0.878953
