data_functionalizedCrystal
_audit_creation_method	'MofGen! by Chris Wilmer'
_symmetry_space_group_name_H-M	'P1'
_symmetry_Int_Tables_number	1
_symmetry_cell_setting	triclinic
loop_
_symmetry_equiv_pos_as_xyz
  x,y,z
_cell_length_a	13.033291
_cell_length_b	13.032868
_cell_length_c	19.805399
_cell_angle_alpha	82.846750
_cell_angle_beta	82.791837
_cell_angle_gamma	74.808427
loop_
_atom_site_label
_atom_site_type_symbol
_atom_site_fract_x
_atom_site_fract_y
_atom_site_fract_z
Zn1	Zn	1.570155	0.216863	-0.529915
Zn2	Zn	1.547452	0.394503	-0.429463
Zn3	Zn	1.392521	0.239428	-0.403960
Zn4	Zn	1.369906	0.416973	-0.529829
O5	O	1.470008	0.316942	-0.473292
O6	O	1.715787	0.221580	-0.527299
O7	O	1.526864	0.373972	-0.331364
O8	O	1.435050	0.087789	-0.410031
O9	O	1.699108	0.352092	-0.453497
O10	O	1.565557	0.071211	-0.502570
O11	O	1.413036	0.260039	-0.312627
O12	O	1.240877	0.281827	-0.409948
O13	O	1.396506	0.390388	-0.624557
O14	O	1.224261	0.412268	-0.502424
O15	O	1.543628	0.243368	-0.624620
O16	O	1.504934	0.546130	-0.453414
O17	O	1.374492	0.562638	-0.527153
C18	C	1.194027	0.351935	-0.453410
C19	C	1.075958	0.366931	-0.444922
C20	C	0.909532	0.324631	-0.468956
C21	C	1.031563	0.309134	-0.477728
C22	C	1.434824	0.592922	-0.493058
C23	C	1.419870	0.710976	-0.501544
C24	C	1.477800	0.755398	-0.468878
C25	C	1.462345	0.877412	-0.477648
C26	C	1.747067	0.281812	-0.493252
C27	C	1.865133	0.266842	-0.501758
C28	C	1.470076	0.316867	-0.649834
C29	C	1.470105	0.316836	-0.725066
C30	C	1.505324	1.039884	-0.453455
C31	C	1.520283	0.921830	-0.444977
C32	C	1.546714	0.240279	-0.760444
C33	C	1.546729	0.240247	-0.831131
C34	C	1.470139	0.316777	-0.866440
C35	C	1.393522	0.393338	-0.831056
C36	C	1.393504	0.393364	-0.760370
C37	C	1.393595	0.393231	-1.116127
C38	C	1.393622	0.393200	-1.186819
C39	C	1.546820	0.240114	-1.186888
C40	C	1.546801	0.240140	-1.116202
C41	C	1.470182	0.316697	-1.080824
C42	C	1.470166	0.316730	-1.004177
C43	C	1.470159	0.316750	-0.943086
C44	C	1.470011	0.316932	-0.297435
C45	C	1.470226	0.316638	-0.222197
H46	H	0.917465	0.205890	-0.536332
C47	C	1.560260	0.684756	-0.422326
H48	H	1.559825	0.612016	-0.422536
H49	H	1.629350	0.693759	-0.438697
H50	H	1.542463	0.704905	-0.377018
H51	H	1.358836	0.763274	-0.536007
C52	C	1.309327	0.477444	-1.077218
H53	H	1.320272	0.466498	-1.030062
H54	H	1.315770	0.546838	-1.095031
H55	H	1.239941	0.470936	-1.082548
H56	H	1.401307	0.929707	-0.512112
C57	C	1.631003	0.156039	-0.870044
H58	H	1.676622	0.110474	-0.838894
H59	H	1.596289	0.114892	-0.891378
H60	H	1.672107	0.190804	-0.903863
H61	H	1.609204	0.177774	-1.215700
C62	C	1.602724	0.851197	-0.398405
H63	H	1.602284	0.778458	-0.398609
H64	H	1.671824	0.860187	-0.414761
H65	H	1.584902	0.871363	-0.353102
C66	C	1.630960	0.156090	-0.721610
H67	H	1.676579	0.110484	-0.752805
H68	H	1.672054	0.190858	-0.700276
H69	H	1.596213	0.114969	-0.687796
H70	H	1.331248	0.455523	-1.215565
H71	H	1.609172	0.177825	-1.087457
C72	C	0.838847	0.406969	-0.422245
H73	H	0.766101	0.406589	-0.422480
H74	H	0.858936	0.389053	-0.376955
H75	H	0.847887	0.476075	-0.438491
H76	H	1.331158	0.455646	-0.859810
C77	C	1.309258	0.477599	-0.721458
H78	H	1.263658	0.523187	-0.752611
H79	H	1.268143	0.442867	-0.687632
H80	H	1.344007	0.518733	-0.700134
H81	H	1.083891	0.248178	-0.512305
C82	C	1.005278	0.449280	-0.398211
H83	H	0.932531	0.448903	-0.398447
H84	H	1.025365	0.431369	-0.352921
H85	H	1.014322	0.518383	-0.414461
