data_functionalizedCrystal
_audit_creation_method	'MofGen! by Chris Wilmer'
_symmetry_space_group_name_H-M	'P1'
_symmetry_Int_Tables_number	1
_symmetry_cell_setting	triclinic
loop_
_symmetry_equiv_pos_as_xyz
  x,y,z
_cell_length_a	15.995350
_cell_length_b	23.532407
_cell_length_c	14.472310
_cell_angle_alpha	89.994233
_cell_angle_beta	89.990621
_cell_angle_gamma	83.170526
loop_
_atom_site_label
_atom_site_type_symbol
_atom_site_fract_x
_atom_site_fract_y
_atom_site_fract_z
O1	O	1.110386	0.073404	-0.076772
O2	O	0.866535	0.082469	-0.076793
O3	O	0.995814	-0.004967	-0.076765
O4	O	0.981107	0.160840	-0.076800
O5	O	0.995781	-0.004962	0.076917
O6	O	0.866502	0.082474	0.076889
O7	O	1.110353	0.073409	0.076910
Cu8	Cu	0.988424	0.077942	0.090932
Cu9	Cu	0.988464	0.077936	-0.090815
O10	O	0.981074	0.160845	0.076882
C11	C	0.835327	0.082096	0.000046
C12	C	0.742386	0.080973	0.000039
C13	C	0.404672	0.076938	0.000059
C14	C	0.452624	0.014668	0.000415
C15	C	0.549305	0.015792	0.000062
C16	C	0.572216	0.078939	0.000050
C17	C	0.530892	0.109650	-0.087713
C18	C	0.434270	0.108086	-0.087780
C19	C	0.433882	0.109378	0.086985
C20	C	0.530828	0.109364	0.088139
C21	C	0.666904	0.080074	0.000041
C22	C	0.309984	0.075805	0.000061
C23	C	0.995423	-0.026182	0.000078
C24	C	0.994297	-0.089404	0.000085
C25	C	1.063739	-0.488239	0.000041
C26	C	1.062693	-0.547644	0.000033
O27	O	1.127067	-0.584141	0.000005
N28	N	0.985837	-0.570566	0.000028
C29	C	0.910022	-0.534080	0.000020
O30	O	0.844554	-0.559031	0.000013
C31	C	0.911069	-0.474677	0.000020
C32	C	0.987930	-0.451758	0.000035
C33	C	1.140594	-0.465320	0.000055
C34	C	1.141640	-0.405920	0.000063
C35	C	1.065830	-0.369439	0.000058
C36	C	0.988975	-0.392358	0.000044
C37	C	0.835255	-0.438192	0.000006
C38	C	0.836308	-0.378785	0.000005
C39	C	0.913169	-0.355867	0.000020
C40	C	0.914212	-0.296477	0.000048
N41	N	0.991068	-0.273555	0.000053
C42	C	1.066877	-0.310036	0.000059
C43	C	0.907829	-0.658831	0.000017
C44	C	0.906781	-0.718233	0.000023
C45	C	1.059453	-0.731793	0.000035
C46	C	1.060500	-0.672389	0.000036
C47	C	0.984685	-0.635909	0.000023
C48	C	1.069067	-0.185291	0.000078
C49	C	1.070106	-0.125885	0.000091
C50	C	0.917435	-0.112330	0.000074
C51	C	0.916396	-0.171731	0.000066
C52	C	0.992219	-0.208210	0.000065
O53	O	0.849872	-0.259945	0.000073
O54	O	1.132335	-0.285076	0.000053
C55	C	1.141561	0.073781	0.000069
C56	C	1.234502	0.074905	0.000070
C57	C	0.981465	0.182060	0.000037
C58	C	0.982591	0.245281	0.000024
N59	N	0.988403	0.077946	0.218763
N60	N	0.988492	0.077927	-0.218646
C61	C	0.988463	0.077933	0.592854
C62	C	0.919059	0.124562	0.553673
C63	C	0.919217	0.124732	0.446585
C64	C	0.988432	0.077939	0.407263
C65	C	1.075689	0.090918	0.446104
C66	C	1.075298	0.091250	0.553226
C67	C	0.971390	0.018188	0.553394
C68	C	0.969383	0.018587	0.446267
C69	C	0.988421	0.077942	0.302375
C70	C	0.988480	0.077932	0.697742
H71	H	0.434295	-0.010221	0.063354
C72	C	1.154657	-0.100678	0.000102
H73	H	1.199654	-0.130916	0.000094
H74	H	1.158231	-0.077791	0.053696
H75	H	1.158249	-0.077783	-0.053495
H76	H	0.577921	-0.008349	0.062975
C77	C	1.147101	0.046265	0.411690
H78	H	1.124282	0.019248	0.373232
H79	H	1.174484	0.027092	0.463116
H80	H	1.186590	0.064911	0.377470
C81	C	0.426451	-0.018810	-0.084119
H82	H	0.386429	0.004998	-0.119631
H83	H	0.402176	-0.051591	-0.063931
H84	H	0.474603	-0.030480	-0.120960
C85	C	0.750706	-0.463389	-0.000019
H86	H	0.705715	-0.433147	-0.000034
H87	H	0.747097	-0.486285	0.053568
H88	H	0.747137	-0.486273	-0.053623
C89	C	0.933509	0.184120	0.590005
H90	H	0.981656	0.180693	0.628945
H91	H	0.885580	0.199976	0.624103
H92	H	0.942223	0.208431	0.539374
H93	H	1.204228	-0.387266	0.000072
C94	C	0.882676	0.005279	0.411980
H95	H	0.858182	0.035761	0.374048
H96	H	0.847094	0.001083	0.463479
H97	H	0.889263	-0.029215	0.377240
C98	C	0.831127	0.114290	0.588493
H99	H	0.790141	0.142879	0.564059
H100	H	0.829978	0.116015	0.654065
H101	H	0.819005	0.077636	0.568818
C102	C	0.390188	0.169842	-0.093196
H103	H	0.431357	0.195774	-0.095353
H104	H	0.355595	0.177706	-0.040283
H105	H	0.356429	0.174147	-0.147319
C106	C	0.587235	-0.017039	-0.085065
H107	H	0.543546	-0.031111	-0.119572
H108	H	0.626463	-0.048204	-0.065495
H109	H	0.615085	0.007951	-0.122663
C110	C	0.551052	0.171575	0.095291
H111	H	0.525270	0.188888	0.149103
H112	H	0.530072	0.192342	0.042219
H113	H	0.610296	0.171875	0.098975
H114	H	1.016688	-0.017738	0.419504
H115	H	1.128531	0.058627	0.579142
C116	C	0.752910	-0.338660	-0.000005
H117	H	0.706990	-0.360821	-0.000008
H118	H	0.750155	-0.315199	-0.053594
H119	H	0.750129	-0.315211	0.053597
H120	H	1.091183	0.133993	0.419259
H121	H	0.844194	-0.736887	0.000027
C122	C	1.039763	-0.028689	0.587628
H123	H	1.078530	-0.011964	0.625785
H124	H	1.068696	-0.046672	0.536118
H125	H	1.014241	-0.056345	0.622125
C126	C	0.406361	0.081881	0.176854
H127	H	0.424608	0.102097	0.228464
H128	H	0.430746	0.043088	0.179556
H129	H	0.346741	0.083501	0.177986
C130	C	1.223992	-0.505441	0.000068
H131	H	1.269906	-0.483275	0.000083
H132	H	1.226783	-0.528898	-0.053520
H133	H	1.226746	-0.528895	0.053671
C134	C	0.933879	0.184623	0.411938
H135	H	0.939770	0.208943	0.463331
H136	H	0.887252	0.200096	0.375503
H137	H	0.983677	0.181781	0.375614
H138	H	1.123087	-0.653734	0.000047
C139	C	0.409803	0.077822	-0.176387
H140	H	0.458893	0.066595	-0.212001
H141	H	0.371625	0.103264	-0.211478
H142	H	0.383812	0.044925	-0.160343
H143	H	0.909171	0.005708	0.580460
C144	C	0.549457	0.172321	-0.092145
H145	H	0.582658	0.180332	-0.040389
H146	H	0.497965	0.197015	-0.091333
H147	H	0.579220	0.178276	-0.147444
C148	C	0.569471	0.080828	-0.175938
H149	H	0.610751	0.050084	-0.159477
H150	H	0.594987	0.108027	-0.211451
H151	H	0.526472	0.066580	-0.211308
C152	C	1.142843	-0.771929	0.000024
H153	H	1.131205	-0.810589	0.000009
H154	H	1.174379	-0.764991	0.053614
H155	H	1.174382	-0.764976	-0.053577
C156	C	0.831851	-0.196943	0.000047
H157	H	0.786853	-0.166706	0.000039
H158	H	0.828249	-0.219844	0.053629
H159	H	0.828288	-0.219823	-0.053563
H160	H	0.401739	0.155290	0.087570
C161	C	0.567942	0.079074	0.175854
H162	H	0.542651	0.097674	0.228906
H163	H	0.627003	0.080600	0.177475
H164	H	0.557055	0.040260	0.175300
C165	C	1.152470	-0.225410	0.000085
H166	H	1.198386	-0.203245	0.000103
H167	H	1.155259	-0.248863	-0.053508
H168	H	1.155224	-0.248867	0.053684
H169	H	0.846088	-0.629131	0.000015
H170	H	0.855713	-0.082617	0.000073
H171	H	0.854341	0.116999	0.420326
H172	H	1.090418	0.134821	0.578193
