data_functionalizedCrystal
_audit_creation_method	'MofGen! by Chris Wilmer'
_symmetry_space_group_name_H-M	'P1'
_symmetry_Int_Tables_number	1
_symmetry_cell_setting	triclinic
loop_
_symmetry_equiv_pos_as_xyz
  x,y,z
_cell_length_a	11.792241
_cell_length_b	8.559649
_cell_length_c	7.681208
_cell_angle_alpha	85.067523
_cell_angle_beta	95.768971
_cell_angle_gamma	76.986040
loop_
_atom_site_label
_atom_site_type_symbol
_atom_site_fract_x
_atom_site_fract_y
_atom_site_fract_z
O1	O	-1.474846	-0.233850	0.146259
O2	O	-1.141513	0.099483	0.479592
O3	O	-0.808180	0.432817	0.812925
O4	O	-1.142437	-0.256408	0.146299
O5	O	-0.809104	0.076925	0.479632
O6	O	-0.475771	0.410259	0.812966
O7	O	-1.337927	-0.012780	0.146274
O8	O	-1.004594	0.320553	0.479607
O9	O	-0.671261	0.653886	0.812940
O10	O	-1.279356	-0.477478	0.146284
O11	O	-0.946023	-0.144145	0.479618
O12	O	-0.612689	0.189189	0.812951
O13	O	-1.362003	0.017284	-0.146600
O14	O	-1.028670	0.350618	0.186733
O15	O	-0.695336	0.683951	0.520067
O16	O	-1.166513	-0.226343	-0.146574
O17	O	-0.833179	0.106990	0.186759
O18	O	-0.499846	0.440323	0.520092
O19	O	-1.498922	-0.203786	-0.146615
O20	O	-1.165588	0.129548	0.186719
O21	O	-0.832255	0.462881	0.520052
Zn22	Zn	-1.336540	-0.210291	-0.193094
Zn23	Zn	-1.003206	0.123042	0.140239
Zn24	Zn	-0.669873	0.456376	0.473572
Zn25	Zn	-1.304819	-0.249903	0.192779
Zn26	Zn	-0.971486	0.083431	0.526112
Zn27	Zn	-0.638153	0.416764	0.859446
O28	O	-1.303432	-0.447413	-0.146589
O29	O	-0.970098	-0.114080	0.186744
O30	O	-0.636765	0.219253	0.520078
C31	C	-1.112313	-0.239960	-0.000132
C32	C	-0.778980	0.093374	0.333201
C33	C	-0.445647	0.426707	0.666534
C34	C	-0.986687	-0.235721	-0.000117
C35	C	-0.653353	0.097613	0.333216
C36	C	-0.320020	0.430946	0.666550
N37	N	-1.283173	-0.276925	0.456127
N38	N	-0.949839	0.056409	0.789461
N39	N	-0.616506	0.389742	1.122794
C40	C	-1.529045	-0.220234	-0.000179
C41	C	-1.195712	0.113099	0.333154
C42	C	-0.862379	0.446432	0.666487
C43	C	-1.654671	-0.224474	-0.000183
C44	C	-1.321338	0.108859	0.333150
C45	C	-0.988005	0.442192	0.666483
C46	C	-0.756692	-0.227918	-0.000168
C47	C	-0.423359	0.105415	0.333166
C48	C	-0.090026	0.438748	0.666499
C49	C	-0.884679	-0.232253	-0.000140
C50	C	-0.551345	0.101080	0.333194
C51	C	-0.218012	0.434413	0.666527
C52	C	-1.354404	0.061743	-0.000160
C53	C	-1.021070	0.395076	0.333173
C54	C	-0.687737	0.728410	0.666506
C55	C	-1.367615	0.239008	-0.000152
C56	C	-1.034282	0.572341	0.333181
C57	C	-0.700948	0.905675	0.666514
C58	C	-1.286955	-0.521937	-0.000151
C59	C	-0.953622	-0.188604	0.333182
C60	C	-0.620288	0.144730	0.666515
C61	C	-1.273743	-0.699203	-0.000148
C62	C	-0.940409	-0.365870	0.333185
C63	C	-0.607076	-0.032536	0.666519
N64	N	-1.358186	-0.183269	0.543557
N65	N	-1.024853	0.150064	0.876891
N66	N	-0.691520	0.483398	1.210224
H67	H	-1.183267	0.218083	-0.000143
H68	H	-0.849933	0.551417	0.333191
H69	H	-0.516600	0.884750	0.666524
H70	H	-1.458099	0.321733	-0.000177
H71	H	-1.124765	0.655066	0.333156
H72	H	-0.791432	0.988399	0.666489
H73	H	-1.206621	-0.372492	0.531374
H74	H	-0.873288	-0.039159	0.864707
H75	H	-0.539954	0.294175	1.198041
H76	H	-1.434750	-0.087707	0.468301
H77	H	-1.101417	0.245627	0.801635
H78	H	-0.768084	0.578960	1.134968
