data_functionalizedCrystal
_audit_creation_method	'MofGen! by Chris Wilmer'
_symmetry_space_group_name_H-M	'P1'
_symmetry_Int_Tables_number	1
_symmetry_cell_setting	triclinic
loop_
_symmetry_equiv_pos_as_xyz
  x,y,z
_cell_length_a	27.731996
_cell_length_b	14.853567
_cell_length_c	13.330367
_cell_angle_alpha	90.004582
_cell_angle_beta	89.989375
_cell_angle_gamma	96.871841
loop_
_atom_site_label
_atom_site_type_symbol
_atom_site_fract_x
_atom_site_fract_y
_atom_site_fract_z
O1	O	0.063108	-1.195320	-0.083368
O2	O	0.070626	-0.932736	-0.083387
O3	O	-0.003493	-1.072208	-0.083355
O4	O	0.137227	-1.055848	-0.083400
O5	O	-0.003495	-1.072188	0.083492
O6	O	0.070624	-0.932716	0.083460
O7	O	0.063106	-1.195300	0.083479
Cu8	Cu	0.066865	-1.064006	0.098704
Cu9	Cu	0.066867	-1.064030	-0.098612
O10	O	0.137226	-1.055828	0.083447
C11	C	0.070284	-0.899143	0.000035
C12	C	0.069264	-0.799076	0.000028
C13	C	-0.021503	-1.071862	0.000072
C14	C	-0.075164	-1.070849	0.000082
C15	C	0.063448	-1.228893	0.000055
C16	C	0.064469	-1.328960	0.000055
C17	C	-0.407909	-1.064492	-0.090916
C18	C	-0.609585	-1.060648	-0.090934
O19	O	-0.635658	-1.060122	-0.168283
N20	N	-0.634806	-1.060160	0.000014
C21	C	-0.609603	-1.060626	0.090972
O22	O	-0.635682	-1.060114	0.168328
C23	C	-0.407928	-1.064464	0.090989
C24	C	-0.382711	-1.064961	0.000036
C25	C	-0.382692	-1.064988	-0.181862
C26	C	-0.332276	-1.065954	-0.181856
C27	C	-0.307078	-1.066424	-0.090905
C28	C	-0.332295	-1.065927	0.000041
C29	C	-0.382726	-1.064924	0.181946
C30	C	-0.332304	-1.065881	0.181943
C31	C	-0.307087	-1.066379	0.090989
C32	C	-0.256681	-1.067362	0.090998
N33	N	-0.231461	-1.067851	0.000050
C34	C	-0.256659	-1.067381	-0.090901
C35	C	-0.715486	-1.058614	0.090957
C36	C	-0.765905	-1.057656	0.090953
C37	C	-0.765883	-1.057676	-0.090953
C38	C	-0.715464	-1.058640	-0.090948
C39	C	-0.690266	-1.059102	0.000009
C40	C	-0.150783	-1.069410	-0.090883
C41	C	-0.100363	-1.070380	-0.090869
C42	C	-0.100388	-1.070355	0.091036
C43	C	-0.150804	-1.069390	0.091023
C44	C	-0.176000	-1.068915	0.000056
O45	O	-0.230577	-1.067879	0.168306
O46	O	-0.230571	-1.067874	-0.168246
C47	C	-0.458325	-1.063526	-0.090921
C48	C	-0.483542	-1.063030	0.000025
C49	C	-0.458344	-1.063499	0.090976
C50	C	-0.533961	-1.062072	0.000021
C51	C	-0.559159	-1.061602	-0.090931
C52	C	-0.533939	-1.062091	-0.181878
C53	C	-0.483524	-1.063057	-0.181873
C54	C	-0.483564	-1.063011	0.181924
C55	C	-0.533980	-1.062046	0.181911
C56	C	-0.559178	-1.061576	0.090959
C57	C	0.155235	-1.056174	0.000018
C58	C	0.208896	-1.057187	0.000002
N59	N	0.066863	-1.063996	0.237486
C60	C	0.020920	-0.387345	0.000066
C61	C	0.108976	-0.364601	0.000037
C62	C	0.109935	-0.458619	0.000034
C63	C	0.066387	-0.517005	0.000045
C64	C	0.021879	-0.481372	0.000060
C65	C	0.154443	-0.494259	0.000009
C66	C	0.155404	-0.588282	0.000004
C67	C	0.111855	-0.646669	0.000023
C68	C	0.067345	-0.611031	0.000039
C69	C	0.023797	-0.669417	0.000050
C70	C	-0.020714	-0.633781	0.000073
C71	C	-0.021670	-0.539760	0.000078
C72	C	0.112812	-0.740691	0.000017
C73	C	0.024755	-0.763444	0.000043
N74	N	0.066865	-1.064047	-0.237393
C75	C	0.099674	-1.002269	0.710095
C76	C	0.034056	-1.125815	0.710091
C77	C	0.034055	-1.125805	0.605072
C78	C	0.066864	-1.064027	0.552560
C79	C	0.099675	-1.002259	0.605066
C80	C	0.001248	-1.187577	0.552558
C81	C	0.001246	-1.187570	0.447533
C82	C	0.034053	-1.125787	0.395019
C83	C	0.066864	-1.064016	0.447532
C84	C	0.099674	-1.002239	0.395020
C85	C	0.132483	-0.940463	0.447531
C86	C	0.132482	-0.940476	0.552553
C87	C	0.034054	-1.125774	0.289998
C88	C	0.099674	-1.002228	0.289992
H89	H	-0.079833	-1.070787	-0.164938
H90	H	0.144431	-0.317059	0.000020
H91	H	-0.694936	-1.059044	-0.165011
H92	H	-0.025462	-1.237880	0.595317
H93	H	0.191647	-0.617288	-0.000014
H94	H	-0.025470	-1.237870	0.404786
H95	H	-0.311789	-1.066244	0.256013
H96	H	-0.311749	-1.066356	-0.255920
H97	H	-0.403249	-1.064520	0.256011
Cl98	Cl	-0.077621	-0.494954	0.000101
Cl99	Cl	0.140920	-0.924555	0.223985
H100	H	0.149052	-0.769701	0.000000
H101	H	-0.010708	-0.810976	0.000056
Cl102	Cl	-0.035033	-0.342549	0.000100
Cl103	Cl	-0.414361	-1.064400	-0.296217
H104	H	0.159195	-0.890181	0.595313
Cl105	Cl	0.173731	-0.862808	0.381505
H106	H	0.189897	-0.446715	-0.000010
H107	H	-0.056170	-0.681331	0.000075
Cl108	Cl	0.140917	-0.924608	0.776102
H109	H	0.007346	-1.176117	0.752849
H110	H	0.007343	-1.176075	0.247248
H111	H	-0.786409	-1.057295	-0.165010
Cl112	Cl	-0.182449	-1.068814	-0.205244
Cl113	Cl	-0.797601	-1.057048	0.205299
H114	H	-0.171337	-1.068994	0.165085
Cl115	Cl	-0.683815	-1.059190	0.205316
H116	H	-0.079863	-1.070742	0.165087
H117	H	-0.554465	-1.061713	-0.255934
Cl118	Cl	-0.451830	-1.063680	-0.296221
H119	H	-0.554508	-1.061648	0.255982
H120	H	-0.463052	-1.063394	0.255989
