data_functionalizedCrystal
_audit_creation_method	'MofGen! by Chris Wilmer'
_symmetry_space_group_name_H-M	'P1'
_symmetry_Int_Tables_number	1
_symmetry_cell_setting	triclinic
loop_
_symmetry_equiv_pos_as_xyz
  x,y,z
_cell_length_a	10.723024
_cell_length_b	6.394989
_cell_length_c	9.198806
_cell_angle_alpha	90.000201
_cell_angle_beta	89.996352
_cell_angle_gamma	94.517210
loop_
_atom_site_label
_atom_site_type_symbol
_atom_site_fract_x
_atom_site_fract_y
_atom_site_fract_z
O1	O	1.660298	-0.293022	-0.120873
O2	O	1.297443	-0.321070	-0.120877
O3	O	1.484021	-0.003055	-0.120876
O4	O	1.473720	-0.611036	-0.120874
O5	O	1.484006	-0.003054	0.120909
O6	O	1.297428	-0.321069	0.120908
O7	O	1.660282	-0.293021	0.120912
Cu8	Cu	1.478854	-0.307045	0.142987
Cu9	Cu	1.478872	-0.307046	-0.142952
O10	O	1.473705	-0.611035	0.120911
C11	C	1.250914	-0.319028	0.000015
C12	C	1.112295	-0.312921	0.000013
C13	C	1.039201	-0.490865	0.000013
C14	C	0.895931	-0.484558	0.000011
C15	C	1.706811	-0.295062	0.000017
C16	C	1.845430	-0.301169	0.000010
C17	C	1.481977	0.074796	0.000011
C18	C	1.475752	0.311120	0.000010
N19	N	1.478850	-0.307043	0.344101
N20	N	1.478885	-0.307031	-0.344066
C21	C	1.557183	-0.172929	0.416299
C22	C	1.557202	-0.172922	0.583711
H23	H	0.833115	-0.636892	0.000005
C24	C	1.148582	0.062386	0.000016
C25	C	1.053603	-0.100943	0.000014
H26	H	1.112348	0.193254	0.000025
H27	H	1.198902	0.052351	-0.084295
H28	H	1.198899	0.052336	0.084337
H29	H	1.003291	-0.090902	-0.084313
H30	H	1.003262	-0.090903	0.084333
C31	C	1.624195	0.187784	0.369041
C32	C	1.647701	-0.017970	0.332402
H33	H	1.680075	0.283434	0.317230
H34	H	1.636110	0.208159	0.470524
H35	H	1.540459	0.211304	0.344194
H36	H	1.731435	-0.041495	0.357260
H37	H	1.635796	-0.038354	0.230896
C38	C	1.771148	-0.052618	0.630805
C39	C	1.647739	-0.017905	0.667514
H40	H	1.827040	0.043083	0.682551
H41	H	1.783003	-0.032280	0.529308
H42	H	1.787097	-0.192194	0.655685
H43	H	1.631787	0.121668	0.642623
H44	H	1.635879	-0.038225	0.769033
C45	C	1.456849	-0.590771	0.484607
C46	C	1.388344	-0.462052	0.572138
H47	H	1.400951	-0.686464	0.432862
H48	H	1.510063	-0.666525	0.543979
H49	H	1.505976	-0.506612	0.417600
H50	H	1.339224	-0.546210	0.639153
H51	H	1.335108	-0.386292	0.512762
H52	H	1.082689	-0.647879	0.000022
H53	H	0.908239	-0.148827	0.000001
H54	H	1.411796	-0.421850	0.406229
