data_functionalizedCrystal
_audit_creation_method	'MofGen! by Chris Wilmer'
_symmetry_space_group_name_H-M	'P1'
_symmetry_Int_Tables_number	1
_symmetry_cell_setting	triclinic
loop_
_symmetry_equiv_pos_as_xyz
  x,y,z
_cell_length_a	12.827893
_cell_length_b	10.686285
_cell_length_c	12.827885
_cell_angle_alpha	94.397093
_cell_angle_beta	89.980728
_cell_angle_gamma	94.368299
loop_
_atom_site_label
_atom_site_type_symbol
_atom_site_fract_x
_atom_site_fract_y
_atom_site_fract_z
Zn1	Zn	1.629641	0.502288	-0.558997
Zn2	Zn	2.129641	1.002288	-0.058997
Zn3	Zn	1.642968	0.713328	-0.370874
Zn4	Zn	2.142968	1.213328	0.129126
Zn5	Zn	1.454887	0.502350	-0.384266
Zn6	Zn	1.954887	1.002350	0.115734
Zn7	Zn	1.468295	0.713233	-0.545580
Zn8	Zn	1.968295	1.213233	-0.045580
O9	O	1.548948	0.607800	-0.464929
O10	O	2.048948	1.107800	0.035071
O11	O	1.777646	0.530296	-0.534052
O12	O	2.277646	1.030296	-0.034052
O13	O	1.617985	0.685407	-0.226410
O14	O	2.117985	1.185407	0.273590
O15	O	1.466879	0.325765	-0.418664
O16	O	1.966879	0.825765	0.081336
O17	O	1.787437	0.685347	-0.395839
O18	O	2.287437	1.185347	0.104161
O19	O	1.595271	0.325719	-0.547038
O20	O	2.095271	0.825719	-0.047038
O21	O	1.479802	0.530402	-0.236249
O22	O	1.979802	1.030402	0.263751
O23	O	1.310428	0.530310	-0.405655
O24	O	1.810428	1.030310	0.094345
O25	O	1.489732	0.685185	-0.693600
O26	O	1.989732	1.185185	-0.193600
O27	O	1.320279	0.685246	-0.524171
O28	O	1.820279	1.185246	-0.024171
O29	O	1.608272	0.530204	-0.703457
O30	O	2.108272	1.030204	-0.203457
O31	O	1.630987	0.889892	-0.382829
O32	O	2.130987	1.389892	0.117171
O33	O	1.502655	0.889822	-0.511185
O34	O	2.002655	1.389822	-0.011185
C35	C	1.277436	0.607775	-0.464911
C36	C	1.777436	1.107775	0.035089
C37	C	1.161285	0.607795	-0.464926
C38	C	1.661285	1.107795	0.035074
C39	C	1.569750	0.935642	-0.444121
C40	C	2.069750	1.435642	0.055879
C41	C	1.578745	1.075894	-0.435254
C42	C	2.078745	1.575894	0.064746
C43	C	1.549011	0.607677	-0.737507
C44	C	2.049011	1.107677	-0.237507
C45	C	1.549038	0.607625	-0.853664
C46	C	2.049038	1.107625	-0.353664
C47	C	1.114410	0.684582	-0.523466
C48	C	1.614410	1.184582	-0.023466
C49	C	0.994361	0.684604	-0.523483
C50	C	1.494361	1.184604	-0.023483
C51	C	1.821520	0.607825	-0.464948
C52	C	2.321520	1.107825	0.035052
C53	C	1.937673	0.607836	-0.464956
C54	C	2.437673	1.107836	0.035044
C55	C	1.528093	0.278678	-0.485842
C56	C	2.028093	0.778678	0.014158
C57	C	1.519205	0.138425	-0.494753
C58	C	2.019205	0.638425	0.005247
C59	C	1.617420	0.684295	-0.900582
C60	C	2.117420	1.184295	-0.400582
C61	C	1.617450	0.684243	-1.020635
C62	C	2.117450	1.184243	-0.520635
C63	C	1.548939	0.607830	-0.193417
C64	C	2.048939	1.107830	0.306583
C65	C	1.549092	0.607527	-0.077284
C66	C	2.049092	1.107527	0.422716
H67	H	1.163154	0.750301	-0.573576
H68	H	1.663154	1.250301	-0.073576
H69	H	0.954031	0.750348	-0.573598
H70	H	1.454031	1.250348	-0.073598
H71	H	1.461350	1.084666	-0.552478
H72	H	1.961350	1.584666	-0.052478
H73	H	1.636597	1.129661	-0.377519
H74	H	2.136597	1.629661	0.122481
H75	H	1.490541	0.541888	-1.036924
H76	H	1.990541	1.041888	-0.536924
C77	C	1.059352	0.590218	-0.325625
C78	C	1.559352	1.090218	0.174375
C79	C	0.992104	0.519082	-0.397291
C80	C	1.492104	1.019082	0.102709
H81	H	1.092965	0.535423	-0.283857
H82	H	1.592965	1.035423	0.216143
H83	H	1.020237	0.645084	-0.282065
H84	H	1.520237	1.145084	0.217935
H85	H	1.110472	0.638375	-0.362353
H86	H	1.610472	1.138375	0.137647
H87	H	0.940979	0.470932	-0.360563
H88	H	1.440979	0.970932	0.139437
H89	H	1.031222	0.464194	-0.440856
H90	H	1.531222	0.964194	0.059144
C91	C	1.681104	0.755857	-0.728630
C92	C	2.181104	1.255857	-0.228630
C93	C	1.696427	0.772967	-0.834834
C94	C	2.196427	1.272967	-0.334834
H95	H	1.729878	0.810608	-0.688044
H96	H	2.229878	1.310608	-0.188044
H97	H	1.691009	0.671076	-0.716190
H98	H	2.191009	1.171076	-0.216190
H99	H	1.612035	0.774305	-0.709628
H100	H	2.112035	1.274305	-0.209628
H101	H	1.765495	0.754509	-0.853838
H102	H	2.265495	1.254509	-0.353838
H103	H	1.686531	0.857768	-0.847280
H104	H	2.186531	1.357768	-0.347280
C105	C	1.759046	0.701591	-1.142402
C106	C	2.259046	1.201591	-0.642402
C107	C	1.696495	0.772857	-1.075115
C108	C	2.196495	1.272857	-0.575115
H109	H	1.807852	0.756300	-1.176030
H110	H	2.307852	1.256300	-0.676030
H111	H	1.716163	0.653472	-1.193502
H112	H	2.216163	1.153472	-0.693502
H113	H	1.795557	0.646682	-1.103301
H114	H	2.295557	1.146682	-0.603301
H115	H	1.659978	0.827759	-1.114218
H116	H	2.159978	1.327759	-0.614218
H117	H	1.739384	0.820997	-1.024009
H118	H	2.239384	1.320997	-0.524009
C119	C	1.407503	0.590170	-0.977631
C120	C	1.907503	1.090170	-0.477631
C121	C	1.470023	0.518959	-0.919407
C122	C	1.970023	1.018959	-0.419407
H123	H	1.358716	0.535429	-1.018209
H124	H	1.858716	1.035429	-0.518209
H125	H	1.450409	0.638248	-1.022622
H126	H	1.950409	1.138248	-0.522622
H127	H	1.370970	0.645115	-0.931544
H128	H	1.870970	1.145115	-0.431544
H129	H	1.506562	0.464021	-0.965494
H130	H	2.006562	0.964021	-0.465494
H131	H	1.427111	0.470860	-0.874412
H132	H	1.927111	0.970860	-0.374412
H133	H	1.112540	0.542067	-0.414825
H134	H	1.612540	1.042067	0.085175
