data_functionalizedCrystal
_audit_creation_method	'MofGen! by Chris Wilmer'
_symmetry_space_group_name_H-M	'P1'
_symmetry_Int_Tables_number	1
_symmetry_cell_setting	triclinic
loop_
_symmetry_equiv_pos_as_xyz
  x,y,z
_cell_length_a	14.908571
_cell_length_b	12.594516
_cell_length_c	12.594517
_cell_angle_alpha	89.999530
_cell_angle_beta	93.293622
_cell_angle_gamma	86.712497
loop_
_atom_site_label
_atom_site_type_symbol
_atom_site_fract_x
_atom_site_fract_y
_atom_site_fract_z
Zn1	Zn	1.379074	-0.518062	0.695590
Zn2	Zn	1.879074	-0.018062	1.195590
Zn3	Zn	1.379030	-0.695987	0.517615
Zn4	Zn	1.879030	-0.195987	1.017615
Zn5	Zn	1.228257	-0.507738	0.507371
Zn6	Zn	1.728257	-0.007738	1.007371
Zn7	Zn	1.228192	-0.685707	0.685295
Zn8	Zn	1.728192	-0.185707	1.185295
O9	O	1.303638	-0.601873	0.601468
O10	O	1.803638	-0.101873	1.101468
O11	O	1.505311	-0.550287	0.680578
O12	O	2.005311	-0.050287	1.180578
O13	O	1.359039	-0.670996	0.367311
O14	O	1.859039	-0.170996	0.867311
O15	O	1.248308	-0.360165	0.532359
O16	O	1.748308	0.139835	1.032359
O17	O	1.505280	-0.681008	0.549820
O18	O	2.005280	-0.181008	1.049820
O19	O	1.359112	-0.367750	0.670644
O20	O	1.859112	0.132250	1.170644
O21	O	1.248266	-0.532691	0.359784
O22	O	1.748266	-0.032691	0.859784
O23	O	1.102005	-0.522723	0.522376
O24	O	1.602005	-0.022723	1.022376
O25	O	1.248198	-0.663487	0.835606
O26	O	1.748198	-0.163487	1.335606
O27	O	1.101957	-0.653476	0.653097
O28	O	1.601957	-0.153476	1.153097
O29	O	1.359050	-0.540319	0.843170
O30	O	1.859050	-0.040319	1.343170
O31	O	1.358976	-0.843566	0.539837
O32	O	1.858976	-0.343566	1.039837
O33	O	1.248156	-0.836013	0.663031
O34	O	1.748156	-0.336013	1.163031
C35	C	1.069247	-0.585864	0.585508
C36	C	1.569247	-0.085864	1.085508
C37	C	0.968974	-0.579041	0.578706
C38	C	1.468974	-0.079041	1.078706
C39	C	1.303579	-0.878410	0.601453
C40	C	1.803579	-0.378410	1.101453
C41	C	1.303636	-0.996720	0.601488
C42	C	1.803636	-0.496720	1.101488
C43	C	0.780549	-0.702584	0.701860
C44	C	1.280549	-0.202584	1.201860
C45	C	0.686333	-0.696177	0.695472
C46	C	1.186333	-0.196177	1.195472
C47	C	0.686325	-0.559814	0.559549
C48	C	1.186325	-0.059814	1.059549
C49	C	0.780541	-0.566221	0.565937
C50	C	1.280541	-0.066221	1.065937
C51	C	0.827649	-0.637610	0.637093
C52	C	1.327649	-0.137610	1.137093
C53	C	0.921867	-0.644022	0.643475
C54	C	1.421867	-0.144022	1.143475
C55	C	0.921857	-0.507655	0.507558
C56	C	1.421857	-0.007655	1.007558
C57	C	0.827641	-0.501247	0.501170
C58	C	1.327641	-0.001247	1.001170
C59	C	1.243356	-1.061903	0.668443
C60	C	1.743356	-0.561903	1.168443
C61	C	1.221402	-1.131226	0.569828
C62	C	1.721402	-0.631226	1.069828
C63	C	1.325672	-1.138202	0.700126
C64	C	1.825672	-0.638202	1.200126
C65	C	1.281639	-1.064481	0.502819
C66	C	1.781639	-0.564481	1.002819
C67	C	1.385948	-1.071453	0.633185
C68	C	1.885948	-0.571453	1.133185
C69	C	1.364025	-1.140746	0.534505
C70	C	1.864025	-0.640746	1.034505
C71	C	1.538944	-0.617946	0.617490
C72	C	2.038944	-0.117946	1.117490
C73	C	1.639218	-0.624795	0.624318
C74	C	2.139218	-0.124795	1.124318
C75	C	1.303622	-0.601908	0.879088
C76	C	1.803622	-0.101908	1.379088
C77	C	1.303615	-0.601923	0.997392
C78	C	1.803615	-0.101923	1.497392
C79	C	1.303722	-0.324258	0.601507
C80	C	1.803722	0.175742	1.101507
C81	C	1.303758	-0.205955	0.601524
C82	C	1.803758	0.294045	1.101524
C83	C	1.243321	-0.668886	1.133295
C84	C	1.743321	-0.168886	1.633295
C85	C	1.221284	-0.570287	1.060992
C86	C	1.721284	-0.070287	1.560992
C87	C	1.325611	-0.700509	1.068121
C88	C	1.825611	-0.200509	1.568121
C89	C	1.281528	-0.503228	1.135872
C90	C	1.781528	-0.003228	1.635872
C91	C	1.385893	-0.633518	1.143009
C92	C	1.885893	-0.133518	1.643009
C93	C	1.363888	-0.534854	1.070741
C94	C	1.863888	-0.034854	1.570741
C95	C	1.303636	-0.601871	1.324927
C96	C	1.803636	-0.101871	1.824927
C97	C	1.303607	-0.601882	1.206619
C98	C	1.803607	-0.101882	1.706619
H99	H	0.960221	-0.702153	0.701413
H100	H	1.460221	-0.202153	1.201413
O101	O	1.129121	-0.534845	1.013501
O102	O	1.629121	-0.034845	1.513501
H103	H	1.130154	-0.534449	0.925452
H104	H	1.630154	-0.034449	1.425452
H105	H	1.414873	-0.478139	1.043339
H106	H	1.914873	0.021861	1.543339
H107	H	1.192287	-1.027413	0.724971
H108	H	1.692287	-0.527413	1.224971
H109	H	0.789272	-0.443122	0.443240
H110	H	1.289272	0.056878	0.943240
H111	H	0.647953	-0.501686	0.501624
H112	H	1.147953	-0.001686	1.001624
O113	O	1.350272	-0.810965	1.028630
O114	O	1.850272	-0.310965	1.528630
H115	H	1.300126	-0.866407	1.053570
H116	H	1.800126	-0.366407	1.553570
H117	H	0.960216	-0.454750	0.454818
H118	H	1.460216	0.045250	0.954818
H119	H	0.818905	-0.760717	0.759793
H120	H	1.318905	-0.260717	1.259793
H121	H	1.262841	-0.419808	1.165549
H122	H	1.762841	0.080192	1.665549
O123	O	1.129269	-1.166248	0.534317
O124	O	1.629269	-0.666248	1.034317
H125	H	1.102887	-1.214198	0.598279
H126	H	1.602887	-0.714198	1.098279
O127	O	1.478019	-0.668994	1.190568
O128	O	1.978019	-0.168994	1.690568
H129	H	1.496125	-0.750916	1.163532
H130	H	1.996125	-0.250916	1.663532
O131	O	1.431619	-1.186178	0.459437
O132	O	1.931619	-0.686178	0.959437
H133	H	1.499656	-1.161110	0.485089
H134	H	1.999656	-0.661110	0.985089
H135	H	1.192297	-0.725454	1.160892
H136	H	1.692297	-0.225454	1.660892
H137	H	1.455485	-1.044991	0.660012
H138	H	1.955485	-0.544991	1.160012
O139	O	0.635527	-0.766348	0.765232
O140	O	1.135527	-0.266348	1.265232
H141	H	0.684117	-0.817100	0.815743
H142	H	1.184117	-0.317100	1.315743
O143	O	1.350304	-1.181025	0.810599
O144	O	1.850304	-0.681025	1.310599
H145	H	1.300107	-1.149320	0.865994
H146	H	1.800107	-0.649320	1.365994
H147	H	1.262970	-1.032274	0.419389
H148	H	1.762970	-0.532274	0.919389
