data_functionalizedCrystal
_audit_creation_method	'MofGen! by Chris Wilmer'
_symmetry_space_group_name_H-M	'P1'
_symmetry_Int_Tables_number	1
_symmetry_cell_setting	triclinic
loop_
_symmetry_equiv_pos_as_xyz
  x,y,z
_cell_length_a	11.169417
_cell_length_b	16.625546
_cell_length_c	11.169409
_cell_angle_alpha	89.961635
_cell_angle_beta	89.979747
_cell_angle_gamma	90.023717
loop_
_atom_site_label
_atom_site_type_symbol
_atom_site_fract_x
_atom_site_fract_y
_atom_site_fract_z
Zn1	Zn	1.834870	-0.320910	-0.678482
Zn2	Zn	2.168203	0.012423	-0.345149
Zn3	Zn	2.501537	0.345757	-0.011815
Zn4	Zn	1.834714	-0.455772	-0.477778
Zn5	Zn	2.168048	-0.122438	-0.144444
Zn6	Zn	2.501381	0.210895	0.188889
Zn7	Zn	1.634153	-0.320960	-0.477817
Zn8	Zn	1.967487	0.012374	-0.144484
Zn9	Zn	2.300820	0.345707	0.188849
Zn10	Zn	1.634121	-0.455707	-0.678424
Zn11	Zn	1.967454	-0.122374	-0.345090
Zn12	Zn	2.300787	0.210959	-0.011757
O13	O	1.734465	-0.388337	-0.578125
O14	O	2.067798	-0.055004	-0.244792
O15	O	2.401131	0.278329	0.088542
O16	O	2.002799	-0.338806	-0.651866
O17	O	2.336132	-0.005472	-0.318533
O18	O	2.669466	0.327861	0.014801
O19	O	1.808058	-0.437937	-0.309833
O20	O	2.141391	-0.104603	0.023500
O21	O	2.474724	0.228730	0.356834
O22	O	1.660857	-0.208121	-0.504477
O23	O	1.994191	0.125213	-0.171144
O24	O	2.327524	0.458546	0.162189
O25	O	2.002685	-0.437888	-0.504409
O26	O	2.336018	-0.104555	-0.171076
O27	O	2.669351	0.228778	0.162257
O28	O	1.808323	-0.208084	-0.651905
O29	O	2.141656	0.125249	-0.318571
O30	O	2.474990	0.458583	0.014762
O31	O	1.660706	-0.338891	-0.309862
O32	O	1.994040	-0.005558	0.023471
O33	O	2.327373	0.327776	0.356804
O34	O	1.466199	-0.338828	-0.504421
O35	O	1.799533	-0.005495	-0.171087
O36	O	2.132866	0.327838	0.162246
O37	O	1.660802	-0.437778	-0.846381
O38	O	1.994136	-0.104445	-0.513048
O39	O	2.327469	0.228889	-0.179714
O40	O	1.466175	-0.437826	-0.651805
O41	O	1.799509	-0.104493	-0.318472
O42	O	2.132842	0.228840	0.014862
O43	O	1.808292	-0.338743	-0.846424
O44	O	2.141625	-0.005410	-0.513091
O45	O	2.474958	0.327924	-0.179757
O46	O	1.808026	-0.568596	-0.504353
O47	O	2.141360	-0.235262	-0.171019
O48	O	2.474693	0.098071	0.162314
O49	O	1.660651	-0.568548	-0.651766
O50	O	1.993985	-0.235215	-0.318433
O51	O	2.327318	0.098118	0.014900
C52	C	1.422640	-0.388326	-0.578111
C53	C	1.755973	-0.054993	-0.244778
C54	C	2.089307	0.278340	0.088555
C55	C	1.289240	-0.388341	-0.578134
C56	C	1.622573	-0.055008	-0.244801
C57	C	1.955907	0.278326	0.088533
C58	C	1.734351	-0.597828	-0.578075
C59	C	2.067684	-0.264495	-0.244742
C60	C	2.401018	0.068839	0.088592
C61	C	1.734412	-0.687449	-0.578094
C62	C	2.067746	-0.354116	-0.244760
C63	C	2.401079	-0.020783	0.088573
C64	C	1.734622	-1.015625	-0.578219
C65	C	2.067955	-0.682291	-0.244885
C66	C	2.401288	-0.348958	0.088448
C67	C	1.734559	-0.924316	-0.578187
C68	C	2.067893	-0.590983	-0.244854
C69	C	2.401226	-0.257650	0.088480
C70	C	1.734516	-0.851540	-0.578155
C71	C	2.067849	-0.518207	-0.244822
C72	C	2.401183	-0.184873	0.088511
C73	C	1.734456	-0.760226	-0.578125
C74	C	2.067789	-0.426892	-0.244792
C75	C	2.401122	-0.093559	0.088541
C76	C	2.047507	-0.388349	-0.578140
C77	C	2.380840	-0.055015	-0.244806
C78	C	2.714174	0.278318	0.088527
C79	C	2.180907	-0.388354	-0.578146
C80	C	2.514240	-0.055020	-0.244812
C81	C	2.847573	0.278313	0.088521
C82	C	1.734561	-0.388248	-0.891168
C83	C	2.067894	-0.054915	-0.557834
C84	C	2.401227	0.278419	-0.224501
C85	C	1.734602	-0.388210	-1.024568
C86	C	2.067935	-0.054876	-0.691235
C87	C	2.401268	0.278457	-0.357901
C88	C	1.734611	-0.178028	-0.578202
C89	C	2.067945	0.155305	-0.244869
C90	C	2.401278	0.488638	0.088465
C91	C	1.734674	-0.088407	-0.578235
C92	C	2.068007	0.244926	-0.244901
C93	C	2.401340	0.578260	0.088432
C94	C	1.734438	-0.388368	-0.266300
C95	C	2.067771	-0.055035	0.067033
C96	C	2.401104	0.278299	0.400366
C97	C	1.734629	-0.388179	-0.132901
C98	C	2.067963	-0.054846	0.200432
C99	C	2.401296	0.278488	0.533766
