data_functionalizedCrystal
_audit_creation_method	'MofGen! by Chris Wilmer'
_symmetry_space_group_name_H-M	'P1'
_symmetry_Int_Tables_number	1
_symmetry_cell_setting	triclinic
loop_
_symmetry_equiv_pos_as_xyz
  x,y,z
_cell_length_a	16.625548
_cell_length_b	29.839131
_cell_length_c	16.625539
_cell_angle_alpha	89.960252
_cell_angle_beta	89.979432
_cell_angle_gamma	90.036296
loop_
_atom_site_label
_atom_site_type_symbol
_atom_site_fract_x
_atom_site_fract_y
_atom_site_fract_z
Zn1	Zn	1.232609	-0.178840	-0.455845
Zn2	Zn	1.565942	0.154494	-0.122512
Zn3	Zn	1.899276	0.487827	0.210821
Zn4	Zn	1.232482	-0.253971	-0.320985
Zn5	Zn	1.565815	0.079363	0.012348
Zn6	Zn	1.899149	0.412696	0.345681
Zn7	Zn	1.097771	-0.178857	-0.321026
Zn8	Zn	1.431104	0.154476	0.012308
Zn9	Zn	1.764437	0.487810	0.345641
Zn10	Zn	1.097711	-0.253945	-0.455775
Zn11	Zn	1.431044	0.079388	-0.122442
Zn12	Zn	1.764378	0.412722	0.210891
O13	O	1.165143	-0.216403	-0.388408
O14	O	1.498477	0.116930	-0.055075
O15	O	1.831810	0.450264	0.278259
O16	O	1.345425	-0.188810	-0.437968
O17	O	1.678758	0.144524	-0.104635
O18	O	2.012091	0.477857	0.228698
O19	O	1.214584	-0.244025	-0.208158
O20	O	1.547918	0.089309	0.125175
O21	O	1.881251	0.422642	0.458508
O22	O	1.115735	-0.115987	-0.338956
O23	O	1.449069	0.217346	-0.005623
O24	O	1.782402	0.550679	0.327711
O25	O	1.345331	-0.244008	-0.338887
O26	O	1.678665	0.089325	-0.005554
O27	O	2.011998	0.422659	0.327779
O28	O	1.214800	-0.115975	-0.438007
O29	O	1.548134	0.217358	-0.104674
O30	O	1.881467	0.550692	0.228659
O31	O	1.115612	-0.188839	-0.208188
O32	O	1.448946	0.144495	0.125145
O33	O	1.782279	0.477828	0.458479
O34	O	0.984930	-0.188814	-0.338888
O35	O	1.318264	0.144520	-0.005555
O36	O	1.651597	0.477853	0.327778
O37	O	1.115634	-0.243964	-0.568617
O38	O	1.448967	0.089369	-0.235284
O39	O	1.782300	0.422703	0.098050
O40	O	0.984887	-0.243981	-0.437888
O41	O	1.318220	0.089353	-0.104555
O42	O	1.651553	0.422686	0.228779
O43	O	1.214743	-0.188785	-0.568668
O44	O	1.548076	0.144549	-0.235335
O45	O	1.881409	0.477882	0.097998
O46	O	1.214526	-0.316834	-0.338820
O47	O	1.547860	0.016499	-0.005486
O48	O	1.881193	0.349832	0.327847
O49	O	1.115511	-0.316815	-0.437849
O50	O	1.448844	0.016518	-0.104516
O51	O	1.782177	0.349851	0.228818
C52	C	0.955652	-0.216397	-0.388385
C53	C	1.288986	0.116937	-0.055052
C54	C	1.622319	0.450270	0.278281
C55	C	0.866031	-0.216405	-0.388395
C56	C	1.199365	0.116929	-0.055062
C57	C	1.532698	0.450262	0.278272
C58	C	1.165020	-0.333126	-0.388340
C59	C	1.498354	0.000208	-0.055007
C60	C	1.831687	0.333541	0.278327
C61	C	1.165041	-0.383060	-0.388338
C62	C	1.498375	-0.049727	-0.055005
C63	C	1.831708	0.283607	0.278329
C64	C	0.537856	-0.216408	-0.388429
C65	C	0.871189	0.116926	-0.055096
C66	C	1.204522	0.450259	0.278237
C67	C	0.629164	-0.216406	-0.388417
C68	C	0.962497	0.116928	-0.055084
C69	C	1.295831	0.450261	0.278249
C70	C	0.701941	-0.216406	-0.388411
C71	C	1.035274	0.116927	-0.055078
C72	C	1.368607	0.450260	0.278255
C73	C	0.793255	-0.216404	-0.388401
C74	C	1.126588	0.116929	-0.055067
C75	C	1.459922	0.450263	0.278266
C76	C	1.216715	-0.692662	-0.440057
C77	C	1.550049	-0.359329	-0.106724
C78	C	1.883382	-0.025995	0.226609
C79	C	1.216803	-0.880335	-0.440106
C80	C	1.550136	-0.547002	-0.106773
C81	C	1.883469	-0.213668	0.226561
O82	O	1.260617	-0.904565	-0.484029
O83	O	1.593950	-0.571231	-0.150696
O84	O	1.927284	-0.237898	0.182637
N85	N	1.165280	-0.903845	-0.388497
N86	N	1.498614	-0.570512	-0.055164
N87	N	1.831947	-0.237178	0.278169
C88	C	1.113728	-0.880434	-0.336877
C89	C	1.447062	-0.547101	-0.003544
C90	C	1.780395	-0.213767	0.329790
O91	O	1.069901	-0.904737	-0.292988
O92	O	1.403235	-0.571404	0.040346
O93	O	1.736568	-0.238070	0.373679
C94	C	1.113637	-0.692762	-0.336833
C95	C	1.446971	-0.359428	-0.003500
C96	C	1.780304	-0.026095	0.329834
C97	C	1.165169	-0.669254	-0.388439
C98	C	1.498502	-0.335921	-0.055106
C99	C	1.831836	-0.002588	0.278227
C100	C	1.268242	-0.669154	-0.491660
C101	C	1.601575	-0.335821	-0.158327
C102	C	1.934909	-0.002488	0.175007
C103	C	1.268223	-0.622239	-0.491644
C104	C	1.601556	-0.288905	-0.158311
C105	C	1.934889	0.044428	0.175022
C106	C	1.216677	-0.598831	-0.440026
C107	C	1.550010	-0.265498	-0.106693
C108	C	1.883343	0.067836	0.226641
C109	C	1.165150	-0.622339	-0.388423
C110	C	1.498483	-0.289005	-0.055090
C111	C	1.831816	0.044328	0.278243
C112	C	1.062082	-0.669352	-0.285217
C113	C	1.395415	-0.336018	0.048116
C114	C	1.728749	-0.002685	0.381449
C115	C	1.062063	-0.622431	-0.285212
C116	C	1.395396	-0.289097	0.048121
C117	C	1.728729	0.044236	0.381454
C118	C	1.113594	-0.598923	-0.336818
C119	C	1.446928	-0.265590	-0.003485
C120	C	1.780261	0.067744	0.329848
C121	C	1.113584	-0.552016	-0.336790
C122	C	1.446918	-0.218682	-0.003456
C123	C	1.780251	0.114651	0.329877
N124	N	1.165107	-0.528505	-0.388398
N125	N	1.498440	-0.195172	-0.055065
N126	N	1.831774	0.138161	0.278269
C127	C	1.216653	-0.551913	-0.440016
C128	C	1.549986	-0.218580	-0.106683
C129	C	1.883320	0.114753	0.226650
C130	C	1.113781	-0.978965	-0.336902
C131	C	1.447114	-0.645631	-0.003569
C132	C	1.780448	-0.312298	0.329764
C133	C	1.113805	-1.025882	-0.336912
C134	C	1.447138	-0.692549	-0.003579
C135	C	1.780471	-0.359216	0.329754
C136	C	1.216878	-1.025780	-0.440142
C137	C	1.550211	-0.692447	-0.106809
C138	C	1.883545	-0.359113	0.226524
C139	C	1.216858	-0.978861	-0.440128
C140	C	1.550191	-0.645528	-0.106795
C141	C	1.883525	-0.312195	0.226539
C142	C	1.165303	-0.955455	-0.388511
C143	C	1.498637	-0.622121	-0.055178
C144	C	1.831970	-0.288788	0.278156
C145	C	1.216609	-0.453387	-0.439979
C146	C	1.549942	-0.120054	-0.106645
C147	C	1.883276	0.213279	0.226688
C148	C	1.216588	-0.406468	-0.439956
C149	C	1.549921	-0.073134	-0.106623
C150	C	1.883254	0.260199	0.226711
C151	C	1.113511	-0.406574	-0.336729
C152	C	1.446845	-0.073241	-0.003396
C153	C	1.780178	0.260093	0.329937
C154	C	1.113536	-0.453490	-0.336749
C155	C	1.446869	-0.120156	-0.003415
C156	C	1.780202	0.213177	0.329918
C157	C	1.165087	-0.476895	-0.388380
C158	C	1.498420	-0.143562	-0.055047
C159	C	1.831754	0.189772	0.278287
O160	O	1.069787	-0.527757	-0.292896
O161	O	1.403120	-0.194424	0.040438
O162	O	1.736453	0.138910	0.373771
O163	O	1.260461	-0.527602	-0.483911
O164	O	1.593794	-0.194269	-0.150578
O165	O	1.927127	0.139065	0.182755
C166	C	1.216734	-0.739577	-0.440073
C167	C	1.550068	-0.406244	-0.106740
C168	C	1.883401	-0.072911	0.226593
C169	C	1.165208	-0.763085	-0.388471
C170	C	1.498541	-0.429752	-0.055137
C171	C	1.831874	-0.096418	0.278196
C172	C	1.113662	-0.739677	-0.336852
C173	C	1.446995	-0.406344	-0.003519
C174	C	1.780328	-0.073011	0.329814
C175	C	1.165231	-0.810003	-0.388480
C176	C	1.498565	-0.476670	-0.055147
C177	C	1.831898	-0.143336	0.278186
C178	C	1.216777	-0.833411	-0.440099
C179	C	1.550111	-0.500077	-0.106765
C180	C	1.883444	-0.166744	0.226568
C181	C	1.268300	-0.809901	-0.491707
C182	C	1.601633	-0.476567	-0.158374
C183	C	1.934967	-0.143234	0.174960
C184	C	1.268281	-0.762985	-0.491691
C185	C	1.601614	-0.429652	-0.158358
C186	C	1.934947	-0.096318	0.174975
C187	C	1.062139	-0.763187	-0.285244
C188	C	1.395472	-0.429854	0.048089
C189	C	1.728806	-0.096521	0.381423
C190	C	1.062163	-0.810103	-0.285263
C191	C	1.395497	-0.476770	0.048070
C192	C	1.728830	-0.143436	0.381403
C193	C	1.113709	-0.833511	-0.336882
C194	C	1.447043	-0.500177	-0.003548
C195	C	1.780376	-0.166844	0.329785
C196	C	1.375452	-0.216410	-0.388431
C197	C	1.708785	0.116924	-0.055098
C198	C	2.042119	0.450257	0.278236
C199	C	1.465073	-0.216413	-0.388441
C200	C	1.798407	0.116921	-0.055108
C201	C	2.131740	0.450254	0.278226
C202	C	1.165196	-0.216370	-0.598717
C203	C	1.498529	0.116964	-0.265384
C204	C	1.831862	0.450297	0.067950
C205	C	1.165218	-0.216355	-0.688338
C206	C	1.498551	0.116978	-0.355005
C207	C	1.831885	0.450311	-0.021671
C208	C	1.165289	-0.099225	-0.388494
C209	C	1.498622	0.234109	-0.055161
C210	C	1.831955	0.567442	0.278173
C211	C	1.165351	-0.049290	-0.388530
C212	C	1.498684	0.284043	-0.055197
C213	C	1.832017	0.617376	0.278136
C214	C	1.165255	-0.216305	-1.016514
C215	C	1.498589	0.117028	-0.683181
C216	C	1.831922	0.450362	-0.349847
C217	C	1.165243	-0.216320	-0.925205
C218	C	1.498576	0.117013	-0.591872
C219	C	1.831909	0.450346	-0.258539
C220	C	1.165237	-0.216330	-0.852429
C221	C	1.498570	0.117003	-0.519096
C222	C	1.831904	0.450336	-0.185762
C223	C	1.165224	-0.216345	-0.761115
C224	C	1.498557	0.116988	-0.427781
C225	C	1.831890	0.450321	-0.094448
C226	C	1.165137	-0.216404	-0.178917
C227	C	1.498471	0.116929	0.154416
C228	C	1.831804	0.450263	0.487750
C229	C	1.165271	-0.216292	-0.089297
C230	C	1.498605	0.117042	0.244037
C231	C	1.831938	0.450375	0.577370
H232	H	1.258554	-0.387329	-0.481980
H233	H	1.591887	-0.053996	-0.148647
H234	H	1.925220	0.279337	0.184687
Cl235	Cl	1.333049	-0.698573	-0.556563
Cl236	Cl	1.666383	-0.365239	-0.223230
Cl237	Cl	1.999716	-0.031906	0.110104
Cl238	Cl	1.281420	-0.482804	-0.504885
Cl239	Cl	1.614753	-0.149471	-0.171552
Cl240	Cl	1.948087	0.183863	0.161782
Cl241	Cl	0.997292	-0.698893	-0.220340
Cl242	Cl	1.330625	-0.365559	0.112993
Cl243	Cl	1.663958	-0.032226	0.446327
H244	H	1.258850	-1.044847	-0.482171
H245	H	1.592183	-0.711513	-0.148838
H246	H	1.925517	-0.378180	0.184496
Cl247	Cl	1.048961	-0.949545	-0.272007
Cl248	Cl	1.382294	-0.616212	0.061326
Cl249	Cl	1.715627	-0.282879	0.394659
Cl250	Cl	1.049030	-1.055429	-0.272022
Cl251	Cl	1.382363	-0.722096	0.061311
Cl252	Cl	1.715697	-0.388762	0.394645
Cl253	Cl	1.333065	-0.733440	-0.556573
Cl254	Cl	1.666399	-0.400106	-0.223240
Cl255	Cl	1.999732	-0.066773	0.110094
Cl256	Cl	1.281641	-0.949314	-0.505008
Cl257	Cl	1.614974	-0.615981	-0.171675
Cl258	Cl	1.948308	-0.282647	0.161658
H259	H	1.020201	-0.829239	-0.243232
H260	H	1.353534	-0.495905	0.090102
H261	H	1.686868	-0.162572	0.423435
H262	H	1.310273	-0.828967	-0.533734
H263	H	1.643607	-0.495634	-0.200400
H264	H	1.976940	-0.162301	0.132933
H265	H	1.020078	-0.603375	-0.243180
H266	H	1.353411	-0.270042	0.090153
H267	H	1.686745	0.063292	0.423486
Cl268	Cl	1.048763	-0.483043	-0.271861
Cl269	Cl	1.382096	-0.149710	0.061472
Cl270	Cl	1.715429	0.183624	0.394805
Cl271	Cl	1.333002	-0.592693	-0.556531
Cl272	Cl	1.666336	-0.259360	-0.223198
Cl273	Cl	1.999669	0.073973	0.110136
H274	H	1.071546	-0.387508	-0.294700
H275	H	1.404879	-0.054175	0.038634
H276	H	1.738212	0.279158	0.371967
Cl277	Cl	0.997328	-0.733768	-0.220349
Cl278	Cl	1.330661	-0.400434	0.112984
Cl279	Cl	1.663994	-0.067101	0.446318
