data_functionalizedCrystal
_audit_creation_method	'MofGen! by Chris Wilmer'
_symmetry_space_group_name_H-M	'P1'
_symmetry_Int_Tables_number	1
_symmetry_cell_setting	triclinic
loop_
_symmetry_equiv_pos_as_xyz
  x,y,z
_cell_length_a	12.837943
_cell_length_b	14.044220
_cell_length_c	11.892095
_cell_angle_alpha	94.243827
_cell_angle_beta	85.689438
_cell_angle_gamma	94.008909
loop_
_atom_site_label
_atom_site_type_symbol
_atom_site_fract_x
_atom_site_fract_y
_atom_site_fract_z
O1	O	1.404549	0.242985	-0.093990
O2	O	1.101609	0.230709	-0.093996
O3	O	1.248531	0.098452	-0.093982
O4	O	1.257627	0.375241	-0.094004
O5	O	1.236280	0.109461	0.094025
O6	O	1.089357	0.241718	0.094010
O7	O	1.392297	0.253993	0.094017
Zn8	Zn	1.238882	0.249603	0.123864
Zn9	Zn	1.255024	0.235099	-0.123843
O10	O	1.245375	0.386250	0.094002
C11	C	1.056479	0.232067	0.000007
C12	C	0.940259	0.219699	0.000005
C13	C	0.713048	0.368378	0.000009
C14	C	0.603848	0.356763	0.000008
C15	C	0.612657	0.184853	0.000009
C16	C	0.721856	0.196469	0.000011
C17	C	0.772048	0.288234	0.000008
C18	C	0.881251	0.299849	0.000001
C19	C	0.890056	0.127940	0.000011
C20	C	0.780857	0.116324	0.000010
C21	C	1.238425	0.068282	0.000022
C22	C	1.226550	-0.038016	0.000023
C23	C	1.204843	-0.232639	0.000006
C24	C	1.289060	-0.282665	0.000005
C25	C	1.276982	-0.390960	-0.000005
C26	C	1.216919	-0.124334	0.000016
C27	C	1.437428	0.252635	0.000012
C28	C	1.553649	0.265002	0.000006
C29	C	1.255482	0.416420	-0.000004
C30	C	1.267357	0.522717	-0.000012
N31	N	1.227873	0.259502	0.292917
N32	N	1.266041	0.225193	-0.292896
C33	C	1.342643	0.156258	0.529576
C34	C	1.334956	0.163185	0.647917
C35	C	1.204807	0.280277	0.647942
C36	C	1.212494	0.273350	0.529601
C37	C	1.281415	0.211340	0.470422
C38	C	1.289107	0.204418	0.352079
C39	C	1.158954	0.321505	0.352106
C40	C	1.151267	0.328432	0.470447
H41	H	0.555814	0.422025	0.000011
H42	H	1.345229	0.153929	0.303896
O43	O	0.947490	0.050144	-0.000141
C44	C	1.017239	0.046010	-0.097530
H45	H	1.031891	0.120480	-0.129990
H46	H	1.094466	0.019077	-0.075639
H47	H	0.981762	-0.004868	-0.165712
H48	H	0.571765	0.110147	0.000104
O49	O	1.084232	0.388679	0.527763
C50	C	1.031860	0.435829	0.450171
H51	H	1.032539	0.391598	0.365814
H52	H	0.947502	0.444832	0.484378
H53	H	1.073186	0.509184	0.437580
H54	H	1.109101	0.366359	0.303930
H55	H	0.739974	0.041612	0.000025
O56	O	1.137796	0.340375	0.705570
C57	C	1.064115	0.287317	0.774011
H58	H	1.097688	0.217335	0.791714
H59	H	1.045863	0.330569	0.857241
H60	H	0.989215	0.271143	0.728424
O61	O	1.385979	-0.236892	-0.000027
C62	C	1.461908	-0.304733	0.000007
H63	H	1.428790	-0.377233	-0.035603
H64	H	1.534525	-0.280918	-0.054559
H65	H	1.483810	-0.310905	0.090207
O66	O	1.108001	-0.278533	-0.000193
C67	C	1.059706	-0.258189	-0.097543
H68	H	1.122266	-0.236258	-0.165603
H69	H	1.011890	-0.324585	-0.130226
H70	H	1.005910	-0.197274	-0.075521
H71	H	1.398769	0.105774	0.481391
O72	O	1.394540	0.109641	0.705204
C73	C	1.456994	0.053407	0.627589
H74	H	1.467282	0.087768	0.543230
H75	H	1.536906	0.048399	0.661764
H76	H	1.417297	-0.021418	0.615012
H77	H	0.922115	0.374569	0.000002
H78	H	0.753915	0.443098	0.000005
