data_functionalizedCrystal
_audit_creation_method	'MofGen! by Chris Wilmer'
_symmetry_space_group_name_H-M	'P1'
_symmetry_Int_Tables_number	1
_symmetry_cell_setting	triclinic
loop_
_symmetry_equiv_pos_as_xyz
  x,y,z
_cell_length_a	10.654550
_cell_length_b	10.489716
_cell_length_c	9.730223
_cell_angle_alpha	90.002187
_cell_angle_beta	90.001022
_cell_angle_gamma	84.507033
loop_
_atom_site_label
_atom_site_type_symbol
_atom_site_fract_x
_atom_site_fract_y
_atom_site_fract_z
O1	O	1.667909	0.179167	0.114174
O2	O	1.302437	0.196237	0.114198
O3	O	1.493505	0.002098	0.114190
O4	O	1.476841	0.373306	0.114181
O5	O	1.493490	0.002086	-0.114390
O6	O	1.302422	0.196225	-0.114382
O7	O	1.667894	0.179155	-0.114406
Zn8	Zn	1.485155	0.187688	-0.150686
Zn9	Zn	1.485175	0.187704	0.150478
O10	O	1.476825	0.373294	-0.114399
C11	C	1.255631	0.194977	-0.000089
C12	C	1.116186	0.191228	-0.000079
C13	C	1.492245	-0.045440	-0.000096
C14	C	1.488499	-0.187069	-0.000083
C15	C	1.036744	0.305533	-0.000086
C16	C	0.905722	0.302002	-0.000110
C17	C	0.933597	0.069850	-0.000115
C18	C	1.064616	0.073382	-0.000101
C19	C	1.605668	-0.284799	-0.000103
C20	C	1.543761	-0.362124	0.112599
C21	C	1.543719	-0.362100	-0.112763
C22	C	1.426641	-0.262528	0.112713
C23	C	1.426616	-0.262498	-0.112750
C24	C	1.364623	-0.339774	-0.000021
C25	C	1.714700	0.180414	-0.000116
C26	C	1.854144	0.184164	-0.000117
C27	C	1.478085	0.420831	-0.000110
C28	C	1.481831	0.562461	-0.000113
N29	N	1.485150	0.187677	-0.356223
C30	C	1.408323	0.109613	-0.572078
C31	C	1.408307	0.109595	-0.428195
C32	C	1.562026	0.265773	-0.428140
C33	C	1.562048	0.265783	-0.572020
N34	N	1.485190	0.187705	0.356014
H35	H	1.078728	0.401490	-0.000079
N36	N	1.329782	0.029847	-0.354723
N37	N	1.329770	0.029844	-0.226260
H38	H	1.274310	-0.026481	-0.174367
N39	N	0.824578	0.418766	-0.000144
N40	N	0.829898	0.496874	-0.096497
H41	H	0.772591	0.579344	-0.096527
H42	H	0.891592	-0.026096	-0.000140
N43	N	1.145792	-0.043373	-0.000107
N44	N	1.222018	-0.067292	-0.096457
H45	H	1.279350	-0.149746	-0.096468
N46	N	1.733524	-0.253915	0.000038
N47	N	1.805276	-0.290128	0.096956
H48	H	1.895572	-0.268316	0.097062
N49	N	1.605825	-0.416699	0.232124
N50	N	1.719763	-0.403645	0.252204
H51	H	1.763604	-0.442182	0.336615
H52	H	1.377213	-0.219195	0.208099
H53	H	1.262629	-0.364156	0.000047
N54	N	1.364621	-0.207893	-0.232289
N55	N	1.404598	-0.240050	-0.349231
H56	H	1.360822	-0.201485	-0.433667
H57	H	1.593199	-0.405601	-0.208041
N58	N	1.329808	0.029856	-0.645569
N59	N	1.261183	-0.039863	-0.581341
H60	H	1.205729	-0.096195	-0.633239
N61	N	1.640524	0.345514	-0.354605
N62	N	1.640495	0.345496	-0.226142
H63	H	1.695934	0.401817	-0.174208
N64	N	1.640568	0.345580	-0.645455
N65	N	1.626585	0.464316	-0.629367
H66	H	1.682039	0.520670	-0.681227
