data_functionalizedCrystal
_audit_creation_method	'MofGen! by Chris Wilmer'
_symmetry_space_group_name_H-M	'P1'
_symmetry_Int_Tables_number	1
_symmetry_cell_setting	triclinic
loop_
_symmetry_equiv_pos_as_xyz
  x,y,z
_cell_length_a	14.853567
_cell_length_b	14.853559
_cell_length_c	9.130307
_cell_angle_alpha	89.998895
_cell_angle_beta	90.001452
_cell_angle_gamma	83.633192
loop_
_atom_site_label
_atom_site_type_symbol
_atom_site_fract_x
_atom_site_fract_y
_atom_site_fract_z
O1	O	1.196357	0.117703	-0.121691
O2	O	0.933898	0.131725	-0.121715
O3	O	1.072142	-0.006516	-0.121701
O4	O	1.058113	0.255944	-0.121705
O5	O	1.072138	-0.006518	0.121898
O6	O	0.933893	0.131723	0.121884
O7	O	1.196353	0.117702	0.121908
Cu8	Cu	1.065123	0.124712	0.144138
Cu9	Cu	1.065128	0.124714	-0.143946
O10	O	1.058108	0.255943	0.121894
C11	C	0.900307	0.131089	0.000081
C12	C	0.800223	0.129185	0.000071
C13	C	0.387692	0.039019	0.000106
C14	C	0.366406	0.203252	0.000102
C15	C	0.460440	0.205042	0.000097
C16	C	0.518104	0.123819	0.000094
C17	C	0.481735	0.040806	0.000097
C18	C	0.496816	0.288054	0.000080
C19	C	0.590855	0.289847	0.000073
C20	C	0.648521	0.208623	0.000081
C21	C	0.612147	0.125607	0.000085
C22	C	0.669811	0.044384	0.000083
C23	C	0.633438	-0.038633	0.000097
C24	C	0.539401	-0.040418	0.000105
C25	C	0.742559	0.210408	0.000074
C26	C	0.763854	0.046172	0.000074
C27	C	1.071506	-0.040106	0.000096
C28	C	1.069605	-0.140190	0.000087
C29	C	1.061543	-0.563364	-0.132699
C30	C	1.061539	-0.563360	0.132881
C31	C	1.063332	-0.469327	0.132883
C32	C	1.064230	-0.422308	0.000091
C33	C	1.063334	-0.469322	-0.132702
C34	C	1.064218	-0.422305	0.265674
C35	C	1.066011	-0.328266	0.265681
C36	C	1.066915	-0.281246	0.132887
C37	C	1.066021	-0.328266	0.000088
C38	C	1.066919	-0.281246	-0.132703
C39	C	1.066030	-0.328265	-0.265504
C40	C	1.064239	-0.422302	-0.265496
C41	C	1.068707	-0.187209	0.132879
C42	C	1.068709	-0.187204	-0.132706
C43	C	1.229944	0.118338	0.000108
C44	C	1.330028	0.120242	0.000108
C45	C	1.058745	0.289532	0.000094
C46	C	1.060646	0.389616	0.000092
N47	N	1.065125	0.124711	0.346761
N48	N	1.065132	0.124709	-0.346569
C49	C	1.187591	0.002334	0.346764
C50	C	1.248829	-0.058852	0.423432
C51	C	1.248839	-0.058853	0.576765
C52	C	1.187600	0.002337	0.653434
C53	C	1.126362	0.063523	0.576766
C54	C	1.126361	0.063519	0.423429
C55	C	1.003894	0.185894	0.576763
C56	C	1.003887	0.185901	0.423430
C57	C	0.942655	0.247085	0.653432
C58	C	0.881420	0.308276	0.576764
C59	C	0.881414	0.308275	0.423422
C60	C	0.942649	0.247087	0.346762
H61	H	0.358073	-0.028572	0.000123
H62	H	0.942662	0.247078	0.778284
H63	H	0.680401	-0.104765	0.000085
H64	H	0.831560	0.358089	0.639198
O65	O	0.942643	0.247086	0.181381
H66	H	0.875280	0.232537	0.140961
H67	H	0.509777	-0.108006	0.000151
H68	H	1.060802	-0.601648	0.240995
H69	H	0.319450	0.269380	0.000091
H70	H	1.066737	-0.289991	0.373815
O71	O	0.815365	0.374272	0.340729
H72	H	0.772793	0.416820	0.419807
H73	H	1.063482	-0.460594	0.373786
O74	O	1.069678	-0.136497	-0.275940
H75	H	1.071075	-0.063208	-0.253638
O76	O	0.630086	0.379381	0.000068
H77	H	0.672427	0.384115	0.099351
H78	H	1.298687	-0.108675	0.360995
H79	H	1.298701	-0.108679	0.639189
H80	H	0.772169	0.277999	0.000065
O81	O	0.826049	-0.041434	0.000073
H82	H	0.784956	-0.099455	0.000076
H83	H	1.069410	-0.148928	0.241003
O84	O	1.187580	0.002338	0.181382
H85	H	1.240444	-0.050492	0.140950
O86	O	1.066996	-0.277550	-0.408730
H87	H	1.068392	-0.204262	-0.386410
H88	H	0.449859	0.354181	0.000067
O89	O	1.060574	-0.614067	-0.275932
H90	H	1.121153	-0.664875	-0.282287
H91	H	1.063515	-0.460593	-0.373614
H92	H	1.187604	0.002325	0.778286
