data_functionalizedCrystal
_audit_creation_method	'MofGen! by Chris Wilmer'
_symmetry_space_group_name_H-M	'P1'
_symmetry_Int_Tables_number	1
_symmetry_cell_setting	triclinic
loop_
_symmetry_equiv_pos_as_xyz
  x,y,z
_cell_length_a	10.908878
_cell_length_b	11.026607
_cell_length_c	16.053802
_cell_angle_alpha	86.865983
_cell_angle_beta	91.942950
_cell_angle_gamma	84.335404
loop_
_atom_site_label
_atom_site_type_symbol
_atom_site_fract_x
_atom_site_fract_y
_atom_site_fract_z
O1	O	1.666506	-0.185000	0.069416
O2	O	1.313571	-0.094461	0.069419
O3	O	1.460787	-0.310480	0.069415
O4	O	1.519289	0.031019	0.069420
O5	O	1.452675	-0.298630	-0.069444
O6	O	1.305459	-0.082611	-0.069439
O7	O	1.658393	-0.173150	-0.069443
Zn8	Zn	1.480638	-0.125999	-0.091488
Zn9	Zn	1.491326	-0.141612	0.091464
O10	O	1.511177	0.042869	-0.069439
C11	C	1.263629	-0.080074	-0.000009
C12	C	1.126902	-0.054876	-0.000008
C13	C	1.056639	-0.146820	-0.000009
C14	C	0.915324	-0.120779	-0.000007
C15	C	1.445939	-0.347588	-0.000014
C16	C	1.413766	-0.475810	-0.000010
C17	C	1.502601	-0.567543	-0.000010
C18	C	1.469351	-0.700068	-0.000007
C19	C	1.708335	-0.187537	-0.000012
C20	C	1.845063	-0.212736	-0.000009
C21	C	1.526026	0.079977	-0.000008
C22	C	1.558199	0.208198	-0.000006
N23	N	1.473352	-0.115346	-0.216348
C24	C	1.536028	-0.207242	-0.260044
C25	C	1.530946	-0.199781	-0.347451
C26	C	1.463193	-0.100420	-0.391160
C27	C	1.400509	-0.008519	-0.347458
C28	C	1.405585	-0.015985	-0.260053
C29	C	1.441012	-0.067841	-0.652569
C30	C	1.435944	-0.060380	-0.739980
C31	C	1.566379	-0.251645	-0.739967
C32	C	1.571455	-0.259098	-0.652560
C33	C	1.508766	-0.167200	-0.608866
N34	N	1.458000	-0.092790	-0.480503
N35	N	1.513953	-0.174836	-0.519524
N36	N	1.498620	-0.152276	0.216324
H37	H	1.603271	-0.547967	-0.000016
H38	H	1.368674	-0.719637	0.000000
C39	C	1.700749	-0.639229	-0.000013
C40	C	1.694113	-0.765400	-0.000010
H41	H	1.784656	-0.622932	-0.000020
H42	H	1.663889	-0.608724	0.048407
H43	H	1.658219	-0.600466	-0.048439
H44	H	1.736636	-0.804162	0.048420
H45	H	1.730990	-0.795918	-0.048435
C46	C	1.271227	-0.628393	-0.000006
C47	C	1.277859	-0.502222	-0.000008
H48	H	1.187320	-0.644692	-0.000010
H49	H	1.313747	-0.667153	0.048414
H50	H	1.308099	-0.658897	-0.048432
H51	H	1.240994	-0.471719	0.048421
H52	H	1.235322	-0.463447	-0.048434
H53	H	1.082436	0.043120	-0.000003
C54	C	1.311588	0.121969	-0.661374
C55	C	1.372117	0.033179	-0.604547
H56	H	1.269061	0.184341	-0.631723
H57	H	1.254323	0.085499	-0.695475
H58	H	1.370339	0.156299	-0.695453
H59	H	1.313365	-0.001157	-0.570471
H60	H	1.429387	0.069655	-0.570432
C61	C	1.334823	0.087858	-0.481447
C62	C	1.326037	0.100704	-0.395501
H63	H	1.288854	0.155296	-0.511104
H64	H	1.302780	0.014394	-0.495779
H65	H	1.418796	0.085194	-0.495747
H66	H	1.242065	0.103359	-0.381200
H67	H	1.358075	0.174189	-0.381163
C68	C	0.863997	-0.399025	-0.071392
C69	C	0.905066	-0.345041	-0.000011
H70	H	0.901036	-0.480705	-0.071389
H71	H	0.886197	-0.354128	-0.119805
H72	H	0.776902	-0.398870	-0.071384
H73	H	0.992161	-0.345188	-0.000022
H74	H	0.882873	-0.389950	0.048415
C75	C	1.664434	-0.395553	-0.268820
C76	C	1.610502	-0.316467	-0.212003
H77	H	1.710403	-0.462990	-0.239161
H78	H	1.717743	-0.353261	-0.302896
H79	H	1.601727	-0.424060	-0.302925
H80	H	1.673210	-0.287953	-0.177902
H81	H	1.557189	-0.358766	-0.177912
C82	C	1.515421	-0.354560	-0.445743
C83	C	1.599850	-0.300798	-0.395475
H84	H	1.557965	-0.416933	-0.475385
H85	H	1.474355	-0.294328	-0.484284
H86	H	1.456695	-0.388899	-0.411647
H87	H	1.658571	-0.266451	-0.429572
H88	H	1.640936	-0.361041	-0.356929
H89	H	1.626624	-0.340006	-0.616974
C90	C	1.550819	-0.406401	-0.838267
C91	C	1.635267	-0.352662	-0.787999
H92	H	1.593348	-0.468774	-0.867915
H93	H	1.509758	-0.346157	-0.876802
H94	H	1.492091	-0.440735	-0.804170
H95	H	1.693990	-0.318321	-0.822096
H96	H	1.676348	-0.412917	-0.749459
C97	C	1.440058	0.111186	-0.838254
C98	C	1.361457	0.048847	-0.788021
H99	H	1.394075	0.178619	-0.867907
H100	H	1.476652	0.057531	-0.876786
H101	H	1.502741	0.139702	-0.804133
H102	H	1.298779	0.020323	-0.822143
H103	H	1.324843	0.102511	-0.749485
C104	C	1.245028	-0.279306	-0.000017
C105	C	1.116652	-0.279117	-0.000015
H106	H	1.282072	-0.360984	-0.000026
H107	H	1.272869	-0.242680	0.048404
H108	H	1.267207	-0.234399	-0.048442
H109	H	1.094473	-0.324017	0.048414
H110	H	1.088801	-0.315760	-0.048441
C111	C	0.726939	0.011715	-0.000005
C112	C	0.855316	0.011525	-0.000005
H113	H	0.689895	0.093393	-0.000009
H114	H	0.704758	-0.033178	0.048415
H115	H	0.699101	-0.024925	-0.048432
H116	H	0.883155	0.048157	0.048424
H117	H	0.877507	0.056436	-0.048431
C118	C	1.276162	0.173828	-0.268839
C119	C	1.336697	0.085034	-0.212019
H120	H	1.233636	0.236195	-0.239184
H121	H	1.218894	0.137359	-0.302940
H122	H	1.334908	0.208163	-0.302920
H123	H	1.277950	0.050692	-0.177942
H124	H	1.393970	0.121507	-0.177904
