data_functionalizedCrystal
_audit_creation_method	'MofGen! by Chris Wilmer'
_symmetry_space_group_name_H-M	'P1'
_symmetry_Int_Tables_number	1
_symmetry_cell_setting	triclinic
loop_
_symmetry_equiv_pos_as_xyz
  x,y,z
_cell_length_a	14.519709
_cell_length_b	14.519731
_cell_length_c	14.586319
_cell_angle_alpha	89.995223
_cell_angle_beta	90.002108
_cell_angle_gamma	83.684499
loop_
_atom_site_label
_atom_site_type_symbol
_atom_site_fract_x
_atom_site_fract_y
_atom_site_fract_z
O1	O	1.223876	0.120889	-0.076123
O2	O	1.723876	0.620889	0.423877
O3	O	0.955400	0.135125	-0.076151
O4	O	1.455400	0.635125	0.423849
O5	O	1.096746	-0.006230	-0.076128
O6	O	1.596746	0.493770	0.423872
O7	O	1.082530	0.262244	-0.076146
O8	O	1.582530	0.762244	0.423854
O9	O	1.096736	-0.006232	0.076353
O10	O	1.596736	0.493768	0.576353
O11	O	0.955390	0.135123	0.076329
O12	O	1.455390	0.635123	0.576329
O13	O	1.223866	0.120887	0.076358
O14	O	1.723866	0.620887	0.576358
Cu15	Cu	1.089627	0.128005	0.090266
Cu16	Cu	1.589627	0.628005	0.590266
Cu17	Cu	1.089639	0.128007	-0.090060
Cu18	Cu	1.589639	0.628007	0.409940
O19	O	1.082520	0.262242	0.076335
O20	O	1.582520	0.762242	0.576335
C21	C	0.921035	0.134461	0.000086
C22	C	1.421035	0.634461	0.500086
C23	C	0.818654	0.132473	0.000075
C24	C	1.318654	0.632473	0.500075
C25	C	1.096075	-0.040591	0.000112
C26	C	1.596075	0.459409	0.500112
C27	C	1.094079	-0.142971	0.000113
C28	C	1.594079	0.357029	0.500113
C29	C	0.443757	0.125153	0.000117
C30	C	0.943757	0.625153	0.500117
C31	C	0.548065	0.127186	0.000105
C32	C	1.048065	0.627186	0.500105
C33	C	0.631202	0.128813	0.000095
C34	C	1.131202	0.628813	0.500095
C35	C	0.735517	0.130846	0.000085
C36	C	1.235517	0.630846	0.500085
C37	C	1.092457	-0.226115	0.000110
C38	C	1.592457	0.273885	0.500110
C39	C	1.090430	-0.330424	0.000103
C40	C	1.590430	0.169576	0.500103
C41	C	1.088822	-0.413563	0.000097
C42	C	1.588822	0.086437	0.500097
C43	C	1.086795	-0.517878	0.000092
C44	C	1.586795	-0.017878	0.500092
C45	C	1.258230	0.121551	0.000119
C46	C	1.758230	0.621551	0.500119
C47	C	1.360612	0.123539	0.000123
C48	C	1.860612	0.623539	0.500123
C49	C	1.083191	0.296603	0.000092
C50	C	1.583191	0.796603	0.500092
C51	C	1.085187	0.398983	0.000086
C52	C	1.585187	0.898983	0.500086
N53	N	1.089625	0.128002	0.217098
N54	N	1.589625	0.628002	0.717098
N55	N	1.089647	0.128002	-0.216892
N56	N	1.589647	0.628002	0.283108
C57	C	1.152234	0.065431	0.452115
C58	C	1.652234	0.565431	0.952115
C59	C	1.152237	0.065429	0.548096
C60	C	1.652237	0.565429	1.048096
C61	C	1.027032	0.190576	0.548085
C62	C	1.527032	0.690576	1.048085
C63	C	1.027026	0.190573	0.452105
C64	C	1.527026	0.690573	0.952105
C65	C	1.089632	0.128002	0.404123
C66	C	1.589632	0.628002	0.904123
C67	C	1.089641	0.128003	0.596084
C68	C	1.589641	0.628003	1.096084
C69	C	1.089643	0.128001	0.700151
C70	C	1.589643	0.628001	1.200151
C71	C	1.089629	0.128003	0.300049
C72	C	1.589629	0.628003	0.800049
H73	H	1.203211	0.014481	0.413050
H74	H	1.703211	0.514481	0.913050
C75	C	1.206130	-0.094101	0.577651
C76	C	1.706130	0.405899	1.077651
C77	C	1.221055	-0.003349	0.600847
C78	C	1.721055	0.496651	1.100847
H79	H	1.248621	-0.136563	0.610214
H80	H	1.748621	0.363437	1.110214
H81	H	1.144576	-0.104249	0.593388
H82	H	1.644576	0.395751	1.093388
H83	H	1.215086	-0.103042	0.513620
H84	H	1.715086	0.396958	1.013620
H85	H	1.212092	0.005594	0.664878
H86	H	1.712092	0.505594	1.164878
H87	H	1.282623	0.006803	0.585116
H88	H	1.782623	0.506803	1.085116
C89	C	0.971455	0.246157	0.695211
C90	C	1.471455	0.746157	1.195211
C91	C	0.958226	0.259361	0.600831
C92	C	1.458226	0.759361	1.100831
H93	H	0.928981	0.288630	0.727770
H94	H	1.428981	0.788630	1.227770
H95	H	0.961331	0.184595	0.710945
H96	H	1.461331	0.684595	1.210945
H97	H	1.033023	0.256308	0.710925
H98	H	1.533023	0.756308	1.210925
H99	H	0.896659	0.249204	0.585116
H100	H	1.396659	0.749204	1.085116
H101	H	0.968343	0.320938	0.585090
H102	H	1.468343	0.820938	1.085090
H103	H	0.976043	0.241526	0.413028
H104	H	1.476043	0.741526	0.913028
