data_functionalizedCrystal
_audit_creation_method	'MofGen! by Chris Wilmer'
_symmetry_space_group_name_H-M	'P1'
_symmetry_Int_Tables_number	1
_symmetry_cell_setting	triclinic
loop_
_symmetry_equiv_pos_as_xyz
  x,y,z
_cell_length_a	10.540539
_cell_length_b	16.992695
_cell_length_c	15.455313
_cell_angle_alpha	87.152573
_cell_angle_beta	87.293868
_cell_angle_gamma	92.403143
loop_
_atom_site_label
_atom_site_type_symbol
_atom_site_fract_x
_atom_site_fract_y
_atom_site_fract_z
O1	O	1.700697	-0.107164	-0.072091
O2	O	2.200697	0.392836	0.427909
O3	O	1.332189	-0.117581	-0.072101
O4	O	1.832189	0.382419	0.427899
O5	O	1.514965	0.001778	-0.072089
O6	O	2.014965	0.501778	0.427911
O7	O	1.517921	-0.226523	-0.072103
O8	O	2.017921	0.273477	0.427897
O9	O	1.504510	-0.005019	0.072172
O10	O	2.004510	0.494981	0.572172
O11	O	1.321734	-0.124378	0.072160
O12	O	1.821734	0.375622	0.572160
O13	O	1.690242	-0.113961	0.072171
O14	O	2.190242	0.386039	0.572171
Cu15	Cu	1.505033	-0.119790	0.085338
Cu16	Cu	2.005033	0.380210	0.585338
Cu17	Cu	1.517398	-0.111752	-0.085268
Cu18	Cu	2.017398	0.388248	0.414732
O19	O	1.507466	-0.233320	0.072159
O20	O	2.007466	0.266680	0.572159
C21	C	1.505937	0.027613	0.000041
C22	C	2.005937	0.527613	0.500041
C23	C	1.494596	0.114721	0.000041
C24	C	1.994596	0.614721	0.500041
C25	C	1.279591	-0.120198	0.000028
C26	C	1.779591	0.379802	0.500028
C27	C	1.138440	-0.117861	0.000024
C28	C	1.638440	0.382139	0.500024
N29	N	1.496346	-0.125444	0.205333
N30	N	1.996346	0.374556	0.705333
C31	C	0.947217	-0.028316	0.000366
C32	C	1.447217	0.471684	0.500366
C33	C	1.094065	-0.030670	0.000032
C34	C	1.594065	0.469330	0.500032
C35	C	1.086379	-0.155939	-0.082356
C36	C	1.586379	0.344061	0.417644
C37	C	0.939580	-0.152961	-0.082415
C38	C	1.439580	0.347039	0.417585
C39	C	0.927357	-0.162464	0.081637
C40	C	1.427357	0.337536	0.581637
C41	C	1.074330	-0.163318	0.082716
C42	C	1.574330	0.336682	0.582716
C43	C	1.742840	-0.111344	0.000039
C44	C	2.242840	0.388656	0.500039
C45	C	1.883991	-0.113681	0.000038
C46	C	2.383991	0.386319	0.500038
C47	C	1.516494	-0.259155	0.000026
C48	C	2.016494	0.240845	0.500026
C49	C	1.527835	-0.346263	0.000021
C50	C	2.027835	0.153737	0.500021
C51	C	1.604016	0.164349	0.000045
C52	C	2.104016	0.664349	0.500045
C53	C	1.593354	0.246195	0.000036
C54	C	2.093354	0.746195	0.500036
C55	C	1.473270	0.278413	0.000030
C56	C	1.973270	0.778413	0.500030
C57	C	1.363842	0.228779	0.000023
C58	C	1.863842	0.728779	0.500023
C59	C	1.374506	0.146934	0.000025
C60	C	1.874506	0.646934	0.500025
C61	C	1.429072	0.522259	0.000017
C62	C	1.929072	1.022259	0.500017
C63	C	1.418415	0.604110	0.000017
C64	C	1.918415	1.104110	0.500017
C65	C	1.647928	0.621521	0.000028
C66	C	2.147928	1.121521	0.500028
C67	C	1.658581	0.539673	0.000036
C68	C	2.158581	1.039673	0.500036
C69	C	1.549154	0.490047	0.000025
C70	C	2.049154	0.990047	0.500025
N71	N	1.462368	0.362073	0.000024
N72	N	1.962368	0.862073	0.500024
N73	N	1.560057	0.406389	0.000024
N74	N	2.060057	0.906389	0.500024
N75	N	1.526094	-0.106092	-0.205263
N76	N	2.026094	0.393908	0.294737
C77	C	1.574027	-0.074755	0.250732
C78	C	2.074027	0.425245	0.750732
C79	C	1.567470	-0.079037	0.341539
C80	C	2.067470	0.420963	0.841539
C81	C	1.483238	-0.134013	0.386946
C82	C	1.983238	0.365987	0.886946
C83	C	1.405549	-0.184704	0.341540
C84	C	1.905549	0.315296	0.841540
C85	C	1.412100	-0.180417	0.250734
C86	C	1.912100	0.319583	0.750734
C87	C	1.454957	-0.152496	0.658525
C88	C	1.954957	0.347504	1.158525
C89	C	1.448413	-0.156781	0.749337
C90	C	1.948413	0.343219	1.249337
C91	C	1.610334	-0.051113	0.749330
C92	C	2.110334	0.448887	1.249330
C93	C	1.616883	-0.046834	0.658523
C94	C	2.116883	0.453166	1.158523
C95	C	1.539190	-0.097522	0.613125
C96	C	2.039190	0.402478	1.113125
N97	N	1.476536	-0.138394	0.479766
N98	N	1.976536	0.361606	0.979766
N99	N	1.545886	-0.093137	0.520307
N100	N	2.045886	0.406863	1.020307
H101	H	1.129534	-0.000436	0.059086
H102	H	1.629534	0.499564	0.559086
H103	H	1.379818	-0.201552	0.786303
H104	H	1.879818	0.298448	1.286303
H105	H	1.673587	-0.009844	0.786302
H106	H	2.173587	0.490156	1.286302
F107	F	1.372274	-0.206444	0.610217
F108	F	1.872274	0.293556	1.110217
H109	H	1.737017	0.661935	0.000036
H110	H	2.237017	1.161935	0.500036
F111	F	1.731826	0.130068	0.000060
F112	F	2.231826	0.630068	0.500060
F113	F	1.150456	0.016261	-0.077406
F114	F	1.650456	0.516261	0.422594
F115	F	1.709814	0.299010	0.000042
F116	F	2.209814	0.799010	0.500042
F117	F	1.312608	0.469453	0.000002
F118	F	1.812608	0.969453	0.500002
F119	F	1.236040	0.263069	0.000006
F120	F	1.736040	0.763069	0.500006
H121	H	1.630722	-0.037762	0.378503
H122	H	2.130722	0.462238	0.878503
H123	H	1.685472	-0.002068	0.621555
H124	H	2.185472	0.497932	1.121555
F125	F	0.900345	0.013068	0.077588
F126	F	1.400345	0.513068	0.577588
F127	F	1.315895	-0.243211	0.389866
F128	F	1.815895	0.256789	0.889866
F129	F	1.329417	-0.234366	0.202418
F130	F	1.829417	0.265634	0.702418
F131	F	1.786393	0.505393	0.000021
F132	F	2.286393	1.005393	0.500021
H133	H	1.320623	0.630337	0.000026
H134	H	1.820623	1.130337	0.500026
F135	F	0.872720	-0.244814	0.082360
F136	F	1.372720	0.255186	0.582360
H137	H	0.918291	0.008752	-0.058380
H138	H	1.418291	0.508752	0.441620
F139	F	1.118488	-0.126941	0.162375
F140	F	1.618488	0.373059	0.662375
F141	F	0.905019	-0.108633	-0.162899
F142	F	1.405019	0.391367	0.337101
F143	F	1.258047	0.094117	0.000018
F144	F	1.758047	0.594117	0.500018
H145	H	1.642623	-0.029991	0.213768
H146	H	2.142623	0.470009	0.713768
F147	F	0.884344	-0.234690	-0.087308
F148	F	1.384344	0.265310	0.412692
F149	F	1.144542	-0.114066	-0.162488
F150	F	1.644542	0.385934	0.337512
F151	F	1.123178	-0.239437	-0.086384
F152	F	1.623178	0.260563	0.413616
H153	H	0.888837	-0.137189	0.144080
H154	H	1.388837	0.362811	0.644080
H155	H	1.103712	-0.227120	0.087687
H156	H	1.603712	0.272880	0.587687
