data_functionalizedCrystal
_audit_creation_method	'MofGen! by Chris Wilmer'
_symmetry_space_group_name_H-M	'P1'
_symmetry_Int_Tables_number	1
_symmetry_cell_setting	triclinic
loop_
_symmetry_equiv_pos_as_xyz
  x,y,z
_cell_length_a	11.792241
_cell_length_b	13.339070
_cell_length_c	12.376774
_cell_angle_alpha	99.012290
_cell_angle_beta	102.587007
_cell_angle_gamma	99.911355
loop_
_atom_site_label
_atom_site_type_symbol
_atom_site_fract_x
_atom_site_fract_y
_atom_site_fract_z
O1	O	-1.574557	-0.156322	-0.093884
O2	O	-1.248632	-0.170641	-0.093909
O3	O	-1.374188	-0.016012	-0.093896
O4	O	-1.449001	-0.310950	-0.093897
O5	O	-1.324377	0.018889	0.094105
O6	O	-1.198821	-0.135740	0.094092
O7	O	-1.524746	-0.121420	0.094118
Zn8	Zn	-1.353875	-0.123039	0.123954
Zn9	Zn	-1.419503	-0.169023	-0.123746
O10	O	-1.399190	-0.276049	0.094104
C11	C	-1.181159	-0.152292	0.000088
C12	C	-1.054319	-0.149602	0.000078
C13	C	-1.336646	0.039196	0.000102
C14	C	-1.298979	0.151703	0.000095
C15	C	-1.592219	-0.139770	0.000118
C16	C	-1.719061	-0.142461	0.000121
C17	C	-0.822074	-0.144647	0.000111
C18	C	-0.951311	-0.147400	0.000093
C19	C	-1.436733	-0.331258	0.000104
C20	C	-1.474402	-0.443766	0.000104
N21	N	-1.309094	-0.091655	0.293002
C22	C	-1.591867	0.514894	0.000118
C23	C	-1.627258	0.409190	0.000132
C24	C	-1.545192	0.344813	0.000122
C25	C	-1.427727	0.386151	0.000100
C26	C	-1.392329	0.491867	0.000095
C27	C	-1.345654	0.321786	0.000099
C28	C	-1.228189	0.363124	0.000077
C29	C	-1.192797	0.468830	0.000071
C30	C	-1.274864	0.533207	0.000081
C31	C	-1.381052	0.216070	0.000103
C32	C	-1.181514	0.193043	0.000080
C33	C	-1.146122	0.298747	0.000067
N34	N	-1.464290	-0.200398	-0.292794
C35	C	-1.205105	-0.018791	0.352164
C36	C	-1.173747	0.003175	0.470497
C37	C	-1.246380	-0.047716	0.529680
C38	C	-1.350376	-0.120577	0.470518
C39	C	-1.381733	-0.142551	0.352174
C40	C	-1.423008	-0.171476	0.529690
C41	C	-1.527004	-0.244337	0.470529
C42	C	-1.558356	-0.266306	0.352196
C43	C	-1.485723	-0.215415	0.293013
C44	C	-1.391652	-0.149503	0.648035
C45	C	-1.568280	-0.273262	0.648045
C46	C	-1.599638	-0.295228	0.529712
H47	H	-1.476692	0.182423	0.000122
H48	H	-1.574015	0.258744	0.000133
H49	H	-1.220842	-0.029827	0.626032
H50	H	-1.145974	0.022631	0.303966
H51	H	-1.306977	-0.090180	0.696192
O52	O	-1.032091	0.339002	-0.000098
C53	C	-1.031454	0.381358	-0.097485
H54	H	-1.121379	0.401157	-0.129938
H55	H	-1.013923	0.322278	-0.165668
C56	C	-0.822518	0.456369	-0.028062
C57	C	-0.932962	0.480695	-0.067916
H58	H	-0.761761	0.517642	-0.009826
H59	H	-0.822946	0.427831	0.037547
H60	H	-0.807926	0.407135	-0.084888
H61	H	-0.947560	0.529919	-0.011085
H62	H	-0.932535	0.509244	-0.133515
H63	H	-1.511253	-0.233292	0.196656
H64	H	-1.089073	0.062497	0.518658
O65	O	-1.741297	0.368876	0.000193
C66	C	-1.754950	0.261765	0.000167
H67	H	-1.664612	0.244040	0.035756
H68	H	-1.793618	0.215566	-0.090025
C69	C	-1.950613	0.252885	0.030191
C70	C	-1.839660	0.231116	0.073910
H71	H	-2.002870	0.233976	0.075675
H72	H	-1.941418	0.325046	0.030204
H73	H	-1.982821	0.214384	-0.044968
H74	H	-1.807447	0.269626	0.149063
H75	H	-1.848852	0.158960	0.073911
H76	H	-1.658670	0.567320	0.000135
H77	H	-1.246055	0.619280	0.000066
O78	O	-1.659319	-0.337210	0.294854
C79	C	-1.652517	-0.434516	0.323755
H80	H	-1.587019	-0.422644	0.409672
H81	H	-1.620916	-0.483841	0.257150
C82	C	-1.856698	-0.504796	0.223715
C83	C	-1.776260	-0.490215	0.329244
H84	H	-1.933029	-0.539157	0.227096
H85	H	-1.861281	-0.439241	0.204239
H86	H	-1.830349	-0.545897	0.168222
H87	H	-1.802601	-0.449104	0.384732
H88	H	-1.771685	-0.555765	0.348729
O89	O	-1.078765	0.509077	-0.000096
C90	C	-1.078122	0.551433	-0.097482
H91	H	-1.168042	0.571242	-0.129931
H92	H	-1.060601	0.492349	-0.165667
C93	C	-0.869181	0.626423	-0.028064
C94	C	-0.979619	0.650761	-0.067913
H95	H	-0.808417	0.687691	-0.009828
H96	H	-0.869612	0.597884	0.037545
H97	H	-0.854597	0.577184	-0.084892
H98	H	-0.994208	0.699989	-0.011081
H99	H	-0.979188	0.679311	-0.133513
O100	O	-1.101950	0.130363	0.000016
C101	C	-1.158373	0.028201	0.000048
H102	H	-1.258379	0.017055	-0.035534
H103	H	-1.139790	0.014401	0.090242
C104	C	-0.987188	-0.036006	-0.029986
C105	C	-1.110017	-0.049699	-0.073698
H106	H	-0.957357	-0.084060	-0.075471
H107	H	-0.949172	0.032822	-0.030003
H108	H	-0.971718	-0.047505	0.045174
H109	H	-1.125484	-0.038187	-0.148851
H110	H	-1.148034	-0.118528	-0.073695
O111	O	-1.700599	-0.366129	0.472361
C112	C	-1.693804	-0.463441	0.501250
H113	H	-1.628314	-0.451578	0.587170
H114	H	-1.662196	-0.512759	0.434645
C115	C	-1.897980	-0.533715	0.401190
C116	C	-1.817551	-0.519143	0.506722
H117	H	-1.974313	-0.568078	0.404560
H118	H	-1.902558	-0.468156	0.381722
H119	H	-1.871625	-0.574809	0.345696
H120	H	-1.843899	-0.478039	0.562211
H121	H	-1.812980	-0.584697	0.526200
O122	O	-1.638918	-0.322541	0.705571
C123	C	-1.678892	-0.248503	0.774045
H124	H	-1.675165	-0.174561	0.738378
H125	H	-1.619455	-0.229926	0.863729
C126	C	-1.812459	-0.383423	0.819681
C127	C	-1.807891	-0.292609	0.775869
H128	H	-1.892029	-0.410630	0.820812
H129	H	-1.785526	-0.433304	0.773553
H130	H	-1.762922	-0.367929	0.894414
H131	H	-1.857415	-0.308106	0.701134
H132	H	-1.834836	-0.242731	0.821985
