data_functionalizedCrystal
_audit_creation_method	'MofGen! by Chris Wilmer'
_symmetry_space_group_name_H-M	'P1'
_symmetry_Int_Tables_number	1
_symmetry_cell_setting	triclinic
loop_
_symmetry_equiv_pos_as_xyz
  x,y,z
_cell_length_a	13.897449
_cell_length_b	29.839131
_cell_length_c	13.897441
_cell_angle_alpha	89.964857
_cell_angle_beta	89.979267
_cell_angle_gamma	90.042700
loop_
_atom_site_label
_atom_site_type_symbol
_atom_site_fract_x
_atom_site_fract_y
_atom_site_fract_z
Zn1	Zn	1.474544	-0.178824	-0.545351
Zn2	Zn	1.974544	0.321176	-0.045351
Zn3	Zn	1.474371	-0.253959	-0.384039
Zn4	Zn	1.974371	0.246041	0.115961
Zn5	Zn	1.313233	-0.178845	-0.384069
Zn6	Zn	1.813233	0.321155	0.115931
Zn7	Zn	1.313148	-0.253929	-0.545292
Zn8	Zn	1.813148	0.246071	-0.045292
O9	O	1.393824	-0.216389	-0.464688
O10	O	1.893824	0.283611	0.035312
O11	O	1.609502	-0.188794	-0.523965
O12	O	2.109502	0.311206	-0.023965
O13	O	1.452959	-0.244016	-0.249061
O14	O	1.952959	0.255984	0.250939
O15	O	1.334739	-0.115975	-0.405500
O16	O	1.834739	0.384025	0.094500
O17	O	1.609375	-0.243995	-0.405450
O18	O	2.109375	0.256005	0.094550
O19	O	1.453253	-0.115959	-0.523993
O20	O	1.953253	0.384041	-0.023993
O21	O	1.334571	-0.188830	-0.249083
O22	O	1.834571	0.311170	0.250917
O23	O	1.178240	-0.188802	-0.405443
O24	O	1.678240	0.311198	0.094557
O25	O	1.334594	-0.243945	-0.680281
O26	O	1.834594	0.256055	-0.180281
O27	O	1.178177	-0.243966	-0.523893
O28	O	1.678177	0.256034	-0.023893
O29	O	1.453171	-0.188765	-0.680325
O30	O	1.953171	0.311235	-0.180325
O31	O	1.452876	-0.316822	-0.405393
O32	O	1.952876	0.183178	0.094607
O33	O	1.334426	-0.316800	-0.523864
O34	O	1.834426	0.183200	-0.023864
C35	C	1.143209	-0.216383	-0.464666
C36	C	1.643209	0.283617	0.035334
C37	C	1.035995	-0.216391	-0.464679
C38	C	1.535995	0.283609	0.035321
C39	C	0.839700	-0.216393	-0.464704
C40	C	1.339700	0.283607	0.035296
C41	C	0.948933	-0.216391	-0.464688
C42	C	1.448933	0.283609	0.035312
C43	C	1.393649	-0.333112	-0.464640
C44	C	1.893649	0.166888	0.035360
C45	C	1.393663	-0.383046	-0.464652
C46	C	1.893663	0.116954	0.035348
C47	C	1.455613	-0.692688	-0.403090
C48	C	1.955613	-0.192688	0.096910
C49	C	1.455732	-0.880361	-0.403127
C50	C	1.955732	-0.380361	0.096873
O51	O	1.508265	-0.904625	-0.350748
O52	O	2.008265	-0.404625	0.149252
N53	N	1.394024	-0.903831	-0.464760
N54	N	1.894024	-0.403831	0.035240
C55	C	1.332286	-0.880380	-0.526393
C56	C	1.832286	-0.380380	-0.026393
O57	O	1.279809	-0.904649	-0.578824
O58	O	1.779809	-0.404649	-0.078824
C59	C	1.332172	-0.692708	-0.526360
C60	C	1.832172	-0.192708	-0.026360
C61	C	1.393878	-0.669240	-0.464716
C62	C	1.893878	-0.169240	0.035284
C63	C	1.517314	-0.669221	-0.341451
C64	C	2.017314	-0.169221	0.158549
C65	C	1.517280	-0.622305	-0.341439
C66	C	2.017280	-0.122305	0.158561
C67	C	1.455545	-0.598857	-0.403065
C68	C	1.955545	-0.098857	0.096935
C69	C	1.393844	-0.622325	-0.464703
C70	C	1.893844	-0.122325	0.035297
C71	C	1.270440	-0.669258	-0.587997
C72	C	1.770440	-0.169258	-0.087997
C73	C	1.270419	-0.622336	-0.587985
C74	C	1.770419	-0.122336	-0.087985
C75	C	1.332124	-0.598869	-0.526341
C76	C	1.832124	-0.098869	-0.026341
C77	C	1.332074	-0.551962	-0.526317
C78	C	1.832074	-0.051962	-0.026317
N79	N	1.393782	-0.528492	-0.464684
N80	N	1.893782	-0.028492	0.035316
C81	C	1.455518	-0.551939	-0.403057
C82	C	1.955518	-0.051939	0.096943
C83	C	1.332349	-0.978911	-0.526405
C84	C	1.832349	-0.478911	-0.026405
C85	C	1.332375	-1.025828	-0.526412
C86	C	1.832375	-0.525828	-0.026412
C87	C	1.455823	-1.025806	-0.403147
C88	C	1.955823	-0.525806	0.096853
C89	C	1.455790	-0.978888	-0.403136
C90	C	1.955790	-0.478888	0.096864
C91	C	1.394057	-0.955441	-0.464772
C92	C	1.894057	-0.455441	0.035228
C93	C	1.455441	-0.453414	-0.403035
C94	C	1.955441	0.046586	0.096965
C95	C	1.455398	-0.406494	-0.403026
C96	C	1.955398	0.093506	0.096974
C97	C	1.331955	-0.406520	-0.526294
C98	C	1.831955	0.093480	-0.026294
C99	C	1.331993	-0.453436	-0.526301
C100	C	1.831993	0.046564	-0.026301
C101	C	1.393744	-0.476881	-0.464668
C102	C	1.893744	0.023119	0.035332
O103	O	1.279576	-0.527669	-0.578676
O104	O	1.779576	-0.027669	-0.078676
O105	O	1.508002	-0.527662	-0.350650
O106	O	2.008002	-0.027662	0.149350
C107	C	1.455647	-0.739604	-0.403102
C108	C	1.955647	-0.239604	0.096898
C109	C	1.393946	-0.763071	-0.464741
C110	C	1.893946	-0.263071	0.035259
C111	C	1.332211	-0.739623	-0.526367
C112	C	1.832211	-0.239623	-0.026367
C113	C	1.393973	-0.809989	-0.464748
C114	C	1.893973	-0.309989	0.035252
C115	C	1.455708	-0.833437	-0.403122
C116	C	1.955708	-0.333437	0.096878
C117	C	1.517416	-0.809967	-0.341489
C118	C	2.017416	-0.309967	0.158511
C119	C	1.517382	-0.763051	-0.341476
C120	C	2.017382	-0.263051	0.158524
C121	C	1.270503	-0.763093	-0.588000
C122	C	1.770503	-0.263093	-0.088000
C123	C	1.270541	-0.810009	-0.588007
C124	C	1.770541	-0.310009	-0.088007
C125	C	1.332276	-0.833457	-0.526381
C126	C	1.832276	-0.333457	-0.026381
C127	C	1.645417	-0.216395	-0.464710
C128	C	2.145417	0.283605	0.035290
C129	C	1.752631	-0.216398	-0.464720
C130	C	2.252631	0.283602	0.035280
C131	C	1.393892	-0.216349	-0.716281
C132	C	1.893892	0.283651	-0.216281
C133	C	1.393921	-0.216332	-0.823495
C134	C	1.893921	0.283668	-0.323495
C135	C	1.394025	-0.099211	-0.464757
C136	C	1.894025	0.400789	0.035243
C137	C	1.394111	-0.049276	-0.464786
C138	C	1.894111	0.450724	0.035214
C139	C	1.393948	-0.216302	-1.019790
C140	C	1.893948	0.283698	-0.519790
C141	C	1.393930	-0.216320	-0.910558
C142	C	1.893930	0.283680	-0.410558
C143	C	1.393811	-0.216396	-0.214073
C144	C	1.893811	0.283604	0.285927
C145	C	1.393969	-0.216287	-0.106860
C146	C	1.893969	0.283713	0.393140
H147	H	1.505646	-0.387388	-0.352824
H148	H	2.005646	0.112612	0.147176
H149	H	1.505726	-0.472497	-0.352851
H150	H	2.005726	0.027503	0.147149
H151	H	1.567528	-0.603201	-0.291246
H152	H	2.067528	-0.103201	0.208754
H153	H	1.506090	-1.044906	-0.352969
H154	H	2.006090	-0.544906	0.147031
H155	H	1.220285	-0.829112	-0.638204
H156	H	1.720285	-0.329112	-0.138204
H157	H	1.220149	-0.603248	-0.638179
H158	H	1.720149	-0.103248	-0.138179
H159	H	1.506036	-0.959783	-0.352940
H160	H	2.006036	-0.459783	0.147060
Br161	Br	1.601132	-0.731210	-0.257814
Br162	Br	2.101132	-0.231210	0.242186
H163	H	1.567591	-0.688307	-0.291268
H164	H	2.067591	-0.188307	0.208732
Br165	Br	1.248558	-0.947096	-0.610062
Br166	Br	1.748558	-0.447096	-0.110062
Br167	Br	1.248615	-1.057671	-0.610061
Br168	Br	1.748615	-0.557671	-0.110061
Br169	Br	1.186702	-0.701094	-0.671673
Br170	Br	1.686702	-0.201094	-0.171673
H171	H	1.281751	-0.472544	-0.576499
H172	H	1.781751	0.027456	-0.076499
H173	H	1.281688	-0.387422	-0.576466
H174	H	1.781688	0.112578	-0.076466
H175	H	1.567680	-0.829066	-0.291308
H176	H	2.067680	-0.329066	0.208692
H177	H	1.220232	-0.744006	-0.638185
H178	H	1.720232	-0.244006	-0.138185
