data_functionalizedCrystal
_audit_creation_method	'MofGen! by Chris Wilmer'
_symmetry_space_group_name_H-M	'P1'
_symmetry_Int_Tables_number	1
_symmetry_cell_setting	triclinic
loop_
_symmetry_equiv_pos_as_xyz
  x,y,z
_cell_length_a	27.732064
_cell_length_b	27.732048
_cell_length_c	10.065875
_cell_angle_alpha	98.710990
_cell_angle_beta	81.333551
_cell_angle_gamma	82.646040
loop_
_atom_site_label
_atom_site_type_symbol
_atom_site_fract_x
_atom_site_fract_y
_atom_site_fract_z
O1	O	0.648033	0.050412	-0.113260
O2	O	0.507244	0.059146	-0.113318
O3	O	0.582009	-0.015616	-0.113261
O4	O	0.573268	0.125174	-0.113317
O5	O	0.567752	-0.001303	0.113717
O6	O	0.492987	0.073458	0.113660
O7	O	0.633776	0.064725	0.113718
Zn8	Zn	0.561118	0.071364	0.149726
Zn9	Zn	0.579902	0.052506	-0.149327
O10	O	0.559010	0.139486	0.113661
C11	C	0.482109	0.066117	0.000164
C12	C	0.428456	0.065560	0.000143
C13	C	0.051377	0.017598	0.000239
C14	C	0.253040	0.019642	0.000203
O15	O	0.284288	-0.017575	0.000269
N16	N	0.272169	0.063975	0.000179
C17	C	0.240878	0.107801	0.000174
O18	O	0.261775	0.145556	0.000167
C19	C	0.039216	0.105757	0.000220
C20	C	0.020091	0.061420	0.000230
C21	C	0.032252	-0.026734	0.000251
C22	C	-0.018161	-0.027245	0.000252
C23	C	-0.049447	0.016576	0.000243
C24	C	-0.030321	0.060909	0.000231
C25	C	0.007926	0.149582	0.000224
C26	C	-0.042493	0.149068	0.000239
C27	C	-0.061618	0.104731	0.000249
C28	C	-0.112020	0.104220	0.000223
N29	N	-0.131149	0.059887	0.000247
C30	C	-0.099863	0.016066	0.000257
C31	C	0.346754	0.108870	0.000147
C32	C	0.397170	0.109381	0.000133
C33	C	0.409328	0.021223	0.000165
C34	C	0.358912	0.020712	0.000169
C35	C	0.327625	0.064538	0.000171
C36	C	-0.205732	0.014996	0.000259
C37	C	-0.256149	0.014488	0.000255
C38	C	-0.268303	0.102647	0.000230
C39	C	-0.217890	0.103154	0.000227
C40	C	-0.186606	0.059325	0.000246
O41	O	-0.143298	0.141418	0.000173
O42	O	-0.120771	-0.021683	0.000294
C43	C	0.101790	0.018109	0.000238
C44	C	0.120915	0.062442	0.000226
C45	C	0.089629	0.106264	0.000217
C46	C	0.171331	0.062953	0.000212
C47	C	0.202617	0.019131	0.000222
C48	C	0.183488	-0.025201	0.000246
C49	C	0.133076	-0.025712	0.000247
C50	C	0.108758	0.150597	0.000193
C51	C	0.159171	0.151104	0.000190
C52	C	0.190457	0.107282	0.000200
C53	C	0.574697	-0.026466	0.000231
C54	C	0.574144	-0.080120	0.000242
C55	C	0.614850	-0.418936	0.000189
C56	C	0.612801	-0.620597	0.000169
O57	O	0.650024	-0.651854	0.000125
N58	N	0.568467	-0.639725	0.000152
C59	C	0.524643	-0.608434	0.000131
O60	O	0.486888	-0.629331	0.000102
C61	C	0.526694	-0.406775	0.000141
C62	C	0.571030	-0.387649	0.000172
C63	C	0.659183	-0.399811	0.000219
C64	C	0.659694	-0.349398	0.000231
C65	C	0.615873	-0.318111	0.000214
C66	C	0.571541	-0.337237	0.000185
C67	C	0.482871	-0.375486	0.000110
C68	C	0.483388	-0.325068	0.000110
C69	C	0.527724	-0.305943	0.000140
C70	C	0.528232	-0.255537	0.000180
N71	N	0.572566	-0.236410	0.000197
C72	C	0.616386	-0.267696	0.000214
C73	C	0.523569	-0.714309	0.000129
C74	C	0.523056	-0.764723	0.000129
C75	C	0.611214	-0.776883	0.000164
C76	C	0.611726	-0.726467	0.000174
C77	C	0.567903	-0.695181	0.000146
C78	C	0.617457	-0.161826	0.000241
C79	C	0.617964	-0.111407	0.000259
C80	C	0.529807	-0.099252	0.000217
C81	C	0.529299	-0.149666	0.000206
C82	C	0.573128	-0.180952	0.000213
O83	O	0.491030	-0.224253	0.000209
O84	O	0.654138	-0.246792	0.000213
C85	C	0.614339	-0.469349	0.000177
C86	C	0.570007	-0.488475	0.000147
C87	C	0.526186	-0.457188	0.000130
C88	C	0.569494	-0.538889	0.000147
C89	C	0.613314	-0.570176	0.000164
C90	C	0.657648	-0.551049	0.000181
C91	C	0.658160	-0.500636	0.000194
C92	C	0.481852	-0.476315	0.000113
C93	C	0.481344	-0.526729	0.000103
C94	C	0.525165	-0.558016	0.000119
C95	C	0.658911	0.057753	0.000233
C96	C	0.712564	0.058310	0.000245
C97	C	0.566323	0.150336	0.000165
C98	C	0.566877	0.203990	0.000145
N99	N	0.548301	0.084234	0.353822
N100	N	0.592722	0.039633	-0.353422
C101	C	0.575440	0.056981	0.421622
C102	C	0.565580	0.066889	0.578782
H103	H	-0.271717	-0.021618	0.000259
C104	C	0.474282	-0.785754	0.000112
N105	N	0.437545	-0.801592	0.000090
H106	H	0.623257	0.008962	0.588280
C107	C	0.028950	0.198358	0.000236
N108	N	0.044784	0.235100	0.000254
C109	C	-0.171326	-0.033219	0.000269
N110	N	-0.145410	-0.069536	0.000266
C111	C	0.507049	0.125663	0.432582
N112	N	0.475976	0.156869	0.491902
C113	C	0.435177	-0.290656	0.000083
N114	N	0.398865	-0.264738	0.000069
C115	C	0.475357	-0.679899	0.000099
N116	N	0.439043	-0.653984	0.000080
C117	C	0.660499	-0.705435	0.000196
N118	N	0.697237	-0.689597	0.000208
H119	H	-0.033727	-0.063348	0.000266
C120	C	0.066660	-0.074947	0.000255
N121	N	0.092575	-0.111264	0.000248
H122	H	0.083288	0.186283	0.000187
H123	H	0.494129	-0.073769	0.000208
C124	C	0.705851	-0.585475	0.000198
N125	N	0.742156	-0.611407	0.000201
H126	H	0.535042	0.097557	0.637079
H127	H	-0.067965	0.184757	0.000247
C128	C	0.337879	-0.028060	0.000195
N129	N	0.322039	-0.064797	0.000222
H130	H	0.434810	-0.014459	0.000168
H131	H	0.646895	-0.802366	0.000179
H132	H	0.446167	-0.450846	0.000097
C133	C	0.217913	-0.073405	0.000264
N134	N	0.243843	-0.109709	0.000289
H135	H	0.412738	0.145483	0.000106
H136	H	0.321284	0.144561	0.000147
H137	H	0.694262	-0.485069	0.000218
C138	C	0.432568	-0.547760	0.000070
N139	N	0.395831	-0.563600	0.000032
H140	H	0.446769	-0.391049	0.000077
H141	H	-0.202318	0.139256	0.000218
H142	H	0.605972	0.026312	0.363321
H143	H	-0.293785	0.138325	0.000216
H144	H	0.493195	-0.165236	0.000219
H145	H	0.174737	0.187210	0.000172
C146	C	0.666739	-0.090374	0.000289
N147	N	0.703476	-0.074533	0.000308
H148	H	0.653148	-0.187294	0.000242
C149	C	0.708468	-0.328368	0.000250
N150	N	0.745208	-0.312532	0.000259
H151	H	0.694869	-0.425281	0.000227
H152	H	0.117509	-0.061816	0.000256
