data_functionalizedCrystal
_audit_creation_method	'MofGen! by Chris Wilmer'
_symmetry_space_group_name_H-M	'P1'
_symmetry_Int_Tables_number	1
_symmetry_cell_setting	triclinic
loop_
_symmetry_equiv_pos_as_xyz
  x,y,z
_cell_length_a	6.817900
_cell_length_b	11.102188
_cell_length_c	16.015572
_cell_angle_alpha	76.744489
_cell_angle_beta	104.485554
_cell_angle_gamma	108.603875
loop_
_atom_site_label
_atom_site_type_symbol
_atom_site_fract_x
_atom_site_fract_y
_atom_site_fract_z
V1	V	-3.999218	-0.051261	-0.269393
O2	O	-3.960398	0.130656	-0.264265
O3	O	-3.976753	-0.224933	-0.267551
O4	O	-3.927020	0.005776	-0.386885
O5	O	-4.010476	-0.101650	-0.144105
V6	V	-4.482569	-0.036148	-0.254407
O7	O	-4.260853	-0.084413	-0.302265
O8	O	-4.671130	-0.002996	-0.221536
O9	O	-4.281826	0.137524	-0.256250
O10	O	-4.638785	-0.218065	-0.259536
O11	O	-4.588707	0.014242	-0.379696
O12	O	-4.331560	-0.093185	-0.136916
C13	C	-3.828834	-0.269028	-0.263301
C14	C	-3.891595	-0.410645	-0.262578
C15	C	-3.893896	-0.495618	-0.183115
C16	C	-3.952889	-0.628682	-0.182438
C17	C	-4.007269	-0.591787	-0.340695
C18	C	-3.948291	-0.458726	-0.341371
C19	C	-3.765392	0.025266	-0.415522
C20	C	-3.787818	0.070751	-0.511572
C21	C	-4.136743	-0.332975	-0.889205
C22	C	-4.157813	-0.290193	-0.979454
C23	C	-4.047772	-0.068856	-0.954747
C24	C	-4.026681	-0.111619	-0.864494
C25	C	-4.071173	-0.243680	-0.831730
C26	C	-3.961112	-0.022324	-0.807019
C27	C	-3.940034	-0.065084	-0.716774
C28	C	-3.984527	-0.197139	-0.684003
C29	C	-4.050096	-0.286440	-0.741485
C30	C	-3.916635	0.109736	-0.839785
C31	C	-3.851065	0.199031	-0.782310
C32	C	-3.829972	0.156271	-0.692063
C33	C	-3.874465	0.024216	-0.659292
C34	C	-3.764403	0.245572	-0.634581
C35	C	-3.743326	0.202812	-0.544335
C36	C	-3.853387	-0.018544	-0.569047
C37	C	-4.093090	0.181611	-0.260497
C38	C	-4.009566	0.323230	-0.261226
C39	C	-4.156531	-0.112681	-0.108274
C40	C	-4.113344	-0.158160	-0.012223
H41	H	-3.847732	-0.456475	-0.118956
F42	F	-3.803721	0.339575	-0.817190
F43	F	-3.939085	0.155242	-0.935834
H44	H	-3.954760	-0.697862	-0.117732
F45	F	-4.067604	-0.642970	-0.424548
H46	H	-3.946431	-0.389537	-0.406084
H47	H	-3.889590	-0.126080	-0.542369
H48	H	-4.211201	-0.362918	-1.026249
H49	H	-3.967368	-0.231953	-0.610519
H50	H	-4.086299	-0.393976	-0.714807
H51	H	-4.172946	-0.440511	-0.862527
F52	F	-4.000428	0.071689	-0.989627
F53	F	-3.717080	0.386115	-0.669463
H54	H	-3.689933	0.275525	-0.497538
