data_functionalizedCrystal
_audit_creation_method	'MofGen! by Chris Wilmer'
_symmetry_space_group_name_H-M	'P1'
_symmetry_Int_Tables_number	1
_symmetry_cell_setting	triclinic
loop_
_symmetry_equiv_pos_as_xyz
  x,y,z
_cell_length_a	27.732048
_cell_length_b	11.026607
_cell_length_c	26.210047
_cell_angle_alpha	90.015734
_cell_angle_beta	89.990375
_cell_angle_gamma	84.385664
loop_
_atom_site_label
_atom_site_type_symbol
_atom_site_fract_x
_atom_site_fract_y
_atom_site_fract_z
O1	O	0.202080	-1.606395	-0.042451
O2	O	0.179069	-1.253520	-0.042449
O3	O	0.121164	-1.440917	-0.042440
O4	O	0.259985	-1.418998	-0.042459
O5	O	0.121159	-1.440859	0.042418
O6	O	0.179064	-1.253462	0.042409
O7	O	0.202075	-1.606337	0.042407
Cu8	Cu	0.190569	-1.429894	0.050157
Cu9	Cu	0.190575	-1.429963	-0.050198
O10	O	0.259980	-1.418940	0.042399
C11	C	0.174821	-1.208360	-0.000019
C12	C	0.162167	-1.073883	-0.000018
C13	C	0.103113	-1.440428	-0.000010
C14	C	0.049333	-1.439042	-0.000005
C15	C	0.206322	-1.651497	-0.000023
C16	C	0.218977	-1.785974	-0.000028
C17	C	-0.280301	-1.541059	-0.000032
C18	C	-0.482423	-1.535919	-0.000039
O19	O	-0.505283	-1.629206	-0.000062
N20	N	-0.511547	-1.424800	-0.000038
C21	C	-0.490137	-1.314959	-0.000039
O22	O	-0.519546	-1.220328	-0.000043
C23	C	-0.288016	-1.320101	-0.000035
C24	C	-0.258894	-1.431227	-0.000031
C25	C	-0.251180	-1.652176	-0.000029
C26	C	-0.200652	-1.653460	-0.000024
C27	C	-0.179246	-1.543627	-0.000023
C28	C	-0.208367	-1.432511	-0.000027
C29	C	-0.266607	-1.210261	-0.000040
C30	C	-0.216073	-1.211556	-0.000040
C31	C	-0.186952	-1.322682	-0.000036
C32	C	-0.136433	-1.323962	-0.000021
N33	N	-0.107309	-1.435080	-0.000022
C34	C	-0.128716	-1.544913	-0.000023
C35	C	-0.596253	-1.312267	-0.000040
C36	C	-0.646783	-1.310982	-0.000039
C37	C	-0.639066	-1.531942	-0.000041
C38	C	-0.588535	-1.533227	-0.000037
C39	C	-0.567130	-1.423386	-0.000041
C40	C	-0.022605	-1.547601	-0.000013
C41	C	0.027927	-1.548875	-0.000006
C42	C	0.020205	-1.327916	-0.000008
C43	C	-0.030322	-1.326641	-0.000012
C44	C	-0.051725	-1.436493	-0.000016
O45	O	-0.113539	-1.230724	-0.000004
O46	O	-0.099298	-1.639530	-0.000030
C47	C	-0.330828	-1.539776	-0.000037
C48	C	-0.359949	-1.428659	-0.000040
C49	C	-0.338543	-1.318826	-0.000039
C50	C	-0.410479	-1.427373	-0.000040
C51	C	-0.431886	-1.537206	-0.000041
C52	C	-0.402762	-1.648324	-0.000042
C53	C	-0.352235	-1.649608	-0.000038
C54	C	-0.367666	-1.207707	-0.000038
C55	C	-0.418194	-1.206432	-0.000042
C56	C	-0.439600	-1.316265	-0.000043
C57	C	0.278031	-1.419429	-0.000033
C58	C	0.331810	-1.420815	-0.000040
N59	N	0.190565	-1.429854	0.120740
C60	C	0.197108	-0.999422	-0.000024
C61	C	0.184030	-0.860433	-0.000022
N62	N	0.190576	-1.430013	-0.120782
C63	C	0.226247	-1.502877	0.473250
C64	C	0.226250	-1.502913	0.686908
O65	O	0.256581	-1.564972	0.714527
N66	N	0.190573	-1.429992	0.713634
C67	C	0.154890	-1.357063	0.686942
O68	O	0.124541	-1.295049	0.714577
C69	C	0.154885	-1.357034	0.473285
C70	C	0.190568	-1.429951	0.446562
C71	C	0.261927	-1.575789	0.446527
C72	C	0.261928	-1.575774	0.393115
C73	C	0.226248	-1.502848	0.366427
C74	C	0.190569	-1.429936	0.393150
C75	C	0.119201	-1.284113	0.446594
C76	C	0.119202	-1.284114	0.393176
C77	C	0.154885	-1.357031	0.366453
C78	C	0.154890	-1.356995	0.313050
N79	N	0.190568	-1.429916	0.286325
C80	C	0.226247	-1.502842	0.313013
C81	C	0.154895	-1.357081	0.799116
C82	C	0.154897	-1.357086	0.852530
C83	C	0.226257	-1.502939	0.852492
C84	C	0.226257	-1.502926	0.799077
C85	C	0.190573	-1.430002	0.772390
C86	C	0.226245	-1.502805	0.200845
C87	C	0.226244	-1.502780	0.147429
C88	C	0.154883	-1.356933	0.147471
C89	C	0.154885	-1.356953	0.200882
C90	C	0.190569	-1.429899	0.227568
O91	O	0.124572	-1.294979	0.285399
O92	O	0.256585	-1.564867	0.285369
C93	C	0.226247	-1.502892	0.526661
C94	C	0.190567	-1.429980	0.553384
C95	C	0.154888	-1.357054	0.526696
C96	C	0.190569	-1.429985	0.606799
C97	C	0.226248	-1.502912	0.633487
C98	C	0.261926	-1.575833	0.606761
C99	C	0.261926	-1.575818	0.553350
C100	C	0.119211	-1.284133	0.553422
C101	C	0.119213	-1.284153	0.606833
C102	C	0.154892	-1.357079	0.633522
H103	H	-0.040025	-1.637054	-0.000019
N104	N	0.249562	-1.051256	-0.000030
H105	H	0.256372	-1.102993	0.031426
H106	H	0.256341	-1.102977	-0.031509
H107	H	0.090156	-1.224763	0.628587
H108	H	0.122570	-1.034734	-0.000026
H109	H	0.125835	-1.297555	0.125732
H110	H	-0.328528	-1.740098	-0.000035
H111	H	-0.176946	-1.743950	-0.000023
N112	N	0.131575	-0.808594	-0.000019
H113	H	0.110054	-0.877381	-0.000016
H114	H	0.124805	-0.756798	0.031440
N115	N	-0.662161	-1.650405	-0.000048
H116	H	-0.636048	-1.721003	-0.000051
H117	H	-0.682965	-1.654665	0.031409
H118	H	-0.350243	-1.118266	-0.000039
N119	N	0.271433	-0.837805	-0.000030
H120	H	0.273341	-0.929747	-0.000029
H121	H	0.288023	-0.809134	-0.031490
H122	H	0.255303	-1.562157	0.125673
H123	H	-0.670490	-1.220492	-0.000034
N124	N	-0.274263	-1.770649	-0.000029
H125	H	-0.248141	-1.841224	-0.000026
H126	H	-0.295064	-1.774909	0.031431
N127	N	0.264728	-1.581493	0.229623
H128	H	0.287327	-1.627676	0.204582
H129	H	0.283714	-1.528244	0.251792
N130	N	-0.298001	-1.090392	-0.000049
H131	H	-0.319130	-1.084951	-0.031508
H132	H	-0.319116	-1.084955	0.031427
H133	H	0.090144	-1.224738	0.468342
H134	H	0.290983	-1.635155	0.371362
H135	H	0.290982	-1.635180	0.468251
H136	H	0.255313	-1.562300	0.777323
H137	H	-0.198648	-1.122108	-0.000043
H138	H	0.255310	-1.562313	0.874231
H139	H	0.125845	-1.297696	0.874283
H140	H	0.125835	-1.297694	0.777392
H141	H	0.090143	-1.224730	0.371450
H142	H	0.125834	-1.297563	0.222641
N143	N	0.300411	-1.654469	0.524531
H144	H	0.323010	-1.700666	0.549549
H145	H	0.284538	-1.714090	0.502365
H146	H	0.090155	-1.224748	0.531698
H147	H	0.051636	-1.639371	-0.000002
H148	H	0.290979	-1.635206	0.628500
H149	H	-0.578830	-1.222817	-0.000042
N150	N	-0.557127	-1.653081	-0.000033
H151	H	-0.578361	-1.722458	-0.000032
H152	H	-0.535989	-1.658458	-0.031491
H153	H	-0.420200	-1.737754	-0.000041
N154	N	-0.061735	-1.206788	-0.000009
H155	H	-0.040504	-1.137406	-0.000006
H156	H	-0.082857	-1.201465	-0.031471
H157	H	0.037644	-1.238493	-0.000005
H158	H	-0.441901	-1.115934	-0.000041
