data_functionalizedCrystal
_audit_creation_method	'MofGen! by Chris Wilmer'
_symmetry_space_group_name_H-M	'P1'
_symmetry_Int_Tables_number	1
_symmetry_cell_setting	triclinic
loop_
_symmetry_equiv_pos_as_xyz
  x,y,z
_cell_length_a	19.188930
_cell_length_b	17.666332
_cell_length_c	9.065218
_cell_angle_alpha	89.996704
_cell_angle_beta	95.919667
_cell_angle_gamma	90.023133
loop_
_atom_site_label
_atom_site_type_symbol
_atom_site_fract_x
_atom_site_fract_y
_atom_site_fract_z
O1	O	0.927581	0.063189	-0.184176
O2	O	0.724462	0.063137	-0.208969
O3	O	0.830220	0.063163	0.018215
O4	O	0.821823	0.063163	-0.411361
O5	O	0.830201	-0.062734	0.018222
O6	O	0.724443	-0.062760	-0.208963
O7	O	0.927562	-0.062708	-0.184170
Cu8	Cu	0.826001	-0.074229	-0.196566
Cu9	Cu	0.826023	0.074658	-0.196573
O10	O	0.821804	-0.062733	-0.411354
C11	C	0.698435	0.000182	-0.208163
C12	C	0.620912	0.000162	-0.205753
N13	N	0.825990	-0.178949	-0.196559
C14	C	0.577024	0.000174	-0.339058
C15	C	0.504182	0.000182	-0.336793
C16	C	0.475232	0.000194	-0.201217
C17	C	0.519130	0.000177	-0.067895
C18	C	0.591970	0.000161	-0.070163
N19	N	0.366453	0.043072	-0.097588
N20	N	0.297258	0.043089	-0.095442
C21	C	0.255771	0.000240	-0.194375
N22	N	0.286091	-0.042617	-0.295557
N23	N	0.355292	-0.042630	-0.297707
C24	C	0.396251	0.000211	-0.198742
C25	C	0.132899	0.000260	-0.325234
C26	C	0.060056	0.000264	-0.322964
C27	C	0.075006	0.000266	-0.054061
C28	C	0.147847	0.000255	-0.056335
C29	C	0.176789	0.000256	-0.191925
C30	C	0.868892	-0.218540	-0.285820
C31	C	0.868903	-0.297788	-0.285815
C32	C	0.825999	-0.337441	-0.196568
C33	C	0.783094	-0.297840	-0.107289
C34	C	0.783089	-0.218593	-0.107285
N35	N	0.764823	-0.461896	-0.192933
N36	N	0.764829	-0.537176	-0.192946
C37	C	0.826012	-0.576205	-0.196573
N38	N	0.887189	-0.537109	-0.200216
N39	N	0.887182	-0.461821	-0.200211
C40	C	0.826000	-0.423370	-0.196562
C41	C	0.868930	-0.701726	-0.285833
C42	C	0.868943	-0.780975	-0.285818
C43	C	0.783127	-0.781025	-0.107301
C44	C	0.783121	-0.701777	-0.107307
C45	C	0.826021	-0.662133	-0.196581
C46	C	0.953588	0.000249	-0.184976
C47	C	1.031112	0.000274	-0.187386
C48	C	0.829403	0.000215	0.073177
C49	C	0.826990	0.000218	0.236936
N50	N	0.826039	0.179378	-0.196568
C51	C	0.822620	0.000216	-0.466316
C52	C	0.825033	0.000218	-0.630075
H53	H	0.468442	0.000190	-0.445349
O54	O	0.910721	-0.819352	-0.372445
C55	C	0.981326	-0.799962	-0.331191
H56	H	0.983959	-0.742425	-0.273957
H57	H	1.010563	-0.797229	-0.434340
H58	H	1.006550	-0.844551	-0.251919
H59	H	0.748162	-0.330130	-0.034622
O60	O	0.910568	-0.663292	-0.372746
C61	C	0.892160	-0.682647	-0.522594
H62	H	0.865130	-0.740200	-0.529071
H63	H	0.941422	-0.685327	-0.582754
H64	H	0.855045	-0.638065	-0.577126
H65	H	0.156464	0.000249	-0.435639
H66	H	0.748194	-0.813309	-0.034632
H67	H	0.024323	0.000269	-0.431521
O68	O	0.910603	-0.179944	-0.372321
C69	C	0.957685	-0.134098	-0.282122
H70	H	0.935275	-0.122245	-0.172766
H71	H	0.965826	-0.078363	-0.341385
H72	H	1.010025	-0.164610	-0.259280
O73	O	0.741364	-0.180050	-0.020799
C74	C	0.694277	-0.134254	-0.111018
H75	H	0.716697	-0.122366	-0.220361
H76	H	0.686114	-0.078535	-0.051760
H77	H	0.641947	-0.164829	-0.133885
H78	H	0.748182	-0.669541	-0.034628
H79	H	0.600583	0.000176	-0.449466
O80	O	0.491127	0.000158	0.063934
C81	C	0.545488	0.000165	0.181111
H82	H	0.595206	-0.023684	0.140082
H83	H	0.529647	-0.036379	0.275801
H84	H	0.555569	0.060563	0.222204
H85	H	0.051436	0.000322	0.056328
O86	O	0.190384	0.000285	0.073295
C87	C	0.149215	0.000277	0.193448
H88	H	0.095115	0.024123	0.155649
H89	H	0.175509	0.036825	0.286820
H90	H	0.143734	-0.060120	0.235032
H91	H	0.627705	0.000152	0.038393
H92	H	0.903840	-0.330030	-0.358506
