data_functionalizedCrystal
_audit_creation_method	'MofGen! by Chris Wilmer'
_symmetry_space_group_name_H-M	'P1'
_symmetry_Int_Tables_number	1
_symmetry_cell_setting	triclinic
loop_
_symmetry_equiv_pos_as_xyz
  x,y,z
_cell_length_a	10.654550
_cell_length_b	10.723024
_cell_length_c	9.798715
_cell_angle_alpha	89.998022
_cell_angle_beta	89.992783
_cell_angle_gamma	84.476386
loop_
_atom_site_label
_atom_site_type_symbol
_atom_site_fract_x
_atom_site_fract_y
_atom_site_fract_z
O1	O	-1.667814	-0.175272	0.113600
O2	O	-1.302333	-0.191971	0.113577
O3	O	-1.493504	-0.002047	0.113584
O4	O	-1.476643	-0.365196	0.113593
O5	O	-1.493489	-0.002046	-0.113398
O6	O	-1.302318	-0.191971	-0.113405
O7	O	-1.667799	-0.175271	-0.113383
Zn8	Zn	-1.485057	-0.183621	-0.149432
Zn9	Zn	-1.485075	-0.183622	0.149627
O10	O	-1.476629	-0.365196	-0.113389
C11	C	-1.255528	-0.190745	0.000083
C12	C	-1.116085	-0.187076	0.000075
C13	C	-1.492269	0.044454	0.000094
C14	C	-1.488598	0.183008	0.000099
C15	C	-1.714604	-0.176498	0.000114
C16	C	-1.854047	-0.180166	0.000132
C17	C	-1.036583	-0.298901	0.000098
C18	C	-0.905562	-0.295446	0.000121
C19	C	-0.933560	-0.068333	0.000105
C20	C	-1.064578	-0.071789	0.000072
C21	C	-1.088090	-0.414188	0.000101
C22	C	-1.008586	-0.526022	0.000125
C23	C	-0.877566	-0.522567	0.000149
C24	C	-0.826049	-0.407279	0.000148
C25	C	-1.477863	-0.411696	0.000103
C26	C	-1.481534	-0.550251	0.000108
N27	N	-1.485053	-0.183620	-0.353532
C28	C	-1.595568	0.257975	0.000107
C29	C	-1.591776	0.401179	0.000112
C30	C	-1.565320	-0.103524	-0.421306
C31	C	-1.565340	-0.103520	-0.578469
N32	N	-1.485089	-0.183613	0.353726
H33	H	-1.194772	-0.417014	0.000088
H34	H	-1.394211	0.224844	0.000102
Cl35	Cl	-1.073348	-0.670947	0.000111
Cl36	Cl	-0.777622	-0.663155	0.000166
Cl37	Cl	-1.733167	0.500631	0.000113
Cl38	Cl	-1.378965	-0.289485	-0.443574
H39	H	-1.634022	-0.034949	-0.362981
Cl40	Cl	-0.661336	-0.402941	0.000158
H41	H	-1.634065	-0.034951	-0.636751
Cl42	Cl	-1.378988	-0.289500	-0.556304
H43	H	-0.891604	0.025529	0.000127
Cl44	Cl	-1.164530	0.068793	0.000040
H45	H	-1.689955	0.216139	0.000105
H46	H	-1.389955	0.385338	0.000091
