data_functionalizedCrystal
_audit_creation_method	'MofGen! by Chris Wilmer'
_symmetry_space_group_name_H-M	'P1'
_symmetry_Int_Tables_number	1
_symmetry_cell_setting	triclinic
loop_
_symmetry_equiv_pos_as_xyz
  x,y,z
_cell_length_a	16.625548
_cell_length_b	18.101395
_cell_length_c	16.625539
_cell_angle_alpha	89.972352
_cell_angle_beta	89.979432
_cell_angle_gamma	90.032172
loop_
_atom_site_label
_atom_site_type_symbol
_atom_site_fract_x
_atom_site_fract_y
_atom_site_fract_z
Zn1	Zn	1.232632	-0.294807	-0.455913
Zn2	Zn	1.232515	-0.418656	-0.321082
Zn3	Zn	1.097794	-0.294835	-0.321094
Zn4	Zn	1.097744	-0.418614	-0.455872
O5	O	1.165171	-0.356728	-0.388490
O6	O	1.345449	-0.311242	-0.438040
O7	O	1.214616	-0.402261	-0.208251
O8	O	1.115750	-0.191199	-0.339000
O9	O	1.345363	-0.402233	-0.338980
O10	O	1.214815	-0.191178	-0.438051
O11	O	1.115637	-0.311290	-0.208260
O12	O	0.984955	-0.311249	-0.338960
O13	O	1.115665	-0.402161	-0.568710
O14	O	0.984918	-0.402188	-0.437981
O15	O	1.214767	-0.311201	-0.568740
O16	O	1.214567	-0.522284	-0.338940
O17	O	1.115552	-0.522252	-0.437969
C18	C	0.955680	-0.356718	-0.388467
C19	C	0.866059	-0.356731	-0.388477
C20	C	0.537884	-0.356736	-0.388511
C21	C	0.629192	-0.356732	-0.388499
C22	C	0.701969	-0.356734	-0.388494
C23	C	0.793283	-0.356729	-0.388483
C24	C	1.165063	-0.549139	-0.388466
C25	C	1.165091	-0.631453	-0.388483
C26	C	1.165268	-0.930544	-0.388527
C27	C	1.103114	-0.899230	-0.450988
C28	C	1.102819	-0.813612	-0.450793
C29	C	1.165180	-0.782161	-0.388506
C30	C	1.142173	-0.813313	-0.303528
C31	C	1.141772	-0.898959	-0.303901
C32	C	1.250565	-0.898886	-0.410295
C33	C	1.250063	-0.813235	-0.412159
C34	C	1.165132	-0.698302	-0.388489
C35	C	1.165314	-1.014403	-0.388538
C36	C	1.375480	-0.356739	-0.388513
C37	C	1.465101	-0.356744	-0.388523
C38	C	1.165224	-0.356673	-0.598799
C39	C	1.165246	-0.356649	-0.688420
C40	C	1.165302	-0.163566	-0.388531
C41	C	1.165357	-0.081252	-0.388549
C42	C	1.165283	-0.356567	-1.016596
C43	C	1.165271	-0.356592	-0.925287
C44	C	1.165265	-0.356609	-0.852511
C45	C	1.165252	-0.356633	-0.761197
C46	C	1.165165	-0.356730	-0.178999
C47	C	1.165299	-0.356545	-0.089378
H48	H	1.117214	-0.792547	-0.513803
H49	H	1.080482	-0.791930	-0.284757
H50	H	1.271540	-0.920433	-0.471205
H51	H	1.117366	-0.919777	-0.514202
H52	H	1.267413	-0.792871	-0.474698
O53	O	1.067335	-0.922839	-0.282041
C54	C	1.009889	-0.895874	-0.337063
H55	H	1.040616	-0.882566	-0.396647
H56	H	0.981042	-0.843668	-0.311835
C57	C	0.906861	-0.971260	-0.277576
C58	C	0.944599	-0.954922	-0.350760
H59	H	0.866585	-1.007682	-0.286022
H60	H	0.945562	-0.989426	-0.240504
H61	H	0.882829	-0.927750	-0.256560
H62	H	0.968639	-0.998429	-0.371769
H63	H	0.905901	-0.936765	-0.387835
O64	O	1.308184	-0.787775	-0.361735
C65	C	1.290556	-0.809945	-0.282351
H66	H	1.249868	-0.860642	-0.283702
H67	H	1.258715	-0.763066	-0.249482
C68	C	1.419250	-0.766741	-0.236553
C69	C	1.369282	-0.829012	-0.238212
H70	H	1.467811	-0.778499	-0.209324
H71	H	1.431126	-0.751802	-0.290035
H72	H	1.392706	-0.727681	-0.209164
H73	H	1.395822	-0.868067	-0.265609
H74	H	1.357413	-0.843958	-0.184733
O75	O	1.028098	-0.924939	-0.434142
C76	C	0.973019	-0.896389	-0.490618
H77	H	1.006455	-0.880179	-0.547846
H78	H	0.942035	-0.845681	-0.464326
C79	C	0.868471	-0.975510	-0.440231
C80	C	0.909537	-0.955606	-0.510522
H81	H	0.829310	-1.012035	-0.452507
H82	H	0.905577	-0.994742	-0.402179
H83	H	0.842658	-0.933248	-0.418327
H84	H	0.935357	-0.997866	-0.532419
H85	H	0.872433	-0.936381	-0.548578
H86	H	1.185078	-0.919675	-0.255776
O87	O	1.194443	-0.789132	-0.246399
C88	C	1.172038	-0.818115	-0.170911
H89	H	1.134814	-0.870355	-0.180004
H90	H	1.134834	-0.775471	-0.136856
C91	C	1.293820	-0.772651	-0.111000
C92	C	1.248108	-0.836816	-0.122169
H93	H	1.340743	-0.784183	-0.080932
H94	H	1.308914	-0.753122	-0.161857
H95	H	1.262808	-0.737120	-0.082624
H96	H	1.279116	-0.872341	-0.150553
H97	H	1.233021	-0.856351	-0.071315
H98	H	1.296871	-0.919135	-0.364802
H99	H	1.039595	-0.793190	-0.436373
