data_functionalizedCrystal
_audit_creation_method	'MofGen! by Chris Wilmer'
_symmetry_space_group_name_H-M	'P1'
_symmetry_Int_Tables_number	1
_symmetry_cell_setting	triclinic
loop_
_symmetry_equiv_pos_as_xyz
  x,y,z
_cell_length_a	18.215407
_cell_length_b	12.645330
_cell_length_c	18.215407
_cell_angle_alpha	89.993602
_cell_angle_beta	90.008215
_cell_angle_gamma	89.979301
loop_
_atom_site_label
_atom_site_type_symbol
_atom_site_fract_x
_atom_site_fract_y
_atom_site_fract_z
Zn1	Zn	1.124996	0.422370	0.416106
Zn2	Zn	1.124922	0.599604	0.293052
Zn3	Zn	1.001949	0.422338	0.293057
Zn4	Zn	1.001891	0.599575	0.416081
O5	O	1.063439	0.510972	0.354574
O6	O	1.227970	0.445906	0.399790
O7	O	1.108602	0.576087	0.190068
O8	O	1.018326	0.273995	0.309393
O9	O	1.227916	0.576119	0.309383
O10	O	1.108728	0.274019	0.399796
O11	O	1.018255	0.445851	0.190072
O12	O	0.898957	0.445823	0.309369
O13	O	1.018228	0.576070	0.519069
O14	O	0.898915	0.576039	0.399754
O15	O	1.108672	0.445878	0.519087
O16	O	1.108547	0.747947	0.309359
O17	O	1.018156	0.747926	0.399748
C18	C	0.872233	0.510925	0.354560
C19	C	0.790434	0.510931	0.354571
C20	C	0.525399	0.443300	0.401724
C21	C	0.602258	0.443283	0.401722
C22	C	0.602221	0.578677	0.307440
C23	C	0.525363	0.578699	0.307447
C24	C	0.486955	0.511004	0.354588
C25	C	0.640671	0.510966	0.354579
C26	C	0.724004	0.510948	0.354576
C27	C	0.403616	0.511024	0.354592
C28	C	1.063357	0.786401	0.354567
C29	C	1.063389	0.904231	0.354588
C30	C	1.006742	1.071826	0.411629
C31	C	1.006465	0.949267	0.411444
C32	C	1.042405	0.948788	0.277031
C33	C	1.042047	1.071387	0.277378
C34	C	1.141329	1.071340	0.374480
C35	C	1.140863	0.948734	0.376174
C36	C	1.255392	0.511019	0.354589
C37	C	1.337191	0.511040	0.354595
C38	C	1.063452	0.510974	0.546527
C39	C	1.063457	0.510976	0.628326
C40	C	1.063516	1.234466	0.354600
C41	C	1.063482	1.116636	0.354618
C42	C	1.110537	0.443196	0.816530
C43	C	1.110533	0.443195	0.893389
C44	C	1.016354	0.578771	0.893359
C45	C	1.016355	0.578765	0.816502
C46	C	1.063450	0.510979	0.778089
C47	C	1.063445	0.510984	0.931805
C48	C	1.063441	0.510984	1.015139
C49	C	1.063455	0.510978	0.694750
C50	C	1.063427	0.510992	1.163368
C51	C	1.063439	0.510988	1.081569
H52	H	0.633556	0.388153	0.440106
C53	C	0.964550	0.653329	0.935620
N54	N	0.925530	0.709488	0.967450
C55	C	1.162334	0.368631	0.935671
N56	N	1.201352	0.312465	0.967517
C57	C	0.483152	0.368844	0.453586
N58	N	0.451334	0.312764	0.492653
C59	C	0.644478	0.653124	0.255579
N60	N	0.676305	0.709194	0.216513
C61	C	0.965169	1.110130	0.254653
N62	N	0.907262	1.139305	0.237538
C63	C	0.483072	0.653178	0.255587
N64	N	0.451218	0.709273	0.216528
H65	H	1.081581	1.101030	0.233453
H66	H	1.160467	1.102211	0.430074
C67	C	1.198439	1.110491	0.318387
N68	N	1.241449	1.139987	0.276137
C69	C	0.964551	0.653333	0.774214
N70	N	0.925532	0.709492	0.742363
H71	H	1.148883	0.387997	0.785257
C72	C	1.024197	0.908564	0.489137
N73	N	1.037550	0.877912	0.547658
H74	H	1.019743	1.101266	0.469327
C75	C	0.929260	1.113539	0.394075
N76	N	0.870901	1.144954	0.380849
H77	H	0.948760	0.920018	0.398286
H78	H	1.082429	0.919616	0.233392
H79	H	0.986099	0.918162	0.259900
C80	C	1.162261	0.909345	0.453269
N81	N	1.178381	0.879658	0.511332
H82	H	1.185369	0.918073	0.337674
