data_functionalizedCrystal
_audit_creation_method	'MofGen! by Chris Wilmer'
_symmetry_space_group_name_H-M	'P1'
_symmetry_Int_Tables_number	1
_symmetry_cell_setting	triclinic
loop_
_symmetry_equiv_pos_as_xyz
  x,y,z
_cell_length_a	18.050589
_cell_length_b	17.077404
_cell_length_c	17.077396
_cell_angle_alpha	89.978543
_cell_angle_beta	90.024642
_cell_angle_gamma	89.972675
loop_
_atom_site_label
_atom_site_type_symbol
_atom_site_fract_x
_atom_site_fract_y
_atom_site_fract_z
Zn1	Zn	-0.295677	-1.200026	0.443905
Zn2	Zn	-0.419874	-1.199920	0.312647
Zn3	Zn	-0.295701	-1.068757	0.312648
Zn4	Zn	-0.419828	-1.068713	0.443866
O5	O	-0.357770	-1.134354	0.378267
O6	O	-0.312162	-1.309859	0.426509
O7	O	-0.403432	-1.182496	0.202800
O8	O	-0.191773	-1.086233	0.330076
O9	O	-0.403409	-1.309781	0.330075
O10	O	-0.191756	-1.182675	0.426509
O11	O	-0.312202	-1.086131	0.202801
O12	O	-0.312157	-0.958905	0.330039
O13	O	-0.403330	-1.086157	0.553719
O14	O	-0.403353	-0.958872	0.426444
O15	O	-0.312117	-1.182632	0.553747
O16	O	-0.523793	-1.182453	0.330038
O17	O	-0.523759	-1.086056	0.426444
C18	C	-0.357753	-0.930406	0.378238
C19	C	-0.357763	-0.843156	0.378244
C20	C	-0.405320	-0.802170	0.428361
C21	C	-0.405320	-0.720189	0.428371
C22	C	-0.357767	-0.679197	0.378259
C23	C	-0.310205	-0.720189	0.328141
C24	C	-0.310202	-0.802168	0.328135
C25	C	-0.310217	-0.549319	0.328154
C26	C	-0.310221	-0.467335	0.328158
C27	C	-0.405335	-0.467340	0.428389
C28	C	-0.405331	-0.549319	0.428384
C29	C	-0.357770	-0.590306	0.378264
C30	C	-0.550722	-1.134259	0.378254
C31	C	-0.633268	-1.134291	0.378274
C32	C	-0.832727	-1.081921	0.430682
C33	C	-0.882168	-1.062786	0.359052
C34	C	-0.784398	-1.134368	0.378285
C35	C	-0.882039	-1.153541	0.449923
C36	C	-0.930383	-1.134441	0.378301
C37	C	-0.832752	-1.115195	0.306617
C38	C	-0.832618	-1.205984	0.397536
C39	C	-0.882037	-1.186876	0.325857
C40	C	-0.700300	-1.134324	0.378276
C41	C	-1.014480	-1.134485	0.378301
C42	C	-0.164064	-1.134471	0.378297
C43	C	-0.081519	-1.134520	0.378310
C44	C	-0.357715	-1.134402	0.583011
C45	C	-0.357692	-1.134422	0.670261
C46	C	-0.357783	-0.339098	0.378287
C47	C	-0.357777	-0.426348	0.378274
C48	C	-0.357771	-1.134352	0.174319
C49	C	-0.357585	-1.134484	0.087069
C50	C	-0.310194	-1.184658	0.711267
C51	C	-0.310169	-1.184667	0.793247
C52	C	-0.357647	-1.134444	0.834220
C53	C	-0.405148	-1.084202	0.793209
C54	C	-0.405168	-1.084190	0.711230
C55	C	-0.405103	-1.084234	0.964079
C56	C	-0.405084	-1.084248	1.046063
C57	C	-0.310104	-1.184712	1.046096
C58	C	-0.310124	-1.184699	0.964117
C59	C	-0.357626	-1.134458	0.923111
H60	H	-0.444057	-0.582693	0.469184
H61	H	-0.271425	-1.225619	1.079488
N62	N	-0.258945	-0.423105	0.274109
H63	H	-0.205890	-0.437381	0.286389
H64	H	-0.266247	-0.364971	0.281752
H65	H	-0.444046	-0.686822	0.469180
H66	H	-0.443772	-1.043310	0.930694
H67	H	-0.811192	-1.098937	0.246023
H68	H	-0.443802	-1.043307	0.826575
H69	H	-0.443743	-1.043350	1.079421
N70	N	-0.910540	-1.245671	0.267112
H71	H	-0.892514	-1.231116	0.213053
H72	H	-0.966487	-1.245680	0.267826
N73	N	-0.803767	-1.286144	0.419123
H74	H	-0.821661	-1.300554	0.473270
H75	H	-0.747822	-1.285586	0.418404
H76	H	-0.443839	-1.043274	0.677844
H77	H	-0.271473	-0.835538	0.287330
N78	N	-0.456615	-0.846380	0.482405
H79	H	-0.486741	-0.807973	0.514155
H80	H	-0.426429	-0.880425	0.518784
H81	H	-0.811075	-1.037504	0.474929
H82	H	-0.271533	-1.225558	0.677913
N83	N	-0.456635	-0.423140	0.482447
H84	H	-0.449421	-0.364986	0.474850
H85	H	-0.445148	-0.437502	0.538529
H86	H	-0.271481	-0.582688	0.287348
H87	H	-0.903688	-1.169729	0.510500
H88	H	-0.903949	-1.002257	0.342784
H89	H	-0.271467	-1.225600	0.930759
H90	H	-0.271492	-1.225577	0.826631
H91	H	-0.271483	-0.686807	0.287343
