data_functionalizedCrystal
_audit_creation_method	'MofGen! by Chris Wilmer'
_symmetry_space_group_name_H-M	'P1'
_symmetry_Int_Tables_number	1
_symmetry_cell_setting	triclinic
loop_
_symmetry_equiv_pos_as_xyz
  x,y,z
_cell_length_a	19.121102
_cell_length_b	19.120900
_cell_length_c	12.594509
_cell_angle_alpha	92.474355
_cell_angle_beta	87.540104
_cell_angle_gamma	90.076315
loop_
_atom_site_label
_atom_site_type_symbol
_atom_site_fract_x
_atom_site_fract_y
_atom_site_fract_z
Zn1	Zn	1.059828	0.324895	-0.649229
Zn2	Zn	1.559828	0.824895	-0.149229
Zn3	Zn	1.054718	0.442147	-0.463320
Zn4	Zn	1.554718	0.942147	0.036680
Zn5	Zn	0.942588	0.319916	-0.464010
Zn6	Zn	1.442588	0.819916	0.035990
Zn7	Zn	0.937541	0.437092	-0.634012
Zn8	Zn	1.437541	0.937092	-0.134012
O9	O	0.998669	0.381012	-0.552643
O10	O	1.498669	0.881012	-0.052643
O11	O	1.157255	0.344648	-0.630646
O12	O	1.657255	0.844648	-0.130646
O13	O	1.039817	0.425965	-0.314462
O14	O	1.539817	0.925965	0.185538
O15	O	0.962390	0.222467	-0.495237
O16	O	1.462390	0.722467	0.004763
O17	O	1.153501	0.430793	-0.494060
O18	O	1.653501	0.930793	0.005940
O19	O	1.048527	0.226125	-0.631316
O20	O	1.548527	0.726125	-0.131316
O21	O	0.957436	0.336162	-0.314969
O22	O	1.457436	0.836162	0.185031
O23	O	0.843814	0.331260	-0.480482
O24	O	1.343814	0.831260	0.019518
O25	O	0.953790	0.422177	-0.784980
O26	O	1.453790	0.922177	-0.284980
O27	O	0.840106	0.417349	-0.605381
O28	O	1.340106	0.917349	-0.105381
O29	O	1.043633	0.339746	-0.796160
O30	O	1.543633	0.839746	-0.296160
O31	O	1.034924	0.539586	-0.479305
O32	O	1.534924	1.039586	0.020695
O33	O	0.948835	0.535872	-0.604712
O34	O	1.448835	1.035872	-0.104712
C35	C	0.816522	0.373216	-0.541356
C36	C	1.316522	0.873216	-0.041356
C37	C	0.738598	0.369898	-0.536552
C38	C	1.238598	0.869898	-0.036552
C39	C	0.700075	0.413228	-0.599212
C40	C	1.200075	0.913228	-0.099212
C41	C	0.626857	0.410101	-0.594703
C42	C	1.126857	0.910101	-0.094703
C43	C	0.592165	0.363646	-0.527529
C44	C	1.092165	0.863646	-0.027529
C45	C	0.630694	0.320311	-0.464867
C46	C	1.130694	0.820311	0.035133
C47	C	0.703910	0.323435	-0.469381
C48	C	1.203910	0.823435	0.030619
C49	C	0.371195	0.351964	-0.510655
C50	C	0.871195	0.851964	-0.010655
C51	C	0.297974	0.348845	-0.506142
C52	C	0.797974	0.848845	-0.006142
C53	C	0.294142	0.438634	-0.635981
C54	C	0.794142	0.938634	-0.135981
C55	C	0.367360	0.441757	-0.640485
C56	C	0.867360	0.941757	-0.140485
C57	C	0.405883	0.398419	-0.577827
C58	C	0.905883	0.898419	-0.077827
C59	C	0.517325	0.360450	-0.522916
C60	C	1.017325	0.860450	-0.022916
C61	C	0.480721	0.401612	-0.582446
C62	C	0.980721	0.901612	-0.082446
C63	C	0.990796	0.563168	-0.540306
C64	C	1.490796	1.063168	-0.040306
C65	C	0.987492	0.641098	-0.535069
C66	C	1.487492	1.141098	-0.035069
C67	C	0.998719	0.380953	-0.830271
C68	C	1.498719	0.880953	-0.330271
C69	C	0.998740	0.380928	-0.948579
C70	C	1.498740	0.880928	-0.448579
C71	C	1.181527	0.388840	-0.563974
C72	C	1.681527	0.888840	-0.063974
C73	C	1.259450	0.392175	-0.568802
C74	C	1.759450	0.892175	-0.068802
C75	C	0.966541	1.081759	-0.501922
C76	C	1.466541	1.581759	-0.001922
C77	C	0.969646	1.008536	-0.506843
C78	C	1.469646	1.508536	-0.006843
C79	C	1.016015	0.973768	-0.580205
C80	C	1.516015	1.473768	-0.080205
C81	C	1.059276	1.012227	-0.648656
C82	C	1.559276	1.512227	-0.148656
C83	C	1.056167	1.085449	-0.643739
C84	C	1.556167	1.585449	-0.143739
C85	C	1.027644	0.752778	-0.598603
C86	C	1.527644	1.252778	-0.098603
C87	C	1.030752	0.679552	-0.603513
C88	C	1.530752	1.179552	-0.103513
C89	C	0.941120	0.675865	-0.461701
C90	C	1.441120	1.175865	0.038299
C91	C	0.938018	0.749088	-0.456786
C92	C	1.438018	1.249088	0.043214
C93	C	0.981276	0.787541	-0.525241
C94	C	1.481276	1.287541	-0.025241
C95	C	1.019193	0.898923	-0.585235
C96	C	1.519193	1.398923	-0.085235
C97	C	0.978095	0.862385	-0.520215
C98	C	1.478095	1.362385	-0.020215
C99	C	1.006549	1.198145	-0.565058
C100	C	1.506549	1.698145	-0.065058
C101	C	1.009800	1.120213	-0.570366
C102	C	1.509800	1.620213	-0.070366
C103	C	0.949889	0.425736	-1.011754
C104	C	1.449889	0.925736	-0.511754
C105	C	1.013123	0.445599	-1.085340
C106	C	1.513123	0.945599	-0.585340
C107	C	0.935558	0.361024	-1.085799
C108	C	1.435558	0.861024	-0.585799
C109	C	1.062005	0.400826	-1.020606
C110	C	1.562005	0.900826	-0.520606
C111	C	0.984398	0.316219	-1.021058
C112	C	1.484398	0.816219	-0.521058
C113	C	1.047677	0.336061	-1.094616
C114	C	1.547677	0.836061	-0.594616
C115	C	0.998662	0.381023	-0.276100
C116	C	1.498662	0.881023	0.223900
C117	C	0.998785	0.380856	-0.157814
C118	C	1.498785	0.880856	0.342186
H119	H	0.508971	0.439433	-0.637144
H120	H	1.008971	0.939433	-0.137144
H121	H	1.068514	0.651248	-0.663256
H122	H	1.568514	1.151248	-0.163256
O123	O	1.029226	0.518040	-1.122904
O124	O	1.529226	1.018040	-0.622904
H125	H	0.988587	0.555169	-1.089555
H126	H	1.488587	1.055169	-0.589555
O127	O	1.102820	1.126929	-0.717567
O128	O	1.602820	1.626929	-0.217567
H129	H	1.137083	1.161818	-0.669947
H130	H	1.637083	1.661818	-0.169947
H131	H	1.056948	0.870609	-0.644965
H132	H	1.556948	1.370609	-0.144965
O133	O	1.132937	0.422821	-0.982768
O134	O	1.632937	0.922821	-0.482768
H135	H	1.132393	0.422573	-0.894624
H136	H	1.632393	0.922573	-0.394624
O137	O	0.479901	0.310350	-0.450463
O138	O	0.979901	0.810350	0.049537
H139	H	0.518987	0.280739	-0.407647
H140	H	1.018987	0.780739	0.092353
O141	O	0.895212	0.476007	-0.963795
O142	O	1.395212	0.976007	-0.463795
H143	H	0.907311	0.529659	-0.989455
H144	H	1.407311	1.029659	-0.489455
H145	H	1.089053	0.298139	-1.130608
H146	H	1.589053	0.798139	-0.630608
O147	O	0.968258	0.243802	-0.983448
O148	O	1.468258	0.743802	-0.483448
H149	H	0.959725	0.207780	-1.053174
H150	H	1.459725	0.707780	-0.553174
O151	O	0.737493	0.463330	-0.671669
O152	O	1.237493	0.963330	-0.171669
H153	H	0.698401	0.492929	-0.714491
H154	H	1.198401	0.992929	-0.214491
O155	O	0.585298	0.456969	-0.662072
O156	O	1.085298	0.956969	-0.162072
H157	H	0.621720	0.489852	-0.709453
H158	H	1.121720	0.989852	-0.209453
O159	O	0.923000	0.967058	-0.433006
O160	O	1.423000	1.467058	0.066994
H161	H	0.890245	1.003536	-0.381153
H162	H	1.390245	1.503536	0.118847
H163	H	0.882107	0.344219	-1.114527
H164	H	1.382107	0.844219	-0.614527
O165	O	0.252617	0.485391	-0.703566
O166	O	0.752617	0.985391	-0.203566
H167	H	0.220629	0.452654	-0.757892
H168	H	0.720629	0.952654	-0.257892
O169	O	0.404779	0.491855	-0.712947
O170	O	0.904779	0.991855	-0.212947
H171	H	0.365690	0.521456	-0.755771
H172	H	0.865690	1.021456	-0.255771
H173	H	0.269730	0.311008	-0.451448
H174	H	0.769730	0.811008	0.048552
H175	H	0.602442	0.282484	-0.410177
H176	H	1.102442	0.782484	0.089823
O177	O	0.412729	0.305238	-0.443039
O178	O	0.912729	0.805238	0.056961
H179	H	0.401052	0.249626	-0.464265
H180	H	0.901052	0.749626	0.035735
O181	O	0.745466	0.276709	-0.401787
O182	O	1.245466	0.776709	0.098213
H183	H	0.709043	0.243888	-0.354306
H184	H	1.209043	0.743888	0.145694
O185	O	1.074306	0.794245	-0.672427
O186	O	1.574306	1.294245	-0.172427
H187	H	1.041495	0.826254	-0.722369
H188	H	1.541495	1.326254	-0.222369
O189	O	0.916526	1.119258	-0.422798
O190	O	1.416526	1.619258	0.077202
H191	H	0.886963	1.080213	-0.376040
H192	H	1.386963	1.580213	0.123960
O193	O	0.888003	0.786588	-0.377664
O194	O	1.388003	1.286588	0.122336
H195	H	0.858439	0.747546	-0.330901
H196	H	1.358439	1.247546	0.169099
H197	H	0.905901	0.644550	-0.405968
H198	H	1.405901	1.144550	0.094032
H199	H	1.097029	0.983915	-0.708394
H200	H	1.597029	1.483915	-0.208394
H201	H	0.940338	0.890696	-0.460489
H202	H	1.440338	1.390696	0.039511
