data_functionalizedCrystal
_audit_creation_method	'MofGen! by Chris Wilmer'
_symmetry_space_group_name_H-M	'P1'
_symmetry_Int_Tables_number	1
_symmetry_cell_setting	triclinic
loop_
_symmetry_equiv_pos_as_xyz
  x,y,z
_cell_length_a	16.120297
_cell_length_b	12.759400
_cell_length_c	12.759401
_cell_angle_alpha	89.996723
_cell_angle_beta	87.119679
_cell_angle_gamma	92.882205
loop_
_atom_site_label
_atom_site_type_symbol
_atom_site_fract_x
_atom_site_fract_y
_atom_site_fract_z
Zn1	Zn	-0.471396	-0.448409	-1.576208
Zn2	Zn	-0.332006	-0.615194	-1.585048
Zn3	Zn	-0.332003	-0.439531	-1.409420
Zn4	Zn	-0.471378	-0.624046	-1.400536
O5	O	-0.401696	-0.531795	-1.492803
O6	O	-0.452914	-0.470545	-1.724401
O7	O	-0.215342	-0.584472	-1.569169
O8	O	-0.350501	-0.293688	-1.431564
O9	O	-0.350505	-0.593081	-1.730896
O10	O	-0.452912	-0.300211	-1.554102
O11	O	-0.215340	-0.455413	-1.440136
O12	O	-0.350483	-0.463996	-1.261221
O13	O	-0.588044	-0.608167	-1.416421
O14	O	-0.452881	-0.599558	-1.254694
O15	O	-0.588058	-0.479127	-1.545487
O16	O	-0.350488	-0.763389	-1.560554
O17	O	-0.452884	-0.769892	-1.424993
C18	C	-0.401680	-0.531775	-1.219837
C19	C	-0.401694	-0.531793	-1.103059
C20	C	-0.619147	-0.545625	-1.478977
C21	C	-0.711811	-0.551519	-1.473085
C22	C	-0.401708	-0.257762	-1.492838
C23	C	-0.401713	-0.140986	-1.492853
C24	C	-0.881470	-0.562255	-1.462290
C25	C	-0.922773	-0.501020	-1.523524
C26	C	-1.017178	-0.506994	-1.517517
C27	C	-0.787057	-0.556283	-1.468295
C28	C	-0.185091	-0.517943	-1.506636
C29	C	-0.092427	-0.511753	-1.512731
C30	C	-0.401702	-0.804763	-1.492796
C31	C	-0.401733	-0.921541	-1.492887
C32	C	-0.348396	-0.082727	-1.429067
C33	C	-0.348407	0.026997	-1.429081
C34	C	-0.455056	0.020191	-1.556676
C35	C	-0.455048	-0.089530	-1.556656
C36	C	-0.286821	-0.078796	-1.355404
C37	C	-0.286832	0.030927	-1.355418
C38	C	-0.401712	-0.531816	-1.766835
C39	C	-0.401719	-0.531825	-1.883612
C40	C	-0.348296	-0.595485	-1.051587
C41	C	-0.348311	-0.595504	-0.941862
C42	C	-0.455122	-0.468130	-0.935091
C43	C	-0.455111	-0.468117	-1.044814
C44	C	-0.286627	-0.669021	-1.055496
C45	C	-0.286641	-0.669040	-0.945771
H46	H	-0.887235	-0.444107	-1.580458
H47	H	-0.498468	-0.136962	-1.608591
H48	H	-0.917007	-0.619164	-1.405360
H49	H	-0.225487	-0.108929	-1.388446
H50	H	-0.498480	0.062098	-1.608622
H51	H	-0.225328	-0.635849	-1.093409
O52	O	-0.307229	-0.767357	-1.089854
C53	C	-0.379969	-0.765362	-1.146588
H54	H	-0.387103	-0.682588	-1.177364
H55	H	-0.436283	-0.789772	-1.092884
C56	C	-0.364954	-0.943685	-1.201736
C57	C	-0.373712	-0.842023	-1.239543
H58	H	-0.361098	-0.990977	-1.259073
H59	H	-0.315950	-0.945032	-1.163510
H60	H	-0.411885	-0.964013	-1.156982
H61	H	-0.326778	-0.821693	-1.284285
H62	H	-0.422709	-0.840675	-1.277779
H63	H	-0.222268	0.064813	-1.381328
O64	O	-0.506961	-0.406353	-1.094978
C65	C	-0.495486	-0.419975	-1.204313
H66	H	-0.468067	-0.499250	-1.221040
H67	H	-0.451176	-0.354739	-1.238255
C68	C	-0.613526	-0.318524	-1.234755
C69	C	-0.579855	-0.415895	-1.255300
H70	H	-0.665567	-0.316002	-1.266208
H71	H	-0.621255	-0.309342	-1.161095
H72	H	-0.576592	-0.264171	-1.263041
H73	H	-0.616783	-0.470244	-1.227002
H74	H	-0.572134	-0.425085	-1.328957
O75	O	-0.307397	-0.115802	-1.257069
C76	C	-0.307369	-0.226302	-1.257242
H77	H	-0.266150	-0.253338	-1.326226
H78	H	-0.373544	-0.260307	-1.264899
C79	C	-0.324252	-0.231346	-1.069172
C80	C	-0.273621	-0.264551	-1.153895
H81	H	-0.303438	-0.254941	-1.005421
H82	H	-0.324274	-0.156900	-1.069055
H83	H	-0.379394	-0.259685	-1.075567
H84	H	-0.218483	-0.236200	-1.147506
H85	H	-0.273588	-0.338993	-1.154008
H86	H	-0.309669	-0.747854	-0.910288
H87	H	-0.498613	-0.416287	-0.887654
O88	O	-0.209592	-0.638107	-0.915236
C89	C	-0.151143	-0.708040	-0.955842
H90	H	-0.176413	-0.749398	-1.027638
H91	H	-0.139369	-0.768774	-0.893475
C92	C	-0.038029	-0.595722	-0.899277
C93	C	-0.069063	-0.646512	-0.987465
H94	H	0.012603	-0.557771	-0.918780
H95	H	-0.077407	-0.548609	-0.871917
H96	H	-0.028224	-0.646343	-0.847313
H97	H	-0.078877	-0.595890	-1.039422
H98	H	-0.029685	-0.693616	-1.014835
H99	H	-0.309955	0.063495	-1.276654
