data_functionalizedCrystal
_audit_creation_method	'MofGen! by Chris Wilmer'
_symmetry_space_group_name_H-M	'P1'
_symmetry_Int_Tables_number	1
_symmetry_cell_setting	triclinic
loop_
_symmetry_equiv_pos_as_xyz
  x,y,z
_cell_length_a	15.625110
_cell_length_b	15.711784
_cell_length_c	15.455313
_cell_angle_alpha	93.467169
_cell_angle_beta	105.373385
_cell_angle_gamma	101.032294
loop_
_atom_site_label
_atom_site_type_symbol
_atom_site_fract_x
_atom_site_fract_y
_atom_site_fract_z
O1	O	1.221733	0.129267	0.312215
O2	O	0.966703	0.138511	0.231985
O3	O	1.060281	0.007456	0.261425
O4	O	1.128155	0.260321	0.282775
O5	O	1.054920	0.014919	0.404000
O6	O	0.961341	0.145973	0.374560
O7	O	1.216372	0.136729	0.454791
Cu8	Cu	1.088367	0.142033	0.427694
Cu9	Cu	1.094708	0.133207	0.259082
O10	O	1.122794	0.267784	0.425350
C11	C	0.930627	0.141082	0.292766
C12	C	0.831119	0.137615	0.261462
C13	C	0.693787	0.128662	0.139627
C14	C	0.787290	0.131920	0.169051
C15	C	0.781454	0.140059	0.324484
C16	C	0.687950	0.136807	0.295073
C17	C	0.644123	0.131107	0.202643
C18	C	0.638286	0.139252	0.358089
C19	C	0.544789	0.135994	0.328679
C20	C	0.500955	0.130292	0.236253
C21	C	0.550626	0.127850	0.173233
C22	C	0.682113	0.144945	0.450518
C23	C	0.632449	0.147390	0.513534
C24	C	0.538951	0.144139	0.484125
C25	C	0.495118	0.138437	0.391699
C26	C	0.489280	0.146581	0.547146
C27	C	0.395783	0.143324	0.517736
C28	C	0.401620	0.135180	0.362290
C29	C	1.046513	-0.021213	0.329223
C30	C	1.013465	-0.117757	0.318822
C31	C	0.889049	-0.244907	0.279676
C32	C	0.920112	-0.154191	0.289452
C33	C	1.075791	-0.172032	0.338432
C34	C	1.044741	-0.262751	0.328664
C35	C	0.951369	-0.299181	0.299285
C36	C	1.107061	-0.317025	0.348273
C37	C	1.076014	-0.407737	0.338501
C38	C	0.982646	-0.444174	0.309121
C39	C	0.920322	-0.389893	0.289514
C40	C	1.200433	-0.280593	0.377645
C41	C	1.262753	-0.334867	0.397254
C42	C	1.231706	-0.425580	0.387489
C43	C	1.138338	-0.462018	0.358109
C44	C	1.294030	-0.479862	0.407096
C45	C	1.262982	-0.570573	0.397325
C46	C	1.107290	-0.552730	0.348337
C47	C	1.252447	0.134158	0.394007
C48	C	1.351956	0.137625	0.425306
C49	C	1.136562	0.296453	0.357550
C50	C	1.169610	0.392996	0.367946
N51	N	1.083914	0.148240	0.546288
N52	N	1.099166	0.126993	0.140489
C53	C	1.123696	0.092585	0.604198
C54	C	1.120339	0.097287	0.693950
C55	C	1.077205	0.157649	0.725792
C56	C	1.037417	0.213307	0.667874
C57	C	1.040769	0.208600	0.578122
C58	C	1.062730	0.177944	0.992819
C59	C	1.059383	0.182649	1.082579
C60	C	1.142304	0.066627	1.108648
C61	C	1.145657	0.061928	1.018895
C62	C	1.105865	0.117583	0.960984
N63	N	1.073775	0.162459	0.817533
N64	N	1.109290	0.112768	0.869243
H65	H	0.514942	0.123219	0.097968
H66	H	0.957368	-0.518038	0.301161
Cl67	Cl	0.983185	0.289189	0.707899
H68	H	0.524977	0.151214	0.622402
H69	H	0.844288	-0.419556	0.265610
Cl70	Cl	1.192321	-0.003338	1.181453
Cl71	Cl	0.836560	0.147226	0.440678
H72	H	0.813016	-0.274570	0.255773
H73	H	0.355349	0.145331	0.569051
H74	H	1.180780	0.012777	0.992972
H75	H	0.658103	0.124031	0.064362
Cl76	Cl	1.380131	-0.289060	0.434183
H77	H	0.424823	0.127642	0.212310
Cl78	Cl	1.170351	0.027318	0.766752
H79	H	1.031257	-0.582392	0.324433
H80	H	0.668145	0.152027	0.588791
H81	H	0.365936	0.130549	0.287025
H82	H	1.024257	0.231807	1.108498
H83	H	1.030332	0.223262	0.945675
Cl84	Cl	0.849722	0.128844	0.089820
Cl85	Cl	0.990750	0.278567	0.505319
H86	H	0.869356	-0.110003	0.273484
H87	H	1.370054	-0.450186	0.431011
H88	H	0.758245	0.147598	0.474461
H89	H	1.151815	-0.142357	0.362356
H90	H	1.225709	-0.206729	0.385603
H91	H	1.313730	-0.614765	0.413288
H92	H	1.158826	0.043435	0.578281
