data_functionalizedCrystal
_audit_creation_method	'MofGen! by Chris Wilmer'
_symmetry_space_group_name_H-M	'P1'
_symmetry_Int_Tables_number	1
_symmetry_cell_setting	triclinic
loop_
_symmetry_equiv_pos_as_xyz
  x,y,z
_cell_length_a	17.639762
_cell_length_b	25.639240
_cell_length_c	17.639306
_cell_angle_alpha	101.177631
_cell_angle_beta	87.803760
_cell_angle_gamma	101.263786
loop_
_atom_site_label
_atom_site_type_symbol
_atom_site_fract_x
_atom_site_fract_y
_atom_site_fract_z
Zn1	Zn	1.247763	-0.067138	-0.195043
Zn2	Zn	1.747763	0.432862	0.304957
Zn3	Zn	1.221995	-0.141044	-0.068054
Zn4	Zn	1.721995	0.358956	0.431946
Zn5	Zn	1.095108	-0.074045	-0.093696
Zn6	Zn	1.595108	0.425955	0.406304
Zn7	Zn	1.120692	-0.174981	-0.220620
Zn8	Zn	1.620692	0.325019	0.279380
O9	O	1.171389	-0.114302	-0.144353
O10	O	1.671389	0.385698	0.355647
O11	O	1.350628	-0.059847	-0.156763
O12	O	1.850628	0.440153	0.343237
O13	O	1.183671	-0.120844	0.034808
O14	O	1.683671	0.379156	0.534808
O15	O	1.115435	0.000043	-0.107167
O16	O	1.615435	0.500043	0.392833
O17	O	1.331695	-0.114146	-0.063464
O18	O	1.831695	0.385854	0.436536
O19	O	1.227591	0.005118	-0.181626
O20	O	1.727591	0.505118	0.318374
O21	O	1.090448	-0.071621	0.015969
O22	O	1.590448	0.428379	0.515969
O23	O	0.992219	-0.104529	-0.131968
O24	O	1.492219	0.395471	0.368032
O25	O	1.159040	-0.171988	-0.323491
O26	O	1.659040	0.328012	0.176509
O27	O	1.011016	-0.178686	-0.225218
O28	O	1.511016	0.321314	0.274782
O29	O	1.252399	-0.092755	-0.304700
O30	O	1.752399	0.407245	0.195300
O31	O	1.208479	-0.218717	-0.088265
O32	O	1.708479	0.281283	0.411735
O33	O	1.134053	-0.243651	-0.200355
O34	O	1.634053	0.256349	0.299645
C35	C	0.974060	-0.146040	-0.184151
C36	C	1.474060	0.353960	0.315849
C37	C	0.889645	-0.159632	-0.201195
C38	C	1.389645	0.340368	0.298805
C39	C	0.780456	-0.217436	-0.273685
C40	C	1.280456	0.282564	0.226315
C41	C	0.859776	-0.204660	-0.257664
C42	C	1.359776	0.295340	0.242336
C43	C	0.840200	-0.127361	-0.160728
C44	C	1.340200	0.372639	0.339272
C45	C	0.760878	-0.140130	-0.176743
C46	C	1.260878	0.359870	0.323257
C47	C	0.731012	-0.185168	-0.233222
C48	C	1.231012	0.314832	0.266778
C49	C	0.711434	-0.107862	-0.136281
C50	C	1.211434	0.392138	0.363719
C51	C	0.632118	-0.120631	-0.152292
C52	C	1.132118	0.379369	0.347708
C53	C	0.602246	-0.165668	-0.208767
C54	C	1.102246	0.334332	0.291233
C55	C	0.651697	-0.197937	-0.249234
C56	C	1.151697	0.302063	0.250766
C57	C	0.741300	-0.062826	-0.079799
C58	C	1.241300	0.437174	0.420201
C59	C	0.691857	-0.030558	-0.039336
C60	C	1.191857	0.469442	0.460664
C61	C	0.612540	-0.043325	-0.055351
C62	C	1.112540	0.456675	0.444649
C63	C	0.582668	-0.088362	-0.111826
C64	C	1.082668	0.411638	0.388174
C65	C	0.563090	-0.011056	-0.014884
C66	C	1.063090	0.488944	0.485116
C67	C	0.483774	-0.023825	-0.030896
C68	C	0.983774	0.476175	0.469104
C69	C	0.503352	-0.101131	-0.127837
C70	C	1.003352	0.398869	0.372163
C71	C	1.171270	-0.250155	-0.144315
C72	C	1.671270	0.249845	0.355685
C73	C	1.171294	-0.308266	-0.144311
C74	C	1.671294	0.191734	0.355689
C75	C	1.229831	-0.665946	-0.183207
C76	C	1.729831	-0.165946	0.316793
C77	C	1.229856	-0.720548	-0.183218
C78	C	1.729856	-0.220548	0.316782
O79	O	1.279486	-0.746518	-0.216254
O80	O	1.779486	-0.246518	0.283746
N81	N	1.171510	-0.750532	-0.144405
N82	N	1.671510	-0.250532	0.355595
C83	C	1.113129	-0.725912	-0.105586
C84	C	1.613129	-0.225912	0.394414
O85	O	1.063503	-0.756429	-0.072574
O86	O	1.563503	-0.256429	0.427426
C87	C	1.113102	-0.671312	-0.105580
C88	C	1.613102	-0.171312	0.394420
C89	C	1.171456	-0.641329	-0.144389
C90	C	1.671456	-0.141329	0.355611
C91	C	1.288180	-0.635964	-0.222013
C92	C	1.788180	-0.135964	0.277987
C93	C	1.288155	-0.581365	-0.222001
C94	C	1.788155	-0.081365	0.277999
C95	C	1.229781	-0.556748	-0.183183
C96	C	1.729781	-0.056748	0.316817
C97	C	1.171431	-0.586730	-0.144376
C98	C	1.671431	-0.086730	0.355624
C99	C	1.054719	-0.646694	-0.066765
C100	C	1.554719	-0.146694	0.433235
C101	C	1.054696	-0.592089	-0.066763
C102	C	1.554696	-0.092089	0.433237
C103	C	1.113051	-0.562107	-0.105572
C104	C	1.613051	-0.062107	0.394428
C105	C	1.113032	-0.507515	-0.105546
C106	C	1.613032	-0.007515	0.394454
N107	N	1.171379	-0.477531	-0.144358
N108	N	1.671379	0.022469	0.355642
C109	C	1.229753	-0.502148	-0.183177
C110	C	1.729753	-0.002148	0.316823
C111	C	1.113192	-0.840576	-0.105602
C112	C	1.613192	-0.340576	0.394398
C113	C	1.113222	-0.895175	-0.105603
C114	C	1.613222	-0.395175	0.394397
C115	C	1.229948	-0.889808	-0.183237
C116	C	1.729948	-0.389808	0.316763
C117	C	1.229920	-0.835207	-0.183231
C118	C	1.729920	-0.335207	0.316769
C119	C	1.171538	-0.810593	-0.144415
C120	C	1.671538	-0.310593	0.355585
C121	C	1.229696	-0.387486	-0.183147
C122	C	1.729696	0.112514	0.316853
C123	C	1.229668	-0.332882	-0.183129
C124	C	1.729668	0.167118	0.316871
C125	C	1.112940	-0.338255	-0.105499
C126	C	1.612940	0.161745	0.394501
C127	C	1.112970	-0.392854	-0.105514
C128	C	1.612970	0.107146	0.394486
C129	C	1.171352	-0.417468	-0.144344
C130	C	1.671352	0.082532	0.355656
O131	O	1.063425	-0.481510	-0.072529
O132	O	1.563425	0.018490	0.427471
O133	O	1.279365	-0.471626	-0.216191
O134	O	1.779365	0.028374	0.283809
C135	C	1.369490	-0.082440	-0.104400
C136	C	1.869490	0.417560	0.395600
C137	C	1.453908	-0.068863	-0.087375
C138	C	1.953908	0.431137	0.412625
C139	C	1.211448	-0.135387	-0.342419
C140	C	1.711448	0.364613	0.157581
C141	C	1.228518	-0.144371	-0.426822
C142	C	1.728518	0.355629	0.073178
C143	C	1.171533	0.022084	-0.144404
C144	C	1.671533	0.522084	0.355596
C145	C	1.171595	0.080203	-0.144425
C146	C	1.671595	0.580203	0.355575
C147	C	1.042003	-0.045801	-0.753476
C148	C	1.542003	0.454199	-0.253476
C149	C	1.058060	-0.054253	-0.832783
C150	C	1.558060	0.445747	-0.332783
C151	C	1.155123	-0.105503	-0.813148
C152	C	1.655123	0.394497	-0.313148
C153	C	1.139077	-0.097054	-0.733838
C154	C	1.639077	0.402946	-0.233838
C155	C	1.082515	-0.067204	-0.704008
C156	C	1.582515	0.432796	-0.204008
C157	C	1.179589	-0.118457	-0.684370
C158	C	1.679589	0.381543	-0.184370
C159	C	1.163541	-0.110011	-0.605067
C160	C	1.663541	0.389989	-0.105067
C161	C	1.106980	-0.080162	-0.575232
C162	C	1.606980	0.419838	-0.075232
C163	C	1.066467	-0.058758	-0.624705
C164	C	1.566467	0.441242	-0.124705
C165	C	1.236147	-0.148311	-0.714201
C166	C	1.736147	0.351689	-0.214201
C167	C	1.276659	-0.169713	-0.664734
C168	C	1.776659	0.330287	-0.164734
C169	C	1.260615	-0.161264	-0.585428
C170	C	1.760615	0.338736	-0.085428
C171	C	1.204054	-0.131415	-0.555593
C172	C	1.704054	0.368585	-0.055593
C173	C	1.301128	-0.182668	-0.535955
C174	C	1.801128	0.317332	-0.035955
C175	C	1.285080	-0.174222	-0.456652
C176	C	1.785080	0.325778	0.043348
C177	C	1.188006	-0.122969	-0.476290
C178	C	1.688006	0.377031	0.023710
C179	C	1.131531	-0.093255	0.052951
C180	C	1.631531	0.406745	0.552951
C181	C	1.114608	-0.084099	0.137383
C182	C	1.614608	0.415901	0.637383
H183	H	0.716184	0.006111	0.006651
H184	H	1.216184	0.506111	0.506651
N185	N	1.328775	-0.197300	-0.403288
N186	N	1.828775	0.302700	0.096712
H187	H	1.291225	-0.222992	-0.376603
H188	H	1.791225	0.277008	0.123397
H189	H	1.367043	-0.217462	-0.434266
H190	H	1.867043	0.282538	0.065734
H191	H	1.249213	-0.155185	-0.778775
H192	H	1.749213	0.344815	-0.278775
N193	N	1.292605	-0.300548	-0.224999
N194	N	1.792605	0.199452	0.275001
H195	H	1.283736	-0.262222	-0.219104
H196	H	1.783736	0.237778	0.280896
H197	H	1.344481	-0.300085	-0.202287
H198	H	1.844481	0.199915	0.297713
N199	N	1.014359	-0.031169	-0.886140
N200	N	1.514359	0.468831	-0.386140
H201	H	0.976093	-0.010979	-0.855207
H202	H	1.476093	0.489021	-0.355207
H203	H	1.051956	-0.005502	-0.912818
H204	H	1.551956	0.494498	-0.412818
N205	N	0.980998	-0.013605	-0.721292
N206	N	1.480998	0.486395	-0.221292
H207	H	1.005233	0.019093	-0.682172
H208	H	1.505233	0.519093	-0.182172
H209	H	0.957787	-0.001363	-0.764707
H210	H	1.457787	0.498637	-0.264707
N211	N	1.089676	-0.071046	-0.489697
N212	N	1.589676	0.428954	0.010303
H213	H	1.047699	-0.048887	-0.478308
H214	H	1.547699	0.451113	0.021692
H215	H	1.071847	-0.107144	-0.473442
H216	H	1.571847	0.392856	0.026558
H217	H	1.141955	-0.098655	-0.452000
H218	H	1.641955	0.401345	0.048000
H219	H	1.322709	-0.194019	-0.689032
H220	H	1.822709	0.305981	-0.189032
N221	N	1.351087	-0.549036	-0.263874
N222	N	1.851087	-0.049036	0.236126
H223	H	1.342221	-0.510709	-0.257986
H224	H	1.842221	-0.010709	0.242014
H225	H	1.402964	-0.548572	-0.241163
H226	H	1.902964	-0.048572	0.258837
H227	H	0.537662	-0.176064	-0.221802
H228	H	1.037662	0.323936	0.278198
N229	N	1.351155	-0.662497	-0.263891
N230	N	1.851155	-0.162497	0.236109
H231	H	1.380163	-0.676191	-0.225966
H232	H	1.880163	-0.176191	0.274034
H233	H	1.327343	-0.693847	-0.305299
H234	H	1.827343	-0.193847	0.194701
H235	H	0.864527	-0.090693	-0.114741
H236	H	1.364527	0.409307	0.385259
N237	N	0.619478	-0.246516	-0.310148
N238	N	1.119478	0.253484	0.189852
H239	H	0.561729	-0.249707	-0.314148
H240	H	1.061729	0.250293	0.185852
H241	H	0.644326	-0.241979	-0.361605
H242	H	1.144326	0.258021	0.138395
H243	H	0.479036	-0.137801	-0.173835
H244	H	0.979036	0.362199	0.326165
H245	H	1.020416	-0.034443	-0.600416
H246	H	1.520416	0.465557	-0.100416
H247	H	0.805885	-0.052432	-0.066763
H248	H	1.305885	0.447568	0.433237
N249	N	0.595304	0.037515	0.046037
N250	N	1.095304	0.537515	0.546037
H251	H	0.653053	0.040706	0.050043
H252	H	1.153053	0.540706	0.550043
H253	H	0.583885	0.071348	0.031320
H254	H	1.083885	0.571348	0.531320
H255	H	1.347175	-0.206977	-0.560255
H256	H	1.847175	0.293023	-0.060255
N257	N	0.430438	0.010975	0.012746
N258	N	0.930438	0.510975	0.512746
H259	H	0.461393	0.041444	0.050953
H260	H	0.961393	0.541444	0.550953
H261	H	0.403815	0.026543	-0.024874
H262	H	0.903815	0.526543	0.475126
N263	N	0.913106	-0.239466	-0.301306
N264	N	1.413106	0.260534	0.198694
H265	H	0.882148	-0.269935	-0.339513
H266	H	1.382148	0.230065	0.160487
H267	H	0.953156	-0.216670	-0.329863
H268	H	1.453156	0.283330	0.170137
H269	H	1.277232	-0.407522	-0.214773
H270	H	1.777232	0.092478	0.285227
H271	H	0.756140	-0.254106	-0.319683
H272	H	1.256140	0.245894	0.180317
H273	H	1.277437	-0.810799	-0.214832
H274	H	1.777437	-0.310799	0.285168
N275	N	1.292912	-0.916364	-0.225107
N276	N	1.792912	-0.416364	0.274893
H277	H	1.284068	-0.955502	-0.219221
H278	H	1.784068	-0.455502	0.280779
H279	H	1.292007	-0.914490	-0.281723
H280	H	1.792007	-0.414490	0.218277
N281	N	1.050292	-0.927507	-0.063731
N282	N	1.550292	-0.427507	0.436269
H283	H	1.013313	-0.903621	-0.039139
H284	H	1.513313	-0.403621	0.460861
H285	H	1.021370	-0.959116	-0.101707
H286	H	1.521370	-0.459116	0.398293
N287	N	0.991725	-0.565545	-0.024888
N288	N	1.491725	-0.065545	0.475112
H289	H	1.015495	-0.534174	0.016514
H290	H	1.515495	-0.034174	0.516514
H291	H	0.962746	-0.551882	-0.062867
H292	H	1.462746	-0.051882	0.437133
H293	H	1.065651	-0.820537	-0.073987
H294	H	1.565651	-0.320537	0.426013
N295	N	0.991780	-0.679023	-0.024905
N296	N	1.491780	-0.179023	0.475095
H297	H	0.954799	-0.655135	-0.000321
H298	H	1.454799	-0.155135	0.499679
H299	H	0.962861	-0.710632	-0.062884
H300	H	1.462861	-0.210632	0.437116
N301	N	1.050040	-0.425193	-0.063647
N302	N	1.550040	0.074807	0.436353
H303	H	1.013059	-0.401310	-0.039051
H304	H	1.513059	0.098690	0.460949
H305	H	1.021121	-0.456800	-0.101629
H306	H	1.521121	0.043200	0.398371
H307	H	1.201173	-0.129810	-0.837447
H308	H	1.701173	0.370190	-0.337447
H309	H	1.065414	-0.318203	-0.073891
H310	H	1.565414	0.181797	0.426109
