data_functionalizedCrystal
_audit_creation_method	'MofGen! by Chris Wilmer'
_symmetry_space_group_name_H-M	'P1'
_symmetry_Int_Tables_number	1
_symmetry_cell_setting	triclinic
loop_
_symmetry_equiv_pos_as_xyz
  x,y,z
_cell_length_a	10.685661
_cell_length_b	16.625545
_cell_length_c	10.686551
_cell_angle_alpha	85.592661
_cell_angle_beta	80.927213
_cell_angle_gamma	85.646941
loop_
_atom_site_label
_atom_site_type_symbol
_atom_site_fract_x
_atom_site_fract_y
_atom_site_fract_z
Zn1	Zn	1.995608	-0.376344	-0.866149
Zn2	Zn	2.245608	-0.126344	-0.616149
Zn3	Zn	2.495608	0.123656	-0.366149
Zn4	Zn	2.745608	0.373656	-0.116149
Zn5	Zn	1.979143	-0.520803	-0.653878
Zn6	Zn	2.229143	-0.270803	-0.403878
Zn7	Zn	2.479143	-0.020803	-0.153878
Zn8	Zn	2.729143	0.229197	0.096122
Zn9	Zn	1.767043	-0.376381	-0.637673
Zn10	Zn	2.017043	-0.126381	-0.387673
Zn11	Zn	2.267043	0.123619	-0.137673
Zn12	Zn	2.517043	0.373619	0.112327
Zn13	Zn	1.783279	-0.501525	-0.849841
Zn14	Zn	2.033279	-0.251525	-0.599841
Zn15	Zn	2.283279	-0.001525	-0.349841
Zn16	Zn	2.533279	0.248475	-0.099841
O17	O	1.881268	-0.443763	-0.751885
O18	O	2.131268	-0.193763	-0.501885
O19	O	2.381268	0.056237	-0.251885
O20	O	2.631268	0.306237	-0.001885
O21	O	2.171049	-0.403559	-0.851597
O22	O	2.421049	-0.153559	-0.601597
O23	O	2.671049	0.096441	-0.351597
O24	O	2.921049	0.346441	-0.101597
O25	O	1.937322	-0.509728	-0.474099
O26	O	2.187322	-0.259728	-0.224099
O27	O	2.437322	-0.009728	0.025901
O28	O	2.687322	0.240272	0.275901
O29	O	1.797458	-0.263546	-0.668025
O30	O	2.047458	-0.013546	-0.418025
O31	O	2.297458	0.236454	-0.168025
O32	O	2.547458	0.486454	0.081975
O33	O	2.158952	-0.509692	-0.695643
O34	O	2.408952	-0.259692	-0.445643
O35	O	2.658952	-0.009692	-0.195643
O36	O	2.908952	0.240308	0.054357
O37	O	1.965384	-0.263519	-0.835885
O38	O	2.215384	-0.013519	-0.585885
O39	O	2.465384	0.236481	-0.335885
O40	O	2.715384	0.486481	-0.085885
O41	O	1.781493	-0.403622	-0.462194
O42	O	2.031493	-0.153622	-0.212194
O43	O	2.281493	0.096378	0.037806
O44	O	2.531493	0.346378	0.287806
O45	O	1.591571	-0.384930	-0.652211
O46	O	1.841571	-0.134930	-0.402211
O47	O	2.091571	0.115070	-0.152211
O48	O	2.341571	0.365070	0.097789
O49	O	1.825130	-0.476837	-1.029633
O50	O	2.075130	-0.226837	-0.779633
O51	O	2.325130	0.023163	-0.529633
O52	O	2.575130	0.273163	-0.279633
O53	O	1.603500	-0.476873	-0.808090
O54	O	1.853500	-0.226873	-0.558090
O55	O	2.103500	0.023127	-0.308090
O56	O	2.353500	0.273127	-0.058090
O57	O	1.981127	-0.384866	-1.041615
O58	O	2.231127	-0.134866	-0.791615
O59	O	2.481127	0.115134	-0.541615
O60	O	2.731127	0.365134	-0.291615
O61	O	1.953065	-0.631076	-0.679829
O62	O	2.203065	-0.381076	-0.429829
O63	O	2.453065	-0.131076	-0.179829
O64	O	2.703065	0.118924	0.070171
O65	O	1.809165	-0.616913	-0.823802
O66	O	2.059165	-0.366913	-0.573802
O67	O	2.309165	-0.116913	-0.323802
O68	O	2.559165	0.133087	-0.073802
C69	C	1.551480	-0.428814	-0.726623
C70	C	1.801480	-0.178814	-0.476623
C71	C	2.051480	0.071186	-0.226623
C72	C	2.301480	0.321186	0.023377
C73	C	1.410397	-0.422436	-0.715846
C74	C	1.660397	-0.172436	-0.465846
C75	C	1.910397	0.077564	-0.215846
C76	C	2.160397	0.327564	0.034154
C77	C	1.881127	-0.653250	-0.751835
C78	C	2.131127	-0.403250	-0.501835
C79	C	2.381127	-0.153250	-0.251835
C80	C	2.631127	0.096750	-0.001835
C81	C	1.881186	-0.742872	-0.751865
C82	C	2.131186	-0.492872	-0.501865
C83	C	2.381186	-0.242872	-0.251865
C84	C	2.631186	0.007128	-0.001865
C85	C	1.881237	-0.815656	-0.751894
C86	C	2.131237	-0.565656	-0.501894
C87	C	2.381237	-0.315656	-0.251894
C88	C	2.631237	-0.065656	-0.001894
C89	C	1.881313	-0.906966	-0.751927
C90	C	2.131313	-0.656966	-0.501927
C91	C	2.381313	-0.406966	-0.251927
C92	C	2.631313	-0.156966	-0.001927
C93	C	1.881381	-0.979745	-0.751948
C94	C	2.131381	-0.729745	-0.501948
C95	C	2.381381	-0.479745	-0.251948
C96	C	2.631381	-0.229745	-0.001948
C97	C	1.881455	-1.071061	-0.751980
C98	C	2.131455	-0.821061	-0.501980
C99	C	2.381455	-0.571061	-0.251980
C100	C	2.631455	-0.321061	-0.001980
C101	C	2.212344	-0.458772	-0.777247
C102	C	2.462344	-0.208772	-0.527247
C103	C	2.712344	0.041228	-0.277247
C104	C	2.962344	0.291228	-0.027247
C105	C	2.353429	-0.465168	-0.788054
C106	C	2.603429	-0.215168	-0.538054
C107	C	2.853429	0.034832	-0.288054
C108	C	3.103429	0.284832	-0.038054
C109	C	1.906777	-0.428697	-1.082969
C110	C	2.156777	-0.178697	-0.832969
C111	C	2.406777	0.071303	-0.582969
C112	C	2.656777	0.321303	-0.332969
C113	C	1.917647	-0.422277	-1.224058
C114	C	2.167647	-0.172277	-0.974058
C115	C	2.417647	0.077723	-0.724058
C116	C	2.667647	0.327723	-0.474058
C117	C	1.881446	-0.233459	-0.751966
C118	C	2.131446	0.016541	-0.501966
C119	C	2.381446	0.266541	-0.251966
C120	C	2.631446	0.516541	-0.001966
C121	C	1.881522	-0.143840	-0.752001
C122	C	2.131522	0.106160	-0.502001
C123	C	2.381522	0.356160	-0.252001
C124	C	2.631522	0.606160	-0.002001
C125	C	1.855932	-0.458716	-0.422095
C126	C	2.105932	-0.208716	-0.172095
C127	C	2.355932	0.041284	0.077905
C128	C	2.605932	0.291284	0.327905
C129	C	1.845307	-0.464921	-0.281026
C130	C	2.095307	-0.214921	-0.031026
C131	C	2.345307	0.035079	0.218974
C132	C	2.595307	0.285079	0.468974
H133	H	1.412596	-0.506632	-0.858127
H134	H	1.662596	-0.256632	-0.608127
H135	H	1.912596	-0.006632	-0.358127
H136	H	2.162596	0.243368	-0.108127
H137	H	1.775062	-0.506345	-1.221863
H138	H	2.025062	-0.256345	-0.971863
H139	H	2.275062	-0.006345	-0.721863
H140	H	2.525062	0.243655	-0.471863
Br141	Br	1.311799	-0.353315	-0.599077
Br142	Br	1.561799	-0.103315	-0.349077
Br143	Br	1.811799	0.146685	-0.099077
Br144	Br	2.061799	0.396685	0.150923
Br145	Br	2.034757	-0.353240	-1.322668
Br146	Br	2.284757	-0.103240	-1.072668
Br147	Br	2.534757	0.146760	-0.822668
Br148	Br	2.784757	0.396760	-0.572668
