data_functionalizedCrystal
_audit_creation_method	'MofGen! by Chris Wilmer'
_symmetry_space_group_name_H-M	'P1'
_symmetry_Int_Tables_number	1
_symmetry_cell_setting	triclinic
loop_
_symmetry_equiv_pos_as_xyz
  x,y,z
_cell_length_a	16.974800
_cell_length_b	10.540539
_cell_length_c	16.053802
_cell_angle_alpha	92.593658
_cell_angle_beta	91.074188
_cell_angle_gamma	83.956435
loop_
_atom_site_label
_atom_site_type_symbol
_atom_site_fract_x
_atom_site_fract_y
_atom_site_fract_z
O1	O	1.049988	0.161812	0.001547
O2	O	1.549988	0.661812	0.501547
O3	O	0.820636	0.181243	-0.013957
O4	O	1.320636	0.681243	0.486043
O5	O	0.940544	-0.013238	-0.005850
O6	O	1.440544	0.486762	0.494150
O7	O	0.930079	0.356293	-0.006560
O8	O	1.430079	0.856293	0.493440
O9	O	0.933944	-0.002577	0.132562
O10	O	1.433944	0.497423	0.632562
O11	O	0.814035	0.191904	0.124456
O12	O	1.314035	0.691904	0.624456
O13	O	1.043388	0.172472	0.139959
O14	O	1.543388	0.672472	0.639959
Zn15	Zn	0.927663	0.183881	0.154183
Zn16	Zn	1.427663	0.683881	0.654183
Zn17	Zn	0.936360	0.169835	-0.028181
Zn18	Zn	1.436360	0.669835	0.471819
O19	O	0.923479	0.366953	0.131853
O20	O	1.423479	0.866953	0.631853
C21	C	0.787967	0.185639	0.053264
C22	C	1.287967	0.685639	0.553264
C23	C	0.700459	0.182840	0.047348
C24	C	1.200459	0.682840	0.547348
C25	C	0.655754	0.187333	0.120020
C26	C	1.155754	0.687333	0.620020
C27	C	0.573532	0.184683	0.114464
C28	C	1.073532	0.684683	0.614464
C29	C	0.536016	0.177549	0.036236
C30	C	1.036016	0.677549	0.536236
C31	C	0.580727	0.173052	-0.036441
C32	C	1.080727	0.673052	0.463559
C33	C	0.662948	0.175693	-0.030884
C34	C	1.162948	0.675693	0.469116
C35	C	0.290497	0.169019	0.011526
C36	C	0.790497	0.669019	0.511526
C37	C	0.208270	0.166382	0.005975
C38	C	0.708270	0.666382	0.505975
C39	C	0.201081	0.178011	0.156881
C40	C	0.701081	0.678011	0.656881
C41	C	0.283303	0.180659	0.162431
C42	C	0.783303	0.680659	0.662431
C43	C	0.328008	0.176155	0.089754
C44	C	0.828008	0.676155	0.589754
N45	N	0.451971	0.174844	0.030555
N46	N	0.951971	0.674844	0.530555
N47	N	0.412051	0.178851	0.095436
N48	N	0.912051	0.678851	0.595436
C49	C	0.936459	-0.055202	0.063301
C50	C	1.436459	0.444798	0.563301
C51	C	0.934112	-0.196124	0.063138
C52	C	1.434112	0.303876	0.563138
C53	C	0.844154	-0.378564	0.056745
C54	C	1.344154	0.121436	0.556745
C55	C	0.846519	-0.231949	0.057218
C56	C	1.346519	0.268051	0.557218
C57	C	0.972496	-0.252167	0.145028
C58	C	1.472496	0.247833	0.645028
C59	C	0.969503	-0.398673	0.144893
C60	C	1.469503	0.101327	0.644893
C61	C	0.978791	-0.411334	-0.012388
C62	C	1.478791	0.088666	0.487612
C63	C	0.979647	-0.264442	-0.013379
C64	C	1.479647	0.235558	0.486621
C65	C	1.076056	0.168076	0.072737
C66	C	1.576056	0.668076	0.572737
C67	C	1.163565	0.170875	0.078647
C68	C	1.663565	0.670875	0.578647
C69	C	0.927564	0.408917	0.062699
C70	C	1.427564	0.908917	0.562699
C71	C	0.929912	0.549839	0.062857
C72	C	1.429912	1.049839	0.562857
N73	N	0.921734	0.193466	0.278643
N74	N	1.421734	0.693466	0.778643
N75	N	0.942295	0.160240	-0.152640
N76	N	1.442295	0.660240	0.347360
C77	C	0.972774	0.110743	0.325788
C78	C	1.472774	0.610743	0.825788
C79	C	0.968634	0.117460	0.412914
C80	C	1.468634	0.617460	0.912914
C81	C	0.913457	0.206907	0.452895
C82	C	1.413457	0.706907	0.952895
C83	C	0.862412	0.289633	0.405744
C84	C	1.362412	0.789633	0.905744
C85	C	0.866548	0.282909	0.318619
C86	C	1.366548	0.782909	0.818619
C87	C	0.895386	0.236242	0.713083
C88	C	1.395386	0.736242	1.213083
C89	C	0.891255	0.242962	0.800215
C90	C	1.391255	0.742962	1.300215
C91	C	0.997477	0.070787	0.807379
C92	C	1.497477	0.570787	1.307379
C93	C	1.001612	0.064076	0.720252
C94	C	1.501612	0.564076	1.220252
C95	C	0.950564	0.146798	0.673108
C96	C	1.450564	0.646798	1.173108
N97	N	0.909226	0.213777	0.541953
N98	N	1.409226	0.713777	1.041953
N99	N	0.954792	0.139920	0.584052
N100	N	1.454792	0.639920	1.084052
H101	H	0.313843	0.186462	0.226133
H102	H	0.813843	0.686462	0.726133
H103	H	0.550175	0.167234	-0.100136
H104	H	1.050175	0.667234	0.399864
H105	H	1.043736	-0.241305	-0.013835
H106	H	1.543736	0.258695	0.486165
N107	N	0.711170	0.170837	-0.109265
N108	N	1.211170	0.670837	0.390735
H109	H	0.674929	0.165918	-0.159666
H110	H	1.174929	0.665918	0.340334
H111	H	0.739494	0.250296	-0.110653
H112	H	1.239494	0.750296	0.389347
N113	N	0.806162	-0.180789	-0.020800
N114	N	1.306162	0.319211	0.479200
H115	H	0.786672	-0.253496	-0.055808
H116	H	1.286672	0.246504	0.444192
H117	H	0.759781	-0.116786	-0.004931
H118	H	1.259781	0.383214	0.495069
H119	H	1.017709	0.037912	0.293241
H120	H	1.517709	0.537912	0.793241
N121	N	1.057515	-0.223205	0.154670
N122	N	1.557515	0.276795	0.654670
H123	H	1.064072	-0.171058	0.208220
H124	H	1.564072	0.328942	0.708220
H125	H	1.093395	-0.305840	0.156274
H126	H	1.593395	0.194160	0.656274
H127	H	1.042083	-0.459312	-0.008643
H128	H	1.542083	0.040688	0.491357
N129	N	1.023712	0.028283	0.463766
N130	N	1.523712	0.528283	0.963766
H131	H	1.059306	-0.029380	0.425219
H132	H	1.559306	0.470620	0.925219
H133	H	1.057095	0.079872	0.502259
H134	H	1.557095	0.579872	1.002259
N135	N	0.338713	0.164184	-0.066852
N136	N	0.838713	0.664184	0.433148
H137	H	0.378936	0.086402	-0.067510
H138	H	0.878936	0.586402	0.432490
H139	H	0.302418	0.159322	-0.117211
H140	H	0.802418	0.659322	0.382789
H141	H	0.177726	0.160576	-0.057731
H142	H	0.677726	0.660576	0.442269
H143	H	1.046542	-0.008758	0.687702
H144	H	1.546542	0.491242	1.187702
N145	N	0.831732	0.339442	0.843328
N146	N	1.331732	0.839442	1.343328
H147	H	0.794853	0.293571	0.877116
H148	H	1.294853	0.793571	1.377116
H149	H	0.860503	0.398549	0.881473
H150	H	1.360503	0.898549	1.381473
N151	N	1.052533	-0.018430	0.858226
N152	N	1.552533	0.481570	1.358226
H153	H	1.041542	-0.000603	0.919486
H154	H	1.541542	0.499397	1.419486
H155	H	1.043647	-0.109696	0.842356
H156	H	1.543647	0.390304	1.342356
N157	N	0.945024	-0.458812	-0.094282
N158	N	1.445024	0.041188	0.405718
H159	H	0.977265	-0.432851	-0.141708
H160	H	1.477265	0.067149	0.358292
H161	H	0.946899	-0.554952	-0.095189
H162	H	1.446899	-0.054952	0.404811
N163	N	0.930009	-0.189295	0.220325
N164	N	1.430009	0.310705	0.720325
H165	H	0.885896	-0.124513	0.201572
H166	H	1.385896	0.375487	0.701572
H167	H	0.907080	-0.256283	0.252765
H168	H	1.407080	0.243717	0.752765
H169	H	0.853822	0.303599	0.674706
H170	H	1.353822	0.803599	1.174706
N171	N	0.794946	-0.412294	0.128323
N172	N	1.294946	0.087706	0.628323
H173	H	0.739951	-0.365902	0.123929
H174	H	1.239951	0.134098	0.623929
H175	H	0.791467	-0.507455	0.126093
H176	H	1.291467	-0.007455	0.626093
H177	H	0.817481	0.362458	0.438301
H178	H	1.317481	0.862458	0.938301
H179	H	0.824985	0.350269	0.280234
H180	H	1.324985	0.850269	0.780234
H181	H	0.686293	0.193153	0.183722
H182	H	1.186293	0.693153	0.683722
H183	H	0.164674	0.181675	0.216050
H184	H	0.664674	0.681675	0.716050
N185	N	0.801889	-0.421713	-0.021427
N186	N	1.301889	0.078287	0.478573
H187	H	0.832590	-0.402902	-0.071919
H188	H	1.332590	0.097098	0.428081
H189	H	0.797787	-0.516536	-0.020531
H190	H	1.297787	-0.016536	0.479469
N191	N	0.525312	0.189524	0.192843
N192	N	1.025312	0.689524	0.692843
H193	H	0.561618	0.193551	0.243248
H194	H	1.061618	0.693551	0.743248
H195	H	0.485460	0.267779	0.193700
H196	H	0.985460	0.767779	0.693700
H197	H	0.810412	-0.185446	0.111714
H198	H	1.310412	0.314554	0.611714
H199	H	0.935532	-0.421972	0.201871
H200	H	1.435532	0.078028	0.701871
H201	H	1.032328	-0.447073	0.152737
H202	H	1.532328	0.052927	0.652737
N203	N	0.942539	-0.215746	-0.093596
N204	N	1.442539	0.284254	0.406404
H205	H	0.896426	-0.149703	-0.080437
H206	H	1.396426	0.350297	0.419563
H207	H	0.983256	-0.175869	-0.126033
H208	H	1.483256	0.324131	0.373967
