data_functionalizedCrystal
_audit_creation_method	'MofGen! by Chris Wilmer'
_symmetry_space_group_name_H-M	'P1'
_symmetry_Int_Tables_number	1
_symmetry_cell_setting	triclinic
loop_
_symmetry_equiv_pos_as_xyz
  x,y,z
_cell_length_a	10.489741
_cell_length_b	10.489716
_cell_length_c	10.868271
_cell_angle_alpha	89.998908
_cell_angle_beta	89.998385
_cell_angle_gamma	84.534155
loop_
_atom_site_label
_atom_site_type_symbol
_atom_site_fract_x
_atom_site_fract_y
_atom_site_fract_z
O1	O	1.694037	0.179971	-0.102234
O2	O	1.322840	0.196864	-0.102252
O3	O	1.516902	0.002817	-0.102247
O4	O	1.499976	0.374017	-0.102239
O5	O	1.516885	0.002810	0.102398
O6	O	1.322824	0.196856	0.102393
O7	O	1.694021	0.179963	0.102411
Zn8	Zn	1.508420	0.188408	0.134893
Zn9	Zn	1.508441	0.188418	-0.134735
O10	O	1.499960	0.374009	0.102406
C11	C	1.275301	0.195584	0.000068
C12	C	1.133672	0.191767	0.000060
C13	C	1.065542	0.068301	0.000069
C14	C	0.973418	0.126629	-0.100827
C15	C	0.973436	0.126650	0.100936
C16	C	1.043413	0.250145	-0.100920
C17	C	1.043441	0.250150	0.100935
C18	C	0.951344	0.308568	0.000013
C19	C	1.515622	-0.044719	0.000071
C20	C	1.511817	-0.186350	0.000060
C21	C	1.630822	-0.284024	0.000077
C22	C	1.567945	-0.361381	-0.100823
C23	C	1.567901	-0.361352	0.100940
C24	C	1.448990	-0.261841	-0.100924
C25	C	1.448964	-0.261807	0.100931
C26	C	1.386000	-0.339115	0.000006
C27	C	1.741561	0.181243	0.000088
C28	C	1.883190	0.185060	0.000087
C29	C	1.501240	0.421545	0.000084
C30	C	1.505044	0.563176	0.000088
N31	N	1.508415	0.188401	0.318907
N32	N	1.508457	0.188416	-0.318749
C33	C	1.508435	0.188416	0.569913
C34	C	1.508420	0.188411	0.430236
H35	H	0.901911	0.410172	-0.000039
H36	H	0.942415	0.074391	-0.186132
H37	H	0.942456	0.074384	0.186237
C38	C	1.277580	-0.116965	0.180352
C39	C	1.381194	-0.203055	0.216085
H40	H	1.235745	-0.080702	0.251452
H41	H	1.307732	-0.050850	0.131719
H42	H	1.218982	-0.160968	0.133667
H43	H	1.439796	-0.159050	0.262762
H44	H	1.351043	-0.269181	0.264738
H45	H	1.115241	-0.033196	-0.000059
C46	C	1.218198	0.323495	-0.215207
C47	C	1.085022	0.320608	-0.216211
H48	H	1.243885	0.366986	-0.286387
H49	H	1.242716	0.367060	-0.143653
H50	H	1.258310	0.238394	-0.214920
H51	H	1.044909	0.405710	-0.216489
H52	H	1.060491	0.277046	-0.287784
H53	H	1.734335	-0.259347	-0.000020
H54	H	1.618188	-0.404872	-0.186124
C55	C	1.050418	0.255769	0.321659
C56	C	1.085359	0.320607	0.216094
H57	H	1.076309	0.299256	0.392759
H58	H	0.960163	0.253183	0.322902
H59	H	1.091106	0.170900	0.320916
H60	H	1.044663	0.405474	0.216832
H61	H	1.175632	0.323207	0.214852
H62	H	1.398788	-0.218534	-0.186322
C63	C	1.184161	-0.321401	-0.105807
C64	C	1.246161	-0.372111	-0.000070
H65	H	1.097835	-0.341781	-0.105859
H66	H	1.185862	-0.231034	-0.106481
H67	H	1.226731	-0.357017	-0.176794
H68	H	1.203596	-0.336488	0.070917
H69	H	1.244452	-0.462496	0.000616
H70	H	1.618156	-0.404828	0.186242
