data_functionalizedCrystal
_audit_creation_method	'MofGen! by Chris Wilmer'
_symmetry_space_group_name_H-M	'P1'
_symmetry_Int_Tables_number	1
_symmetry_cell_setting	triclinic
loop_
_symmetry_equiv_pos_as_xyz
  x,y,z
_cell_length_a	18.101398
_cell_length_b	18.101395
_cell_length_c	18.101389
_cell_angle_alpha	89.983159
_cell_angle_beta	89.975673
_cell_angle_gamma	90.026371
loop_
_atom_site_label
_atom_site_type_symbol
_atom_site_fract_x
_atom_site_fract_y
_atom_site_fract_z
Zn1	Zn	1.132121	-0.295001	-0.418847
Zn2	Zn	1.132017	-0.418826	-0.295009
Zn3	Zn	1.008280	-0.294993	-0.295008
Zn4	Zn	1.008231	-0.418795	-0.418797
O5	O	1.070162	-0.356904	-0.356915
O6	O	1.235740	-0.311443	-0.402440
O7	O	1.115580	-0.402410	-0.191376
O8	O	1.024772	-0.191361	-0.311456
O9	O	1.235664	-0.402417	-0.311457
O10	O	1.115757	-0.191367	-0.402440
O11	O	1.024671	-0.311430	-0.191375
O12	O	0.904641	-0.311399	-0.311408
O13	O	1.024688	-0.402363	-0.522437
O14	O	0.904604	-0.402356	-0.402355
O15	O	1.115710	-0.311412	-0.522473
O16	O	1.115532	-0.522455	-0.311409
O17	O	1.024587	-0.522432	-0.402356
C18	C	0.877752	-0.356874	-0.356877
C19	C	0.795437	-0.356879	-0.356878
C20	C	0.496347	-0.356925	-0.356940
C21	C	0.527670	-0.299412	-0.299997
C22	C	0.613288	-0.299566	-0.299754
C23	C	0.644729	-0.356901	-0.356909
C24	C	0.613611	-0.434909	-0.335587
C25	C	0.527966	-0.434590	-0.335191
C26	C	0.527961	-0.337109	-0.435339
C27	C	0.613612	-0.335371	-0.434911
C28	C	0.728589	-0.356893	-0.356893
C29	C	0.412487	-0.356939	-0.356954
C30	C	1.070063	-0.549314	-0.356893
C31	C	1.070088	-0.631628	-0.356909
C32	C	1.070251	-0.930719	-0.356949
C33	C	1.013163	-0.899410	-0.414312
C34	C	1.012892	-0.813792	-0.414133
C35	C	1.070170	-0.782337	-0.356930
C36	C	1.049041	-0.813472	-0.278878
C37	C	1.048673	-0.899117	-0.279221
C38	C	1.148593	-0.899073	-0.376950
C39	C	1.148132	-0.813422	-0.378661
C40	C	1.070126	-0.698477	-0.356914
C41	C	1.070293	-1.014579	-0.356959
C42	C	1.263324	-0.356934	-0.356954
C43	C	1.345638	-0.356948	-0.356971
C44	C	1.070205	-0.356885	-0.550077
C45	C	1.070223	-0.356877	-0.632391
C46	C	1.070282	-0.163742	-0.356953
C47	C	1.070333	-0.081428	-0.356970
C48	C	1.070266	-0.356738	-0.931482
C49	C	1.012801	-0.413780	-0.900134
C50	C	1.012956	-0.414045	-0.814516
C51	C	1.070244	-0.356807	-0.783100
C52	C	1.148270	-0.377998	-0.814206
C53	C	1.147949	-0.378372	-0.899851
C54	C	1.050385	-0.278379	-0.899905
C55	C	1.048649	-0.278832	-0.814254
C56	C	1.070237	-0.356845	-0.699240
C57	C	1.070279	-0.356702	-1.015342
C58	C	1.070162	-0.356869	-0.164505
C59	C	1.070287	-0.356668	-0.082191
H60	H	0.635026	-0.452008	-0.278892
H61	H	1.167856	-0.920633	-0.432895
C62	C	0.499862	-0.221029	-0.317833
H63	H	0.468897	-0.222674	-0.360164
H64	H	0.540844	-0.189636	-0.327351
H65	H	0.472665	-0.202425	-0.276984
C66	C	0.498564	-0.316904	-0.221974
H67	H	0.467408	-0.359107	-0.223950
H68	H	0.471316	-0.275887	-0.203861
H69	H	0.539020	-0.326529	-0.189977
H70	H	1.192217	-0.338629	-0.920590
C71	C	0.500595	-0.393693	-0.492657
H72	H	0.470050	-0.429224	-0.468965
H73	H	0.541778	-0.417786	-0.514497
H74	H	0.473055	-0.368978	-0.529861
H75	H	1.026082	-0.472127	-0.794035
H76	H	1.164065	-0.793071	-0.436103
C77	C	0.935193	-0.928560	-0.396649
H78	H	0.901044	-0.909384	-0.431570
H79	H	0.921307	-0.913303	-0.348396
H80	H	0.935126	-0.980984	-0.399098
H81	H	1.025796	-0.471508	-0.921661
C82	C	0.971081	-0.257237	-0.786792
H83	H	0.958330	-0.210020	-0.805828
H84	H	0.970902	-0.255596	-0.734340
H85	H	0.936151	-0.292772	-0.803279
C86	C	1.170710	-0.455754	-0.926853
H87	H	1.180061	-0.486666	-0.885480
H88	H	1.214139	-0.451997	-0.956095
H89	H	1.131960	-0.476345	-0.955632
C90	C	0.974858	-0.252297	-0.929055
H91	H	0.963915	-0.204913	-0.909339
H92	H	0.937718	-0.286369	-0.914374
H93	H	0.976353	-0.249510	-0.981444
H94	H	0.991406	-0.919153	-0.262279
H95	H	0.633741	-0.312665	-0.241661
C96	C	0.500927	-0.457286	-0.257766
H97	H	0.542286	-0.466611	-0.226849
H98	H	0.471686	-0.500718	-0.261445
H99	H	0.472140	-0.418518	-0.237229
C100	C	0.642521	-0.387835	-0.495302
H101	H	0.622848	-0.373527	-0.541801
H102	H	0.627637	-0.436966	-0.484362
H103	H	0.694920	-0.385371	-0.497006
C104	C	1.207668	-0.323644	-0.786716
H105	H	1.185357	-0.287460	-0.755948
H106	H	1.230277	-0.300119	-0.827841
H107	H	1.244011	-0.349822	-0.759385
C108	C	1.208631	-0.784507	-0.326327
H109	H	1.187038	-0.752961	-0.290376
H110	H	1.244345	-0.757714	-0.353945
H111	H	1.231823	-0.825018	-0.302355
H112	H	0.506389	-0.281216	-0.454725
C113	C	1.171433	-0.454560	-0.785252
H114	H	1.133664	-0.473713	-0.754216
H115	H	1.215997	-0.450160	-0.757908
H116	H	1.178911	-0.487048	-0.825777
H117	H	0.634329	-0.241719	-0.313119
C118	C	1.103437	-0.785945	-0.219561
H119	H	1.139601	-0.755143	-0.241923
H120	H	1.126982	-0.827054	-0.197002
H121	H	1.077284	-0.758641	-0.183168
H122	H	1.191125	-0.919319	-0.335170
C123	C	1.102392	-0.927103	-0.219505
H124	H	1.124339	-0.886127	-0.195140
H125	H	1.139844	-0.956221	-0.241929
H126	H	1.076122	-0.956215	-0.184593
H127	H	0.992380	-0.792080	-0.261633
C128	C	0.934451	-0.786187	-0.396224
H129	H	0.902628	-0.827316	-0.389024
H130	H	0.916660	-0.757044	-0.436071
H131	H	0.935670	-0.757179	-0.352513
C132	C	0.934798	-0.396121	-0.786098
H133	H	0.902664	-0.388617	-0.826897
H134	H	0.936386	-0.352592	-0.756841
H135	H	0.917117	-0.436108	-0.757035
C136	C	0.934400	-0.396049	-0.927935
H137	H	0.936008	-0.353703	-0.958914
H138	H	0.903014	-0.386591	-0.886947
H139	H	0.915814	-0.436913	-0.955113
H140	H	1.087450	-0.234076	-0.792868
H141	H	0.507244	-0.478892	-0.374857
H142	H	1.092240	-0.235880	-0.920179
C143	C	0.641125	-0.494353	-0.389853
H144	H	0.671911	-0.472072	-0.426079
H145	H	0.600010	-0.516982	-0.413331
H146	H	0.668443	-0.530673	-0.363623
H147	H	0.633956	-0.277966	-0.450989
H148	H	1.026111	-0.792740	-0.472007
H149	H	1.026252	-0.919970	-0.472374
