data_functionalizedCrystal
_audit_creation_method	'MofGen! by Chris Wilmer'
_symmetry_space_group_name_H-M	'P1'
_symmetry_Int_Tables_number	1
_symmetry_cell_setting	triclinic
loop_
_symmetry_equiv_pos_as_xyz
  x,y,z
_cell_length_a	19.077236
_cell_length_b	16.959447
_cell_length_c	19.077068
_cell_angle_alpha	92.264979
_cell_angle_beta	94.708605
_cell_angle_gamma	87.680436
loop_
_atom_site_label
_atom_site_type_symbol
_atom_site_fract_x
_atom_site_fract_y
_atom_site_fract_z
Zn1	Zn	1.066448	-0.505826	-0.237430
Zn2	Zn	1.061621	-0.378739	-0.355331
Zn3	Zn	0.948559	-0.368547	-0.242185
Zn4	Zn	0.943784	-0.505760	-0.360009
O5	O	1.005103	-0.439718	-0.298739
O6	O	1.164460	-0.493260	-0.249122
O7	O	1.046602	-0.266776	-0.340354
O8	O	0.968216	-0.382519	-0.142902
O9	O	1.160914	-0.399890	-0.335744
O10	O	1.054828	-0.483377	-0.139409
O11	O	0.963536	-0.259288	-0.257226
O12	O	0.849274	-0.382455	-0.261762
O13	O	0.960077	-0.616379	-0.343716
O14	O	0.845766	-0.483265	-0.348327
O15	O	1.050198	-0.616427	-0.253658
O16	O	1.041972	-0.399826	-0.454604
O17	O	0.955397	-0.493148	-0.458041
C18	C	0.821940	-0.431747	-0.306069
C19	C	0.743582	-0.428357	-0.309222
C20	C	0.708613	-0.475457	-0.265675
C21	C	0.634987	-0.472265	-0.268634
C22	C	0.596331	-0.421976	-0.315144
C23	C	0.631305	-0.374870	-0.358692
C24	C	0.704930	-0.378059	-0.355729
C25	C	0.375938	-0.407213	-0.328830
C26	C	0.302308	-0.404029	-0.331792
C27	C	0.305995	-0.501423	-0.241732
C28	C	0.379621	-0.504611	-0.238777
C29	C	0.414589	-0.457503	-0.282322
N30	N	0.521073	-0.418713	-0.318171
N31	N	0.489846	-0.460762	-0.279291
C32	C	1.005143	-0.645885	-0.298679
C33	C	1.005160	-0.733741	-0.298653
C34	C	0.961977	-1.101324	-0.255295
C35	C	1.048474	-1.109109	-0.341857
C36	C	1.048461	-1.026564	-0.341874
C37	C	1.005205	-0.981394	-0.298602
C38	C	0.961961	-1.018771	-0.255312
C39	C	1.091699	-0.989181	-0.385168
C40	C	1.091687	-0.906630	-0.385187
C41	C	1.048434	-0.861459	-0.341911
C42	C	1.005189	-0.898841	-0.298619
C43	C	0.961932	-0.853671	-0.255346
C44	C	0.918691	-0.891051	-0.212050
C45	C	0.918708	-0.973600	-0.212036
C46	C	1.048417	-0.778911	-0.341925
C47	C	0.961917	-0.771118	-0.255364
C48	C	1.188981	-0.447720	-0.291381
C49	C	1.267339	-0.451130	-0.288245
C50	C	0.997662	-0.447604	-0.481901
C51	C	0.994543	-0.451007	-0.560256
C52	C	1.005106	-0.234352	-0.298746
C53	C	1.005233	-0.146493	-0.298568
C54	C	1.038187	-0.404062	-0.595253
C55	C	1.035257	-0.407268	-0.668875
C56	C	0.988680	-0.457415	-0.707500
C57	C	0.945033	-0.504366	-0.672498
C58	C	0.947967	-0.501164	-0.598876
C59	C	0.975072	-0.472201	-0.927879
C60	C	0.972141	-0.475398	-1.001506
C61	C	1.062366	-0.378300	-0.997879
C62	C	1.065292	-0.375099	-0.924256
C63	C	1.021649	-0.422053	-0.889260
N64	N	0.985683	-0.460691	-0.782754
N65	N	1.024650	-0.418781	-0.814007
C66	C	1.012593	-0.431819	-0.114861
C67	C	1.015785	-0.428452	-0.036503
H68	H	0.277516	-0.539775	-0.206279
H69	H	1.083686	-1.145891	-0.377093
H70	H	0.883468	-0.854264	-0.176821
Cl71	Cl	0.757202	-0.538685	-0.207206
H72	H	1.103219	-0.334265	-0.892809
Cl73	Cl	1.117233	-0.319282	-1.041877
H74	H	0.270836	-0.363078	-0.369669
Cl75	Cl	0.864349	-1.020596	-0.157615
Cl76	Cl	0.920204	-0.531227	-0.883894
H77	H	1.126908	-1.025964	-0.420407
H78	H	1.076112	-0.363223	-0.563810
Cl79	Cl	0.913572	-0.538434	-1.050062
H80	H	0.404400	-0.368855	-0.364289
H81	H	0.926773	-1.131762	-0.220043
Cl82	Cl	1.102768	-0.731922	-0.396355
Cl83	Cl	0.582709	-0.311644	-0.417158
Cl84	Cl	1.090130	-0.348250	-0.712869
H85	H	0.907112	-0.545200	-0.703951
H86	H	0.411090	-0.545565	-0.200906
H87	H	0.606518	-0.510620	-0.233175
Cl88	Cl	0.748891	-0.318845	-0.410476
Cl89	Cl	0.907538	-0.714340	-0.200956
Cl90	Cl	1.146051	-0.859646	-0.439612
Cl91	Cl	0.893100	-0.560186	-0.554879
