data_functionalizedCrystal
_audit_creation_method	'MofGen! by Chris Wilmer'
_symmetry_space_group_name_H-M	'P1'
_symmetry_Int_Tables_number	1
_symmetry_cell_setting	triclinic
loop_
_symmetry_equiv_pos_as_xyz
  x,y,z
_cell_length_a	12.811439
_cell_length_b	12.996460
_cell_length_c	12.837942
_cell_angle_alpha	90.005421
_cell_angle_beta	90.588939
_cell_angle_gamma	95.425732
loop_
_atom_site_label
_atom_site_type_symbol
_atom_site_fract_x
_atom_site_fract_y
_atom_site_fract_z
O1	O	-1.406628	-0.045679	0.139651
O2	O	-1.073294	0.287655	0.472984
O3	O	-0.739961	0.620988	0.806318
O4	O	-1.102567	-0.017306	0.154847
O5	O	-0.769233	0.316027	0.488181
O6	O	-0.435900	0.649360	0.821514
O7	O	-1.247855	-0.030870	-0.003682
O8	O	-0.914522	0.302464	0.329651
O9	O	-0.581188	0.635797	0.662984
O10	O	-1.261339	-0.032115	0.298181
O11	O	-0.928006	0.301218	0.631514
O12	O	-0.594673	0.634551	0.964848
O13	O	-1.247837	-0.202002	-0.003691
O14	O	-0.914504	0.131332	0.329642
O15	O	-0.581171	0.464665	0.662975
O16	O	-1.102549	-0.188438	0.154839
O17	O	-0.769216	0.144895	0.488172
O18	O	-0.435882	0.478228	0.821505
O19	O	-1.406610	-0.216811	0.139642
O20	O	-1.073277	0.116523	0.472975
O21	O	-0.739943	0.449856	0.806309
Cu22	Cu	-1.254578	-0.218250	0.147240
Cu23	Cu	-0.921245	0.115083	0.480573
Cu24	Cu	-0.587911	0.448416	0.813906
Cu25	Cu	-1.254599	-0.015867	0.147250
Cu26	Cu	-0.921265	0.317467	0.480583
Cu27	Cu	-0.587932	0.650800	0.813917
O28	O	-1.261322	-0.203247	0.298172
O29	O	-0.927988	0.130086	0.631505
O30	O	-0.594655	0.463419	0.964839
C31	C	-1.063369	-0.099216	0.153993
C32	C	-0.730036	0.234118	0.487326
C33	C	-0.396702	0.567451	0.820660
C34	C	-0.946598	-0.088320	0.151447
C35	C	-0.613265	0.245014	0.484781
C36	C	-0.279931	0.578347	0.818114
C37	C	-0.727152	-0.254434	0.146634
C38	C	-0.393819	0.078899	0.479968
C39	C	-0.060486	0.412233	0.813301
C40	C	-0.617435	-0.244202	0.144242
C41	C	-0.284102	0.089132	0.477575
C42	C	0.049231	0.422465	0.810909
C43	C	-0.617446	-0.057623	0.144263
C44	C	-0.284112	0.275710	0.477596
C45	C	0.049221	0.609044	0.810929
C46	C	-0.727162	-0.067856	0.146655
C47	C	-0.393829	0.265478	0.479988
C48	C	-0.060496	0.598811	0.813322
C49	C	-0.782012	-0.166264	0.147842
C50	C	-0.448679	0.167069	0.481176
C51	C	-0.115345	0.500402	0.814509
C52	C	-0.891731	-0.176496	0.150242
C53	C	-0.558397	0.156837	0.483575
C54	C	-0.225064	0.490171	0.816909
C55	C	-0.891739	0.010082	0.150255
C56	C	-0.558406	0.343415	0.483589
C57	C	-0.225072	0.676748	0.816922
C58	C	-0.782022	0.020314	0.147863
C59	C	-0.448689	0.353648	0.481197
C60	C	-0.115355	0.686981	0.814530
N61	N	-1.254571	-0.360597	0.147232
N62	N	-0.921237	-0.027263	0.480565
N63	N	-0.587904	0.306070	0.813898
C64	C	-1.254597	-0.780413	0.147251
C65	C	-0.921264	-0.447080	0.480584
C66	C	-0.587931	-0.113747	0.813918
C67	C	-1.254587	-0.663607	0.147249
C68	C	-0.921254	-0.330274	0.480582
C69	C	-0.587921	0.003059	0.813916
C70	C	-1.254585	-0.570509	0.147242
C71	C	-0.921251	-0.237176	0.480575
C72	C	-0.587918	0.096158	0.813909
C73	C	-1.254573	-0.453695	0.147239
C74	C	-0.921240	-0.120362	0.480572
C75	C	-0.587907	0.212971	0.813905
C76	C	-0.445807	-0.134902	0.140501
C77	C	-0.112474	0.198431	0.473834
C78	C	0.220859	0.531765	0.807167
C79	C	-0.562578	-0.145799	0.143058
C80	C	-0.229245	0.187534	0.476391
C81	C	0.104089	0.520867	0.809724
C82	C	-1.243291	-0.116010	-0.042327
C83	C	-0.909958	0.217323	0.291006
C84	C	-0.576624	0.550657	0.624340
C85	C	-1.229705	-0.114741	-0.157462
C86	C	-0.896372	0.218593	0.175871
C87	C	-0.563038	0.551926	0.509204
N88	N	-1.254613	0.126479	0.147250
N89	N	-0.921280	0.459812	0.480583
N90	N	-0.587947	0.793146	0.813917
C91	C	-1.393032	-0.129959	-0.397720
C92	C	-1.059699	0.203374	-0.064387
C93	C	-0.726366	0.536707	0.268946
C94	C	-1.380272	-0.128767	-0.505901
C95	C	-1.046939	0.204566	-0.172568
C96	C	-0.713605	0.537900	0.160766
C97	C	-1.191425	-0.111156	-0.482006
C98	C	-0.858092	0.222177	-0.148673
C99	C	-0.524758	0.555511	0.184661
C100	C	-1.204185	-0.112349	-0.373826
C101	C	-0.870852	0.220985	-0.040492
C102	C	-0.537519	0.554318	0.292841
C103	C	-1.304992	-0.121752	-0.331687
C104	C	-0.971659	0.211581	0.001646
C105	C	-0.638326	0.544915	0.334980
C106	C	-1.317752	-0.122952	-0.223504
C107	C	-0.984418	0.210382	0.109829
C108	C	-0.651085	0.543715	0.443162
C109	C	-1.128905	-0.105334	-0.199612
C110	C	-0.795572	0.228000	0.133722
C111	C	-0.462239	0.561333	0.467055
C112	C	-1.116145	-0.104141	-0.307792
C113	C	-0.782812	0.229192	0.025541
C114	C	-0.449478	0.562526	0.358875
C115	C	-1.265886	-0.118105	0.336817
C116	C	-0.932552	0.215229	0.670150
C117	C	-0.599219	0.548562	1.003483
C118	C	-1.279472	-0.119367	0.451952
C119	C	-0.946138	0.213966	0.785285
C120	C	-0.612805	0.547299	1.118619
H121	H	-0.572773	-0.315999	0.143264
H122	H	-0.239439	0.017335	0.476597
H123	H	0.093894	0.350668	0.809930
F124	F	-1.084148	-0.101124	-0.526871
F125	F	-0.750814	0.232210	-0.193538
F126	F	-0.417481	0.565543	0.139795
F127	F	-1.425038	-0.132966	-0.178659
F128	F	-1.091704	0.200367	0.154675
F129	F	-0.758371	0.533700	0.488008
H130	H	-0.936417	0.081876	0.151245
H131	H	-0.603084	0.415209	0.484579
H132	H	-0.269750	0.748543	0.817912
F133	F	-0.950104	-0.281230	0.151509
F134	F	-0.616771	0.052104	0.484843
F135	F	-0.283437	0.385437	0.818176
F136	F	-0.559056	0.047102	0.142920
F137	F	-0.225723	0.380435	0.476253
F138	F	0.107611	0.713768	0.809586
H139	H	-1.475113	-0.137626	-0.363411
H140	H	-1.141780	0.195707	-0.030078
H141	H	-0.808447	0.529040	0.303256
F142	F	-1.473977	-0.137500	-0.576176
F143	F	-1.140644	0.195834	-0.242842
F144	F	-0.807310	0.529167	0.090491
F145	F	-0.785529	-0.359166	0.147910
F146	F	-0.452196	-0.025833	0.481244
F147	F	-0.118862	0.307501	0.814577
H148	H	-0.737349	0.100436	0.146892
H149	H	-0.404016	0.433769	0.480225
H150	H	-0.070682	0.767102	0.813558
H151	H	-1.034071	-0.096481	-0.342117
H152	H	-0.700737	0.236852	-0.008783
H153	H	-0.367404	0.570186	0.324550
H154	H	-1.057217	-0.098659	-0.145835
H155	H	-0.723883	0.234675	0.187499
H156	H	-0.390550	0.568008	0.520832
