data_functionalizedCrystal
_audit_creation_method	'MofGen! by Chris Wilmer'
_symmetry_space_group_name_H-M	'P1'
_symmetry_Int_Tables_number	1
_symmetry_cell_setting	triclinic
loop_
_symmetry_equiv_pos_as_xyz
  x,y,z
_cell_length_a	29.839131
_cell_length_b	29.839134
_cell_length_c	18.101390
_cell_angle_alpha	90.030791
_cell_angle_beta	89.964218
_cell_angle_gamma	89.963233
loop_
_atom_site_label
_atom_site_type_symbol
_atom_site_fract_x
_atom_site_fract_y
_atom_site_fract_z
Zn1	Zn	-0.178892	-0.686751	-0.418945
Zn2	Zn	0.154441	-0.353418	-0.085611
Zn3	Zn	0.487775	-0.020084	0.247722
Zn4	Zn	-0.254028	-0.686674	-0.295097
Zn5	Zn	0.079306	-0.353341	0.038236
Zn6	Zn	0.412639	-0.020007	0.371570
Zn7	Zn	-0.178906	-0.611625	-0.295093
Zn8	Zn	0.154427	-0.278291	0.038241
Zn9	Zn	0.487760	0.055042	0.371574
Zn10	Zn	-0.253989	-0.611582	-0.418872
Zn11	Zn	0.079344	-0.278248	-0.085539
Zn12	Zn	0.412677	0.055085	0.247794
O13	O	-0.216454	-0.649158	-0.357002
O14	O	0.116880	-0.315825	-0.023668
O15	O	0.450213	0.017509	0.309665
O16	O	-0.188869	-0.749608	-0.402548
O17	O	0.144465	-0.416275	-0.069215
O18	O	0.477798	-0.082941	0.264119
O19	O	-0.244085	-0.676704	-0.191463
O20	O	0.089249	-0.343371	0.141870
O21	O	0.422582	-0.010038	0.475203
O22	O	-0.116037	-0.621641	-0.311550
O23	O	0.217296	-0.288307	0.021783
O24	O	0.550629	0.045026	0.355116
O25	O	-0.244071	-0.749551	-0.311558
O26	O	0.089263	-0.416218	0.021776
O27	O	0.422596	-0.082885	0.355109
O28	O	-0.116027	-0.676836	-0.402544
O29	O	0.217307	-0.343502	-0.069211
O30	O	0.550640	-0.010169	0.264123
O31	O	-0.188893	-0.621566	-0.191460
O32	O	0.144440	-0.288232	0.141873
O33	O	0.477773	0.045101	0.475206
O34	O	-0.188856	-0.548752	-0.311480
O35	O	0.144477	-0.215418	0.021853
O36	O	0.477810	0.117915	0.355187
O37	O	-0.244006	-0.621567	-0.522515
O38	O	0.089328	-0.288234	-0.189182
O39	O	0.422661	0.045099	0.144152
O40	O	-0.244020	-0.548720	-0.402421
O41	O	0.089314	-0.215387	-0.069087
O42	O	0.422647	0.117946	0.264246
O43	O	-0.188832	-0.676794	-0.522568
O44	O	0.144502	-0.343461	-0.189235
O45	O	0.477835	-0.010127	0.144099
O46	O	-0.316890	-0.676663	-0.311487
O47	O	0.016444	-0.343329	0.021846
O48	O	0.349777	-0.009996	0.355179
O49	O	-0.316862	-0.621493	-0.402425
O50	O	0.016472	-0.288159	-0.069091
O51	O	0.349805	0.045174	0.264242
C52	C	-0.216436	-0.532435	-0.356942
C53	C	0.116898	-0.199102	-0.023609
C54	C	0.450231	0.134231	0.309724
C55	C	-0.216439	-0.482501	-0.356935
C56	C	0.116894	-0.149168	-0.023601
C57	C	0.450228	0.184166	0.309732
C58	C	-0.245224	-0.172851	-0.404273
C59	C	0.088109	0.160483	-0.070940
C60	C	0.421443	0.493816	0.262394
C61	C	-0.245238	0.014823	-0.404297
C62	C	0.088095	0.348156	-0.070963
C63	C	0.421429	0.681489	0.262370
O64	O	-0.269689	0.039093	-0.444525
O65	O	0.063644	0.372427	-0.111192
O66	O	0.396978	0.705760	0.222141
N67	N	-0.216476	0.038284	-0.357024
N68	N	0.116857	0.371618	-0.023690
N69	N	0.450191	0.704951	0.309643
C70	C	-0.187706	0.014825	-0.309745
C71	C	0.145627	0.348158	0.023589
C72	C	0.478960	0.681491	0.356922
O73	O	-0.163240	0.039087	-0.269542
O74	O	0.170094	0.372420	0.063791
O75	O	0.503427	0.705753	0.397124
C76	C	-0.187690	-0.172847	-0.309725
C77	C	0.145643	0.160486	0.023608
C78	C	0.478976	0.493819	0.356941
C79	C	-0.216457	-0.196307	-0.356996
C80	C	0.116876	0.137027	-0.023663
C81	C	0.450209	0.470360	0.309671
C82	C	-0.273988	-0.196310	-0.451540
C83	C	0.059345	0.137024	-0.118207
C84	C	0.392678	0.470357	0.215126
C85	C	-0.273986	-0.243225	-0.451531
C86	C	0.059347	0.090108	-0.118198
C87	C	0.392681	0.423441	0.215136
C88	C	-0.245220	-0.266681	-0.404254
C89	C	0.088114	0.066652	-0.070921
C90	C	0.421447	0.399985	0.262412
C91	C	-0.216455	-0.243222	-0.356987
C92	C	0.116878	0.090111	-0.023654
C93	C	0.450211	0.423445	0.309680
C94	C	-0.158919	-0.196306	-0.262451
C95	C	0.174415	0.137027	0.070882
C96	C	0.507748	0.470361	0.404216
C97	C	-0.158916	-0.243227	-0.262452
C98	C	0.174417	0.090106	0.070882
C99	C	0.507750	0.423440	0.404215
C100	C	-0.187683	-0.266686	-0.309722
C101	C	0.145650	0.066647	0.023611
C102	C	0.478983	0.399980	0.356944
C103	C	-0.187687	-0.313594	-0.309701
C104	C	0.145647	0.019740	0.023632
C105	C	0.478980	0.353073	0.356966
N106	N	-0.216449	-0.337055	-0.356974
N107	N	0.116885	-0.003722	-0.023640
N108	N	0.450218	0.329611	0.309693
C109	C	-0.245215	-0.313599	-0.404251
C110	C	0.088118	0.019734	-0.070917
C111	C	0.421452	0.353067	0.262416
C112	C	-0.187718	0.113355	-0.309757
C113	C	0.145616	0.446689	0.023576
C114	C	0.478949	0.780022	0.356909
C115	C	-0.187722	0.160273	-0.309761
C116	C	0.145611	0.493607	0.023572
C117	C	0.478945	0.826940	0.356906
C118	C	-0.245253	0.160268	-0.404314
C119	C	0.088080	0.493601	-0.070981
C120	C	0.421413	0.826934	0.262353
C121	C	-0.245251	0.113349	-0.404306
C122	C	0.088083	0.446682	-0.070973
C123	C	0.421416	0.780016	0.262361
C124	C	-0.216480	0.089894	-0.357030
C125	C	0.116854	0.423227	-0.023697
C126	C	0.450187	0.756560	0.309636
C127	C	-0.245209	-0.412125	-0.404227
C128	C	0.088125	-0.078792	-0.070894
C129	C	0.421458	0.254542	0.262440
C130	C	-0.245205	-0.459045	-0.404211
C131	C	0.088128	-0.125711	-0.070878
C132	C	0.421461	0.207622	0.262455
C133	C	-0.187673	-0.459035	-0.309662
C134	C	0.145661	-0.125702	0.023672
C135	C	0.478994	0.207632	0.357005
C136	C	-0.187678	-0.412120	-0.309674
C137	C	0.145656	-0.078786	0.023659
C138	C	0.478989	0.254547	0.356993
C139	C	-0.216447	-0.388666	-0.356963
C140	C	0.116886	-0.055332	-0.023630
C141	C	0.450220	0.278001	0.309704
O142	O	-0.163245	-0.337893	-0.269499
O143	O	0.170088	-0.004560	0.063834
O144	O	0.503422	0.328773	0.397168
O145	O	-0.269671	-0.337869	-0.444459
O146	O	0.063662	-0.004536	-0.111125
O147	O	0.396995	0.328797	0.222208
C148	C	-0.245226	-0.125935	-0.404282
C149	C	0.088107	0.207398	-0.070949
C150	C	0.421441	0.540732	0.262385
C151	C	-0.216462	-0.102476	-0.357015
C152	C	0.116872	0.230858	-0.023681
C153	C	0.450205	0.564191	0.309652
C154	C	-0.187695	-0.125932	-0.309738
C155	C	0.145638	0.207401	0.023595
C156	C	0.478972	0.540735	0.356929
C157	C	-0.216466	-0.055558	-0.357018
C158	C	0.116867	0.277775	-0.023685
C159	C	0.450201	0.611109	0.309648
C160	C	-0.245233	-0.032102	-0.404295
C161	C	0.088101	0.301232	-0.070962
C162	C	0.421434	0.634565	0.262372
C163	C	-0.273995	-0.055563	-0.451568
C164	C	0.059339	0.277770	-0.118235
C165	C	0.392672	0.611103	0.215099
C166	C	-0.273993	-0.102479	-0.451559
C167	C	0.059341	0.230854	-0.118225
C168	C	0.392674	0.564188	0.215108
C169	C	-0.158933	-0.102470	-0.262465
C170	C	0.174400	0.230863	0.070868
C171	C	0.507734	0.564196	0.404202
C172	C	-0.158938	-0.055555	-0.262477
C173	C	0.174395	0.277779	0.070856
C174	C	0.507729	0.611112	0.404189
C175	C	-0.187704	-0.032099	-0.309754
C176	C	0.145629	0.301235	0.023579
C177	C	0.478962	0.634568	0.356912
C178	C	-0.333176	-0.649077	-0.356965
C179	C	0.000157	-0.315743	-0.023632
C180	C	0.333490	0.017590	0.309702
C181	C	-0.383111	-0.649083	-0.356974
C182	C	-0.049778	-0.315750	-0.023641
C183	C	0.283556	0.017584	0.309693
C184	C	-0.692756	-0.677937	-0.309720
C185	C	-0.359423	-0.344604	0.023614
C186	C	-0.026089	-0.011270	0.356947
C187	C	-0.880429	-0.677993	-0.309749
C188	C	-0.547096	-0.344659	0.023585
C189	C	-0.213763	-0.011326	0.356918
O190	O	-0.904696	-0.702461	-0.269543
O191	O	-0.571362	-0.369128	0.063790
O192	O	-0.238029	-0.035794	0.397123
N193	N	-0.903896	-0.649251	-0.357057
N194	N	-0.570563	-0.315918	-0.023724
N195	N	-0.237229	0.017416	0.309609
C196	C	-0.880441	-0.620496	-0.404366
C197	C	-0.547108	-0.287162	-0.071033
C198	C	-0.213775	0.046171	0.262301
O199	O	-0.904708	-0.596054	-0.444611
O200	O	-0.571374	-0.262720	-0.111278
O201	O	-0.238041	0.070613	0.222055
C202	C	-0.692769	-0.620443	-0.404340
C203	C	-0.359436	-0.287109	-0.071007
C204	C	-0.026103	0.046224	0.262326
C205	C	-0.669305	-0.649183	-0.357023
C206	C	-0.335972	-0.315850	-0.023690
C207	C	-0.002638	0.017484	0.309644
C208	C	-0.669292	-0.706675	-0.262407
C209	C	-0.335959	-0.373342	0.070926
C210	C	-0.002625	-0.040009	0.404260
C211	C	-0.622376	-0.706659	-0.262397
C212	C	-0.289043	-0.373326	0.070936
C213	C	0.044290	-0.039993	0.404269
C214	C	-0.598925	-0.677905	-0.309701
C215	C	-0.265592	-0.344572	0.023633
C216	C	0.067741	-0.011239	0.356966
C217	C	-0.622390	-0.649167	-0.357014
C218	C	-0.289056	-0.315834	-0.023680
C219	C	0.044277	0.017500	0.309653
C220	C	-0.669316	-0.591690	-0.451652
C221	C	-0.335982	-0.258357	-0.118319
C222	C	-0.002649	0.074977	0.215014
C223	C	-0.622395	-0.591680	-0.451643
C224	C	-0.289061	-0.258347	-0.118310
C225	C	0.044272	0.074987	0.215024
C226	C	-0.598930	-0.620420	-0.404326
C227	C	-0.265597	-0.287087	-0.070992
C228	C	0.067736	0.046246	0.262341
C229	C	-0.552023	-0.620397	-0.404307
C230	C	-0.218690	-0.287064	-0.070974
C231	C	0.114644	0.046270	0.262359
N232	N	-0.528556	-0.649139	-0.356998
N233	N	-0.195223	-0.315805	-0.023665
N234	N	0.138110	0.017528	0.309668
C235	C	-0.552007	-0.677893	-0.309695
C236	C	-0.218674	-0.344559	0.023638
C237	C	0.114659	-0.011226	0.356972
C238	C	-0.978972	-0.620525	-0.404375
C239	C	-0.645639	-0.287191	-0.071042
C240	C	-0.312305	0.046142	0.262292
C241	C	-1.025890	-0.620537	-0.404381
C242	C	-0.692557	-0.287204	-0.071047
C243	C	-0.359223	0.046129	0.262286
C244	C	-1.025874	-0.678035	-0.309764
C245	C	-0.692541	-0.344702	0.023569
C246	C	-0.359208	-0.011368	0.356903
C247	C	-0.978956	-0.678020	-0.309755
C248	C	-0.645622	-0.344687	0.023578
C249	C	-0.312289	-0.011353	0.356911
C250	C	-0.955505	-0.649266	-0.357066
C251	C	-0.622172	-0.315933	-0.023733
C252	C	-0.288839	0.017400	0.309601
C253	C	-0.453482	-0.677857	-0.309678
C254	C	-0.120148	-0.344524	0.023655
C255	C	0.213185	-0.011190	0.356989
C256	C	-0.406562	-0.677837	-0.309671
C257	C	-0.073229	-0.344504	0.023663
C258	C	0.260105	-0.011171	0.356996
C259	C	-0.406582	-0.620341	-0.404290
C260	C	-0.073248	-0.287008	-0.070956
C261	C	0.260085	0.046325	0.262377
C262	C	-0.453497	-0.620359	-0.404295
C263	C	-0.120164	-0.287026	-0.070961
C264	C	0.213170	0.046307	0.262372
C265	C	-0.476946	-0.649121	-0.356987
C266	C	-0.143613	-0.315787	-0.023653
C267	C	0.189721	0.017546	0.309680
O268	O	-0.527728	-0.595945	-0.444498
O269	O	-0.194394	-0.262612	-0.111164
O270	O	0.138939	0.070721	0.222169
O271	O	-0.527733	-0.702338	-0.269468
O272	O	-0.194400	-0.369005	0.063866
O273	O	0.138933	-0.035671	0.397199
C274	C	-0.739672	-0.677953	-0.309729
C275	C	-0.406338	-0.344620	0.023604
C276	C	-0.073005	-0.011286	0.356937
C277	C	-0.763136	-0.649215	-0.357042
C278	C	-0.429803	-0.315881	-0.023709
C279	C	-0.096469	0.017452	0.309624
C280	C	-0.739685	-0.620461	-0.404346
C281	C	-0.406351	-0.287127	-0.071012
C282	C	-0.073018	0.046206	0.262321
C283	C	-0.810054	-0.649227	-0.357048
C284	C	-0.476720	-0.315894	-0.023715
C285	C	-0.143387	0.017439	0.309619
C286	C	-0.833505	-0.677981	-0.309745
C287	C	-0.500172	-0.344648	0.023589
C288	C	-0.166838	-0.011315	0.356922
C289	C	-0.810038	-0.706723	-0.262436
C290	C	-0.476705	-0.373390	0.070898
C291	C	-0.143372	-0.040056	0.404231
C292	C	-0.763123	-0.706707	-0.262426
C293	C	-0.429789	-0.373374	0.070907
C294	C	-0.096456	-0.040040	0.404241
C295	C	-0.763151	-0.591719	-0.451654
C296	C	-0.429818	-0.258386	-0.118321
C297	C	-0.096485	0.074948	0.215012
C298	C	-0.810067	-0.591737	-0.451660
C299	C	-0.476734	-0.258404	-0.118326
C300	C	-0.143400	0.074930	0.215007
C301	C	-0.833518	-0.620491	-0.404356
C302	C	-0.500185	-0.287158	-0.071023
C303	C	-0.166851	0.046176	0.262310
C304	C	-0.099275	-0.649252	-0.357055
C305	C	0.234058	-0.315918	-0.023721
C306	C	0.567391	0.017415	0.309612
C307	C	-0.049341	-0.649291	-0.357077
C308	C	0.283992	-0.315958	-0.023744
C309	C	0.617326	0.017375	0.309589
C310	C	-0.216413	-0.649185	-0.550164
C311	C	0.116921	-0.315851	-0.216830
C312	C	0.450254	0.017482	0.116503
C313	C	-0.216395	-0.649196	-0.632478
C314	C	0.116938	-0.315863	-0.299144
C315	C	0.450271	0.017471	0.034189
C316	C	-0.216474	0.233664	-0.357049
C317	C	0.116859	0.566997	-0.023716
C318	C	0.450192	0.900330	0.309618
C319	C	-0.216489	0.183729	-0.357038
C320	C	0.116845	0.517063	-0.023704
C321	C	0.450178	0.850396	0.309629
C322	C	-0.216367	-0.649220	-0.931569
C323	C	0.116966	-0.315887	-0.598236
C324	C	0.450299	0.017446	-0.264902
C325	C	-0.181776	-0.684082	-0.900277
C326	C	0.151558	-0.350748	-0.566944
C327	C	0.484891	-0.017415	-0.233611
C328	C	-0.181647	-0.683973	-0.814659
C329	C	0.151686	-0.350640	-0.481326
C330	C	0.485019	-0.017306	-0.147992
C331	C	-0.216381	-0.649209	-0.783186
C332	C	0.116952	-0.315875	-0.449853
C333	C	0.450285	0.017458	-0.116520
C334	C	-0.203515	-0.601883	-0.814246
C335	C	0.129819	-0.268550	-0.480912
C336	C	0.463152	0.064783	-0.147579
C337	C	-0.203255	-0.602092	-0.899891
C338	C	0.130078	-0.268759	-0.566558
C339	C	0.463411	0.064575	-0.233224
C340	C	-0.263914	-0.661267	-0.899981
C341	C	0.069419	-0.327934	-0.566648
C342	C	0.402752	0.005400	-0.233314
C343	C	-0.263672	-0.662306	-0.814331
C344	C	0.069661	-0.328972	-0.480998
C345	C	0.402995	0.004361	-0.147665
C346	C	-0.216390	-0.649199	-0.699327
C347	C	0.116944	-0.315866	-0.365993
C348	C	0.450277	0.017468	-0.032660
C349	C	-0.216358	-0.649227	-1.015428
C350	C	0.116976	-0.315893	-0.682095
C351	C	0.450309	0.017440	-0.348762
C352	C	-0.216462	-0.649157	-0.164591
C353	C	0.116871	-0.315824	0.168742
C354	C	0.450204	0.017510	0.502076
C355	C	-0.216353	-0.649233	-0.082277
C356	C	0.116980	-0.315900	0.251056
C357	C	0.450313	0.017434	0.584389
H358	H	-0.135507	-0.121564	-0.223966
H359	H	0.197826	0.211770	0.109368
H360	H	0.531159	0.545103	0.442701
Cl361	Cl	-1.055382	-0.584400	-0.463859
Cl362	Cl	-0.722049	-0.251067	-0.130526
Cl363	Cl	-0.388715	0.082267	0.202808
H364	H	-0.164302	0.179370	-0.271261
H365	H	0.169032	0.512703	0.062072
H366	H	0.502365	0.846036	0.395406
H367	H	-0.168499	-0.591878	-0.919881
H368	H	0.164835	-0.258545	-0.586548
H369	H	0.498168	0.074788	-0.253215
Cl370	Cl	-0.377067	-0.713971	-0.250182
Cl371	Cl	-0.043734	-0.380637	0.083152
Cl372	Cl	0.289600	-0.047304	0.416485
Cl373	Cl	-0.150447	-0.585827	-0.781155
Cl374	Cl	0.182886	-0.252494	-0.447822
Cl375	Cl	0.516220	0.080839	-0.114489
Cl376	Cl	-0.240454	-0.560621	-0.931849
Cl377	Cl	0.092880	-0.227288	-0.598516
Cl378	Cl	0.426213	0.106046	-0.265183
H379	H	-0.472568	-0.701278	-0.271157
H380	H	-0.139235	-0.367945	0.062176
H381	H	0.194099	-0.034612	0.395510
H382	H	-0.603275	-0.730063	-0.223870
H383	H	-0.269941	-0.396730	0.109463
H384	H	0.063392	-0.063397	0.442797
H385	H	-0.959882	-0.597109	-0.442902
H386	H	-0.626549	-0.263776	-0.109569
H387	H	-0.293215	0.069558	0.223764
H388	H	-0.297418	-0.121575	-0.490052
H389	H	0.035916	0.211758	-0.156719
H390	H	0.369249	0.545091	0.176615
Cl391	Cl	-0.698765	-0.742829	-0.202932
Cl392	Cl	-0.365431	-0.409495	0.130402
Cl393	Cl	-0.032098	-0.076162	0.463735
H394	H	-0.289689	-0.635878	-0.920221
H395	H	0.043644	-0.302544	-0.586888
H396	H	0.376978	0.030789	-0.253554
Cl397	Cl	-0.949463	-0.714152	-0.250270
Cl398	Cl	-0.616129	-0.380819	0.083064
Cl399	Cl	-0.282796	-0.047486	0.416397
Cl400	Cl	-0.122744	-0.272711	-0.203016
Cl401	Cl	0.210589	0.060622	0.130318
Cl402	Cl	0.543922	0.393956	0.463651
H403	H	-0.603304	-0.568266	-0.490172
H404	H	-0.269970	-0.234933	-0.156838
H405	H	0.063363	0.098401	0.176495
H406	H	-0.135495	-0.177214	-0.223956
H407	H	0.197839	0.156120	0.109377
H408	H	0.531172	0.489453	0.442711
Cl409	Cl	-0.281373	-0.488533	-0.463641
Cl410	Cl	0.051960	-0.155200	-0.130307
Cl411	Cl	0.385293	0.178133	0.203026
Cl412	Cl	-0.310160	-0.026067	-0.510998
Cl413	Cl	0.023174	0.307267	-0.177665
Cl414	Cl	0.356507	0.640600	0.155669
Cl415	Cl	-1.055364	-0.714182	-0.250296
Cl416	Cl	-0.722031	-0.380849	0.083037
Cl417	Cl	-0.388698	-0.047516	0.416370
H418	H	-0.164254	-0.393018	-0.271181
H419	H	0.169079	-0.059685	0.062152
H420	H	0.502413	0.273649	0.395486
H421	H	-0.744021	-0.730110	-0.223896
H422	H	-0.410688	-0.396777	0.109437
H423	H	-0.077355	-0.063443	0.442771
Cl424	Cl	-0.151510	-0.488532	-0.250232
Cl425	Cl	0.181823	-0.155198	0.083101
Cl426	Cl	0.515156	0.178135	0.416435
H427	H	-0.135513	-0.036458	-0.223977
H428	H	0.197821	0.296875	0.109356
H429	H	0.531154	0.630208	0.442689
Cl430	Cl	-0.127264	-0.671662	-0.783046
Cl431	Cl	0.206069	-0.338328	-0.449712
Cl432	Cl	0.539402	-0.004995	-0.116379
H433	H	-0.268635	-0.393035	-0.442736
H434	H	0.064699	-0.059701	-0.109402
H435	H	0.398032	0.273632	0.223931
Cl436	Cl	-0.310150	-0.272710	-0.510965
Cl437	Cl	0.023184	0.060623	-0.177632
Cl438	Cl	0.356517	0.393957	0.155702
H439	H	-0.688412	-0.568284	-0.490180
H440	H	-0.355079	-0.234951	-0.156846
H441	H	-0.021746	0.098382	0.176487
Cl442	Cl	-0.482996	-0.584219	-0.463765
Cl443	Cl	-0.149662	-0.250886	-0.130431
Cl444	Cl	0.183671	0.082447	0.202902
Cl445	Cl	-0.377091	-0.584198	-0.463757
Cl446	Cl	-0.043758	-0.250864	-0.130424
Cl447	Cl	0.289575	0.082469	0.202909
H448	H	-0.829140	-0.730134	-0.223917
H449	H	-0.495807	-0.396801	0.109416
H450	H	-0.162474	-0.063468	0.442749
H451	H	-0.189705	-0.719066	-0.793661
H452	H	0.143628	-0.385733	-0.460328
H453	H	0.476962	-0.052399	-0.126995
Cl454	Cl	-0.839559	-0.555602	-0.511150
Cl455	Cl	-0.506226	-0.222269	-0.177817
Cl456	Cl	-0.172892	0.111065	0.155517
H457	H	-0.275629	-0.695171	-0.921635
H458	H	0.057704	-0.361838	-0.588302
H459	H	0.391037	-0.028504	-0.254969
Cl460	Cl	-0.281414	0.189764	-0.463753
Cl461	Cl	0.051920	0.523097	-0.130419
Cl462	Cl	0.385253	0.856431	0.202914
Cl463	Cl	-0.733677	-0.555567	-0.511128
Cl464	Cl	-0.400344	-0.222234	-0.177794
Cl465	Cl	-0.067011	0.111100	0.155539
H466	H	-0.227934	-0.575204	-0.793856
H467	H	0.105400	-0.241871	-0.460523
H468	H	0.438733	0.091462	-0.127189
Cl469	Cl	-0.278652	-0.716078	-0.782997
Cl470	Cl	0.054682	-0.382745	-0.449664
Cl471	Cl	0.388015	-0.049411	-0.116331
Cl472	Cl	-0.310157	-0.166831	-0.510982
Cl473	Cl	0.023176	0.166503	-0.177648
Cl474	Cl	0.356509	0.499836	0.155685
H475	H	-0.268675	0.094252	-0.442799
H476	H	0.064659	0.427585	-0.109466
H477	H	0.397992	0.760918	0.223868
Cl478	Cl	-0.194059	-0.738442	-0.932105
Cl479	Cl	0.139275	-0.405108	-0.598772
Cl480	Cl	0.472608	-0.071775	-0.265439
Cl481	Cl	-0.127695	-0.671930	-0.933528
Cl482	Cl	0.205638	-0.338596	-0.600195
Cl483	Cl	0.538972	-0.005263	-0.266862
H484	H	-0.164288	0.094262	-0.271256
H485	H	0.169045	0.427596	0.062077
H486	H	0.502378	0.760929	0.395411
Cl487	Cl	-0.305604	-0.625950	-0.781259
Cl488	Cl	0.027729	-0.292616	-0.447926
Cl489	Cl	0.361062	0.040717	-0.114592
