data_functionalizedCrystal
_audit_creation_method	'MofGen! by Chris Wilmer'
_symmetry_space_group_name_H-M	'P1'
_symmetry_Int_Tables_number	1
_symmetry_cell_setting	triclinic
loop_
_symmetry_equiv_pos_as_xyz
  x,y,z
_cell_length_a	17.038272
_cell_length_b	17.038272
_cell_length_c	15.500227
_cell_angle_alpha	93.033254
_cell_angle_beta	86.956295
_cell_angle_gamma	91.111556
loop_
_atom_site_label
_atom_site_type_symbol
_atom_site_fract_x
_atom_site_fract_y
_atom_site_fract_z
O1	O	1.052160	0.167139	-0.071836
O2	O	0.824350	0.164430	-0.071862
O3	O	0.936901	0.051879	-0.071842
O4	O	0.939609	0.279690	-0.071856
O5	O	0.930069	0.058680	0.072045
O6	O	0.817518	0.171231	0.072026
O7	O	1.045328	0.173940	0.072051
Cu8	Cu	0.930799	0.173207	0.085177
Cu9	Cu	0.938879	0.165164	-0.084987
O10	O	0.932777	0.286491	0.072032
C11	C	0.791641	0.165368	0.000079
C12	C	0.704358	0.158019	0.000069
C13	C	0.931022	0.025987	0.000101
C14	C	0.923674	-0.061297	0.000100
C15	C	0.658749	0.225482	0.000066
C16	C	0.576737	0.218574	0.000078
C17	C	0.540335	0.144201	0.000088
C18	C	0.585950	0.076733	0.000094
C19	C	0.667961	0.083642	0.000088
C20	C	0.292946	0.119792	0.000112
C21	C	0.210929	0.112887	0.000116
C22	C	0.201721	0.254729	0.000102
C23	C	0.283734	0.261632	0.000091
C24	C	0.329342	0.194164	0.000101
C25	C	0.456505	0.137138	0.000098
C26	C	0.413170	0.201228	0.000098
C27	C	0.991137	-0.106906	0.000108
C28	C	0.984229	-0.188918	0.000100
C29	C	0.909856	-0.225320	0.000088
C30	C	0.842388	-0.179705	0.000077
C31	C	0.849297	-0.097694	0.000080
C32	C	0.885446	-0.472708	0.000074
C33	C	0.878541	-0.554725	0.000074
C34	C	1.020383	-0.563932	0.000094
C35	C	1.027286	-0.481919	0.000102
C36	C	0.959818	-0.436312	0.000087
C37	C	0.902792	-0.309149	0.000082
C38	C	0.966882	-0.352484	0.000087
C39	C	1.078037	0.173003	0.000109
C40	C	1.165320	0.180351	0.000113
C41	C	0.938656	0.312383	0.000087
C42	C	0.946004	0.399667	0.000082
N43	N	0.925122	0.178864	0.204861
N44	N	0.944561	0.159501	-0.204671
C45	C	0.972833	0.131192	0.250145
C46	C	0.968547	0.135478	0.340718
C47	C	0.916555	0.187440	0.386003
C48	C	0.868839	0.235114	0.340712
C49	C	0.873121	0.230823	0.250142
C50	C	0.901128	0.202884	0.659467
C51	C	0.896851	0.207172	0.750044
C52	C	0.996559	0.107535	0.750044
C53	C	1.000840	0.103252	0.659471
C54	C	0.953121	0.150923	0.614188
C55	C	0.912174	0.191824	0.478582
C56	C	0.957498	0.146534	0.521610
H57	H	0.539605	0.273510	0.000075
H58	H	1.039164	-0.226049	0.000108
H59	H	0.442811	0.261782	0.000095
H60	H	1.035409	0.068723	0.786921
H61	H	0.181294	0.052321	0.000123
H62	H	0.826501	0.277420	0.377589
H63	H	1.015175	0.088882	0.213280
O64	O	1.051362	0.052705	0.615618
C65	C	1.149838	-0.045636	0.625178
C66	C	1.092642	0.011557	0.674950
H67	H	1.183241	-0.078908	0.673127
H68	H	1.115366	-0.089202	0.582811
H69	H	1.193294	-0.011094	0.582740
H70	H	1.049173	-0.022920	0.717435
H71	H	1.127166	0.055123	0.717262
O72	O	0.337127	0.054173	0.000081
C73	C	0.337595	-0.087241	0.000149
C74	C	0.287463	-0.012990	0.000163
H75	H	0.297462	-0.141560	0.000234
H76	H	0.379057	-0.090460	-0.060082
H77	H	0.373386	-0.084662	0.060351
H78	H	0.251624	-0.015518	-0.059999
H79	H	0.246051	-0.009798	0.060434
H80	H	0.830508	-0.435584	0.000061
O81	O	0.770199	-0.215187	0.000104
C82	C	0.696694	-0.337447	0.000046
C83	C	0.778495	-0.297367	0.000031
H84	H	0.703374	-0.403896	-0.000032
H85	H	0.660204	-0.316264	0.060272
H86	H	0.665942	-0.321847	-0.060161
H87	H	0.809313	-0.312949	0.060197
H88	H	0.814927	-0.318552	-0.060235
H89	H	0.862274	0.241701	0.622605
O90	O	0.806234	-0.589963	0.000015
C91	C	0.666273	-0.572179	0.000026
C92	C	0.748107	-0.532171	0.000073
H93	H	0.619255	-0.525472	0.000092
H94	H	0.662312	-0.613163	-0.060207
H95	H	0.656669	-0.607526	0.060227
H96	H	0.757765	-0.496783	-0.060087
H97	H	0.752029	-0.491233	0.060346
H98	H	0.794361	-0.060560	0.000073
O99	O	0.318964	0.333940	0.000125
C100	C	0.301176	0.473896	0.000065
C101	C	0.261176	0.392057	0.000050
H102	H	0.254473	0.520905	-0.000015
H103	H	0.336465	0.483576	0.060292
H104	H	0.342215	0.477788	-0.060141
H105	H	0.220100	0.388107	0.060215
H106	H	0.225936	0.382413	-0.060218
O107	O	1.099471	-0.446434	0.000142
C108	C	1.172978	-0.324177	0.000092
C109	C	1.091180	-0.364261	0.000066
H110	H	1.166303	-0.257735	0.000012
H111	H	1.203752	-0.339670	0.060325
H112	H	1.209443	-0.345462	-0.060109
H113	H	1.054651	-0.342998	0.060226
H114	H	1.060467	-0.348770	-0.060206
O115	O	1.039088	-0.317043	-0.000018
C116	C	1.132760	-0.233344	-0.074569
C117	C	1.050962	-0.273430	-0.074553
H118	H	1.142392	-0.198087	-0.134834
H119	H	1.136689	-0.192284	-0.014392
H120	H	1.179781	-0.280036	-0.074518
H121	H	1.003892	-0.226793	-0.074635
H122	H	1.047099	-0.314506	-0.134725
H123	H	1.051699	-0.077273	0.000123
H124	H	0.842237	-0.338796	0.000075
O125	O	1.014983	0.089148	0.384573
C126	C	1.114320	-0.010143	0.375014
C127	C	1.061783	0.042292	0.325241
H128	H	1.152158	-0.048052	0.327067
H129	H	1.153847	0.028376	0.417378
H130	H	1.075800	-0.049614	0.417456
H131	H	1.100242	0.081771	0.282752
H132	H	1.022250	0.003726	0.282933
H133	H	0.854510	0.249490	0.786912
O134	O	0.861631	0.242198	0.522673
C135	C	0.750635	0.256551	0.624916
C136	C	0.807835	0.199422	0.575048
H137	H	0.707117	0.221988	0.667259
H138	H	0.785104	0.300049	0.667367
H139	H	0.717305	0.289914	0.576983
H140	H	0.841180	0.166006	0.622918
H141	H	0.773322	0.155975	0.532583
O142	O	0.826746	0.277214	0.206283
C143	C	0.727364	0.376460	0.215836
C144	C	0.779856	0.323982	0.265612
H145	H	0.689429	0.414273	0.263782
H146	H	0.765843	0.416011	0.173444
H147	H	0.687920	0.337897	0.173423
H148	H	0.819309	0.362484	0.308072
H149	H	0.741332	0.284426	0.307950
H150	H	0.688381	0.286045	0.000058
H151	H	0.164579	0.309658	0.000096
H152	H	0.999827	0.104223	0.484736
H153	H	1.075311	-0.601074	0.000105
H154	H	0.556305	0.016177	0.000114
H155	H	0.705095	0.028706	0.000090
H156	H	0.426857	0.076584	0.000130
