data_functionalizedCrystal
_audit_creation_method	'MofGen! by Chris Wilmer'
_symmetry_space_group_name_H-M	'P1'
_symmetry_Int_Tables_number	1
_symmetry_cell_setting	triclinic
loop_
_symmetry_equiv_pos_as_xyz
  x,y,z
_cell_length_a	17.077402
_cell_length_b	17.077404
_cell_length_c	17.077396
_cell_angle_alpha	90.019200
_cell_angle_beta	89.971638
_cell_angle_gamma	89.977404
loop_
_atom_site_label
_atom_site_type_symbol
_atom_site_fract_x
_atom_site_fract_y
_atom_site_fract_z
Zn1	Zn	-0.312520	-1.200034	-0.443889
Zn2	Zn	0.020813	-0.866701	-0.110556
Zn3	Zn	0.354146	-0.533367	0.222778
Zn4	Zn	-0.443797	-1.199945	-0.312625
Zn5	Zn	-0.110464	-0.866611	0.020708
Zn6	Zn	0.222869	-0.533278	0.354042
Zn7	Zn	-0.312547	-1.068771	-0.312632
Zn8	Zn	0.020786	-0.735437	0.020701
Zn9	Zn	0.354119	-0.402104	0.354034
Zn10	Zn	-0.443746	-1.068732	-0.443844
Zn11	Zn	-0.110413	-0.735399	-0.110511
Zn12	Zn	0.222921	-0.402066	0.222823
O13	O	-0.378153	-1.134370	-0.378248
O14	O	-0.044819	-0.801037	-0.044914
O15	O	0.288514	-0.467704	0.288419
O16	O	-0.329945	-1.309869	-0.426492
O17	O	0.003389	-0.976536	-0.093159
O18	O	0.336722	-0.643202	0.240175
O19	O	-0.426419	-1.182523	-0.202779
O20	O	-0.093086	-0.849190	0.130554
O21	O	0.240247	-0.515856	0.463888
O22	O	-0.202697	-1.086237	-0.330066
O23	O	0.130637	-0.752903	0.003268
O24	O	0.463970	-0.419570	0.336601
O25	O	-0.426393	-1.309803	-0.330053
O26	O	-0.093060	-0.976470	0.003280
O27	O	0.240274	-0.643137	0.336614
O28	O	-0.202677	-1.182675	-0.426499
O29	O	0.130656	-0.849342	-0.093166
O30	O	0.463990	-0.516008	0.240167
O31	O	-0.329991	-1.086150	-0.202784
O32	O	0.003343	-0.752817	0.130549
O33	O	0.336676	-0.419483	0.463882
O34	O	-0.329941	-0.958919	-0.330022
O35	O	0.003392	-0.625585	0.003311
O36	O	0.336726	-0.292252	0.336644
O37	O	-0.426306	-1.086171	-0.553697
O38	O	-0.092973	-0.752838	-0.220364
O39	O	0.240361	-0.419504	0.112970
O40	O	-0.426332	-0.958890	-0.426423
O41	O	-0.092999	-0.625557	-0.093090
O42	O	0.240334	-0.292224	0.240244
O43	O	-0.329895	-1.182638	-0.553730
O44	O	0.003438	-0.849304	-0.220397
O45	O	0.336771	-0.515971	0.112937
O46	O	-0.553637	-1.182486	-0.330010
O47	O	-0.220304	-0.849152	0.003324
O48	O	0.113029	-0.515819	0.336657
O49	O	-0.553600	-1.086084	-0.426416
O50	O	-0.220267	-0.752751	-0.093083
O51	O	0.113067	-0.419418	0.240251
C52	C	-0.378135	-0.930423	-0.378219
C53	C	-0.044801	-0.597089	-0.044886
C54	C	0.288532	-0.263756	0.288448
C55	C	-0.378146	-0.843173	-0.378225
C56	C	-0.044812	-0.509839	-0.044892
C57	C	0.288521	-0.176506	0.288441
C58	C	-0.428411	-0.802188	-0.428339
C59	C	-0.095078	-0.468855	-0.095006
C60	C	0.238255	-0.135522	0.238327
C61	C	-0.428412	-0.720208	-0.428349
C62	C	-0.095078	-0.386875	-0.095016
C63	C	0.238255	-0.053541	0.238318
C64	C	-0.378149	-0.679213	-0.378240
C65	C	-0.044816	-0.345880	-0.044907
C66	C	0.288517	-0.012547	0.288426
C67	C	-0.327878	-0.720203	-0.328124
C68	C	0.005455	-0.386870	0.005209
C69	C	0.338789	-0.053537	0.338543
C70	C	-0.327874	-0.802182	-0.328119
C71	C	0.005459	-0.468849	0.005214
C72	C	0.338792	-0.135516	0.338548
C73	C	-0.327890	-0.549333	-0.328137
C74	C	0.005443	-0.216000	0.005196
C75	C	0.338777	0.117333	0.338529
C76	C	-0.327894	-0.467349	-0.328141
C77	C	0.005439	-0.134015	0.005192
C78	C	0.338772	0.199318	0.338526
C79	C	-0.428427	-0.467359	-0.428367
C80	C	-0.095094	-0.134026	-0.095034
C81	C	0.238239	0.199308	0.238299
C82	C	-0.428424	-0.549338	-0.428362
C83	C	-0.095090	-0.216005	-0.095029
C84	C	0.238243	0.117329	0.238305
C85	C	-0.378153	-0.590322	-0.378245
C86	C	-0.044820	-0.256989	-0.044911
C87	C	0.288513	0.076344	0.288422
C88	C	-0.582101	-1.134292	-0.378224
C89	C	-0.248767	-0.800959	-0.044891
C90	C	0.084566	-0.467626	0.288442
C91	C	-0.669350	-1.134331	-0.378241
C92	C	-0.336017	-0.800998	-0.044907
C93	C	-0.002684	-0.467664	0.288426
C94	C	-0.710263	-1.184519	-0.428494
C95	C	-0.376929	-0.851186	-0.095161
C96	C	-0.043596	-0.517852	0.238173
C97	C	-0.792243	-1.184552	-0.428511
C98	C	-0.458910	-0.851219	-0.095177
C99	C	-0.125577	-0.517885	0.238156
C100	C	-0.833310	-1.134400	-0.378269
C101	C	-0.499976	-0.801067	-0.044936
C102	C	-0.166643	-0.467734	0.288397
C103	C	-0.792392	-1.084207	-0.328014
C104	C	-0.459058	-0.750873	0.005320
C105	C	-0.125725	-0.417540	0.338653
C106	C	-0.710413	-1.084170	-0.328002
C107	C	-0.377079	-0.750837	0.005332
C108	C	-0.043746	-0.417504	0.338665
C109	C	-0.963262	-1.084287	-0.328041
C110	C	-0.629928	-0.750954	0.005292
C111	C	-0.296595	-0.417621	0.338625
C112	C	-1.045246	-1.084324	-0.328052
C113	C	-0.711913	-0.750991	0.005281
C114	C	-0.378580	-0.417658	0.338615
C115	C	-1.045092	-1.184669	-0.428550
C116	C	-0.711759	-0.851336	-0.095217
C117	C	-0.378425	-0.518002	0.238116
C118	C	-0.963113	-1.184633	-0.428538
C119	C	-0.629780	-0.851299	-0.095205
C120	C	-0.296447	-0.517966	0.238129
C121	C	-0.922201	-1.134440	-0.378281
C122	C	-0.588867	-0.801106	-0.044948
C123	C	-0.255534	-0.467773	0.288385
C124	C	-0.173408	-1.134470	-0.378288
C125	C	0.159925	-0.801137	-0.044955
C126	C	0.493258	-0.467803	0.288378
C127	C	-0.086159	-1.134512	-0.378305
C128	C	0.247175	-0.801179	-0.044972
C129	C	0.580508	-0.467846	0.288361
C130	C	-0.378092	-1.134410	-0.582992
C131	C	-0.044759	-0.801077	-0.249659
C132	C	0.288575	-0.467743	0.083675
C133	C	-0.378066	-1.134427	-0.670242
C134	C	-0.044733	-0.801093	-0.336908
C135	C	0.288601	-0.467760	-0.003575
C136	C	-0.378167	-0.339115	-0.378268
C137	C	-0.044833	-0.005781	-0.044935
C138	C	0.288500	0.327552	0.288398
C139	C	-0.378160	-0.426364	-0.378255
C140	C	-0.044827	-0.093031	-0.044922
C141	C	0.288507	0.240302	0.288412
C142	C	-0.327850	-1.084261	-0.711234
C143	C	0.005484	-0.750927	-0.377901
C144	C	0.338817	-0.417594	-0.044567
C145	C	-0.327832	-1.084273	-0.793215
C146	C	0.005502	-0.750940	-0.459881
C147	C	0.338835	-0.417607	-0.126548
C148	C	-0.378027	-1.134457	-0.834201
C149	C	-0.044694	-0.801123	-0.500868
C150	C	0.288640	-0.467790	-0.167535
C151	C	-0.428249	-1.184625	-0.793203
C152	C	-0.094916	-0.851292	-0.459870
C153	C	0.238418	-0.517958	-0.126537
C154	C	-0.428270	-1.184608	-0.711224
C155	C	-0.094937	-0.851274	-0.377891
C156	C	0.238396	-0.517941	-0.044558
C157	C	-0.428200	-1.184659	-0.964073
C158	C	-0.094867	-0.851326	-0.630740
C159	C	0.238467	-0.517992	-0.297407
C160	C	-0.428178	-1.184678	-1.046058
C161	C	-0.094845	-0.851344	-0.712725
C162	C	0.238489	-0.518011	-0.379391
C163	C	-0.327762	-1.084325	-1.046064
C164	C	0.005572	-0.750991	-0.712730
C165	C	0.338905	-0.417658	-0.379397
C166	C	-0.327783	-1.084307	-0.964085
C167	C	0.005551	-0.750974	-0.630751
C168	C	0.338884	-0.417641	-0.297418
C169	C	-0.378004	-1.134477	-0.923092
C170	C	-0.044671	-0.801144	-0.589759
C171	C	0.288663	-0.467810	-0.256426
C172	C	-0.378157	-1.134376	-0.174300
C173	C	-0.044823	-0.801043	0.159034
C174	C	0.288510	-0.467710	0.492367
C175	C	-0.377961	-1.134512	-0.087050
C176	C	-0.044628	-0.801178	0.246283
C177	C	0.288705	-0.467845	0.579616
H178	H	-0.286950	-0.686819	-0.287328
H179	H	0.046383	-0.353486	0.046005
H180	H	0.379717	-0.020152	0.379339
H181	H	-0.469344	-0.686842	-0.469156
H182	H	-0.136010	-0.353509	-0.135823
H183	H	0.197323	-0.020175	0.197511
O184	O	-0.273632	-1.030192	-0.919878
O185	O	0.059701	-0.696859	-0.586544
O186	O	0.393034	-0.363525	-0.253211
H187	H	-0.287079	-0.968577	-0.935591
H188	H	0.046254	-0.635244	-0.602257
H189	H	0.379587	-0.301910	-0.268924
H190	H	-0.825835	-1.043369	-0.287110
H191	H	-0.492501	-0.710036	0.046224
H192	H	-0.159168	-0.376702	0.379557
O193	O	-0.482630	-0.593559	-0.482409
O194	O	-0.149297	-0.260225	-0.149075
O195	O	0.184036	0.073108	0.184258
H196	H	-0.517581	-0.551289	-0.517266
H197	H	-0.184248	-0.217956	-0.183933
H198	H	0.149086	0.115378	0.149401
O199	O	-0.918815	-1.238740	-0.482707
O200	O	-0.585481	-0.905407	-0.149374
O201	O	-0.252148	-0.572074	0.183960
H202	H	-0.961034	-1.273650	-0.517655
H203	H	-0.627701	-0.940317	-0.184322
H204	H	-0.294368	-0.606983	0.149011
O205	O	-0.482432	-1.238715	-0.667006
O206	O	-0.149099	-0.905382	-0.333672
O207	O	0.184235	-0.572048	-0.000339
H208	H	-0.447312	-1.278656	-0.629663
H209	H	-0.113979	-0.945323	-0.296330
H210	H	0.219355	-0.611989	0.037003
H211	H	-0.286869	-1.043476	-1.079444
H212	H	0.046465	-0.710142	-0.746110
H213	H	0.379798	-0.376809	-0.412777
H214	H	-0.825550	-1.225426	-0.469426
H215	H	-0.492217	-0.892093	-0.136093
H216	H	-0.158884	-0.558760	0.197241
O217	O	-0.273678	-0.593543	-0.274076
O218	O	0.059655	-0.260210	0.059257
O219	O	0.392988	0.073124	0.392590
H220	H	-0.238736	-0.551266	-0.239224
H221	H	0.094597	-0.217933	0.094109
H222	H	0.427930	0.115401	0.427442
O223	O	-0.273674	-1.030163	-0.837432
O224	O	0.059659	-0.696830	-0.504099
O225	O	0.392992	-0.363496	-0.170765
H226	H	-0.233739	-1.065323	-0.874805
H227	H	0.099595	-0.731989	-0.541472
H228	H	0.432928	-0.398656	-0.208138
O229	O	-0.273669	-0.846393	-0.274059
O230	O	0.059664	-0.513060	0.059274
O231	O	0.392998	-0.179727	0.392608
H232	H	-0.238726	-0.804116	-0.239208
H233	H	0.094607	-0.470783	0.094126
H234	H	0.427941	-0.137450	0.427459
H235	H	-0.286970	-1.043400	-0.677869
H236	H	0.046363	-0.710066	-0.344535
H237	H	0.379696	-0.376733	-0.011202
H238	H	-0.469051	-1.225541	-1.079427
H239	H	-0.135718	-0.892208	-0.746094
H240	H	0.197615	-0.558875	-0.412761
H241	H	-0.469357	-0.433985	-0.469177
H242	H	-0.136024	-0.100652	-0.135844
H243	H	0.197310	0.232681	0.197490
H244	H	-0.469344	-0.835560	-0.469141
H245	H	-0.136010	-0.502227	-0.135808
H246	H	0.197323	-0.168894	0.197526
H247	H	-0.469123	-1.225481	-0.826581
H248	H	-0.135790	-0.892148	-0.493248
H249	H	0.197544	-0.558815	-0.159914
O250	O	-0.482366	-1.238769	-0.919857
O251	O	-0.149033	-0.905436	-0.586524
O252	O	0.184300	-0.572103	-0.253190
H253	H	-0.447242	-1.278709	-0.882517
H254	H	-0.113909	-0.945376	-0.549184
H255	H	0.219424	-0.612042	-0.215850
O256	O	-0.273677	-0.423128	-0.274106
O257	O	0.059657	-0.089795	0.059228
O258	O	0.392990	0.243539	0.392561
H259	H	-0.238709	-0.465398	-0.239265
H260	H	0.094624	-0.132064	0.094069
H261	H	0.427957	0.201269	0.427402
H262	H	-0.676832	-1.225362	-0.469403
H263	H	-0.343498	-0.892028	-0.136069
H264	H	-0.010165	-0.558695	0.197264
O265	O	-1.089212	-1.238802	-0.482765
O266	O	-0.755878	-0.905468	-0.149431
O267	O	-0.422545	-0.572135	0.183902
H268	H	-1.153116	-1.230396	-0.474343
H269	H	-0.819782	-0.897062	-0.141009
H270	H	-0.486449	-0.563729	0.192324
H271	H	-1.078681	-1.043483	-0.287144
H272	H	-0.745347	-0.710150	0.046189
H273	H	-0.412014	-0.376817	0.379522
O274	O	-0.666287	-1.030041	-0.273792
O275	O	-0.332954	-0.696708	0.059541
O276	O	0.000380	-0.363375	0.392874
H277	H	-0.628954	-0.990060	-0.308881
H278	H	-0.295621	-0.656726	0.024452
H279	H	0.037713	-0.323393	0.357785
H280	H	-0.929954	-1.043412	-0.287119
H281	H	-0.596620	-0.710079	0.046214
H282	H	-0.263287	-0.376745	0.379547
