data_functionalizedCrystal
_audit_creation_method	'MofGen! by Chris Wilmer'
_symmetry_space_group_name_H-M	'P1'
_symmetry_Int_Tables_number	1
_symmetry_cell_setting	triclinic
loop_
_symmetry_equiv_pos_as_xyz
  x,y,z
_cell_length_a	15.625429
_cell_length_b	14.971486
_cell_length_c	13.448316
_cell_angle_alpha	90.001801
_cell_angle_beta	71.916250
_cell_angle_gamma	96.059770
loop_
_atom_site_label
_atom_site_type_symbol
_atom_site_fract_x
_atom_site_fract_y
_atom_site_fract_z
O1	O	0.117488	-1.186969	-0.124935
O2	O	0.131557	-0.926571	-0.130035
O3	O	-0.006709	-1.063725	-0.080165
O4	O	0.255753	-1.049815	-0.174805
O5	O	-0.006717	-1.063708	0.085222
O6	O	0.131548	-0.926554	0.035352
O7	O	0.117479	-1.186952	0.040452
Cu8	Cu	0.124513	-1.056751	0.053003
Cu9	Cu	0.124523	-1.056772	-0.142586
O10	O	0.255744	-1.049798	-0.009418
C11	C	0.130923	-0.893238	-0.047118
C12	C	0.129038	-0.793940	-0.046448
N13	N	0.124505	-1.056744	0.190570
C14	C	-0.040301	-1.063086	0.014638
C15	C	-0.140385	-1.061197	0.050719
C16	C	-0.469523	-1.055006	-0.281339
C17	C	-0.563566	-1.053227	-0.247404
C18	C	-0.563562	-1.053208	-0.067111
C19	C	-0.469518	-1.054992	-0.101030
C20	C	-0.422506	-1.055890	-0.208145
C21	C	-0.422500	-1.055875	-0.027837
C22	C	-0.328463	-1.057654	-0.061754
C23	C	-0.281444	-1.058549	-0.168865
C24	C	-0.328469	-1.057668	-0.242063
C25	C	-0.469513	-1.054971	0.079278
C26	C	-0.422495	-1.055855	0.152471
C27	C	-0.328458	-1.057640	0.118554
C28	C	-0.281439	-1.058535	0.011443
C29	C	-0.281433	-1.058521	0.191752
C30	C	-0.187396	-1.060300	0.157834
C31	C	-0.187402	-1.060314	-0.022474
C32	C	0.289337	-1.050437	-0.104223
C33	C	0.389420	-1.052326	-0.140311
C34	C	0.118112	-1.220285	-0.042468
C35	C	0.119998	-1.319583	-0.043144
C36	C	0.210265	-0.736730	-0.075736
C37	C	0.208488	-0.643430	-0.075081
C38	C	0.125483	-0.607343	-0.045144
C39	C	0.044249	-0.664560	-0.015851
C40	C	0.046027	-0.757858	-0.016500
C41	C	0.040549	-0.470097	-0.014503
C42	C	0.038771	-0.376793	-0.013856
C43	C	0.203010	-0.355669	-0.073084
C44	C	0.204788	-0.448967	-0.073733
C45	C	0.123554	-0.506178	-0.044441
N46	N	0.124523	-1.056787	-0.280151
C47	C	0.063306	-1.117494	0.264684
C48	C	0.063306	-1.117500	0.368787
C49	C	0.124509	-1.056758	0.398773
C50	C	0.185710	-0.996001	0.324651
C51	C	0.185706	-0.995992	0.220552
C52	C	0.185717	-0.996026	0.541629
C53	C	0.185722	-0.996036	0.645736
C54	C	0.063316	-1.117534	0.689865
C55	C	0.063312	-1.117525	0.585765
C56	C	0.124515	-1.056768	0.511650
H57	H	-0.149123	-1.061053	-0.109698
H58	H	0.272378	-0.478346	-0.098119
C59	C	0.301579	-0.776417	-0.108668
N60	N	0.370359	-0.806306	-0.133469
H61	H	0.235559	-0.946573	0.670143
H62	H	-0.601843	-1.052499	-0.307015
H63	H	-0.431244	-1.055745	-0.368562
C64	C	-0.178001	-1.060507	-0.206175
N65	N	-0.100087	-1.061984	-0.234277
C66	C	-0.052539	-0.337099	0.019078
N67	N	-0.121315	-0.307202	0.043884
H68	H	0.235540	-0.946540	0.349073
H69	H	-0.601851	-1.052474	0.020103
H70	H	0.235552	-0.946549	0.481287
C71	C	-0.276751	-1.058660	-0.359895
N72	N	-0.237797	-1.059404	-0.448643
C73	C	0.253037	-0.929168	0.139023
N74	N	0.303753	-0.878835	0.077616
C75	C	-0.047057	-0.624861	0.017082
N76	N	-0.115832	-0.594960	0.041884
H77	H	0.013473	-1.166967	0.429132
H78	H	-0.025600	-0.516677	0.009351
C79	C	-0.004011	-1.184363	0.771395
N80	N	-0.054719	-1.234699	0.832807
H81	H	-0.546082	-1.053513	0.106889
C82	C	-0.135675	-1.061277	0.238351
N83	N	-0.096718	-1.062011	0.298998
H84	H	-0.460785	-1.055121	0.239684
C85	C	-0.333157	-1.057522	0.309575
N86	N	-0.372116	-1.056767	0.398321
H87	H	0.269153	-0.309083	-0.096930
H88	H	0.274631	-0.596853	-0.098931
H89	H	-0.020116	-0.804439	0.007349
H90	H	0.013472	-1.166961	0.240277
C91	C	-0.004014	-1.184344	0.552783
N92	N	-0.054728	-1.234670	0.527943
