data_functionalizedCrystal
_audit_creation_method	'MofGen! by Chris Wilmer'
_symmetry_space_group_name_H-M	'P1'
_symmetry_Int_Tables_number	1
_symmetry_cell_setting	triclinic
loop_
_symmetry_equiv_pos_as_xyz
  x,y,z
_cell_length_a	19.077105
_cell_length_b	19.076808
_cell_length_c	19.805399
_cell_angle_alpha	92.327057
_cell_angle_beta	92.315688
_cell_angle_gamma	89.927608
loop_
_atom_site_label
_atom_site_type_symbol
_atom_site_fract_x
_atom_site_fract_y
_atom_site_fract_z
Zn1	Zn	1.062995	-0.323012	0.411234
Zn2	Zn	1.058188	-0.440523	0.293318
Zn3	Zn	0.945489	-0.318302	0.293708
Zn4	Zn	0.940734	-0.435759	0.402118
O5	O	1.001852	-0.379399	0.350095
O6	O	1.160689	-0.342564	0.399244
O7	O	1.043216	-0.424333	0.198651
O8	O	0.965078	-0.220591	0.313277
O9	O	1.157157	-0.428900	0.312611
O10	O	1.051410	-0.224052	0.399623
O11	O	0.960417	-0.334538	0.198938
O12	O	0.846527	-0.329918	0.304438
O13	O	0.956975	-0.420780	0.498046
O14	O	0.843034	-0.416214	0.384086
O15	O	1.046799	-0.337945	0.504743
O16	O	1.038606	-0.538227	0.303771
O17	O	0.952313	-0.534727	0.383707
C18	C	0.819284	-0.372038	0.343315
C19	C	0.741180	-0.368906	0.340430
C20	C	0.994441	-0.561975	0.342723
C21	C	0.991335	-0.640084	0.339594
C22	C	0.702684	-0.412432	0.380473
C23	C	0.629297	-0.409480	0.377766
C24	C	0.594408	-0.363005	0.335012
C25	C	0.632910	-0.319475	0.294968
C26	C	0.706295	-0.322424	0.297679
C27	C	0.375123	-0.349357	0.322468
C28	C	0.301732	-0.346412	0.319759
C29	C	0.298124	-0.436417	0.402557
C30	C	0.371511	-0.439365	0.405262
C31	C	0.410007	-0.395832	0.365220
N32	N	0.519395	-0.359988	0.332243
N33	N	0.485018	-0.398846	0.367994
C34	C	1.034790	-0.678519	0.383114
C35	C	1.031869	-0.751911	0.380175
C36	C	0.985495	-0.786866	0.333713
C37	C	0.942035	-0.748425	0.290192
C38	C	0.944953	-0.675035	0.293134
C39	C	0.971948	-1.006174	0.320092
C40	C	0.969034	-1.079570	0.317151
C41	C	1.058867	-1.083050	0.407136
C42	C	1.061784	-1.009658	0.410071
C43	C	1.018322	-0.971224	0.366552
N44	N	0.982509	-0.861884	0.330707
N45	N	1.021304	-0.896207	0.369563
C46	C	1.185132	-0.386789	0.356901
C47	C	1.263236	-0.389938	0.359801
C48	C	1.001893	-0.379356	0.526641
C49	C	1.001911	-0.379338	0.601874
C50	C	1.009311	-0.196111	0.357511
C51	C	1.012489	-0.118005	0.360671
C52	C	1.001853	-0.379392	0.174239
C53	C	1.001980	-0.379218	0.099019
C54	C	1.048683	-0.336204	0.640707
C55	C	1.048691	-0.336184	0.711396
C56	C	1.001929	-0.379302	0.743252
C57	C	0.955152	-0.422438	0.704414
C58	C	0.955141	-0.422454	0.633725
C59	C	0.955194	-0.422375	0.989491
C60	C	0.955210	-0.422357	1.060185
C61	C	1.048744	-0.336104	1.067162
C62	C	1.048734	-0.336120	0.996474
C63	C	1.001954	-0.379253	0.957642
C64	C	1.001945	-0.379273	0.880992
C65	C	1.001941	-0.379286	0.819900
H66	H	0.731085	-0.450279	0.415285
N67	N	0.904699	-0.468930	0.738768
H68	H	0.911800	-0.462373	0.789442
H69	H	0.913578	-0.519564	0.724792
N70	N	0.416624	-0.302404	0.279273
H71	H	0.445904	-0.332135	0.247831
H72	H	0.448359	-0.271101	0.309311
H73	H	0.273328	-0.308559	0.284948
N74	N	0.925081	-0.964726	0.273147
H75	H	0.893706	-0.932977	0.300633
H76	H	0.895312	-0.998056	0.243276
H77	H	1.072555	-0.650064	0.420945
H78	H	0.737638	-0.286977	0.265076
H79	H	0.604498	-0.281631	0.260161
H80	H	0.597956	-0.444924	0.410372
N81	N	0.409138	-0.489479	0.451388
H82	H	0.461469	-0.484741	0.447030
H83	H	0.394275	-0.539139	0.438281
N84	N	0.256605	-0.483368	0.445743
H85	H	0.204822	-0.474450	0.437540
H86	H	0.269896	-0.473013	0.495013
N87	N	1.099173	-0.289618	0.962115
H88	H	1.128805	-0.262287	0.997443
H89	H	1.071888	-0.255952	0.933038
N90	N	1.078702	-0.793366	0.427147
H91	H	1.108514	-0.760085	0.457034
H92	H	1.110037	-0.825137	0.399642
N93	N	1.111797	-0.971960	0.460189
H94	H	1.107053	-0.919635	0.455448
H95	H	1.161480	-0.986772	0.451044
N96	N	1.105741	-1.124503	0.454073
H97	H	1.096858	-1.176300	0.445161
H98	H	1.095284	-1.111212	0.502511
N99	N	0.904687	-0.468971	0.591838
H100	H	0.875064	-0.496284	0.622743
H101	H	0.931956	-0.502652	0.562252
H102	H	0.931268	-1.108028	0.279316
H103	H	0.909567	-0.643741	0.257697
N104	N	0.892018	-0.786123	0.240077
H105	H	0.896766	-0.838448	0.244812
H106	H	0.903500	-0.773752	0.192669
H107	H	1.086764	-0.301094	0.614776
N108	N	1.099126	-0.289646	0.753281
H109	H	1.128746	-0.262332	0.722375
H110	H	1.130487	-0.319542	0.782672
H111	H	1.086833	-0.300980	1.098788
N112	N	0.904751	-0.468892	0.947599
H113	H	0.873350	-0.439018	0.918219
H114	H	0.875171	-0.496204	0.978539
H115	H	0.917128	-0.457470	1.086119
