data_functionalizedCrystal
_audit_creation_method	'MofGen! by Chris Wilmer'
_symmetry_space_group_name_H-M	'P1'
_symmetry_Int_Tables_number	1
_symmetry_cell_setting	triclinic
loop_
_symmetry_equiv_pos_as_xyz
  x,y,z
_cell_length_a	19.077212
_cell_length_b	14.908520
_cell_length_c	19.076919
_cell_angle_alpha	84.570994
_cell_angle_beta	90.114942
_cell_angle_gamma	95.739463
loop_
_atom_site_label
_atom_site_type_symbol
_atom_site_fract_x
_atom_site_fract_y
_atom_site_fract_z
Zn1	Zn	1.042918	-0.329023	0.454770
Zn2	Zn	1.542918	0.170977	0.954770
Zn3	Zn	1.040771	-0.474270	0.343526
Zn4	Zn	1.540771	0.025730	0.843526
Zn5	Zn	0.930156	-0.328546	0.332525
Zn6	Zn	1.430156	0.171454	0.832525
Zn7	Zn	0.918025	-0.486360	0.456780
Zn8	Zn	1.418025	0.013640	0.956780
O9	O	0.982967	-0.404550	0.396900
O10	O	1.482967	0.095450	0.896900
O11	O	1.141194	-0.343430	0.443776
O12	O	1.641194	0.156570	0.943776
O13	O	1.030275	-0.449680	0.243509
O14	O	1.530275	0.050320	0.743509
O15	O	0.951089	-0.201776	0.343296
O16	O	1.451089	0.298224	0.843296
O17	O	1.139616	-0.450143	0.362045
O18	O	1.639616	0.049857	0.862045
O19	O	1.033935	-0.202127	0.433109
O20	O	1.533935	0.297873	0.933109
O21	O	0.949007	-0.342617	0.235427
O22	O	1.449007	0.157383	0.735427
O23	O	0.829985	-0.354340	0.345245
O24	O	1.329985	0.145660	0.845245
O25	O	0.930414	-0.470748	0.555071
O26	O	1.430414	0.029252	1.055071
O27	O	0.821073	-0.470285	0.436535
O28	O	1.321073	0.029715	0.936535
O29	O	1.022172	-0.355153	0.553594
O30	O	1.522172	0.144847	1.053594
O31	O	1.018513	-0.602707	0.363995
O32	O	1.518513	-0.102707	0.863995
O33	O	0.928332	-0.611589	0.447202
O34	O	1.428332	-0.111589	0.947202
C35	C	0.799974	-0.413573	0.389915
C36	C	1.299974	0.086427	0.889915
C37	C	0.721686	-0.417456	0.386944
C38	C	1.221686	0.082544	0.886944
C39	C	0.280923	-0.445270	0.365669
C40	C	0.780923	0.054730	0.865669
C41	C	0.354483	-0.441616	0.368454
C42	C	0.854483	0.058384	0.868454
C43	C	0.392078	-0.384328	0.412478
C44	C	0.892078	0.115672	0.912478
C45	C	0.356111	-0.330684	0.453712
C46	C	0.856111	0.169316	0.953712
C47	C	0.282553	-0.334333	0.450922
C48	C	0.782553	0.165667	0.950922
C49	C	0.612161	-0.367462	0.425389
C50	C	1.112161	0.132538	0.925389
C51	C	0.685724	-0.363818	0.428177
C52	C	1.185724	0.136182	0.928177
C53	C	0.684091	-0.474749	0.342918
C54	C	1.184091	0.025251	0.842918
C55	C	0.610531	-0.478398	0.340135
C56	C	1.110531	0.021602	0.840135
C57	C	0.574571	-0.424750	0.381367
C58	C	1.074571	0.075250	0.881367
N59	N	0.467268	-0.380594	0.415328
N60	N	0.967268	0.119406	0.915328
N61	N	0.499383	-0.428480	0.378513
N62	N	0.999383	0.071520	0.878513
C63	C	0.971892	-0.640034	0.407026
C64	C	1.471892	-0.140034	0.907026
C65	C	0.967217	-0.740773	0.411384
C66	C	1.467217	-0.240773	0.911384
C67	C	1.052427	-0.920762	0.333006
C68	C	1.552427	-0.420762	0.833006
C69	C	1.048038	-1.015415	0.337098
C70	C	1.548038	-0.515415	0.837098
C71	C	0.954051	-1.024734	0.423665
C72	C	1.454051	-0.524734	0.923665
C73	C	0.958441	-0.930081	0.419573
C74	C	1.458441	-0.430081	0.919573
C75	C	1.007630	-0.878098	0.374241
C76	C	1.507630	-0.378098	0.874241
C77	C	1.012016	-0.783443	0.370145
C78	C	1.512016	-0.283443	0.870145
C79	C	0.918034	-0.792764	0.456715
C80	C	1.418034	-0.292764	0.956715
C81	C	0.913644	-0.887417	0.460808
C82	C	1.413644	-0.387417	0.960808
C83	C	1.166675	-0.395491	0.403913
C84	C	1.666675	0.104509	0.903913
C85	C	1.244961	-0.391631	0.406902
C86	C	1.744961	0.108369	0.906902
C87	C	0.975180	-0.414352	0.580602
C88	C	1.475180	0.085648	1.080602
C89	C	0.971861	-0.418530	0.658885
C90	C	1.471861	0.081470	1.158885
C91	C	0.994104	-0.168146	0.386751
C92	C	1.494104	0.331854	0.886751
C93	C	0.998851	-0.067405	0.382426
C94	C	1.498851	0.432595	0.882426
C95	C	0.990768	-0.394718	0.213912
C96	C	1.490768	0.105282	0.713912
C97	C	0.994235	-0.390278	0.135624
C98	C	1.494235	0.109722	0.635624
C99	C	1.018073	-0.360311	0.694894
C100	C	1.518073	0.139689	1.194894
C101	C	1.014946	-0.364233	0.768449
C102	C	1.514946	0.135767	1.268449
C103	C	0.965611	-0.426379	0.805992
C104	C	1.465611	0.073621	1.305992
C105	C	0.919394	-0.484600	0.769978
C106	C	1.419394	0.015400	1.269978
C107	C	0.922517	-0.480673	0.696424
C108	C	1.422517	0.019327	1.196424
C109	C	0.951142	-0.444573	1.026056
C110	C	1.451142	0.055427	1.526056
C111	C	0.948023	-0.448497	1.099614
C112	C	1.448023	0.051503	1.599614
C113	C	1.043575	-0.328128	1.098080
C114	C	1.543575	0.171872	1.598080
C115	C	1.046698	-0.324211	1.024526
C116	C	1.546698	0.175789	1.524526
C117	C	1.000478	-0.382429	0.988517
C118	C	1.500478	0.117571	1.488517
N119	N	0.962415	-0.430391	0.881177
N120	N	1.462415	0.069609	1.381177
N121	N	1.003671	-0.378411	0.913333
N122	N	1.503671	0.121589	1.413333
H123	H	0.253274	-0.290652	0.484496
H124	H	0.753274	0.209348	0.984496
H125	H	1.086874	-0.273607	0.993962
H126	H	1.586874	0.226393	1.493962
N127	N	0.573382	-0.309615	0.469871
N128	N	1.073382	0.190385	0.969871
H129	H	0.521078	-0.320613	0.461426
H130	H	1.021078	0.179387	0.961426
H131	H	0.589739	-0.243643	0.456701
H132	H	1.089739	0.256357	0.956701
H133	H	0.873598	-0.929755	0.497718
H134	H	1.373598	-0.429755	0.997718
H135	H	0.881555	-0.758017	0.490289
H136	H	1.381555	-0.258017	0.990289
H137	H	0.386728	-0.284035	0.489554
H138	H	0.886728	0.215965	0.989554
N139	N	1.093422	-0.265337	1.136917
N140	N	1.593422	0.234663	1.636917
H141	H	1.083959	-0.277252	1.189210
H142	H	1.583959	0.222748	1.689210
H143	H	1.086054	-0.200462	1.120861
H144	H	1.586054	0.299538	1.620861
H145	H	0.913517	-0.491991	0.996747
H146	H	1.413517	0.008009	1.496747
H147	H	1.084518	-1.050148	0.303522
H148	H	1.584518	-0.550148	0.803522
N149	N	1.071290	-0.293287	0.654403
N150	N	1.571290	0.206713	1.154403
H151	H	1.100089	-0.257000	0.688379
H152	H	1.600089	0.243000	1.188379
H153	H	1.045894	-0.251127	0.620988
H154	H	1.545894	0.248873	1.120988
N155	N	0.894811	-0.515532	1.140111
N156	N	1.394811	-0.015532	1.640111
H157	H	0.866004	-0.551817	1.106140
H158	H	1.366004	-0.051817	1.606140
H159	H	0.862663	-0.481873	1.167803
H160	H	1.362663	0.018127	1.667803
H161	H	0.383760	-0.485293	0.334877
H162	H	0.883760	0.014707	0.834877
N163	N	1.065066	-0.727372	0.321253
N164	N	1.565066	-0.227372	0.821253
H165	H	1.092780	-0.768766	0.295754
H166	H	1.592780	-0.268766	0.795754
H167	H	1.098241	-0.687973	0.349496
H168	H	1.598241	-0.187973	0.849496
H169	H	0.879221	-0.535197	0.800552
H170	H	1.379221	-0.035197	1.300552
H171	H	0.914009	-1.067075	0.460577
H172	H	1.414009	-0.567075	0.960577
H173	H	0.884880	-0.528072	0.667106
H174	H	1.384880	-0.028072	1.167106
H175	H	1.092474	-0.878437	0.296089
H176	H	1.592474	-0.378437	0.796089
H177	H	1.052579	-0.316827	0.797764
H178	H	1.552579	0.183173	1.297764
H179	H	0.250318	-0.491924	0.329824
H180	H	0.750318	0.008076	0.829824
N181	N	0.569983	-0.540181	0.292649
N182	N	1.069983	-0.040181	0.792649
H183	H	0.579286	-0.604906	0.306772
H184	H	1.079286	-0.104906	0.806772
H185	H	0.585589	-0.522602	0.242239
H186	H	1.085589	-0.022602	0.742239
N187	N	0.722876	-0.532605	0.298445
N188	N	1.222876	-0.032605	0.798445
H189	H	0.775180	-0.521601	0.306889
H190	H	1.275180	-0.021601	0.806889
H191	H	0.712803	-0.516345	0.247066
H192	H	1.212803	-0.016345	0.747066
N193	N	0.726276	-0.302029	0.475664
N194	N	1.226276	0.197971	0.975664
H195	H	0.692334	-0.268596	0.501360
H196	H	1.192334	0.231404	1.001360
H197	H	0.759977	-0.256991	0.446399
H198	H	1.259977	0.243009	0.946399
