data_functionalizedCrystal
_audit_creation_method	'MofGen! by Chris Wilmer'
_symmetry_space_group_name_H-M	'P1'
_symmetry_Int_Tables_number	1
_symmetry_cell_setting	triclinic
loop_
_symmetry_equiv_pos_as_xyz
  x,y,z
_cell_length_a	12.759401
_cell_length_b	12.594516
_cell_length_c	12.594510
_cell_angle_alpha	89.967679
_cell_angle_beta	89.980999
_cell_angle_gamma	90.017577
loop_
_atom_site_label
_atom_site_type_symbol
_atom_site_fract_x
_atom_site_fract_y
_atom_site_fract_z
Zn1	Zn	1.606236	-0.423602	-0.601815
Zn2	Zn	1.939570	-0.090269	-0.268482
Zn3	Zn	2.272903	0.243064	0.064852
Zn4	Zn	1.606129	-0.601632	-0.423843
Zn5	Zn	1.939463	-0.268298	-0.090509
Zn6	Zn	2.272796	0.065035	0.242824
Zn7	Zn	1.430541	-0.423672	-0.423850
Zn8	Zn	1.763874	-0.090339	-0.090517
Zn9	Zn	2.097208	0.242994	0.242816
Zn10	Zn	1.430523	-0.601544	-0.601779
Zn11	Zn	1.763856	-0.268211	-0.268446
Zn12	Zn	2.097190	0.065123	0.064887
O13	O	1.518357	-0.512613	-0.512822
O14	O	1.851691	-0.179279	-0.179489
O15	O	2.185024	0.154054	0.153845
O16	O	1.753243	-0.447226	-0.578218
O17	O	2.086577	-0.113892	-0.244885
O18	O	2.419910	0.219441	0.088448
O19	O	1.582800	-0.578091	-0.274898
O20	O	1.916133	-0.244758	0.058435
O21	O	2.249467	0.088576	0.391769
O22	O	1.453900	-0.274717	-0.447476
O23	O	1.787233	0.058616	-0.114143
O24	O	2.120567	0.391949	0.219191
O25	O	1.753165	-0.578023	-0.447463
O26	O	2.086498	-0.244690	-0.114129
O27	O	2.419831	0.088644	0.219204
O28	O	1.582983	-0.274666	-0.578226
O29	O	1.916316	0.058667	-0.244892
O30	O	2.249649	0.392001	0.088441
O31	O	1.453796	-0.447345	-0.274903
O32	O	1.787129	-0.114012	0.058430
O33	O	2.120463	0.219322	0.391763
O34	O	1.283518	-0.447260	-0.447441
O35	O	1.616851	-0.113927	-0.114108
O36	O	1.950184	0.219407	0.219225
O37	O	1.453869	-0.577874	-0.750730
O38	O	1.787202	-0.244540	-0.417397
O39	O	2.120536	0.088793	-0.084063
O40	O	1.283504	-0.577942	-0.578165
O41	O	1.616838	-0.244608	-0.244832
O42	O	1.950171	0.088725	0.088502
O43	O	1.582965	-0.447141	-0.750756
O44	O	1.916298	-0.113808	-0.417423
O45	O	2.249632	0.219526	-0.084089
O46	O	1.582782	-0.750566	-0.447428
O47	O	1.916116	-0.417233	-0.114095
O48	O	2.249449	-0.083899	0.219238
O49	O	1.453765	-0.750501	-0.578158
O50	O	1.787098	-0.417168	-0.244824
O51	O	2.120432	-0.083835	0.088509
C52	C	1.245390	-0.512600	-0.512801
C53	C	1.578723	-0.179266	-0.179467
C54	C	1.912057	0.154067	0.153866
C55	C	1.128613	-0.512620	-0.512817
C56	C	1.461947	-0.179286	-0.179484
C57	C	1.795280	0.154047	0.153850
C58	C	1.073772	-0.580769	-0.580778
C59	C	1.407105	-0.247436	-0.247444
C60	C	1.740439	0.085898	0.085889
C61	C	0.964048	-0.580773	-0.580799
C62	C	1.297381	-0.247440	-0.247465
C63	C	1.630715	0.085893	0.085868
C64	C	0.964016	-0.444475	-0.444889
C65	C	1.297350	-0.111142	-0.111556
C66	C	1.630683	0.222191	0.221777
C67	C	1.073738	-0.444467	-0.444874
C68	C	1.407072	-0.111133	-0.111541
C69	C	1.740405	0.222200	0.221792
C70	C	1.518289	-0.789154	-0.512811
C71	C	1.851622	-0.455820	-0.179478
C72	C	2.184955	-0.122487	0.153855
C73	C	1.518355	-0.907459	-0.512843
C74	C	1.851689	-0.574126	-0.179509
C75	C	2.185022	-0.240792	0.153824
C76	C	1.448176	-0.976716	-0.583896
C77	C	1.781509	-0.643382	-0.250563
C78	C	2.114843	-0.310049	0.082770
C79	C	1.422578	-1.047592	-0.486774
C80	C	1.755911	-0.714259	-0.153441
C81	C	2.089245	-0.380926	0.179893
C82	C	1.544049	-1.047382	-0.609981
C83	C	1.877382	-0.714048	-0.276648
C84	C	2.210716	-0.380715	0.056685
C85	C	1.492707	-0.976777	-0.415669
C86	C	1.826040	-0.643444	-0.082336
C87	C	2.159373	-0.310111	0.250998
C88	C	1.614222	-0.976560	-0.538942
C89	C	1.947555	-0.643227	-0.205608
C90	C	2.280889	-0.309894	0.127725
C91	C	1.588661	-1.047405	-0.441753
C92	C	1.921994	-0.714071	-0.108419
C93	C	2.255327	-0.380738	0.224914
C94	C	1.792391	-0.512626	-0.512844
C95	C	2.125724	-0.179293	-0.179510
C96	C	2.459057	0.154040	0.153823
C97	C	1.909167	-0.512632	-0.512853
C98	C	2.242501	-0.179299	-0.179520
C99	C	2.575834	0.154034	0.153814
C100	C	1.518427	-0.512490	-0.790443
C101	C	1.851760	-0.179156	-0.457110
C102	C	2.185093	0.154177	-0.123776
C103	C	1.518456	-0.512437	-0.908748
C104	C	1.851790	-0.179104	-0.575415
C105	C	2.185123	0.154229	-0.242082
C106	C	1.518455	-0.234992	-0.512856
C107	C	1.851789	0.098342	-0.179522
C108	C	2.185122	0.431675	0.153811
C109	C	1.518497	-0.116686	-0.512870
C110	C	1.851830	0.216647	-0.179537
C111	C	2.185163	0.549980	0.153797
C112	C	1.588693	-0.441327	-0.978016
C113	C	1.922026	-0.107993	-0.644683
C114	C	2.255359	0.225340	-0.311349
C115	C	1.492871	-0.415276	-1.048809
C116	C	1.826204	-0.081943	-0.715476
C117	C	2.159538	0.251390	-0.382143
C118	C	1.614334	-0.538413	-1.048754
C119	C	1.947667	-0.205080	-0.715421
C120	C	2.281001	0.128254	-0.382087
C121	C	1.422584	-0.486337	-0.977984
C122	C	1.755917	-0.153004	-0.644650
C123	C	2.089250	0.180329	-0.311317
C124	C	1.544111	-0.609519	-0.977922
C125	C	1.877445	-0.276186	-0.644589
C126	C	2.210778	0.057148	-0.311255
C127	C	1.448224	-0.583506	-1.048684
C128	C	1.781557	-0.250172	-0.715350
C129	C	2.114890	0.083161	-0.382017
C130	C	1.518349	-0.512658	-0.236281
C131	C	1.851682	-0.179325	0.097052
C132	C	2.185015	0.154008	0.430386
C133	C	1.518523	-0.512411	-0.117976
C134	C	1.851856	-0.179077	0.215357
C135	C	2.185189	0.154256	0.548691
H136	H	1.388721	-0.945676	-0.643897
H137	H	1.722055	-0.612343	-0.310563
H138	H	2.055388	-0.279010	0.022770
H139	H	1.471194	-0.333165	-1.079947
H140	H	1.804528	0.000168	-0.746614
H141	H	2.137861	0.333501	-0.413281
H142	H	1.695388	-0.560393	-1.079844
H143	H	2.028722	-0.227059	-0.746511
H144	H	2.362055	0.106274	-0.413178
H145	H	1.118392	-0.388965	-0.389533
H146	H	1.451725	-0.055631	-0.056199
H147	H	1.785058	0.277702	0.277134
H148	H	1.565723	-1.078396	-0.692120
H149	H	1.899057	-0.745063	-0.358786
H150	H	2.232390	-0.411729	-0.025453
H151	H	1.647984	-0.381155	-0.946983
H152	H	1.981318	-0.047822	-0.613650
H153	H	2.314651	0.285511	-0.280316
H154	H	0.919324	-0.388989	-0.389571
H155	H	1.252657	-0.055656	-0.056238
H156	H	1.585990	0.277677	0.277095
H157	H	1.341571	-1.078816	-0.464721
H158	H	1.674904	-0.745483	-0.131388
H159	H	2.008238	-0.412149	0.201945
H160	H	1.118448	-0.636261	-0.636104
H161	H	1.451781	-0.302928	-0.302770
H162	H	1.785115	0.030406	0.030563
H163	H	1.470938	-0.945891	-0.333508
H164	H	1.804272	-0.612558	-0.000175
H165	H	2.137605	-0.279224	0.333158
H166	H	1.648070	-1.078247	-0.381607
H167	H	1.981403	-0.744914	-0.048274
H168	H	2.314736	-0.411581	0.285059
H169	H	1.695211	-0.945340	-0.561041
H170	H	2.028544	-0.612006	-0.227707
H171	H	2.361877	-0.278673	0.105626
H172	H	1.341506	-0.464261	-0.947027
H173	H	1.674839	-0.130927	-0.613694
H174	H	2.008172	0.202406	-0.280361
H175	H	1.388787	-0.643631	-1.079517
H176	H	1.722120	-0.310297	-0.746184
H177	H	2.055454	0.023036	-0.412851
H178	H	1.565817	-0.691607	-0.946764
H179	H	1.899150	-0.358274	-0.613430
H180	H	2.232484	-0.024941	-0.280097
H181	H	0.919401	-0.636266	-0.636141
H182	H	1.252734	-0.302932	-0.302807
H183	H	1.586068	0.030401	0.030526
