data_functionalizedCrystal
_audit_creation_method	'MofGen! by Chris Wilmer'
_symmetry_space_group_name_H-M	'P1'
_symmetry_Int_Tables_number	1
_symmetry_cell_setting	triclinic
loop_
_symmetry_equiv_pos_as_xyz
  x,y,z
_cell_length_a	16.992695
_cell_length_b	10.654550
_cell_length_c	9.730223
_cell_angle_alpha	90.000043
_cell_angle_beta	89.995280
_cell_angle_gamma	92.423423
loop_
_atom_site_label
_atom_site_type_symbol
_atom_site_fract_x
_atom_site_fract_y
_atom_site_fract_z
O1	O	0.110190	-1.677361	-0.114188
O2	O	0.120688	-1.312790	-0.114214
O3	O	0.001288	-1.493614	-0.114190
O4	O	0.229590	-1.496537	-0.114212
O5	O	0.001285	-1.493601	0.114390
O6	O	0.120685	-1.312777	0.114366
O7	O	0.110187	-1.677349	0.114391
Zn8	Zn	0.115435	-1.495061	0.150671
Zn9	Zn	0.115439	-1.495078	-0.150493
O10	O	0.229586	-1.496525	0.114368
C11	C	0.119916	-1.265919	0.000073
C12	C	0.117609	-1.126277	0.000064
C13	C	-0.027946	-1.489848	0.000099
C14	C	-0.115051	-1.478628	0.000098
C15	C	0.110959	-1.724220	0.000102
C16	C	0.113265	-1.863862	0.000102
C17	C	-0.164703	-1.586879	0.000107
C18	C	-0.246547	-1.576330	0.000093
C19	C	-0.278738	-1.457529	0.000080
C20	C	-0.229080	-1.349270	0.000067
C21	C	-0.147237	-1.359820	0.000071
C22	C	-0.522573	-1.413802	0.000058
C23	C	-0.604422	-1.403260	0.000059
C24	C	-0.621884	-1.630321	0.000082
C25	C	-0.540039	-1.640861	0.000094
C26	C	-0.490388	-1.532602	0.000074
N27	N	-0.362395	-1.446743	0.000071
N28	N	-0.406733	-1.543389	0.000074
C29	C	0.258821	-1.500291	0.000075
C30	C	0.345926	-1.511510	0.000068
N31	N	0.115432	-1.495059	0.356207
C32	C	0.187910	-1.052866	0.000061
C33	C	0.185738	-0.921658	0.000085
C34	C	0.042959	-0.937282	0.000109
C35	C	0.045132	-1.068488	0.000095
N36	N	0.115437	-1.495089	-0.356030
C37	C	0.062584	-1.575159	0.428144
C38	C	0.062584	-1.575171	0.572026
C39	C	0.168287	-1.414980	0.572024
C40	C	0.168282	-1.414962	0.428144
H41	H	-0.138501	-1.683620	0.000126
H42	H	-0.016050	-0.890215	0.000142
H43	H	0.242984	-0.861892	0.000086
Br44	Br	-0.050283	-1.168126	0.000116
Br45	Br	-0.009143	-1.683858	0.330520
Br46	Br	-0.009144	-1.683876	0.669652
Br47	Br	0.240011	-1.306285	0.669657
H48	H	-0.662318	-1.718458	0.000096
Br49	Br	-0.496358	-1.802097	0.000068
H50	H	-0.630628	-1.306513	0.000070
H51	H	0.211317	-1.349729	0.369569
H52	H	-0.286971	-1.664480	0.000104
H53	H	0.246926	-1.099913	0.000046
Br54	Br	-0.455200	-1.266878	0.000022
H55	H	-0.255296	-1.252539	0.000048
H56	H	-0.106811	-1.271671	0.000064
