data_functionalizedCrystal
_audit_creation_method	'MofGen! by Chris Wilmer'
_symmetry_space_group_name_H-M	'P1'
_symmetry_Int_Tables_number	1
_symmetry_cell_setting	triclinic
loop_
_symmetry_equiv_pos_as_xyz
  x,y,z
_cell_length_a	17.019282
_cell_length_b	17.019294
_cell_length_c	18.366186
_cell_angle_alpha	86.114787
_cell_angle_beta	93.872176
_cell_angle_gamma	83.655696
loop_
_atom_site_label
_atom_site_type_symbol
_atom_site_fract_x
_atom_site_fract_y
_atom_site_fract_z
O1	O	1.046568	0.100443	-0.001201
O2	O	1.379901	0.433777	0.332133
O3	O	1.713235	0.767110	0.665466
O4	O	0.816889	0.113271	-0.016413
O5	O	1.150223	0.446604	0.316920
O6	O	1.483556	0.779938	0.650254
O7	O	0.938135	-0.007983	-0.001201
O8	O	1.271469	0.325350	0.332132
O9	O	1.604802	0.658683	0.665466
O10	O	0.925322	0.221698	-0.016413
O11	O	1.258655	0.555031	0.316921
O12	O	1.591989	0.888364	0.650254
O13	O	0.938115	-0.007989	0.119897
O14	O	1.271448	0.325344	0.453231
O15	O	1.604781	0.658677	0.786564
O16	O	0.816869	0.113265	0.104686
O17	O	1.150202	0.446598	0.438019
O18	O	1.483535	0.779932	0.771352
O19	O	1.046547	0.100437	0.119898
O20	O	1.379881	0.433771	0.453231
O21	O	1.713214	0.767104	0.786564
Zn22	Zn	0.931705	0.106850	0.131519
Zn23	Zn	1.265038	0.440184	0.464852
Zn24	Zn	1.598371	0.773517	0.798185
Zn25	Zn	0.931732	0.106858	-0.028034
Zn26	Zn	1.265065	0.440192	0.305300
Zn27	Zn	1.598399	0.773525	0.638633
O28	O	0.925301	0.221692	0.104686
O29	O	1.258635	0.555025	0.438019
O30	O	1.591968	0.888358	0.771353
C31	C	0.787491	0.112784	0.042323
C32	C	1.120824	0.446117	0.375657
C33	C	1.454157	0.779450	0.708990
C34	C	0.699922	0.111331	0.036921
C35	C	1.033256	0.444664	0.370254
C36	C	1.366589	0.777998	0.703588
C37	C	0.658776	0.110643	0.100396
C38	C	0.992110	0.443977	0.433729
C39	C	1.325443	0.777310	0.767062
C40	C	0.576498	0.109266	0.095323
C41	C	0.909831	0.442599	0.428656
C42	C	1.243165	0.775933	0.761990
C43	C	0.535367	0.108582	0.026774
C44	C	0.868700	0.441915	0.360108
C45	C	1.202034	0.775248	0.693441
C46	C	0.576519	0.109267	-0.036705
C47	C	0.909853	0.442600	0.296628
C48	C	1.243186	0.775934	0.629962
C49	C	0.658797	0.110639	-0.031631
C50	C	0.992130	0.443972	0.301702
C51	C	1.325463	0.777306	0.635036
C52	C	0.286944	0.104435	0.008152
C53	C	0.620277	0.437768	0.341485
C54	C	0.953611	0.771101	0.674819
C55	C	0.204661	0.103065	0.003083
C56	C	0.537994	0.436398	0.336416
C57	C	0.871327	0.769732	0.669749
C58	C	0.204645	0.103062	0.135111
C59	C	0.537979	0.436396	0.468445
C60	C	0.871312	0.769729	0.801778
C61	C	0.286923	0.104439	0.140179
C62	C	0.620257	0.437772	0.473512
C63	C	0.953590	0.771106	0.806846
C64	C	0.328069	0.105120	0.076700
C65	C	0.661402	0.438453	0.410033
C66	C	0.994736	0.771787	0.743367
C67	C	0.451265	0.107176	0.021587
C68	C	0.784599	0.440510	0.354920
C69	C	1.117932	0.773843	0.688254
C70	C	0.412170	0.106520	0.081888
C71	C	0.745503	0.439853	0.415221
C72	C	1.078837	0.773187	0.748555
C73	C	0.937639	-0.037375	0.061160
C74	C	1.270972	0.295958	0.394493
C75	C	1.604305	0.629292	0.727826
C76	C	0.936181	-0.124944	0.066557
C77	C	1.269514	0.208390	0.399890
C78	C	1.602847	0.541723	0.733223
C79	C	0.935509	-0.166076	0.003082
C80	C	1.268842	0.167257	0.336415
C81	C	1.602175	0.500591	0.669749
C82	C	0.934133	-0.248356	0.008155
C83	C	1.267467	0.084978	0.341489
C84	C	1.600800	0.418311	0.674822
C85	C	0.933436	-0.289502	0.076704
C86	C	1.266769	0.043831	0.410037
C87	C	1.600103	0.377165	0.743371
C88	C	0.934106	-0.248364	0.140183
C89	C	1.267439	0.084970	0.473517
C90	C	1.600772	0.418303	0.806850
C91	C	0.935475	-0.166085	0.135109
C92	C	1.268809	0.167248	0.468442
C93	C	1.602142	0.500582	0.801776
C94	C	0.929295	-0.537931	0.095327
C95	C	1.262629	-0.204597	0.428660
C96	C	1.595962	0.128736	0.761993
C97	C	0.927928	-0.620215	0.100396
C98	C	1.261261	-0.286882	0.433730
C99	C	1.594595	0.046451	0.767063
C100	C	0.927954	-0.620201	-0.031632
C101	C	1.261288	-0.286868	0.301701
C102	C	1.594621	0.046465	0.635034
C103	C	0.929329	-0.537922	-0.036700
C104	C	1.262662	-0.204588	0.296633
C105	C	1.595995	0.128745	0.629966
C106	C	0.929994	-0.496790	0.026779
C107	C	1.263327	-0.163457	0.360112
C108	C	1.596661	0.169877	0.693445
C109	C	0.932033	-0.373605	0.081891
C110	C	1.265366	-0.040272	0.415225
C111	C	1.598700	0.293061	0.748558
C112	C	0.931392	-0.412687	0.021590
C113	C	1.264725	-0.079354	0.354924
C114	C	1.598058	0.253979	0.688257
C115	C	1.075946	0.100925	0.061160
C116	C	1.409279	0.434258	0.394493
C117	C	1.742613	0.767591	0.727827
C118	C	1.163514	0.102377	0.066557
C119	C	1.496848	0.435711	0.399891
C120	C	1.830181	0.769044	0.733224
C121	C	0.925798	0.251083	0.042324
C122	C	1.259131	0.584417	0.375657
C123	C	1.592465	0.917750	0.708990
C124	C	0.927256	0.338652	0.036922
C125	C	1.260589	0.671986	0.370255
C126	C	1.593923	1.005319	0.703588
N127	N	0.931692	0.106844	0.240409
N128	N	1.265025	0.440178	0.573743
N129	N	1.598359	0.773511	0.907076
N130	N	0.931751	0.106858	-0.136924
N131	N	1.265084	0.440191	0.196410
N132	N	1.598418	0.773524	0.529743
C133	C	0.985397	0.053179	0.285245
C134	C	1.318731	0.386513	0.618578
C135	C	1.652064	0.719846	0.951912
C136	C	0.985402	0.053176	0.361473
C137	C	1.318736	0.386509	0.694807
C138	C	1.652069	0.719843	1.028140
C139	C	0.931710	0.106851	0.392863
C140	C	1.265043	0.440184	0.726196
C141	C	1.598376	0.773518	1.059529
C142	C	0.877994	0.160520	0.348017
C143	C	1.211328	0.493853	0.681350
C144	C	1.544661	0.827187	1.014684
C145	C	0.877985	0.160517	0.271790
C146	C	1.211319	0.493850	0.605124
C147	C	1.544652	0.827184	0.938457
C148	C	0.921294	0.178706	0.508462
C149	C	1.254627	0.512040	0.841796
C150	C	1.587961	0.845373	1.175129
C151	C	0.921308	0.178711	0.584688
C152	C	1.254642	0.512044	0.918021
C153	C	1.587975	0.845377	1.251354
C154	C	0.931732	0.106861	0.627971
C155	C	1.265065	0.440194	0.961304
C156	C	1.598399	0.773528	1.294638
C157	C	0.942158	0.035004	0.595021
C158	C	1.275491	0.368337	0.928354
C159	C	1.608825	0.701670	1.261687
C160	C	0.942149	0.035001	0.518794
C161	C	1.275483	0.368334	0.852127
C162	C	1.608816	0.701667	1.185461
C163	C	0.931713	0.106860	0.475517
C164	C	1.265046	0.440194	0.808850
C165	C	1.598379	0.773527	1.142184
C166	C	0.985446	0.053188	0.755463
C167	C	1.318779	0.386521	1.088796
C168	C	1.652112	0.719854	1.422129
C169	C	0.985445	0.053183	0.831692
C170	C	1.318778	0.386516	1.165026
C171	C	1.652112	0.719850	1.498359
C172	C	0.878041	0.160534	0.818234
C173	C	1.211374	0.493867	1.151568
C174	C	1.544707	0.827201	1.484901
C175	C	0.878038	0.160532	0.742006
C176	C	1.211371	0.493865	1.075340
C177	C	1.544704	0.827199	1.408673
C178	C	0.931744	0.106859	0.710625
C179	C	1.265077	0.440193	1.043959
C180	C	1.598411	0.773526	1.377292
H181	H	0.320407	0.104992	0.195999
H182	H	0.653741	0.438326	0.529332
H183	H	0.987074	0.771659	0.862665
C184	C	0.909832	0.257754	0.620925
C185	C	1.243165	0.591087	0.954259
C186	C	1.576498	0.924421	1.287592
N187	N	0.901183	0.317292	0.648217
N188	N	1.234516	0.650625	0.981551
N189	N	1.567849	0.983958	1.314884
H190	H	0.927356	-0.653714	0.156219
H191	H	1.260689	-0.320381	0.489553
H192	H	1.594023	0.012953	0.822886
C193	C	0.159418	0.102312	-0.072329
C194	C	0.492751	0.435645	0.261004
C195	C	0.826085	0.768978	0.594337
N196	N	0.125341	0.101746	-0.129127
N197	N	0.458675	0.435079	0.204206
N198	N	0.792008	0.768412	0.537540
H199	H	0.927411	-0.653700	-0.083313
H200	H	1.260744	-0.320366	0.250020
H201	H	1.594078	0.012967	0.583353
H202	H	0.834320	0.204234	0.843791
H203	H	1.167654	0.537568	1.177124
H204	H	1.500987	0.870901	1.510457
H205	H	0.445663	0.107073	0.137700
H206	H	0.778996	0.440407	0.471034
H207	H	1.112330	0.773740	0.804367
H208	H	0.171136	0.102507	0.186792
H209	H	0.504469	0.435840	0.520126
H210	H	0.837802	0.769173	0.853459
C211	C	1.044516	-0.005860	0.720941
C212	C	1.377849	0.327474	1.054274
C213	C	1.711183	0.660807	1.387608
N214	N	1.089007	-0.050336	0.694942
N215	N	1.422340	0.282997	1.028275
N216	N	1.755674	0.616330	1.361608
H217	H	0.543025	0.108704	-0.092519
H218	H	0.876358	0.442038	0.240815
H219	H	1.209691	0.775371	0.574148
C220	C	0.930031	-0.492697	0.165156
C221	C	1.263364	-0.159364	0.498490
C222	C	1.596698	0.173970	0.831823
N223	N	0.930586	-0.458624	0.217756
N224	N	1.263919	-0.125291	0.551089
N225	N	1.597252	0.208043	0.884422
C226	C	0.704057	0.111397	-0.101459
C227	C	1.037390	0.444731	0.231875
C228	C	1.370723	0.778064	0.565208
N229	N	0.738146	0.111966	-0.154055
N230	N	1.071479	0.445300	0.179278
N231	N	1.404813	0.778633	0.512612
H232	H	0.933533	-0.281871	0.195997
H233	H	1.266866	0.051462	0.529330
H234	H	1.600200	0.384796	0.862663
C235	C	0.332194	0.105177	-0.061677
C236	C	0.665528	0.438510	0.271656
C237	C	0.998861	0.771844	0.604990
N238	N	0.366280	0.105733	-0.114276
N239	N	0.699613	0.439067	0.219058
N240	N	1.032947	0.772400	0.552391
C241	C	0.936276	-0.120822	-0.072328
C242	C	1.269609	0.212511	0.261006
C243	C	1.602942	0.545844	0.594339
N244	N	0.936850	-0.086739	-0.129129
N245	N	1.270183	0.246594	0.204205
N246	N	1.603517	0.579927	0.537538
C247	C	0.933467	-0.293607	-0.061667
C248	C	1.266800	0.039726	0.271666
C249	C	1.600134	0.373060	0.604999
N250	N	0.932990	-0.327693	-0.114259
N251	N	1.266324	0.005640	0.219074
N252	N	1.599657	0.338974	0.552408
H253	H	0.950636	-0.023508	0.491969
H254	H	1.283970	0.309825	0.825302
H255	H	1.617303	0.643159	1.158635
H256	H	0.417767	0.106619	-0.034225
H257	H	0.751101	0.439952	0.299108
H258	H	1.084434	0.773285	0.632441
C259	C	0.936217	-0.120840	0.204937
C260	C	1.269550	0.212493	0.538270
C261	C	1.602883	0.545826	0.871603
N262	N	0.936773	-0.086763	0.257533
N263	N	1.270107	0.246571	0.590866
N264	N	1.603440	0.579904	0.924200
C265	C	1.044469	-0.005870	0.250731
C266	C	1.377802	0.327464	0.584064
C267	C	1.711135	0.660797	0.917397
N268	N	1.088959	-0.050348	0.224733
N269	N	1.422293	0.282985	0.558066
N270	N	1.755626	0.616318	0.891400
C271	C	1.044492	-0.005854	0.410802
C272	C	1.377826	0.327479	0.744135
C273	C	1.711159	0.660812	1.077468
N274	N	1.089002	-0.050313	0.447954
N275	N	1.422336	0.283020	0.781287
N276	N	1.755669	0.616354	1.114621
C277	C	0.531239	0.108528	0.165149
C278	C	0.864572	0.441861	0.498483
C279	C	1.197905	0.775195	0.831816
N280	N	0.497149	0.107978	0.217746
N281	N	0.830482	0.441311	0.551079
N282	N	1.163816	0.774644	0.884412
H283	H	0.950646	-0.023503	0.630261
H284	H	1.283979	0.309830	0.963594
H285	H	1.617312	0.643163	1.296927
H286	H	0.931954	-0.379182	-0.034222
H287	H	1.265287	-0.045848	0.299111
H288	H	1.598621	0.287485	0.632445
H289	H	0.929898	-0.504426	-0.092520
H290	H	1.263231	-0.171093	0.240814
H291	H	1.596564	0.162241	0.574147
H292	H	0.931468	-0.407116	0.137704
H293	H	1.264801	-0.073783	0.471037
H294	H	1.598134	0.259550	0.804371
H295	H	1.029176	0.009478	0.868199
H296	H	1.362509	0.342812	1.201532
H297	H	1.695843	0.676145	1.534866
C298	C	0.704013	0.111396	0.175805
C299	C	1.037346	0.444729	0.509139
C300	C	1.370680	0.778062	0.842472
N301	N	0.738083	0.111958	0.232606
N302	N	1.071417	0.445292	0.565940
N303	N	1.404750	0.778625	0.899273
H304	H	0.834309	0.204234	0.705498
H305	H	1.167642	0.537568	1.038832
H306	H	1.500975	0.870901	1.372165
C307	C	0.909827	0.257752	0.460858
C308	C	1.243160	0.591085	0.794191
C309	C	1.576494	0.924419	1.127524
N310	N	0.901190	0.317287	0.425003
N311	N	1.234524	0.650620	0.758336
N312	N	1.567857	0.983954	1.091670
H313	H	0.834251	0.204218	0.235284
H314	H	1.167585	0.537552	0.568617
H315	H	1.500918	0.870885	0.901950
H316	H	0.834275	0.204222	0.373578
H317	H	1.167609	0.537555	0.706911
H318	H	1.500942	0.870889	1.040245
