data_functionalizedCrystal
_audit_creation_method	'MofGen! by Chris Wilmer'
_symmetry_space_group_name_H-M	'P1'
_symmetry_Int_Tables_number	1
_symmetry_cell_setting	triclinic
loop_
_symmetry_equiv_pos_as_xyz
  x,y,z
_cell_length_a	14.971486
_cell_length_b	14.519709
_cell_length_c	13.448316
_cell_angle_alpha	89.992453
_cell_angle_beta	89.998199
_cell_angle_gamma	83.647137
loop_
_atom_site_label
_atom_site_type_symbol
_atom_site_fract_x
_atom_site_fract_y
_atom_site_fract_z
O1	O	1.187015	0.120184	-0.082580
O2	O	0.926623	0.134576	-0.082607
O3	O	1.063723	-0.006863	-0.082584
O4	O	1.049915	0.261623	-0.082603
O5	O	1.063706	-0.006871	0.082800
O6	O	0.926606	0.134567	0.082777
O7	O	1.186998	0.120175	0.082804
Cu8	Cu	1.056800	0.127371	0.097891
Cu9	Cu	1.056820	0.127381	-0.097694
O10	O	1.049898	0.261614	0.082781
C11	C	0.893289	0.133928	0.000082
C12	C	0.793991	0.131999	0.000071
C13	C	0.736812	0.215091	0.000067
C14	C	0.643512	0.213273	0.000082
C15	C	0.607392	0.128363	0.000094
C16	C	0.664578	0.045265	0.000102
C17	C	0.757876	0.047084	0.000094
C18	C	0.470113	0.041480	0.000116
C19	C	0.376808	0.039661	0.000122
C20	C	0.355749	0.207669	0.000104
C21	C	0.449047	0.209488	0.000096
C22	C	0.506227	0.126390	0.000101
C23	C	1.063071	-0.041226	0.000108
C24	C	1.061142	-0.143606	0.000109
C25	C	1.054043	-0.518498	0.000082
C26	C	1.056015	-0.414191	0.000090
C27	C	1.057593	-0.331055	0.000096
C28	C	1.059564	-0.226742	0.000102
C29	C	1.220331	0.120823	0.000113
C30	C	1.319630	0.122752	0.000117
C31	C	1.050550	0.295978	0.000087
C32	C	1.052478	0.398358	0.000080
N33	N	1.056792	0.127363	0.235456
N34	N	1.056835	0.127381	-0.235258
C35	C	1.117519	0.064759	0.287506
C36	C	1.117525	0.064759	0.391610
C37	C	1.056807	0.127366	0.443660
C38	C	0.996074	0.189973	0.391602
C39	C	0.996065	0.189968	0.287501
C40	C	0.996099	0.189979	0.608582
C41	C	0.996109	0.189985	0.712691
C42	C	1.117559	0.064769	0.712691
C43	C	1.117549	0.064765	0.608590
C44	C	1.056817	0.127373	0.556539
H45	H	0.804431	-0.020578	0.000097
H46	H	0.478453	0.278629	0.000076
O47	O	1.176519	0.003823	0.763135
C48	C	1.161832	-0.087500	0.737731
H49	H	1.127346	-0.087448	0.662154
H50	H	1.228996	-0.132794	0.734162
H51	H	1.117279	-0.116103	0.796334
O52	O	0.525623	-0.039265	-0.000060
C53	C	0.509211	-0.090813	-0.085698
H54	H	0.477394	-0.042156	-0.145562
H55	H	0.575344	-0.127714	-0.114457
H56	H	0.461627	-0.144251	-0.066327
H57	H	0.946665	0.240965	0.755065
O58	O	0.341571	-0.042739	0.000104
C59	C	0.246962	-0.026521	0.000133
H60	H	0.225172	0.045421	-0.031199
H61	H	0.218223	-0.080864	-0.047862
H62	H	0.220987	-0.031004	0.079480
O63	O	0.629642	-0.037298	0.000155
C64	C	0.700120	-0.110247	0.000131
H65	H	0.763539	-0.084327	0.031440
H66	H	0.680530	-0.169528	0.048149
H67	H	0.713281	-0.135875	-0.079211
H68	H	0.946641	0.240958	0.566206
O69	O	1.176535	0.003853	0.237103
C70	C	1.230148	-0.051388	0.305373
H71	H	1.193482	-0.052487	0.379585
H72	H	1.243677	-0.125017	0.275309
H73	H	1.296639	-0.021329	0.316429
O74	O	0.300082	0.288307	0.000142
C75	C	0.209988	0.268499	0.000129
H76	H	0.206296	0.196060	0.031457
H77	H	0.167806	0.321461	0.048135
H78	H	0.183011	0.271958	-0.079213
H79	H	1.166972	0.013782	0.433989
O80	O	0.937055	0.250662	0.442273
C81	C	0.881794	0.201178	0.502492
H82	H	0.917308	0.129074	0.518094
H83	H	0.867713	0.239650	0.575691
H84	H	0.815676	0.194797	0.462386
H85	H	0.766213	0.284234	0.000056
H86	H	1.166994	0.013790	0.566210
O87	O	0.937043	0.250873	0.237090
C88	C	0.883440	0.306119	0.305351
H89	H	0.920118	0.307229	0.379552
H90	H	0.869904	0.379745	0.275258
H91	H	0.816953	0.276059	0.316440
H92	H	0.596960	0.280934	0.000077
