data_functionalizedCrystal
_audit_creation_method	'MofGen! by Chris Wilmer'
_symmetry_space_group_name_H-M	'P1'
_symmetry_Int_Tables_number	1
_symmetry_cell_setting	triclinic
loop_
_symmetry_equiv_pos_as_xyz
  x,y,z
_cell_length_a	14.809374
_cell_length_b	12.970454
_cell_length_c	12.970454
_cell_angle_alpha	59.999776
_cell_angle_beta	89.999789
_cell_angle_gamma	52.847328
loop_
_atom_site_label
_atom_site_type_symbol
_atom_site_fract_x
_atom_site_fract_y
_atom_site_fract_z
Zr1	Zr	0.991004	0.879513	-0.010801
O2	O	0.826748	1.135875	-0.196062
O3	O	1.041357	0.651771	0.045993
O4	O	1.041358	0.866860	-0.169098
O5	O	0.826745	0.920787	0.188695
O6	O	1.210647	0.824323	-0.147830
O7	O	0.826746	0.920786	0.019029
O8	O	1.210644	0.439568	0.236928
O9	O	0.826748	1.305543	-0.196063
O10	O	1.189170	0.703100	0.086086
O11	O	1.062831	0.734846	0.196833
O12	O	1.062833	0.988086	-0.056408
O13	O	0.936494	1.019831	0.054340
Zr14	Zr	1.260997	0.811674	0.293718
Zr15	Zr	1.260999	0.811672	0.023120
Zr16	Zr	0.991002	0.879515	0.259798
Zr17	Zr	0.991004	1.150113	-0.010802
Zr18	Zr	1.260997	0.541074	0.293720
O19	O	1.210644	1.039417	0.236925
O20	O	1.210647	1.039414	-0.147831
O21	O	0.826745	1.135878	0.188694
O22	O	1.425253	0.555312	0.478979
O23	O	1.425256	0.555310	0.094224
O24	O	1.041354	0.651773	0.430748
O25	O	1.425256	0.770400	0.094222
O26	O	1.210643	0.824328	0.452016
O27	O	1.041354	0.866864	0.430747
O28	O	1.425254	0.770402	0.263889
O29	O	1.041358	1.251618	-0.169100
O30	O	1.210642	0.439569	0.452018
O31	O	1.425253	0.385645	0.478980
O32	O	1.425254	0.385643	0.263891
O33	O	0.826746	1.305544	0.019027
O34	O	1.041357	1.251620	0.045989
O35	O	1.189168	0.703102	0.339326
O36	O	1.315507	0.671357	0.228578
O37	O	1.189170	0.956342	0.086084
O38	O	1.062831	0.988087	0.196832
C39	C	1.126000	0.507115	0.141461
C40	C	1.126000	0.392238	0.141461
C41	C	0.788277	0.930453	0.099029
C42	C	0.673657	0.959253	0.084629
C43	C	0.685228	0.830721	0.148895
C44	C	0.566763	0.860484	0.134014
C45	C	1.463724	0.760735	0.183889
C46	C	1.578344	0.731935	0.198289
C47	C	1.126003	0.845591	-0.197018
C48	C	1.126004	0.845591	-0.311894
C49	C	1.126000	1.184073	0.141457
C50	C	1.126000	1.298950	0.141457
C51	C	1.125998	0.845596	0.479936
C52	C	1.125997	0.845597	0.594812
C53	C	1.463724	0.422256	0.183890
C54	C	1.578344	0.278579	0.198291
C55	C	1.125998	0.507117	0.479938
C56	C	1.125997	0.392241	0.594814
C57	C	1.463721	0.422258	0.522368
C58	C	1.578341	0.278582	0.651644
C59	C	0.788280	1.268929	-0.239450
C60	C	0.673660	1.412606	-0.368727
C61	C	0.788277	1.268932	0.099027
C62	C	0.673657	1.412609	0.084627
C63	C	1.126003	1.184071	-0.197020
C64	C	1.126004	1.298947	-0.311897
C65	C	1.566224	0.227676	0.130663
C66	C	1.673911	0.092694	0.144168
C67	C	1.793717	0.008609	0.225308
C68	C	1.805835	0.059523	0.292938
C69	C	1.698149	0.194510	0.279426
C70	C	1.698126	0.194536	0.654547
C71	C	1.805833	0.059550	0.776007
C72	C	1.793752	0.008604	0.894564
C73	C	1.673954	0.092663	0.891657
C74	C	1.566250	0.227655	0.770199
C75	C	0.553875	1.496664	-0.371629
C76	C	0.446168	1.631685	-0.493089
C77	C	0.458248	1.682636	-0.611646
C78	C	0.578046	1.598570	-0.608740
C79	C	0.685751	1.463560	-0.487281
C80	C	0.685777	1.463523	0.152243
C81	C	0.578090	1.598535	0.138709
C82	C	0.458283	1.682623	0.057565
C83	C	0.446166	1.631705	-0.010060
C84	C	0.553852	1.496702	0.003467
H85	H	0.782836	0.698645	0.214939
H86	H	0.675952	0.599849	0.264338
Cl87	Cl	0.322917	1.852337	0.040576
H88	H	0.783320	1.395067	0.218327
Cl89	Cl	0.522961	1.163175	-0.017325
Cl90	Cl	1.929167	-0.161108	1.047246
Cl91	Cl	1.415623	0.333364	0.028642
Cl92	Cl	1.713407	0.258473	0.364466
H93	H	1.664020	0.051260	0.089093
Cl94	Cl	1.713346	0.258561	0.505521
H95	H	0.469154	0.992569	0.067973
Cl96	Cl	1.415667	0.333289	0.766573
Cl97	Cl	0.538654	1.432641	-0.222603
Cl98	Cl	0.322834	1.852366	-0.764328
Cl99	Cl	1.929084	-0.161092	0.242284
H100	H	1.903395	-0.008959	0.359002
Cl101	Cl	0.836334	1.357890	-0.483655
H102	H	0.348605	1.700190	-0.076128
H103	H	1.664137	0.051163	0.988203
Cl104	Cl	0.538594	1.432705	-0.081539
H105	H	1.903368	-0.008879	0.778350
H106	H	0.348634	1.700112	-0.495430
H107	H	0.587868	1.640072	-0.705283
H108	H	0.587980	1.639968	0.193785
