data_functionalizedCrystal
_audit_creation_method	'MofGen! by Chris Wilmer'
_symmetry_space_group_name_H-M	'P1'
_symmetry_Int_Tables_number	1
_symmetry_cell_setting	triclinic
loop_
_symmetry_equiv_pos_as_xyz
  x,y,z
_cell_length_a	16.109302
_cell_length_b	14.586319
_cell_length_c	16.109301
_cell_angle_alpha	89.994230
_cell_angle_beta	96.538369
_cell_angle_gamma	90.006080
loop_
_atom_site_label
_atom_site_type_symbol
_atom_site_fract_x
_atom_site_fract_y
_atom_site_fract_z
O1	O	1.103131	0.076284	-0.106870
O2	O	1.436464	0.409618	0.226464
O3	O	1.769798	0.742951	0.559797
O4	O	0.861069	0.076278	-0.120168
O5	O	1.194403	0.409611	0.213165
O6	O	1.527736	0.742944	0.546498
O7	O	0.988750	0.076272	0.007512
O8	O	1.322083	0.409605	0.340845
O9	O	1.655416	0.742939	0.674179
O10	O	0.975451	0.076290	-0.234550
O11	O	1.308784	0.409624	0.098783
O12	O	1.642117	0.742957	0.432117
O13	O	0.988740	-0.076209	0.007515
O14	O	1.322073	0.257124	0.340848
O15	O	1.655406	0.590458	0.674182
O16	O	0.861059	-0.076203	-0.120165
O17	O	1.194392	0.257130	0.213168
O18	O	1.527726	0.590463	0.546501
O19	O	1.103121	-0.076196	-0.106867
O20	O	1.436454	0.257137	0.226467
O21	O	1.769788	0.590470	0.559800
Cu22	Cu	0.982089	-0.090122	-0.113516
Cu23	Cu	1.315422	0.243211	0.219818
Cu24	Cu	1.648756	0.576544	0.553151
Cu25	Cu	0.982101	0.090204	-0.113519
Cu26	Cu	1.315434	0.423537	0.219814
Cu27	Cu	1.648768	0.756870	0.553147
O28	O	0.975440	-0.076191	-0.234547
O29	O	1.308774	0.257143	0.098786
O30	O	1.642107	0.590476	0.432120
C31	C	0.830089	0.000036	-0.119628
C32	C	1.163423	0.333370	0.213705
C33	C	1.496756	0.666703	0.547039
C34	C	0.737794	0.000033	-0.118013
C35	C	1.071127	0.333367	0.215321
C36	C	1.404461	0.666700	0.548654
N37	N	0.982087	-0.216954	-0.113513
N38	N	1.315420	0.116379	0.219821
N39	N	1.648753	0.449712	0.553154
C40	C	1.038646	-0.547951	-0.056994
C41	C	1.371979	-0.214617	0.276339
C42	C	1.705312	0.118716	0.609672
C43	C	1.038643	-0.451969	-0.056995
C44	C	1.371977	-0.118636	0.276339
C45	C	1.705310	0.214697	0.609672
C46	C	0.925548	-0.451975	-0.170040
C47	C	1.258882	-0.118642	0.163293
C48	C	1.592215	0.214692	0.496627
C49	C	0.925555	-0.547954	-0.170043
C50	C	1.258888	-0.214621	0.163290
C51	C	1.592222	0.118712	0.496624
C52	C	0.982103	-0.595940	-0.113515
C53	C	1.315436	-0.262606	0.219818
C54	C	1.648769	0.070727	0.553151
C55	C	0.982094	-0.403979	-0.113513
C56	C	1.315427	-0.070646	0.219820
C57	C	1.648761	0.262688	0.553154
C58	C	0.982091	-0.299912	-0.113514
C59	C	1.315425	0.033421	0.219820
C60	C	1.648758	0.366755	0.553153
C61	C	0.982107	-0.700014	-0.113515
C62	C	1.315440	-0.366680	0.219818
C63	C	1.648773	-0.033347	0.553151
C64	C	0.525447	-0.083075	-0.114276
C65	C	0.858781	0.250258	0.219058
C66	C	1.192114	0.583591	0.552391
C67	C	0.438727	-0.083072	-0.112749
C68	C	0.772061	0.250261	0.220584
C69	C	1.105394	0.583595	0.553918
C70	C	0.438749	0.083171	-0.112757
C71	C	0.772082	0.416504	0.220577
C72	C	1.105416	0.749838	0.553910
C73	C	0.525468	0.083167	-0.114277
C74	C	0.858802	0.416500	0.219056
C75	C	1.192135	0.749833	0.552389
C76	C	0.568815	0.000041	-0.115041
C77	C	0.902148	0.333374	0.218292
C78	C	1.235481	0.666708	0.551626
C79	C	0.395375	0.000048	-0.111994
C80	C	0.728709	0.333382	0.221340
C81	C	1.062042	0.666715	0.554673
C82	C	0.301350	0.000052	-0.110338
C83	C	0.634683	0.333385	0.222995
C84	C	0.968016	0.666719	0.556328
C85	C	0.662847	0.000037	-0.116695
C86	C	0.996180	0.333370	0.216638
C87	C	1.329513	0.666703	0.549972
C88	C	1.134101	0.000047	-0.107407
C89	C	1.467434	0.333380	0.225926
C90	C	1.800768	0.666714	0.559260
C91	C	1.226396	0.000056	-0.109022
C92	C	1.559729	0.333389	0.224311
C93	C	1.893063	0.666723	0.557644
C94	C	0.988206	0.000031	0.038488
C95	C	1.321539	0.333364	0.371822
C96	C	1.654873	0.666698	0.705155
C97	C	0.986591	0.000030	0.130784
C98	C	1.319924	0.333363	0.464117
C99	C	1.653258	0.666696	0.797450
N100	N	0.982110	0.217035	-0.113516
N101	N	1.315443	0.550369	0.219818
N102	N	1.648777	0.883702	0.553151
C103	C	0.975984	0.000052	-0.265523
C104	C	1.309317	0.333386	0.067810
C105	C	1.642651	0.666719	0.401143
C106	C	0.977599	0.000060	-0.357819
C107	C	1.310933	0.333393	-0.024485
C108	C	1.644266	0.666726	0.308848
C109	C	1.058599	0.000046	0.353056
C110	C	1.391932	0.333380	0.686389
C111	C	1.725265	0.666713	1.019723
C112	C	1.057074	0.000054	0.439776
C113	C	1.390408	0.333387	0.773110
C114	C	1.723741	0.666720	1.106443
C115	C	0.905586	0.000046	0.419902
C116	C	1.238919	0.333379	0.753236
C117	C	1.572252	0.666712	1.086569
C118	C	0.907111	0.000045	0.333184
C119	C	1.240444	0.333378	0.666517
C120	C	1.573777	0.666712	0.999850
C121	C	0.983620	0.000040	0.299763
C122	C	1.316953	0.333374	0.633096
C123	C	1.650286	0.666707	0.966430
C124	C	0.980571	0.000049	0.473202
C125	C	1.313904	0.333382	0.806535
C126	C	1.647237	0.666716	1.139869
C127	C	0.978918	0.000057	0.567228
C128	C	1.312251	0.333390	0.900562
C129	C	1.645584	0.666724	1.233895
C130	C	0.985273	0.000034	0.205731
C131	C	1.318606	0.333367	0.539064
C132	C	1.651940	0.666701	0.872398
H133	H	1.084691	-0.587018	-0.010967
H134	H	1.418024	-0.253685	0.322366
H135	H	1.751358	0.079649	0.655699
O136	O	0.391987	0.172819	-0.111938
O137	O	0.725320	0.506153	0.221396
O138	O	1.058654	0.839486	0.554729
H139	H	0.416057	0.212668	-0.055593
H140	H	0.749390	0.546002	0.277741
H141	H	1.082723	0.879335	0.611074
H142	H	1.118130	0.000060	0.483165
H143	H	1.451463	0.333394	0.816498
H144	H	1.784797	0.666727	1.149831
H145	H	0.843295	0.000048	0.447124
H146	H	1.176628	0.333381	0.780458
H147	H	1.509962	0.666714	1.113791
O148	O	0.826237	0.000028	0.275693
O149	O	1.159571	0.333362	0.609026
O150	O	1.492904	0.666695	0.942360
H151	H	0.772780	0.000015	0.313500
H152	H	1.106113	0.333348	0.646833
H153	H	1.439446	0.666681	0.980166
H154	H	0.560738	-0.150762	-0.114898
H155	H	0.894071	0.182572	0.218436
H156	H	1.227404	0.515905	0.551769
O157	O	0.572253	0.172817	-0.115106
O158	O	0.905586	0.506151	0.218227
O159	O	1.238919	0.839484	0.551561
H160	H	0.527542	0.230621	-0.114332
H161	H	0.860875	0.563954	0.219001
H162	H	1.194209	0.897287	0.552334
H163	H	1.084687	-0.412899	-0.010971
H164	H	1.418020	-0.079566	0.322362
H165	H	1.751353	0.253767	0.655696
H166	H	0.879511	-0.587030	-0.216073
H167	H	1.212844	-0.253696	0.117260
H168	H	1.546177	0.079637	0.450593
O169	O	0.864536	-0.400221	-0.230985
O170	O	1.197869	-0.066888	0.102348
O171	O	1.531203	0.266446	0.435682
H172	H	0.874017	-0.325417	-0.221476
H173	H	1.207351	0.007916	0.111857
H174	H	1.540684	0.341249	0.445190
H175	H	0.403422	-0.150754	-0.112126
H176	H	0.736755	0.182580	0.221207
H177	H	1.070088	0.515913	0.554541
O178	O	1.141114	0.000060	0.317004
O179	O	1.474447	0.333393	0.650338
O180	O	1.807781	0.666727	0.983671
H181	H	1.192995	0.000077	0.368635
H182	H	1.526328	0.333411	0.701969
H183	H	1.859661	0.666744	1.035302
