data_functionalizedCrystal
_audit_creation_method	'MofGen! by Chris Wilmer'
_symmetry_space_group_name_H-M	'P1'
_symmetry_Int_Tables_number	1
_symmetry_cell_setting	triclinic
loop_
_symmetry_equiv_pos_as_xyz
  x,y,z
_cell_length_a	19.121215
_cell_length_b	29.839131
_cell_length_c	19.120904
_cell_angle_alpha	87.598232
_cell_angle_beta	90.126793
_cell_angle_gamma	92.468360
loop_
_atom_site_label
_atom_site_type_symbol
_atom_site_fract_x
_atom_site_fract_y
_atom_site_fract_z
Zn1	Zn	1.054826	-0.162214	0.442187
Zn2	Zn	1.554826	0.337786	0.942187
Zn3	Zn	1.059727	-0.234009	0.324928
Zn4	Zn	1.559727	0.265991	0.824928
Zn5	Zn	0.942593	-0.161946	0.319952
Zn6	Zn	1.442593	0.338054	0.819952
Zn7	Zn	0.937534	-0.240372	0.437108
Zn8	Zn	1.437534	0.259628	0.937108
O9	O	0.998670	-0.199635	0.381044
O10	O	1.498670	0.300365	0.881044
O11	O	1.153585	-0.169187	0.430840
O12	O	1.653585	0.330813	0.930840
O13	O	1.048357	-0.221674	0.226165
O14	O	1.548357	0.278326	0.726165
O15	O	0.957547	-0.099114	0.336210
O16	O	1.457547	0.400886	0.836210
O17	O	1.157185	-0.221934	0.344691
O18	O	1.657185	0.278066	0.844691
O19	O	1.040005	-0.099311	0.426015
O20	O	1.540005	0.400689	0.926015
O21	O	0.962299	-0.168730	0.222509
O22	O	1.462299	0.331270	0.722509
O23	O	0.843814	-0.174901	0.331285
O24	O	1.343814	0.325099	0.831285
O25	O	0.948925	-0.232779	0.535885
O26	O	1.448925	0.267221	1.035885
O27	O	0.840097	-0.232520	0.417359
O28	O	1.340097	0.267480	0.917359
O29	O	1.035099	-0.175357	0.539616
O30	O	1.535099	0.324643	1.039616
O31	O	1.043452	-0.297721	0.339766
O32	O	1.543452	0.202279	0.839766
O33	O	0.953677	-0.302396	0.422184
O34	O	1.453677	0.197604	0.922184
C35	C	0.816517	-0.204372	0.373231
C36	C	1.316517	0.295628	0.873231
C37	C	0.738590	-0.206410	0.369906
C38	C	1.238590	0.293590	0.869906
C39	C	0.297945	-0.219311	0.348867
C40	C	0.797945	0.280689	0.848867
C41	C	0.371166	-0.217394	0.351986
C42	C	0.871166	0.282606	0.851986
C43	C	0.405901	-0.189021	0.398472
C44	C	0.905901	0.310979	0.898472
C45	C	0.367411	-0.162561	0.441837
C46	C	0.867411	0.337439	0.941837
C47	C	0.294192	-0.164477	0.438713
C48	C	0.794192	0.335523	0.938713
C49	C	0.626881	-0.181865	0.410147
C50	C	1.126881	0.318135	0.910147
C51	C	0.700106	-0.179953	0.413269
C52	C	1.200106	0.320047	0.913269
C53	C	0.703856	-0.234785	0.323417
C54	C	1.203856	0.265215	0.823417
C55	C	0.630635	-0.236700	0.320300
C56	C	1.130635	0.263300	0.820300
C57	C	0.592152	-0.210238	0.363662
C58	C	1.092152	0.289762	0.863662
C59	C	0.480744	-0.187062	0.401663
C60	C	0.980744	0.312938	0.901663
C61	C	0.517310	-0.212195	0.360467
C62	C	1.017310	0.287805	0.860467
C63	C	0.998566	-0.316359	0.380980
C64	C	1.498566	0.183641	0.880980
C65	C	0.998584	-0.366293	0.380979
C66	C	1.498584	0.133707	0.880979
C67	C	1.041593	-0.676005	0.427869
C68	C	1.541593	-0.176005	0.927869
C69	C	1.041668	-0.863677	0.427914
C70	C	1.541668	-0.363677	0.927914
O71	O	1.078133	-0.888002	0.467733
O72	O	1.578133	-0.388002	0.967733
N73	N	0.998786	-0.887076	0.381127
N74	N	1.498786	-0.387076	0.881127
C75	C	0.955879	-0.863555	0.334327
C76	C	1.455879	-0.363555	0.834327
O77	O	0.919402	-0.887763	0.294538
O78	O	1.419402	-0.387763	0.794538
C79	C	0.955802	-0.675883	0.334286
C80	C	1.455802	-0.175883	0.834286
C81	C	0.998692	-0.652487	0.381072
C82	C	1.498692	-0.152487	0.881072
C83	C	1.084479	-0.652608	0.474651
C84	C	1.584479	-0.152608	0.974651
C85	C	1.084463	-0.605693	0.474637
C86	C	1.584463	-0.105693	0.974637
C87	C	1.041561	-0.582174	0.427840
C88	C	1.541561	-0.082174	0.927840
C89	C	0.998675	-0.605571	0.381058
C90	C	1.498675	-0.105571	0.881058
C91	C	0.912892	-0.652363	0.287491
C92	C	1.412892	-0.152363	0.787491
C93	C	0.912875	-0.605442	0.287486
C94	C	1.412875	-0.105442	0.787486
C95	C	0.955765	-0.582045	0.334272
C96	C	1.455765	-0.082045	0.834272
C97	C	0.955757	-0.535137	0.334246
C98	C	1.455757	-0.035137	0.834246
N99	N	0.998639	-0.511738	0.381034
N100	N	1.498639	-0.011738	0.881034
C101	C	1.041541	-0.535257	0.427831
C102	C	1.541541	-0.035257	0.927831
C103	C	0.955924	-0.962085	0.334352
C104	C	1.455924	-0.462085	0.834352
C105	C	0.955944	-1.009002	0.334361
C106	C	1.455944	-0.509002	0.834361
C107	C	1.041732	-1.009122	0.427949
C108	C	1.541732	-0.509122	0.927949
C109	C	1.041715	-0.962203	0.427936
C110	C	1.541715	-0.462203	0.927936
C111	C	0.998806	-0.938686	0.381139
C112	C	1.498806	-0.438686	0.881139
C113	C	1.041504	-0.436731	0.427797
C114	C	1.541504	0.063269	0.927797
C115	C	1.041486	-0.389811	0.427776
C116	C	1.541486	0.110189	0.927776
C117	C	0.955696	-0.389696	0.334191
C118	C	1.455696	0.110304	0.834191
C119	C	0.955716	-0.436612	0.334209
C120	C	1.455716	0.063388	0.834209
C121	C	0.998622	-0.460128	0.381017
C122	C	1.498622	0.039872	0.881017
O123	O	0.919306	-0.510784	0.294453
O124	O	1.419306	-0.010784	0.794453
O125	O	1.078001	-0.511041	0.467625
O126	O	1.578001	-0.011041	0.967625
C127	C	1.041610	-0.722921	0.427883
C128	C	1.541610	-0.222921	0.927883
C129	C	0.998724	-0.746317	0.381101
C130	C	1.498724	-0.246317	0.881101
C131	C	0.955822	-0.722799	0.334304
C132	C	1.455822	-0.222799	0.834304
C133	C	0.998744	-0.793235	0.381110
C134	C	1.498744	-0.293235	0.881110
C135	C	1.041646	-0.816754	0.427907
C136	C	1.541646	-0.316754	0.927907
C137	C	1.084528	-0.793355	0.474695
C138	C	1.584528	-0.293355	0.974695
C139	C	1.084511	-0.746439	0.474680
C140	C	1.584511	-0.246439	0.974680
C141	C	0.912940	-0.746198	0.287516
C142	C	1.412940	-0.246198	0.787516
C143	C	0.912961	-0.793113	0.287534
C144	C	1.412961	-0.293113	0.787534
C145	C	0.955863	-0.816632	0.334331
C146	C	1.455863	-0.316632	0.834331
C147	C	1.181535	-0.194880	0.388887
C148	C	1.681535	0.305120	0.888887
C149	C	1.259461	-0.192854	0.392229
C150	C	1.759461	0.307146	0.892229
C151	C	0.990901	-0.204808	0.563899
C152	C	1.490901	0.295192	1.063899
C153	C	0.987591	-0.207012	0.641821
C154	C	1.487591	0.292988	1.141821
C155	C	0.998793	-0.082456	0.381124
C156	C	1.498793	0.417544	0.881124
C157	C	0.998846	-0.032521	0.381158
C158	C	1.498846	0.467479	0.881158
C159	C	1.006449	-0.194449	0.198902
C160	C	1.506449	0.305551	0.698902
C161	C	1.009896	-0.192115	0.120986
C162	C	1.509896	0.307885	0.620986
C163	C	1.030899	-0.178152	0.680373
C164	C	1.530899	0.321848	1.180373
C165	C	1.027780	-0.180222	0.753589
C166	C	1.527780	0.319778	1.253589
C167	C	0.981355	-0.211154	0.788251
C168	C	1.481355	0.288846	1.288251
C169	C	0.938042	-0.240015	0.749694
C170	C	1.438042	0.259985	1.249694
C171	C	0.941158	-0.237943	0.676480
C172	C	1.441158	0.262057	1.176480
C173	C	0.969699	-0.218904	1.009214
C174	C	1.469699	0.281096	1.509214
C175	C	0.966587	-0.220975	1.082434
C176	C	1.466587	0.279025	1.582434
C177	C	1.056325	-0.161181	1.086323
C178	C	1.556325	0.338819	1.586323
C179	C	1.059440	-0.159113	1.013107
C180	C	1.559440	0.340887	1.513107
C181	C	1.016124	-0.187973	0.974557
C182	C	1.516124	0.312027	1.474557
C183	C	0.978167	-0.213271	0.863090
C184	C	1.478167	0.286729	1.363090
C185	C	1.019309	-0.185853	0.899720
C186	C	1.519309	0.314147	1.399720
H187	H	0.602359	-0.259803	0.282445
H188	H	1.102359	0.240197	0.782445
C189	C	0.584559	-0.152760	0.457852
C190	C	1.084559	0.347240	0.957852
N191	N	0.552679	-0.130837	0.493787
N192	N	1.052679	0.369163	0.993787
C193	C	0.886967	-0.274036	0.787826
C194	C	1.386967	0.225964	1.287826
N195	N	0.848496	-0.299662	0.816545
N196	N	1.348496	0.200338	1.316545
C197	C	0.922047	-0.250649	0.966818
C198	C	1.422047	0.249351	1.466818
N199	N	0.886153	-0.274561	0.934882
N200	N	1.386153	0.225439	1.434882
H201	H	0.940371	-0.238458	0.891320
H202	H	1.440371	0.261542	1.391320
H203	H	1.076665	-1.028279	0.466052
H204	H	1.576665	-0.528279	0.966052
C205	C	1.075424	-0.148474	0.795992
C206	C	1.575424	0.351526	1.295992
N207	N	1.111312	-0.124560	0.827930
N208	N	1.611312	0.375440	1.327930
H209	H	1.119414	-0.671752	0.512763
H210	H	1.619414	-0.171752	1.012763
H211	H	1.119385	-0.586646	0.512736
H212	H	1.619385	-0.086646	1.012736
C213	C	1.088893	-0.936471	0.479406
C214	C	1.588893	-0.436471	0.979406
N215	N	1.124429	-0.917092	0.518177
N216	N	1.624429	-0.417092	1.018177
H217	H	0.920768	-0.370540	0.296087
H218	H	1.420768	0.129460	0.796087
H219	H	0.905885	-0.261439	0.645091
H220	H	1.405885	0.238561	1.145091
H221	H	1.119462	-0.812511	0.512796
H222	H	1.619462	-0.312511	1.012796
H223	H	1.119436	-0.727393	0.512778
H224	H	1.619436	-0.227393	1.012778
H225	H	0.269670	-0.242417	0.311016
H226	H	0.769670	0.257583	0.811016
H227	H	1.057105	-0.160667	0.871494
H228	H	1.557105	0.339333	1.371494
H229	H	0.921027	-1.028048	0.296256
H230	H	1.421027	-0.528048	0.796256
C231	C	0.479100	-0.243404	0.309334
C232	C	0.979100	0.256596	0.809334
N233	N	0.450313	-0.266912	0.270823
N234	N	0.950313	0.233088	0.770823
H235	H	0.402497	-0.238937	0.316674
H236	H	0.902497	0.261063	0.816674
C237	C	0.908540	-0.462348	0.282738
C238	C	1.408540	0.037652	0.782738
N239	N	0.873000	-0.481731	0.243975
N240	N	1.373000	0.018269	0.743975
C241	C	1.110504	-0.125081	0.974984
C242	C	1.610504	0.374919	1.474984
N243	N	1.148965	-0.099448	0.946269
N244	N	1.648965	0.400552	1.446269
H245	H	0.920981	-0.942940	0.296243
H246	H	1.420981	-0.442940	0.796243
C247	C	1.081970	-0.144124	0.642251
C248	C	1.581970	0.355876	1.142251
N249	N	1.120436	-0.118491	0.613539
N250	N	1.620436	0.381509	1.113539
C251	C	0.865704	-0.678089	0.236026
C252	C	1.365704	-0.178089	0.736026
N253	N	0.830157	-0.697465	0.197262
N254	N	1.330157	-0.197465	0.697262
H255	H	0.395698	-0.139458	0.479684
H256	H	0.895698	0.360542	0.979684
C257	C	0.746193	-0.263886	0.275714
C258	C	1.246193	0.236114	0.775714
N259	N	0.778082	-0.285803	0.239779
N260	N	1.278082	0.214197	0.739779
H261	H	0.509033	-0.163962	0.439514
H262	H	1.009033	0.336038	0.939514
H263	H	1.076415	-0.370763	0.465875
H264	H	1.576415	0.129237	0.965875
C265	C	0.738312	-0.148739	0.464408
C266	C	1.238312	0.351261	0.964408
N267	N	0.767089	-0.125230	0.502925
N268	N	1.267089	0.374770	1.002925
H269	H	0.877931	-0.586296	0.249379
H270	H	1.377931	-0.086296	0.749379
H271	H	1.091589	-0.137685	1.117719
H272	H	1.591589	0.362315	1.617719
H273	H	0.262858	-0.142931	0.474022
H274	H	0.762858	0.357069	0.974022
H275	H	0.878036	-0.812159	0.249429
H276	H	1.378036	-0.312159	0.749429
C277	C	1.088708	-0.462592	0.479284
C278	C	1.588708	0.037408	0.979284
N279	N	1.124266	-0.482070	0.518060
N280	N	1.624266	0.017930	1.018060
C281	C	0.915512	-0.255003	1.120561
C282	C	1.415512	0.244997	1.620561
N283	N	0.877044	-0.280631	1.149279
N284	N	1.377044	0.219369	1.649279
H285	H	0.878004	-0.727053	0.249409
H286	H	1.378004	-0.227053	0.749409
