data_functionalizedCrystal
_audit_creation_method	'MofGen! by Chris Wilmer'
_symmetry_space_group_name_H-M	'P1'
_symmetry_Int_Tables_number	1
_symmetry_cell_setting	triclinic
loop_
_symmetry_equiv_pos_as_xyz
  x,y,z
_cell_length_a	10.489741
_cell_length_b	10.654550
_cell_length_c	9.565339
_cell_angle_alpha	89.999615
_cell_angle_beta	90.000900
_cell_angle_gamma	84.512052
loop_
_atom_site_label
_atom_site_type_symbol
_atom_site_fract_x
_atom_site_fract_y
_atom_site_fract_z
O1	O	-1.693967	-0.177183	-0.116173
O2	O	-1.322764	-0.193815	-0.116195
O3	O	-1.516900	-0.002764	-0.116175
O4	O	-1.499831	-0.368235	-0.116193
O5	O	-1.516885	-0.002776	0.116345
O6	O	-1.322748	-0.193827	0.116325
O7	O	-1.693952	-0.177195	0.116347
Zn8	Zn	-1.508348	-0.185513	0.153254
Zn9	Zn	-1.508368	-0.185497	-0.153102
O10	O	-1.499815	-0.368246	0.116327
C11	C	-1.515639	0.044029	0.000085
C12	C	-1.511889	0.183474	0.000082
C13	C	-1.275225	-0.192565	0.000062
C14	C	-1.133597	-0.188807	0.000054
C15	C	-1.741491	-0.178445	0.000087
C16	C	-1.883118	-0.182204	0.000085
C17	C	-1.065516	-0.067246	0.000074
C18	C	-0.973369	-0.124665	-0.114571
C19	C	-0.973388	-0.124705	0.114676
C20	C	-1.043316	-0.246275	-0.114685
C21	C	-1.043344	-0.246299	0.114665
C22	C	-0.951224	-0.303805	-0.000008
C23	C	-1.501076	-0.415039	0.000064
C24	C	-1.504826	-0.554484	0.000058
N25	N	-1.508343	-0.185523	0.362333
C26	C	-1.626194	0.262906	0.000088
C27	C	-1.622663	0.393928	0.000071
C28	C	-1.390513	0.366074	0.000047
C29	C	-1.394045	0.235054	0.000055
N30	N	-1.508382	-0.185478	-0.362181
C31	C	-1.418534	-0.273848	0.453527
C32	C	-1.534019	-0.299261	0.546711
C33	C	-1.392908	-0.160121	0.546704
C34	C	-1.623886	-0.210992	0.453466
C35	C	-1.482700	-0.071803	0.453450
C36	C	-1.598268	-0.097168	0.546593
H37	H	-1.115254	0.032684	-0.000065
H38	H	-0.942386	-0.073225	-0.211491
H39	H	-1.074125	-0.297665	-0.211717
H40	H	-1.300959	0.170376	0.000045
H41	H	-1.460948	0.024318	0.412454
C42	C	-1.563349	-0.429143	0.602072
H43	H	-1.499445	-0.491825	0.570220
H44	H	-1.644748	-0.447788	0.568783
H45	H	-1.563915	-0.427951	0.701379
H46	H	-1.722150	0.220914	0.000108
H47	H	-1.342655	-0.348612	0.412664
H48	H	-0.901752	-0.403841	-0.000075
H49	H	-1.074359	-0.297696	0.211590
H50	H	-1.721546	-0.232573	0.412682
H51	H	-0.942428	-0.073253	0.211599
H52	H	-1.715742	0.458597	0.000073
C53	C	-1.700996	0.003763	0.601465
H54	H	-1.782925	-0.014476	0.569366
H55	H	-1.683463	0.084317	0.568121
H56	H	-1.699990	0.003692	0.700776
H57	H	-1.294568	0.408087	0.000028
C58	C	-1.261012	-0.131105	0.602017
H59	H	-1.197293	-0.193954	0.570131
H60	H	-1.262186	-0.130529	0.701317
H61	H	-1.242172	-0.050938	0.568694
