data_functionalizedCrystal
_audit_creation_method	'MofGen! by Chris Wilmer'
_symmetry_space_group_name_H-M	'P1'
_symmetry_Int_Tables_number	1
_symmetry_cell_setting	triclinic
loop_
_symmetry_equiv_pos_as_xyz
  x,y,z
_cell_length_a	10.654554
_cell_length_b	18.266242
_cell_length_c	10.654551
_cell_angle_alpha	90.002252
_cell_angle_beta	84.486053
_cell_angle_gamma	90.007575
loop_
_atom_site_label
_atom_site_type_symbol
_atom_site_fract_x
_atom_site_fract_y
_atom_site_fract_z
O1	O	1.667847	0.060853	0.176425
O2	O	1.302369	0.060859	0.193226
O3	O	1.493510	0.060856	0.002086
O4	O	1.476706	0.060856	0.367564
O5	O	1.493477	-0.060906	0.002081
O6	O	1.302336	-0.060903	0.193220
O7	O	1.667814	-0.060909	0.176420
Zn8	Zn	1.485070	-0.080238	0.184819
Zn9	Zn	1.485113	0.080189	0.184826
O10	O	1.476673	-0.060906	0.367559
C11	C	1.255555	-0.000021	0.191988
C12	C	1.116112	-0.000019	0.188294
C13	C	0.905604	-0.000025	0.297367
C14	C	1.036625	-0.000020	0.300839
C15	C	1.064571	-0.000016	0.072269
C16	C	0.933552	-0.000016	0.068799
C17	C	0.826123	-0.000034	0.409919
C18	C	0.877654	-0.000035	0.525944
C19	C	1.008676	-0.000030	0.529416
C20	C	1.088166	-0.000023	0.416863
N21	N	1.485049	-0.189725	0.184813
C22	C	1.561871	-0.228029	0.261701
C23	C	1.561892	-0.304674	0.261697
C24	C	1.485068	-0.343012	0.184821
C25	C	1.408241	-0.304699	0.107917
C26	C	1.408231	-0.228055	0.107914
N27	N	1.375036	-0.463363	0.180431
N28	N	1.375048	-0.536171	0.180442
C29	C	1.485093	-0.573934	0.184826
N30	N	1.595126	-0.536139	0.189223
N31	N	1.595113	-0.463325	0.189218
C32	C	1.485070	-0.426119	0.184816
C33	C	1.561944	-0.695346	0.261714
C34	C	1.561967	-0.771992	0.261701
C35	C	1.408304	-0.772015	0.107929
C36	C	1.408292	-0.695370	0.107934
C37	C	1.485110	-0.657040	0.184833
C38	C	1.714628	-0.000027	0.177657
C39	C	1.854071	-0.000025	0.181351
C40	C	1.492260	-0.000023	-0.044714
C41	C	1.488567	-0.000018	-0.184158
N42	N	1.485143	0.189675	0.184822
C43	C	1.486853	0.066353	-0.249667
C44	C	1.483373	0.066350	-0.380687
C45	C	1.483326	-0.066402	-0.380679
C46	C	1.486798	-0.066397	-0.249660
C47	C	1.488622	0.132733	-0.184165
C48	C	1.486910	0.199110	-0.249674
C49	C	1.483429	0.199106	-0.380694
C50	C	1.481662	0.132726	-0.446205
C51	C	1.477923	-0.000025	0.414360
C52	C	1.481616	-0.000025	0.553803
H53	H	0.812926	-0.000036	0.617580
H54	H	1.194851	-0.000003	0.419699
H55	H	1.478810	0.132729	-0.552889
Br56	Br	0.863607	-0.000021	-0.088653
Br57	Br	1.666221	-0.643322	0.366046
H58	H	1.491460	0.132743	-0.077482
H59	H	1.488337	0.253153	-0.196324
Br60	Br	1.480928	-0.156482	-0.469586
Br61	Br	1.481086	0.289186	-0.469595
Br62	Br	1.304060	-0.824036	0.003574
H63	H	1.345730	-0.664182	0.045329
H64	H	0.719437	-0.000041	0.407105
Br65	Br	1.172448	-0.000009	-0.080470
Br66	Br	1.078610	-0.000019	0.686874
Br67	Br	1.666093	-0.176013	0.366093
Br68	Br	1.666162	-0.356670	0.366048
H69	H	1.488167	-0.120443	-0.196318
H70	H	1.345671	-0.196868	0.045301
Br71	Br	1.303986	-0.356726	0.003576
Br72	Br	1.666245	-0.823978	0.366049
