data_functionalizedCrystal
_audit_creation_method	'MofGen! by Chris Wilmer'
_symmetry_space_group_name_H-M	'P1'
_symmetry_Int_Tables_number	1
_symmetry_cell_setting	triclinic
loop_
_symmetry_equiv_pos_as_xyz
  x,y,z
_cell_length_a	23.096457
_cell_length_b	14.446369
_cell_length_c	23.096457
_cell_angle_alpha	60.004600
_cell_angle_beta	90.011518
_cell_angle_gamma	60.000829
loop_
_atom_site_label
_atom_site_type_symbol
_atom_site_fract_x
_atom_site_fract_y
_atom_site_fract_z
Zr1	Zr	0.557752	1.013259	-0.076031
O2	O	0.465283	1.206378	-0.168484
O3	O	0.586098	0.820140	-0.047686
O4	O	0.586071	1.013262	-0.168482
O5	O	0.465333	1.013253	0.047595
O6	O	0.681351	1.013265	-0.168486
O7	O	0.465311	1.013256	-0.047687
O8	O	0.681400	0.667804	0.047597
O9	O	0.465284	1.358714	-0.168488
O10	O	0.669295	0.899574	-0.035604
O11	O	0.598205	0.899570	0.035506
O12	O	0.598173	1.126947	-0.106716
O13	O	0.527083	1.126943	-0.035606
Zr14	Zr	0.709750	1.013259	0.075927
Zr15	Zr	0.709713	1.013263	-0.076037
Zr16	Zr	0.557788	1.013255	0.075932
Zr17	Zr	0.557754	1.256217	-0.076038
Zr18	Zr	0.709748	0.770301	0.075934
O19	O	0.681404	1.206378	0.047581
O20	O	0.681352	1.206384	-0.168492
O21	O	0.465334	1.206372	0.047589
O22	O	0.802219	0.820140	0.168379
O23	O	0.802168	0.820145	-0.047694
O24	O	0.586150	0.820134	0.168387
O25	O	0.802169	1.013265	-0.047699
O26	O	0.681431	1.013256	0.168378
O27	O	0.586151	1.013253	0.168381
O28	O	0.802191	1.013262	0.047583
O29	O	0.586073	1.358717	-0.168492
O30	O	0.681429	0.667801	0.168388
O31	O	0.802218	0.667804	0.168383
O32	O	0.802189	0.667807	0.047592
O33	O	0.465312	1.358710	-0.047697
O34	O	0.586101	1.358714	-0.047701
O35	O	0.669329	0.899570	0.106611
O36	O	0.740419	0.899574	0.035501
O37	O	0.669296	1.126947	-0.035611
O38	O	0.598207	1.126943	0.035500
C39	C	0.633749	0.709355	-0.000044
C40	C	0.633749	0.606213	-0.000041
C41	C	0.589127	0.459201	0.045014
C42	C	0.588884	0.566821	0.044832
C43	C	0.601015	0.655211	-0.077311
C44	C	0.600679	0.547978	-0.077077
C45	C	0.711135	0.372757	0.031510
C46	C	0.711022	0.478907	0.033087
C47	C	0.443671	1.013254	-0.000045
C48	C	0.379159	1.013252	-0.000043
C49	C	0.385978	0.894569	0.037070
C50	C	0.325363	0.894567	0.037073
C51	C	0.257928	1.013255	-0.000051
C52	C	0.251112	1.131953	-0.037165
C53	C	0.311727	1.131952	-0.037161
N54	N	0.135119	1.101601	-0.060464
N55	N	0.077539	1.101595	-0.060467
C56	C	0.075296	1.013267	-0.000063
N57	N	0.132813	0.924925	0.060342
N58	N	0.190399	0.924928	0.060343
C59	C	0.192197	1.013270	-0.000059
C60	C	0.016392	0.894574	0.037056
C61	C	-0.044227	0.894577	0.037061
C62	C	-0.118478	1.131966	-0.037184
C63	C	-0.057860	1.131960	-0.037182
C64	C	0.009572	1.013260	-0.000063
C65	C	0.823831	1.013264	-0.000059
C66	C	0.888343	1.013266	-0.000062
C67	C	0.633706	1.013264	-0.190136
C68	C	0.633690	1.013266	-0.254648
C69	C	0.633753	1.317162	-0.000061
C70	C	0.633753	1.420304	-0.000064
C71	C	0.596569	1.131948	-0.322072
C72	C	0.596587	1.131950	-0.382688
C73	C	0.633717	1.013263	-0.375877
C74	C	0.670847	0.894564	-0.308442
C75	C	0.670833	0.894566	-0.247827
N76	N	0.628594	0.924916	-0.443430
N77	N	0.628603	0.924923	-0.501014
C78	C	0.633761	1.013251	-0.558502
N79	N	0.638895	1.101592	-0.556239
N80	N	0.638883	1.101589	-0.498651
C81	C	0.633736	1.013248	-0.441599
C82	C	0.596657	1.131944	-0.691656
C83	C	0.596680	1.131941	-0.752272
C84	C	0.670935	0.894551	-0.678023
C85	C	0.670917	0.894558	-0.617409
C86	C	0.633774	1.013258	-0.624230
C87	C	0.633796	1.013254	0.190031
C88	C	0.633811	1.013252	0.254544
C89	C	0.823830	0.709361	-0.000051
C90	C	0.888340	0.606220	-0.000050
C91	C	0.633794	0.709350	0.190040
C92	C	0.633809	0.606207	0.254556
C93	C	0.823875	0.709355	0.190033
C94	C	0.888401	0.606213	0.254546
C95	C	0.443627	1.317162	-0.190138
C96	C	0.379101	1.420304	-0.254651
C97	C	0.443672	1.317157	-0.000054
C98	C	0.379161	1.420297	-0.000055
C99	C	0.633707	1.317167	-0.190145
C100	C	0.633693	1.420311	-0.254660
C101	C	0.881510	0.557784	-0.037172
C102	C	0.942119	0.460887	-0.037186
C103	C	1.009558	0.412420	-0.000073
C104	C	1.016387	0.460865	0.037051
C105	C	0.955779	0.557768	0.037060
C106	C	0.670942	0.557769	0.321975
C107	C	0.670953	0.460868	0.382600
C108	C	0.633835	0.412400	0.375804
C109	C	0.596698	0.460847	0.308377
C110	C	0.596683	0.557753	0.247754
C111	C	0.955818	0.557779	0.247723
C112	C	1.016453	0.460879	0.308335
C113	C	1.009670	0.412410	0.375768
C114	C	0.942246	0.460854	0.382589
C115	C	0.881612	0.557758	0.321979
C116	C	0.311684	1.468750	-0.247828
C117	C	0.251049	1.565680	-0.308439
C118	C	0.257832	1.614155	-0.375872
C119	C	0.325256	1.565704	-0.382694
C120	C	0.385890	1.468783	-0.322083
C121	C	0.385992	1.468743	0.037061
C122	C	0.325383	1.565668	0.037058
C123	C	0.257944	1.614138	-0.000057
C124	C	0.251115	1.565688	-0.037178
C125	C	0.311723	1.468772	-0.037178
C126	C	0.670818	1.468749	-0.247841
C127	C	0.670818	1.565650	-0.308454
C128	C	0.633688	1.614119	-0.375886
C129	C	0.596562	1.565672	-0.382704
C130	C	0.596567	1.468765	-0.322091
H131	H	0.631083	0.526011	-0.112488
O132	O	0.526285	0.777358	-0.110841
H133	H	0.522584	0.859157	-0.159260
O134	O	0.332561	1.617993	-0.455430
H135	H	0.361986	1.662161	-0.461613
O136	O	1.075070	0.307877	0.441139
H137	H	1.123086	0.282336	0.425059
H138	H	0.633690	1.693027	-0.425235
O139	O	0.633871	0.307857	0.441198
H140	H	0.610664	0.345049	0.473209
H141	H	0.735476	0.439305	0.090012
H142	H	0.701168	0.597221	0.327523
O143	O	0.178337	1.617900	-0.301064
H144	H	0.148935	1.724799	-0.326884
O145	O	0.710858	1.617897	-0.301089
H146	H	0.751891	1.599276	-0.326913
H147	H	0.330916	0.797918	0.067295
O148	O	0.458604	1.416515	-0.329446
H149	H	0.453127	1.466501	-0.386521
H150	H	0.440899	1.429286	0.067290
H151	H	0.610843	0.530110	0.101731
H152	H	0.610970	0.370332	0.102055
H153	H	0.701168	0.797913	-0.672476
O154	O	1.074927	0.307893	-0.000078
H155	H	1.058840	0.282352	-0.032123
H156	H	0.936733	0.421376	0.437502
H157	H	0.566332	1.605150	-0.437615
O158	O	0.192579	1.718667	-0.000048
H159	H	0.144532	1.744246	-0.032095
H160	H	0.566332	1.429338	-0.327653
H161	H	0.330958	1.605099	0.067289
H162	H	0.208455	1.693074	-0.425220
H163	H	1.071347	0.421446	0.302768
O164	O	0.178380	1.259966	-0.077214
H165	H	0.148987	1.265642	-0.039746
O166	O	0.178375	1.617971	-0.077209
H167	H	0.137384	1.693492	-0.070962
O168	O	0.808901	0.609961	0.329349
H169	H	0.802742	0.654094	0.358791
O170	O	0.711023	0.408603	0.455320
H171	H	0.736842	0.458570	0.449855
H172	H	0.306169	1.228601	-0.067381
O173	O	0.089126	0.766557	0.077098
H174	H	0.083683	0.684025	0.102917
H175	H	-0.038668	0.797927	0.067288
O176	O	1.089127	0.408575	0.077086
H177	H	1.130118	0.333044	0.070846
O178	O	0.556640	1.259954	-0.824999
H179	H	0.530807	1.342487	-0.819554
H180	H	0.306151	1.429330	-0.067401
O181	O	0.556703	0.609783	0.175061
H182	H	0.499650	0.653887	0.168856
O183	O	0.710876	1.416467	-0.175115
H184	H	0.736697	1.466427	-0.180568
H185	H	0.531806	0.655621	0.022943
O186	O	0.513966	0.506556	0.016276
H187	H	0.508255	0.502512	-0.029975
H188	H	0.631956	0.683998	-0.112349
O189	O	0.525255	0.601867	-0.110553
H190	H	0.489362	0.704119	-0.126752
O191	O	-0.191203	1.259986	-0.077229
H192	H	-0.232208	1.240051	-0.071002
H193	H	0.738482	0.279010	0.087533
H194	H	0.747075	0.500411	0.003669
H195	H	0.744541	0.346784	-0.001167
O196	O	0.963147	0.610058	0.174997
H197	H	0.992590	0.528711	0.168832
H198	H	-0.063416	1.228604	-0.067408
O199	O	0.304359	1.416484	-0.175100
H200	H	0.247289	1.466481	-0.180550
H201	H	0.961351	0.597192	0.067293
H202	H	0.440881	0.797914	0.067290
O203	O	0.556512	1.259968	-0.329425
H204	H	0.530705	1.342497	-0.386497
H205	H	0.566356	1.228599	-0.437594
O206	O	0.710896	0.766547	-0.175102
H207	H	0.704659	0.786489	-0.134099
H208	H	0.566413	1.228596	-0.697210
O209	O	0.710901	0.766539	-0.301081
H210	H	0.673438	0.760838	-0.326926
O211	O	0.710944	0.766550	-0.544682
H212	H	0.736762	0.684016	-0.550127
O213	O	0.808775	0.610062	-0.077212
H214	H	0.814219	0.560104	-0.103032
O215	O	0.934746	0.408635	-0.077221
H216	H	0.877667	0.458604	-0.103013
H217	H	0.566478	0.421369	0.302854
