data_functionalizedCrystal
_audit_creation_method	'MofGen! by Chris Wilmer'
_symmetry_space_group_name_H-M	'P1'
_symmetry_Int_Tables_number	1
_symmetry_cell_setting	triclinic
loop_
_symmetry_equiv_pos_as_xyz
  x,y,z
_cell_length_a	16.959455
_cell_length_b	12.645330
_cell_length_c	16.959447
_cell_angle_alpha	90.026070
_cell_angle_beta	90.014322
_cell_angle_gamma	90.014639
loop_
_atom_site_label
_atom_site_type_symbol
_atom_site_fract_x
_atom_site_fract_y
_atom_site_fract_z
Zn1	Zn	1.208397	-0.422105	0.446932
Zn2	Zn	1.208325	-0.599396	0.314763
Zn3	Zn	1.076225	-0.422138	0.314770
Zn4	Zn	1.076195	-0.599317	0.446902
O5	O	1.142286	-0.510739	0.380842
O6	O	1.318998	-0.445642	0.429410
O7	O	1.190784	-0.575930	0.204153
O8	O	1.093801	-0.273786	0.332316
O9	O	1.318945	-0.575898	0.332306
O10	O	1.190907	-0.273762	0.429416
O11	O	1.093731	-0.445699	0.204158
O12	O	0.965610	-0.445622	0.332287
O13	O	1.093750	-0.575763	0.557517
O14	O	0.965589	-0.575795	0.429364
O15	O	1.190878	-0.445565	0.557539
O16	O	1.190755	-0.747733	0.332277
O17	O	1.093680	-0.747675	0.429358
C18	C	0.936919	-0.510704	0.380824
C19	C	0.849063	-0.510715	0.380835
C20	C	0.477574	-0.442903	0.330399
C21	C	0.477600	-0.578663	0.431329
C22	C	0.560146	-0.578648	0.431325
C23	C	0.601410	-0.510760	0.380855
C24	C	0.560128	-0.442888	0.330391
C25	C	0.601434	-0.646526	0.481782
C26	C	0.683985	-0.646515	0.481779
C27	C	0.725251	-0.578621	0.431313
C28	C	0.683963	-0.510745	0.380847
C29	C	0.725227	-0.442857	0.330378
C30	C	0.683941	-0.374975	0.279916
C31	C	0.601393	-0.374994	0.279925
C32	C	0.807799	-0.578602	0.431304
C33	C	0.807781	-0.442842	0.330370
C34	C	1.142228	-0.786169	0.380831
C35	C	1.142276	-0.903999	0.380852
C36	C	1.081458	-1.071570	0.442115
C37	C	1.081147	-0.949011	0.441918
C38	C	1.119734	-0.948594	0.297551
C39	C	1.119363	-1.071192	0.297922
C40	C	1.226007	-1.071094	0.402216
C41	C	1.225494	-0.948487	0.404038
C42	C	1.348454	-0.510775	0.380860
C43	C	1.436310	-0.510790	0.380868
C44	C	1.142319	-0.510651	0.587010
C45	C	1.142333	-0.510614	0.674867
C46	C	1.142365	-0.234234	0.380870
C47	C	1.142399	-0.116404	0.380882
C48	C	1.142298	-0.510750	0.175475
C49	C	1.142437	-0.510489	0.087619
C50	C	1.091857	-0.578290	1.046333
C51	C	1.192997	-0.442715	1.046352
C52	C	1.192976	-0.442737	0.963806
C53	C	1.142395	-0.510538	0.922520
C54	C	1.091836	-0.578317	0.963780
C55	C	1.243540	-0.374967	0.922539
C56	C	1.243522	-0.374988	0.839988
C57	C	1.192937	-0.442784	0.798701
C58	C	1.142375	-0.510565	0.839966
C59	C	1.091794	-0.578366	0.798680
C60	C	1.041227	-0.646142	0.839944
C61	C	1.041251	-0.646113	0.922492
C62	C	1.192913	-0.442813	0.716153
C63	C	1.091773	-0.578393	0.716127
H64	H	0.567771	-0.319729	0.238841
H65	H	0.841372	-0.387553	0.289276
O66	O	0.724050	-0.712333	0.530914
C67	C	0.749301	-0.764044	0.665303
C68	C	0.703893	-0.689427	0.609745
H69	H	0.733008	-0.745566	0.729048
H70	H	0.815399	-0.752369	0.656703
H71	H	0.733069	-0.849499	0.651276
H72	H	0.720058	-0.603944	0.623737
H73	H	0.637806	-0.701194	0.618354
O74	O	1.042617	-0.644363	0.676147
C75	C	0.942274	-0.778798	0.684841
C76	C	0.997912	-0.704156	0.730215
H77	H	0.906104	-0.827144	0.728536
H78	H	0.978506	-0.834320	0.646213
H79	H	0.900982	-0.730125	0.646173
H80	H	1.039215	-0.752744	0.768926
H81	H	0.961631	-0.648630	0.768793
O82	O	1.292705	-0.309289	0.799866
C83	C	1.399344	-0.295024	0.706604
C84	C	1.343717	-0.369558	0.752013
H85	H	1.440590	-0.343720	0.667891
H86	H	1.435556	-0.246567	0.750249
H87	H	1.363021	-0.239590	0.668013
H88	H	1.379979	-0.425056	0.790605
H89	H	1.307502	-0.417940	0.708325
H90	H	0.717549	-0.319706	0.238821
O91	O	0.437353	-0.377064	0.281408
C92	C	0.310175	-0.316855	0.236726
C93	C	0.355627	-0.391489	0.292234
H94	H	0.244092	-0.328475	0.245471
H95	H	0.326320	-0.335362	0.172946
H96	H	0.326472	-0.231409	0.250706
H97	H	0.339355	-0.476960	0.278325
H98	H	0.339478	-0.372890	0.355997
O99	O	0.561310	-0.712310	0.530888
C100	C	0.468097	-0.726736	0.637556
C101	C	0.513512	-0.652118	0.582003
H102	H	0.429429	-0.678102	0.678886
H103	H	0.511739	-0.775237	0.673683
H104	H	0.429461	-0.782124	0.601181
H105	H	0.552149	-0.596666	0.618317
H106	H	0.469828	-0.603691	0.545874
H107	H	1.000048	-0.701350	0.806318
H108	H	1.095430	-1.100982	0.504085
H109	H	1.234086	-0.387634	0.682559
H110	H	0.443998	-0.633940	0.472414
O111	O	1.008026	-1.108601	0.425453
C112	C	0.924782	-1.261771	0.410538
C113	C	1.007982	-1.219975	0.429407
H114	H	0.924715	-1.351819	0.413745
H115	H	0.906983	-1.235656	0.348715
H116	H	0.881036	-1.228762	0.455244
H117	H	1.051784	-1.252964	0.384753
H118	H	1.025715	-1.246079	0.491251
O119	O	0.848026	-0.644501	0.480241
C120	C	0.975207	-0.704601	0.524995
C121	C	0.929750	-0.629932	0.469516
H122	H	1.041289	-0.692832	0.516355
H123	H	0.959025	-0.790084	0.511001
H124	H	0.958951	-0.686113	0.588747
H125	H	0.945982	-0.648325	0.405745
H126	H	0.945936	-0.544471	0.483577
H127	H	1.000085	-0.701296	0.956097
O128	O	1.042813	-0.644091	1.086534
C129	C	0.997975	-0.704089	1.213692
C130	C	1.053570	-0.629534	1.168264
H131	H	1.006640	-0.692330	1.279778
H132	H	1.011828	-0.789601	1.197508
H133	H	0.934251	-0.685477	1.197411
H134	H	1.117313	-0.648050	1.184520
H135	H	1.039649	-0.544044	1.184451
H136	H	1.095249	-0.918856	0.503685
O137	O	1.007168	-0.914298	0.425004
C138	C	0.873053	-0.962280	0.394560
C139	C	0.956804	-1.001734	0.413696
H140	H	0.832307	-1.032950	0.385429
H141	H	0.874551	-0.912503	0.338551
H142	H	0.850289	-0.912163	0.445597
H143	H	0.979619	-1.051893	0.362709
H144	H	0.955257	-1.051454	0.469731
O145	O	1.046398	-1.105245	0.276387
C146	C	0.914897	-1.056064	0.237023
C147	C	0.997491	-1.017362	0.261417
H148	H	0.875338	-0.985031	0.224897
H149	H	0.888436	-1.105469	0.286619
H150	H	0.919793	-1.106358	0.181435
H151	H	0.992665	-0.967026	0.316986
H152	H	1.023922	-0.968014	0.211774
O153	O	1.282567	-0.911821	0.354813
C154	C	1.403716	-0.813543	0.342800
C155	C	1.339126	-0.854976	0.398640
H156	H	1.449469	-0.767594	0.378214
H157	H	1.376113	-0.759292	0.296768
H158	H	1.433410	-0.883144	0.312079
H159	H	1.309408	-0.785441	0.429416
H160	H	1.366773	-0.909258	0.444624
O161	O	1.242090	-0.376712	1.086368
C162	C	1.280482	-0.196385	1.111704
C163	C	1.224847	-0.271018	1.066317
H164	H	1.266550	-0.110914	1.095522
H165	H	1.344222	-0.214926	1.095454
H166	H	1.271825	-0.208068	1.177787
H167	H	1.233433	-0.259375	1.000224
H168	H	1.161127	-0.252458	1.082632
O169	O	1.250585	-1.107701	0.473489
C170	C	1.290821	-1.063383	0.605718
C171	C	1.263021	-1.021780	0.525033
H172	H	1.300868	-0.993938	0.647418
H173	H	1.348246	-1.109098	0.598088
H174	H	1.243870	-1.117931	0.631396
H175	H	1.309917	-0.967190	0.499310
H176	H	1.205576	-0.976126	0.532713
O177	O	1.171087	-0.914010	0.241640
C178	C	1.266442	-0.962152	0.142627
C179	C	1.208312	-1.001451	0.205922
H180	H	1.296543	-1.032829	0.113720
H181	H	1.312806	-0.909301	0.171241
H182	H	1.232966	-0.915224	0.096019
H183	H	1.241721	-1.048424	0.252549
H184	H	1.161949	-1.054248	0.177251
O185	O	1.280272	-1.105549	0.349066
C186	C	1.416427	-1.103688	0.308506
C187	C	1.355060	-1.064564	0.368745
H188	H	1.476910	-1.070587	0.324404
H189	H	1.399163	-1.075737	0.246979
H190	H	1.418642	-1.193780	0.309568
H191	H	1.352814	-0.974476	0.367753
H192	H	1.372348	-1.092596	0.430243
H193	H	1.161824	-1.100854	0.250744
H194	H	1.284725	-0.319774	0.956160
H195	H	1.059254	-0.917979	0.279151
H196	H	1.242493	-0.919336	0.465343
