data_functionalizedCrystal
_audit_creation_method	'MofGen! by Chris Wilmer'
_symmetry_space_group_name_H-M	'P1'
_symmetry_Int_Tables_number	1
_symmetry_cell_setting	triclinic
loop_
_symmetry_equiv_pos_as_xyz
  x,y,z
_cell_length_a	12.827893
_cell_length_b	12.827892
_cell_length_c	12.827885
_cell_angle_alpha	89.970024
_cell_angle_beta	90.021189
_cell_angle_gamma	89.986399
loop_
_atom_site_label
_atom_site_type_symbol
_atom_site_fract_x
_atom_site_fract_y
_atom_site_fract_z
Zn1	Zn	-1.597670	-0.416032	-0.590901
Zn2	Zn	-1.264336	-0.082699	-0.257567
Zn3	Zn	-0.931003	0.250634	0.075766
Zn4	Zn	-1.597564	-0.590810	-0.416160
Zn5	Zn	-1.264230	-0.257476	-0.082827
Zn6	Zn	-0.930897	0.075857	0.250506
Zn7	Zn	-1.422911	-0.416078	-0.416169
Zn8	Zn	-1.089578	-0.082744	-0.082835
Zn9	Zn	-0.756244	0.250589	0.250498
Zn10	Zn	-1.422896	-0.590727	-0.590855
Zn11	Zn	-1.089563	-0.257393	-0.257521
Zn12	Zn	-0.756230	0.075940	0.075812
O13	O	-1.510260	-0.503412	-0.503521
O14	O	-1.176927	-0.170078	-0.170188
O15	O	-0.843593	0.163255	0.163146
O16	O	-1.743892	-0.439233	-0.567737
O17	O	-1.410558	-0.105899	-0.234404
O18	O	-1.077225	0.227434	0.098930
O19	O	-1.574358	-0.567685	-0.269925
O20	O	-1.241024	-0.234352	0.063408
O21	O	-0.907691	0.098982	0.396741
O22	O	-1.446144	-0.269836	-0.439370
O23	O	-1.112810	0.063498	-0.106036
O24	O	-0.779477	0.396831	0.227297
O25	O	-1.743814	-0.567641	-0.439356
O26	O	-1.410480	-0.234308	-0.106023
O27	O	-1.077147	0.099026	0.227311
O28	O	-1.574538	-0.269802	-0.567745
O29	O	-1.241205	0.063531	-0.234411
O30	O	-0.907871	0.396864	0.098922
O31	O	-1.446041	-0.439310	-0.269931
O32	O	-1.112708	-0.105977	0.063402
O33	O	-0.779374	0.227356	0.396735
O34	O	-1.276673	-0.439230	-0.439325
O35	O	-0.943340	-0.105896	-0.105992
O36	O	-0.610006	0.227437	0.227342
O37	O	-1.446118	-0.567499	-0.737097
O38	O	-1.112785	-0.234166	-0.403764
O39	O	-0.779452	0.099167	-0.070430
O40	O	-1.276662	-0.567543	-0.567666
O41	O	-0.943329	-0.234210	-0.234333
O42	O	-0.609996	0.099123	0.099001
O43	O	-1.574524	-0.439152	-0.737131
O44	O	-1.241190	-0.105819	-0.403797
O45	O	-0.907857	0.227515	-0.070464
O46	O	-1.574343	-0.737035	-0.439311
O47	O	-1.241010	-0.403701	-0.105978
O48	O	-0.907677	-0.070368	0.227355
O49	O	-1.446016	-0.736974	-0.567658
O50	O	-1.112682	-0.403640	-0.234325
O51	O	-0.779349	-0.070307	0.099008
C52	C	-1.238750	-0.503383	-0.503492
C53	C	-0.905417	-0.170050	-0.170159
C54	C	-0.572084	0.163284	0.163175
C55	C	-1.122597	-0.503396	-0.503504
C56	C	-0.789264	-0.170063	-0.170171
C57	C	-0.455930	0.163271	0.163162
C58	C	-1.070851	-0.439967	-0.567129
C59	C	-0.737517	-0.106633	-0.233795
C60	C	-0.404184	0.226700	0.099538
C61	C	-0.950800	-0.439979	-0.567143
C62	C	-0.617467	-0.106645	-0.233810
C63	C	-0.284134	0.226688	0.099524
C64	C	-1.510195	-0.774922	-0.503502
C65	C	-1.176861	-0.441588	-0.170168
C66	C	-0.843528	-0.108255	0.163165
C67	C	-1.510262	-0.891075	-0.503528
C68	C	-1.176929	-0.557741	-0.170195
C69	C	-0.843596	-0.224408	0.163138
C70	C	-0.782830	-0.503432	-0.503542
C71	C	-0.449497	-0.170099	-0.170209
C72	C	-0.116164	0.163234	0.163124
C73	C	-0.898983	-0.503419	-0.503530
C74	C	-0.565650	-0.170086	-0.170197
C75	C	-0.232317	0.163247	0.163137
C76	C	-1.573768	-0.942759	-0.567109
C77	C	-1.240434	-0.609426	-0.233776
C78	C	-0.907101	-0.276093	0.099557
C79	C	-1.573839	-1.062810	-0.567139
C80	C	-1.240506	-0.729476	-0.233805
C81	C	-0.907172	-0.396143	0.099528
C82	C	-1.510331	-0.503311	-0.776091
C83	C	-1.176998	-0.169978	-0.442758
C84	C	-0.843665	0.163355	-0.109425
C85	C	-1.510362	-0.503269	-0.892245
C86	C	-1.177028	-0.169935	-0.558911
C87	C	-0.843695	0.163398	-0.225578
C88	C	-1.510354	-0.230841	-0.503563
C89	C	-1.177021	0.102492	-0.170230
C90	C	-0.843688	0.435825	0.163103
C91	C	-1.510394	-0.114688	-0.503581
C92	C	-1.177061	0.218645	-0.170248
C93	C	-0.843728	0.551978	0.163085
C94	C	-1.573907	-0.439746	-0.944046
C95	C	-1.240574	-0.106413	-0.610713
C96	C	-0.907241	0.226921	-0.277379
C97	C	-1.573940	-0.439700	-1.064097
C98	C	-1.240607	-0.106367	-0.730763
C99	C	-0.907274	0.226966	-0.397430
C100	C	-1.510249	-0.503436	-0.232011
C101	C	-1.176916	-0.170103	0.101322
C102	C	-0.843583	0.163231	0.434656
C103	C	-1.510422	-0.503185	-0.115859
C104	C	-1.177088	-0.169851	0.217475
C105	C	-0.843755	0.163482	0.550808
H106	H	-1.078022	-0.557707	-0.449042
H107	H	-0.744689	-0.224374	-0.115709
H108	H	-0.411356	0.108960	0.217625
F109	F	-1.439259	-0.949400	-0.432410
F110	F	-1.105926	-0.616067	-0.099076
F111	F	-0.772592	-0.282734	0.234257
F112	F	-1.439329	-1.056602	-0.432421
F113	F	-1.105996	-0.723269	-0.099088
F114	F	-0.772663	-0.389935	0.234246
H115	H	-1.628212	-1.107258	-0.621569
H116	H	-1.294879	-0.773925	-0.288235
H117	H	-0.961546	-0.440591	0.045098
F118	F	-1.645058	-0.368619	-1.122320
F119	F	-1.311725	-0.035285	-0.788987
F120	F	-0.978392	0.298048	-0.455654
F121	F	-1.644756	-0.884434	-0.638243
F122	F	-1.311423	-0.551100	-0.304910
F123	F	-0.978090	-0.217767	0.028424
F124	F	-1.644967	-0.368682	-0.885851
F125	F	-1.311634	-0.035349	-0.552517
F126	F	-0.978300	0.297985	-0.219184
H127	H	-1.456019	-0.557575	-1.071317
H128	H	-1.122685	-0.224242	-0.737984
H129	H	-0.789352	0.109091	-0.404651
H130	H	-0.906300	-0.385678	-0.621617
H131	H	-0.572966	-0.052344	-0.288284
H132	H	-0.239633	0.280989	0.045049
F133	F	-1.439275	-0.574306	-0.950440
F134	F	-1.105942	-0.240972	-0.617107
F135	F	-0.772609	0.092361	-0.283773
H136	H	-0.943477	-0.557732	-0.449062
H137	H	-0.610144	-0.224399	-0.115729
H138	H	-0.276811	0.108934	0.217605
H139	H	-1.115425	-0.385650	-0.621585
H140	H	-0.782092	-0.052316	-0.288252
H141	H	-0.448759	0.281017	0.045081
