data_functionalizedCrystal
_audit_creation_method	'MofGen! by Chris Wilmer'
_symmetry_space_group_name_H-M	'P1'
_symmetry_Int_Tables_number	1
_symmetry_cell_setting	triclinic
loop_
_symmetry_equiv_pos_as_xyz
  x,y,z
_cell_length_a	15.944545
_cell_length_b	15.944545
_cell_length_c	9.730223
_cell_angle_alpha	89.993498
_cell_angle_beta	89.999494
_cell_angle_gamma	83.496173
loop_
_atom_site_label
_atom_site_type_symbol
_atom_site_fract_x
_atom_site_fract_y
_atom_site_fract_z
O1	O	1.114524	0.108307	-0.114207
O2	O	0.869973	0.121669	-0.114231
O3	O	0.998929	-0.007287	-0.114202
O4	O	0.985567	0.237263	-0.114236
O5	O	0.998921	-0.007291	0.114378
O6	O	0.869965	0.121665	0.114349
O7	O	1.114515	0.108304	0.114372
Zn8	Zn	0.992239	0.114984	0.150653
Zn9	Zn	0.992250	0.114988	-0.150511
O10	O	0.985559	0.237260	0.114344
C11	C	0.838675	0.121113	0.000057
C12	C	0.745428	0.119453	0.000048
C13	C	0.998371	-0.038583	0.000089
C14	C	0.996711	-0.131830	0.000093
C15	C	0.474798	0.034559	0.000075
C16	C	0.525374	0.075486	0.112774
C17	C	0.409785	0.113532	0.000073
C18	C	0.525363	0.075511	-0.112588
C19	C	0.574698	0.116437	0.000059
C20	C	0.459133	0.154439	0.112865
C21	C	0.459118	0.154452	-0.112598
C22	C	0.509662	0.195437	0.000129
C23	C	0.314783	0.111857	0.000082
C24	C	0.669698	0.118119	0.000059
C25	C	0.911817	-0.402460	0.000057
C26	C	0.952750	-0.351874	-0.112642
C27	C	0.990790	-0.467473	0.000053
C28	C	0.952763	-0.351905	0.112720
C29	C	0.993695	-0.302560	0.000075
C30	C	1.031702	-0.418115	-0.112738
C31	C	1.031704	-0.418149	0.112725
C32	C	1.072695	-0.367596	-0.000001
C33	C	0.989115	-0.562475	0.000040
C34	C	0.995377	-0.207560	0.000079
C35	C	1.145813	0.108859	0.000082
C36	C	1.239060	0.110519	0.000081
C37	C	0.986117	0.268556	0.000050
C38	C	0.987777	0.361802	0.000037
N39	N	0.992237	0.114980	0.356189
N40	N	0.992257	0.114985	-0.356047
C41	C	1.049358	0.057902	0.428128
C42	C	1.049367	0.057903	0.572011
C43	C	0.935130	0.172066	0.572004
C44	C	0.935119	0.172061	0.428124
H45	H	0.554302	0.042133	0.208062
H46	H	0.459146	-0.033453	0.000194
N47	N	1.107716	-0.000411	0.645472
N48	N	1.158704	-0.051372	0.581223
H49	H	1.199915	-0.092560	0.633103
H50	H	0.525153	0.263502	0.000186
H51	H	0.430320	0.187765	0.208246
H52	H	0.888627	0.218541	0.630587
N53	N	0.561649	0.033647	-0.232094
N54	N	0.553683	-0.042479	-0.252132
H55	H	0.579310	-0.072053	-0.336526
H56	H	0.888600	0.218541	0.369547
H57	H	0.919394	-0.322991	0.207996
N58	N	1.158085	-0.348174	-0.000056
N59	N	1.217569	-0.406414	-0.001025
H60	H	1.277876	-0.392699	-0.001070
N61	N	1.107656	-0.000458	0.354669
N62	N	1.158618	-0.051450	0.418924
H63	H	1.199773	-0.092690	0.367049
H64	H	0.430175	0.187776	-0.207889
H65	H	1.065034	-0.446921	-0.208122
N66	N	1.073497	-0.454465	0.232272
N67	N	1.046550	-0.433075	0.349208
H68	H	1.076060	-0.458723	0.433650
N69	N	0.826495	-0.422089	-0.000068
N70	N	0.766889	-0.363975	-0.001154
H71	H	0.706631	-0.377837	-0.001245
N72	N	0.910909	-0.315578	-0.232173
N73	N	0.834785	-0.323540	-0.252263
H74	H	0.805229	-0.297909	-0.336679
