data_functionalizedCrystal
_audit_creation_method	'MofGen! by Chris Wilmer'
_symmetry_space_group_name_H-M	'P1'
_symmetry_Int_Tables_number	1
_symmetry_cell_setting	triclinic
loop_
_symmetry_equiv_pos_as_xyz
  x,y,z
_cell_length_a	10.489741
_cell_length_b	10.489741
_cell_length_c	9.565339
_cell_angle_alpha	90.000900
_cell_angle_beta	90.000516
_cell_angle_gamma	95.460826
loop_
_atom_site_label
_atom_site_type_symbol
_atom_site_fract_x
_atom_site_fract_y
_atom_site_fract_z
O1	O	0.179959	-1.694053	-0.116173
O2	O	0.196852	-1.322857	-0.116194
O3	O	0.002807	-1.516901	-0.116175
O4	O	0.374003	-1.500009	-0.116192
O5	O	0.002819	-1.516886	0.116345
O6	O	0.196864	-1.322842	0.116326
O7	O	0.179971	-1.694038	0.116347
Zn8	Zn	0.188419	-1.508437	0.153254
Zn9	Zn	0.188403	-1.508458	-0.153101
O10	O	0.374015	-1.499993	0.116328
C11	C	0.195582	-1.275318	0.000063
C12	C	0.191765	-1.133688	0.000055
N13	N	0.188429	-1.508433	0.362334
C14	C	-0.044718	-1.515618	0.000084
C15	C	-0.186348	-1.511801	0.000082
C16	C	-0.254488	-1.388336	0.000064
C17	C	-0.346604	-1.446652	0.114712
C18	C	-0.346591	-1.446696	-0.114534
C19	C	-0.276599	-1.570168	0.114824
C20	C	-0.276576	-1.570195	-0.114525
C21	C	-0.368665	-1.628600	0.000150
C22	C	0.421541	-1.501277	0.000066
C23	C	0.563170	-1.505094	0.000059
C24	C	0.181241	-1.741577	0.000087
C25	C	0.185058	-1.883206	0.000086
C26	C	0.068300	-1.065548	0.000074
C27	C	0.126617	-0.973429	-0.114571
C28	C	0.126659	-0.973448	0.114676
C29	C	0.250133	-1.043435	-0.114684
C30	C	0.250157	-1.043463	0.114665
C31	C	0.308564	-0.951371	-0.000007
N32	N	0.188383	-1.508472	-0.362180
C33	C	0.278138	-1.418666	0.453528
C34	C	0.303949	-1.534163	0.546712
C35	C	0.162629	-1.392986	0.546704
C36	C	0.214298	-1.623988	0.453466
C37	C	0.072928	-1.482735	0.453451
C38	C	0.098690	-1.598314	0.546593
H39	H	-0.377611	-1.394405	0.211633
H40	H	0.354073	-1.342823	0.412665
O41	O	0.064316	-0.936268	0.230207
C42	C	0.062618	-0.802032	0.229285
H43	H	0.074926	-0.765122	0.117540
H44	H	0.144219	-0.756617	0.296850
C45	C	-0.081210	-0.811941	0.425202
C46	C	-0.066103	-0.766609	0.287954
H47	H	-0.160608	-0.790089	0.461398
H48	H	-0.080063	-0.902379	0.425828
H49	H	-0.013201	-0.774091	0.481489
H50	H	-0.134102	-0.804472	0.231666
H51	H	-0.067265	-0.676177	0.287320
H52	H	-0.204837	-1.286824	0.000174
H53	H	0.401606	-1.555926	0.587676
H54	H	0.236217	-1.721659	0.412683
O55	O	-0.239321	-1.632490	-0.230045
C56	C	-0.105330	-1.636198	-0.227742
H57	H	-0.069331	-1.625106	-0.115543
H58	H	-0.058147	-1.554757	-0.294304
C59	C	-0.115544	-1.778867	-0.424679
C60	C	-0.071331	-1.765255	-0.286873
H61	H	-0.094570	-1.858472	-0.461159
H62	H	-0.205816	-1.776365	-0.426235
H63	H	-0.076220	-1.710991	-0.480130
H64	H	-0.110666	-1.833120	-0.231421
H65	H	0.018935	-1.767771	-0.285309
H66	H	0.302360	-1.074503	0.211590
H67	H	-0.245762	-1.622356	0.211859
O68	O	0.312518	-1.080345	-0.230306
C69	C	0.420189	-1.142122	-0.189407
H70	H	0.405208	-1.181094	-0.078770
H71	H	0.509184	-1.070748	-0.192166
C72	C	0.456223	-1.205507	-0.426342
C73	C	0.437818	-1.253383	-0.290460
H74	H	0.467102	-1.274135	-0.488678
H75	H	0.383686	-1.163883	-0.453898
H76	H	0.530384	-1.146029	-0.428621
H77	H	0.363650	-1.312847	-0.288178
H78	H	0.510343	-1.295020	-0.262905
H79	H	0.022802	-1.674328	0.587199
O80	O	-0.043489	-1.456509	0.404594
C81	C	-0.070307	-1.334636	0.452046
H82	H	0.023179	-1.274955	0.478254
H83	H	-0.132919	-1.345730	0.549520
C84	C	-0.256127	-1.340443	0.304616
C85	C	-0.141306	-1.267138	0.336794
H86	H	-0.299928	-1.298808	0.233527
H87	H	-0.238064	-1.422553	0.272650
H88	H	-0.308289	-1.349682	0.385855
H89	H	-0.089140	-1.257914	0.255561
H90	H	-0.159363	-1.185025	0.368743
H91	H	-0.033196	-1.115238	-0.000065
O92	O	-0.427457	-1.749881	0.000043
C93	C	-0.390149	-1.815246	-0.119777
H94	H	-0.294467	-1.768243	-0.159349
H95	H	-0.465803	-1.810847	-0.204762
C96	C	-0.493968	-2.013813	-0.033803
C97	C	-0.376444	-1.956089	-0.082399
H98	H	-0.485519	-2.100694	-0.010750
H99	H	-0.519108	-1.969776	0.046920
H100	H	-0.557001	-2.010135	-0.104632
H101	H	-0.313418	-1.959754	-0.011564
H102	H	-0.351294	-2.000131	-0.163109
O103	O	0.136759	-1.276391	0.595394
C104	C	0.231623	-1.182035	0.548002
H105	H	0.278689	-1.217672	0.449878
H106	H	0.307084	-1.161687	0.632917
C107	C	0.111928	-1.014545	0.634596
C108	C	0.169727	-1.058310	0.514071
H109	H	0.073750	-0.938223	0.613671
H110	H	0.048018	-1.078114	0.666530
H111	H	0.174822	-0.997598	0.705347
H112	H	0.106830	-1.075272	0.443329
H113	H	0.233625	-0.994741	0.482124
H114	H	-0.377560	-1.394447	-0.211470
H115	H	0.074372	-0.942421	-0.211491
H116	H	0.410168	-0.901947	-0.000074
