data_functionalizedCrystal
_audit_creation_method	'MofGen! by Chris Wilmer'
_symmetry_space_group_name_H-M	'P1'
_symmetry_Int_Tables_number	1
_symmetry_cell_setting	triclinic
loop_
_symmetry_equiv_pos_as_xyz
  x,y,z
_cell_length_a	19.288867
_cell_length_b	15.625429
_cell_length_c	17.766277
_cell_angle_alpha	71.916495
_cell_angle_beta	89.992126
_cell_angle_gamma	83.712539
loop_
_atom_site_label
_atom_site_type_symbol
_atom_site_fract_x
_atom_site_fract_y
_atom_site_fract_z
O1	O	0.921733	0.112472	-0.093262
O2	O	1.421733	0.612472	0.406738
O3	O	0.719524	0.127642	-0.097409
O4	O	1.219524	0.627642	0.402591
O5	O	0.826028	-0.011203	-0.059509
O6	O	1.326028	0.488797	0.440491
O7	O	0.815229	0.251317	-0.131163
O8	O	1.315229	0.751317	0.368837
O9	O	0.826010	-0.011210	0.065681
O10	O	1.326010	0.488790	0.565681
O11	O	0.719505	0.127635	0.027781
O12	O	1.219505	0.627635	0.527781
O13	O	0.921715	0.112465	0.031928
O14	O	1.421715	0.612465	0.531928
Cu15	Cu	0.820608	0.120049	0.041285
Cu16	Cu	1.320608	0.620049	0.541285
Cu17	Cu	0.820630	0.120058	-0.106767
Cu18	Cu	1.320630	0.620058	0.393233
O19	O	0.815210	0.251310	-0.005972
O20	O	1.315210	0.751310	0.494028
C21	C	0.693637	0.127150	-0.034682
C22	C	1.193637	0.627150	0.465318
C23	C	0.616528	0.125684	-0.034284
C24	C	1.116528	0.625684	0.465716
C25	C	0.825529	-0.044792	0.012252
C26	C	1.325529	0.455208	0.512252
C27	C	0.824061	-0.144867	0.039562
C28	C	1.324061	0.355133	0.539562
C29	C	0.060937	0.115127	-0.099635
C30	C	0.560937	0.615127	0.400365
C31	C	0.133390	0.116499	-0.100012
C32	C	0.633390	0.616499	0.399988
C33	C	0.169610	0.117186	-0.031959
C34	C	0.669610	0.617186	0.468041
C35	C	0.133375	0.116477	0.036482
C36	C	0.633375	0.616477	0.536482
C37	C	0.060925	0.115096	0.036860
C38	C	0.560925	0.615096	0.536860
C39	C	0.279116	0.172173	0.005313
C40	C	0.779116	0.672173	0.505313
C41	C	0.351564	0.173560	0.004931
C42	C	0.851564	0.673560	0.504931
C43	C	0.393070	0.121442	-0.033121
C44	C	0.893070	0.621442	0.466879
C45	C	0.362118	0.067949	-0.070806
C46	C	0.862118	0.567949	0.429194
C47	C	0.289669	0.066567	-0.070428
C48	C	0.789669	0.566567	0.429572
C49	C	0.248170	0.118683	-0.032361
C50	C	0.748170	0.618683	0.467639
C51	C	0.507858	0.123632	-0.101965
C52	C	1.007858	0.623632	0.398035
C53	C	0.580312	0.124999	-0.102338
C54	C	1.080312	0.624999	0.397662
C55	C	0.580296	0.124985	0.034156
C56	C	1.080296	0.624985	0.534156
C57	C	0.507844	0.123610	0.034529
C58	C	1.007844	0.623610	0.534529
C59	C	0.471629	0.122937	-0.033535
C60	C	0.971629	0.622937	0.466465
C61	C	0.819264	-0.473982	-0.211798
C62	C	1.319264	0.026018	0.288202
C63	C	0.817881	-0.568017	-0.186113
C64	C	1.317881	-0.068017	0.313887
C65	C	0.817861	-0.568011	-0.049639
C66	C	1.317861	-0.068011	0.450361
C67	C	0.819247	-0.473975	-0.075313
C68	C	1.319247	0.026025	0.424687
C69	C	0.819948	-0.426968	-0.156393
C70	C	1.319948	0.073032	0.343607
C71	C	0.819931	-0.426960	-0.019908
C72	C	1.319931	0.073040	0.480092
C73	C	0.821313	-0.332932	-0.045580
C74	C	1.321313	0.167068	0.454420
C75	C	0.822012	-0.285918	-0.126657
C76	C	1.322012	0.214082	0.373343
C77	C	0.821330	-0.332939	-0.182065
C78	C	1.321330	0.167061	0.317935
C79	C	0.819225	-0.473969	0.061172
C80	C	1.319225	0.026031	0.561172
C81	C	0.819909	-0.426954	0.116577
C82	C	1.319909	0.073046	0.616577
C83	C	0.821296	-0.332924	0.090906
C84	C	1.321296	0.167076	0.590906
C85	C	0.821995	-0.285910	0.009829
C86	C	1.321995	0.214090	0.509829
C87	C	0.821978	-0.285903	0.146314
C88	C	1.321978	0.214097	0.646314
C89	C	0.823360	-0.191874	0.120642
C90	C	1.323360	0.308126	0.620642
C91	C	0.823377	-0.191881	-0.015843
C92	C	1.323377	0.308119	0.484157
C93	C	0.947602	0.112957	-0.030801
C94	C	1.447602	0.612957	0.469199
C95	C	1.024710	0.114423	-0.031203
C96	C	1.524710	0.614423	0.468797
C97	C	0.815710	0.284899	-0.077734
C98	C	1.315710	0.784899	0.422266
C99	C	0.817178	0.384974	-0.105049
C100	C	1.317178	0.884974	0.394951
N101	N	0.820598	0.120043	0.145418
N102	N	1.320598	0.620043	0.645418
N103	N	0.820646	0.120057	-0.210897
N104	N	1.320646	0.620057	0.289103
C105	C	0.867773	0.058593	0.201579
C106	C	1.367773	0.558593	0.701579
C107	C	0.867777	0.058588	0.280381
C108	C	1.367777	0.558588	0.780381
C109	C	0.820612	0.120050	0.303016
C110	C	1.320612	0.620050	0.803016
C111	C	0.773428	0.181505	0.246844
C112	C	1.273428	0.681505	0.746844
C113	C	0.773421	0.181501	0.168045
C114	C	1.273421	0.681501	0.668045
C115	C	0.811592	0.202193	0.405433
C116	C	1.311592	0.702193	0.905433
C117	C	0.811604	0.202198	0.484231
C118	C	1.311604	0.702198	0.984231
C119	C	0.820631	0.120061	0.546060
C120	C	1.320631	0.620061	1.046060
C121	C	0.829660	0.037916	0.529082
C122	C	1.329660	0.537916	1.029082
C123	C	0.829653	0.037912	0.450283
C124	C	1.329653	0.537912	0.950283
C125	C	0.820615	0.120060	0.388459
C126	C	1.320615	0.620060	0.888459
C127	C	0.867813	0.058601	0.687669
C128	C	1.367813	0.558601	1.187669
C129	C	0.867812	0.058596	0.766474
C130	C	1.367812	0.558596	1.266474
C131	C	0.773467	0.181520	0.732933
C132	C	1.273467	0.681520	1.232933
C133	C	0.773464	0.181518	0.654132
C134	C	1.273464	0.681518	1.154132
C135	C	0.820641	0.120059	0.631504
C136	C	1.320641	0.620059	1.131504
H137	H	0.031456	0.114576	-0.155056
H138	H	0.531456	0.614576	0.344944
F139	F	0.822085	-0.282907	-0.268360
F140	F	1.322085	0.217093	0.231640
F141	F	0.817752	-0.574043	0.088493
F142	F	1.317752	-0.074043	0.588493
F143	F	0.723266	0.246926	0.757020
F144	F	1.223266	0.746926	1.257020
H145	H	0.735004	0.231543	0.122316
H146	H	1.235004	0.731543	0.622316
H147	H	0.162891	0.117077	-0.155740
H148	H	0.662891	0.617077	0.344260
H149	H	0.031429	0.114526	0.092586
H150	H	0.531429	0.614526	0.592586
H151	H	0.823954	-0.153606	-0.081867
H152	H	1.323954	0.346394	0.418133
F153	F	0.234949	0.227639	0.045824
F154	F	0.734949	0.727639	0.545824
F155	F	0.918021	-0.006816	0.826249
F156	F	1.418021	0.493184	1.326249
H157	H	0.823902	-0.153591	0.165758
H158	H	1.323902	0.346409	0.665758
H159	H	0.819336	-0.465240	0.182593
H160	H	1.319336	0.034760	0.682593
H161	H	0.609786	0.125541	0.089566
H162	H	1.109786	0.625541	0.589566
H163	H	0.823130	-0.209352	-0.147558
H164	H	1.323130	0.290648	0.352442
H165	H	0.264471	0.023010	-0.101111
H166	H	0.764471	0.523010	0.398889
H167	H	0.819840	-0.435707	-0.277821
H168	H	1.319840	0.064293	0.222179
F169	F	0.406286	0.012480	-0.111310
F170	F	0.906286	0.512480	0.388690
H171	H	0.804256	0.269085	0.498047
H172	H	1.304256	0.769085	0.998047
F173	F	0.469314	0.122912	-0.174402
F174	F	0.969314	0.622912	0.325598
H175	H	0.804229	0.269083	0.355095
H176	H	1.304229	0.769083	0.855095
H177	H	0.821401	-0.324189	0.212330
H178	H	1.321401	0.175811	0.712330
F179	F	0.917980	-0.006819	0.177499
F180	F	1.417980	0.493181	0.677499
H181	H	0.735053	0.231560	0.608401
H182	H	1.235053	0.731560	1.108401
F183	F	0.817110	-0.618048	0.036650
F184	F	1.317110	-0.118048	0.536650
H185	H	0.735025	0.231547	0.265278
H186	H	1.235025	0.731547	0.765278
F187	F	0.469286	0.122873	0.107360
F188	F	0.969286	0.622873	0.607360
F189	F	0.171925	0.117204	0.108910
F190	F	0.671925	0.617204	0.608910
F191	F	0.618869	0.125739	-0.175174
F192	F	1.118869	0.625739	0.324826
H193	H	0.376757	0.217139	0.035595
H194	H	0.876757	0.717139	0.535595
F195	F	0.917990	-0.006819	0.340161
F196	F	1.417990	0.493181	0.840161
F197	F	0.817150	-0.618050	-0.245089
F198	F	1.317150	-0.118050	0.254911
H199	H	0.837003	-0.028973	0.436463
H200	H	1.337003	0.471027	0.936463
F201	F	0.839273	-0.049507	0.594880
F202	F	1.339273	0.450493	1.094880
H203	H	0.906226	0.008555	0.669246
H204	H	1.406226	0.508555	1.169246
