data_functionalizedCrystal
_audit_creation_method	'MofGen! by Chris Wilmer'
_symmetry_space_group_name_H-M	'P1'
_symmetry_Int_Tables_number	1
_symmetry_cell_setting	triclinic
loop_
_symmetry_equiv_pos_as_xyz
  x,y,z
_cell_length_a	12.837943
_cell_length_b	14.853567
_cell_length_c	11.295483
_cell_angle_alpha	94.104625
_cell_angle_beta	85.461227
_cell_angle_gamma	89.231935
loop_
_atom_site_label
_atom_site_type_symbol
_atom_site_fract_x
_atom_site_fract_y
_atom_site_fract_z
O1	O	1.382763	0.228927	-0.098984
O2	O	1.080941	0.217348	-0.098992
O3	O	1.239915	0.092592	-0.098991
O4	O	1.223790	0.353684	-0.098985
O5	O	1.225952	0.103530	0.099059
O6	O	1.066978	0.228287	0.099059
O7	O	1.368800	0.239866	0.099067
Cu8	Cu	1.216614	0.235075	0.117146
Cu9	Cu	1.233127	0.222139	-0.117072
O10	O	1.209827	0.364623	0.099066
C11	C	1.035334	0.218906	0.000032
C12	C	0.920240	0.207240	0.000029
C13	C	1.232203	0.064410	0.000030
C14	C	1.230014	-0.035860	0.000020
C15	C	0.679482	0.347487	0.000049
C16	C	0.571341	0.336530	0.000047
C17	C	0.595813	0.174369	0.000030
C18	C	0.703954	0.185327	0.000032
C19	C	0.745785	0.271888	0.000040
C20	C	0.853929	0.282844	0.000034
C21	C	0.878399	0.120685	0.000026
C22	C	0.770257	0.109728	0.000023
C23	C	1.126324	-0.457187	0.000040
C24	C	1.315188	-0.462449	0.000045
C25	C	1.317247	-0.368241	0.000038
C26	C	1.223843	-0.318502	0.000034
C27	C	1.128380	-0.362970	0.000037
C28	C	1.412707	-0.323764	0.000047
C29	C	1.414770	-0.229551	0.000042
C30	C	1.321366	-0.179810	0.000029
C31	C	1.225899	-0.224285	0.000030
C32	C	1.132495	-0.174546	0.000026
C33	C	1.037028	-0.219019	0.000019
C34	C	1.034976	-0.313230	0.000024
C35	C	1.323418	-0.085599	0.000024
C36	C	1.134551	-0.080329	0.000023
C37	C	1.414408	0.238308	0.000040
C38	C	1.529502	0.249974	0.000036
C39	C	1.217539	0.392804	0.000042
C40	C	1.219728	0.493073	0.000044
N41	N	1.205008	0.244174	0.281883
N42	N	1.244742	0.213033	-0.281808
C43	C	1.328293	0.147484	0.531173
C44	C	1.319529	0.154367	0.655836
C45	C	1.178712	0.264819	0.655876
C46	C	1.187475	0.257935	0.531212
C47	C	1.262270	0.199267	0.468865
C48	C	1.271038	0.192389	0.344199
C49	C	1.130216	0.302836	0.344241
C50	C	1.121452	0.309719	0.468904
H51	H	0.887985	0.353327	0.000043
N52	N	0.936290	-0.165366	0.000006
H53	H	0.875500	-0.207829	-0.000000
H54	H	0.927856	-0.122107	0.073428
H55	H	0.517360	0.398091	0.000058
N56	N	1.408955	0.084195	0.463940
H57	H	1.372910	0.037994	0.412233
H58	H	1.458530	0.119811	0.412269
N59	N	1.351708	0.129119	0.276948
H60	H	1.392201	0.097357	0.335341
H61	H	1.315597	0.082975	0.225230
N62	N	0.724610	0.440842	0.000039
H63	H	0.666197	0.487073	0.000037
H64	H	0.763771	0.452978	0.073458
H65	H	0.957251	-0.349448	0.000020
N66	N	0.550684	0.081015	0.000055
H67	H	0.472115	0.085551	0.000067
H68	H	0.580091	0.043458	-0.073362
N69	N	1.098059	0.328102	0.723136
H70	H	1.057563	0.359869	0.664750
H71	H	1.048538	0.292485	0.774870
N72	N	1.059005	0.358700	0.277039
H73	H	1.075907	0.345441	0.188604
H74	H	0.983911	0.343139	0.298841
H75	H	1.048597	-0.493402	0.000030
H76	H	0.736183	0.039252	0.000031
H77	H	1.373291	0.112199	0.706564
N78	N	1.040785	0.372989	0.536163
H79	H	1.076824	0.419186	0.587880
H80	H	1.000311	0.404687	0.477700
H81	H	0.932395	0.059126	0.000010
H82	H	1.058490	-0.039837	0.000014
N83	N	1.415925	-0.516089	0.000069
H84	H	1.400136	-0.582520	0.000077
H85	H	1.462701	-0.504836	-0.073350
H86	H	1.488750	-0.364268	0.000062
H87	H	1.492505	-0.193349	0.000046
H88	H	1.401145	-0.049393	0.000038
