data_functionalizedCrystal
_audit_creation_method	'MofGen! by Chris Wilmer'
_symmetry_space_group_name_H-M	'P1'
_symmetry_Int_Tables_number	1
_symmetry_cell_setting	triclinic
loop_
_symmetry_equiv_pos_as_xyz
  x,y,z
_cell_length_a	16.120530
_cell_length_b	18.101395
_cell_length_c	16.120297
_cell_angle_alpha	92.869806
_cell_angle_beta	90.128140
_cell_angle_gamma	87.127367
loop_
_atom_site_label
_atom_site_type_symbol
_atom_site_fract_x
_atom_site_fract_y
_atom_site_fract_z
Zn1	Zn	1.247379	-0.375189	-0.534544
Zn2	Zn	1.254311	-0.493081	-0.395480
Zn3	Zn	1.115371	-0.362675	-0.388463
Zn4	Zn	1.108267	-0.492399	-0.527449
O5	O	1.181332	-0.430836	-0.461484
O6	O	1.364664	-0.396350	-0.522003
O7	O	1.241754	-0.470830	-0.278184
O8	O	1.132955	-0.260707	-0.407873
O9	O	1.369756	-0.482965	-0.419833
O10	O	1.229940	-0.269901	-0.515199
O11	O	1.139676	-0.375022	-0.273028
O12	O	0.998064	-0.374360	-0.400994
O13	O	1.120847	-0.481802	-0.644756
O14	O	0.992844	-0.469668	-0.503107
O15	O	1.223051	-0.395689	-0.649968
O16	O	1.234865	-0.596619	-0.412954
O17	O	1.127568	-0.596117	-0.509911
C18	C	0.965282	-0.420583	-0.450519
C19	C	0.872853	-0.416215	-0.445848
C20	C	0.703625	-0.408224	-0.437327
C21	C	0.659876	-0.453505	-0.485701
C22	C	0.565712	-0.449058	-0.480960
C23	C	0.797798	-0.412669	-0.442067
C24	C	1.181219	-0.623239	-0.461443
C25	C	1.181246	-0.705555	-0.461457
C26	C	1.181340	-0.856270	-0.461495
C27	C	1.113800	-0.887336	-0.522447
C28	C	1.114030	-0.972977	-0.522730
C29	C	1.181431	-1.004658	-0.461532
C30	C	1.267903	-0.978638	-0.489547
C31	C	1.267455	-0.892992	-0.489973
C32	C	1.163200	-0.883074	-0.372414
C33	C	1.161296	-0.968658	-0.372806
C34	C	1.181487	-1.088521	-0.461552
C35	C	1.181289	-0.772407	-0.461477
C36	C	1.398226	-0.441129	-0.472492
C37	C	1.490653	-0.445516	-0.477183
C38	C	1.170383	-0.440065	-0.678378
C39	C	1.165718	-0.443999	-0.770805
C40	C	1.181467	-0.237683	-0.461545
C41	C	1.181524	-0.155372	-0.461570
C42	C	1.157169	-0.451162	-0.940029
C43	C	1.205659	-0.410296	-0.983799
C44	C	1.200902	-0.414281	-1.077961
C45	C	1.161924	-0.447177	-0.845858
C46	C	1.192286	-0.421591	-0.245437
C47	C	1.197113	-0.417457	-0.153018
H48	H	1.049777	-0.990355	-0.504703
C49	C	1.043601	-0.803056	-0.398185
C50	C	1.079798	-0.848761	-0.339085
H51	H	0.992107	-0.781878	-0.377616
H52	H	1.079702	-0.764742	-0.408860
H53	H	1.034432	-0.831557	-0.448155
H54	H	1.088972	-0.820259	-0.289116
H55	H	1.043689	-0.887080	-0.328399
C56	C	1.015003	-0.481682	-0.959803
C57	C	1.096312	-0.502435	-0.984903
H58	H	0.977436	-0.513335	-0.987518
H59	H	1.010256	-0.485701	-0.901502
H60	H	1.002171	-0.431936	-0.973380
H61	H	1.109146	-0.552179	-0.971320
H62	H	1.101062	-0.498422	-1.043217
H63	H	0.693142	-0.495609	-0.530678
C64	C	0.611446	-0.388507	-0.320666
C65	C	0.658725	-0.351390	-0.376609
H66	H	0.583725	-0.353421	-0.283178
H67	H	0.571630	-0.416326	-0.350400
H68	H	0.646925	-0.420938	-0.290469
H69	H	0.623246	-0.318963	-0.406810
H70	H	0.698546	-0.323558	-0.346872
H71	H	1.049308	-0.863101	-0.504573
H72	H	1.125310	-0.869239	-0.587984
C73	C	1.139123	-0.947502	-0.664997
C74	C	1.129825	-1.005298	-0.611726
H75	H	1.148880	-0.967458	-0.719940
H76	H	1.089966	-0.916265	-0.663972
H77	H	1.184840	-0.919594	-0.647211
H78	H	1.084104	-1.033203	-0.629508
H79	H	1.178987	-1.036548	-0.612754
C80	C	1.299637	-0.955539	-0.631087
C81	C	1.289849	-1.012424	-0.576716
H82	H	1.313184	-0.976396	-0.684902
H83	H	1.249338	-0.926082	-0.633621
H84	H	1.343040	-0.925568	-0.611617
H85	H	1.246442	-1.042392	-0.596183
H86	H	1.340155	-1.041893	-0.574185
H87	H	1.283324	-0.876618	-0.555216
C88	C	1.379516	-0.926266	-0.398571
C89	C	1.337394	-0.865553	-0.432958
H90	H	1.422696	-0.909327	-0.363379
H91	H	1.341768	-0.952274	-0.367168
H92	H	1.402663	-0.958365	-0.441849
H93	H	1.314242	-0.833456	-0.389681
H94	H	1.375148	-0.839532	-0.464363
H95	H	1.097679	-0.985231	-0.351756
C96	C	1.219479	-1.074302	-0.304777
C97	C	1.223358	-0.997376	-0.307772
H98	H	1.257805	-1.092030	-0.264634
H99	H	1.164892	-1.086093	-0.289918
H100	H	1.233123	-1.096954	-0.357748
H101	H	1.209708	-0.974724	-0.254803
H102	H	1.277958	-0.985579	-0.322627
C103	C	1.191569	-0.810784	-0.247549
C104	C	1.229670	-0.855912	-0.311033
H105	H	1.232606	-0.794015	-0.209659
H106	H	1.163343	-0.769401	-0.270825
H107	H	1.152928	-0.838336	-0.219101
H108	H	1.268307	-0.828358	-0.339486
H109	H	1.257909	-0.897301	-0.287756
C110	C	1.259503	-0.364936	-0.852978
C111	C	1.266516	-0.359014	-0.938925
H112	H	1.297073	-0.333278	-0.825274
H113	H	1.204345	-0.350865	-0.835962
H114	H	1.272351	-0.414681	-0.839408
H115	H	1.253663	-0.309270	-0.952496
H116	H	1.321687	-0.373081	-0.955947
H117	H	1.319432	-0.999364	-0.446722
