data_functionalizedCrystal
_audit_creation_method	'MofGen! by Chris Wilmer'
_symmetry_space_group_name_H-M	'P1'
_symmetry_Int_Tables_number	1
_symmetry_cell_setting	triclinic
loop_
_symmetry_equiv_pos_as_xyz
  x,y,z
_cell_length_a	9.065218
_cell_length_b	16.992695
_cell_length_c	7.540329
_cell_angle_alpha	89.996072
_cell_angle_beta	89.996962
_cell_angle_gamma	87.842054
loop_
_atom_site_label
_atom_site_type_symbol
_atom_site_fract_x
_atom_site_fract_y
_atom_site_fract_z
O1	O	1.971074	0.115065	-0.147490
O2	O	1.542664	0.124504	-0.147492
O3	O	1.755152	0.005630	-0.147477
O4	O	1.758586	0.233939	-0.147505
O5	O	1.755138	0.005628	0.147488
O6	O	1.542651	0.124502	0.147473
O7	O	1.971060	0.115064	0.147476
Cu8	Cu	1.756854	0.119783	0.174407
Cu9	Cu	1.756870	0.119785	-0.174424
O10	O	1.758573	0.233938	0.147460
C11	C	1.487587	0.123596	-0.000010
C12	C	1.323492	0.120884	-0.000011
C13	C	1.750726	-0.023615	0.000005
C14	C	1.737542	-0.110753	0.000005
C15	C	1.864748	-0.160090	0.000008
C16	C	1.852352	-0.241964	-0.000009
C17	C	1.712748	-0.274500	-0.000016
C18	C	1.585533	-0.225157	-0.000024
C19	C	1.597931	-0.143284	-0.000020
C20	C	1.661364	-0.518463	-0.000041
C21	C	1.648976	-0.600343	-0.000040
C22	C	1.915797	-0.617144	-0.000028
C23	C	1.928182	-0.535269	-0.000013
C24	C	1.800967	-0.485933	-0.000031
N25	N	1.700074	-0.358189	-0.000028
N26	N	1.813642	-0.402245	-0.000032
C27	C	2.026138	0.115972	-0.000011
C28	C	2.190232	0.118684	-0.000022
C29	C	1.762998	0.263183	-0.000026
C30	C	1.776182	0.350320	-0.000037
N31	N	1.756853	0.119781	0.419755
N32	N	1.756882	0.119780	-0.419772
H33	H	1.978428	-0.133606	0.000024
H34	H	1.557776	-0.478303	-0.000055
O35	O	1.513327	-0.631914	-0.000376
C36	C	1.435201	-0.606783	-0.153133
H37	H	1.516678	-0.589184	-0.259894
H38	H	1.359194	-0.554026	-0.118609
C39	C	1.242399	-0.695985	-0.091287
C40	C	1.342472	-0.674377	-0.222419
H41	H	1.185194	-0.737678	-0.134024
H42	H	1.295030	-0.712915	0.011631
H43	H	1.179074	-0.652015	-0.062529
H44	H	1.405805	-0.718344	-0.251159
H45	H	1.289848	-0.657456	-0.325345
O46	O	1.450034	-0.256889	0.000047
C47	C	1.466365	-0.339732	0.000006
H48	H	1.579321	-0.358138	0.055850
H49	H	1.456530	-0.362565	-0.141504
C50	C	1.206169	-0.351913	0.047091
C51	C	1.344899	-0.374520	0.115694
H52	H	1.131240	-0.373373	0.118445
H53	H	1.195164	-0.296100	0.047112
H54	H	1.197994	-0.370942	-0.070832
H55	H	1.353079	-0.355483	0.233606
H56	H	1.355902	-0.430331	0.115695
O57	O	1.474213	-0.095468	0.000056
C58	C	1.348335	-0.141739	0.000004
H59	H	1.378601	-0.202566	0.055854
H60	H	1.306012	-0.147861	-0.141509
C61	C	1.189948	-0.027140	0.047068
C62	C	1.227118	-0.101846	0.115679
H63	H	1.115172	-0.002531	0.118414
H64	H	1.274753	0.004035	0.047097
H65	H	1.154688	-0.032251	-0.070858
H66	H	1.262395	-0.096733	0.233594
H67	H	1.142316	-0.133019	0.115672
H68	H	2.019368	-0.657322	-0.000018
H69	H	2.041862	-0.508785	-0.000008
H70	H	1.955937	-0.282132	-0.000003
