data_functionalizedCrystal
_audit_creation_method	'MofGen! by Chris Wilmer'
_symmetry_space_group_name_H-M	'P1'
_symmetry_Int_Tables_number	1
_symmetry_cell_setting	triclinic
loop_
_symmetry_equiv_pos_as_xyz
  x,y,z
_cell_length_a	17.038272
_cell_length_b	19.288865
_cell_length_c	16.098538
_cell_angle_alpha	92.708117
_cell_angle_beta	87.069734
_cell_angle_gamma	87.123902
loop_
_atom_site_label
_atom_site_type_symbol
_atom_site_fract_x
_atom_site_fract_y
_atom_site_fract_z
O1	O	-1.040387	-0.147907	0.069168
O2	O	-0.812765	-0.145512	0.069192
O3	O	-0.933152	-0.045987	0.069163
O4	O	-0.920000	-0.247432	0.069198
O5	O	-0.926120	-0.051776	-0.069348
O6	O	-0.805733	-0.151301	-0.069319
O7	O	-1.033354	-0.153697	-0.069343
Zn8	Zn	-0.918427	-0.153418	-0.091323
Zn9	Zn	-0.927692	-0.145791	0.091172
O10	O	-0.912967	-0.253222	-0.069314
C11	C	-0.780128	-0.146229	-0.000060
C12	C	-0.693356	-0.139731	-0.000052
C13	C	-0.929213	-0.022979	-0.000095
C14	C	-0.927942	0.054203	-0.000102
C15	C	-1.065992	-0.152980	-0.000088
C16	C	-1.152764	-0.159478	-0.000091
C17	C	-0.643050	-0.199386	-0.000042
C18	C	-0.561519	-0.193277	-0.000055
C19	C	-0.530295	-0.127512	-0.000071
C20	C	-0.580608	-0.067852	-0.000083
C21	C	-0.662137	-0.073962	-0.000076
C22	C	-0.284606	-0.105928	-0.000097
C23	C	-0.203070	-0.099822	-0.000101
C24	C	-0.183986	-0.225248	-0.000074
C25	C	-0.265518	-0.231352	-0.000063
C26	C	-0.315824	-0.171692	-0.000079
C27	C	-0.446957	-0.121266	-0.000081
C28	C	-0.399160	-0.177939	-0.000075
C29	C	-0.916907	-0.276229	-0.000054
C30	C	-0.918178	-0.353411	-0.000041
N31	N	-0.912109	-0.158624	-0.215870
C32	C	-0.998580	0.094528	-0.000114
C33	C	-0.997387	0.167050	-0.000100
C34	C	-0.925551	0.199242	-0.000092
C35	C	-0.854904	0.158908	-0.000076
C36	C	-0.856099	0.086388	-0.000081
C37	C	-0.866616	0.308996	-0.048604
C38	C	-0.865423	0.381514	-0.048604
C39	C	-0.921861	0.422917	-0.000073
C40	C	-0.979504	0.391793	0.048447
C41	C	-0.980699	0.319273	0.048442
C42	C	-0.924247	0.277877	-0.000086
C43	C	-0.991210	0.541878	-0.000069
C44	C	-0.990015	0.614401	-0.000051
C45	C	-0.847529	0.606258	-0.000035
C46	C	-0.848727	0.533737	-0.000045
C47	C	-0.920570	0.501551	-0.000066
C48	C	-0.963225	-0.116399	-0.259468
C49	C	-0.958813	-0.120047	-0.346656
C50	C	-0.903288	-0.165925	-0.390244
C51	C	-0.852167	-0.208152	-0.346641
C52	C	-0.856576	-0.204499	-0.259454
C53	C	-0.887304	-0.179154	-0.653490
C54	C	-0.882901	-0.182805	-0.740683
C55	C	-0.989546	-0.094699	-0.740692
C56	C	-0.993954	-0.091053	-0.653504
C57	C	-0.942830	-0.133278	-0.609908
C58	C	-0.898778	-0.169657	-0.479364
C59	C	-0.947336	-0.129542	-0.520789
N60	N	-0.934016	-0.140580	0.215720
H61	H	-0.668465	-0.252939	-0.000029
F62	F	-0.547375	0.002141	-0.000106
H63	H	-1.008442	-0.079043	-0.223983
H64	H	-1.057080	0.068328	-0.000128
H65	H	-1.047539	0.647234	-0.000056
F66	F	-1.072572	0.209975	-0.000111
F67	F	-0.338134	-0.042431	-0.000114
H68	H	-0.992542	-0.092185	-0.485297
F69	F	-0.130443	-0.288738	-0.000059
F70	F	-0.298742	-0.301348	-0.000041
H71	H	-0.853570	-0.207013	-0.514862
H72	H	-0.421525	-0.067721	-0.000118
H73	H	-1.025461	0.425502	0.087966
H74	H	-0.837683	-0.220167	-0.776169
H75	H	-0.789039	0.632468	-0.000024
H76	H	-0.177652	-0.046266	-0.000113
F77	F	-0.780913	0.043469	-0.000068
H78	H	-1.031168	-0.060321	-0.776195
F79	F	-0.507982	-0.256772	-0.000041
H80	H	-0.703097	-0.025384	-0.000084
H81	H	-0.845679	-0.213536	-0.618001
H82	H	-0.424585	-0.231485	-0.000066
H83	H	-1.027633	0.293935	0.087950
H84	H	-0.791206	0.500903	-0.000040
H85	H	-1.049709	0.515672	-0.000083
H86	H	-0.806953	-0.245504	-0.382136
F87	F	-0.804078	0.414632	-0.100246
F88	F	-0.806544	0.264938	-0.100262
H89	H	-0.796414	0.185123	-0.000067
H90	H	-1.000435	-0.085664	-0.382152
F91	F	-1.053050	-0.042226	-0.607114
H92	H	-0.814951	-0.238883	-0.223958
