data_functionalizedCrystal
_audit_creation_method	'MofGen! by Chris Wilmer'
_symmetry_space_group_name_H-M	'P1'
_symmetry_Int_Tables_number	1
_symmetry_cell_setting	triclinic
loop_
_symmetry_equiv_pos_as_xyz
  x,y,z
_cell_length_a	18.215407
_cell_length_b	18.215405
_cell_length_c	18.215407
_cell_angle_alpha	89.985182
_cell_angle_beta	89.989002
_cell_angle_gamma	90.024806
loop_
_atom_site_label
_atom_site_type_symbol
_atom_site_fract_x
_atom_site_fract_y
_atom_site_fract_z
Zn1	Zn	-1.125002	0.293108	0.416117
Zn2	Zn	-0.625002	0.793108	0.916117
Zn3	Zn	-1.124931	0.416145	0.293045
Zn4	Zn	-0.624931	0.916145	0.793045
Zn5	Zn	-1.001955	0.293097	0.293063
Zn6	Zn	-0.501955	0.793097	0.793063
Zn7	Zn	-1.001901	0.416137	0.416069
Zn8	Zn	-0.501901	0.916137	0.916069
O9	O	-1.063447	0.354622	0.354574
O10	O	-0.563447	0.854622	0.854574
O11	O	-1.227977	0.309437	0.399805
O12	O	-0.727977	0.809437	0.899805
O13	O	-1.108611	0.399821	0.190064
O14	O	-0.608611	0.899821	0.690064
O15	O	-1.018330	0.190114	0.309414
O16	O	-0.518330	0.690114	0.809414
O17	O	-1.227925	0.399832	0.309384
O18	O	-0.727925	0.899832	0.809384
O19	O	-1.108732	0.190122	0.399822
O20	O	-0.608732	0.690122	0.899822
O21	O	-1.018262	0.309418	0.190076
O22	O	-0.518262	0.809418	0.690076
O23	O	-0.898964	0.309410	0.309367
O24	O	-0.398964	0.809410	0.809367
O25	O	-1.018237	0.399818	0.519059
O26	O	-0.518237	0.899818	1.019059
O27	O	-0.898924	0.399807	0.399739
O28	O	-0.398924	0.899807	0.899739
O29	O	-1.108679	0.309429	0.519095
O30	O	-0.608679	0.809429	1.019095
O31	O	-1.108558	0.519128	0.309337
O32	O	-0.608558	1.019128	0.809337
O33	O	-1.018168	0.519122	0.399722
O34	O	-0.518168	1.019122	0.899722
C35	C	-0.872241	0.354607	0.354550
C36	C	-0.372241	0.854607	0.854550
C37	C	-0.790442	0.354619	0.354557
C38	C	-0.290442	0.854619	0.854557
C39	C	-0.602247	0.401761	0.401552
C40	C	-0.102247	0.901761	0.901552
C41	C	-0.525388	0.401762	0.401560
C42	C	-0.025388	0.901762	0.901560
C43	C	-0.525400	0.307487	0.307598
C44	C	-0.025400	0.807487	0.807598
C45	C	-0.602257	0.307482	0.307594
C46	C	-0.102257	0.807482	0.807594
C47	C	-0.640679	0.354623	0.354570
C48	C	-0.140679	0.854623	0.854570
C49	C	-0.486963	0.354629	0.354582
C50	C	0.013037	0.854629	0.854582
C51	C	-0.403629	0.354631	0.354591
C52	C	0.096371	0.854631	0.854591
C53	C	-0.724018	0.354621	0.354563
C54	C	-0.224018	0.854621	0.854563
C55	C	-1.063370	0.545828	0.354538
C56	C	-0.563370	1.045828	0.854538
C57	C	-1.063404	0.627627	0.354548
C58	C	-0.563404	1.127627	0.854548
C59	C	-0.255400	0.354634	0.354594
C60	C	0.244600	0.854634	0.854594
C61	C	-0.337199	0.354634	0.354595
C62	C	0.162801	0.854634	0.854595
C63	C	-1.063460	0.354624	0.546527
C64	C	-0.563460	0.854624	1.046527
C65	C	-1.063465	0.354624	0.628325
C66	C	-0.563465	0.854624	1.128325
C67	C	-1.063545	0.162669	0.354625
C68	C	-0.563545	0.662669	0.854625
C69	C	-1.063587	0.080870	0.354647
C70	C	-0.563587	0.580870	0.854647
C71	C	-1.110580	0.815799	0.307571
C72	C	-0.610580	1.315799	0.807571
C73	C	-1.110613	0.892658	0.307589
C74	C	-0.610613	1.392658	0.807589
C75	C	-1.016409	0.892692	0.401629
C76	C	-0.516409	1.392692	0.901629
C77	C	-1.016380	0.815834	0.401614
C78	C	-0.516380	1.315834	0.901614
C79	C	-1.063465	0.777390	0.354581
C80	C	-0.563465	1.277390	0.854581
C81	C	-1.063526	0.931106	0.354614
C82	C	-0.563526	1.431106	0.854614
C83	C	-1.063562	1.014440	0.354633
C84	C	-0.563562	1.514440	0.854633
C85	C	-1.063431	0.694051	0.354562
C86	C	-0.563431	1.194051	0.854562
C87	C	-1.110544	0.307567	0.816539
C88	C	-0.610544	0.807567	1.316539
C89	C	-1.110540	0.307566	0.893398
C90	C	-0.610540	0.807566	1.393398
C91	C	-1.016363	0.401693	0.893349
C92	C	-0.516363	0.901693	1.393349
C93	C	-1.016364	0.401689	0.816492
C94	C	-0.516364	0.901689	1.316492
C95	C	-1.063459	0.354627	0.778089
C96	C	-0.563459	0.854627	1.278089
C97	C	-1.063454	0.354631	0.931805
C98	C	-0.563454	0.854631	1.431805
C99	C	-1.063449	0.354631	1.015139
C100	C	-0.563449	0.854631	1.515139
C101	C	-1.063463	0.354626	0.694750
C102	C	-0.563463	0.854626	1.194750
C103	C	-1.063435	0.354636	1.163367
C104	C	-0.563435	0.854636	1.663367
C105	C	-1.063447	0.354633	1.081568
C106	C	-0.563447	0.854633	1.581568
H107	H	-0.633550	0.269092	0.269335
H108	H	-0.133550	0.769092	0.769335
O109	O	-1.161370	0.774331	0.256854
O110	O	-0.661370	1.274331	0.756854
H111	H	-1.194144	0.813955	0.224175
H112	H	-0.694144	1.313955	0.724175
O113	O	-0.965569	0.452450	0.934771
O114	O	-0.465569	0.952450	1.434771
H115	H	-0.998486	0.489902	0.969779
H116	H	-0.498486	0.989902	1.469779
H117	H	-0.978013	0.784560	0.439899
H118	H	-0.478013	1.284560	0.939899
H119	H	-1.148981	0.923928	0.269309
H120	H	-0.648981	1.423928	0.769309
H121	H	-0.978073	0.924002	0.439921
H122	H	-0.478073	1.424002	0.939921
H123	H	-1.148890	0.269244	0.785274
H124	H	-0.648890	0.769244	1.285274
O125	O	-0.483933	0.452685	0.452151
O126	O	0.016067	0.952685	0.952151
H127	H	-0.523565	0.485494	0.484781
H128	H	-0.023565	0.985494	0.984781
H129	H	-1.148880	0.269244	0.924701
H130	H	-0.648880	0.769244	1.424701
H131	H	-0.978016	0.440011	0.785185
H132	H	-0.478016	0.940011	1.285185
H133	H	-0.494108	0.269107	0.269350
H134	H	0.005892	0.769107	0.769350
O135	O	-0.643690	0.452594	0.452225
O136	O	-0.143690	0.952594	0.952225
H137	H	-0.604050	0.485366	0.484902
H138	H	-0.104050	0.985366	0.984902
