data_functionalizedCrystal
_audit_creation_method	'MofGen! by Chris Wilmer'
_symmetry_space_group_name_H-M	'P1'
_symmetry_Int_Tables_number	1
_symmetry_cell_setting	triclinic
loop_
_symmetry_equiv_pos_as_xyz
  x,y,z
_cell_length_a	10.654562
_cell_length_b	23.532357
_cell_length_c	9.130313
_cell_angle_alpha	89.993247
_cell_angle_beta	89.996930
_cell_angle_gamma	83.659197
loop_
_atom_site_label
_atom_site_type_symbol
_atom_site_fract_x
_atom_site_fract_y
_atom_site_fract_z
O1	O	1.665258	0.080018	-0.121915
O2	O	1.299537	0.087631	-0.121899
O3	O	1.493459	0.000964	-0.121878
O4	O	1.471337	0.166686	-0.121937
O5	O	1.493456	0.000966	0.121721
O6	O	1.299535	0.087634	0.121700
O7	O	1.665256	0.080021	0.121683
Cu8	Cu	1.482395	0.083828	0.143934
Cu9	Cu	1.482398	0.083825	-0.144150
O10	O	1.471334	0.166689	0.121662
C11	C	1.252756	0.087072	-0.000097
C12	C	1.113368	0.085395	-0.000090
C13	C	1.047861	0.084614	0.132685
C14	C	0.916889	0.083043	0.132661
C15	C	0.916942	0.083036	-0.132924
C16	C	1.047912	0.084603	-0.132898
C17	C	1.047828	0.084621	0.286018
C18	C	0.916857	0.083050	0.285995
C19	C	1.492904	-0.020255	-0.000074
C20	C	1.491240	-0.083485	-0.000060
C21	C	1.480798	-0.475566	-0.132924
C22	C	1.479216	-0.534976	-0.132932
O23	O	1.478357	-0.565699	-0.245861
N24	N	1.478431	-0.564691	-0.000149
C25	C	1.479214	-0.534992	0.132652
O26	O	1.478399	-0.565722	0.245595
C27	C	1.480786	-0.475583	0.132659
C28	C	1.481584	-0.445872	-0.000134
C29	C	1.481594	-0.445854	-0.265706
C30	C	1.483178	-0.386449	-0.265697
C31	C	1.483965	-0.356755	-0.132906
C32	C	1.483168	-0.386466	-0.000125
C33	C	1.481560	-0.445885	0.265458
C34	C	1.483132	-0.386472	0.265454
C35	C	1.483930	-0.356760	0.132661
C36	C	1.485539	-0.297366	0.132675
N37	N	1.486324	-0.267651	-0.000109
C38	C	1.485537	-0.297345	-0.132900
C39	C	1.475909	-0.659755	0.132628
C40	C	1.474346	-0.719164	0.132623
C41	C	1.474346	-0.719143	-0.132963
C42	C	1.475919	-0.659734	-0.132956
C43	C	1.476695	-0.630040	-0.000156
C44	C	1.488865	-0.172590	-0.132871
C45	C	1.490454	-0.113179	-0.132850
C46	C	1.490447	-0.113205	0.132734
C47	C	1.488864	-0.172610	0.132714
C48	C	1.488069	-0.202301	-0.000100
O49	O	1.486394	-0.266605	0.245546
O50	O	1.486336	-0.266607	-0.245823
C51	C	1.712036	0.080580	-0.000122
C52	C	1.851425	0.082257	-0.000139
C53	C	1.471889	0.187908	-0.000145
C54	C	1.473552	0.251137	-0.000169
N55	N	1.482402	0.083829	0.346557
N56	N	1.482401	0.083819	-0.346772
C57	C	1.568292	0.045466	0.423218
C58	C	1.568289	0.045459	0.576555
C59	C	1.396502	0.122184	0.576555
C60	C	1.396500	0.122188	0.423221
C61	C	1.667476	0.001171	0.423219
C62	C	1.667472	0.001164	0.576556
H63	H	0.888600	0.041517	0.333589
C64	C	1.119142	0.085329	-0.277008
C65	C	1.209053	0.037313	-0.284734
C66	C	1.274682	0.037957	-0.417479
H67	H	1.160358	0.119053	-0.282682
H68	H	1.061450	0.084604	-0.356148
H69	H	1.266737	0.038043	-0.205616
H70	H	1.167870	0.003581	-0.279085
H71	H	1.216990	0.037232	-0.496619
H72	H	1.315891	0.071683	-0.423141
H73	H	1.335686	0.005377	-0.422744
H74	H	1.638287	-0.040201	0.624119
H75	H	1.326562	0.153414	0.638992
H76	H	1.326551	0.153421	0.360805
C77	C	1.488197	-0.204898	-0.276968
C78	C	1.595321	-0.244998	-0.284747
C79	C	1.594746	-0.274773	-0.417460
H80	H	1.488962	-0.178752	-0.356150
H81	H	1.414378	-0.224050	-0.282522
H82	H	1.669122	-0.225847	-0.279207
H83	H	1.594579	-0.271156	-0.205596
H84	H	1.520926	-0.293925	-0.423014
H85	H	1.595507	-0.248623	-0.496631
H86	H	1.667422	-0.301988	-0.422749
C87	C	1.640993	-0.057212	0.367635
C88	C	1.742891	-0.080936	0.282526
C89	C	1.718540	-0.134717	0.231309
H90	H	1.566463	-0.053256	0.309748
H91	H	1.629906	-0.081562	0.448525
H92	H	1.753964	-0.056592	0.201648
H93	H	1.817433	-0.084907	0.340382
H94	H	1.707452	-0.159068	0.312199
H95	H	1.644007	-0.130755	0.173428
H96	H	1.787677	-0.150823	0.173569
H97	H	0.863632	0.082392	-0.241052
H98	H	1.758214	0.015043	0.375651
C99	C	1.795857	0.014093	0.631854
C100	C	1.889130	-0.027739	0.580512
C101	C	2.007408	-0.015845	0.631409
H102	H	1.796036	0.014073	0.735890
H103	H	1.812649	0.050557	0.597142
H104	H	1.872342	-0.064193	0.615232
H105	H	1.888991	-0.027725	0.476481
H106	H	2.024200	0.020619	0.596697
H107	H	2.007573	-0.015864	0.735444
H108	H	2.070709	-0.044222	0.596570
H109	H	1.095350	0.045265	0.344916
H110	H	0.869307	0.122407	0.344845
C111	C	1.085250	0.140024	0.349561
C112	C	0.976536	0.175132	0.391617
C113	C	1.010962	0.226171	0.450172
H114	H	1.129692	0.159112	0.277788
H115	H	1.137894	0.131741	0.432552
H116	H	0.923913	0.183416	0.308637
H117	H	0.932081	0.156062	0.463405
H118	H	1.063605	0.217888	0.533162
H119	H	1.055404	0.245254	0.378391
H120	H	0.937206	0.249996	0.478726
H121	H	1.491106	-0.088991	-0.240991
C122	C	1.483683	-0.354136	-0.409816
C123	C	1.376483	-0.314075	-0.417466
C124	C	1.376841	-0.284309	-0.550228
H125	H	1.482874	-0.380292	-0.488955
H126	H	1.557452	-0.334954	-0.415533
H127	H	1.302733	-0.333257	-0.411764
H128	H	1.377270	-0.287907	-0.338359
H129	H	1.450610	-0.265126	-0.555945
H130	H	1.376035	-0.310468	-0.629356
H131	H	1.304114	-0.257120	-0.555430
H132	H	1.480949	-0.470025	-0.373846
H133	H	1.476567	-0.635547	-0.241087
H134	H	1.473701	-0.743331	-0.241088
H135	H	1.473715	-0.743351	0.240756
H136	H	1.476545	-0.635582	0.240776
H137	H	1.480912	-0.470066	0.373593
H138	H	1.483745	-0.362297	0.373598
H139	H	1.488226	-0.196803	0.240845
H140	H	1.491093	-0.089017	0.240849
