data_functionalizedCrystal
_audit_creation_method	'MofGen! by Chris Wilmer'
_symmetry_space_group_name_H-M	'P1'
_symmetry_Int_Tables_number	1
_symmetry_cell_setting	triclinic
loop_
_symmetry_equiv_pos_as_xyz
  x,y,z
_cell_length_a	19.077442
_cell_length_b	19.077241
_cell_length_c	19.077271
_cell_angle_alpha	89.928553
_cell_angle_beta	85.471882
_cell_angle_gamma	90.074196
loop_
_atom_site_label
_atom_site_type_symbol
_atom_site_fract_x
_atom_site_fract_y
_atom_site_fract_z
Zn1	Zn	-0.220067	-1.067471	-0.432111
Zn2	Zn	0.279933	-0.567471	0.067889
Zn3	Zn	-0.342286	-1.077207	-0.309902
Zn4	Zn	0.157714	-0.577207	0.190098
Zn5	Zn	-0.229517	-0.955080	-0.309523
Zn6	Zn	0.270483	-0.455080	0.190477
Zn7	Zn	-0.342613	-0.955040	-0.422627
Zn8	Zn	0.157387	-0.455040	0.077373
O9	O	-0.283621	-1.013699	-0.368541
O10	O	0.216379	-0.513699	0.131459
O11	O	-0.232187	-1.166925	-0.420027
O12	O	0.267813	-0.666925	0.079973
O13	O	-0.331145	-1.065097	-0.211372
O14	O	0.168855	-0.565097	0.288628
O15	O	-0.129784	-0.965931	-0.329595
O16	O	0.370216	-0.465931	0.170405
O17	O	-0.321981	-1.174078	-0.330241
O18	O	0.178019	-0.674078	0.169759
O19	O	-0.122840	-1.048504	-0.419660
O20	O	0.377160	-0.548504	0.080340
O21	O	-0.248295	-0.975371	-0.211093
O22	O	0.251705	-0.475371	0.288907
O23	O	-0.248612	-0.856911	-0.320398
O24	O	0.251388	-0.356911	0.179602
O25	O	-0.322538	-0.965864	-0.522365
O26	O	0.177462	-0.465864	-0.022365
O27	O	-0.331702	-0.856883	-0.403496
O28	O	0.168298	-0.356883	0.096504
O29	O	-0.232504	-1.048466	-0.529332
O30	O	0.267496	-0.548466	-0.029332
O31	O	-0.440809	-1.065059	-0.321045
O32	O	0.059191	-0.565059	0.178955
O33	O	-0.441049	-0.975304	-0.403863
O34	O	0.058951	-0.475304	0.096137
C35	C	-0.291219	-0.831444	-0.360877
C36	C	0.208781	-0.331444	0.139123
C37	C	-0.294485	-0.753475	-0.357615
C38	C	0.205515	-0.253475	0.142385
C39	C	-0.249338	-0.713122	-0.402895
C40	C	0.250662	-0.213122	0.097105
C41	C	-0.252405	-0.639861	-0.399824
C42	C	0.247595	-0.139861	0.100176
C43	C	-0.300622	-0.606955	-0.351475
C44	C	0.199378	-0.106955	0.148525
C45	C	-0.345771	-0.647314	-0.306190
C46	C	0.154229	-0.147314	0.193810
C47	C	-0.342701	-0.720573	-0.309258
C48	C	0.157299	-0.220573	0.190742
C49	C	-0.314807	-0.388254	-0.337275
C50	C	0.185193	0.111746	0.162725
C51	C	-0.317876	-0.314989	-0.334211
C52	C	0.182124	0.185011	0.165789
C53	C	-0.224508	-0.307541	-0.427845
C54	C	0.275492	0.192459	0.072155
C55	C	-0.221444	-0.380802	-0.430912
C56	C	0.278556	0.119198	0.069088
C57	C	-0.266591	-0.421154	-0.385624
C58	C	0.233409	0.078846	0.114376
N59	N	-0.303759	-0.532072	-0.348336
N60	N	0.196241	-0.032072	0.151664
N61	N	-0.263450	-0.496037	-0.388760
N62	N	0.236550	0.003963	0.111240
C63	C	-0.466462	-1.021252	-0.361482
C64	C	0.033538	-0.521252	0.138518
C65	C	-0.544679	-1.024546	-0.358489
C66	C	-0.044679	-0.524546	0.141511
C67	C	-0.984941	-1.048125	-0.336997
C68	C	-0.484941	-0.548125	0.163003
C69	C	-0.911448	-1.045024	-0.339810
C70	C	-0.411448	-0.545024	0.160190
C71	C	-0.874858	-0.996712	-0.384301
C72	C	-0.374858	-0.496712	0.115699
C73	C	-0.911764	-0.951495	-0.425975
C74	C	-0.411764	-0.451495	0.074025
C75	C	-0.985256	-0.954593	-0.423157
C76	C	-0.485256	-0.454593	0.076843
C77	C	-0.655077	-0.982427	-0.397345
C78	C	-0.155077	-0.482427	0.102655
C79	C	-0.581580	-0.979333	-0.400162
C80	C	-0.081580	-0.479333	0.099838
C81	C	-0.581270	-1.072862	-0.313995
C82	C	-0.081270	-0.572862	0.186005
C83	C	-0.654763	-1.075959	-0.311185
C84	C	-0.154763	-0.575959	0.188815
C85	C	-0.691663	-1.030739	-0.352856
C86	C	-0.191663	-0.530739	0.147144
N87	N	-0.799736	-0.993542	-0.387180
N88	N	-0.299736	-0.493542	0.112820
N89	N	-0.766784	-1.033906	-0.349973
N90	N	-0.266784	-0.533906	0.150027
C91	C	-0.100063	-1.006136	-0.375643
C92	C	0.399937	-0.506136	0.124357
C93	C	-0.021842	-1.002912	-0.378669
C94	C	0.478158	-0.502912	0.121331
C95	C	-0.276504	-1.006075	-0.552097
C96	C	0.223496	-0.506075	-0.052097
C97	C	-0.273471	-1.002825	-0.630318
C98	C	0.226529	-0.502825	-0.130318
C99	C	-0.275990	-0.196666	-0.376229
C100	C	0.224010	0.303334	0.123771
C101	C	-0.272728	-0.274636	-0.379492
C102	C	0.227272	0.225364	0.120508
C103	C	-0.251774	-0.979523	-1.070603
C104	C	0.248226	-0.479523	-0.570603
C105	C	-0.254621	-0.982579	-0.997107
C106	C	0.245379	-0.482579	-0.497107
C107	C	-0.299184	-1.030819	-0.960503
C108	C	0.200816	-0.530819	-0.460503
C109	C	-0.340898	-1.076011	-0.997399
C110	C	0.159102	-0.576011	-0.497399
C111	C	-0.338047	-1.072957	-1.070895
C112	C	0.161953	-0.572957	-0.570895
C113	C	-0.312333	-1.044963	-0.740710
C114	C	0.187667	-0.544963	-0.240710
C115	C	-0.315183	-1.048012	-0.667209
C116	C	0.184817	-0.548012	-0.167209
C117	C	-0.228905	-0.954581	-0.666922
C118	C	0.271095	-0.454581	-0.166922
C119	C	-0.226061	-0.951529	-0.740419
C120	C	0.273939	-0.451529	-0.240419
C121	C	-0.267772	-0.996723	-0.777309
C122	C	0.232228	-0.496723	-0.277309
N123	N	-0.302097	-1.033943	-0.885377
N124	N	0.197903	-0.533943	-0.385377
N125	N	-0.264855	-0.993602	-0.852434
N126	N	0.235145	-0.493602	-0.352434
C127	C	-0.290657	-1.021333	-0.185702
C128	C	0.209343	-0.521333	0.314298
C129	C	-0.293486	-1.024710	-0.107495
C130	C	0.206514	-0.524710	0.392505
H131	H	-0.182183	-0.407588	-0.470285
H132	H	0.317817	0.092412	0.029715
H133	H	-0.351458	-1.087310	-0.637409
H134	H	0.148542	-0.587310	-0.137409
C135	C	-0.561845	-1.111114	-0.197164
C136	C	-0.061845	-0.611114	0.302836
C137	C	-0.540709	-1.122560	-0.268185
C138	C	-0.040709	-0.622560	0.231815
H139	H	-0.536807	-1.141798	-0.168881
H140	H	-0.036807	-0.641798	0.331119
H141	H	-0.552212	-1.063918	-0.185316
H142	H	-0.052212	-0.563918	0.314684
H143	H	-0.610852	-1.119874	-0.189130
H144	H	-0.110852	-0.619874	0.310870
H145	H	-0.491703	-1.113794	-0.276220
H146	H	0.008297	-0.613794	0.223780
H147	H	-0.550337	-1.169767	-0.280037
H148	H	-0.050337	-0.669767	0.219963
H149	H	-0.215642	-0.607008	-0.436697
H150	H	0.284358	-0.107008	0.063303
H151	H	-0.194945	-0.917787	-0.636878
H152	H	0.305055	-0.417787	-0.136878
C153	C	-0.352551	-0.807270	-0.217656
C154	C	0.147449	-0.307270	0.282344
C155	C	-0.392330	-0.764931	-0.259485
C156	C	0.107670	-0.264931	0.240515
H157	H	-0.383191	-0.834649	-0.186923
H158	H	0.116809	-0.334649	0.313077
H159	H	-0.323402	-0.837348	-0.246888
H160	H	0.176598	-0.337348	0.253112
H161	H	-0.324090	-0.778521	-0.190779
H162	H	0.175910	-0.278521	0.309221
H163	H	-0.420788	-0.793680	-0.286366
H164	H	0.079212	-0.293680	0.213634
H165	H	-0.421491	-0.734849	-0.230249
H166	H	0.078509	-0.234849	0.269751
C167	C	-0.187750	-0.191933	-0.464714
C168	C	0.312250	0.308067	0.035286
C169	C	-0.174878	-0.263184	-0.477616
C170	C	0.325122	0.236816	0.022384
H171	H	-0.157104	-0.164551	-0.495439
H172	H	0.342896	0.335449	0.004561
H173	H	-0.235149	-0.181466	-0.472612
H174	H	0.264851	0.318534	0.027388
H175	H	-0.179714	-0.181460	-0.417342
H176	H	0.320286	0.318540	0.082658
H177	H	-0.182919	-0.273658	-0.524987
H178	H	0.317081	0.226342	-0.024987
H179	H	-0.127468	-0.273655	-0.469723
H180	H	0.372532	0.226345	0.030277
H181	H	-0.357144	-0.288200	-0.294839
H182	H	0.142856	0.211800	0.205161
C183	C	-0.555752	-0.939173	-0.518731
C184	C	-0.055752	-0.439173	-0.018731
C185	C	-0.541353	-0.926231	-0.449072
C186	C	-0.041353	-0.426231	0.050928
H187	H	-0.530918	-0.906392	-0.548926
H188	H	-0.030918	-0.406392	-0.048926
H189	H	-0.541302	-0.985356	-0.531501
H190	H	-0.041302	-0.485356	-0.031501
H191	H	-0.604803	-0.934535	-0.523009
H192	H	-0.104803	-0.434535	-0.023009
H193	H	-0.492303	-0.930874	-0.444793
H194	H	0.007697	-0.430874	0.055207
H195	H	-0.555800	-0.880037	-0.436298
H196	H	-0.055800	-0.380037	0.063702
C197	C	-0.346248	-1.081800	-0.853496
C198	C	0.153752	-0.581800	-0.353496
C199	C	-0.358168	-1.094652	-0.781256
C200	C	0.141832	-0.594652	-0.281256
H201	H	-0.374539	-1.112485	-0.878529
H202	H	0.125461	-0.612485	-0.378529
H203	H	-0.358058	-1.034604	-0.863169
H204	H	0.141942	-0.534604	-0.363169
H205	H	-0.298063	-1.089608	-0.867786
H206	H	0.201937	-0.589608	-0.367786
H207	H	-0.406352	-1.086838	-0.766965
H208	H	0.093648	-0.586838	-0.266965
H209	H	-0.346362	-1.141859	-0.771579
H210	H	0.153638	-0.641859	-0.271579
C211	C	-0.407407	-0.388247	-0.244419
C212	C	0.092593	0.111753	0.255581
C213	C	-0.364436	-0.432603	-0.287499
C214	C	0.135564	0.067397	0.212501
H215	H	-0.438049	-0.415630	-0.213691
H216	H	0.061951	0.084370	0.286309
H217	H	-0.378943	-0.359512	-0.217543
H218	H	0.121057	0.140488	0.282457
H219	H	-0.434382	-0.359524	-0.272809
H220	H	0.065618	0.140476	0.227191
H221	H	-0.337457	-0.461322	-0.259109
H222	H	0.162543	0.038678	0.240891
H223	H	-0.392904	-0.461349	-0.314377
H224	H	0.107096	0.038651	0.185623
C225	C	-0.734433	-0.972162	-0.488423
C226	C	-0.234433	-0.472162	0.011577
C227	C	-0.695630	-0.932729	-0.443159
C228	C	-0.195630	-0.432729	0.056841
H229	H	-0.759472	-0.941478	-0.516706
H230	H	-0.259472	-0.441478	-0.016706
H231	H	-0.703407	-1.000373	-0.517742
H232	H	-0.203407	-0.500373	-0.017742
H233	H	-0.766745	-1.001370	-0.461514
H234	H	-0.266745	-0.501370	0.038486
H235	H	-0.663314	-0.903525	-0.470067
H236	H	-0.163314	-0.403525	0.029933
H237	H	-0.726659	-0.904506	-0.413836
H238	H	-0.226659	-0.404506	0.086164
H239	H	-0.385028	-0.620517	-0.266820
H240	H	0.114972	-0.120517	0.233180
H241	H	-0.684550	-1.115299	-0.274954
H242	H	-0.184550	-0.615299	0.225046
H243	H	-0.215488	-0.940239	-1.100401
H244	H	0.284512	-0.440239	-0.600401
H245	H	-0.372012	-1.109754	-1.100931
H246	H	0.127988	-0.609754	-0.600931
H247	H	-0.881968	-0.912155	-0.462198
H248	H	-0.381968	-0.412155	0.037802
C249	C	-0.977245	-1.140256	-0.252103
C250	C	-0.477245	-0.640256	0.247897
C251	C	-1.025158	-1.101230	-0.288089
C252	C	-0.525158	-0.601230	0.211911
H253	H	-1.002074	-1.173037	-0.221905
H254	H	-0.502074	-0.673037	0.278095
H255	H	-0.946240	-1.164581	-0.285012
H256	H	-0.446240	-0.664581	0.214988
H257	H	-0.950935	-1.109617	-0.224978
H258	H	-0.450935	-0.609617	0.275022
H259	H	-1.051465	-1.131870	-0.315219
H260	H	-0.551465	-0.631870	0.184781
H261	H	-1.056175	-1.076904	-0.255175
H262	H	-0.556175	-0.576904	0.244825
C263	C	-0.832093	-1.055297	-0.248728
C264	C	-0.332093	-0.555297	0.251272
C265	C	-0.870890	-1.094726	-0.294002
C266	C	-0.370890	-0.594726	0.205998
H267	H	-0.807060	-1.085984	-0.220443
H268	H	-0.307060	-0.585984	0.279557
H269	H	-0.799784	-1.026089	-0.275625
H270	H	-0.299784	-0.526089	0.224375
H271	H	-0.863129	-1.027087	-0.219405
H272	H	-0.363129	-0.527087	0.280595
H273	H	-0.839854	-1.122932	-0.323329
H274	H	-0.339854	-0.622932	0.176671
H275	H	-0.903203	-1.123946	-0.267103
H276	H	-0.403203	-0.623946	0.232897
C277	C	-0.978185	-0.861841	-0.508619
C278	C	-0.478185	-0.361841	-0.008619
C279	C	-1.025820	-0.904898	-0.468969
C280	C	-0.525820	-0.404898	0.031031
H281	H	-1.003229	-0.831163	-0.536904
H282	H	-0.503229	-0.331163	-0.036904
H283	H	-0.951865	-0.835100	-0.477908
H284	H	-0.451865	-0.335100	0.022092
H285	H	-0.947163	-0.890063	-0.537944
H286	H	-0.447163	-0.390063	-0.037944
H287	H	-1.056839	-0.876676	-0.439640
H288	H	-0.556839	-0.376676	0.060360
H289	H	-1.052152	-0.931641	-0.499684
H290	H	-0.552152	-0.431641	0.000316
C291	C	-0.169059	-0.889917	-1.004205
C292	C	0.330941	-0.389917	-0.504205
C293	C	-0.208771	-0.932908	-0.956556
C294	C	0.291229	-0.432908	-0.456556
H295	H	-0.140755	-0.859250	-0.979169
H296	H	0.359245	-0.359250	-0.479169
H297	H	-0.139759	-0.918180	-1.035198
H298	H	0.360241	-0.418180	-0.535198
H299	H	-0.199736	-0.863158	-1.030555
H300	H	0.300264	-0.363158	-0.530555
H301	H	-0.178094	-0.959671	-0.930209
H302	H	0.321906	-0.459671	-0.430209
H303	H	-0.238074	-0.904641	-0.925551
H304	H	0.261926	-0.404641	-0.425551
C305	C	-0.195849	-0.830396	-0.759357
C306	C	0.304151	-0.330396	-0.259357
C307	C	-0.177072	-0.898498	-0.780642
C308	C	0.322928	-0.398498	-0.280642
H309	H	-0.165603	-0.797654	-0.784184
H310	H	0.334397	-0.297654	-0.284184
H311	H	-0.243086	-0.821581	-0.769149
H312	H	0.256914	-0.321581	-0.269149
H313	H	-0.191580	-0.825764	-0.710304
H314	H	0.308420	-0.325764	-0.210304
H315	H	-0.181346	-0.903131	-0.829695
H316	H	0.318654	-0.403131	-0.329695
H317	H	-0.129824	-0.907315	-0.770856
H318	H	0.370176	-0.407315	-0.270856
C319	C	-0.157355	-0.698393	-0.495135
C320	C	0.342645	-0.198393	0.004865
C321	C	-0.196336	-0.749288	-0.456043
C322	C	0.303664	-0.249288	0.043957
H323	H	-0.124629	-0.720721	-0.527943
H324	H	0.375371	-0.220721	-0.027943
H325	H	-0.188213	-0.669981	-0.519620
H326	H	0.311787	-0.169981	-0.019620
H327	H	-0.132775	-0.669968	-0.464353
H328	H	0.367225	-0.169968	0.035647
H329	H	-0.220919	-0.777709	-0.486825
H330	H	0.279081	-0.277709	0.013175
H331	H	-0.165473	-0.777711	-0.431557
H332	H	0.334527	-0.277711	0.068443
C333	C	-0.438363	-1.093080	-0.911499
C334	C	0.061637	-0.593080	-0.411499
C335	C	-0.389885	-1.129035	-0.957164
C336	C	0.110115	-0.629035	-0.457164
H337	H	-0.468609	-1.125815	-0.886664
H338	H	0.031391	-0.625815	-0.386664
H339	H	-0.413927	-1.066612	-0.879013
H340	H	0.086073	-0.566612	-0.379013
H341	H	-0.465437	-1.062436	-0.937854
H342	H	0.034563	-0.562436	-0.437854
H343	H	-0.362806	-1.159676	-0.930808
H344	H	0.137194	-0.659676	-0.430808
H345	H	-0.414323	-1.155516	-0.989654
H346	H	0.085677	-0.655516	-0.489654
