data_functionalizedCrystal
_audit_creation_method	'MofGen! by Chris Wilmer'
_symmetry_space_group_name_H-M	'P1'
_symmetry_Int_Tables_number	1
_symmetry_cell_setting	triclinic
loop_
_symmetry_equiv_pos_as_xyz
  x,y,z
_cell_length_a	10.685194
_cell_length_b	18.101398
_cell_length_c	10.686551
_cell_angle_alpha	85.596967
_cell_angle_beta	81.584560
_cell_angle_gamma	94.374291
loop_
_atom_site_label
_atom_site_type_symbol
_atom_site_fract_x
_atom_site_fract_y
_atom_site_fract_z
Zn1	Zn	-0.450287	1.142598	-0.679175
Zn2	Zn	0.049713	1.642598	-0.179175
Zn3	Zn	-0.678897	1.121959	-0.450634
Zn4	Zn	-0.178897	1.621959	0.049366
Zn5	Zn	-0.466636	1.008453	-0.466907
Zn6	Zn	0.033364	1.508453	0.033093
Zn7	Zn	-0.662506	1.008474	-0.662817
Zn8	Zn	-0.162506	1.508474	-0.162817
O9	O	-0.564582	1.070371	-0.564883
O10	O	-0.064582	1.570371	-0.064883
O11	O	-0.480630	1.243494	-0.648895
O12	O	0.019370	1.743494	-0.148895
O13	O	-0.664442	1.098256	-0.275158
O14	O	-0.164442	1.598256	0.224842
O15	O	-0.286821	1.034877	-0.508721
O16	O	0.213179	1.534877	-0.008721
O17	O	-0.648589	1.228330	-0.480987
O18	O	-0.148589	1.728330	0.019013
O19	O	-0.274809	1.133432	-0.664674
O20	O	0.225191	1.633432	-0.164674
O21	O	-0.508495	1.014864	-0.287114
O22	O	-0.008495	1.514864	0.212886
O23	O	-0.492601	0.904822	-0.492859
O24	O	0.007399	1.404822	0.007141
O25	O	-0.620653	1.034912	-0.842621
O26	O	-0.120653	1.534912	-0.342621
O27	O	-0.636506	0.904837	-0.636793
O28	O	-0.136506	1.404837	-0.136793
O29	O	-0.464737	1.133452	-0.854640
O30	O	0.035263	1.633452	-0.354640
O31	O	-0.854370	1.098275	-0.465124
O32	O	-0.354370	1.598275	0.034876
O33	O	-0.842327	1.014898	-0.621014
O34	O	-0.342327	1.514898	-0.121014
C35	C	-0.564550	0.877959	-0.564817
C36	C	-0.064550	1.377959	-0.064817
C37	C	-0.564564	0.795644	-0.564817
C38	C	-0.064564	1.295644	-0.064817
C39	C	-0.564586	0.644937	-0.564872
C40	C	-0.064586	1.144937	-0.064872
C41	C	-0.473891	0.613564	-0.474486
C42	C	0.026109	1.113564	0.025514
C43	C	-0.473497	0.527979	-0.474836
C44	C	0.026503	1.027979	0.025164
C45	C	-0.564607	0.496556	-0.564924
C46	C	-0.064607	0.996556	-0.064924
C47	C	-0.518602	0.535917	-0.701588
C48	C	-0.018602	1.035917	-0.201588
C49	C	-0.517921	0.621568	-0.701046
C50	C	-0.017921	1.121568	-0.201046
C51	C	-0.701448	0.605175	-0.519755
C52	C	-0.201448	1.105175	-0.019755
C53	C	-0.700966	0.519416	-0.516890
C54	C	-0.200966	1.019416	-0.016890
C55	C	-0.564621	0.412698	-0.564961
C56	C	-0.064621	0.912698	-0.064961
C57	C	-0.564568	0.728796	-0.564843
C58	C	-0.064568	1.228796	-0.064843
C59	C	-0.894408	1.054371	-0.539555
C60	C	-0.394408	1.554371	-0.039555
C61	C	-1.035506	1.047596	-0.528763
C62	C	-0.535506	1.547596	-0.028763
C63	C	-0.233465	1.086455	-0.590338
C64	C	0.266535	1.586455	-0.090338
C65	C	-0.092363	1.093309	-0.601185
C66	C	0.407637	1.593309	-0.101185
C67	C	-0.539043	1.086486	-0.895977
C68	C	-0.039043	1.586486	-0.395977
C69	C	-0.528160	1.093354	-1.037069
C70	C	-0.028160	1.593354	-0.537069
C71	C	-0.564615	1.263534	-0.564950
C72	C	-0.064615	1.763534	-0.064950
C73	C	-0.564629	1.345849	-0.564979
C74	C	-0.064629	1.845849	-0.064979
C75	C	-0.589929	1.054365	-0.235085
C76	C	-0.089929	1.554365	0.264915
C77	C	-0.600455	1.047658	-0.094021
C78	C	-0.100455	1.547658	0.405979
H79	H	-0.503574	0.628209	-0.373180
H80	H	-0.003574	1.128209	0.126820
H81	H	-1.033098	1.137630	-0.671452
H82	H	-0.533098	1.637630	-0.171452
H83	H	-1.094778	1.003266	-0.458502
H84	H	-0.594778	1.503266	0.041498
H85	H	-0.373270	0.640985	-0.504893
H86	H	0.126730	1.140985	-0.004893
H87	H	-0.670680	1.003285	-1.034840
H88	H	-0.170680	1.503285	-0.534840
F89	F	-0.436376	1.151365	-1.114425
F90	F	0.063624	1.651365	-0.614425
F91	F	-0.753720	0.625207	-0.390968
F92	F	-0.253720	1.125207	0.109032
H93	H	-0.503409	0.501029	-0.373840
H94	H	-0.003409	1.001029	0.126160
F95	F	-0.386780	0.655764	-0.749354
F96	F	0.113220	1.155764	-0.249354
H97	H	-0.580577	0.642677	-0.771278
H98	H	-0.080577	1.142677	-0.271278
F99	F	-0.341221	0.508961	-0.515026
F100	F	0.158779	1.008961	-0.015026
H101	H	-0.419315	0.520626	-0.738982
H102	H	0.080685	1.020626	-0.238982
F103	F	-0.601726	0.509718	-0.792638
F104	F	-0.101726	1.009718	-0.292638
F105	F	-0.795042	0.490830	-0.595567
F106	F	-0.295042	0.990830	-0.095567
F107	F	-0.746083	0.484858	-0.385362
F108	F	-0.246083	0.984858	0.114638
F109	F	-0.789935	0.631606	-0.605611
F110	F	-0.289935	1.131606	-0.105611
