data_functionalizedCrystal
_audit_creation_method	'MofGen! by Chris Wilmer'
_symmetry_space_group_name_H-M	'P1'
_symmetry_Int_Tables_number	1
_symmetry_cell_setting	triclinic
loop_
_symmetry_equiv_pos_as_xyz
  x,y,z
_cell_length_a	9.730223
_cell_length_b	8.559649
_cell_length_c	8.559649
_cell_angle_alpha	110.221336
_cell_angle_beta	89.998610
_cell_angle_gamma	90.005189
loop_
_atom_site_label
_atom_site_type_symbol
_atom_site_fract_x
_atom_site_fract_y
_atom_site_fract_z
O1	O	-0.114268	-2.126885	-0.055040
O2	O	0.385732	-1.626885	0.444960
O3	O	-0.114274	-1.651400	0.028741
O4	O	0.385726	-1.151400	0.528741
O5	O	-0.114269	-1.931033	-0.250892
O6	O	0.385731	-1.431033	0.249108
O7	O	-0.114273	-1.847252	0.224593
O8	O	0.385727	-1.347252	0.724593
O9	O	0.114311	-1.931005	-0.250887
O10	O	0.614311	-1.431005	0.249113
O11	O	0.114306	-1.651372	0.028746
O12	O	0.614306	-1.151372	0.528746
O13	O	0.114312	-2.126857	-0.055035
O14	O	0.614312	-1.626857	0.444965
Zn15	Zn	0.150601	-1.889110	-0.013143
Zn16	Zn	0.650601	-1.389110	0.486857
Zn17	Zn	-0.150563	-1.889147	-0.013150
Zn18	Zn	0.349437	-1.389147	0.486850
O19	O	0.114307	-1.847224	0.224598
O20	O	0.614307	-1.347224	0.724598
C21	C	0.000016	-1.591077	0.035093
C22	C	0.500016	-1.091077	0.535093
C23	C	0.000013	-1.411378	0.053992
C24	C	0.500013	-0.911378	0.553992
N25	N	0.356137	-1.889097	-0.013141
N26	N	0.856137	-1.389097	0.486859
N27	N	-0.356099	-1.889175	-0.013167
N28	N	0.143901	-1.389175	0.486833
C29	C	0.571940	-1.975458	0.073214
C30	C	1.071940	-1.475458	0.573214
C31	C	0.428057	-1.975415	0.073232
C32	C	0.928057	-1.475415	0.573232
C33	C	0.428108	-1.802803	-0.099524
C34	C	0.928108	-1.302803	0.400476
C35	C	0.571989	-1.802838	-0.099532
C36	C	1.071989	-1.302838	0.400468
C37	C	0.643851	-2.061796	0.159578
C38	C	1.143851	-1.561796	0.659578
C39	C	0.571890	-2.148088	0.245965
C40	C	1.071890	-1.648088	0.745965
C41	C	0.428007	-2.148044	0.245983
C42	C	0.928007	-1.648044	0.745983
C43	C	0.356086	-2.061708	0.159615
C44	C	0.856086	-1.561708	0.659615
C45	C	0.000018	-1.937369	-0.311198
C46	C	0.500018	-1.437369	0.188802
C47	C	0.000011	-1.956268	-0.490898
C48	C	0.500011	-1.456268	0.009102
C49	C	0.000019	-2.187180	-0.061387
C50	C	0.500019	-1.687180	0.438613
C51	C	0.000013	-2.366879	-0.080286
C52	C	0.500013	-1.866879	0.419714
C53	C	0.000017	-1.840889	0.284904
C54	C	0.500017	-1.340889	0.784904
C55	C	0.000015	-1.821990	0.464604
C56	C	0.500015	-1.321990	0.964604
H57	H	0.761008	-2.061846	0.159569
H58	H	1.261008	-1.561846	0.659569
H59	H	0.630458	-2.218366	0.316295
H60	H	1.130458	-1.718366	0.816295
F61	F	0.351425	-2.239854	0.337948
F62	F	0.851425	-1.739854	0.837948
H63	H	0.000018	-1.692570	-0.436018
H64	H	0.500018	-1.192570	0.063982
F65	F	-0.000000	-1.281477	0.223166
F66	F	0.500000	-0.781477	0.723166
H67	H	0.000007	-1.466258	-0.209705
H68	H	0.500007	-0.966258	0.290295
H69	H	0.000023	-2.085696	-0.590286
H70	H	0.500023	-1.585696	-0.090286
H71	H	0.369538	-1.732514	-0.169842
H72	H	0.869538	-1.232514	0.330158
F73	F	0.202951	-2.061647	0.159659
F74	F	0.702951	-1.561647	0.659659
H75	H	0.630581	-1.732574	-0.169866
H76	H	1.130581	-1.232574	0.330134
