data_functionalizedCrystal
_audit_creation_method	'MofGen! by Chris Wilmer'
_symmetry_space_group_name_H-M	'P1'
_symmetry_Int_Tables_number	1
_symmetry_cell_setting	triclinic
loop_
_symmetry_equiv_pos_as_xyz
  x,y,z
_cell_length_a	15.698487
_cell_length_b	23.196402
_cell_length_c	23.196401
_cell_angle_alpha	59.999265
_cell_angle_beta	90.007076
_cell_angle_gamma	60.000668
loop_
_atom_site_label
_atom_site_type_symbol
_atom_site_fract_x
_atom_site_fract_y
_atom_site_fract_z
Zr1	Zr	0.820635	0.630997	-0.075613
O2	O	0.684597	0.751281	-0.167670
O3	O	0.862335	0.510727	-0.047396
O4	O	0.862307	0.631013	-0.167671
O5	O	0.684651	0.630978	0.047483
O6	O	1.002491	0.631010	-0.167667
O7	O	0.684625	0.630995	-0.047395
O8	O	1.002541	0.415841	0.047482
O9	O	0.684601	0.846148	-0.167666
O10	O	0.984741	0.560189	-0.035355
O11	O	0.880142	0.560179	0.035449
O12	O	0.880110	0.701800	-0.106159
O13	O	0.775511	0.701790	-0.035354
Zr14	Zr	1.044254	0.630968	0.075713
Zr15	Zr	1.044213	0.630994	-0.075607
Zr16	Zr	0.820676	0.630971	0.075708
Zr17	Zr	0.820641	0.782300	-0.075607
Zr18	Zr	1.044248	0.479665	0.075707
O19	O	1.002555	0.751239	0.047496
O20	O	1.002496	0.751276	-0.167662
O21	O	0.684656	0.751244	0.047489
O22	O	1.180293	0.510685	0.167770
O23	O	1.180234	0.510721	-0.047388
O24	O	0.862393	0.510690	0.167762
O25	O	1.180239	0.630987	-0.047383
O26	O	1.002583	0.630953	0.167771
O27	O	0.862398	0.630955	0.167768
O28	O	1.180265	0.630970	0.047496
O29	O	0.862315	0.846145	-0.167662
O30	O	1.002574	0.415820	0.167762
O31	O	1.180289	0.415817	0.167766
O32	O	1.180256	0.415838	0.047486
O33	O	0.684633	0.846127	-0.047386
O34	O	0.862348	0.846124	-0.047382
O35	O	0.984780	0.560165	0.106259
O36	O	1.089379	0.560176	0.035454
O37	O	0.984747	0.701786	-0.035349
O38	O	0.880148	0.701776	0.035455
C39	C	0.932437	0.441726	0.000042
C40	C	0.932434	0.377495	0.000039
C41	C	0.652783	0.630987	0.000043
C42	C	0.557868	0.630989	0.000041
C43	C	0.987027	0.347330	-0.036923
C44	C	0.987037	0.286969	-0.036917
C45	C	0.932434	0.256786	0.000041
C46	C	0.877840	0.286955	0.037011
C47	C	0.877840	0.347309	0.037010
C48	C	0.840960	0.194759	-0.005236
C49	C	0.840957	0.134410	-0.005240
C50	C	0.932436	0.070632	0.000048
C51	C	1.023916	0.067217	0.005326
C52	C	1.023916	0.127572	0.005325
C53	C	0.932429	0.191342	0.000047
C54	C	0.987044	-0.024985	-0.036909
C55	C	0.987057	-0.085350	-0.036898
C56	C	0.877849	-0.085357	0.037025
C57	C	0.877846	-0.024998	0.037019
C58	C	0.932441	0.005187	0.000048
C59	C	0.480786	0.630991	0.000042
C60	C	0.384089	0.630986	0.000050
C61	C	1.212107	0.630978	0.000057
C62	C	1.307022	0.630977	0.000059
C63	C	0.932393	0.631015	-0.189229
C64	C	0.932375	0.631026	-0.253469
C65	C	0.932452	0.820239	0.000058
C66	C	0.932455	0.884471	0.000061
C67	C	1.009607	0.631026	-0.283630
C68	C	1.009630	0.631010	-0.343977
C69	C	0.932406	0.631010	-0.374168
C70	C	0.855168	0.631005	-0.343997
C71	C	0.855153	0.631013	-0.283647
C72	C	0.838160	0.678506	-0.493550
C73	C	0.838174	0.678503	-0.553901
C74	C	0.932452	0.630981	-0.560304
C75	C	1.026721	0.583472	-0.506354
C76	C	1.026706	0.583481	-0.446005
C77	C	0.932414	0.631000	-0.439606
C78	C	1.009714	0.630962	-0.655899
C79	C	1.009738	0.630941	-0.716245
C80	C	0.855267	0.630944	-0.716268
C81	C	0.855252	0.630957	-0.655920
C82	C	0.932475	0.630970	-0.625741
C83	C	0.932496	0.630950	0.189329
C84	C	0.932514	0.630939	0.253569
C85	C	1.212099	0.441722	0.000049
C86	C	1.307011	0.377488	0.000049
C87	C	0.932489	0.441694	0.189321
C88	C	0.932504	0.377451	0.253558
C89	C	1.212151	0.441689	0.189328
C90	C	1.307081	0.377445	0.253567
C91	C	0.652739	0.820276	-0.189228
C92	C	0.557809	0.884520	-0.253467
C93	C	0.652790	0.820243	0.000051
C94	C	0.557878	0.884477	0.000052
C95	C	0.932401	0.820271	-0.189221
C96	C	0.932386	0.884514	-0.253458
C97	C	1.296963	0.347331	-0.036920
C98	C	1.386135	0.286985	-0.036934
C99	C	1.485353	0.256794	0.000024
C100	C	1.495399	0.286957	0.036994
C101	C	1.406229	0.347306	0.037004
C102	C	0.987130	0.347275	0.320693
C103	C	0.987140	0.286920	0.381056
C104	C	0.932529	0.256739	0.374283
C105	C	0.877896	0.286921	0.307141
C106	C	0.877880	0.347279	0.246780
C107	C	1.406269	0.347280	0.246776
C108	C	1.495474	0.286924	0.307129
C109	C	1.485488	0.256730	0.374274
C110	C	1.386289	0.286900	0.381065
C111	C	1.297086	0.347259	0.320711
C112	C	0.458620	0.914692	-0.246675
C113	C	0.369415	0.975067	-0.307029
C114	C	0.379401	1.005265	-0.374174
C115	C	0.478600	0.975091	-0.380964
C116	C	0.567803	0.914721	-0.320611
C117	C	0.567926	0.914641	0.037014
C118	C	0.478755	0.975003	0.037012
C119	C	0.379536	1.005196	0.000051
C120	C	0.369490	0.975030	-0.036916
C121	C	0.458661	0.914673	-0.036917
C122	C	0.987007	0.914676	-0.246662
C123	C	0.987014	0.975031	-0.307014
C124	C	0.932392	1.005227	-0.374160
C125	C	0.877768	0.975059	-0.380954
C126	C	0.877769	0.914701	-0.320604
H127	H	1.031484	0.371903	-0.067024
H128	H	0.792393	0.630939	-0.740847
H129	H	0.761415	0.717191	-0.597825
H130	H	1.031633	0.262353	0.435719
H131	H	1.414420	0.371856	0.192108
Cl132	Cl	0.809204	-0.123294	0.083486
H133	H	1.031602	0.371841	0.326221
H134	H	1.576195	0.262367	0.067084
H135	H	1.414424	0.371853	0.067112
Cl136	Cl	0.244750	1.012993	-0.083373
H137	H	1.216183	0.371912	-0.067025
Cl138	Cl	0.758089	0.631000	-0.381948
Cl139	Cl	1.172395	0.385168	0.329262
Cl140	Cl	0.758053	0.631014	-0.245729
Cl141	Cl	1.620169	0.249005	0.298577
Cl142	Cl	0.932562	0.180858	0.450174
Cl143	Cl	1.373482	0.249075	-0.083411
H144	H	0.833433	0.262339	0.301637
Cl145	Cl	1.106799	0.630972	-0.617956
H146	H	0.833387	-0.000434	0.067114
H147	H	0.792359	0.630962	-0.631363
Cl148	Cl	1.055682	1.012949	-0.298456
Cl149	Cl	1.597641	0.180847	0.450141
H150	H	1.378174	0.262307	0.435742
H151	H	0.450469	0.890108	-0.192008
Cl152	Cl	0.809206	0.385203	0.162384
Cl153	Cl	0.244721	1.012985	-0.298476
H154	H	0.306758	1.054421	-0.423312
H155	H	0.648707	0.890062	0.067116
H156	H	1.557953	0.207653	0.000011
Cl157	Cl	0.491137	1.013059	-0.465381
Cl158	Cl	0.692494	0.876792	-0.329162
Cl159	Cl	0.809094	1.013036	-0.465373
Cl160	Cl	1.106842	0.630934	-0.754160
Cl161	Cl	0.719635	0.738313	-0.485539
Cl162	Cl	0.491408	1.012910	0.083491
H163	H	0.450465	0.890115	-0.067014
Cl164	Cl	0.267445	1.081073	0.000062
H165	H	1.031487	0.890100	-0.191994
Cl166	Cl	0.809082	0.876798	-0.329159
Cl167	Cl	1.055683	0.249032	-0.083379
Cl168	Cl	1.138915	0.123277	0.011965
Cl169	Cl	0.932398	1.081110	-0.450024
H170	H	1.098410	0.015282	0.009641
H171	H	1.031502	-0.000409	-0.067011
H172	H	0.766468	0.137199	-0.009542
Cl173	Cl	1.055689	-0.123269	-0.083372
H174	H	0.766457	0.246698	-0.009557
H175	H	0.833381	0.371870	0.067109
Cl176	Cl	1.106689	0.631037	-0.245688
Cl177	Cl	0.809205	0.249007	0.083479
H178	H	1.103463	0.544796	-0.402080
Cl179	Cl	1.145251	0.523731	-0.514397
Cl180	Cl	1.106729	0.631011	-0.381900
