data_functionalizedCrystal
_audit_creation_method	'MofGen! by Chris Wilmer'
_symmetry_space_group_name_H-M	'P1'
_symmetry_Int_Tables_number	1
_symmetry_cell_setting	triclinic
loop_
_symmetry_equiv_pos_as_xyz
  x,y,z
_cell_length_a	10.723024
_cell_length_b	13.101039
_cell_length_c	10.723024
_cell_angle_alpha	93.395424
_cell_angle_beta	95.532131
_cell_angle_gamma	93.389393
loop_
_atom_site_label
_atom_site_type_symbol
_atom_site_fract_x
_atom_site_fract_y
_atom_site_fract_z
O1	O	1.663994	0.085205	-0.168199
O2	O	2.163994	0.585205	0.331801
O3	O	1.300842	0.085208	-0.184952
O4	O	1.800842	0.585208	0.315048
O5	O	1.490794	0.085203	0.005000
O6	O	1.990794	0.585203	0.505000
O7	O	1.474041	0.085211	-0.358152
O8	O	1.974041	0.585211	0.141848
O9	O	1.477165	-0.085226	-0.008651
O10	O	1.977165	0.414774	0.491349
O11	O	1.287213	-0.085221	-0.198604
O12	O	1.787213	0.414779	0.301396
O13	O	1.650365	-0.085224	-0.181851
O14	O	2.150365	0.414776	0.318149
Zn15	Zn	1.466625	-0.112282	-0.192395
Zn16	Zn	1.966625	0.387718	0.307605
Zn17	Zn	1.484582	0.112266	-0.174408
Zn18	Zn	1.984582	0.612266	0.325592
O19	O	1.460413	-0.085219	-0.371803
O20	O	1.960413	0.414781	0.128197
C21	C	1.247528	-0.000006	-0.190559
C22	C	1.747528	0.499994	0.309441
C23	C	1.108974	-0.000005	-0.186911
C24	C	1.608974	0.499995	0.313089
N25	N	1.454380	-0.265530	-0.204669
N26	N	1.954380	0.234470	0.295331
C27	C	1.033991	-0.000002	-0.293198
C28	C	1.533991	0.499998	0.206802
C29	C	0.890788	-0.000000	-0.289431
C30	C	1.390788	0.500000	0.210569
C31	C	1.437719	-0.474572	-0.221381
C32	C	1.937719	0.025428	0.278619
C33	C	1.513494	-0.525450	-0.145416
C34	C	2.013494	-0.025450	0.354584
C35	C	1.504223	-0.641768	-0.154715
C36	C	2.004223	-0.141768	0.345285
C37	C	1.446988	-0.358244	-0.212084
C38	C	1.946988	0.141756	0.287916
C39	C	1.703679	-0.000008	-0.176244
C40	C	2.203679	0.499992	0.323756
C41	C	1.842234	-0.000002	-0.179891
C42	C	2.342234	0.499998	0.320109
C43	C	1.482761	-0.000011	0.044674
C44	C	1.982761	0.499989	0.544674
C45	C	1.479113	-0.000007	0.183229
C46	C	1.979113	0.499993	0.683229
N47	N	1.496837	0.265514	-0.162124
N48	N	1.996837	0.765514	0.337876
C49	C	1.468446	-0.000003	-0.411477
C50	C	1.968446	0.499997	0.088523
C51	C	1.472094	0.000000	-0.550031
C52	C	1.972094	0.500000	-0.050031
C53	C	1.585401	-0.000006	0.258211
C54	C	2.085401	0.499994	0.758211
C55	C	1.581634	-0.000003	0.401415
C56	C	2.081634	0.499997	0.901415
H57	H	1.075813	-0.000006	-0.386985
H58	H	1.575813	0.499994	0.113015
O59	O	1.351548	-0.000007	0.364644
O60	O	1.851548	0.499993	0.864644
H61	H	1.353297	0.069458	0.310233
H62	H	1.853297	0.569458	0.810233
O63	O	1.053596	-0.000014	-0.062670
O64	O	1.553596	0.499986	0.437330
H65	H	1.000494	0.069453	-0.050179
H66	H	1.500494	0.569453	0.449821
H67	H	1.365890	-0.518367	-0.293396
H68	H	1.865890	-0.018367	0.206604
O69	O	0.805443	-0.000003	-0.409963
O70	O	1.305443	0.499997	0.090037
H71	H	0.829236	0.069464	-0.459539
H72	H	1.329236	0.569464	0.040461
H73	H	0.906659	0.000002	-0.088895
H74	H	1.406659	0.500002	0.411105
O75	O	1.709642	-0.000009	0.202833
O76	O	2.209642	0.499991	0.702833
H77	H	1.693104	-0.000017	0.099045
H78	H	2.193104	0.499983	0.599045
O79	O	1.702166	-0.000010	0.486757
O80	O	2.202166	0.499990	0.986757
H81	H	1.782978	-0.000022	0.429398
H82	H	2.282978	0.499978	0.929398
H83	H	1.385328	0.000001	0.225051
H84	H	1.885328	0.500001	0.725051
O85	O	1.608654	-0.467445	-0.050016
O86	O	2.108654	0.032555	0.449984
H87	H	1.601104	-0.383862	-0.057593
H88	H	2.101104	0.116138	0.442407
