data_functionalizedCrystal
_audit_creation_method	'MofGen! by Chris Wilmer'
_symmetry_space_group_name_H-M	'P1'
_symmetry_Int_Tables_number	1
_symmetry_cell_setting	triclinic
loop_
_symmetry_equiv_pos_as_xyz
  x,y,z
_cell_length_a	21.295417
_cell_length_b	21.295420
_cell_length_c	19.120904
_cell_angle_alpha	87.578187
_cell_angle_beta	92.408338
_cell_angle_gamma	89.975452
loop_
_atom_site_label
_atom_site_type_symbol
_atom_site_fract_x
_atom_site_fract_y
_atom_site_fract_z
Zn1	Zn	-0.265905	-0.947122	-0.397115
Zn2	Zn	-0.366684	-0.951530	-0.279660
Zn3	Zn	-0.261422	-0.846350	-0.279679
Zn4	Zn	-0.371128	-0.841816	-0.397065
O5	O	-0.316285	-0.896704	-0.338380
O6	O	-0.279290	-1.035795	-0.381548
O7	O	-0.348985	-0.941320	-0.181380
O8	O	-0.173929	-0.859770	-0.295287
O9	O	-0.353332	-1.039034	-0.295253
O10	O	-0.177222	-0.933807	-0.381566
O11	O	-0.271649	-0.864044	-0.181395
O12	O	-0.275958	-0.757660	-0.295238
O13	O	-0.360906	-0.852043	-0.495354
O14	O	-0.356559	-0.754329	-0.381481
O15	O	-0.283599	-0.929411	-0.495391
O16	O	-0.455362	-0.936924	-0.295205
O17	O	-0.458626	-0.856318	-0.381462
C18	C	-0.316255	-0.733154	-0.338356
C19	C	-0.316258	-0.663185	-0.338363
C20	C	-0.277806	-0.162037	-0.383380
C21	C	-0.277804	-0.227780	-0.383382
C22	C	-0.316285	-0.262345	-0.338382
C23	C	-0.354783	-0.231163	-0.293390
C24	C	-0.354789	-0.165421	-0.293395
N25	N	-0.318681	-0.367894	-0.276887
N26	N	-0.318672	-0.430346	-0.276884
C27	C	-0.316269	-0.460421	-0.338366
N28	N	-0.313864	-0.425685	-0.399851
N29	N	-0.313871	-0.363227	-0.399853
C30	C	-0.316283	-0.333631	-0.338372
C31	C	-0.277774	-0.562881	-0.383360
C32	C	-0.277776	-0.628624	-0.383362
C33	C	-0.354751	-0.632006	-0.293364
C34	C	-0.354753	-0.566264	-0.293368
C35	C	-0.316261	-0.531705	-0.338365
C36	C	-0.479835	-0.896623	-0.338341
C37	C	-0.549803	-0.896645	-0.338348
C38	C	-0.580951	-0.938651	-0.293480
C39	C	-0.646694	-0.938680	-0.293496
C40	C	-0.681287	-0.896692	-0.338372
C41	C	-0.650132	-0.854684	-0.383249
C42	C	-0.584390	-0.854660	-0.383237
N43	N	-0.784751	-0.841420	-0.343718
N44	N	-0.847203	-0.841444	-0.343726
C45	C	-0.879363	-0.896761	-0.338412
N46	N	-0.846711	-0.952055	-0.333078
N47	N	-0.784254	-0.952030	-0.333067
C48	C	-0.752573	-0.896713	-0.338391
C49	C	-0.981796	-0.938802	-0.293559
C50	C	-1.047541	-0.938831	-0.293580
C51	C	-1.050977	-0.854830	-0.383329
C52	C	-0.985234	-0.854805	-0.383312
C53	C	-0.950648	-0.896791	-0.338423
C54	C	-0.152096	-0.896802	-0.338434
C55	C	-0.082129	-0.896844	-0.338458
C56	C	-0.323248	-0.889730	-0.521568
C57	C	-0.326216	-0.886757	-0.599632
C58	C	-0.316307	-0.060894	-0.338398
C59	C	-0.316297	-0.130862	-0.338392
C60	C	-0.287362	-0.925640	-0.636327
C61	C	-0.290148	-0.922839	-0.709677
C62	C	-0.331791	-0.881159	-0.746330
C63	C	-0.370646	-0.842272	-0.709630
C64	C	-0.367856	-0.845070	-0.636282
C65	C	-0.342224	-0.870694	-0.967792
C66	C	-0.345012	-0.867900	-1.041146
C67	C	-0.264513	-0.948467	-1.041188
C68	C	-0.261730	-0.951264	-0.967838
C69	C	-0.300582	-0.912374	-0.931144
C70	C	-0.334641	-0.878297	-0.821305
C71	C	-0.297729	-0.915234	-0.856171
C72	C	-0.309303	-0.903688	-0.155904
C73	C	-0.306158	-0.906783	-0.077841
H74	H	-0.552792	-0.972839	-0.256930
Br75	Br	-0.688975	-0.995692	-0.232599
Br76	Br	-0.225537	-0.515976	-0.444426
Br77	Br	-0.407028	-0.123109	-0.232332
H78	H	-0.678301	-0.820498	-0.419789
H79	H	-0.386093	-0.540881	-0.256730
H80	H	-0.232880	-0.980127	-1.071072
Br81	Br	-0.225572	-0.115139	-0.444451
H82	H	-0.386088	-0.660149	-0.256730
H83	H	-0.373870	-0.839036	-0.937925
Br84	Br	-0.542115	-0.797649	-0.444135
Br85	Br	-0.934853	-0.995778	-0.232638
H86	H	-0.399489	-0.813401	-0.606405
Br87	Br	-0.230849	-0.982214	-0.586591
H88	H	-1.072900	-0.973041	-0.257044
H89	H	-1.079142	-0.820645	-0.419872
Br90	Br	-0.225541	-0.670934	-0.444432
Br91	Br	-0.401528	-0.811328	-1.090889
Br92	Br	-0.407012	-0.278071	-0.232323
H93	H	-0.404550	-0.808333	-0.739478
Br94	Br	-0.942959	-0.797793	-0.444207
H95	H	-0.258511	-0.954503	-0.739551
Br96	Br	-0.205214	-1.007834	-0.918100
H97	H	-0.263821	-0.949167	-0.826325
H98	H	-0.368549	-0.844364	-0.851156
H99	H	-0.246457	-0.253167	-0.420016
