data_functionalizedCrystal
_audit_creation_method	'MofGen! by Chris Wilmer'
_symmetry_space_group_name_H-M	'P1'
_symmetry_Int_Tables_number	1
_symmetry_cell_setting	triclinic
loop_
_symmetry_equiv_pos_as_xyz
  x,y,z
_cell_length_a	12.645331
_cell_length_b	21.295417
_cell_length_c	12.645323
_cell_angle_alpha	89.967055
_cell_angle_beta	89.984262
_cell_angle_gamma	90.028938
loop_
_atom_site_label
_atom_site_type_symbol
_atom_site_fract_x
_atom_site_fract_y
_atom_site_fract_z
Zn1	Zn	1.620643	-0.250617	-0.599191
Zn2	Zn	1.620487	-0.355892	-0.421906
Zn3	Zn	1.443357	-0.250639	-0.421956
Zn4	Zn	1.443302	-0.355851	-0.599142
O5	O	1.531947	-0.303250	-0.510549
O6	O	1.768969	-0.264590	-0.575672
O7	O	1.596949	-0.341956	-0.273565
O8	O	1.466963	-0.162547	-0.445508
O9	O	1.768855	-0.341935	-0.445422
O10	O	1.597214	-0.162531	-0.575721
O11	O	1.466812	-0.264627	-0.273602
O12	O	1.295003	-0.264588	-0.445462
O13	O	1.466868	-0.341865	-0.747496
O14	O	1.294962	-0.341886	-0.575639
O15	O	1.597160	-0.264551	-0.747532
O16	O	1.596895	-0.443976	-0.445375
O17	O	1.466718	-0.443946	-0.575590
C18	C	1.256518	-0.303235	-0.510551
C19	C	1.138688	-0.303244	-0.510578
C20	C	0.971133	-0.352140	-0.592046
C21	C	1.093693	-0.351982	-0.592386
C22	C	1.094233	-0.236943	-0.541115
C23	C	0.971635	-0.237242	-0.541689
C24	C	0.971436	-0.320116	-0.398314
C25	C	1.094041	-0.321566	-0.398920
C26	C	1.531812	-0.466801	-0.510495
C27	C	1.531851	-0.536769	-0.510508
C28	C	1.599634	-0.569571	-0.578358
C29	C	1.599672	-0.635313	-0.578384
C30	C	1.531937	-0.668252	-0.510541
C31	C	1.464141	-0.635443	-0.442686
C32	C	1.464098	-0.569702	-0.442669
N33	N	1.523925	-0.771516	-0.417766
N34	N	1.523972	-0.833967	-0.417784
C35	C	1.532061	-0.866327	-0.510589
N36	N	1.540122	-0.833875	-0.603376
N37	N	1.540080	-0.771418	-0.603356
C38	C	1.531976	-0.739537	-0.510552
C39	C	1.599888	-0.970413	-0.578473
C40	C	1.599918	-1.036157	-0.578501
C41	C	1.464393	-1.036285	-0.442793
C42	C	1.464358	-0.970543	-0.442775
C43	C	1.532111	-0.937611	-0.510613
C44	C	1.808452	-0.303264	-0.510547
C45	C	1.926282	-0.303271	-0.510546
C46	C	1.532025	-0.303201	-0.787054
C47	C	1.532059	-0.303180	-0.904884
C48	C	1.532112	-0.139059	-0.510626
C49	C	1.532182	-0.069091	-0.510659
C50	C	1.449839	-0.351590	-1.072426
C51	C	1.450055	-0.351830	-0.949866
C52	C	1.643752	-0.321184	-0.949386
C53	C	1.643301	-0.321488	-1.071985
C54	C	1.503641	-0.236496	-1.072101
C55	C	1.501149	-0.236895	-0.949495
C56	C	1.531930	-0.303253	-0.235119
C57	C	1.532103	-0.303096	-0.117290
H58	H	1.124963	-0.222394	-0.622272
O59	O	1.665575	-0.667250	-0.644152
C60	C	1.734118	-0.705254	-0.583858
H61	H	1.696774	-0.715160	-0.503496
H62	H	1.748340	-0.751456	-0.627063
H63	H	1.812665	-0.679879	-0.572260
O64	O	1.398194	-0.667408	-0.376894
C65	C	1.292515	-0.651380	-0.399959
H66	H	1.287108	-0.633275	-0.484640
H67	H	1.240177	-0.694646	-0.390795
H68	H	1.264808	-0.613259	-0.343093
H69	H	1.563558	-0.200366	-1.101116
O70	O	1.665550	-0.537552	-0.644110
C71	C	1.734007	-0.499499	-0.583804
H72	H	1.740616	-0.519342	-0.500321
H73	H	1.815569	-0.498692	-0.622213
H74	H	1.701196	-0.449695	-0.580115
O75	O	1.350658	-0.338354	-1.107464
C76	C	1.278887	-0.382647	-1.065900
H77	H	1.313251	-0.404154	-0.990834
H78	H	1.200909	-0.358387	-1.046548
H79	H	1.264463	-0.421215	-1.126705
O80	O	1.567268	-0.191473	-0.912854
C81	C	1.508508	-0.146454	-0.856074
H82	H	1.431712	-0.168539	-0.826892
H83	H	1.556707	-0.129427	-0.785511
H84	H	1.489590	-0.104995	-0.909904
O85	O	1.351258	-0.338477	-0.913840
C86	C	1.313858	-0.388996	-0.852148
H87	H	1.383821	-0.417117	-0.820734
H88	H	1.265698	-0.370054	-0.782951
H89	H	1.261813	-0.420667	-0.902872
O90	O	1.128581	-0.338756	-0.691669
C91	C	1.091008	-0.384769	-0.762458
H92	H	1.017336	-0.407922	-0.728033
H93	H	1.070529	-0.361777	-0.841265
H94	H	1.154775	-0.421813	-0.775318
O95	O	0.934467	-0.376832	-0.365378
C96	C	0.867112	-0.402157	-0.443304
H97	H	0.886858	-0.380443	-0.523336
H98	H	0.878632	-0.455191	-0.447367
H99	H	0.781384	-0.391316	-0.422225
O100	O	1.398142	-0.537807	-0.376903
C101	C	1.329638	-0.499775	-0.437191
H102	H	1.323057	-0.519553	-0.520685
H103	H	1.248075	-0.499086	-0.398785
H104	H	1.362386	-0.449933	-0.440855
H105	H	1.123379	-0.199543	-0.483609
H106	H	1.706670	-0.287701	-1.101663
H107	H	1.655054	-0.943599	-0.633715
H108	H	1.655115	-1.062863	-0.633758
H109	H	1.668293	-0.369360	-0.918683
O110	O	1.398440	-1.068244	-0.377003
C111	C	1.292765	-1.052209	-0.400068
H112	H	1.287361	-1.034103	-0.484749
H113	H	1.240418	-1.095472	-0.390906
H114	H	1.265063	-1.014087	-0.343202
O115	O	1.472055	-0.410083	-1.109347
C116	C	1.466840	-0.410061	-1.220722
H117	H	1.479377	-0.360265	-1.251410
H118	H	1.530994	-0.442104	-1.253819
H119	H	1.385934	-0.427797	-1.246999
H120	H	1.124670	-0.288554	-0.334937
H121	H	1.123107	-0.370354	-0.375888
O122	O	1.472645	-0.410677	-0.914731
C123	C	1.565513	-0.409068	-0.853111
H124	H	1.577841	-0.359596	-0.820990
H125	H	1.557669	-0.443438	-0.784401
H126	H	1.636123	-0.422869	-0.904111
O127	O	0.936963	-0.277695	-0.325736
C128	C	0.977906	-0.293262	-0.225396
H129	H	1.052446	-0.322754	-0.235412
H130	H	0.997968	-0.248410	-0.180486
H131	H	0.916412	-0.321208	-0.179152
H132	H	0.941967	-0.199525	-0.485051
H133	H	1.123748	-0.401148	-0.573246
H134	H	1.409167	-0.943834	-0.387520
H135	H	0.943065	-0.222953	-0.623735
O136	O	1.718832	-0.280434	-0.914451
C137	C	1.722540	-0.281987	-0.803044
H138	H	1.689378	-0.328630	-0.773660
H139	H	1.807977	-0.276816	-0.775634
H140	H	1.673265	-0.241772	-0.769751
H141	H	0.940346	-0.341136	-0.674721
O142	O	0.935860	-0.411002	-0.569667
C143	C	0.878135	-0.434382	-0.656529
H144	H	0.903476	-0.408714	-0.731510
H145	H	0.894201	-0.486764	-0.665774
H146	H	0.790050	-0.426577	-0.642542
O147	O	1.672229	-0.379570	-1.105975
C148	C	1.774453	-0.393636	-1.068323
H149	H	1.791787	-0.364132	-0.995152
H150	H	1.779080	-0.445584	-1.047006
H151	H	1.835150	-0.382567	-1.132361
O152	O	1.408135	-0.217019	-1.109049
C153	C	1.365572	-0.263311	-1.176417
H154	H	1.402161	-0.310807	-1.156686
H155	H	1.276252	-0.265808	-1.164896
H156	H	1.383883	-0.250753	-1.262141
H157	H	1.418952	-0.223318	-0.920409
