data_functionalizedCrystal
_audit_creation_method	'MofGen! by Chris Wilmer'
_symmetry_space_group_name_H-M	'P1'
_symmetry_Int_Tables_number	1
_symmetry_cell_setting	triclinic
loop_
_symmetry_equiv_pos_as_xyz
  x,y,z
_cell_length_a	13.339070
_cell_length_b	23.532407
_cell_length_c	12.376457
_cell_angle_alpha	101.199798
_cell_angle_beta	75.589755
_cell_angle_gamma	99.238986
loop_
_atom_site_label
_atom_site_type_symbol
_atom_site_fract_x
_atom_site_fract_y
_atom_site_fract_z
O1	O	1.358915	0.277209	-0.094091
O2	O	1.064762	0.239795	-0.094078
O3	O	1.220704	0.177002	-0.094064
O4	O	1.202972	0.340002	-0.094105
O5	O	1.181733	0.192673	0.093944
O6	O	1.025790	0.255466	0.093930
O7	O	1.319944	0.292880	0.093918
Zn8	Zn	1.166679	0.276661	0.123774
Zn9	Zn	1.218026	0.256014	-0.123935
O10	O	1.164001	0.355673	0.093904
C11	C	1.007650	0.241311	-0.000072
C12	C	0.895536	0.222472	-0.000066
C13	C	0.529282	0.368949	-0.000121
C14	C	0.634619	0.386650	-0.000130
C15	C	0.699853	0.345607	-0.000113
C16	C	0.659741	0.286860	-0.000089
C17	C	0.554396	0.269156	-0.000089
C18	C	0.724966	0.245815	-0.000082
C19	C	0.684854	0.187068	-0.000057
C20	C	0.579519	0.169367	-0.000056
C21	C	0.514285	0.210410	-0.000073
C22	C	0.830312	0.263518	-0.000082
C23	C	0.855425	0.163726	-0.000050
C24	C	0.750088	0.146025	-0.000041
C25	C	1.200766	0.163549	-0.000057
C26	C	1.199406	0.100114	-0.000048
C27	C	1.283186	-0.285491	-0.000114
C28	C	1.281926	-0.345096	-0.000122
O29	O	1.359588	-0.369326	-0.000168
N30	N	1.189215	-0.382667	-0.000118
C31	C	1.097761	-0.360632	-0.000116
O32	O	1.018788	-0.398062	-0.000114
C33	C	1.099024	-0.301029	-0.000115
C34	C	1.191738	-0.263460	-0.000109
C35	C	1.375893	-0.247923	-0.000109
C36	C	1.377152	-0.188322	-0.000098
C37	C	1.285704	-0.166291	-0.000093
C38	C	1.192997	-0.203859	-0.000098
C39	C	1.007572	-0.278996	-0.000122
C40	C	1.008843	-0.219388	-0.000122
C41	C	1.101558	-0.181819	-0.000115
C42	C	1.102808	-0.122227	-0.000082
N43	N	1.195519	-0.084656	-0.000087
C44	C	1.286967	-0.106688	-0.000092
C45	C	1.095117	-0.485801	-0.000119
C46	C	1.093851	-0.545402	-0.000111
C47	C	1.278017	-0.529862	-0.000120
C48	C	1.279280	-0.470259	-0.000119
C49	C	1.187828	-0.448230	-0.000124
C50	C	1.289604	0.018477	-0.000069
C51	C	1.290854	0.078082	-0.000054
C52	C	1.106690	0.062536	-0.000051
C53	C	1.105438	0.002937	-0.000060
C54	C	1.196904	-0.019091	-0.000073
O55	O	1.025189	-0.097956	-0.000042
O56	O	1.365930	-0.069253	-0.000109
C57	C	1.377056	0.291365	-0.000091
C58	C	1.489171	0.310202	-0.000104
C59	C	1.183940	0.369126	-0.000106
C60	C	1.185301	0.432561	-0.000122
N61	N	1.131644	0.290753	0.292830
N62	N	1.253069	0.241919	-0.292990
C63	C	1.334398	0.209197	0.647833
C64	C	1.358914	0.199333	0.529495
C65	C	1.302098	0.222187	0.470323
C66	C	1.220763	0.254907	0.529500
C67	C	1.196250	0.264775	0.647849
C68	C	1.163950	0.277766	0.470339
C69	C	1.082615	0.310485	0.529516
C70	C	1.058106	0.320352	0.647854
C71	C	1.114922	0.297498	0.707026
C72	C	1.188463	0.267897	0.351990
C73	C	1.050315	0.323476	0.352007
C74	C	1.025800	0.333339	0.470344
H75	H	0.785623	0.360023	-0.000123
Br76	Br	1.298843	0.223494	0.271693
H77	H	0.546866	0.121531	-0.000049
H78	H	1.322062	0.214154	0.373967
H79	H	1.029936	-0.027651	-0.000034
Br80	Br	1.500019	-0.277810	-0.000117
Br81	Br	1.502992	-0.137347	-0.000121
H82	H	1.032235	0.080486	-0.000042
Br83	Br	1.405110	-0.419278	-0.000108
Br84	Br	1.402127	-0.559774	-0.000132
H85	H	1.094959	0.305527	0.803387
Br86	Br	1.416689	0.129066	-0.000043
H87	H	0.717415	0.098191	-0.000030
Br88	Br	1.469293	0.154932	0.449184
Br89	Br	1.411509	0.178192	0.728137
Br90	Br	0.689053	0.466373	-0.000172
Br91	Br	0.943951	0.108020	-0.000042
Br92	Br	1.413738	-0.011409	-0.000088
Br93	Br	0.947738	0.364768	0.728169
Br94	Br	0.915417	0.377743	0.550667
H95	H	1.004052	0.342087	0.303829
H96	H	0.476162	0.402358	-0.000144
Br97	Br	0.371319	0.186389	-0.000054
Br98	Br	0.968014	-0.596379	-0.000093
Br99	Br	0.970988	-0.455910	-0.000115
Br100	Br	0.884738	0.343243	-0.000117
Br101	Br	0.881739	-0.329968	-0.000135
H102	H	0.934370	-0.201456	-0.000127
