data_functionalizedCrystal
_audit_creation_method	'MofGen! by Chris Wilmer'
_symmetry_space_group_name_H-M	'P1'
_symmetry_Int_Tables_number	1
_symmetry_cell_setting	triclinic
loop_
_symmetry_equiv_pos_as_xyz
  x,y,z
_cell_length_a	27.731993
_cell_length_b	27.732064
_cell_length_c	17.666332
_cell_angle_alpha	89.997589
_cell_angle_beta	90.002180
_cell_angle_gamma	82.634907
loop_
_atom_site_label
_atom_site_type_symbol
_atom_site_fract_x
_atom_site_fract_y
_atom_site_fract_z
O1	O	0.640951	0.057392	-0.062739
O2	O	0.890951	0.307392	0.187261
O3	O	1.140951	0.557392	0.437261
O4	O	1.390951	0.807392	0.687261
O5	O	0.500154	0.066165	-0.062784
O6	O	0.750154	0.316165	0.187216
O7	O	1.000154	0.566165	0.437216
O8	O	1.250154	0.816165	0.687216
O9	O	0.574921	-0.008619	-0.062763
O10	O	0.824921	0.241381	0.187237
O11	O	1.074921	0.491381	0.437237
O12	O	1.324921	0.741381	0.687237
O13	O	0.566184	0.132175	-0.062760
O14	O	0.816184	0.382175	0.187240
O15	O	1.066184	0.632175	0.437240
O16	O	1.316184	0.882175	0.687240
O17	O	0.574908	-0.008623	0.063134
O18	O	0.824908	0.241377	0.313134
O19	O	1.074908	0.491377	0.563134
O20	O	1.324908	0.741377	0.813134
O21	O	0.500141	0.066161	0.063113
O22	O	0.750141	0.316161	0.313113
O23	O	1.000141	0.566161	0.563113
O24	O	1.250141	0.816161	0.813113
O25	O	0.640938	0.057388	0.063158
O26	O	0.890938	0.307388	0.313158
O27	O	1.140938	0.557388	0.563158
O28	O	1.390938	0.807388	0.813158
Cu29	Cu	0.570539	0.061774	0.074631
Cu30	Cu	0.820539	0.311774	0.324631
Cu31	Cu	1.070539	0.561774	0.574631
Cu32	Cu	1.320539	0.811774	0.824631
Cu33	Cu	0.570554	0.061779	-0.074256
Cu34	Cu	0.820554	0.311779	0.175744
Cu35	Cu	1.070554	0.561779	0.425744
Cu36	Cu	1.320554	0.811779	0.675744
O37	O	0.566171	0.132171	0.063137
O38	O	0.816171	0.382171	0.313137
O39	O	1.066171	0.632171	0.563137
O40	O	1.316171	0.882171	0.813137
C41	C	0.482141	0.065983	0.000159
C42	C	0.732141	0.315983	0.250159
C43	C	0.982141	0.565983	0.500159
C44	C	1.232141	0.815983	0.750159
C45	C	0.428484	0.065441	0.000141
C46	C	0.678484	0.315441	0.250141
C47	C	0.928484	0.565441	0.500141
C48	C	1.178484	0.815441	0.750141
C49	C	0.045331	0.061512	-0.068448
C50	C	0.295331	0.311512	0.181552
C51	C	0.545331	0.561512	0.431552
C52	C	0.795331	0.811512	0.681552
C53	C	0.246988	0.063579	-0.068469
C54	C	0.496988	0.313579	0.181531
C55	C	0.746988	0.563579	0.431531
C56	C	0.996988	0.813579	0.681531
O57	O	0.273068	0.063829	-0.126834
O58	O	0.523068	0.313829	0.123166
O59	O	0.773068	0.563829	0.373166
O60	O	1.023068	0.813829	0.623166
N61	N	0.272202	0.063836	0.000156
N62	N	0.522202	0.313836	0.250156
N63	N	0.772202	0.563836	0.500156
N64	N	1.022202	0.813836	0.750156
C65	C	0.246998	0.063572	0.068791
C66	C	0.496998	0.313572	0.318791
C67	C	0.746998	0.563572	0.568791
C68	C	0.996998	0.813572	0.818791
O69	O	0.273071	0.063833	0.127160
O70	O	0.523071	0.313833	0.377160
O71	O	0.773071	0.563833	0.627160
O72	O	1.023071	0.813833	0.877160
C73	C	0.045342	0.061502	0.068810
C74	C	0.295342	0.311502	0.318810
C75	C	0.545342	0.561502	0.568810
C76	C	0.795342	0.811502	0.818810
C77	C	0.020130	0.061250	0.000181
C78	C	0.270130	0.311250	0.250181
C79	C	0.520130	0.561250	0.500181
C80	C	0.770130	0.811250	0.750181
C81	C	0.020120	0.061260	-0.137072
C82	C	0.270120	0.311260	0.112928
C83	C	0.520120	0.561260	0.362928
C84	C	0.770120	0.811260	0.612928
C85	C	-0.030292	0.060746	-0.137066
C86	C	0.219708	0.310746	0.112934
C87	C	0.469708	0.560746	0.362934
C88	C	0.719708	0.810746	0.612934
C89	C	-0.055493	0.060484	-0.068437
C90	C	0.194507	0.310484	0.181563
C91	C	0.444507	0.560484	0.431563
C92	C	0.694507	0.810484	0.681563
C93	C	-0.030281	0.060736	0.000187
C94	C	0.219719	0.310736	0.250187
C95	C	0.469719	0.560736	0.500187
C96	C	0.719719	0.810736	0.750187
C97	C	0.020139	0.061235	0.137444
C98	C	0.270139	0.311235	0.387444
C99	C	0.520139	0.561235	0.637444
C100	C	0.770139	0.811235	0.887444
C101	C	-0.030278	0.060716	0.137443
C102	C	0.219722	0.310716	0.387443
C103	C	0.469722	0.560716	0.637443
C104	C	0.719722	0.810716	0.887443
C105	C	-0.055489	0.060464	0.068814
C106	C	0.194511	0.310464	0.318814
C107	C	0.444511	0.560464	0.568814
C108	C	0.694511	0.810464	0.818814
C109	C	-0.105894	0.059960	0.068822
C110	C	0.144106	0.309960	0.318822
C111	C	0.394106	0.559960	0.568822
C112	C	0.644106	0.809960	0.818822
N113	N	-0.131107	0.059703	0.000197
N114	N	0.118893	0.309703	0.250197
N115	N	0.368893	0.559703	0.500197
N116	N	0.618893	0.809703	0.750197
C117	C	-0.105906	0.059965	-0.068432
C118	C	0.144094	0.309965	0.181568
C119	C	0.394094	0.559965	0.431568
C120	C	0.644094	0.809965	0.681568
C121	C	0.352870	0.064660	0.068775
C122	C	0.602870	0.314660	0.318775
C123	C	0.852870	0.564660	0.568775
C124	C	1.102870	0.814660	0.818775
C125	C	0.403284	0.065179	0.068771
C126	C	0.653284	0.315179	0.318771
C127	C	0.903284	0.565179	0.568771
C128	C	1.153284	0.815179	0.818771
C129	C	0.403271	0.065185	-0.068489
C130	C	0.653271	0.315185	0.181511
C131	C	0.903271	0.565185	0.431511
C132	C	1.153271	0.815185	0.681511
C133	C	0.352856	0.064670	-0.068484
C134	C	0.602856	0.314670	0.181516
C135	C	0.852856	0.564670	0.431516
C136	C	1.102856	0.814670	0.681516
C137	C	0.327657	0.064404	0.000151
C138	C	0.577657	0.314404	0.250151
C139	C	0.827657	0.564404	0.500151
C140	C	1.077657	0.814404	0.750151
C141	C	-0.211775	0.058886	-0.068415
C142	C	0.038225	0.308886	0.181585
C143	C	0.288225	0.558886	0.431585
C144	C	0.538225	0.808886	0.681585
C145	C	-0.262191	0.058374	-0.068403
C146	C	-0.012191	0.308374	0.181597
C147	C	0.237809	0.558374	0.431597
C148	C	0.487809	0.808374	0.681597
C149	C	-0.262174	0.058366	0.068857
C150	C	-0.012174	0.308366	0.318857
C151	C	0.237826	0.558366	0.568857
C152	C	0.487826	0.808366	0.818857
C153	C	-0.211762	0.058880	0.068845
C154	C	0.038238	0.308880	0.318845
C155	C	0.288238	0.558880	0.568845
C156	C	0.538238	0.808880	0.818845
C157	C	-0.186563	0.059139	0.000203
C158	C	0.063437	0.309139	0.250203
C159	C	0.313437	0.559139	0.500203
C160	C	0.563437	0.809139	0.750203
O161	O	-0.132003	0.059705	0.127157
O162	O	0.117997	0.309705	0.377157
O163	O	0.367997	0.559705	0.627157
O164	O	0.617997	0.809705	0.877157
O165	O	-0.131987	0.059694	-0.126793
O166	O	0.118013	0.309694	0.123207
O167	O	0.368013	0.559694	0.373207
O168	O	0.618013	0.809694	0.623207
C169	C	0.095743	0.062026	-0.068454
C170	C	0.345743	0.312026	0.181546
C171	C	0.595743	0.562026	0.431546
C172	C	0.845743	0.812026	0.681546
C173	C	0.120954	0.062278	0.000169
C174	C	0.370954	0.312278	0.250169
C175	C	0.620954	0.562278	0.500169
C176	C	0.870954	0.812278	0.750169
C177	C	0.095753	0.062016	0.068799
C178	C	0.345753	0.312016	0.318799
C179	C	0.595753	0.562016	0.568799
C180	C	0.845753	0.812016	0.818799
C181	C	0.171368	0.062797	0.000165
C182	C	0.421368	0.312797	0.250165
C183	C	0.671368	0.562797	0.500165
C184	C	0.921368	0.812797	0.750165
C185	C	0.196568	0.063059	-0.068465
C186	C	0.446568	0.313059	0.181535
C187	C	0.696568	0.563059	0.431535
C188	C	0.946568	0.813059	0.681535
C189	C	0.171355	0.062802	-0.137090
C190	C	0.421355	0.312802	0.112910
C191	C	0.671355	0.562802	0.362910
C192	C	0.921355	0.812802	0.612910
C193	C	0.120943	0.062288	-0.137084
C194	C	0.370943	0.312288	0.112916
C195	C	0.620943	0.562288	0.362916
C196	C	0.870943	0.812288	0.612916
C197	C	0.120967	0.062273	0.137424
C198	C	0.370967	0.312273	0.387424
C199	C	0.620967	0.562273	0.637424
C200	C	0.870967	0.812273	0.887424
C201	C	0.171378	0.062787	0.137412
C202	C	0.421378	0.312787	0.387412
C203	C	0.671378	0.562787	0.637412
C204	C	0.921378	0.812787	0.887412
C205	C	0.196579	0.063049	0.068783
C206	C	0.446579	0.313049	0.318783
C207	C	0.696579	0.563049	0.568783
C208	C	0.946579	0.813049	0.818783
C209	C	0.574730	-0.026627	0.000183
C210	C	0.824730	0.223373	0.250183
C211	C	1.074730	0.473373	0.500183
C212	C	1.324730	0.723373	0.750183
C213	C	0.574174	-0.080282	0.000176
C214	C	0.824174	0.169718	0.250176
C215	C	1.074174	0.419718	0.500176
C216	C	1.324174	0.669718	0.750176
C217	C	0.526206	-0.457345	0.000158
C218	C	0.776206	-0.207345	0.250158
C219	C	1.026206	0.042655	0.500158
C220	C	1.276206	0.292655	0.750158
C221	C	0.528252	-0.255685	0.000157
C222	C	0.778252	-0.005685	0.250157
C223	C	1.028252	0.244315	0.500157
C224	C	1.278252	0.494315	0.750157
O225	O	0.491030	-0.224425	0.000115
O226	O	0.741030	0.025575	0.250115
O227	O	0.991030	0.275575	0.500115
O228	O	1.241030	0.525575	0.750115
N229	N	0.572588	-0.236566	0.000172
N230	N	0.822588	0.013434	0.250172
N231	N	1.072588	0.263434	0.500172
N232	N	1.322588	0.513434	0.750172
C233	C	0.616415	-0.267866	0.000181
C234	C	0.866415	-0.017866	0.250181
C235	C	1.116415	0.232134	0.500181
C236	C	1.366415	0.482134	0.750181
O237	O	0.654172	-0.246977	0.000185
O238	O	0.904172	0.003023	0.250185
O239	O	1.154172	0.253023	0.500185
O240	O	1.404172	0.503023	0.750185
C241	C	0.614368	-0.469525	0.000176
C242	C	0.864368	-0.219525	0.250176
C243	C	1.114368	0.030475	0.500176
C244	C	1.364368	0.280475	0.750176
C245	C	0.570030	-0.488641	0.000169
C246	C	0.820030	-0.238641	0.250169
C247	C	1.070030	0.011359	0.500169
C248	C	1.320030	0.261359	0.750169
C249	C	0.481871	-0.476461	0.000150
C250	C	0.731871	-0.226461	0.250150
C251	C	0.981871	0.023539	0.500150
C252	C	1.231871	0.273539	0.750150
C253	C	0.481360	-0.526873	0.000155
C254	C	0.731360	-0.276873	0.250155
C255	C	0.981360	-0.026873	0.500155
C256	C	1.231360	0.223127	0.750155
C257	C	0.525184	-0.558169	0.000166
C258	C	0.775184	-0.308169	0.250166
C259	C	1.025184	-0.058169	0.500166
C260	C	1.275184	0.191831	0.750166
C261	C	0.569518	-0.539053	0.000173
C262	C	0.819518	-0.289053	0.250173
C263	C	1.069518	-0.039053	0.500173
C264	C	1.319518	0.210947	0.750173
C265	C	0.658194	-0.500824	0.000180
C266	C	0.908194	-0.250824	0.250180
C267	C	1.158194	-0.000824	0.500180
C268	C	1.408194	0.249176	0.750180
C269	C	0.657679	-0.551241	0.000176
C270	C	0.907679	-0.301241	0.250176
C271	C	1.157679	-0.051241	0.500176
C272	C	1.407679	0.198759	0.750176
C273	C	0.613340	-0.570357	0.000170
C274	C	0.863340	-0.320357	0.250170
C275	C	1.113340	-0.070357	0.500170
C276	C	1.363340	0.179643	0.750170
C277	C	0.612831	-0.620761	0.000189
C278	C	0.862831	-0.370761	0.250189
C279	C	1.112831	-0.120761	0.500189
C280	C	1.362831	0.129239	0.750189
N281	N	0.568496	-0.639879	0.000175
N282	N	0.818496	-0.389879	0.250175
N283	N	1.068496	-0.139879	0.500175
N284	N	1.318496	0.110121	0.750175
C285	C	0.524672	-0.608584	0.000163
C286	C	0.774672	-0.358584	0.250163
C287	C	1.024672	-0.108584	0.500163
C288	C	1.274672	0.141416	0.750163
C289	C	0.617486	-0.161992	0.000185
C290	C	0.867486	0.088008	0.250185
C291	C	1.117486	0.338008	0.500185
C292	C	1.367486	0.588008	0.750185
C293	C	0.617998	-0.111577	0.000188
C294	C	0.867998	0.138423	0.250188
C295	C	1.117998	0.388423	0.500188
C296	C	1.367998	0.638423	0.750188
C297	C	0.529835	-0.099400	0.000163
C298	C	0.779835	0.150600	0.250163
C299	C	1.029835	0.400600	0.500163
C300	C	1.279835	0.650600	0.750163
C301	C	0.529324	-0.149815	0.000166
C302	C	0.779324	0.100185	0.250166
C303	C	1.029324	0.350185	0.500166
C304	C	1.279324	0.600185	0.750166
C305	C	0.573151	-0.181111	0.000171
C306	C	0.823151	0.068889	0.250171
C307	C	1.073151	0.318889	0.500171
C308	C	1.323151	0.568889	0.750171
C309	C	0.523602	-0.714453	0.000173
C310	C	0.773602	-0.464453	0.250173
C311	C	1.023602	-0.214453	0.500173
C312	C	1.273602	0.035547	0.750173
C313	C	0.523095	-0.764870	0.000180
C314	C	0.773095	-0.514870	0.250180
C315	C	1.023095	-0.264870	0.500180
C316	C	1.273095	-0.014870	0.750180
C317	C	0.611257	-0.777043	0.000201
C318	C	0.861257	-0.527043	0.250201
C319	C	1.111257	-0.277043	0.500201
C320	C	1.361257	-0.027043	0.750201
C321	C	0.611765	-0.726630	0.000198
C322	C	0.861765	-0.476630	0.250198
C323	C	1.111765	-0.226630	0.500198
C324	C	1.361765	0.023370	0.750198
C325	C	0.567933	-0.695336	0.000181
C326	C	0.817933	-0.445336	0.250181
C327	C	1.067933	-0.195336	0.500181
C328	C	1.317933	0.054664	0.750181
O329	O	0.650033	-0.652049	0.000223
O330	O	0.900033	-0.402049	0.250223
O331	O	1.150033	-0.152049	0.500223
O332	O	1.400033	0.097951	0.750223
O333	O	0.486920	-0.629482	0.000142
O334	O	0.736920	-0.379482	0.250142
O335	O	0.986920	-0.129482	0.500142
O336	O	1.236920	0.120518	0.750142
C337	C	0.526717	-0.406933	0.000153
C338	C	0.776717	-0.156933	0.250153
C339	C	1.026717	0.093067	0.500153
C340	C	1.276717	0.343067	0.750153
C341	C	0.571052	-0.387817	0.000161
C342	C	0.821052	-0.137817	0.250161
C343	C	1.071052	0.112183	0.500161
C344	C	1.321052	0.362183	0.750161
C345	C	0.614875	-0.419112	0.000172
C346	C	0.864875	-0.169112	0.250172
C347	C	1.114875	0.080888	0.500172
C348	C	1.364875	0.330888	0.750172
C349	C	0.571564	-0.337402	0.000163
C350	C	0.821564	-0.087402	0.250163
C351	C	1.071564	0.162598	0.500163
C352	C	1.321564	0.412598	0.750163
C353	C	0.527740	-0.306107	0.000152
C354	C	0.777740	-0.056107	0.250152
C355	C	1.027740	0.193893	0.500152
C356	C	1.277740	0.443893	0.750152
C357	C	0.483404	-0.325225	0.000138
C358	C	0.733404	-0.075225	0.250138
C359	C	0.983404	0.174775	0.500138
C360	C	1.233404	0.424775	0.750138
C361	C	0.482893	-0.375637	0.000142
C362	C	0.732893	-0.125637	0.250142
C363	C	0.982893	0.124363	0.500142
C364	C	1.232893	0.374363	0.750142
C365	C	0.659211	-0.399994	0.000186
C366	C	0.909211	-0.149994	0.250186
C367	C	1.159211	0.100006	0.500186
C368	C	1.409211	0.350006	0.750186
C369	C	0.659718	-0.349581	0.000183
C370	C	0.909718	-0.099581	0.250183
C371	C	1.159718	0.150419	0.500183
C372	C	1.409718	0.400419	0.750183
C373	C	0.615895	-0.318285	0.000172
C374	C	0.865895	-0.068285	0.250172
C375	C	1.115895	0.181715	0.500172
C376	C	1.365895	0.431715	0.750172
C377	C	0.658952	0.057570	0.000214
C378	C	0.908952	0.307570	0.250214
C379	C	1.158952	0.557570	0.500214
C380	C	1.408952	0.807570	0.750214
C381	C	0.712608	0.058112	0.000227
C382	C	0.962608	0.308112	0.250227
C383	C	1.212608	0.558112	0.500227
C384	C	1.462608	0.808112	0.750227
C385	C	0.566362	0.150180	0.000190
C386	C	0.816362	0.400180	0.250190
C387	C	1.066362	0.650180	0.500190
C388	C	1.316362	0.900180	0.750190
C389	C	0.566918	0.203834	0.000192
C390	C	0.816918	0.453834	0.250192
C391	C	1.066918	0.703834	0.500192
C392	C	1.316918	0.953834	0.750192
N393	N	0.570531	0.061770	0.179350
N394	N	0.820531	0.311770	0.429350
N395	N	1.070531	0.561770	0.679350
N396	N	1.320531	0.811770	0.929350
N397	N	0.570565	0.061778	-0.178976
N398	N	0.820565	0.311778	0.071024
N399	N	1.070565	0.561778	0.321024
N400	N	1.320565	0.811778	0.571024
C401	C	0.603649	0.028672	0.218969
C402	C	0.853649	0.278672	0.468969
C403	C	1.103649	0.528672	0.718969
C404	C	1.353649	0.778672	0.968969
C405	C	0.603652	0.028670	0.298217
C406	C	0.853652	0.278670	0.548217
C407	C	1.103652	0.528670	0.798217
C408	C	1.353652	0.778670	1.048217
C409	C	0.570542	0.061774	0.337843
C410	C	0.820542	0.311774	0.587843
C411	C	1.070542	0.561774	0.837843
C412	C	1.320542	0.811774	1.087843
C413	C	0.537418	0.094875	0.298214
C414	C	0.787418	0.344875	0.548214
C415	C	1.037418	0.594875	0.798214
C416	C	1.287418	0.844875	1.048214
C417	C	0.537413	0.094873	0.218968
C418	C	0.787413	0.344873	0.468968
C419	C	1.037413	0.594873	0.718968
C420	C	1.287413	0.844873	0.968968
N421	N	0.564071	0.104594	0.462261
N422	N	0.814071	0.354594	0.712261
N423	N	1.064071	0.604594	0.962261
N424	N	1.314071	0.854594	1.212261
N425	N	0.564079	0.104594	0.537541
N426	N	0.814079	0.354594	0.787541
N427	N	1.064079	0.604594	1.037541
N428	N	1.314079	0.854594	1.287541
C429	C	0.570554	0.061781	0.576607
C430	C	0.820554	0.311781	0.826607
C431	C	1.070554	0.561781	1.076607
C432	C	1.320554	0.811781	1.326607
N433	N	0.577031	0.018966	0.537547
N434	N	0.827031	0.268966	0.787547
N435	N	1.077031	0.518966	1.037547
N436	N	1.327031	0.768966	1.287547
N437	N	0.577026	0.018966	0.462260
N438	N	0.827026	0.268966	0.712260
N439	N	1.077026	0.518966	0.962260
N440	N	1.327026	0.768966	1.212260
C441	C	0.570543	0.061780	0.423772
C442	C	0.820543	0.311780	0.673772
C443	C	1.070543	0.561780	0.923772
C444	C	1.320543	0.811780	1.173772
C445	C	0.603677	0.028677	0.702155
C446	C	0.853677	0.278677	0.952155
C447	C	1.103677	0.528677	1.202155
C448	C	1.353677	0.778677	1.452155
C449	C	0.603676	0.028674	0.781404
C450	C	0.853676	0.278674	1.031404
C451	C	1.103676	0.528674	1.281404
C452	C	1.353676	0.778674	1.531404
C453	C	0.537445	0.094883	0.781399
C454	C	0.787445	0.344883	1.031399
C455	C	1.037445	0.594883	1.281399
C456	C	1.287445	0.844883	1.531399
C457	C	0.537443	0.094882	0.702152
C458	C	0.787443	0.344882	0.952152
C459	C	1.037443	0.594882	1.202152
C460	C	1.287443	0.844882	1.452152
C461	C	0.570561	0.061780	0.662534
C462	C	0.820561	0.311780	0.912534
C463	C	1.070561	0.561780	1.162534
C464	C	1.320561	0.811780	1.412534
H465	H	-0.050814	0.060539	-0.192951
H466	H	0.199186	0.310539	0.057049
H467	H	0.449186	0.560539	0.307049
H468	H	0.699186	0.810539	0.557049
H469	H	0.446789	-0.391196	0.000137
H470	H	0.696789	-0.141196	0.250137
H471	H	0.946789	0.108804	0.500137
H472	H	1.196789	0.358804	0.750137
H473	H	0.694299	-0.485269	0.000184
H474	H	0.944299	-0.235269	0.250184
H475	H	1.194299	0.014731	0.500184
H476	H	1.444299	0.264731	0.750184
H477	H	0.693369	-0.576720	0.000177
H478	H	0.943369	-0.326720	0.250177
H479	H	1.193369	-0.076720	0.500177
H480	H	1.443369	0.173280	0.750177
H481	H	0.630615	0.001717	0.186715
H482	H	0.880615	0.251717	0.436715
H483	H	1.130615	0.501717	0.686715
H484	H	1.380615	0.751717	0.936715
H485	H	0.486988	-0.780431	0.000179
H486	H	0.736988	-0.530431	0.250179
H487	H	0.986988	-0.280431	0.500179
H488	H	1.236988	-0.030431	0.750179
H489	H	0.630621	0.001717	0.330481
H490	H	0.880621	0.251717	0.580481
H491	H	1.130621	0.501717	0.830481
H492	H	1.380621	0.751717	1.080481
H493	H	0.510459	0.121828	0.330481
H494	H	0.760459	0.371828	0.580481
H495	H	1.010459	0.621828	0.830481
H496	H	1.260459	0.871828	1.080481
H497	H	-0.191264	0.059097	-0.124309
H498	H	0.058736	0.309097	0.125691
H499	H	0.308736	0.559097	0.375691
H500	H	0.558736	0.809097	0.625691
H501	H	0.487910	-0.688978	0.000159
H502	H	0.737910	-0.438978	0.250159
H503	H	0.987910	-0.188978	0.500159
H504	H	1.237910	0.061022	0.750159
H505	H	0.446183	-0.450985	0.000138
H506	H	0.696183	-0.200985	0.250138
H507	H	0.946183	0.049015	0.500138
H508	H	1.196183	0.299015	0.750138
H509	H	0.445255	-0.542432	0.000143
H510	H	0.695255	-0.292432	0.250143
H511	H	0.945255	-0.042432	0.500143
H512	H	1.195255	0.207568	0.750143
H513	H	-0.282701	0.058154	0.124733
H514	H	-0.032701	0.308154	0.374733
H515	H	0.217299	0.558154	0.624733
H516	H	0.467299	0.808154	0.874733
H517	H	0.100454	0.062057	0.193311
H518	H	0.350454	0.312057	0.443311
H519	H	0.600454	0.562057	0.693311
H520	H	0.850454	0.812057	0.943311
H521	H	0.423805	0.065391	0.124656
H522	H	0.673805	0.315391	0.374656
H523	H	0.923805	0.565391	0.624656
H524	H	1.173805	0.815391	0.874656
H525	H	0.510484	0.121835	0.813662
H526	H	0.760484	0.371835	1.063662
H527	H	1.010484	0.621835	1.313662
H528	H	1.260484	0.871835	1.563662
H529	H	0.040633	0.061472	-0.192962
H530	H	0.290633	0.311472	0.057038
H531	H	0.540633	0.561472	0.307038
H532	H	0.790633	0.811472	0.557038
H533	H	0.493220	-0.165376	0.000163
H534	H	0.743220	0.084624	0.250163
H535	H	0.993220	0.334624	0.500163
H536	H	1.243220	0.584624	0.750163
H537	H	0.332332	0.064465	-0.124368
H538	H	0.582332	0.314465	0.125632
H539	H	0.832332	0.564465	0.375632
H540	H	1.082332	0.814465	0.625632
H541	H	0.494152	-0.073910	0.000157
H542	H	0.744152	0.176090	0.250157
H543	H	0.994152	0.426090	0.500157
H544	H	1.244152	0.676090	0.750157
H545	H	0.694898	-0.425470	0.000195
H546	H	0.944898	-0.175470	0.250195
H547	H	1.194898	0.074530	0.500195
H548	H	1.444898	0.324530	0.750195
H549	H	0.510444	0.121826	0.186709
H550	H	0.760444	0.371826	0.436709
H551	H	1.010444	0.621826	0.686709
H552	H	1.260444	0.871826	0.936709
H553	H	0.654103	-0.096018	0.000205
H554	H	0.904103	0.153982	0.250205
H555	H	1.154103	0.403982	0.500205
H556	H	1.404103	0.653982	0.750205
H557	H	-0.050793	0.060503	0.193335
H558	H	0.199207	0.310503	0.443335
H559	H	0.449207	0.560503	0.693335
H560	H	0.699207	0.810503	0.943335
H561	H	0.630642	0.001722	0.669897
H562	H	0.880642	0.251722	0.919897
H563	H	1.130642	0.501722	1.169897
H564	H	1.380642	0.751722	1.419897
H565	H	0.630643	0.001719	0.813662
H566	H	0.880643	0.251719	1.063662
H567	H	1.130643	0.501719	1.313662
H568	H	1.380643	0.751719	1.563662
H569	H	0.647868	-0.711066	0.000214
H570	H	0.897868	-0.461066	0.250214
H571	H	1.147868	-0.211066	0.500214
H572	H	1.397868	0.038934	0.750214
H573	H	0.510478	0.121836	0.669892
H574	H	0.760478	0.371836	0.919892
H575	H	1.010478	0.621836	1.169892
H576	H	1.260478	0.871836	1.419892
H577	H	0.653177	-0.187469	0.000190
H578	H	0.903177	0.062531	0.250190
H579	H	1.153177	0.312531	0.500190
H580	H	1.403177	0.562531	0.750190
H581	H	0.447722	-0.299735	0.000133
H582	H	0.697722	-0.049735	0.250133
H583	H	0.947722	0.200265	0.500133
H584	H	1.197722	0.450265	0.750133
H585	H	-0.282716	0.058171	-0.124291
H586	H	-0.032716	0.308171	0.125709
H587	H	0.217284	0.558171	0.375709
H588	H	0.467284	0.808171	0.625709
H589	H	0.332358	0.064442	0.124669
H590	H	0.582358	0.314442	0.374669
H591	H	0.832358	0.564442	0.624669
H592	H	1.082358	0.814442	0.874669
H593	H	0.423798	0.065399	-0.124370
H594	H	0.673798	0.315399	0.125630
H595	H	0.923798	0.565399	0.375630
H596	H	1.173798	0.815399	0.625630
H597	H	0.040658	0.061438	0.193330
H598	H	0.290658	0.311438	0.443330
H599	H	0.540658	0.561438	0.693330
H600	H	0.790658	0.811438	0.943330
H601	H	-0.191235	0.059095	0.124729
H602	H	0.058765	0.309095	0.374729
H603	H	0.308765	0.559095	0.624729
H604	H	0.558765	0.809095	0.874729
H605	H	0.646937	-0.802533	0.000214
H606	H	0.896937	-0.552533	0.250214
H607	H	1.146937	-0.302533	0.500214
H608	H	1.396937	-0.052533	0.750214
H609	H	0.100421	0.062083	-0.192969
H610	H	0.350421	0.312083	0.057031
H611	H	0.600421	0.562083	0.307031
H612	H	0.850421	0.812083	0.557031
H613	H	0.191900	0.062996	0.193303
H614	H	0.441900	0.312996	0.443303
H615	H	0.691900	0.562996	0.693303
H616	H	0.941900	0.812996	0.943303
H617	H	0.191881	0.063018	-0.192970
H618	H	0.441881	0.313018	0.057030
H619	H	0.691881	0.563018	0.307030
H620	H	0.941881	0.813018	0.557030
H621	H	0.695827	-0.334022	0.000194
H622	H	0.945827	-0.084022	0.250194
H623	H	1.195827	0.165978	0.500194
H624	H	1.445827	0.415978	0.750194
