data_functionalizedCrystal
_audit_creation_method	'MofGen! by Chris Wilmer'
_symmetry_space_group_name_H-M	'P1'
_symmetry_Int_Tables_number	1
_symmetry_cell_setting	triclinic
loop_
_symmetry_equiv_pos_as_xyz
  x,y,z
_cell_length_a	23.532407
_cell_length_b	23.532407
_cell_length_c	22.610064
_cell_angle_alpha	90.000603
_cell_angle_beta	89.997161
_cell_angle_gamma	97.151322
loop_
_atom_site_label
_atom_site_type_symbol
_atom_site_fract_x
_atom_site_fract_y
_atom_site_fract_z
O1	O	0.755263	-0.069127	-0.049117
O2	O	1.255263	0.430873	0.450883
O3	O	0.589400	-0.079130	-0.049135
O4	O	1.089400	0.420870	0.450865
O5	O	0.677333	0.008803	-0.049114
O6	O	1.177333	0.508803	0.450886
O7	O	0.667330	-0.157060	-0.049137
O8	O	1.167330	0.342940	0.450863
O9	O	0.677318	0.008790	0.049255
O10	O	1.177318	0.508790	0.549255
O11	O	0.589385	-0.079143	0.049234
O12	O	1.089385	0.420857	0.549234
O13	O	0.755248	-0.069140	0.049252
O14	O	1.255248	0.430860	0.549252
Zn15	Zn	0.672314	-0.074144	0.064862
Zn16	Zn	1.172314	0.425856	0.564862
Zn17	Zn	0.672334	-0.074127	-0.064744
Zn18	Zn	1.172334	0.425873	0.435256
O19	O	0.667315	-0.157073	0.049232
O20	O	1.167315	0.342927	0.549232
C21	C	0.568176	-0.078882	0.000048
C22	C	1.068176	0.421118	0.500048
C23	C	0.504959	-0.078116	0.000041
C24	C	1.004959	0.421884	0.500041
C25	C	0.105856	-0.125350	0.000061
C26	C	0.605856	0.374650	0.500061
C27	C	0.046456	-0.124638	0.000065
C28	C	0.546456	0.375362	0.500065
O29	O	0.009711	-0.168424	0.000081
O30	O	0.509711	0.331576	0.500081
N31	N	0.023830	-0.072362	0.000071
N32	N	0.523830	0.427638	0.500071
C33	C	0.060607	-0.020794	0.000080
C34	C	0.560607	0.479206	0.500080
O35	O	0.035908	0.023737	0.000086
O36	O	0.535908	0.523737	0.500086
C37	C	0.120006	-0.021506	0.000080
C38	C	0.620006	0.478494	0.500080
C39	C	0.142629	-0.073785	0.000068
C40	C	0.642629	0.426215	0.500068
C41	C	0.128479	-0.177625	0.000050
C42	C	0.628479	0.322375	0.500050
C43	C	0.187876	-0.178336	0.000045
C44	C	0.687876	0.321664	0.500045
C45	C	0.224649	-0.126772	0.000052
C46	C	0.724649	0.373228	0.500052
C47	C	0.202025	-0.074497	0.000063
C48	C	0.702025	0.425503	0.500063
C49	C	0.156783	0.030062	0.000093
C50	C	0.656783	0.530062	0.500093
C51	C	0.216185	0.029345	0.000094
C52	C	0.716185	0.529345	0.500094
C53	C	0.238808	-0.022934	0.000082
C54	C	0.738808	0.477066	0.500082
C55	C	0.298194	-0.023643	0.000065
C56	C	0.798194	0.476357	0.500065
N57	N	0.320820	-0.075920	0.000059
N58	N	0.820820	0.424080	0.500059
C59	C	0.284048	-0.127484	0.000052
C60	C	0.784048	0.372516	0.500052
C61	C	-0.064135	-0.019302	0.000080
C62	C	0.435865	0.480698	0.500080
C63	C	-0.123533	-0.018589	0.000075
C64	C	0.376467	0.481411	0.500075
C65	C	-0.137680	-0.122434	0.000061
C66	C	0.362320	0.377566	0.500061
C67	C	-0.078281	-0.123146	0.000062
C68	C	0.421719	0.376854	0.500062
C69	C	-0.041509	-0.071578	0.000074
C70	C	0.458491	0.428422	0.500074
C71	C	0.408784	-0.128974	0.000042
C72	C	0.908784	0.371026	0.500042
C73	C	0.468186	-0.129680	0.000034
C74	C	0.968186	0.370320	0.500034
C75	C	0.482329	-0.025836	0.000051
C76	C	0.982329	0.474164	0.500051
C77	C	0.422932	-0.025129	0.000055
C78	C	0.922932	0.474871	0.500055
C79	C	0.386160	-0.076702	0.000052
C80	C	0.886160	0.423298	0.500052
O81	O	0.334974	0.020119	0.000052
O82	O	0.834974	0.520119	0.500052
O83	O	0.308755	-0.172007	0.000054
O84	O	0.808755	0.327993	0.500054
C85	C	0.677071	0.030013	0.000072
C86	C	1.177071	0.530013	0.500072
C87	C	0.676305	0.093230	0.000076
C88	C	1.176305	0.593230	0.500076
C89	C	0.776472	-0.069388	0.000069
C90	C	1.276472	0.430612	0.500069
C91	C	0.839689	-0.070154	0.000071
C92	C	1.339689	0.429846	0.500071
C93	C	0.667577	-0.178283	0.000045
C94	C	1.167577	0.321717	0.500045
C95	C	0.668343	-0.241500	0.000036
C96	C	1.168343	0.258500	0.500036
N97	N	0.672304	-0.074155	0.153314
N98	N	1.172304	0.425845	0.653314
C99	C	0.723539	0.492333	0.000049
C100	C	1.223539	0.992333	0.500049
C101	C	0.722827	0.551733	0.000044
C102	C	1.222827	1.051733	0.500044
O103	O	0.766613	0.588478	0.000027
O104	O	1.266613	1.088478	0.500027
N105	N	0.670551	0.574359	0.000039
N106	N	1.170551	1.074359	0.500039
C107	C	0.618983	0.537582	0.000032
C108	C	1.118983	1.037582	0.500032
O109	O	0.574452	0.562281	0.000027
O110	O	1.074452	1.062281	0.500027
C111	C	0.619695	0.478182	0.000033
C112	C	1.119695	0.978182	0.500033
C113	C	0.671974	0.455560	0.000044
C114	C	1.171974	0.955560	0.500044
C115	C	0.775814	0.469710	0.000060
C116	C	1.275814	0.969710	0.500060
C117	C	0.776525	0.410313	0.000065
C118	C	1.276525	0.910313	0.500065
C119	C	0.724961	0.373540	0.000060
C120	C	1.224961	0.873540	0.500060
C121	C	0.672685	0.396164	0.000050
C122	C	1.172685	0.896164	0.500050
C123	C	0.568127	0.441406	0.000022
C124	C	1.068127	0.941406	0.500022
C125	C	0.568844	0.382004	0.000021
C126	C	1.068844	0.882004	0.500021
C127	C	0.621123	0.359381	0.000033
C128	C	1.121123	0.859381	0.500033
C129	C	0.621832	0.299995	0.000050
C130	C	1.121832	0.799995	0.500050
N131	N	0.674109	0.277368	0.000056
N132	N	1.174109	0.777368	0.500056
C133	C	0.725673	0.314141	0.000061
C134	C	1.225673	0.814141	0.500061
C135	C	0.617491	0.662324	0.000031
C136	C	1.117491	1.162324	0.500031
C137	C	0.616778	0.721722	0.000034
C138	C	1.116778	1.221722	0.500034
C139	C	0.720623	0.735869	0.000045
C140	C	1.220623	1.235869	0.500045
C141	C	0.721335	0.676470	0.000046
C142	C	1.221335	1.176470	0.500046
C143	C	0.669767	0.639698	0.000036
C144	C	1.169767	1.139698	0.500036
C145	C	0.727163	0.189405	0.000073
C146	C	1.227163	0.689405	0.500073
C147	C	0.727869	0.130003	0.000081
C148	C	1.227869	0.630003	0.500081
C149	C	0.624025	0.115860	0.000067
C150	C	1.124025	0.615860	0.500067
C151	C	0.623318	0.175257	0.000062
C152	C	1.123318	0.675257	0.500062
C153	C	0.674891	0.212029	0.000063
C154	C	1.174891	0.712029	0.500063
O155	O	0.578070	0.263215	0.000065
O156	O	1.078070	0.763215	0.500065
O157	O	0.770196	0.289433	0.000058
O158	O	1.270196	0.789433	0.500058
N159	N	0.672349	-0.074111	-0.153196
N160	N	1.172349	0.425889	0.346804
C161	C	0.711273	-0.035196	0.561965
C162	C	1.211273	0.464804	1.061965
C163	C	0.711276	-0.035192	0.623884
C164	C	1.211276	0.464808	1.123884
O165	O	0.744384	-0.002076	0.655911
O166	O	1.244384	0.497924	1.155911
N167	N	0.672334	-0.074115	0.654851
N168	N	1.172334	0.425885	1.154851
C169	C	0.633383	-0.113041	0.623895
C170	C	1.133383	0.386959	1.123895
O171	O	0.600259	-0.146147	0.655920
O172	O	1.100259	0.353853	1.155920
C173	C	0.633377	-0.113042	0.561976
C174	C	1.133377	0.386958	1.061976
C175	C	0.672326	-0.074120	0.531013
C176	C	1.172326	0.425880	1.031013
C177	C	0.750218	0.003724	0.531001
C178	C	1.250218	0.503724	1.031001
C179	C	0.750215	0.003719	0.469085
C180	C	1.250215	0.503719	0.969085
C181	C	0.711268	-0.035206	0.438133
C182	C	1.211268	0.464794	0.938133
C183	C	0.672323	-0.074125	0.469097
C184	C	1.172323	0.425875	0.969097
C185	C	0.594424	-0.151965	0.531021
C186	C	1.094424	0.348035	1.031021
C187	C	0.594422	-0.151962	0.469098
C188	C	1.094422	0.348038	0.969098
C189	C	0.633370	-0.113040	0.438134
C190	C	1.133370	0.386960	0.938134
C191	C	0.633374	-0.113054	0.376229
C192	C	1.133374	0.386946	0.876229
N193	N	0.672316	-0.074131	0.345262
N194	N	1.172316	0.425869	0.845262
C195	C	0.711263	-0.035207	0.376214
C196	C	1.211263	0.464793	0.876214
C197	C	0.633396	-0.113035	0.753928
C198	C	1.133396	0.386965	1.253928
C199	C	0.633403	-0.113037	0.815846
C200	C	1.133403	0.386963	1.315846
C201	C	0.711296	-0.035187	0.815831
C202	C	1.211296	0.464813	1.315831
C203	C	0.711291	-0.035188	0.753913
C204	C	1.211291	0.464812	1.253913
C205	C	0.672338	-0.074112	0.722962
C206	C	1.172338	0.425888	1.222962
C207	C	0.711255	-0.035220	0.246187
C208	C	1.211255	0.464780	0.746187
C209	C	0.711251	-0.035230	0.184266
C210	C	1.211251	0.464770	0.684266
C211	C	0.633357	-0.113078	0.184286
C212	C	1.133357	0.386922	0.684286
C213	C	0.633363	-0.113071	0.246202
C214	C	1.133363	0.386929	0.746202
C215	C	0.672314	-0.074137	0.277151
C216	C	1.172314	0.425863	0.777151
O217	O	0.600281	-0.146152	0.344163
O218	O	1.100281	0.353848	0.844163
O219	O	0.744376	-0.002101	0.344182
O220	O	1.244376	0.497899	0.844182
H221	H	0.138375	0.072634	0.000103
H222	H	0.638375	0.572634	0.500103
H223	H	0.601653	-0.144770	0.271413
H224	H	1.101653	0.355230	0.771413
C225	C	0.724072	0.042370	0.315802
C226	C	1.224072	0.542370	0.815802
C227	C	0.754072	0.007574	0.280201
C228	C	1.254072	0.507574	0.780201
H229	H	0.750507	0.068789	0.336798
H230	H	1.250507	0.568789	0.836798
H231	H	0.700887	0.019194	0.343108
H232	H	1.200887	0.519194	0.843108
H233	H	0.700483	0.062732	0.291642
H234	H	1.200483	0.562732	0.791642
H235	H	0.777657	-0.012791	0.304362
H236	H	1.277657	0.487209	0.804362
H237	H	0.777267	0.030752	0.252893
H238	H	1.277267	0.530752	0.752893
H239	H	-0.167632	-0.164421	0.000059
H240	H	0.332368	0.335579	0.500059
C241	C	0.827214	0.080665	0.524751
C242	C	1.327214	0.580665	1.024751
C243	C	0.793037	0.046511	0.565016
C244	C	1.293037	0.546511	1.065016
H245	H	0.853655	0.107077	0.545748
H246	H	1.353655	0.607077	1.045748
H247	H	0.803621	0.101030	0.500608
H248	H	1.303621	0.601030	1.000608
H249	H	0.847551	0.057049	0.500594
H250	H	1.347551	0.557049	1.000594
H251	H	0.772696	0.070127	0.589170
H252	H	1.272696	0.570127	1.089170
H253	H	0.816632	0.026144	0.589169
H254	H	1.316632	0.526144	1.089169
H255	H	0.562709	-0.183658	0.556223
H256	H	1.062709	0.316342	1.056223
C257	C	0.827641	0.016700	0.399234
C258	C	1.327641	0.516700	0.899234
C259	C	0.792855	0.046594	0.434957
C260	C	1.292855	0.546594	0.934957
H261	H	0.853916	0.043199	0.378141
H262	H	1.353916	0.543199	0.878141
H263	H	0.804439	-0.006562	0.372014
H264	H	1.304439	0.493438	0.872014
H265	H	0.848166	-0.006803	0.423323
H266	H	1.348166	0.493197	0.923323
H267	H	0.772326	0.070094	0.410867
H268	H	1.272326	0.570094	0.910867
H269	H	0.816059	0.069866	0.462180
H270	H	1.316059	0.569866	0.962180
C271	C	0.782382	0.617887	0.050620
C272	C	1.282382	1.117887	0.550620
C273	C	0.778803	0.651608	0.000053
C274	C	1.278803	1.151608	0.500053
H275	H	0.817863	0.602544	0.050624
H276	H	1.317863	1.102544	0.550624
H277	H	0.751781	0.587483	0.050611
H278	H	1.251781	1.087483	0.550611
H279	H	0.779936	0.640769	0.084921
H280	H	1.279936	1.140769	0.584921
H281	H	0.781244	0.628725	-0.034247
H282	H	1.281244	1.128725	0.465753
H283	H	0.809411	0.682016	0.000057
H284	H	1.309411	1.182016	0.500057
H285	H	0.512280	0.016146	0.000054
H286	H	1.012280	0.516146	0.500054
H287	H	-0.141947	0.023982	0.000076
H288	H	0.358053	0.523982	0.500076
C289	C	0.786607	0.264408	0.050643
C290	C	1.286607	0.764408	0.550643
C291	C	0.783852	0.229819	0.000077
C292	C	1.283852	0.729819	0.500077
H293	H	0.821603	0.289360	0.050645
H294	H	1.321603	0.789360	0.550645
H295	H	0.784717	0.240943	0.084941
H296	H	1.284717	0.740943	0.584941
H297	H	0.755373	0.286386	0.050628
H298	H	1.255373	0.786386	0.550628
H299	H	0.815084	0.207837	0.000094
H300	H	1.315084	0.707837	0.500094
H301	H	0.785747	0.253287	-0.034229
H302	H	1.285747	0.753287	0.465771
H303	H	-0.059867	-0.165717	0.000055
H304	H	0.440133	0.334283	0.500055
H305	H	0.770443	0.111587	0.000092
H306	H	1.270443	0.611587	0.500092
C307	C	0.364344	0.035910	0.050637
C308	C	0.864344	0.535910	0.550637
C309	C	0.398061	0.032337	0.000064
C310	C	0.898061	0.532337	0.500064
H311	H	0.348992	0.071387	0.050644
H312	H	0.848992	0.571387	0.550644
H313	H	0.387226	0.033470	0.084930
H314	H	0.887226	0.533470	0.584930
H315	H	0.333941	0.005301	0.050630
H316	H	0.833941	0.505301	0.550630
H317	H	0.428467	0.062944	0.000073
H318	H	0.928467	0.562944	0.500073
H319	H	0.375178	0.034783	-0.034237
H320	H	0.875178	0.534783	0.465763
C321	C	0.780068	0.810875	-0.050531
C322	C	1.280068	1.310875	0.449469
C323	C	0.777307	0.776296	0.000042
C324	C	1.277307	1.276296	0.500042
H325	H	0.815062	0.835830	-0.050534
H326	H	1.315062	1.335830	0.449466
H327	H	0.748834	0.832845	-0.050529
H328	H	1.248834	1.332845	0.449471
H329	H	0.778191	0.787398	-0.084827
H330	H	1.278191	1.287398	0.415173
H331	H	0.779180	0.799773	0.034339
H332	H	1.279180	1.299773	0.534339
H333	H	0.808549	0.754324	0.000045
H334	H	1.308549	1.254324	0.500045
H335	H	0.601648	-0.144772	0.159075
H336	H	1.101648	0.355228	0.659075
C337	C	0.514206	0.701757	0.000022
C338	C	1.014206	1.201757	0.500022
C339	C	0.559311	0.746585	0.000027
C340	C	1.059311	1.246585	0.500027
H341	H	0.478727	0.717106	0.000011
H342	H	0.978727	1.217106	0.500011
H343	H	0.516640	0.678888	0.034327
H344	H	1.016640	1.178888	0.534327
H345	H	0.516657	0.678881	-0.034281
H346	H	1.016657	1.178881	0.465719
H347	H	0.556863	0.769459	0.034332
H348	H	1.056863	1.269459	0.534332
H349	H	0.556876	0.769463	-0.034281
H350	H	1.056876	1.269463	0.465719
H351	H	0.582043	0.085909	0.000065
H352	H	1.082043	0.585909	0.500065
H353	H	-0.034198	0.022693	0.000084
H354	H	0.465802	0.522693	0.500084
H355	H	0.486602	-0.172255	0.000024
H356	H	0.986602	0.327745	0.500024
H357	H	0.742969	-0.003535	0.159057
H358	H	1.242969	0.496465	0.659057
H359	H	0.743008	-0.003492	0.841044
H360	H	1.243008	0.496508	1.341044
H361	H	0.246123	0.071339	0.000104
H362	H	0.746123	0.571339	0.500104
H363	H	0.819097	0.391900	0.000072
H364	H	1.319097	0.891900	0.500072
H365	H	0.580748	0.193677	0.000069
H366	H	1.080748	0.693677	0.500069
C367	C	0.878527	0.477711	0.000081
C368	C	1.378527	0.977711	0.500081
C369	C	0.832500	0.510125	0.000070
C370	C	1.332500	1.010125	0.500070
H371	H	0.913525	0.502660	0.000095
H372	H	1.413525	1.002660	0.500095
H373	H	0.876649	0.454253	-0.034222
H374	H	1.376649	0.954253	0.465778
H375	H	0.876626	0.454244	0.034385
H376	H	1.376626	0.954244	0.534385
H377	H	0.834399	0.533589	-0.034236
H378	H	1.334399	1.033589	0.465764
H379	H	0.834379	0.533592	0.034377
H380	H	1.334379	1.033592	0.534377
C381	C	0.788282	0.041762	0.760132
C382	C	1.288282	0.541762	1.260132
C383	C	0.754099	0.007600	0.719881
C384	C	1.254099	0.507600	1.219881
H385	H	0.814708	0.068182	0.739123
H386	H	1.314708	0.568182	1.239123
H387	H	0.808632	0.018157	0.784276
H388	H	1.308632	0.518157	1.284276
H389	H	0.764688	0.062124	0.784289
H390	H	1.264688	0.562124	1.284289
H391	H	0.777693	-0.012765	0.695726
H392	H	1.277693	0.487235	1.195726
H393	H	0.733748	0.031209	0.695727
H394	H	1.233748	0.531209	1.195727
C395	C	0.507088	0.499979	-0.050570
C396	C	1.007088	0.999979	0.449430
C397	C	0.510658	0.466262	0.000002
C398	C	1.010658	0.966262	0.500002
H399	H	0.471608	0.515324	-0.050580
H400	H	0.971608	1.015324	0.449420
H401	H	0.509539	0.477098	-0.084863
H402	H	1.009539	0.977098	0.415137
H403	H	0.537693	0.530386	-0.050557
H404	H	1.037693	1.030386	0.449443
H405	H	0.480056	0.435852	-0.000013
H406	H	0.980056	0.935852	0.499987
H407	H	0.508202	0.489143	0.034304
H408	H	1.008202	0.989143	0.534304
C409	C	0.555807	-0.125809	0.684312
C410	C	1.055807	0.374191	1.184312
C411	C	0.590582	-0.155831	0.719910
C412	C	1.090582	0.344169	1.219910
H413	H	0.529375	-0.152230	0.663316
H414	H	1.029375	0.347770	1.163316
H415	H	0.578995	-0.102636	0.657007
H416	H	1.078995	0.397364	1.157007
H417	H	0.535461	-0.102206	0.708474
H418	H	1.035461	0.397794	1.208474
H419	H	0.610932	-0.179431	0.695747
H420	H	1.110932	0.320569	1.195747
H421	H	0.567391	-0.179014	0.747218
H422	H	1.067391	0.320986	1.247218
C423	C	0.517426	-0.228913	0.475337
C424	C	1.017426	0.271087	0.975337
C425	C	0.551605	-0.194753	0.435078
C426	C	1.051605	0.305247	0.935078
H427	H	0.490997	-0.255332	0.454334
H428	H	0.990997	0.244668	0.954334
H429	H	0.497080	-0.205306	0.499485
H430	H	0.997080	0.294694	0.999485
H431	H	0.541022	-0.249274	0.499488
H432	H	1.041022	0.250726	0.999488
H433	H	0.528009	-0.174388	0.410929
H434	H	1.028009	0.325612	0.910929
H435	H	0.571953	-0.218363	0.410919
H436	H	1.071953	0.281637	0.910919
H437	H	0.575496	0.632386	0.000028
H438	H	1.075496	1.132386	0.500028
H439	H	0.601694	-0.144737	0.841052
H440	H	1.101694	0.355263	1.341052
C441	C	0.480557	0.351659	-0.050561
C442	C	0.980557	0.851659	0.449439
C443	C	0.512156	0.341584	0.000012
C444	C	1.012156	0.841584	0.500012
H445	H	0.445560	0.326709	-0.050563
H446	H	0.945560	0.826709	0.449437
H447	H	0.502014	0.344825	-0.084854
H448	H	1.002014	0.844825	0.415146
H449	H	0.472659	0.390276	-0.050559
H450	H	0.972659	0.890276	0.449441
H451	H	0.520058	0.302969	0.000008
H452	H	1.020058	0.802969	0.500008
H453	H	0.490695	0.348414	0.034313
H454	H	0.990695	0.848414	0.534313
C455	C	0.333785	-0.188417	-0.050533
C456	C	0.833785	0.311583	0.449467
C457	C	0.368369	-0.185663	0.000034
C458	C	0.868369	0.314337	0.500034
H459	H	0.308833	-0.223413	-0.050538
H460	H	0.808833	0.276587	0.449462
H461	H	0.357253	-0.186528	-0.084830
H462	H	0.857253	0.313472	0.415170
H463	H	0.311807	-0.157183	-0.050518
H464	H	0.811807	0.342817	0.449482
H465	H	0.390351	-0.216895	0.000017
H466	H	0.890351	0.283105	0.500017
H467	H	0.344898	-0.187558	0.034340
H468	H	0.844898	0.312442	0.534340
C469	C	0.194078	-0.267065	-0.050533
C470	C	0.694078	0.232935	0.449467
C471	C	0.212729	-0.235808	0.000037
C472	C	0.712729	0.264192	0.500037
H473	H	0.209414	-0.302551	-0.050535
H474	H	0.709414	0.197449	0.449465
H475	H	0.206731	-0.245849	-0.084828
H476	H	0.706731	0.254151	0.415172
H477	H	0.153438	-0.274002	-0.050527
H478	H	0.653438	0.225998	0.449473
H479	H	0.253369	-0.228868	0.000028
H480	H	0.753369	0.271132	0.500028
H481	H	0.200079	-0.257029	0.034340
H482	H	0.700079	0.242971	0.534340
C483	C	0.053485	-0.237066	-0.050533
C484	C	0.553485	0.262934	0.449467
C485	C	0.088064	-0.234311	0.000038
C486	C	0.588064	0.265689	0.500038
H487	H	0.028535	-0.272063	-0.050541
H488	H	0.528535	0.227937	0.449459
H489	H	0.076957	-0.235174	-0.084827
H490	H	0.576957	0.264826	0.415173
H491	H	0.031504	-0.205834	-0.050520
H492	H	0.531504	0.294166	0.449480
H493	H	0.110047	-0.265541	0.000022
H494	H	0.610047	0.234459	0.500022
H495	H	0.064589	-0.236209	0.034341
H496	H	0.564589	0.263791	0.534341
