data_functionalizedCrystal
_audit_creation_method	'MofGen! by Chris Wilmer'
_symmetry_space_group_name_H-M	'P1'
_symmetry_Int_Tables_number	1
_symmetry_cell_setting	triclinic
loop_
_symmetry_equiv_pos_as_xyz
  x,y,z
_cell_length_a	12.645330
_cell_length_b	13.897449
_cell_length_c	13.897441
_cell_angle_alpha	89.981404
_cell_angle_beta	89.973671
_cell_angle_gamma	90.018972
loop_
_atom_site_label
_atom_site_type_symbol
_atom_site_fract_x
_atom_site_fract_y
_atom_site_fract_z
Zn1	Zn	-0.421980	1.474682	-0.545403
Zn2	Zn	-0.088646	1.808016	-0.212070
Zn3	Zn	0.244687	2.141349	0.121263
Zn4	Zn	-0.599272	1.474582	-0.384114
Zn5	Zn	-0.265939	1.807916	-0.050781
Zn6	Zn	0.067395	2.141249	0.282553
Zn7	Zn	-0.422027	1.313377	-0.384122
Zn8	Zn	-0.088694	1.646711	-0.050788
Zn9	Zn	0.244640	1.980044	0.282545
Zn10	Zn	-0.599205	1.313353	-0.545367
Zn11	Zn	-0.265872	1.646686	-0.212033
Zn12	Zn	0.067461	1.980020	0.121300
O13	O	-0.510621	1.393999	-0.464751
O14	O	-0.177288	1.727332	-0.131418
O15	O	0.156046	2.060665	0.201915
O16	O	-0.445506	1.609651	-0.524020
O17	O	-0.112172	1.942984	-0.190687
O18	O	0.221161	2.276317	0.142647
O19	O	-0.575808	1.453166	-0.249133
O20	O	-0.242474	1.786500	0.084200
O21	O	0.090859	2.119833	0.417533
O22	O	-0.273673	1.334827	-0.405535
O23	O	0.059660	1.668160	-0.072201
O24	O	0.392993	2.001494	0.261132
O25	O	-0.575762	1.609577	-0.405521
O26	O	-0.242428	1.942910	-0.072188
O27	O	0.090905	2.276244	0.261145
O28	O	-0.273639	1.453337	-0.524028
O29	O	0.059695	1.786670	-0.190694
O30	O	0.393028	2.120004	0.142639
O31	O	-0.445587	1.334730	-0.249139
O32	O	-0.112253	1.668063	0.084194
O33	O	0.221080	2.001397	0.417528
O34	O	-0.445522	1.178393	-0.405499
O35	O	-0.112189	1.511726	-0.072166
O36	O	0.221145	1.845059	0.261168
O37	O	-0.575648	1.334785	-0.680353
O38	O	-0.242315	1.668119	-0.347020
O39	O	0.091018	2.001452	-0.013686
O40	O	-0.575694	1.178375	-0.523965
O41	O	-0.242361	1.511708	-0.190632
O42	O	0.090972	1.845041	0.142702
O43	O	-0.445441	1.453313	-0.680380
O44	O	-0.112108	1.786647	-0.347047
O45	O	0.221225	2.119980	-0.013713
O46	O	-0.747610	1.453143	-0.405486
O47	O	-0.414277	1.786476	-0.072153
O48	O	-0.080944	2.119810	0.261181
O49	O	-0.747561	1.334689	-0.523957
O50	O	-0.414228	1.668022	-0.190624
O51	O	-0.080895	2.001355	0.142709
C52	C	-0.510607	1.143384	-0.464729
C53	C	-0.177274	1.476718	-0.131396
C54	C	0.156060	1.810051	0.201937
C55	C	-0.510626	1.036171	-0.464743
C56	C	-0.177293	1.369504	-0.131410
C57	C	0.156040	1.702837	0.201924
C58	C	-0.786051	1.393928	-0.464738
C59	C	-0.452717	1.727262	-0.131405
C60	C	-0.119384	2.060595	0.201929
C61	C	-0.903881	1.393987	-0.464764
C62	C	-0.570547	1.727320	-0.131431
C63	C	-0.237214	2.060653	0.201902
C64	C	-0.510630	0.839875	-0.464768
C65	C	-0.177297	1.173209	-0.131435
C66	C	0.156037	1.506542	0.201899
C67	C	-0.510625	0.949108	-0.464751
C68	C	-0.177291	1.282441	-0.131418
C69	C	0.156042	1.615775	0.201915
C70	C	-1.071458	1.319774	-0.539525
C71	C	-0.738125	1.653108	-0.206191
C72	C	-0.404791	1.986441	0.127142
C73	C	-0.948899	1.319395	-0.539284
C74	C	-0.615565	1.652728	-0.205951
C75	C	-0.282232	1.986061	0.127382
C76	C	-0.948478	1.366471	-0.363109
C77	C	-0.615145	1.699804	-0.029775
C78	C	-0.281812	2.033138	0.303558
C79	C	-1.071077	1.366018	-0.363563
C80	C	-0.737743	1.699351	-0.030229
C81	C	-0.404410	2.032685	0.303104
C82	C	-1.070967	1.496168	-0.490835
C83	C	-0.737633	1.829502	-0.157502
C84	C	-0.404300	2.162835	0.175831
C85	C	-0.948360	1.495542	-0.493058
C86	C	-0.615027	1.828875	-0.159725
C87	C	-0.281693	2.162209	0.173609
C88	C	-0.234116	1.394096	-0.464786
C89	C	0.099218	1.727429	-0.131453
C90	C	0.432551	2.060762	0.201881
C91	C	-0.116286	1.394137	-0.464801
C92	C	0.217048	1.727470	-0.131467
C93	C	0.550381	2.060804	0.201866
C94	C	-0.510532	1.394058	-0.716344
C95	C	-0.177199	1.727391	-0.383011
C96	C	0.156135	2.060724	-0.049678
C97	C	-0.510494	1.394083	-0.823558
C98	C	-0.177161	1.727416	-0.490225
C99	C	0.156173	2.060750	-0.156892
C100	C	-0.510636	1.645592	-0.464774
C101	C	-0.177303	1.978925	-0.131441
C102	C	0.156031	2.312258	0.201893
C103	C	-0.510642	1.752806	-0.464784
C104	C	-0.177309	2.086139	-0.131450
C105	C	0.156024	2.419472	0.201883
C106	C	-0.510464	1.394103	-0.910628
C107	C	-0.177131	1.727436	-0.577295
C108	C	0.156203	2.060769	-0.243962
C109	C	-0.510416	1.394130	-1.019861
C110	C	-0.177083	1.727464	-0.686528
C111	C	0.156250	2.060797	-0.353194
C112	C	-0.510633	1.393995	-0.214137
C113	C	-0.177300	1.727329	0.119196
C114	C	0.156034	2.060662	0.452530
C115	C	-0.510372	1.394157	-0.106924
C116	C	-0.177039	1.727491	0.226410
C117	C	0.156294	2.060824	0.559743
H118	H	-0.918742	1.336610	-0.614661
H119	H	-0.585409	1.669943	-0.281328
H120	H	-0.252075	2.003276	0.052005
F121	F	-0.910369	1.435019	-0.288346
F122	F	-0.577036	1.768353	0.044987
F123	F	-0.243703	2.101686	0.378321
H124	H	-0.917870	1.292663	-0.340655
H125	H	-0.584536	1.625996	-0.007322
H126	H	-0.251203	1.959330	0.326011
H127	H	-0.919207	1.516293	-0.567871
H128	H	-0.585873	1.849626	-0.234538
H129	H	-0.252540	2.182959	0.098796
H130	H	-0.917709	1.553863	-0.442596
H131	H	-0.584376	1.887197	-0.109263
H132	H	-0.251043	2.220530	0.224070
F133	F	-1.108873	1.568587	-0.419711
F134	F	-0.775539	1.901920	-0.086378
F135	F	-0.442206	2.235254	0.246956
F136	F	-1.111277	1.528978	-0.586078
F137	F	-0.777944	1.862311	-0.252745
F138	F	-0.444611	2.195644	0.080589
H139	H	-1.100867	1.336831	-0.615149
H140	H	-0.767534	1.670164	-0.281816
H141	H	-0.434201	2.003498	0.051518
H142	H	-0.919666	1.243753	-0.522036
H143	H	-0.586333	1.577087	-0.188703
H144	H	-0.253000	1.910420	0.144630
F145	F	-1.111869	1.221525	-0.517285
F146	F	-0.778535	1.554859	-0.183952
F147	F	-0.445202	1.888192	0.149381
F148	F	-1.108585	1.268530	-0.334736
F149	F	-0.775252	1.601863	-0.001402
F150	F	-0.441918	1.935197	0.331931
F151	F	-1.109845	1.433732	-0.288305
F152	F	-0.776511	1.767065	0.045029
F153	F	-0.443178	2.100399	0.378362
