data_functionalizedCrystal
_audit_creation_method	'MofGen! by Chris Wilmer'
_symmetry_space_group_name_H-M	'P1'
_symmetry_Int_Tables_number	1
_symmetry_cell_setting	triclinic
loop_
_symmetry_equiv_pos_as_xyz
  x,y,z
_cell_length_a	18.215407
_cell_length_b	14.909383
_cell_length_c	18.215399
_cell_angle_alpha	93.273811
_cell_angle_beta	89.982632
_cell_angle_gamma	86.723416
loop_
_atom_site_label
_atom_site_type_symbol
_atom_site_fract_x
_atom_site_fract_y
_atom_site_fract_z
Zn1	Zn	1.141995	-0.359196	-0.433005
Zn2	Zn	1.475329	-0.025863	-0.099672
Zn3	Zn	1.808662	0.307471	0.233661
Zn4	Zn	1.149011	-0.510051	-0.317053
Zn5	Zn	1.482345	-0.176717	0.016281
Zn6	Zn	1.815678	0.156616	0.349614
Zn7	Zn	1.018929	-0.359218	-0.309959
Zn8	Zn	1.352262	-0.025884	0.023374
Zn9	Zn	1.685596	0.307449	0.356708
Zn10	Zn	1.025998	-0.509993	-0.440080
Zn11	Zn	1.359332	-0.176659	-0.106747
Zn12	Zn	1.692665	0.156674	0.226587
O13	O	1.083983	-0.434614	-0.375024
O14	O	1.417317	-0.101281	-0.041691
O15	O	1.750650	0.232052	0.291642
O16	O	1.245911	-0.379223	-0.417632
O17	O	1.579244	-0.045889	-0.084299
O18	O	1.912578	0.287444	0.249035
O19	O	1.131733	-0.490076	-0.213129
O20	O	1.465066	-0.156742	0.120204
O21	O	1.798400	0.176591	0.453538
O22	O	1.029359	-0.232982	-0.320352
O23	O	1.362692	0.100351	0.012981
O24	O	1.696026	0.433685	0.346315
O25	O	1.251065	-0.490055	-0.332442
O26	O	1.584399	-0.156721	0.000891
O27	O	1.917732	0.176612	0.334225
O28	O	1.119775	-0.232966	-0.410754
O29	O	1.453109	0.100367	-0.077420
O30	O	1.786442	0.433701	0.255913
O31	O	1.036162	-0.379259	-0.207917
O32	O	1.369495	-0.045926	0.125416
O33	O	1.702829	0.287407	0.458749
O34	O	0.916882	-0.379203	-0.327212
O35	O	1.250215	-0.045870	0.006121
O36	O	1.583548	0.287464	0.339455
O37	O	1.041408	-0.489956	-0.542124
O38	O	1.374742	-0.156622	-0.208791
O39	O	1.708075	0.176711	0.124542
O40	O	0.922076	-0.489977	-0.422811
O41	O	1.255409	-0.156643	-0.089478
O42	O	1.588742	0.176690	0.243855
O43	O	1.126631	-0.379166	-0.536927
O44	O	1.459964	-0.045833	-0.203593
O45	O	1.793297	0.287500	0.129740
O46	O	1.138588	-0.636276	-0.339302
O47	O	1.471921	-0.302943	-0.005969
O48	O	1.805255	0.030391	0.327365
O49	O	1.048211	-0.636233	-0.429690
O50	O	1.381545	-0.302900	-0.096356
O51	O	1.714878	0.030434	0.236977
C52	C	0.892776	-0.434587	-0.375010
C53	C	1.226109	-0.101253	-0.041677
C54	C	1.559443	0.232080	0.291657
C55	C	0.810977	-0.434596	-0.375023
C56	C	1.144311	-0.101263	-0.041689
C57	C	1.477644	0.232070	0.291644
C58	C	0.620104	-0.377005	-0.419461
C59	C	0.953437	-0.043672	-0.086128
C60	C	1.286771	0.289662	0.247206
C61	C	0.543246	-0.377013	-0.419464
C62	C	0.876579	-0.043679	-0.086130
C63	C	1.209912	0.289654	0.247203
C64	C	0.548616	-0.492249	-0.330602
C65	C	0.881949	-0.158916	0.002731
C66	C	1.215283	0.174418	0.336065
C67	C	0.625473	-0.492236	-0.330596
C68	C	0.958806	-0.158903	0.002738
C69	C	1.292139	0.174431	0.336071
C70	C	0.661215	-0.434615	-0.375029
C71	C	0.994548	-0.101282	-0.041696
C72	C	1.327882	0.232051	0.291637
C73	C	0.507500	-0.434636	-0.375038
C74	C	0.840833	-0.101303	-0.041705
C75	C	1.174166	0.232031	0.291628
C76	C	0.424167	-0.434645	-0.375041
C77	C	0.757500	-0.101311	-0.041708
C78	C	1.090833	0.232022	0.291625
C79	C	0.744553	-0.434605	-0.375026
C80	C	1.077887	-0.101272	-0.041692
C81	C	1.411220	0.232062	0.291641
C82	C	1.094948	-0.668985	-0.386049
C83	C	1.428281	-0.335652	-0.052716
C84	C	1.761615	-0.002319	0.280617
C85	C	1.099706	-0.769250	-0.390791
C86	C	1.433039	-0.435917	-0.057457
C87	C	1.766373	-0.102584	0.275876
C88	C	1.014582	-0.957829	-0.305478
C89	C	1.347916	-0.624495	0.027855
C90	C	1.681249	-0.291162	0.361188
C91	C	1.019051	-1.052036	-0.309931
C92	C	1.352384	-0.718703	0.023403
C93	C	1.685717	-0.385370	0.356736
C94	C	1.113114	-1.051875	-0.404144
C95	C	1.446447	-0.718542	-0.070810
C96	C	1.779781	-0.385209	0.262523
C97	C	1.108646	-0.957668	-0.399691
C98	C	1.441979	-0.624334	-0.066358
C99	C	1.775312	-0.291001	0.266975
C100	C	1.059378	-0.910647	-0.350358
C101	C	1.392711	-0.577314	-0.017024
C102	C	1.726044	-0.243981	0.316309
C103	C	1.054906	-0.816438	-0.345909
C104	C	1.388239	-0.483105	-0.012576
C105	C	1.721573	-0.149771	0.320757
C106	C	1.148973	-0.816279	-0.440118
C107	C	1.482306	-0.482945	-0.106785
C108	C	1.815639	-0.149612	0.226548
C109	C	1.153441	-0.910486	-0.444571
C110	C	1.486774	-0.577153	-0.111237
C111	C	1.820108	-0.243820	0.222096
C112	C	1.275938	-0.434643	-0.375039
C113	C	1.609271	-0.101309	-0.041706
C114	C	1.942604	0.232024	0.291628
C115	C	1.357737	-0.434655	-0.375045
C116	C	1.691070	-0.101322	-0.041712
C117	C	2.024404	0.232012	0.291621
C118	C	1.084025	-0.434552	-0.566974
C119	C	1.417359	-0.101219	-0.233641
C120	C	1.750692	0.232115	0.099692
C121	C	1.084043	-0.434526	-0.648772
C122	C	1.417377	-0.101192	-0.315439
C123	C	1.750710	0.232141	0.017895
C124	C	1.072996	-0.199328	-0.363972
C125	C	1.406329	0.134005	-0.030639
C126	C	1.739663	0.467339	0.302694
C127	C	1.068314	-0.099063	-0.359263
C128	C	1.401647	0.234270	-0.025929
C129	C	1.734981	0.567604	0.307404
C130	C	1.128433	-0.376784	-0.834258
C131	C	1.461766	-0.043450	-0.500925
C132	C	1.795100	0.289883	-0.167592
C133	C	1.128440	-0.376757	-0.911116
C134	C	1.461774	-0.043424	-0.577782
C135	C	1.795107	0.289909	-0.244449
C136	C	1.039699	-0.492128	-0.916517
C137	C	1.373032	-0.158795	-0.583184
C138	C	1.706366	0.174539	-0.249851
C139	C	1.039688	-0.492149	-0.839661
C140	C	1.373021	-0.158816	-0.506328
C141	C	1.706355	0.174518	-0.172994
C142	C	1.084059	-0.434478	-0.798533
C143	C	1.417393	-0.101145	-0.465200
C144	C	1.750726	0.232188	-0.131867
C145	C	1.084078	-0.434431	-0.952247
C146	C	1.417411	-0.101098	-0.618914
C147	C	1.750744	0.232236	-0.285581
C148	C	1.084086	-0.434403	-1.035580
C149	C	1.417419	-0.101069	-0.702246
C150	C	1.750752	0.232264	-0.368913
C151	C	1.084051	-0.434505	-0.715196
C152	C	1.417384	-0.101172	-0.381862
C153	C	1.750717	0.232162	-0.048529
C154	C	1.083981	-0.434611	-0.183818
C155	C	1.417314	-0.101278	0.149515
C156	C	1.750648	0.232056	0.482849
C157	C	1.084094	-0.434384	-0.102009
C158	C	1.417427	-0.101050	0.231325
C159	C	1.750760	0.232283	0.564658
H160	H	0.519505	-0.539163	-0.294426
H161	H	0.852839	-0.205829	0.038907
H162	H	1.186172	0.127504	0.372240
H163	H	0.658946	-0.539150	-0.294410
H164	H	0.992280	-0.205817	0.038923
H165	H	1.325613	0.127516	0.372256
C166	C	1.000716	-0.764717	-0.291644
C167	C	1.334049	-0.431383	0.041689
C168	C	1.667382	-0.098050	0.375022
H169	H	0.974683	-0.806312	-0.265549
H170	H	1.308016	-0.472979	0.067785
H171	H	1.641350	-0.139646	0.401118
H172	H	0.966888	-0.727975	-0.318026
H173	H	1.300221	-0.394641	0.015307
H174	H	1.633555	-0.061308	0.348641
H175	H	1.027151	-0.727965	-0.257866
H176	H	1.360484	-0.394632	0.075467
H177	H	1.693817	-0.061299	0.408800
C178	C	0.960387	-0.906104	-0.251220
C179	C	1.293720	-0.572770	0.082113
C180	C	1.627054	-0.239437	0.415447
H181	H	0.934349	-0.947697	-0.225127
H182	H	1.267682	-0.614363	0.108206
H183	H	1.601015	-0.281030	0.441539
H184	H	0.926565	-0.869362	-0.277609
H185	H	1.259898	-0.536029	0.055725
H186	H	1.593232	-0.202695	0.389058
H187	H	0.986818	-0.869352	-0.217439
H188	H	1.320151	-0.536018	0.115894
H189	H	1.653484	-0.202685	0.449228
H190	H	0.649203	-0.330084	-0.455639
H191	H	0.982536	0.003250	-0.122306
H192	H	1.315870	0.336583	0.211027
C193	C	0.990876	-0.555614	-0.800357
C194	C	1.324209	-0.222281	-0.467024
C195	C	1.657542	0.111052	-0.133691
H196	H	0.997219	-0.547358	-0.748694
H197	H	1.330552	-0.214025	-0.415361
H198	H	1.663885	0.119308	-0.082027
H199	H	1.004476	-0.616223	-0.815796
H200	H	1.337810	-0.282890	-0.482463
H201	H	1.671143	0.050444	-0.149130
H202	H	0.940811	-0.542396	-0.812325
H203	H	1.274144	-0.209063	-0.478992
H204	H	1.607477	0.124271	-0.145658
H205	H	0.982574	-1.090448	-0.273385
H206	H	1.315907	-0.757114	0.059949
H207	H	1.649241	-0.423781	0.393282
H208	H	1.153231	-1.090175	-0.444303
H209	H	1.486564	-0.756842	-0.110970
H210	H	1.819898	-0.423509	0.222363
C211	C	0.498027	-0.313646	-0.468342
C212	C	0.831361	0.019688	-0.135009
C213	C	1.164694	0.353021	0.198324
H214	H	0.530324	-0.279335	-0.494807
H215	H	0.863658	0.053999	-0.161473
H216	H	1.196991	0.387332	0.171860
H217	H	0.466189	-0.274300	-0.438397
H218	H	0.799522	0.059033	-0.105063
H219	H	1.132856	0.392367	0.228270
H220	H	0.469679	-0.348214	-0.501992
H221	H	0.803013	-0.014881	-0.168659
H222	H	1.136346	0.318452	0.164675
H223	H	1.164561	-0.329822	-0.800774
H224	H	1.497894	0.003512	-0.467441
H225	H	1.831227	0.336845	-0.134108
C226	C	1.207628	-0.962213	-0.498836
C227	C	1.540961	-0.628880	-0.165503
C228	C	1.874295	-0.295547	0.167831
H229	H	1.203871	-1.025078	-0.495065
H230	H	1.537204	-0.691744	-0.161731
H231	H	1.870537	-0.358411	0.171602
H232	H	1.256349	-0.946735	-0.487387
H233	H	1.589682	-0.613402	-0.154054
H234	H	1.923015	-0.280068	0.179279
H235	H	1.196082	-0.946747	-0.547543
H236	H	1.529415	-0.613413	-0.214210
H237	H	1.862749	-0.280080	0.119123
H238	H	1.003575	-0.539084	-0.950013
H239	H	1.336909	-0.205750	-0.616679
H240	H	1.670242	0.127583	-0.283346
C241	C	1.198254	-0.764382	-0.489486
C242	C	1.531587	-0.431049	-0.156153
C243	C	1.864921	-0.097715	0.177180
H244	H	1.228231	-0.805881	-0.519506
H245	H	1.561564	-0.472548	-0.186173
H246	H	1.894898	-0.139215	0.147160
H247	H	1.228592	-0.727620	-0.459628
H248	H	1.561926	-0.394287	-0.126295
H249	H	1.895259	-0.060953	0.207038
H250	H	1.168335	-0.727637	-0.519793
H251	H	1.501668	-0.394304	-0.186460
H252	H	1.835001	-0.060971	0.146874
H253	H	1.164573	-0.329775	-0.940199
H254	H	1.497906	0.003558	-0.606866
H255	H	1.831239	0.336892	-0.273533
