data_functionalizedCrystal
_audit_creation_method	'MofGen! by Chris Wilmer'
_symmetry_space_group_name_H-M	'P1'
_symmetry_Int_Tables_number	1
_symmetry_cell_setting	triclinic
loop_
_symmetry_equiv_pos_as_xyz
  x,y,z
_cell_length_a	23.532407
_cell_length_b	23.532407
_cell_length_c	22.010155
_cell_angle_alpha	90.000423
_cell_angle_beta	90.001992
_cell_angle_gamma	82.848674
loop_
_atom_site_label
_atom_site_type_symbol
_atom_site_fract_x
_atom_site_fract_y
_atom_site_fract_z
O1	O	-0.755264	-0.069127	-0.050440
O2	O	-0.505264	0.180873	0.199560
O3	O	-0.255264	0.430873	0.449560
O4	O	-0.005264	0.680873	0.699560
O5	O	-0.589400	-0.079130	-0.050462
O6	O	-0.339400	0.170870	0.199538
O7	O	-0.089400	0.420870	0.449538
O8	O	0.160600	0.670870	0.699538
O9	O	-0.677334	0.008803	-0.050439
O10	O	-0.427334	0.258803	0.199561
O11	O	-0.177334	0.508803	0.449561
O12	O	0.072666	0.758803	0.699561
O13	O	-0.667330	-0.157060	-0.050463
O14	O	-0.417330	0.092940	0.199537
O15	O	-0.167330	0.342940	0.449537
O16	O	0.082670	0.592940	0.699537
O17	O	-0.677318	0.008790	0.050611
O18	O	-0.427318	0.258790	0.300611
O19	O	-0.177318	0.508790	0.550611
O20	O	0.072682	0.758790	0.800611
O21	O	-0.589384	-0.079143	0.050588
O22	O	-0.339384	0.170857	0.300588
O23	O	-0.089384	0.420857	0.550588
O24	O	0.160616	0.670857	0.800588
O25	O	-0.755248	-0.069140	0.050610
O26	O	-0.505248	0.180860	0.300610
O27	O	-0.255248	0.430860	0.550610
O28	O	-0.005248	0.680860	0.800610
Cu29	Cu	-0.672315	-0.074143	0.059826
Cu30	Cu	-0.422315	0.175857	0.309826
Cu31	Cu	-0.172315	0.425857	0.559826
Cu32	Cu	0.077685	0.675857	0.809826
Cu33	Cu	-0.672333	-0.074127	-0.059678
Cu34	Cu	-0.422333	0.175873	0.190322
Cu35	Cu	-0.172333	0.425873	0.440322
Cu36	Cu	0.077667	0.675873	0.690322
O37	O	-0.667314	-0.157073	0.050587
O38	O	-0.417314	0.092927	0.300587
O39	O	-0.167314	0.342927	0.550587
O40	O	0.082686	0.592927	0.800587
C41	C	-0.568176	-0.078882	0.000060
C42	C	-0.318176	0.171118	0.250060
C43	C	-0.068176	0.421118	0.500060
C44	C	0.181824	0.671118	0.750060
C45	C	-0.504959	-0.078116	0.000052
C46	C	-0.254959	0.171884	0.250052
C47	C	-0.004959	0.421884	0.500052
C48	C	0.245041	0.671884	0.750052
C49	C	-0.677071	0.030013	0.000087
C50	C	-0.427071	0.280013	0.250087
C51	C	-0.177071	0.530013	0.500087
C52	C	0.072929	0.780013	0.750087
C53	C	-0.676305	0.093230	0.000092
C54	C	-0.426305	0.343230	0.250092
C55	C	-0.176305	0.593230	0.500092
C56	C	0.073695	0.843230	0.750092
N57	N	-0.672305	-0.074153	0.143878
N58	N	-0.422305	0.175847	0.393878
N59	N	-0.172305	0.425847	0.643878
N60	N	0.077695	0.675847	0.893878
C61	C	-0.105856	-0.125350	0.000065
C62	C	0.144144	0.124650	0.250065
C63	C	0.394144	0.374650	0.500065
C64	C	0.644144	0.624650	0.750065
C65	C	-0.046456	-0.124638	0.000068
C66	C	0.203544	0.125362	0.250068
C67	C	0.453544	0.375362	0.500068
C68	C	0.703544	0.625362	0.750068
O69	O	-0.009711	-0.168424	0.000083
O70	O	0.240289	0.081576	0.250083
O71	O	0.490289	0.331576	0.500083
O72	O	0.740289	0.581576	0.750083
N73	N	-0.023830	-0.072362	0.000074
N74	N	0.226170	0.177638	0.250074
N75	N	0.476170	0.427638	0.500074
N76	N	0.726170	0.677638	0.750074
C77	C	-0.060607	-0.020794	0.000083
C78	C	0.189393	0.229206	0.250083
C79	C	0.439393	0.479206	0.500083
C80	C	0.689393	0.729206	0.750083
O81	O	-0.035908	0.023737	0.000089
O82	O	0.214092	0.273737	0.250089
O83	O	0.464092	0.523737	0.500089
O84	O	0.714092	0.773737	0.750089
C85	C	-0.120006	-0.021506	0.000085
C86	C	0.129994	0.228494	0.250085
C87	C	0.379994	0.478494	0.500085
C88	C	0.629994	0.728494	0.750085
C89	C	-0.142629	-0.073785	0.000073
C90	C	0.107371	0.176215	0.250073
C91	C	0.357371	0.426215	0.500073
C92	C	0.607371	0.676215	0.750073
C93	C	-0.128479	-0.177625	0.000054
C94	C	0.121521	0.072375	0.250054
C95	C	0.371521	0.322375	0.500054
C96	C	0.621521	0.572375	0.750054
C97	C	-0.187876	-0.178336	0.000050
C98	C	0.062124	0.071664	0.250050
C99	C	0.312124	0.321664	0.500050
C100	C	0.562124	0.571664	0.750050
C101	C	-0.224649	-0.126772	0.000058
C102	C	0.025351	0.123228	0.250058
C103	C	0.275351	0.373228	0.500058
C104	C	0.525351	0.623228	0.750058
C105	C	-0.202025	-0.074496	0.000069
C106	C	0.047975	0.175504	0.250069
C107	C	0.297975	0.425504	0.500069
C108	C	0.547975	0.675504	0.750069
C109	C	-0.156783	0.030062	0.000099
C110	C	0.093217	0.280062	0.250099
C111	C	0.343217	0.530062	0.500099
C112	C	0.593217	0.780062	0.750099
C113	C	-0.216185	0.029345	0.000101
C114	C	0.033815	0.279345	0.250101
C115	C	0.283815	0.529345	0.500101
C116	C	0.533815	0.779345	0.750101
C117	C	-0.238808	-0.022934	0.000089
C118	C	0.011192	0.227066	0.250089
C119	C	0.261192	0.477066	0.500089
C120	C	0.511192	0.727066	0.750089
C121	C	-0.298194	-0.023643	0.000073
C122	C	-0.048194	0.226357	0.250073
C123	C	0.201806	0.476357	0.500073
C124	C	0.451806	0.726357	0.750073
N125	N	-0.320820	-0.075920	0.000067
N126	N	-0.070820	0.174080	0.250067
N127	N	0.179180	0.424080	0.500067
N128	N	0.429180	0.674080	0.750067
C129	C	-0.284048	-0.127484	0.000059
C130	C	-0.034048	0.122516	0.250059
C131	C	0.215952	0.372516	0.500059
C132	C	0.465952	0.622516	0.750059
C133	C	0.064135	-0.019302	0.000081
C134	C	0.314135	0.230698	0.250081
C135	C	0.564135	0.480698	0.500081
C136	C	0.814135	0.730698	0.750081
C137	C	0.123533	-0.018589	0.000075
C138	C	0.373533	0.231411	0.250075
C139	C	0.623533	0.481411	0.500075
C140	C	0.873533	0.731411	0.750075
C141	C	0.137680	-0.122434	0.000060
C142	C	0.387680	0.127566	0.250060
C143	C	0.637680	0.377566	0.500060
C144	C	0.887680	0.627566	0.750060
C145	C	0.078281	-0.123146	0.000062
C146	C	0.328281	0.126854	0.250062
C147	C	0.578281	0.376854	0.500062
C148	C	0.828281	0.626854	0.750062
C149	C	0.041509	-0.071578	0.000075
C150	C	0.291509	0.178422	0.250075
C151	C	0.541509	0.428422	0.500075
C152	C	0.791509	0.678422	0.750075
C153	C	-0.408784	-0.128974	0.000051
C154	C	-0.158784	0.121026	0.250051
C155	C	0.091216	0.371026	0.500051
C156	C	0.341216	0.621026	0.750051
C157	C	-0.468186	-0.129680	0.000045
C158	C	-0.218186	0.120320	0.250045
C159	C	0.031814	0.370320	0.500045
C160	C	0.281814	0.620320	0.750045
C161	C	-0.482329	-0.025836	0.000062
C162	C	-0.232329	0.224164	0.250062
C163	C	0.017671	0.474164	0.500062
C164	C	0.267671	0.724164	0.750062
C165	C	-0.422932	-0.025129	0.000065
C166	C	-0.172932	0.224871	0.250065
C167	C	0.077068	0.474871	0.500065
C168	C	0.327068	0.724871	0.750065
C169	C	-0.386160	-0.076702	0.000062
C170	C	-0.136160	0.173298	0.250062
C171	C	0.113840	0.423298	0.500062
C172	C	0.363840	0.673298	0.750062
O173	O	-0.334974	0.020119	0.000060
O174	O	-0.084974	0.270119	0.250060
O175	O	0.165026	0.520119	0.500060
O176	O	0.415026	0.770119	0.750060
O177	O	-0.308755	-0.172007	0.000062
O178	O	-0.058755	0.077993	0.250062
O179	O	0.191245	0.327993	0.500062
O180	O	0.441245	0.577993	0.750062
C181	C	0.223528	-0.069388	0.000081
C182	C	0.473528	0.180612	0.250081
C183	C	0.723528	0.430612	0.500081
C184	C	0.973528	0.680612	0.750081
C185	C	0.160311	-0.070154	0.000070
C186	C	0.410311	0.179846	0.250070
C187	C	0.660311	0.429846	0.500070
C188	C	0.910311	0.679846	0.750070
C189	C	-0.667577	-0.178283	0.000059
C190	C	-0.417577	0.071717	0.250059
C191	C	-0.167577	0.321717	0.500059
C192	C	0.082423	0.571717	0.750059
C193	C	-0.668343	-0.241500	0.000051
C194	C	-0.418343	0.008500	0.250051
C195	C	-0.168343	0.258500	0.500051
C196	C	0.081657	0.508500	0.750051
C197	C	-0.723539	0.492333	0.000065
C198	C	-0.473539	0.742333	0.250065
C199	C	-0.223539	0.992333	0.500065
C200	C	0.026461	1.242333	0.750065
C201	C	-0.722827	0.551733	0.000060
C202	C	-0.472827	0.801733	0.250060
C203	C	-0.222827	1.051733	0.500060
C204	C	0.027173	1.301733	0.750060
O205	O	-0.766613	0.588478	0.000043
O206	O	-0.516613	0.838478	0.250043
O207	O	-0.266613	1.088478	0.500043
O208	O	-0.016613	1.338478	0.750043
N209	N	-0.670551	0.574359	0.000054
N210	N	-0.420551	0.824359	0.250054
N211	N	-0.170551	1.074359	0.500054
N212	N	0.079449	1.324359	0.750054
C213	C	-0.618983	0.537582	0.000046
C214	C	-0.368983	0.787582	0.250046
C215	C	-0.118983	1.037582	0.500046
C216	C	0.131017	1.287582	0.750046
O217	O	-0.574452	0.562281	0.000039
O218	O	-0.324452	0.812281	0.250039
O219	O	-0.074452	1.062281	0.500039
O220	O	0.175548	1.312281	0.750039
C221	C	-0.619695	0.478183	0.000046
C222	C	-0.369695	0.728183	0.250046
C223	C	-0.119695	0.978183	0.500046
C224	C	0.130305	1.228183	0.750046
C225	C	-0.671974	0.455560	0.000059
C226	C	-0.421974	0.705560	0.250059
C227	C	-0.171974	0.955560	0.500059
C228	C	0.078026	1.205560	0.750059
C229	C	-0.775814	0.469710	0.000077
C230	C	-0.525814	0.719710	0.250077
C231	C	-0.275814	0.969710	0.500077
C232	C	-0.025814	1.219710	0.750077
C233	C	-0.776525	0.410313	0.000083
C234	C	-0.526525	0.660313	0.250083
C235	C	-0.276525	0.910313	0.500083
C236	C	-0.026525	1.160313	0.750083
C237	C	-0.724961	0.373541	0.000076
C238	C	-0.474961	0.623541	0.250076
C239	C	-0.224961	0.873541	0.500076
C240	C	0.025039	1.123541	0.750076
C241	C	-0.672685	0.396164	0.000064
C242	C	-0.422685	0.646164	0.250064
C243	C	-0.172685	0.896164	0.500064
C244	C	0.077315	1.146164	0.750064
C245	C	-0.568127	0.441406	0.000034
C246	C	-0.318127	0.691406	0.250034
C247	C	-0.068127	0.941406	0.500034
C248	C	0.181873	1.191406	0.750034
C249	C	-0.568844	0.382004	0.000034
C250	C	-0.318844	0.632004	0.250034
C251	C	-0.068844	0.882004	0.500034
C252	C	0.181156	1.132004	0.750034
C253	C	-0.621123	0.359381	0.000046
C254	C	-0.371123	0.609381	0.250046
C255	C	-0.121123	0.859381	0.500046
C256	C	0.128877	1.109381	0.750046
C257	C	-0.621832	0.299995	0.000064
C258	C	-0.371832	0.549995	0.250064
C259	C	-0.121832	0.799995	0.500064
C260	C	0.128168	1.049995	0.750064
N261	N	-0.674109	0.277369	0.000071
N262	N	-0.424109	0.527369	0.250071
N263	N	-0.174109	0.777369	0.500071
N264	N	0.075891	1.027369	0.750071
C265	C	-0.725673	0.314141	0.000077
C266	C	-0.475673	0.564141	0.250077
C267	C	-0.225673	0.814141	0.500077
C268	C	0.024327	1.064141	0.750077
C269	C	-0.617491	0.662324	0.000044
C270	C	-0.367491	0.912324	0.250044
C271	C	-0.117491	1.162324	0.500044
C272	C	0.132509	1.412324	0.750044
C273	C	-0.616778	0.721722	0.000048
C274	C	-0.366778	0.971722	0.250048
C275	C	-0.116778	1.221722	0.500048
C276	C	0.133222	1.471722	0.750048
C277	C	-0.720623	0.735869	0.000061
C278	C	-0.470623	0.985869	0.250061
C279	C	-0.220623	1.235869	0.500061
C280	C	0.029377	1.485869	0.750061
C281	C	-0.721335	0.676470	0.000061
C282	C	-0.471335	0.926470	0.250061
C283	C	-0.221335	1.176470	0.500061
C284	C	0.028665	1.426470	0.750061
C285	C	-0.669767	0.639698	0.000050
C286	C	-0.419767	0.889698	0.250050
C287	C	-0.169767	1.139698	0.500050
C288	C	0.080233	1.389698	0.750050
C289	C	-0.727163	0.189405	0.000090
C290	C	-0.477163	0.439405	0.250090
C291	C	-0.227163	0.689405	0.500090
C292	C	0.022837	0.939405	0.750090
C293	C	-0.727869	0.130003	0.000098
C294	C	-0.477869	0.380003	0.250098
C295	C	-0.227869	0.630003	0.500098
C296	C	0.022131	0.880003	0.750098
C297	C	-0.624025	0.115860	0.000081
C298	C	-0.374025	0.365860	0.250081
C299	C	-0.124025	0.615860	0.500081
C300	C	0.125975	0.865860	0.750081
C301	C	-0.623318	0.175257	0.000076
C302	C	-0.373318	0.425257	0.250076
C303	C	-0.123318	0.675257	0.500076
C304	C	0.126682	0.925257	0.750076
C305	C	-0.674891	0.212029	0.000078
C306	C	-0.424891	0.462029	0.250078
C307	C	-0.174891	0.712029	0.500078
C308	C	0.075109	0.962029	0.750078
O309	O	-0.578070	0.263215	0.000078
O310	O	-0.328070	0.513215	0.250078
O311	O	-0.078070	0.763215	0.500078
O312	O	0.171930	1.013215	0.750078
O313	O	-0.770196	0.289434	0.000075
O314	O	-0.520196	0.539434	0.250075
O315	O	-0.270196	0.789434	0.500075
O316	O	-0.020196	1.039434	0.750075
N317	N	-0.672347	-0.074112	-0.143730
N318	N	-0.422347	0.175888	0.106270
N319	N	-0.172347	0.425888	0.356270
N320	N	0.077653	0.675888	0.606270
C321	C	-0.711273	-0.035196	0.563668
C322	C	-0.461273	0.214804	0.813668
C323	C	-0.211273	0.464804	1.063668
C324	C	0.038727	0.714804	1.313668
C325	C	-0.711275	-0.035192	0.627275
C326	C	-0.461275	0.214808	0.877275
C327	C	-0.211275	0.464808	1.127275
C328	C	0.038725	0.714808	1.377275
O329	O	-0.744384	-0.002076	0.660175
O330	O	-0.494384	0.247924	0.910175
O331	O	-0.244384	0.497924	1.160175
O332	O	0.005616	0.747924	1.410175
N333	N	-0.672333	-0.074115	0.659085
N334	N	-0.422333	0.175885	0.909085
N335	N	-0.172333	0.425885	1.159085
N336	N	0.077667	0.675885	1.409085
C337	C	-0.633382	-0.113041	0.627284
C338	C	-0.383382	0.136959	0.877284
C339	C	-0.133382	0.386959	1.127284
C340	C	0.116618	0.636959	1.377284
O341	O	-0.600259	-0.146148	0.660182
O342	O	-0.350259	0.103852	0.910182
O343	O	-0.100259	0.353852	1.160182
O344	O	0.149741	0.603852	1.410182
C345	C	-0.633377	-0.113042	0.563678
C346	C	-0.383377	0.136958	0.813678
C347	C	-0.133377	0.386958	1.063678
C348	C	0.116623	0.636958	1.313678
C349	C	-0.672326	-0.074120	0.531871
C350	C	-0.422326	0.175880	0.781871
C351	C	-0.172326	0.425880	1.031871
C352	C	0.077674	0.675880	1.281871
C353	C	-0.750217	0.003723	0.531861
C354	C	-0.500217	0.253723	0.781861
C355	C	-0.250217	0.503723	1.031861
C356	C	-0.000217	0.753723	1.281861
C357	C	-0.750215	0.003719	0.468258
C358	C	-0.500215	0.253719	0.718258
C359	C	-0.250215	0.503719	0.968258
C360	C	-0.000215	0.753719	1.218258
C361	C	-0.711268	-0.035205	0.436461
C362	C	-0.461268	0.214795	0.686461
C363	C	-0.211268	0.464795	0.936461
C364	C	0.038732	0.714795	1.186461
C365	C	-0.672324	-0.074125	0.468268
C366	C	-0.422324	0.175875	0.718268
C367	C	-0.172324	0.425875	0.968268
C368	C	0.077676	0.675875	1.218268
C369	C	-0.594424	-0.151965	0.531878
C370	C	-0.344424	0.098035	0.781878
C371	C	-0.094424	0.348035	1.031878
C372	C	0.155576	0.598035	1.281878
C373	C	-0.594422	-0.151962	0.468268
C374	C	-0.344422	0.098038	0.718268
C375	C	-0.094422	0.348038	0.968268
C376	C	0.155578	0.598038	1.218268
C377	C	-0.633370	-0.113040	0.436461
C378	C	-0.383370	0.136960	0.686461
C379	C	-0.133370	0.386960	0.936461
C380	C	0.116630	0.636960	1.186461
C381	C	-0.633374	-0.113054	0.372868
C382	C	-0.383374	0.136946	0.622868
C383	C	-0.133374	0.386946	0.872868
C384	C	0.116626	0.636946	1.122868
N385	N	-0.672317	-0.074130	0.341058
N386	N	-0.422317	0.175870	0.591058
N387	N	-0.172317	0.425870	0.841058
N388	N	0.077683	0.675870	1.091058
C389	C	-0.711263	-0.035206	0.372855
C390	C	-0.461263	0.214794	0.622855
C391	C	-0.211263	0.464794	0.872855
C392	C	0.038737	0.714794	1.122855
C393	C	-0.633395	-0.113036	0.760862
C394	C	-0.383395	0.136964	1.010862
C395	C	-0.133395	0.386964	1.260862
C396	C	0.116605	0.636964	1.510862
C397	C	-0.633402	-0.113039	0.824468
C398	C	-0.383402	0.136961	1.074468
C399	C	-0.133402	0.386961	1.324468
C400	C	0.116598	0.636961	1.574468
C401	C	-0.711294	-0.035188	0.824454
C402	C	-0.461294	0.214812	1.074454
C403	C	-0.211294	0.464812	1.324454
C404	C	0.038706	0.714812	1.574454
C405	C	-0.711290	-0.035189	0.760848
C406	C	-0.461290	0.214811	1.010848
C407	C	-0.211290	0.464811	1.260848
C408	C	0.038710	0.714811	1.510848
C409	C	-0.672337	-0.074113	0.729052
C410	C	-0.422337	0.175887	0.979052
C411	C	-0.172337	0.425887	1.229052
C412	C	0.077663	0.675887	1.479052
C413	C	-0.711256	-0.035219	0.239284
C414	C	-0.461256	0.214781	0.489284
C415	C	-0.211256	0.464781	0.739284
C416	C	0.038744	0.714781	0.989284
C417	C	-0.711252	-0.035229	0.175675
C418	C	-0.461252	0.214771	0.425675
C419	C	-0.211252	0.464771	0.675675
C420	C	0.038748	0.714771	0.925675
C421	C	-0.633358	-0.113077	0.175694
C422	C	-0.383358	0.136923	0.425694
C423	C	-0.133358	0.386923	0.675694
C424	C	0.116642	0.636923	0.925694
C425	C	-0.633364	-0.113070	0.239297
C426	C	-0.383364	0.136930	0.489297
C427	C	-0.133364	0.386930	0.739297
C428	C	0.116636	0.636930	0.989297
C429	C	-0.672315	-0.074136	0.271090
C430	C	-0.422315	0.175864	0.521090
C431	C	-0.172315	0.425864	0.771090
C432	C	0.077685	0.675864	1.021090
O433	O	-0.600282	-0.146151	0.339928
O434	O	-0.350282	0.103849	0.589928
O435	O	-0.100282	0.353849	0.839928
O436	O	0.149718	0.603849	1.089928
O437	O	-0.744376	-0.002100	0.339950
O438	O	-0.494376	0.247900	0.589950
O439	O	-0.244376	0.497900	0.839950
O440	O	0.005624	0.747900	1.089950
H441	H	-0.486602	-0.172254	0.000034
H442	H	-0.236602	0.077746	0.250034
H443	H	0.013398	0.327746	0.500034
H444	H	0.263398	0.577746	0.750034
H445	H	-0.378851	-0.170970	0.000050
H446	H	-0.128851	0.079030	0.250050
H447	H	0.121149	0.329030	0.500050
H448	H	0.371149	0.579030	0.750050
H449	H	-0.762610	0.765821	0.000064
H450	H	-0.512610	1.015821	0.250064
H451	H	-0.262610	1.265821	0.500064
H452	H	-0.012610	1.515821	0.750064
H453	H	-0.582043	0.085909	0.000079
H454	H	-0.332043	0.335909	0.250079
H455	H	-0.082043	0.585909	0.500079
H456	H	0.167957	0.835909	0.750079
H457	H	-0.525555	0.459814	0.000020
H458	H	-0.275555	0.709814	0.250020
H459	H	-0.025555	0.959814	0.500020
H460	H	0.224445	1.209814	0.750020
H461	H	0.167632	-0.164421	0.000057
H462	H	0.417632	0.085579	0.250057
H463	H	0.667632	0.335579	0.500057
H464	H	0.917632	0.585579	0.750057
H465	H	-0.819097	0.391900	0.000090
H466	H	-0.569097	0.641900	0.250090
H467	H	-0.319097	0.891900	0.500090
H468	H	-0.069097	1.141900	0.750090
H469	H	0.034198	0.022693	0.000085
H470	H	0.284198	0.272693	0.250085
H471	H	0.534198	0.522693	0.500085
H472	H	0.784198	0.772693	0.750085
H473	H	-0.817806	0.499645	0.000080
H474	H	-0.567806	0.749645	0.250080
H475	H	-0.317806	0.999645	0.500080
H476	H	-0.067806	1.249645	0.750080
H477	H	-0.742971	-0.003534	0.149780
H478	H	-0.492971	0.246466	0.399780
H479	H	-0.242971	0.496466	0.649780
H480	H	0.007029	0.746466	0.899780
H481	H	-0.138375	0.072634	0.000109
H482	H	0.111625	0.322634	0.250109
H483	H	0.361625	0.572634	0.500109
H484	H	0.611625	0.822634	0.750109
H485	H	-0.246123	0.071339	0.000112
H486	H	0.003877	0.321339	0.250112
H487	H	0.253877	0.571339	0.500112
H488	H	0.503877	0.821339	0.750112
H489	H	-0.404512	0.017441	0.000066
H490	H	-0.154512	0.267441	0.250066
H491	H	0.095488	0.517441	0.500066
H492	H	0.345488	0.767441	0.750066
H493	H	-0.763906	0.658056	0.000071
H494	H	-0.513906	0.908056	0.250071
H495	H	-0.263906	1.158056	0.500071
H496	H	-0.013906	1.408056	0.750071
H497	H	-0.601654	-0.144769	0.265195
H498	H	-0.351654	0.105231	0.515195
H499	H	-0.101654	0.355231	0.765195
H500	H	0.148346	0.605231	1.015195
H501	H	-0.512280	0.016146	0.000066
H502	H	-0.262280	0.266146	0.250066
H503	H	-0.012280	0.516146	0.500066
H504	H	0.237720	0.766146	0.750066
H505	H	-0.574207	0.740136	0.000048
H506	H	-0.324207	0.990136	0.250048
H507	H	-0.074207	1.240136	0.500048
H508	H	0.175793	1.490136	0.750048
H509	H	-0.575496	0.632387	0.000040
H510	H	-0.325496	0.882387	0.250040
H511	H	-0.075496	1.132387	0.500040
H512	H	0.174504	1.382387	0.750040
H513	H	-0.098544	-0.219617	0.000050
H514	H	0.151456	0.030383	0.250050
H515	H	0.401456	0.280383	0.500050
H516	H	0.651456	0.530383	0.750050
H517	H	-0.742973	-0.003515	0.265163
H518	H	-0.492973	0.246485	0.515163
H519	H	-0.242973	0.496485	0.765163
H520	H	0.007027	0.746485	1.015163
H521	H	-0.770443	0.111587	0.000110
H522	H	-0.520443	0.361587	0.250110
H523	H	-0.270443	0.611587	0.500110
H524	H	-0.020443	0.861587	0.750110
H525	H	-0.601650	-0.144771	0.149795
H526	H	-0.351650	0.105229	0.399795
H527	H	-0.101650	0.355229	0.649795
H528	H	0.148350	0.605229	0.899795
H529	H	-0.526850	0.352066	0.000023
H530	H	-0.276850	0.602066	0.250023
H531	H	-0.026850	0.852066	0.500023
H532	H	0.223150	1.102066	0.750023
H533	H	-0.206289	-0.220908	0.000040
H534	H	0.043711	0.029092	0.250040
H535	H	0.293711	0.279092	0.500040
H536	H	0.543711	0.529092	0.750040
H537	H	0.141947	0.023982	0.000075
H538	H	0.391947	0.273982	0.250075
H539	H	0.641947	0.523982	0.500075
H540	H	0.891947	0.773982	0.750075
H541	H	0.059867	-0.165717	0.000056
H542	H	0.309867	0.084283	0.250056
H543	H	0.559867	0.334283	0.500056
H544	H	0.809867	0.584283	0.750056
H545	H	-0.769159	0.219338	0.000089
H546	H	-0.519159	0.469338	0.250089
H547	H	-0.269159	0.719338	0.500089
H548	H	-0.019159	0.969338	0.750089
H549	H	-0.580748	0.193677	0.000083
H550	H	-0.330748	0.443677	0.250083
H551	H	-0.080748	0.693677	0.500083
H552	H	0.169252	0.943677	0.750083
H553	H	-0.781933	0.035423	0.557744
H554	H	-0.531933	0.285423	0.807744
H555	H	-0.281933	0.535423	1.057744
H556	H	-0.031933	0.785423	1.307744
H557	H	-0.743004	-0.003495	0.734954
H558	H	-0.493004	0.246505	0.984954
H559	H	-0.243004	0.496505	1.234954
H560	H	0.006996	0.746505	1.484954
H561	H	-0.781929	0.035414	0.442364
H562	H	-0.531929	0.285414	0.692364
H563	H	-0.281929	0.535414	0.942364
H564	H	-0.031929	0.785414	1.192364
H565	H	-0.743007	-0.003493	0.850354
H566	H	-0.493007	0.246507	1.100354
H567	H	-0.243007	0.496507	1.350354
H568	H	0.006993	0.746507	1.600354
H569	H	-0.601692	-0.144738	0.850360
H570	H	-0.351692	0.105262	1.100360
H571	H	-0.101692	0.355262	1.350360
H572	H	0.148308	0.605262	1.600360
H573	H	-0.601676	-0.144737	0.734978
H574	H	-0.351676	0.105263	0.984978
H575	H	-0.101676	0.355263	1.234978
H576	H	0.148324	0.605263	1.484978
H577	H	-0.562708	-0.183658	0.557767
H578	H	-0.312708	0.066342	0.807767
H579	H	-0.062708	0.316342	1.057767
H580	H	0.187292	0.566342	1.307767
H581	H	-0.562700	-0.183658	0.442383
H582	H	-0.312700	0.066342	0.692383
H583	H	-0.062700	0.316342	0.942383
H584	H	0.187300	0.566342	1.192383
