data_functionalizedCrystal
_audit_creation_method	'MofGen! by Chris Wilmer'
_symmetry_space_group_name_H-M	'P1'
_symmetry_Int_Tables_number	1
_symmetry_cell_setting	triclinic
loop_
_symmetry_equiv_pos_as_xyz
  x,y,z
_cell_length_a	14.971486
_cell_length_b	13.339070
_cell_length_c	14.048226
_cell_angle_alpha	89.996915
_cell_angle_beta	89.998499
_cell_angle_gamma	99.621712
loop_
_atom_site_label
_atom_site_type_symbol
_atom_site_fract_x
_atom_site_fract_y
_atom_site_fract_z
O1	O	1.219550	0.131873	-0.079045
O2	O	0.963054	0.147665	-0.079070
O3	O	1.061865	-0.007530	-0.079057
O4	O	1.120740	0.287068	-0.079057
O5	O	1.061846	-0.007539	0.079264
O6	O	0.963035	0.147656	0.079251
O7	O	1.219531	0.131864	0.079276
Zn8	Zn	1.091280	0.139758	0.104401
Zn9	Zn	1.091305	0.139770	-0.104194
O10	O	1.120721	0.287059	0.079264
C11	C	0.929545	0.146954	0.000087
C12	C	0.829725	0.144838	0.000077
C13	C	1.051910	-0.045236	0.000101
C14	C	1.022266	-0.157574	0.000094
C15	C	0.795041	0.236011	0.000079
C16	C	0.701248	0.234016	0.000093
C17	C	0.642141	0.140847	0.000099
C18	C	0.676832	0.049667	0.000101
C19	C	0.770623	0.051663	0.000093
C20	C	0.481342	0.045514	0.000114
C21	C	0.387545	0.043518	0.000119
C22	C	0.411968	0.227867	0.000114
C23	C	0.505759	0.229863	0.000106
C24	C	0.540442	0.138682	0.000106
C25	C	1.252762	-0.522088	0.000117
C26	C	1.280617	-0.416541	0.000129
C27	C	1.216032	-0.351794	0.000120
C28	C	1.123587	-0.392604	0.000100
C29	C	1.095729	-0.498161	0.000096
C30	C	1.058999	-0.327867	0.000098
C31	C	0.966554	-0.368677	0.000078
C32	C	0.938701	-0.474224	0.000073
C33	C	1.003286	-0.538970	0.000082
C34	C	1.086856	-0.222311	0.000102
C35	C	0.929823	-0.198383	0.000081
C36	C	0.901968	-0.303930	0.000069
C37	C	1.253040	0.132575	0.000117
C38	C	1.352860	0.134691	0.000121
C39	C	1.130675	0.324765	0.000103
C40	C	1.160319	0.437102	0.000104
N41	N	1.091270	0.139749	0.246761
N42	N	1.091321	0.139771	-0.246555
C43	C	1.135049	0.071057	0.296585
C44	C	1.135055	0.071057	0.396243
C45	C	1.091287	0.139754	0.446075
C46	C	1.047502	0.208449	0.396244
C47	C	1.047491	0.208444	0.296589
C48	C	1.047529	0.208457	0.603959
C49	C	1.047541	0.208463	0.703621
C50	C	1.135094	0.071069	0.703613
C51	C	1.135083	0.071064	0.603957
C52	C	1.091299	0.139761	0.554133
H53	H	0.843160	0.311879	0.000073
O54	O	0.569515	0.330348	0.000095
H55	H	0.612837	0.335652	0.064617
H56	H	1.011859	0.264380	0.436824
O57	O	1.000277	0.282537	0.242842
H58	H	0.969852	0.330315	0.294234
O59	O	1.186559	-0.178304	0.000106
H60	H	1.218856	-0.204314	0.064633
O61	O	1.182312	-0.003036	0.757342
H62	H	1.174957	0.008496	0.835011
O63	O	1.182284	-0.003036	0.550209
H64	H	1.236343	0.039640	0.504798
O65	O	1.000305	0.282540	0.550204
H66	H	1.031286	0.361453	0.569305
H67	H	0.673013	0.308258	0.000093
H68	H	1.011899	0.264403	0.744190
O69	O	1.246068	-0.237954	0.000124
H70	H	1.321200	-0.220453	0.000130
O71	O	0.973237	-0.652814	0.000066
H72	H	0.931983	-0.675488	0.064585
O73	O	1.380320	-0.372534	0.000131
H74	H	1.412619	-0.398545	0.064656
O75	O	0.374568	0.326217	0.000125
H76	H	0.299420	0.309181	0.000145
H77	H	0.339422	-0.032348	0.000125
O78	O	0.838994	-0.518246	0.000064
H79	H	0.798762	-0.455495	0.000052
O80	O	0.518757	-0.052827	0.000109
H81	H	0.461902	-0.117950	0.000103
H82	H	1.305338	-0.574813	0.000132
H83	H	0.628700	-0.026192	0.000119
O84	O	0.808041	-0.046671	0.000095
H85	H	0.784194	-0.091251	-0.064435
O86	O	0.802262	-0.347955	0.000065
H87	H	0.785826	-0.395474	-0.064461
O88	O	0.860150	-0.128566	0.000074
H89	H	0.869086	-0.079904	-0.064457
O90	O	1.182253	-0.003042	0.242838
H91	H	1.212687	-0.050815	0.294231
H92	H	1.170703	0.015122	0.436809
