data_functionalizedCrystal
_audit_creation_method	'MofGen! by Chris Wilmer'
_symmetry_space_group_name_H-M	'P1'
_symmetry_Int_Tables_number	1
_symmetry_cell_setting	triclinic
loop_
_symmetry_equiv_pos_as_xyz
  x,y,z
_cell_length_a	6.817900
_cell_length_b	17.078509
_cell_length_c	16.306216
_cell_angle_alpha	96.261993
_cell_angle_beta	103.467292
_cell_angle_gamma	99.306544
loop_
_atom_site_label
_atom_site_type_symbol
_atom_site_fract_x
_atom_site_fract_y
_atom_site_fract_z
V1	V	-4.005472	-0.110388	-0.262940
O2	O	-4.014824	0.004666	-0.258023
O3	O	-3.936521	-0.218266	-0.261057
O4	O	-3.957191	-0.108970	-0.377656
O5	O	-3.994011	-0.105387	-0.140617
V6	V	-4.491747	-0.096593	-0.248320
O7	O	-4.260692	-0.140648	-0.295012
O8	O	-4.686724	-0.066333	-0.216248
O9	O	-4.337492	0.011285	-0.250202
O10	O	-4.599792	-0.211646	-0.253237
O11	O	-4.620606	-0.101594	-0.370643
O12	O	-4.316822	-0.098010	-0.133604
C13	C	-3.776518	-0.244555	-0.256888
C14	C	-3.801430	-0.332749	-0.256113
C15	C	-3.922127	-0.828751	-0.251309
C16	C	-3.898737	-0.745884	-0.252040
C17	C	-4.068381	-0.708504	-0.256606
C18	C	-4.261434	-0.753996	-0.260450
C19	C	-4.284824	-0.836862	-0.259725
C20	C	-4.017873	-0.461107	-0.259232
C21	C	-3.994465	-0.378234	-0.259954
C22	C	-3.631770	-0.370129	-0.251546
C23	C	-3.655175	-0.452996	-0.250816
C24	C	-3.848227	-0.498481	-0.254664
N25	N	-4.044476	-0.623801	-0.257351
N26	N	-3.872132	-0.583184	-0.253925
C27	C	-3.802884	-0.105136	-0.405620
C28	C	-3.844557	-0.104691	-0.499400
C29	C	-3.995817	-0.103093	-0.840153
C30	C	-4.199237	-0.108356	-0.809701
C31	C	-4.155937	-0.108514	-0.712109
C32	C	-3.920777	-0.103886	-0.671101
C33	C	-3.800012	-0.025198	-0.691369
C34	C	-3.844733	-0.024708	-0.788968
C35	C	-3.895339	-0.176238	-0.813979
C36	C	-3.856479	-0.177791	-0.716661
C37	C	-3.878354	-0.104332	-0.575560
C38	C	-4.038231	-0.102642	-0.935693
C39	C	-4.160836	0.037571	-0.254370
C40	C	-4.115162	0.125764	-0.255150
C41	C	-4.134470	-0.101846	-0.105636
C42	C	-4.072037	-0.102288	-0.011855
H43	H	-3.783980	-0.859180	-0.247593
H44	H	-4.175063	-0.498131	-0.262363
Br45	Br	-4.327203	-0.020788	-0.839018
H46	H	-3.741549	-0.708853	-0.248911
H47	H	-3.844169	0.029697	-0.659374
Br48	Br	-4.491674	-0.703268	-0.266655
Br49	Br	-4.005711	-0.274754	-0.696716
H50	H	-3.474595	-0.333086	-0.248414
Br51	Br	-3.424918	-0.503716	-0.244591
Br52	Br	-3.592121	-0.012889	-0.821027
H53	H	-4.211648	-0.055830	-0.681784
Br54	Br	-4.546816	-0.898595	-0.264946
H55	H	-3.911526	0.030621	-0.804171
H56	H	-4.132617	-0.347801	-0.263664
H57	H	-3.627471	-0.018949	-0.663885
Br58	Br	-4.065391	-0.274793	-0.873645
Br59	Br	-3.574604	-0.179822	-0.670974
H60	H	-4.250524	-0.165074	-0.699197
Br61	Br	-4.393045	-0.202325	-0.867216
H62	H	-3.744086	-0.173008	-0.833142
