data_functionalizedCrystal
_audit_creation_method	'MofGen! by Chris Wilmer'
_symmetry_space_group_name_H-M	'P1'
_symmetry_Int_Tables_number	1
_symmetry_cell_setting	triclinic
loop_
_symmetry_equiv_pos_as_xyz
  x,y,z
_cell_length_a	12.759400
_cell_length_b	12.759401
_cell_length_c	12.759393
_cell_angle_alpha	90.019003
_cell_angle_beta	89.968231
_cell_angle_gamma	89.989346
loop_
_atom_site_label
_atom_site_type_symbol
_atom_site_fract_x
_atom_site_fract_y
_atom_site_fract_z
Zn1	Zn	-0.418315	-1.606244	-0.594027
Zn2	Zn	-0.594035	-1.606142	-0.418347
Zn3	Zn	-0.418358	-1.430549	-0.418361
Zn4	Zn	-0.593940	-1.430535	-0.593983
O5	O	-0.506162	-1.518367	-0.506180
O6	O	-0.441646	-1.753251	-0.570735
O7	O	-0.570788	-1.582812	-0.271328
O8	O	-0.271331	-1.453905	-0.441688
O9	O	-0.570747	-1.753176	-0.441663
O10	O	-0.271300	-1.582987	-0.570749
O11	O	-0.441719	-1.453805	-0.271338
O12	O	-0.441628	-1.283526	-0.441646
O13	O	-0.570586	-1.453879	-0.741010
O14	O	-0.570627	-1.283516	-0.570675
O15	O	-0.441555	-1.582972	-0.741042
O16	O	-0.741043	-1.582798	-0.441621
O17	O	-0.740974	-1.453780	-0.570661
C18	C	-0.506123	-1.245400	-0.506158
C19	C	-0.506131	-1.128623	-0.506173
C20	C	-0.439033	-1.073794	-0.573483
C21	C	-0.439047	-0.964069	-0.573487
C22	C	-0.573267	-0.964015	-0.438867
C23	C	-0.573247	-1.073737	-0.438859
C24	C	-0.361544	-1.073824	-0.651208
C25	C	-0.361559	-0.964100	-0.651212
C26	C	-0.779129	-1.518305	-0.506158
C27	C	-0.895906	-1.518374	-0.506183
C28	C	-0.950769	-1.585629	-0.439067
C29	C	-1.060493	-1.585693	-0.439099
C30	C	-1.060481	-1.451240	-0.573368
C31	C	-0.950759	-1.451182	-0.573340
C32	C	-0.950777	-1.663251	-0.361545
C33	C	-1.060501	-1.663315	-0.361577
C34	C	-0.232129	-1.518459	-0.506225
C35	C	-0.115352	-1.518497	-0.506244
C36	C	-0.506055	-1.518436	-0.780213
C37	C	-0.506009	-1.518465	-0.896990
C38	C	-0.506189	-0.792401	-0.506195
C39	C	-0.506166	-0.909177	-0.506185
C40	C	-0.438791	-1.451319	-0.951863
C41	C	-0.438760	-1.451351	-1.061587
C42	C	-0.573168	-1.585683	-1.061555
C43	C	-0.573204	-1.585645	-0.951833
C44	C	-0.361188	-1.373767	-0.951883
C45	C	-0.361156	-1.373799	-1.061607
C46	C	-0.506193	-1.518360	-0.233212
C47	C	-0.505942	-1.518534	-0.116436
H48	H	-0.280143	-1.103591	-0.629555
C49	C	-0.890408	-1.377216	-0.647177
H50	H	-0.817205	-1.386810	-0.637552
H51	H	-0.908451	-1.306641	-0.631757
H52	H	-0.908325	-1.392583	-0.717786
H53	H	-0.390778	-1.107888	-0.728447
C54	C	-0.910436	-1.773128	-0.391072
H55	H	-0.835978	-1.773085	-0.391041
H56	H	-0.935177	-1.791283	-0.458894
H57	H	-0.935253	-1.822802	-0.341479
C58	C	-0.400483	-1.269379	-1.107579
H59	H	-0.418012	-1.222854	-1.052125
H60	H	-0.460729	-1.281849	-1.149470
H61	H	-0.346954	-1.239008	-1.149494
C62	C	-0.390622	-1.263827	-0.911640
H63	H	-0.390634	-1.263806	-0.837182
H64	H	-0.458411	-1.245633	-0.936433
H65	H	-0.340963	-1.214220	-0.936464
H66	H	-0.916828	-1.634127	-0.284218
H67	H	-1.105156	-1.396535	-0.628045
H68	H	-1.094451	-1.740619	-0.390791
H69	H	-0.283911	-1.402931	-0.917868
C70	C	-1.100849	-1.633942	-0.251648
H71	H	-1.042985	-1.621808	-0.206419
H72	H	-1.142190	-1.689664	-0.224666
H73	H	-1.142252	-1.572212	-0.256044
C74	C	-0.257100	-0.918105	-0.612035
H75	H	-0.210569	-0.973548	-0.594592
H76	H	-0.269515	-0.876177	-0.551758
H77	H	-0.226765	-0.876224	-0.665600
C78	C	-0.647148	-1.659501	-0.891475
H79	H	-0.687151	-1.699521	-0.939854
H80	H	-0.692928	-1.619280	-0.848660
H81	H	-0.606975	-1.705285	-0.848685
C82	C	-0.251234	-1.403303	-1.101870
H83	H	-0.206051	-1.415426	-1.043970
H84	H	-0.224172	-1.347640	-1.143236
H85	H	-0.255668	-1.465065	-1.143231
H86	H	-0.627875	-1.640379	-1.106221
C87	C	-0.647046	-1.134047	-0.364810
H88	H	-0.687024	-1.085641	-0.324730
H89	H	-0.606789	-1.176831	-0.319105
H90	H	-0.692872	-1.176865	-0.404916
C91	C	-0.647096	-0.903637	-0.364836
H92	H	-0.637504	-0.830437	-0.374484
H93	H	-0.631638	-0.921591	-0.294271
H94	H	-0.717705	-0.921623	-0.380098
H95	H	-0.383452	-0.934353	-0.732547
