data_functionalizedCrystal
_audit_creation_method	'MofGen! by Chris Wilmer'
_symmetry_space_group_name_H-M	'P1'
_symmetry_Int_Tables_number	1
_symmetry_cell_setting	triclinic
loop_
_symmetry_equiv_pos_as_xyz
  x,y,z
_cell_length_a	19.805407
_cell_length_b	19.805405
_cell_length_c	19.805407
_cell_angle_alpha	90.015038
_cell_angle_beta	90.007450
_cell_angle_gamma	90.023727
loop_
_atom_site_label
_atom_site_type_symbol
_atom_site_fract_x
_atom_site_fract_y
_atom_site_fract_z
Zn1	Zn	1.034666	-0.269623	0.382679
Zn2	Zn	1.034602	-0.382783	0.269488
Zn3	Zn	0.921502	-0.269608	0.269507
Zn4	Zn	0.921445	-0.382770	0.382638
O5	O	0.978054	-0.326196	0.326078
O6	O	1.129374	-0.284645	0.367673
O7	O	1.019596	-0.367769	0.174774
O8	O	0.936564	-0.174893	0.284546
O9	O	1.129327	-0.367784	0.284512
O10	O	1.019706	-0.174904	0.367692
O11	O	0.936501	-0.284620	0.174788
O12	O	0.826777	-0.284607	0.284505
O13	O	0.936467	-0.367761	0.477360
O14	O	0.826736	-0.367747	0.367622
O15	O	1.019651	-0.284633	0.477390
O16	O	1.019540	-0.477498	0.284472
O17	O	0.936404	-0.477488	0.367603
C18	C	0.802198	-0.326175	0.326062
C19	C	0.726966	-0.326182	0.326071
C20	C	0.691647	-0.282968	0.369439
C21	C	0.620958	-0.282972	0.369441
C22	C	0.585590	-0.326193	0.326079
C23	C	0.620914	-0.369408	0.282706
C24	C	0.691601	-0.369401	0.282701
C25	C	0.335840	-0.369439	0.282727
C26	C	0.265148	-0.369444	0.282737
C27	C	0.265198	-0.283010	0.369468
C28	C	0.335885	-0.283002	0.369462
C29	C	0.371203	-0.326215	0.326087
C30	C	0.447851	-0.326210	0.326084
C31	C	0.508943	-0.326202	0.326085
C32	C	0.977977	-0.502052	0.326045
C33	C	0.978007	-0.577284	0.326054
C34	C	1.021338	-0.612610	0.282813
C35	C	1.021366	-0.683299	0.282828
C36	C	0.978060	-0.718659	0.326081
C37	C	0.934727	-0.683328	0.369327
C38	C	0.934703	-0.612641	0.369315
C39	C	0.934827	-0.968401	0.369377
C40	C	0.934854	-1.039093	0.369384
C41	C	1.021491	-1.039059	0.282890
C42	C	1.021466	-0.968372	0.282878
C43	C	0.978136	-0.933047	0.326126
C44	C	0.978107	-0.856398	0.326110
C45	C	0.978086	-0.795306	0.326094
C46	C	1.154596	-0.326218	0.326095
C47	C	1.229828	-0.326227	0.326102
C48	C	0.978060	-0.326197	0.502621
C49	C	0.978062	-0.326198	0.577853
C50	C	0.978148	-0.149653	0.326126
C51	C	0.978189	-0.074421	0.326146
C52	C	1.021370	-0.282919	0.613214
C53	C	1.021365	-0.282917	0.683902
C54	C	0.978053	-0.326198	0.719228
C55	C	0.934740	-0.369478	0.683862
C56	C	0.934743	-0.369476	0.613175
C57	C	0.934727	-0.369486	0.968936
C58	C	0.934729	-0.369486	1.039628
C59	C	1.021348	-0.282927	1.039663
C60	C	1.021351	-0.282925	0.968976
C61	C	0.978036	-0.326203	0.933616
C62	C	0.978042	-0.326203	0.856967
C63	C	0.978050	-0.326201	0.795876
C64	C	0.978041	-0.326208	1.150222
C65	C	0.978034	-0.326203	1.074990
H66	H	0.720439	-0.247774	0.404751
H67	H	0.364587	-0.404626	0.247409
H68	H	1.056642	-0.247677	0.584456
Cl69	Cl	0.880276	-0.423899	1.084037
Cl70	Cl	0.576450	-0.423740	0.228189
H71	H	0.236434	-0.247822	0.404783
H72	H	0.899473	-0.404715	0.712631
Cl73	Cl	0.880294	-0.423883	0.568721
Cl74	Cl	1.075779	-0.568164	0.228430
Cl75	Cl	0.880229	-0.568230	0.423679
Cl76	Cl	0.576561	-0.228646	0.423966
Cl77	Cl	0.736002	-0.423729	0.228179
Cl78	Cl	0.220686	-0.423782	0.228218
H79	H	1.056650	-0.712059	0.247616
Cl80	Cl	1.075842	-0.228537	0.728353
Cl81	Cl	1.075804	-0.228515	0.924570
Cl82	Cl	0.380344	-0.228668	0.423980
H83	H	1.056775	-1.067830	0.247678
Cl84	Cl	1.075911	-0.923923	0.228501
Cl85	Cl	0.880409	-1.083545	0.423765
Cl86	Cl	0.880354	-0.924001	0.423745
Cl87	Cl	0.880289	-0.727781	0.423706
H88	H	0.899467	-0.404735	0.940154
Cl89	Cl	1.075800	-0.228517	1.084119
