data_functionalizedCrystal
_audit_creation_method	'MofGen! by Chris Wilmer'
_symmetry_space_group_name_H-M	'P1'
_symmetry_Int_Tables_number	1
_symmetry_cell_setting	triclinic
loop_
_symmetry_equiv_pos_as_xyz
  x,y,z
_cell_length_a	19.077236
_cell_length_b	19.077078
_cell_length_c	17.077396
_cell_angle_alpha	87.735096
_cell_angle_beta	92.321175
_cell_angle_gamma	94.710072
loop_
_atom_site_label
_atom_site_type_symbol
_atom_site_fract_x
_atom_site_fract_y
_atom_site_fract_z
Zn1	Zn	1.066453	-0.237446	0.502323
Zn2	Zn	1.061620	-0.355343	0.376108
Zn3	Zn	0.948561	-0.242196	0.365991
Zn4	Zn	0.943786	-0.360025	0.502252
O5	O	1.005105	-0.298753	0.436668
O6	O	1.164464	-0.249138	0.489844
O7	O	1.046599	-0.340363	0.264919
O8	O	0.968221	-0.142914	0.379872
O9	O	1.160914	-0.335756	0.397114
O10	O	1.054835	-0.139424	0.480034
O11	O	0.963535	-0.257234	0.257486
O12	O	0.849275	-0.261774	0.379803
O13	O	0.960082	-0.343736	0.612108
O14	O	0.845767	-0.348342	0.479913
O15	O	1.050205	-0.253677	0.612160
O16	O	1.041968	-0.454616	0.397046
O17	O	0.955396	-0.458056	0.489723
C18	C	0.821942	-0.306082	0.428753
C19	C	0.743583	-0.309235	0.425386
C20	C	0.997659	-0.481915	0.444492
C21	C	0.994537	-0.560270	0.447869
C22	C	0.972149	-1.001520	0.472112
C23	C	0.975082	-0.927897	0.468931
C24	C	1.021655	-0.889272	0.419126
C25	C	1.065304	-0.924274	0.372505
C26	C	1.062375	-0.997895	0.375690
C27	C	1.035257	-0.668893	0.404433
C28	C	1.038182	-0.595267	0.401249
C29	C	0.947960	-0.598895	0.497677
C30	C	0.945031	-0.672517	0.500854
C31	C	0.988683	-0.707513	0.454236
N32	N	1.024652	-0.814018	0.415872
N33	N	0.985689	-0.782765	0.457495
C34	C	0.708616	-0.265690	0.472163
C35	C	0.634990	-0.268649	0.468992
C36	C	0.596332	-0.315157	0.419048
C37	C	0.631304	-0.358704	0.372266
C38	C	0.704929	-0.355741	0.375433
C39	C	0.375938	-0.328843	0.404387
C40	C	0.302308	-0.331804	0.401225
C41	C	0.306000	-0.241748	0.497951
C42	C	0.379626	-0.238792	0.501117
C43	C	0.414592	-0.282337	0.454332
N44	N	0.521074	-0.318184	0.415808
N45	N	0.489848	-0.279305	0.457568
C46	C	1.188983	-0.291395	0.444616
C47	C	1.267342	-0.288259	0.448002
C48	C	1.005150	-0.298699	0.641412
C49	C	1.005169	-0.298676	0.728662
C50	C	1.012600	-0.114874	0.428832
C51	C	1.015793	-0.036516	0.425493
C52	C	1.005103	-0.298754	0.232721
C53	C	1.005229	-0.298572	0.145469
C54	C	1.052098	-0.251779	0.769681
C55	C	1.052107	-0.251755	0.851660
C56	C	1.005191	-0.298632	0.892621
C57	C	0.958257	-0.345532	0.851596
C58	C	0.958244	-0.345552	0.769618
C59	C	0.958287	-0.345488	1.022466
C60	C	0.958300	-0.345470	1.104450
C61	C	1.052149	-0.251692	1.104509
C62	C	1.052137	-0.251712	1.022530
C63	C	1.005204	-0.298612	0.981511
H64	H	0.934225	-1.032963	0.512670
F65	F	1.102100	-0.201777	1.148164
F66	F	1.081715	-0.706128	0.354816
F67	F	1.102078	-0.201864	0.895314
F68	F	0.742142	-0.402088	0.325647
F69	F	1.087747	-0.554161	0.348229
F70	F	0.749753	-0.216193	0.525324
F71	F	0.908322	-0.395420	0.895191
H72	H	0.920023	-0.383734	0.736221
H73	H	0.411097	-0.200923	0.541790
F74	F	0.413142	-0.375175	0.354579
H75	H	1.090345	-0.213544	0.989183
F76	F	0.597779	-0.222303	0.518781
F77	F	1.102037	-0.201888	0.726095
H78	H	0.920095	-0.383640	1.137798
H79	H	0.920058	-0.383669	0.989070
H80	H	1.097917	-1.026388	0.337730
H81	H	0.277523	-0.206296	0.536040
F82	F	0.590159	-0.408197	0.319107
F83	F	0.895469	-0.713619	0.553873
F84	F	0.928631	-0.890654	0.518553
H85	H	0.912421	-0.570395	0.535632
F86	F	1.114876	-0.883164	0.319503
F87	F	0.261166	-0.381320	0.348080
