data_functionalizedCrystal
_audit_creation_method	'MofGen! by Chris Wilmer'
_symmetry_space_group_name_H-M	'P1'
_symmetry_Int_Tables_number	1
_symmetry_cell_setting	triclinic
loop_
_symmetry_equiv_pos_as_xyz
  x,y,z
_cell_length_a	15.698487
_cell_length_b	12.970454
_cell_length_c	12.970454
_cell_angle_alpha	59.999776
_cell_angle_beta	90.001156
_cell_angle_gamma	60.000110
loop_
_atom_site_label
_atom_site_type_symbol
_atom_site_fract_x
_atom_site_fract_y
_atom_site_fract_z
Zr1	Zr	0.820631	1.128496	-0.135269
O2	O	0.684614	1.343590	-0.299900
O3	O	0.862328	0.913405	-0.084800
O4	O	0.862329	1.128494	-0.299891
O5	O	0.684612	1.128501	0.084858
O6	O	1.002513	1.128490	-0.299884
O7	O	0.684613	1.128501	-0.084809
O8	O	1.002511	0.743734	0.084874
O9	O	0.684614	1.513258	-0.299900
O10	O	0.984729	1.001871	-0.063272
O11	O	0.880110	1.001875	0.063344
O12	O	0.880111	1.255115	-0.189898
O13	O	0.775493	1.255119	-0.063282
Zr14	Zr	1.044208	1.128491	0.135340
Zr15	Zr	1.044209	1.128490	-0.135259
Zr16	Zr	0.820629	1.128498	0.135330
Zr17	Zr	0.820631	1.399096	-0.135270
Zr18	Zr	1.044208	0.857891	0.135341
O19	O	1.002511	1.343583	0.084871
O20	O	1.002513	1.343581	-0.299886
O21	O	0.684612	1.343592	0.084857
O22	O	1.180225	0.913397	0.299971
O23	O	1.180227	0.913395	-0.084786
O24	O	0.862325	0.913407	0.299956
O25	O	1.180227	1.128486	-0.084787
O26	O	1.002510	1.128493	0.299962
O27	O	0.862325	1.128497	0.299955
O28	O	1.180226	1.128487	0.084880
O29	O	0.862329	1.513252	-0.299893
O30	O	1.002510	0.743735	0.299964
O31	O	1.180224	0.743730	0.299971
O32	O	1.180226	0.743729	0.084882
O33	O	0.684613	1.513259	-0.084811
O34	O	0.862328	1.513254	-0.084803
O35	O	0.984727	1.001872	0.189969
O36	O	1.089346	1.001869	0.063353
O37	O	0.984729	1.255113	-0.063273
O38	O	0.880110	1.255117	0.063343
C39	C	0.932419	0.790015	0.000037
C40	C	0.932419	0.675138	0.000038
C41	C	0.652757	1.128502	0.000023
C42	C	0.557842	1.128505	0.000019
C43	C	0.480760	1.128508	0.000021
C44	C	0.384063	1.128500	0.000035
C45	C	1.212081	1.128486	0.000048
C46	C	1.306996	1.128483	0.000052
C47	C	0.932421	1.128492	-0.338442
C48	C	0.932422	1.128491	-0.453318
C49	C	0.932419	1.466973	0.000034
C50	C	0.932419	1.581850	0.000033
C51	C	0.932417	1.128496	0.338513
C52	C	0.932417	1.128496	0.453389
C53	C	1.212081	0.790006	0.000050
C54	C	1.306996	0.675127	0.000054
C55	C	0.932417	0.790016	0.338515
C56	C	0.932417	0.675140	0.453391
C57	C	1.212079	0.790008	0.338527
C58	C	1.306993	0.675129	0.453408
C59	C	0.652759	1.466979	-0.338456
C60	C	0.557845	1.581858	-0.453337
C61	C	0.652757	1.466981	0.000021
C62	C	0.557843	1.581861	0.000017
C63	C	0.932421	1.466971	-0.338444
C64	C	0.932422	1.581847	-0.453321
C65	C	1.296960	0.621180	-0.066052
C66	C	1.386134	0.513253	-0.066072
C67	C	1.485343	0.459268	0.000021
C68	C	1.495377	0.513226	0.066129
C69	C	1.406204	0.621158	0.066141
C70	C	1.406185	0.621179	0.441265
C71	C	1.495376	0.513253	0.549198
C72	C	1.485372	0.459272	0.669272
C73	C	1.386170	0.513233	0.681412
C74	C	1.296981	0.621164	0.573481
C75	C	0.458653	1.635822	-0.441194
C76	C	0.369463	1.743781	-0.549127
C77	C	0.379467	1.797768	-0.669201
C78	C	0.478669	1.743800	-0.681341
C79	C	0.567857	1.635850	-0.573410
C80	C	0.567879	1.635819	0.066111
C81	C	0.478705	1.743776	0.066102
C82	C	0.379496	1.797764	0.000005
C83	C	0.369461	1.743801	-0.066098
C84	C	0.458634	1.635854	-0.066095
H85	H	1.216187	0.665133	-0.119888
C86	C	0.675621	1.576972	-0.586403
C87	C	0.730029	1.426778	-0.528283
C88	C	0.829309	1.372499	-0.540215
H89	H	0.668957	1.624415	-0.673314
H90	H	0.712733	1.594572	-0.546986
H91	H	0.692925	1.409191	-0.567703
H92	H	0.736721	1.379298	-0.441369
H93	H	0.866421	1.390099	-0.500798
H94	H	0.822635	1.419952	-0.627128
H95	H	0.866241	1.270586	-0.500773
H96	H	1.377943	0.469333	-0.119905
C97	C	0.261740	1.802616	-0.536002
C98	C	0.207355	1.952793	-0.594048
C99	C	0.108127	2.007032	-0.581965
H100	H	0.224544	1.785092	-0.575380
H101	H	0.268520	1.755074	-0.449042
H102	H	0.200570	2.000320	-0.680992
H103	H	0.244519	1.970357	-0.554683
H104	H	0.114907	1.959490	-0.495005
H105	H	0.070941	1.989498	-0.621343
H106	H	0.071218	2.108929	-0.621336
H107	H	1.558003	0.371387	0.757146
H108	H	0.486802	1.787770	-0.779118
H109	H	0.306835	1.885667	-0.757075
H110	H	1.557945	0.371382	0.000001
C111	C	1.603123	0.454322	0.138085
C112	C	1.657479	0.304137	0.230168
C113	C	1.756736	0.249814	0.296496
H114	H	1.640312	0.471851	0.081176
H115	H	1.596390	0.501807	0.177546
H116	H	1.664217	0.256668	0.190708
H117	H	1.620322	0.286568	0.287103
H118	H	1.750002	0.297299	0.335957
H119	H	1.793915	0.267354	0.239578
H120	H	1.793625	0.147912	0.358989
C121	C	1.603142	0.454388	0.536198
C122	C	1.657563	0.304188	0.594343
C123	C	1.756843	0.249915	0.582410
H124	H	1.596477	0.501816	0.449287
H125	H	1.640245	0.472011	0.575597
H126	H	1.620469	0.286576	0.554939
H127	H	1.664256	0.256722	0.681257
H128	H	1.793947	0.267538	0.621810
H129	H	1.750168	0.297353	0.495497
H130	H	1.793784	0.147997	0.621869
C131	C	0.675676	1.576988	0.137849
C132	C	0.751637	1.470874	0.123744
C133	C	0.850947	1.416647	0.189822
H134	H	0.683642	1.654339	0.105267
H135	H	0.683554	1.534805	0.224835
H136	H	0.743762	1.513057	0.036776
H137	H	0.743705	1.393496	0.156332
H138	H	0.858826	1.374464	0.276807
H139	H	0.858903	1.494008	0.157234
H140	H	0.902499	1.344634	0.180270
H141	H	1.414390	0.665069	0.119980
C142	C	1.189379	0.679479	0.586939
C143	C	1.199722	0.609063	0.715199
C144	C	1.100624	0.662725	0.727655
H145	H	1.152213	0.781373	0.547685
H146	H	1.152311	0.661726	0.547654
H147	H	1.236774	0.626828	0.754468
H148	H	1.236870	0.507172	0.754480
H149	H	1.063556	0.644971	0.688370
H150	H	1.063466	0.764617	0.688395
H151	H	1.107628	0.614946	0.814679
H152	H	0.486895	1.787694	0.119936
H153	H	1.414351	0.665115	0.343505
H154	H	1.378040	0.469266	0.779191
H155	H	0.306894	1.885661	0.000014
H156	H	0.450488	1.591872	-0.343434
H157	H	0.288674	1.787775	-0.119912
H158	H	0.450448	1.591924	-0.119914
