data_functionalizedCrystal
_audit_creation_method	'MofGen! by Chris Wilmer'
_symmetry_space_group_name_H-M	'P1'
_symmetry_Int_Tables_number	1
_symmetry_cell_setting	triclinic
loop_
_symmetry_equiv_pos_as_xyz
  x,y,z
_cell_length_a	12.784905
_cell_length_b	12.811434
_cell_length_c	7.540329
_cell_angle_alpha	95.430242
_cell_angle_beta	89.996504
_cell_angle_gamma	78.599979
loop_
_atom_site_label
_atom_site_type_symbol
_atom_site_fract_x
_atom_site_fract_y
_atom_site_fract_z
O1	O	1.410342	0.006572	-0.146435
O2	O	1.101085	0.051503	-0.139207
O3	O	1.263496	-0.124464	-0.167507
O4	O	1.247930	0.182540	-0.118136
O5	O	1.263487	-0.124465	0.127458
O6	O	1.101075	0.051502	0.155757
O7	O	1.410332	0.006571	0.148530
Cu8	Cu	1.255703	0.029037	0.179076
Cu9	Cu	1.255714	0.029038	-0.169754
O10	O	1.247920	0.182538	0.176829
C11	C	1.262620	-0.163489	-0.026304
C12	C	1.260011	-0.279768	-0.045015
C13	C	1.061493	0.054425	0.008745
C14	C	0.943538	0.063120	0.010144
C15	C	1.256334	-0.443657	-0.232146
C16	C	1.258790	-0.334403	-0.214584
C17	C	1.258780	-0.334396	0.107004
C18	C	1.256324	-0.443649	0.089443
C19	C	1.255100	-0.498276	-0.080138
C20	C	1.252637	-0.607530	-0.097697
C21	C	1.252635	-0.607522	0.223889
C22	C	1.255090	-0.498269	0.241450
C23	C	0.746373	-0.114026	-0.018376
C24	C	0.635544	-0.105861	-0.017063
C25	C	0.611049	0.087612	0.014071
C26	C	0.721878	0.079448	0.012757
C27	C	0.789537	-0.021375	-0.003464
C28	C	0.900368	-0.029538	-0.004764
C29	C	0.875870	0.163935	0.026356
C30	C	0.765041	0.172099	0.027670
C31	C	1.449923	0.003649	0.000573
C32	C	1.567879	-0.005046	-0.000837
C33	C	1.248797	0.221563	0.035622
C34	C	1.251405	0.337843	0.054322
N35	N	1.255702	0.029034	0.424424
N36	N	1.255723	0.029031	-0.415104
H37	H	1.255321	-0.488131	-0.370224
H38	H	0.955455	-0.111633	-0.017969
O39	O	0.811951	-0.212041	-0.034221
C40	C	0.750087	-0.292070	-0.047046
H41	H	0.667494	-0.257892	-0.097388
H42	H	0.790678	-0.362082	-0.143945
H43	H	0.742064	-0.320948	0.089820
O44	O	0.593565	-0.195831	-0.031853
C45	C	0.530172	-0.196878	-0.184764
H46	H	0.556623	-0.144439	-0.283099
H47	H	0.539750	-0.282340	-0.249795
H48	H	0.442885	-0.164704	-0.145047
H49	H	0.555943	0.169697	0.027254
H50	H	0.911025	0.239378	0.038508
H51	H	1.259788	-0.289902	0.245068
O52	O	0.699205	0.269972	0.043185
C53	C	0.634388	0.280506	-0.107909
H54	H	0.628421	0.197744	-0.172168
H55	H	0.551267	0.327184	-0.066038
H56	H	0.671059	0.325106	-0.207697
H57	H	1.251632	-0.652003	-0.235778
O58	O	1.259934	-0.281496	-0.362427
C59	C	1.258356	-0.353150	-0.515860
H60	H	1.223008	-0.423617	-0.480047
H61	H	1.207548	-0.310220	-0.621415
H62	H	1.343231	-0.383554	-0.570188
H63	H	1.256091	-0.453778	0.379518
H64	H	1.251622	-0.652003	0.347666
