data_functionalizedCrystal
_audit_creation_method	'MofGen! by Chris Wilmer'
_symmetry_space_group_name_H-M	'P1'
_symmetry_Int_Tables_number	1
_symmetry_cell_setting	triclinic
loop_
_symmetry_equiv_pos_as_xyz
  x,y,z
_cell_length_a	19.288864
_cell_length_b	10.540539
_cell_length_c	17.766277
_cell_angle_alpha	89.995823
_cell_angle_beta	89.976791
_cell_angle_gamma	83.830869
loop_
_atom_site_label
_atom_site_type_symbol
_atom_site_fract_x
_atom_site_fract_y
_atom_site_fract_z
O1	O	0.922410	0.158345	-0.062832
O2	O	1.422410	0.658345	0.437168
O3	O	0.720292	0.179706	-0.062781
O4	O	1.220292	0.679706	0.437219
O5	O	0.825962	-0.015784	-0.062807
O6	O	1.325962	0.484216	0.437193
O7	O	0.816739	0.353835	-0.062806
O8	O	1.316739	0.853835	0.437194
O9	O	0.825943	-0.015794	0.062382
O10	O	1.325943	0.484206	0.562382
O11	O	0.720273	0.179696	0.062408
O12	O	1.220273	0.679696	0.562408
O13	O	0.922391	0.158335	0.062356
O14	O	1.422391	0.658335	0.562356
Cu15	Cu	0.821330	0.169015	0.073813
Cu16	Cu	1.321330	0.669015	0.573813
Cu17	Cu	0.821352	0.169026	-0.074237
Cu18	Cu	1.321352	0.669026	0.425763
O19	O	0.816721	0.353825	0.062382
O20	O	1.316721	0.853825	0.562382
C21	C	0.694401	0.179013	-0.000180
C22	C	1.194401	0.679013	0.499820
C23	C	0.617284	0.176950	-0.000160
C24	C	1.117284	0.676950	0.499840
C25	C	0.573353	0.291654	-0.000172
C26	C	1.073353	0.791654	0.499828
C27	C	0.500893	0.289716	-0.000180
C28	C	1.000893	0.789716	0.499820
C29	C	0.472367	0.173067	-0.000192
C30	C	0.972367	0.673067	0.499808
C31	C	0.516308	0.058347	-0.000176
C32	C	1.016308	0.558347	0.499824
C33	C	0.588766	0.060289	-0.000160
C34	C	1.088766	0.560289	0.499840
C35	C	0.363500	0.081371	-0.044076
C36	C	0.863500	0.581371	0.455924
C37	C	0.291042	0.079434	-0.044097
C38	C	0.791042	0.579434	0.455903
C39	C	0.248881	0.167074	-0.000237
C40	C	0.748881	0.667074	0.499763
C41	C	0.279185	0.256671	0.043633
C42	C	0.779185	0.756671	0.543633
C43	C	0.351644	0.258613	0.043649
C44	C	0.851644	0.758613	0.543649
C45	C	0.393799	0.170949	-0.000208
C46	C	0.893799	0.670949	0.499792
C47	C	0.126381	0.279684	-0.000257
C48	C	0.626381	0.779684	0.499743
C49	C	0.053919	0.277741	-0.000261
C50	C	0.553919	0.777741	0.499739
C51	C	0.069336	0.046369	-0.000264
C52	C	0.569336	0.546369	0.499736
C53	C	0.141795	0.048315	-0.000253
C54	C	0.641795	0.548315	0.499747
C55	C	0.170313	0.164976	-0.000253
C56	C	0.670313	0.664976	0.499747
C57	C	0.825261	-0.063076	-0.000214
C58	C	1.325261	0.436924	0.499786
C59	C	0.823192	-0.203978	-0.000217
C60	C	1.323192	0.296022	0.499783
C61	C	0.743903	-0.385638	-0.000478
C62	C	1.243903	0.114362	0.499522
C63	C	0.746000	-0.239067	-0.000197
C64	C	1.246000	0.260933	0.499803
C65	C	0.860329	-0.266470	0.071262
C66	C	1.360329	0.233530	0.571262
C67	C	0.857694	-0.412955	0.071323
C68	C	1.357694	0.087045	0.571323
C69	C	0.859286	-0.413497	-0.071040
C70	C	1.359286	0.086503	0.428960
C71	C	0.859997	-0.266531	-0.071986
C72	C	1.359997	0.233469	0.428014
C73	C	0.948281	0.159027	-0.000246
C74	C	1.448281	0.659027	0.499754
C75	C	1.025399	0.161091	-0.000271
C76	C	1.525399	0.661091	0.499729
C77	C	0.817422	0.401117	-0.000212
C78	C	1.317422	0.901117	0.499788
C79	C	0.819491	0.542019	-0.000214
C80	C	1.319491	1.042019	0.499786
N81	N	0.821320	0.169006	0.177943
N82	N	1.321320	0.669006	0.677943
N83	N	0.821368	0.169025	-0.178368
N84	N	1.321368	0.669025	0.321632
C85	C	0.868126	0.082485	0.217318
C86	C	1.368126	0.582485	0.717318
C87	C	0.868130	0.082479	0.296120
C88	C	1.368130	0.582479	0.796120
C89	C	0.821334	0.169016	0.335544
C90	C	1.321334	0.669016	0.835544
C91	C	0.774519	0.255543	0.296159
C92	C	1.274519	0.755543	0.796159
C93	C	0.774512	0.255538	0.217359
C94	C	1.274512	0.755538	0.717359
C95	C	0.812807	0.284670	0.460383
C96	C	1.312807	0.784670	0.960383
C97	C	0.812819	0.284676	0.539182
C98	C	1.312819	0.784676	1.039182
C99	C	0.821353	0.169031	0.578590
C100	C	1.321353	0.669031	1.078590
C101	C	0.829889	0.053373	0.539189
C102	C	1.329889	0.553373	1.039189
C103	C	0.829882	0.053368	0.460389
C104	C	1.329882	0.553368	0.960389
C105	C	0.821337	0.169030	0.420989
C106	C	1.321337	0.669030	0.920989
C107	C	0.868166	0.082497	0.703411
C108	C	1.368166	0.582497	1.203411
C109	C	0.868165	0.082489	0.782214
C110	C	1.368165	0.582489	1.282214
C111	C	0.774558	0.255564	0.782252
C112	C	1.274558	0.755564	1.282252
C113	C	0.774555	0.255560	0.703450
C114	C	1.274555	0.755560	1.203450
C115	C	0.821363	0.169028	0.664034
C116	C	1.321363	0.669028	1.164034
H117	H	0.397822	0.010002	-0.079796
H118	H	0.897822	0.510002	0.420204
H119	H	0.906238	0.012023	0.185229
H120	H	1.406238	0.512023	0.685229
H121	H	0.149601	0.374676	-0.000246
H122	H	0.649601	0.874676	0.499754
H123	H	0.805846	0.378849	0.428304
H124	H	1.305846	0.878849	0.928304
H125	H	0.834516	-0.223299	0.124468
H126	H	1.334516	0.276701	0.624468
H127	H	0.493077	-0.036629	-0.000196
H128	H	0.993077	0.463371	0.499804
Br129	Br	0.648391	-0.095394	-0.000142
Br130	Br	1.148391	0.404606	0.499858
H131	H	0.915041	-0.461966	-0.071535
H132	H	1.415041	0.038034	0.428465
H133	H	0.906246	0.012021	0.328185
H134	H	1.406246	0.512021	0.828185
Br135	Br	0.817653	-0.465133	-0.161341
Br136	Br	1.317653	0.034867	0.338659
Br137	Br	0.697295	-0.166959	-0.085598
Br138	Br	1.197295	0.333041	0.414402
H139	H	0.832824	-0.225063	-0.124864
H140	H	1.332824	0.274937	0.375136
H141	H	0.805873	0.378851	0.571256
H142	H	1.305873	0.878851	1.071256
Br143	Br	0.693088	-0.432160	-0.085913
Br144	Br	1.193088	0.067840	0.414087
H145	H	0.046111	-0.048609	-0.000320
H146	H	0.546111	0.451391	0.499680
H147	H	0.836837	-0.040796	0.571274
H148	H	1.336837	0.459204	1.071274
Br149	Br	0.711032	0.372990	0.650006
Br150	Br	1.211032	0.872990	1.150006
Br151	Br	0.693124	-0.435467	0.084243
Br152	Br	1.193124	0.064533	0.584243
H153	H	0.716558	-0.196659	0.051142
H154	H	1.216558	0.303341	0.551142
H155	H	0.177565	-0.045090	-0.000247
H156	H	0.677565	0.454910	0.499753
H157	H	0.736416	0.326000	0.328261
H158	H	1.236416	0.826000	0.828261
H159	H	0.376314	0.331562	0.079372
H160	H	0.876314	0.831562	0.579372
Br161	Br	0.841459	-0.103586	0.406919
Br162	Br	1.341459	0.396414	0.906919
H163	H	0.913209	-0.462161	0.074552
H164	H	1.413209	0.037839	0.574552
Br165	Br	0.710983	0.372966	0.163916
Br166	Br	1.210983	0.872966	0.663916
H167	H	0.830232	-0.440547	0.124769
H168	H	1.330232	0.059453	0.624769
H169	H	0.917016	-0.245379	0.073906
H170	H	1.417016	0.254621	0.573906
Br171	Br	0.612053	0.449979	-0.000170
Br172	Br	1.112053	0.949979	0.499830
Br173	Br	0.711041	0.372994	0.835748
Br174	Br	1.211041	0.872994	1.335748
Br175	Br	0.441260	0.445397	-0.000191
Br176	Br	0.941260	0.945397	0.499809
H177	H	0.906278	0.012033	0.671318
H178	H	1.406278	0.512033	1.171318
H179	H	0.916276	-0.243564	-0.076317
H180	H	1.416276	0.256436	0.423683
Br181	Br	0.931687	-0.034951	0.835657
Br182	Br	1.431687	0.465049	1.335657
H183	H	0.244859	0.328035	0.079348
H184	H	0.744859	0.828035	0.579348
H185	H	0.266374	0.006484	-0.079822
H186	H	0.766374	0.506484	0.420178
Br187	Br	-0.005704	0.433426	-0.000270
Br188	Br	0.494296	0.933426	0.499730
