data_functionalizedCrystal
_audit_creation_method	'MofGen! by Chris Wilmer'
_symmetry_space_group_name_H-M	'P1'
_symmetry_Int_Tables_number	1
_symmetry_cell_setting	triclinic
loop_
_symmetry_equiv_pos_as_xyz
  x,y,z
_cell_length_a	11.026607
_cell_length_b	9.482934
_cell_length_c	10.967971
_cell_angle_alpha	111.340944
_cell_angle_beta	96.380373
_cell_angle_gamma	78.635486
loop_
_atom_site_label
_atom_site_type_symbol
_atom_site_fract_x
_atom_site_fract_y
_atom_site_fract_z
O1	O	1.612865	0.010593	0.524834
O2	O	2.112865	0.510593	1.024834
O3	O	1.261461	-0.004833	0.463270
O4	O	1.761461	0.495167	0.963270
O5	O	1.452557	-0.043639	0.308348
O6	O	1.952557	0.456361	0.808348
O7	O	1.421769	0.049398	0.679756
O8	O	1.921769	0.549398	1.179756
O9	O	1.413733	0.206077	0.339979
O10	O	1.913733	0.706077	0.839979
O11	O	1.222638	0.244883	0.494901
O12	O	1.722638	0.744883	0.994901
O13	O	1.574042	0.260308	0.556466
O14	O	2.074042	0.760308	1.056466
Cu15	Cu	1.394795	0.275397	0.528572
Cu16	Cu	1.894795	0.775397	1.028572
Cu17	Cu	1.440708	-0.019921	0.491164
Cu18	Cu	1.940708	0.480079	0.991164
O19	O	1.382946	0.299114	0.711388
O20	O	1.882946	0.799114	1.211388
C21	C	1.197189	0.117179	0.467728
C22	C	1.697189	0.617179	0.967728
C23	C	1.063521	0.108696	0.433871
C24	C	1.563521	0.608696	0.933871
N25	N	1.362511	0.483107	0.554884
N26	N	1.862511	0.983107	1.054884
C27	C	0.986828	0.132113	0.527356
C28	C	1.486828	0.632113	1.027356
C29	C	0.848675	0.123346	0.492365
C30	C	1.348675	0.623346	0.992365
C31	C	1.431172	0.541288	0.498920
C32	C	1.931172	1.041288	0.998920
C33	C	1.404320	0.714193	0.520824
C34	C	1.904320	1.214193	1.020824
C35	C	1.638314	0.138293	0.552007
C36	C	2.138314	0.638293	1.052007
C37	C	1.771983	0.146766	0.585863
C38	C	2.271983	0.646766	1.085863
C39	C	1.433838	0.069120	0.275876
C40	C	1.933838	0.569120	0.775876
C41	C	1.435890	0.033067	0.131990
C42	C	1.935890	0.533067	0.631990
N43	N	1.472992	0.772368	0.464852
N44	N	1.972992	1.272368	0.964852
C45	C	1.416693	0.146352	0.084221
C46	C	1.916693	0.646352	0.584221
C47	C	1.418813	0.109093	-0.064492
C48	C	1.918813	0.609093	0.435508
C49	C	1.401664	0.186352	0.743860
C50	C	1.901664	0.686352	1.243860
C51	C	1.399614	0.222395	0.887744
C52	C	1.899614	0.722395	1.387744
H53	H	1.023446	0.158659	0.633297
H54	H	1.523446	0.658659	1.133297
H55	H	1.453901	-0.091504	0.062791
H56	H	1.953901	0.408496	0.562791
H57	H	1.026908	0.082120	0.327926
H58	H	1.526908	0.582120	0.827926
H59	H	1.381614	0.346976	-0.043061
H60	H	1.881614	0.846976	0.456939
H61	H	1.551656	0.694177	0.400712
H62	H	2.051656	1.194177	0.900712
Cl63	Cl	1.241051	0.603821	0.653889
Cl64	Cl	1.741051	1.103821	1.153889
H65	H	1.325647	0.792380	0.584952
H66	H	1.825647	1.292380	1.084952
H67	H	0.812068	0.096768	0.386413
H68	H	1.312068	0.596768	0.886413
Cl69	Cl	1.388902	0.338688	0.191051
Cl70	Cl	1.888902	0.838688	0.691051
Cl71	Cl	1.446623	-0.083250	-0.171317
Cl72	Cl	1.946623	0.416750	0.328683
Cl73	Cl	0.828496	0.187763	0.749443
Cl74	Cl	1.328496	0.687763	1.249443
Cl75	Cl	1.552363	0.420485	0.399554
Cl76	Cl	2.052363	0.920485	0.899554
