data_functionalizedCrystal
_audit_creation_method	'MofGen! by Chris Wilmer'
_symmetry_space_group_name_H-M	'P1'
_symmetry_Int_Tables_number	1
_symmetry_cell_setting	triclinic
loop_
_symmetry_equiv_pos_as_xyz
  x,y,z
_cell_length_a	19.077105
_cell_length_b	19.077600
_cell_length_c	19.076919
_cell_angle_alpha	94.656929
_cell_angle_beta	89.923776
_cell_angle_gamma	94.467655
loop_
_atom_site_label
_atom_site_type_symbol
_atom_site_fract_x
_atom_site_fract_y
_atom_site_fract_z
Zn1	Zn	1.071340	0.341570	0.454658
Zn2	Zn	1.321340	0.591570	0.704658
Zn3	Zn	1.571340	0.841570	0.954658
Zn4	Zn	1.821340	1.091570	1.204658
Zn5	Zn	1.080323	0.455092	0.341884
Zn6	Zn	1.330323	0.705092	0.591884
Zn7	Zn	1.580323	0.955092	0.841884
Zn8	Zn	1.830323	1.205092	1.091884
Zn9	Zn	0.958196	0.332112	0.332057
Zn10	Zn	1.208196	0.582112	0.582057
Zn11	Zn	1.458196	0.832112	0.832057
Zn12	Zn	1.708196	1.082112	1.082057
Zn13	Zn	0.958129	0.454667	0.454618
Zn14	Zn	1.208129	0.704667	0.704618
Zn15	Zn	1.458129	0.954667	0.954618
Zn16	Zn	1.708129	1.204667	1.204618
O17	O	1.016997	0.395860	0.395804
O18	O	1.266997	0.645860	0.645804
O19	O	1.516997	0.895860	0.895804
O20	O	1.766997	1.145860	1.145804
O21	O	1.171022	0.360766	0.443827
O22	O	1.421022	0.610766	0.693827
O23	O	1.671022	0.860766	0.943827
O24	O	1.921022	1.110766	1.193827
O25	O	1.067911	0.434999	0.242091
O26	O	1.317911	0.684999	0.492091
O27	O	1.567911	0.934999	0.742091
O28	O	1.817911	1.184999	0.992091
O29	O	0.969473	0.234568	0.344224
O30	O	1.219473	0.484568	0.594224
O31	O	1.469473	0.734568	0.844224
O32	O	1.719473	0.984568	1.094224
O33	O	1.177622	0.444170	0.360972
O34	O	1.427622	0.694170	0.610972
O35	O	1.677622	0.944170	0.860972
O36	O	1.927622	1.194170	1.110972
O37	O	1.052599	0.241517	0.434298
O38	O	1.302599	0.491517	0.684298
O39	O	1.552599	0.741517	0.934298
O40	O	1.802599	0.991517	1.184298
O41	O	0.978184	0.344646	0.234871
O42	O	1.228184	0.594646	0.484871
O43	O	1.478184	0.844646	0.734871
O44	O	1.728184	1.094646	0.984871
O45	O	0.859697	0.344233	0.344186
O46	O	1.109697	0.594233	0.594186
O47	O	1.359697	0.844233	0.844186
O48	O	1.609697	1.094233	1.094186
O49	O	0.969359	0.443444	0.553112
O50	O	1.219359	0.693444	0.803112
O51	O	1.469359	0.943444	1.053112
O52	O	1.719359	1.193444	1.303112
O53	O	0.859648	0.434273	0.434231
O54	O	1.109648	0.684273	0.684231
O55	O	1.359648	0.934273	0.934231
O56	O	1.609648	1.184273	1.184231
O57	O	1.052534	0.360353	0.553141
O58	O	1.302534	0.610353	0.803141
O59	O	1.552534	0.860353	1.053141
O60	O	1.802534	1.110353	1.303141
O61	O	1.067846	0.553835	0.360934
O62	O	1.317846	0.803835	0.610934
O63	O	1.567846	1.053835	0.860934
O64	O	1.817846	1.303835	1.110934
O65	O	0.978070	0.553522	0.443760
O66	O	1.228070	0.803522	0.693760
O67	O	1.478070	1.053522	0.943760
O68	O	1.728070	1.303522	1.193760
C69	C	0.834135	0.388181	0.388138
C70	C	1.084135	0.638181	0.638138
C71	C	1.334135	0.888181	0.888138
C72	C	1.584135	1.138181	1.138138
C73	C	0.755906	0.384913	0.384876
C74	C	1.005906	0.634913	0.634876
C75	C	1.255906	0.884913	0.884876
C76	C	1.505906	1.134913	1.134876
C77	C	0.719152	0.430322	0.430158
C78	C	0.969152	0.680322	0.680158
C79	C	1.219152	0.930322	0.930158
C80	C	1.469152	1.180322	1.180158
C81	C	0.645646	0.427243	0.427096
C82	C	0.895646	0.677243	0.677096
C83	C	1.145646	0.927243	0.927096
C84	C	1.395646	1.177243	1.177096
C85	C	0.608897	0.378757	0.378748
C86	C	0.858897	0.628757	0.628748
C87	C	1.108897	0.878757	0.878748
C88	C	1.358897	1.128757	1.128748
C89	C	0.645656	0.333343	0.333465
C90	C	0.895656	0.583343	0.583465
C91	C	1.145656	0.833343	0.833465
C92	C	1.395656	1.083343	1.083465
C93	C	0.719160	0.336420	0.336531
C94	C	0.969160	0.586420	0.586531
C95	C	1.219160	0.836420	0.836531
C96	C	1.469160	1.086420	1.086531
C97	C	0.389065	0.364518	0.364562
C98	C	0.639065	0.614518	0.614562
C99	C	0.889065	0.864518	0.864562
C100	C	1.139065	1.114518	1.114562
C101	C	0.315556	0.361447	0.361498
C102	C	0.565556	0.611447	0.611498
C103	C	0.815556	0.861447	0.861498
C104	C	1.065556	1.111447	1.111498
C105	C	0.315552	0.455346	0.455130
C106	C	0.565552	0.705346	0.705130
C107	C	0.815552	0.955346	0.955130
C108	C	1.065552	1.205346	1.205130
C109	C	0.389057	0.458421	0.458189
C110	C	0.639057	0.708421	0.708189
C111	C	0.889057	0.958421	0.958189
C112	C	1.139057	1.208421	1.208189
C113	C	0.425809	0.413005	0.412908
C114	C	0.675809	0.663005	0.662908
C115	C	0.925809	0.913005	0.912908
C116	C	1.175809	1.163005	1.162908
N117	N	0.533763	0.375610	0.375616
N118	N	0.783763	0.625610	0.625616
N119	N	1.033763	0.875610	0.875616
N120	N	1.283763	1.125610	1.125616
N121	N	0.500942	0.416149	0.416045
N122	N	0.750942	0.666149	0.666045
N123	N	1.000942	0.916149	0.916045
N124	N	1.250942	1.166149	1.166045
C125	C	1.023944	0.579297	0.403425
C126	C	1.273944	0.829297	0.653425
C127	C	1.523944	1.079297	0.903425
C128	C	1.773944	1.329297	1.153425
C129	C	1.026979	0.657776	0.406712
C130	C	1.276979	0.907776	0.656712
C131	C	1.526979	1.157776	0.906712
C132	C	1.776979	1.407776	1.156712
C133	C	1.048763	1.099911	0.430267
C134	C	1.298763	1.349911	0.680267
C135	C	1.548763	1.599911	0.930267
C136	C	1.798763	1.849911	1.180267
C137	C	1.045903	1.026172	0.427172
C138	C	1.295903	1.276172	0.677172
C139	C	1.545903	1.526172	0.927172
C140	C	1.795903	1.776172	1.177172
C141	C	1.001231	0.985751	0.378700
C142	C	1.251231	1.235751	0.628700
C143	C	1.501231	1.485751	0.878700
C144	C	1.751231	1.735751	1.128700
C145	C	0.959421	1.019073	0.333314
C146	C	1.209421	1.269073	0.583314
C147	C	1.459421	1.519073	0.833314
C148	C	1.709421	1.769073	1.083314
C149	C	0.962285	1.092811	0.336405
C150	C	1.212285	1.342811	0.586405
C151	C	1.462285	1.592811	0.836405
C152	C	1.712285	1.842811	1.086405
C153	C	0.988033	0.764836	0.364418
C154	C	1.238033	1.014836	0.614418
C155	C	1.488033	1.264836	0.864418
C156	C	1.738033	1.514836	1.114418
C157	C	0.985171	0.691093	0.361331
C158	C	1.235171	0.941093	0.611331
C159	C	1.485171	1.191093	0.861331
C160	C	1.735171	1.441093	1.111331
C161	C	1.071655	0.698197	0.455189
C162	C	1.321655	0.948197	0.705189
C163	C	1.571655	1.198197	0.955189
C164	C	1.821655	1.448197	1.205189
C165	C	1.074511	0.771936	0.458280
C166	C	1.324511	1.021936	0.708280
C167	C	1.574511	1.271936	0.958280
C168	C	1.824511	1.521936	1.208280
C169	C	1.032704	0.805252	0.412891
C170	C	1.282704	1.055252	0.662891
C171	C	1.532704	1.305252	0.912891
C172	C	1.782704	1.555252	1.162891
N173	N	0.998305	0.910377	0.375537
N174	N	1.248305	1.160377	0.625537
N175	N	1.498305	1.410377	0.875537
N176	N	1.748305	1.660377	1.125537
N177	N	1.035634	0.880624	0.416051
N178	N	1.285634	1.130624	0.666051
N179	N	1.535634	1.380624	0.916051
N180	N	1.785634	1.630624	1.166051
C181	C	1.200573	0.403570	0.403500
C182	C	1.450573	0.653570	0.653500
C183	C	1.700573	0.903570	0.903500
C184	C	1.950573	1.153570	1.153500
C185	C	1.278802	0.406856	0.406780
C186	C	1.528802	0.656856	0.656780
C187	C	1.778802	0.906856	0.906780
C188	C	2.028802	1.156856	1.156780
C189	C	1.010011	1.211707	0.388162
C190	C	1.260011	1.461707	0.638162
C191	C	1.510011	1.711707	0.888162
C192	C	1.760011	1.961707	1.138162
C193	C	1.006954	1.133228	0.384886
C194	C	1.256954	1.383228	0.634886
C195	C	1.506954	1.633228	0.884886
C196	C	1.756954	1.883228	1.134886
C197	C	1.009937	0.402906	0.579378
C198	C	1.259937	0.652906	0.829378
C199	C	1.509937	0.902906	1.079378
C200	C	1.759937	1.152906	1.329378
C201	C	1.006929	0.405909	0.657606
C202	C	1.256929	0.655909	0.907606
C203	C	1.506929	0.905909	1.157606
C204	C	1.756929	1.155909	1.407606
C205	C	1.024068	0.388793	0.212944
C206	C	1.274068	0.638793	0.462944
C207	C	1.524068	0.888793	0.712944
C208	C	1.774068	1.138793	0.962944
C209	C	1.027205	0.385597	0.134713
C210	C	1.277205	0.635597	0.384713
C211	C	1.527205	0.885597	0.634713
C212	C	1.777205	1.135597	0.884713
C213	C	1.048818	0.364060	0.694374
C214	C	1.298818	0.614060	0.944374
C215	C	1.548818	0.864060	1.194374
C216	C	1.798818	1.114060	1.444374
C217	C	1.045983	0.366878	0.767878
C218	C	1.295983	0.616878	1.017878
C219	C	1.545983	0.866878	1.267878
C220	C	1.795983	1.116878	1.517878
C221	C	1.001261	0.411549	0.804612
C222	C	1.251261	0.661549	1.054612
C223	C	1.501261	0.911549	1.304612
C224	C	1.751261	1.161549	1.554612
C225	C	0.959367	0.453399	0.767839
C226	C	1.209367	0.703399	1.017839
C227	C	1.459367	0.953399	1.267839
C228	C	1.709367	1.203399	1.517839
C229	C	0.962199	0.450577	0.694336
C230	C	1.212199	0.700577	0.944336
C231	C	1.462199	0.950577	1.194336
C232	C	1.712199	1.200577	1.444336
C233	C	0.988143	0.424625	1.024438
C234	C	1.238143	0.674625	1.274438
C235	C	1.488143	0.924625	1.524438
C236	C	1.738143	1.174625	1.774438
C237	C	0.985316	0.427446	1.097946
C238	C	1.235316	0.677446	1.347946
C239	C	1.485316	0.927446	1.597946
C240	C	1.735316	1.177446	1.847946
C241	C	1.071931	0.340923	1.097979
C242	C	1.321931	0.590923	1.347979
C243	C	1.571931	0.840923	1.597979
C244	C	1.821931	1.090923	1.847979
C245	C	1.074762	0.338108	1.024476
C246	C	1.324762	0.588108	1.274476
C247	C	1.574762	0.838108	1.524476
C248	C	1.824762	1.088108	1.774476
C249	C	1.032866	0.379956	0.987709
C250	C	1.282866	0.629956	1.237709
C251	C	1.532866	0.879956	1.487709
C252	C	1.782866	1.129956	1.737709
N253	N	0.998363	0.414432	0.879744
N254	N	1.248363	0.664432	1.129744
N255	N	1.498363	0.914432	1.379744
N256	N	1.748363	1.164432	1.629744
N257	N	1.035760	0.377068	0.912578
N258	N	1.285760	0.627068	1.162578
N259	N	1.535760	0.877068	1.412578
N260	N	1.785760	1.127068	1.662578
H261	H	0.418980	0.327542	0.327686
H262	H	0.668980	0.577542	0.577686
H263	H	0.918980	0.827542	0.827686
H264	H	1.168980	1.077542	1.077686
Cl265	Cl	0.269345	0.512438	0.512050
Cl266	Cl	0.519345	0.762438	0.762050
Cl267	Cl	0.769345	1.012438	1.012050
Cl268	Cl	1.019345	1.262438	1.262050
Cl269	Cl	0.269358	0.300493	0.300709
Cl270	Cl	0.519358	0.550493	0.550709
Cl271	Cl	0.769358	0.800493	0.800709
Cl272	Cl	1.019358	1.050493	1.050709
H273	H	0.418973	0.497905	0.497557
H274	H	0.668973	0.747905	0.747557
H275	H	0.918973	0.997905	0.997557
H276	H	1.168973	1.247905	1.247557
H277	H	0.749068	0.469807	0.469525
H278	H	0.999068	0.719807	0.719525
H279	H	1.249068	0.969807	0.969525
H280	H	1.499068	1.219807	1.219525
Cl281	Cl	0.599456	0.272384	0.272689
Cl282	Cl	0.849456	0.522384	0.522689
Cl283	Cl	1.099456	0.772384	0.772689
Cl284	Cl	1.349456	1.022384	1.022689
Cl285	Cl	1.130661	0.822746	0.519231
Cl286	Cl	1.380661	1.072746	0.769231
Cl287	Cl	1.630661	1.322746	1.019231
Cl288	Cl	1.880661	1.572746	1.269231
H289	H	0.953990	0.791952	0.327459
H290	H	1.203990	1.041952	0.577459
H291	H	1.453990	1.291952	0.827459
H292	H	1.703990	1.541952	1.077459
Cl293	Cl	1.105046	0.307903	0.648202
Cl294	Cl	1.355046	0.557903	0.898202
Cl295	Cl	1.605046	0.807903	1.148202
Cl296	Cl	1.855046	1.057903	1.398202
H297	H	0.749084	0.299439	0.299661
H298	H	0.999084	0.549439	0.549661
H299	H	1.249084	0.799439	0.799661
H300	H	1.499084	1.049439	1.049661
H301	H	0.948790	0.658185	0.321856
H302	H	1.198790	0.908185	0.571856
H303	H	1.448790	1.158185	0.821856
H304	H	1.698790	1.408185	1.071856
Cl305	Cl	1.130987	0.281948	0.978301
Cl306	Cl	1.380987	0.531948	1.228301
Cl307	Cl	1.630987	0.781948	1.478301
Cl308	Cl	1.880987	1.031948	1.728301
H309	H	1.085133	1.132817	0.469746
H310	H	1.335133	1.382817	0.719746
H311	H	1.585133	1.632817	0.969746
H312	H	1.835133	1.882817	1.219746
Cl313	Cl	1.098679	0.314298	0.814100
Cl314	Cl	1.348679	0.564298	1.064100
Cl315	Cl	1.598679	0.814298	1.314100
Cl316	Cl	1.848679	1.064298	1.564100
H317	H	1.079948	0.999045	0.464125
H318	H	1.329948	1.249045	0.714125
H319	H	1.579948	1.499045	0.964125
H320	H	1.829948	1.749045	1.214125
Cl321	Cl	1.124210	0.656310	0.512244
Cl322	Cl	1.374210	0.906310	0.762244
Cl323	Cl	1.624210	1.156310	1.012244
Cl324	Cl	1.874210	1.406310	1.262244
H325	H	0.923050	0.986158	0.293842
H326	H	1.173050	1.236158	0.543842
H327	H	1.423050	1.486158	0.793842
H328	H	1.673050	1.736158	1.043842
Cl329	Cl	1.124595	0.288316	1.144205
Cl330	Cl	1.374595	0.538316	1.394205
Cl331	Cl	1.624595	0.788316	1.644205
Cl332	Cl	1.874595	1.038316	1.894205
H333	H	0.928240	1.119937	0.299451
H334	H	1.178240	1.369937	0.549451
H335	H	1.428240	1.619937	0.799451
H336	H	1.678240	1.869937	1.049451
H337	H	0.922951	0.489769	0.797753
H338	H	1.172951	0.739769	1.047753
H339	H	1.422951	0.989769	1.297753
H340	H	1.672951	1.239769	1.547753
Cl341	Cl	0.929086	0.483604	1.144125
Cl342	Cl	1.179086	0.733604	1.394125
Cl343	Cl	1.429086	0.983604	1.644125
Cl344	Cl	1.679086	1.233604	1.894125
Cl345	Cl	0.935473	0.477234	0.978226
Cl346	Cl	1.185473	0.727234	1.228226
Cl347	Cl	1.435473	0.977234	1.478226
Cl348	Cl	1.685473	1.227234	1.728226
Cl349	Cl	0.909533	0.503187	0.648113
Cl350	Cl	1.159533	0.753187	0.898113
Cl351	Cl	1.409533	1.003187	1.148113
Cl352	Cl	1.659533	1.253187	1.398113
H353	H	0.615725	0.464221	0.463968
H354	H	0.865725	0.714221	0.713968
H355	H	1.115725	0.964221	0.963968
H356	H	1.365725	1.214221	1.213968
