data_functionalizedCrystal
_audit_creation_method	'MofGen! by Chris Wilmer'
_symmetry_space_group_name_H-M	'P1'
_symmetry_Int_Tables_number	1
_symmetry_cell_setting	triclinic
loop_
_symmetry_equiv_pos_as_xyz
  x,y,z
_cell_length_a	18.050589
_cell_length_b	12.759401
_cell_length_c	12.759393
_cell_angle_alpha	89.982995
_cell_angle_beta	90.030419
_cell_angle_gamma	89.962614
loop_
_atom_site_label
_atom_site_type_symbol
_atom_site_fract_x
_atom_site_fract_y
_atom_site_fract_z
Zn1	Zn	0.295562	1.606109	-0.593948
Zn2	Zn	0.419773	1.605942	-0.418272
Zn3	Zn	0.295607	1.430411	-0.418292
Zn4	Zn	0.419721	1.430339	-0.593918
O5	O	0.357666	1.518201	-0.506107
O6	O	0.312042	1.753108	-0.570648
O7	O	0.403342	1.582618	-0.271253
O8	O	0.191676	1.453818	-0.441614
O9	O	0.403299	1.752986	-0.441580
O10	O	0.191644	1.582903	-0.570668
O11	O	0.312118	1.453656	-0.271268
O12	O	0.312068	1.283381	-0.441585
O13	O	0.403211	1.453695	-0.740943
O14	O	0.403254	1.283327	-0.570616
O15	O	0.311992	1.582833	-0.740965
O16	O	0.523690	1.582548	-0.441550
O17	O	0.523652	1.453533	-0.570597
C18	C	0.550618	1.518043	-0.506091
C19	C	0.633164	1.518071	-0.506119
C20	C	0.357661	1.245233	-0.506100
C21	C	0.357676	1.128457	-0.506122
C22	C	0.357591	1.518274	-0.780141
C23	C	0.357559	1.518305	-0.896917
C24	C	0.832621	1.447950	-0.576271
C25	C	0.882070	1.422328	-0.480403
C26	C	0.784294	1.518151	-0.506133
C27	C	0.881926	1.543801	-0.602012
C28	C	0.930279	1.518225	-0.506156
C29	C	0.832656	1.492478	-0.410215
C30	C	0.832508	1.613996	-0.531889
C31	C	0.881935	1.588410	-0.435955
C32	C	0.700196	1.518105	-0.506122
C33	C	1.014376	1.518271	-0.506156
C34	C	1.163960	1.518347	-0.506148
C35	C	1.081414	1.518307	-0.506169
C36	C	0.357671	1.792234	-0.506115
C37	C	0.357674	1.909010	-0.506118
C38	C	0.405186	2.073535	-0.438920
C39	C	0.405187	1.963811	-0.438921
C40	C	0.310162	1.963940	-0.573327
C41	C	0.310165	2.073662	-0.573331
C42	C	0.460046	2.073460	-0.361319
C43	C	0.460047	1.963736	-0.361319
C44	C	0.310057	1.585557	-0.951793
C45	C	0.310030	1.585582	-1.061517
C46	C	0.405014	1.451101	-1.061481
C47	C	0.405036	1.451072	-0.951759
C48	C	0.255221	1.663202	-0.951815
C49	C	0.255194	1.663227	-1.061539
C50	C	0.357687	1.518188	-0.233140
C51	C	0.357509	1.518360	-0.116364
H52	H	0.810967	1.388506	-0.635499
N53	N	0.910917	1.315016	-0.451541
H54	H	0.892223	1.295126	-0.379646
H55	H	0.892981	1.262074	-0.504614
H56	H	0.270596	1.744590	-1.091315
N57	N	0.282672	1.765512	-0.906833
H58	H	0.249645	1.824602	-0.931263
H59	H	0.281772	1.761746	-0.827778
N60	N	0.258918	2.132897	-0.645807
H61	H	0.266126	2.210720	-0.635613
H62	H	0.270456	2.113730	-0.720840
H63	H	0.200547	1.634140	-1.095586
H64	H	0.903569	1.565467	-0.683087
N65	N	0.432793	2.118562	-0.258949
H66	H	0.387503	2.163174	-0.272200
H67	H	0.419661	2.059596	-0.209527
N68	N	0.532411	1.918587	-0.399889
H69	H	0.523045	1.874052	-0.463961
H70	H	0.567339	1.977534	-0.418466
H71	H	0.444661	1.933950	-0.279951
N72	N	0.258921	1.904839	-0.645816
H73	H	0.266129	1.826996	-0.635620
H74	H	0.205886	1.924063	-0.629477
N75	N	0.456227	1.378590	-1.120620
H76	H	0.444690	1.303533	-1.101519
H77	H	0.448986	1.388892	-1.198439
H78	H	0.517559	2.103185	-0.383098
N79	N	0.804116	1.463660	-0.302789
H80	H	0.748164	1.463779	-0.303450
H81	H	0.822637	1.391543	-0.283247
N82	N	0.456242	1.378497	-0.892569
H83	H	0.486308	1.335904	-0.943963
H84	H	0.490632	1.421181	-0.847017
H85	H	0.197708	1.641461	-0.922058
N86	N	0.910440	1.667096	-0.357321
H87	H	0.892421	1.647615	-0.284970
H88	H	0.966387	1.667098	-0.358277
N89	N	0.803649	1.721289	-0.560769
H90	H	0.821538	1.740576	-0.633238
H91	H	0.747705	1.720551	-0.559806
