data_functionalizedCrystal
_audit_creation_method	'MofGen! by Chris Wilmer'
_symmetry_space_group_name_H-M	'P1'
_symmetry_Int_Tables_number	1
_symmetry_cell_setting	triclinic
loop_
_symmetry_equiv_pos_as_xyz
  x,y,z
_cell_length_a	14.853558
_cell_length_b	14.853567
_cell_length_c	13.330367
_cell_angle_alpha	90.000844
_cell_angle_beta	89.992972
_cell_angle_gamma	96.366968
loop_
_atom_site_label
_atom_site_type_symbol
_atom_site_fract_x
_atom_site_fract_y
_atom_site_fract_z
O1	O	1.196374	-0.117664	-0.083403
O2	O	0.933913	-0.131694	-0.083406
O3	O	1.072154	0.006551	-0.083407
O4	O	1.058133	-0.255909	-0.083401
O5	O	1.072134	0.006554	0.083440
O6	O	0.933893	-0.131691	0.083441
O7	O	1.196354	-0.117661	0.083445
Cu8	Cu	1.065122	-0.124675	0.098677
Cu9	Cu	1.065145	-0.124679	-0.098639
O10	O	1.058113	-0.255906	0.083446
C11	C	0.900314	-0.131058	0.000017
C12	C	0.800230	-0.129158	0.000015
C13	C	0.753221	-0.128268	-0.090937
C14	C	0.753198	-0.128254	0.090966
C15	C	0.659164	-0.126463	0.090968
C16	C	0.612155	-0.125574	0.000015
C17	C	0.659179	-0.126475	-0.090938
C18	C	0.612134	-0.125553	0.181920
C19	C	0.518094	-0.123762	0.181925
C20	C	0.471083	-0.122879	0.090972
C21	C	0.518113	-0.123781	0.000014
C22	C	0.471103	-0.122891	-0.090938
C23	C	0.518131	-0.123799	-0.181897
C24	C	0.612167	-0.125592	-0.181892
C25	C	0.377046	-0.121086	0.090967
C26	C	0.377061	-0.121098	-0.090939
C27	C	1.071509	0.040141	0.000013
C28	C	1.069605	0.140225	0.000005
C29	C	1.229953	-0.118296	0.000019
C30	C	1.330037	-0.120197	0.000015
C31	C	1.058758	-0.289496	0.000023
C32	C	1.060662	-0.389580	0.000025
N33	N	1.065112	-0.124672	0.237459
C34	C	0.979439	0.552756	0.000022
C35	C	1.143673	0.574042	0.000025
C36	C	1.145463	0.480009	0.000019
C37	C	1.064240	0.422344	0.000016
C38	C	0.981227	0.458713	0.000020
C39	C	1.228474	0.443632	0.000026
C40	C	1.230268	0.349593	0.000021
C41	C	1.149044	0.291927	0.000011
C42	C	1.066027	0.328301	0.000013
C43	C	0.984805	0.270637	0.000011
C44	C	0.901787	0.307009	0.000006
C45	C	0.900003	0.401047	0.000010
C46	C	1.150828	0.197890	0.000007
C47	C	0.986592	0.176594	0.000008
N48	N	1.065163	-0.124675	-0.237420
C49	C	1.003930	-0.185870	0.710082
C50	C	1.126386	-0.063481	0.710049
C51	C	1.126375	-0.063478	0.605031
C52	C	1.065142	-0.124673	0.552533
C53	C	1.003919	-0.185871	0.605054
C54	C	1.187603	-0.002288	0.552502
C55	C	1.187596	-0.002284	0.447477
C56	C	1.126358	-0.063475	0.394978
C57	C	1.065132	-0.124674	0.447505
C58	C	1.003899	-0.185869	0.395008
C59	C	0.942668	-0.247065	0.447533
C60	C	0.942681	-0.247062	0.552555
C61	C	1.126345	-0.063477	0.289956
C62	C	1.003889	-0.185870	0.289979
H63	H	0.479813	-0.123021	0.255989
C64	C	0.897238	0.113170	0.000002
N65	N	0.829936	0.065399	-0.000002
H66	H	0.479844	-0.123070	-0.255950
C67	C	0.325321	-0.120085	0.191015
N68	N	0.286361	-0.119334	0.266377
C69	C	0.812445	0.243567	0.000003
N70	N	0.745155	0.195778	-0.000001
H71	H	0.832414	0.430670	0.000007
C72	C	0.875329	-0.314367	0.610340
N73	N	0.824598	-0.365059	0.653868
C74	C	0.888124	0.592766	0.000026
N75	N	0.819345	0.622903	0.000033
C76	C	1.254955	0.065021	0.610255
N77	N	1.305684	0.115724	0.653760
C78	C	1.233013	0.637476	0.000033
N79	N	1.300307	0.685258	0.000037
C80	C	0.325359	-0.120117	-0.190996
N81	N	0.286418	-0.119376	-0.266360
C82	C	1.317813	0.507068	0.000035
N83	N	1.385106	0.554852	0.000042
H84	H	0.954074	-0.235692	0.752851
H85	H	1.176202	-0.013657	0.247195
C86	C	1.321588	0.309592	0.000019
N87	N	1.390371	0.279463	0.000013
H88	H	0.791479	-0.128971	0.165015
C89	C	1.242141	0.157883	0.000013
N90	N	1.310924	0.127752	0.000014
C91	C	0.663906	-0.126579	-0.281937
N92	N	0.702880	-0.127318	-0.357290
H93	H	0.954022	-0.235699	0.247242
H94	H	0.892815	-0.296894	0.404777
C95	C	1.193738	0.003829	0.767800
N96	N	1.244469	0.054532	0.811302
C97	C	1.254944	0.065040	0.389709
N98	N	1.305668	0.115751	0.346197
H99	H	0.791515	-0.129011	-0.164993
C100	C	0.663840	-0.126604	0.281960
N101	N	0.702785	-0.127425	0.357314
