data_functionalizedCrystal
_audit_creation_method	'MofGen! by Chris Wilmer'
_symmetry_space_group_name_H-M	'P1'
_symmetry_Int_Tables_number	1
_symmetry_cell_setting	triclinic
loop_
_symmetry_equiv_pos_as_xyz
  x,y,z
_cell_length_a	8.497374
_cell_length_b	17.077404
_cell_length_c	17.077396
_cell_angle_alpha	89.980499
_cell_angle_beta	89.987669
_cell_angle_gamma	90.001318
loop_
_atom_site_label
_atom_site_type_symbol
_atom_site_fract_x
_atom_site_fract_y
_atom_site_fract_z
Zn1	Zn	0.628046	-1.200174	0.443931
Zn2	Zn	0.891873	-1.200131	0.312702
Zn3	Zn	0.628102	-1.068905	0.312679
Zn4	Zn	0.891779	-1.068923	0.443925
O5	O	0.759950	-1.134533	0.378309
O6	O	0.663060	-1.310015	0.426535
O7	O	0.856946	-1.182698	0.202852
O8	O	0.407332	-1.086329	0.330082
O9	O	0.856892	-1.309983	0.330122
O10	O	0.407291	-1.182771	0.426513
O11	O	0.663154	-1.086287	0.202835
O12	O	0.663063	-0.959061	0.330077
O13	O	0.856732	-1.086359	0.553773
O14	O	0.856786	-0.959074	0.426503
O15	O	0.662969	-1.182788	0.553777
O16	O	1.112623	-1.182715	0.330116
O17	O	1.112554	-1.086318	0.426526
C18	C	0.759922	-0.930585	0.378288
C19	C	0.759947	-0.843336	0.378297
C20	C	0.759834	-1.134581	0.583054
C21	C	0.759784	-1.134601	0.670303
C22	C	0.759980	-1.339277	0.378331
C23	C	0.759993	-1.426527	0.378341
C24	C	1.169830	-1.134523	0.378321
C25	C	1.348474	-1.134544	0.378308
C26	C	0.759952	-1.134531	0.174361
C27	C	0.759557	-1.134663	0.087112
C28	C	0.860971	-0.802373	0.428426
C29	C	0.860974	-0.720392	0.428438
C30	C	0.759961	-0.679376	0.378317
C31	C	0.658926	-0.720345	0.328187
C32	C	0.658916	-0.802324	0.328179
C33	C	0.658957	-0.549475	0.328205
C34	C	0.658969	-0.467490	0.328212
C35	C	0.861016	-0.467543	0.428465
C36	C	0.861005	-0.549522	0.428457
C37	C	0.759972	-0.590485	0.378325
C38	C	0.658883	-1.184813	0.711297
C39	C	0.658831	-1.184823	0.793277
C40	C	0.759689	-1.134623	0.834263
C41	C	0.860594	-1.084405	0.793264
C42	C	0.860637	-1.084392	0.711285
C43	C	0.860499	-1.084437	0.964134
C44	C	0.860458	-1.084450	1.046118
C45	C	0.658693	-1.184867	1.046127
C46	C	0.658736	-1.184854	0.964148
C47	C	0.759644	-1.134637	0.923154
H48	H	0.943233	-0.835762	0.469237
H49	H	0.943240	-0.687044	0.469257
C50	C	0.547786	-0.847382	0.273031
N51	N	0.464076	-0.881319	0.231494
H52	H	0.576527	-1.225754	1.079507
H53	H	0.942582	-1.043572	1.079487
H54	H	0.942645	-1.043532	0.930759
H55	H	0.943276	-0.434187	0.469287
C56	C	0.971523	-1.029177	0.838351
N57	N	1.055077	-0.987578	0.872309
H58	H	0.943268	-0.582915	0.469265
C59	C	0.547806	-0.675224	0.273055
N60	N	0.464112	-0.641240	0.231527
H61	H	0.576696	-0.434097	0.287409
H62	H	0.942786	-1.043496	0.677909
H63	H	0.576671	-0.582824	0.287389
H64	H	0.576758	-1.225694	0.677932
C65	C	0.547784	-1.240075	0.919065
N66	N	0.464207	-1.281664	0.885109
H67	H	0.576671	-1.225713	0.826651
