data_functionalizedCrystal
_audit_creation_method	'MofGen! by Chris Wilmer'
_symmetry_space_group_name_H-M	'P1'
_symmetry_Int_Tables_number	1
_symmetry_cell_setting	triclinic
loop_
_symmetry_equiv_pos_as_xyz
  x,y,z
_cell_length_a	19.288864
_cell_length_b	23.532357
_cell_length_c	17.766277
_cell_angle_alpha	89.988084
_cell_angle_beta	89.976791
_cell_angle_gamma	82.982267
loop_
_atom_site_label
_atom_site_type_symbol
_atom_site_fract_x
_atom_site_fract_y
_atom_site_fract_z
O1	O	0.921118	0.071047	-0.062845
O2	O	1.254452	0.404380	0.270489
O3	O	1.587785	0.737714	0.603822
O4	O	0.718826	0.080631	-0.062794
O5	O	1.052159	0.413964	0.270539
O6	O	1.385493	0.747298	0.603872
O7	O	0.826091	-0.007082	-0.062805
O8	O	1.159424	0.326251	0.270528
O9	O	1.492757	0.659585	0.603861
O10	O	0.813854	0.158760	-0.062833
O11	O	1.147187	0.492093	0.270500
O12	O	1.480521	0.825427	0.603833
O13	O	0.826072	-0.007086	0.062383
O14	O	1.159405	0.326247	0.395716
O15	O	1.492738	0.659580	0.729050
O16	O	0.718807	0.080627	0.062394
O17	O	1.052141	0.413960	0.395728
O18	O	1.385474	0.747293	0.729061
O19	O	0.921100	0.071043	0.062344
O20	O	1.254433	0.404376	0.395677
O21	O	1.587766	0.737709	0.729011
Cu22	Cu	0.819952	0.075834	0.073800
Cu23	Cu	1.153285	0.409168	0.407133
Cu24	Cu	1.486619	0.742501	0.740466
Cu25	Cu	0.819974	0.075839	-0.074250
Cu26	Cu	1.153307	0.409173	0.259083
Cu27	Cu	1.486641	0.742506	0.592417
O28	O	0.813835	0.158756	0.062355
O29	O	1.147169	0.492089	0.395688
O30	O	1.480502	0.825422	0.729022
C31	C	0.692941	0.080320	-0.000193
C32	C	1.026275	0.413654	0.333140
C33	C	1.359608	0.746987	0.666473
C34	C	0.615841	0.079395	-0.000174
C35	C	0.949174	0.412728	0.333160
C36	C	1.282508	0.746061	0.666493
C37	C	0.570975	0.130861	-0.000194
C38	C	0.904308	0.464194	0.333139
C39	C	1.237641	0.797527	0.666473
C40	C	0.498530	0.129991	-0.000202
C41	C	0.831864	0.463324	0.333131
C42	C	1.165197	0.796658	0.666464
C43	C	0.470956	0.077652	-0.000205
C44	C	0.804289	0.410986	0.333128
C45	C	1.137622	0.744319	0.666462
C46	C	0.515832	0.026180	-0.000180
C47	C	0.849165	0.359513	0.333153
C48	C	1.182498	0.692846	0.666486
C49	C	0.588274	0.027051	-0.000165
C50	C	0.921608	0.360384	0.333169
C51	C	1.254941	0.693717	0.666502
C52	C	0.362836	0.036510	-0.044082
C53	C	0.696169	0.369843	0.289251
C54	C	1.029503	0.703177	0.622584
C55	C	0.290395	0.035641	-0.044103
C56	C	0.623728	0.368974	0.289231
C57	C	0.957061	0.702308	0.622564
C58	C	0.247519	0.074963	-0.000250
C59	C	0.580852	0.408297	0.333083
C60	C	0.914186	0.741630	0.666417
C61	C	0.277092	0.115164	0.043613
C62	C	0.610426	0.448498	0.376947
C63	C	0.943759	0.781831	0.710280
C64	C	0.349535	0.116036	0.043629
C65	C	0.682868	0.449369	0.376962
C66	C	1.016202	0.782702	0.710296
C67	C	0.392405	0.076702	-0.000222
C68	C	0.725738	0.410035	0.333112
C69	C	1.059071	0.743369	0.666445
C70	C	0.124100	0.125490	-0.000278
C71	C	0.457433	0.458823	0.333055
C72	C	0.790767	0.792157	0.666388
C73	C	0.051655	0.124618	-0.000282
C74	C	0.384988	0.457951	0.333051
C75	C	0.718321	0.791285	0.666385
C76	C	0.068958	0.020805	-0.000268
C77	C	0.402291	0.354138	0.333066
C78	C	0.735624	0.687472	0.666399
C79	C	0.141401	0.021678	-0.000256
C80	C	0.474735	0.355012	0.333077
C81	C	0.808068	0.688345	0.666410
C82	C	0.168968	0.074022	-0.000265
C83	C	0.502301	0.407356	0.333068
C84	C	0.835634	0.740689	0.666401
C85	C	0.825775	-0.028301	-0.000209
C86	C	1.159108	0.305032	0.333125
C87	C	1.492442	0.638365	0.666458
C88	C	0.824855	-0.091522	-0.000202
C89	C	1.158188	0.241811	0.333132
C90	C	1.491522	0.575145	0.666465
C91	C	0.819088	-0.483543	-0.068481
C92	C	1.152421	-0.150209	0.264852
C93	C	1.485755	0.183124	0.598186
C94	C	0.818213	-0.542944	-0.068485
C95	C	1.151547	-0.209611	0.264848
C96	C	1.484880	0.123723	0.598182
O97	O	0.817746	-0.573659	-0.126521
O98	O	1.151079	-0.240326	0.206813
O99	O	1.484413	0.093007	0.540146
N100	N	0.817769	-0.572659	-0.000246
N101	N	1.151103	-0.239325	0.333088
N102	N	1.484436	0.094008	0.666421
C103	C	0.818193	-0.542968	0.068002
C104	C	1.151526	-0.209635	0.401336
C105	C	1.484860	0.123699	0.734669
O106	O	0.817734	-0.573697	0.126045
O107	O	1.151068	-0.240363	0.459378
O108	O	1.484401	0.092970	0.792712
C109	C	0.819063	-0.483567	0.068006
C110	C	1.152396	-0.150234	0.401339
C111	C	1.485729	0.183099	0.734672
C112	C	0.819514	-0.453857	-0.000238
C113	C	1.152847	-0.120523	0.333095
C114	C	1.486181	0.212810	0.666428
C115	C	0.819538	-0.453832	-0.136719
C116	C	1.152872	-0.120499	0.196614
C117	C	1.486205	0.212835	0.529947
C118	C	0.820414	-0.394435	-0.136715
C119	C	1.153748	-0.061102	0.196618
C120	C	1.487081	0.272232	0.529952
C121	C	0.820840	-0.364749	-0.068472
C122	C	1.154173	-0.031415	0.264861
C123	C	1.487507	0.301918	0.598194
C124	C	0.820390	-0.394460	-0.000234
C125	C	1.153723	-0.061126	0.333099
C126	C	1.487057	0.272207	0.666433
C127	C	0.819482	-0.453877	0.136253
C128	C	1.152815	-0.120544	0.469586
C129	C	1.486148	0.212790	0.802919
C130	C	0.820351	-0.394472	0.136250
C131	C	1.153684	-0.061139	0.469584
C132	C	1.487017	0.272194	0.802917
C133	C	0.820802	-0.364762	0.068006
C134	C	1.154135	-0.031428	0.401340
C135	C	1.487469	0.301905	0.734673
C136	C	0.821692	-0.305376	0.068013
C137	C	1.155025	0.027957	0.401347
C138	C	1.488358	0.361290	0.734680
N139	N	0.822136	-0.275662	-0.000226
N140	N	1.155469	0.057672	0.333107
N141	N	1.488802	0.391005	0.666440
C142	C	0.821710	-0.305348	-0.068469
C143	C	1.155043	0.027985	0.264864
C144	C	1.488377	0.361319	0.598198
C145	C	0.816365	-0.667713	0.067990
C146	C	1.149699	-0.334380	0.401324
C147	C	1.483032	-0.001047	0.734657
C148	C	0.815501	-0.727113	0.067988
C149	C	1.148834	-0.393780	0.401321
C150	C	1.482167	-0.060447	0.734654
C151	C	0.815520	-0.727085	-0.068500
C152	C	1.148853	-0.393752	0.264833
C153	C	1.482186	-0.060419	0.598167
C154	C	0.816389	-0.667685	-0.068497
C155	C	1.149723	-0.334351	0.264837
C156	C	1.483056	-0.001018	0.598170
C157	C	0.816809	-0.637999	-0.000249
C158	C	1.150143	-0.304665	0.333084
C159	C	1.483476	0.028668	0.666417
C160	C	0.823550	-0.180610	-0.068455
C161	C	1.156883	0.152723	0.264879
C162	C	1.490217	0.486057	0.598212
C163	C	0.824429	-0.121208	-0.068444
C164	C	1.157762	0.212125	0.264889
C165	C	1.491096	0.545459	0.598222
C166	C	0.824406	-0.121241	0.068043
C167	C	1.157740	0.212092	0.401376
C168	C	1.491073	0.545426	0.734710
C169	C	0.823531	-0.180638	0.068033
C170	C	1.156864	0.152695	0.401366
C171	C	1.490198	0.486028	0.734700
C172	C	0.823101	-0.210321	-0.000222
C173	C	1.156434	0.123012	0.333111
C174	C	1.489767	0.456346	0.666445
O175	O	0.822157	-0.274623	0.126019
O176	O	1.155490	0.058710	0.459352
O177	O	1.488823	0.392044	0.792686
O178	O	0.822159	-0.274611	-0.126502
O179	O	1.155493	0.058722	0.206832
O180	O	1.488826	0.392056	0.540165
C181	C	0.946985	0.071353	-0.000259
C182	C	1.280318	0.404686	0.333075
C183	C	1.613651	0.738020	0.666408
C184	C	1.024085	0.072279	-0.000283
C185	C	1.357418	0.405612	0.333050
C186	C	1.690752	0.738946	0.666383
C187	C	0.814151	0.179975	-0.000243
C188	C	1.147484	0.513308	0.333090
C189	C	1.480817	0.846642	0.666423
C190	C	0.815071	0.243196	-0.000255
C191	C	1.148404	0.576529	0.333078
C192	C	1.481738	0.909862	0.666411
N193	N	0.819941	0.075830	0.177930
N194	N	1.153275	0.409163	0.511263
N195	N	1.486608	0.742497	0.844597
N196	N	0.819990	0.075839	-0.178380
N197	N	1.153323	0.409172	0.154953
N198	N	1.486657	0.742506	0.488286
C199	C	0.867453	0.037010	0.217312
C200	C	1.200787	0.370343	0.550645
C201	C	1.534120	0.703676	0.883979
C202	C	0.867457	0.037007	0.296114
C203	C	1.200791	0.370340	0.629447
C204	C	1.534124	0.703674	0.962781
C205	C	0.819956	0.075835	0.335531
C206	C	1.153289	0.409168	0.668864
C207	C	1.486623	0.742501	1.002197
C208	C	0.772435	0.114658	0.296139
C209	C	1.105769	0.447991	0.629473
C210	C	1.439102	0.781325	0.962806
C211	C	0.772428	0.114656	0.217339
C212	C	1.105761	0.447989	0.550672
C213	C	1.439095	0.781322	0.884006
C214	C	0.810486	0.127727	0.460361
C215	C	1.143819	0.461060	0.793695
C216	C	1.477153	0.794394	1.127028
C217	C	0.810498	0.127730	0.539160
C218	C	1.143831	0.461063	0.872494
C219	C	1.477165	0.794397	1.205827
C220	C	0.819975	0.075842	0.578577
C221	C	1.153308	0.409175	0.911910
C222	C	1.486641	0.742508	1.245244
C223	C	0.829454	0.023948	0.539185
C224	C	1.162787	0.357281	0.872519
C225	C	1.496120	0.690614	1.205852
C226	C	0.829446	0.023946	0.460385
C227	C	1.162780	0.357279	0.793718
C228	C	1.496113	0.690612	1.127052
C229	C	0.819958	0.075841	0.420976
C230	C	1.153292	0.409175	0.754310
C231	C	1.486625	0.742508	1.087643
C232	C	0.867493	0.037015	0.703405
C233	C	1.200827	0.370348	1.036738
C234	C	1.534160	0.703682	1.370072
C235	C	0.867493	0.037012	0.782208
C236	C	1.200826	0.370345	1.115541
C237	C	1.534159	0.703678	1.448875
C238	C	0.772474	0.114667	0.782232
C239	C	1.105807	0.448001	1.115565
C240	C	1.439141	0.781334	1.448899
C241	C	0.772471	0.114666	0.703430
C242	C	1.105805	0.447999	1.036764
C243	C	1.439138	0.781333	1.370097
C244	C	0.819985	0.075840	0.664021
C245	C	1.153318	0.409174	0.997355
C246	C	1.486651	0.742507	1.330688
H247	H	0.593414	0.173483	-0.000203
H248	H	0.926747	0.506817	0.333131
H249	H	1.260081	0.840150	0.666464
Cl250	Cl	-0.004750	0.189325	-0.000304
Cl251	Cl	0.328583	0.522658	0.333030
Cl252	Cl	0.661916	0.855991	0.666363
H253	H	0.816755	-0.643498	-0.124067
H254	H	1.150089	-0.310165	0.209266
H255	H	1.483422	0.023169	0.542600
H256	H	0.493376	-0.016435	-0.000193
H257	H	0.826709	0.316898	0.333140
H258	H	1.160043	0.650232	0.666474
H259	H	0.820682	-0.370304	0.191827
H260	H	1.154016	-0.036971	0.525160
H261	H	1.487349	0.296363	0.858494
Cl262	Cl	0.386712	0.166569	0.098772
Cl263	Cl	0.720045	0.499902	0.432106
Cl264	Cl	1.053378	0.833236	0.765439
Cl265	Cl	0.712695	0.163463	0.167827
Cl266	Cl	1.046028	0.496796	0.501160
Cl267	Cl	1.379361	0.830130	0.834493
Cl268	Cl	0.841373	-0.041288	0.588729
Cl269	Cl	1.174707	0.292045	0.922062
Cl270	Cl	1.508040	0.625379	1.255395
Cl271	Cl	0.927179	-0.011801	0.167770
Cl272	Cl	1.260513	0.321532	0.501103
Cl273	Cl	1.593846	0.654865	0.834437
H274	H	0.624805	-0.014860	-0.000148
H275	H	0.958139	0.318473	0.333185
H276	H	1.291472	0.651806	0.666518
Cl277	Cl	0.034299	-0.044993	-0.000262
Cl278	Cl	0.367633	0.288340	0.333071
Cl279	Cl	0.700966	0.621674	0.666405
H280	H	0.733795	0.146279	0.814325
H281	H	1.067128	0.479613	1.147658
H282	H	1.400461	0.812946	1.480991
H283	H	0.815144	-0.751300	0.123559
H284	H	1.148477	-0.417967	0.456892
H285	H	1.481811	-0.084633	0.790225
Cl286	Cl	0.822977	-0.217991	0.153826
Cl287	Cl	1.156311	0.115342	0.487159
Cl288	Cl	1.489644	0.448675	0.820493
Cl289	Cl	0.712716	0.163468	0.345690
Cl290	Cl	1.046050	0.496801	0.679023
Cl291	Cl	1.379383	0.830134	1.012357
H292	H	0.733786	0.146279	0.671363
H293	H	1.067119	0.479613	1.004697
H294	H	1.400452	0.812946	1.338030
Cl295	Cl	0.798587	0.192967	0.588673
Cl296	Cl	1.131920	0.526300	0.922006
Cl297	Cl	1.465253	0.859633	1.255340
H298	H	0.461993	0.171902	-0.000217
H299	H	0.795327	0.505236	0.333117
H300	H	1.128660	0.838569	0.666450
H301	H	0.816709	-0.643547	0.123569
H302	H	1.150043	-0.310214	0.456902
H303	H	1.483376	0.023120	0.790236
H304	H	0.824756	-0.097060	0.123604
H305	H	1.158090	0.236273	0.456938
H306	H	1.491423	0.569607	0.790271
H307	H	0.837163	-0.018308	0.428315
H308	H	1.170496	0.315025	0.761649
H309	H	1.503829	0.648359	1.094982
H310	H	0.266321	0.002909	-0.079822
H311	H	0.599655	0.336242	0.253511
H312	H	0.932988	0.669576	0.586845
Cl313	Cl	0.223200	0.164602	0.098746
Cl314	Cl	0.556533	0.497936	0.432079
Cl315	Cl	0.889866	0.831269	0.765413
Cl316	Cl	0.824998	-0.083861	-0.154243
Cl317	Cl	1.158331	0.249472	0.179090
Cl318	Cl	1.491664	0.582805	0.512424
Cl319	Cl	0.814978	-0.764416	-0.154292
Cl320	Cl	1.148312	-0.431082	0.179042
Cl321	Cl	1.481645	-0.097749	0.512375
Cl322	Cl	0.818910	-0.491213	0.222051
Cl323	Cl	1.152243	-0.157879	0.555384
Cl324	Cl	1.485577	0.175454	0.888718
H325	H	0.906148	0.005394	0.328185
H326	H	1.239482	0.338727	0.661518
H327	H	1.572815	0.672060	0.994851
H328	H	0.906180	0.005399	0.671317
H329	H	1.239513	0.338732	1.004650
H330	H	1.572846	0.672066	1.337984
Cl331	Cl	0.820975	-0.357093	-0.222512
Cl332	Cl	1.154308	-0.023759	0.110821
Cl333	Cl	1.487641	0.309574	0.444154
Cl334	Cl	0.158758	0.191292	-0.000282
Cl335	Cl	0.492092	0.524626	0.333051
Cl336	Cl	0.825425	0.857959	0.666384
H337	H	0.802757	0.169983	0.428275
H338	H	1.136090	0.503317	0.761608
H339	H	1.469423	0.836650	1.094941
Cl340	Cl	0.197808	-0.043026	-0.000235
Cl341	Cl	0.531141	0.290308	0.333098
Cl342	Cl	0.864474	0.623641	0.666431
Cl343	Cl	0.823010	-0.217917	-0.154262
Cl344	Cl	1.156344	0.115417	0.179071
Cl345	Cl	1.489677	0.448750	0.512405
Cl346	Cl	0.416730	-0.012929	-0.099217
Cl347	Cl	0.750063	0.320404	0.234116
Cl348	Cl	1.083397	0.653738	0.567450
Cl349	Cl	0.819004	-0.491141	-0.222522
Cl350	Cl	1.152338	-0.157808	0.110811
Cl351	Cl	1.485671	0.175525	0.444144
Cl352	Cl	0.927223	-0.011798	0.831720
Cl353	Cl	1.260556	0.321535	1.165053
Cl354	Cl	1.593889	0.654868	1.498387
