data_functionalizedCrystal
_audit_creation_method	'MofGen! by Chris Wilmer'
_symmetry_space_group_name_H-M	'P1'
_symmetry_Int_Tables_number	1
_symmetry_cell_setting	triclinic
loop_
_symmetry_equiv_pos_as_xyz
  x,y,z
_cell_length_a	23.532407
_cell_length_b	23.532407
_cell_length_c	12.503552
_cell_angle_alpha	93.492833
_cell_angle_beta	86.504341
_cell_angle_gamma	82.848678
loop_
_atom_site_label
_atom_site_type_symbol
_atom_site_fract_x
_atom_site_fract_y
_atom_site_fract_z
O1	O	-0.758561	-0.065829	0.089197
O2	O	-0.258561	0.434171	0.589197
O3	O	-0.592699	-0.075831	0.089230
O4	O	-0.092699	0.424169	0.589230
O5	O	-0.680631	0.012101	0.089192
O6	O	-0.180631	0.512101	0.589192
O7	O	-0.670630	-0.153761	0.089234
O8	O	-0.170630	0.346239	0.589234
O9	O	-0.674011	0.005482	-0.089447
O10	O	-0.174011	0.505482	0.410553
O11	O	-0.586079	-0.082449	-0.089410
O12	O	-0.086079	0.417551	0.410590
O13	O	-0.751941	-0.072447	-0.089443
O14	O	-0.251941	0.427553	0.410557
Cu15	Cu	-0.668405	-0.078053	-0.105738
Cu16	Cu	-0.168405	0.421947	0.394262
Cu17	Cu	-0.676235	-0.070225	0.105524
Cu18	Cu	-0.176235	0.429775	0.605524
O19	O	-0.664009	-0.160379	-0.089406
O20	O	-0.164009	0.339621	0.410594
C21	C	-0.568173	-0.078885	-0.000086
C22	C	-0.068173	0.421115	0.499914
C23	C	-0.504957	-0.078119	-0.000075
C24	C	-0.004957	0.421881	0.499925
C25	C	-0.677066	0.030008	-0.000130
C26	C	-0.177066	0.530008	0.499870
C27	C	-0.676300	0.093225	-0.000138
C28	C	-0.176300	0.593225	0.499862
C29	C	-0.776467	-0.069393	-0.000125
C30	C	-0.276467	0.430607	0.499875
C31	C	-0.839684	-0.070159	-0.000130
C32	C	-0.339684	0.429841	0.499870
C33	C	-0.105852	-0.125354	-0.000111
C34	C	0.394148	0.374646	0.499889
C35	C	-0.046452	-0.124642	-0.000118
C36	C	0.453548	0.375358	0.499882
O37	O	-0.009706	-0.168429	-0.000146
O38	O	0.490294	0.331571	0.499854
N39	N	-0.023825	-0.072367	-0.000129
N40	N	0.476175	0.427633	0.499871
C41	C	-0.060602	-0.020799	-0.000145
C42	C	0.439398	0.479201	0.499855
O43	O	-0.035902	0.023731	-0.000156
O44	O	0.464098	0.523731	0.499844
C45	C	-0.120001	-0.021511	-0.000146
C46	C	0.379999	0.478489	0.499854
C47	C	-0.142625	-0.073790	-0.000124
C48	C	0.357375	0.426210	0.499876
C49	C	-0.128476	-0.177628	-0.000090
C50	C	0.371524	0.322372	0.499910
C51	C	-0.187873	-0.178339	-0.000082
C52	C	0.312127	0.321661	0.499918
C53	C	-0.224645	-0.126775	-0.000094
C54	C	0.275355	0.373225	0.499906
C55	C	-0.202021	-0.074501	-0.000115
C56	C	0.297979	0.425499	0.499885
C57	C	-0.156777	0.030056	-0.000169
C58	C	0.343223	0.530056	0.499831
C59	C	-0.216179	0.029339	-0.000171
C60	C	0.283821	0.529339	0.499829
C61	C	-0.238803	-0.022940	-0.000148
C62	C	0.261197	0.477060	0.499852
C63	C	-0.298190	-0.023648	-0.000118
C64	C	0.201810	0.476352	0.499882
N65	N	-0.320817	-0.075924	-0.000107
N66	N	0.179183	0.424076	0.499893
C67	C	-0.284044	-0.127488	-0.000095
C68	C	0.215956	0.372512	0.499905
C69	C	0.064141	-0.019307	-0.000145
C70	C	0.564141	0.480693	0.499855
C71	C	0.123538	-0.018595	-0.000136
C72	C	0.623538	0.481405	0.499864
C73	C	0.137685	-0.122438	-0.000111
C74	C	0.637685	0.377562	0.499889
C75	C	0.078286	-0.123151	-0.000112
C76	C	0.578286	0.376849	0.499888
C77	C	0.041514	-0.071583	-0.000133
C78	C	0.541514	0.428417	0.499867
C79	C	-0.408782	-0.128976	-0.000076
C80	C	0.091218	0.371024	0.499924
C81	C	-0.468184	-0.129683	-0.000062
C82	C	0.031816	0.370317	0.499938
C83	C	-0.482325	-0.025839	-0.000093
C84	C	0.017675	0.474161	0.499907
C85	C	-0.422928	-0.025133	-0.000100
C86	C	0.077072	0.474867	0.499900
C87	C	-0.386157	-0.076706	-0.000095
C88	C	0.113843	0.423294	0.499905
O89	O	-0.334970	0.020116	-0.000095
O90	O	0.165030	0.520116	0.499905
O91	O	-0.308752	-0.172011	-0.000098
O92	O	0.191248	0.327989	0.499902
C93	C	-0.667574	-0.178286	-0.000081
C94	C	-0.167574	0.321714	0.499919
C95	C	-0.668341	-0.241502	-0.000066
C96	C	-0.168341	0.258498	0.499934
C97	C	-0.723535	0.492329	-0.000089
C98	C	-0.223535	0.992329	0.499911
C99	C	-0.722824	0.551730	-0.000080
C100	C	-0.222824	1.051730	0.499920
O101	O	-0.766611	0.588476	-0.000050
O102	O	-0.266611	1.088476	0.499950
N103	N	-0.670548	0.574357	-0.000071
N104	N	-0.170548	1.074357	0.499929
C105	C	-0.618980	0.537579	-0.000059
C106	C	-0.118980	1.037579	0.499941
O107	O	-0.574450	0.562279	-0.000049
O108	O	-0.074450	1.062279	0.499951
C109	C	-0.619692	0.478180	-0.000059
C110	C	-0.119692	0.978180	0.499941
C111	C	-0.671971	0.455557	-0.000080
C112	C	-0.171971	0.955557	0.499920
C113	C	-0.775810	0.469706	-0.000108
C114	C	-0.275810	0.969706	0.499892
C115	C	-0.776521	0.410309	-0.000118
C116	C	-0.276521	0.910309	0.499882
C117	C	-0.724957	0.373536	-0.000109
C118	C	-0.224957	0.873536	0.499891
C119	C	-0.672682	0.396160	-0.000090
C120	C	-0.172682	0.896160	0.499910
C121	C	-0.568126	0.441405	-0.000039
C122	C	-0.068126	0.941405	0.499961
C123	C	-0.568842	0.382002	-0.000039
C124	C	-0.068842	0.882002	0.499961
C125	C	-0.621121	0.359379	-0.000060
C126	C	-0.121121	0.859379	0.499940
C127	C	-0.621829	0.299991	-0.000091
C128	C	-0.121829	0.799991	0.499909
N129	N	-0.674105	0.277365	-0.000101
N130	N	-0.174105	0.777365	0.499899
C131	C	-0.725669	0.314137	-0.000110
C132	C	-0.225669	0.814137	0.499890
C133	C	-0.617489	0.662322	-0.000055
C134	C	-0.117489	1.162322	0.499945
C135	C	-0.616776	0.721720	-0.000062
C136	C	-0.116776	1.221720	0.499938
C137	C	-0.720620	0.735866	-0.000082
C138	C	-0.220620	1.235866	0.499918
C139	C	-0.721332	0.676467	-0.000083
C140	C	-0.221332	1.176467	0.499917
C141	C	-0.669765	0.639696	-0.000065
C142	C	-0.169765	1.139696	0.499935
C143	C	-0.727158	0.189400	-0.000133
C144	C	-0.227158	0.689400	0.499867
C145	C	-0.727864	0.129997	-0.000147
C146	C	-0.227864	0.629997	0.499853
C147	C	-0.624020	0.115856	-0.000122
C148	C	-0.124020	0.615856	0.499878
C149	C	-0.623314	0.175253	-0.000113
C150	C	-0.123314	0.675253	0.499887
C151	C	-0.674887	0.212024	-0.000114
C152	C	-0.174887	0.712024	0.499886
O153	O	-0.578065	0.263211	-0.000118
O154	O	-0.078065	0.763211	0.499882
O155	O	-0.770192	0.289430	-0.000106
O156	O	-0.270192	0.789430	0.499894
N157	N	-0.662902	-0.083558	-0.254328
N158	N	-0.162902	0.416442	0.245672
C159	C	-0.689834	-0.056616	-0.526773
C160	C	-0.189834	0.443384	-0.026773
C161	C	-0.654812	-0.091656	-0.473434
C162	C	-0.154812	0.408344	0.026566
C163	C	-0.659315	-0.087149	-0.351512
C164	C	-0.159315	0.412851	0.148488
C165	C	-0.685332	-0.061122	-0.648705
C166	C	-0.185332	0.438878	-0.148705
N167	N	-0.681742	-0.064716	0.254115
N168	N	-0.181742	0.435284	0.754115
H169	H	-0.486600	-0.172256	-0.000044
H170	H	0.013400	0.327744	0.499956
H171	H	-0.621448	-0.125040	-0.519335
H172	H	-0.121448	0.374960	-0.019335
H173	H	-0.574205	0.740133	-0.000064
H174	H	-0.074205	1.240133	0.499936
H175	H	-0.723197	-0.023235	-0.480877
H176	H	-0.223197	0.476765	0.019123
H177	H	-0.206287	-0.220910	-0.000063
H178	H	0.293713	0.279090	0.499937
O179	O	-0.373151	-0.179124	-0.000016
O180	O	0.126849	0.320876	0.499984
C181	C	-0.405866	-0.225411	-0.000020
C182	C	0.094134	0.274589	0.499980
H183	H	-0.451532	-0.209434	0.033795
H184	H	0.048468	0.290566	0.533795
H185	H	-0.385682	-0.259597	0.051860
H186	H	0.114318	0.240403	0.551860
H187	H	-0.406840	-0.244630	-0.085715
H188	H	0.093160	0.255370	0.414285
H189	H	-0.098541	-0.219620	-0.000084
H190	H	0.401459	0.280380	0.499916
H191	H	-0.575494	0.632385	-0.000050
H192	H	-0.075494	1.132385	0.499950
O193	O	0.028359	0.030757	-0.000004
O194	O	0.528359	0.530757	0.499996
C195	C	-0.009836	0.036889	0.092531
C196	C	0.490164	0.536889	0.592531
H197	H	-0.013740	-0.007154	0.123381
H198	H	0.486260	0.492846	0.623381
H199	H	-0.053828	0.057600	0.071723
H200	H	0.446172	0.557600	0.571723
H201	H	0.007173	0.065180	0.157312
H202	H	0.507173	0.565180	0.657312
H203	H	-0.582038	0.085905	-0.000118
H204	H	-0.082038	0.585905	0.499882
H205	H	-0.762606	0.765818	-0.000086
H206	H	-0.262606	1.265818	0.499914
H207	H	-0.525555	0.459814	-0.000016
H208	H	-0.025555	0.959814	0.499984
H209	H	0.059870	-0.165721	-0.000100
H210	H	0.559870	0.334279	0.499900
O211	O	-0.518036	0.024269	0.000086
O212	O	-0.018036	0.524269	0.500086
C213	C	-0.511244	0.059469	0.092577
C214	C	-0.011244	0.559469	0.592577
H215	H	-0.493164	0.031688	0.157255
H216	H	0.006836	0.531688	0.657255
H217	H	-0.554669	0.083698	0.123625
H218	H	-0.054669	0.583698	0.623625
H219	H	-0.480409	0.091487	0.071645
H220	H	0.019591	0.591487	0.571645
O221	O	-0.251914	0.079412	-0.000376
O222	O	0.248086	0.579412	0.499624
C223	C	-0.283287	0.078676	-0.092877
C224	C	0.216713	0.578676	0.407123
H225	H	-0.258984	0.047028	-0.157537
H226	H	0.241016	0.547028	0.342463
H227	H	-0.289066	0.123438	-0.123947
H228	H	0.210934	0.623438	0.376053
H229	H	-0.327179	0.064967	-0.071949
H230	H	0.172821	0.564967	0.428051
O231	O	-0.778702	0.108119	-0.000115
O232	O	-0.278702	0.608119	0.499885
C233	C	-0.824058	0.153316	-0.000144
C234	C	-0.324058	0.653316	0.499856
H235	H	-0.809580	0.194832	0.033686
H236	H	-0.309580	0.694832	0.533686
H237	H	-0.862500	0.143021	0.051711
H238	H	-0.362500	0.643021	0.551711
H239	H	-0.836772	0.158644	-0.085848
H240	H	-0.336772	0.658644	0.414152
H241	H	0.167636	-0.164425	-0.000107
H242	H	0.667636	0.335575	0.499893
O243	O	-0.518694	0.346362	-0.000070
O244	O	-0.018694	0.846362	0.499930
C245	C	-0.472405	0.379074	-0.000021
C246	C	0.027595	0.879074	0.499979
H247	H	-0.485868	0.422240	-0.033842
H248	H	0.014132	0.922240	0.466158
H249	H	-0.434372	0.355050	-0.051874
H250	H	0.065628	0.855050	0.448126
H251	H	-0.459546	0.386385	0.085688
H252	H	0.040454	0.886385	0.585688
H253	H	0.141952	0.023977	-0.000137
H254	H	0.641952	0.523977	0.499863
O255	O	-0.572525	0.197214	0.000092
O256	O	-0.072525	0.697214	0.500092
C257	C	-0.544537	0.181796	0.092602
C258	C	-0.044537	0.681796	0.592602
H259	H	-0.577511	0.171991	0.157252
H260	H	-0.077511	0.671991	0.657252
H261	H	-0.521671	0.218797	0.123681
H262	H	-0.021671	0.718797	0.623681
H263	H	-0.511799	0.142135	0.071682
H264	H	-0.011799	0.642135	0.571682
O265	O	-0.134884	0.080882	-0.000056
O266	O	0.365116	0.580882	0.499944
C267	C	-0.157120	0.115721	0.092461
C268	C	0.342880	0.615721	0.592461
H269	H	-0.199372	0.101575	0.123322
H270	H	0.300628	0.601575	0.623322
H271	H	-0.164867	0.162421	0.071625
H272	H	0.335133	0.662421	0.571625
H273	H	-0.125103	0.111339	0.157245
H274	H	0.374897	0.611339	0.657245
O275	O	-0.777213	0.225166	-0.000282
O276	O	-0.277213	0.725166	0.499718
C277	C	-0.776488	0.256518	-0.092812
C278	C	-0.276488	0.756518	0.407188
H279	H	-0.730160	0.258143	-0.123641
H280	H	-0.230160	0.758143	0.376359
H281	H	-0.798743	0.302049	-0.072007
H282	H	-0.298743	0.802049	0.427993
H283	H	-0.799977	0.234718	-0.157609
H284	H	-0.299977	0.734718	0.342391
H285	H	-0.817802	0.499641	-0.000112
H286	H	-0.317802	0.999641	0.499888
O287	O	-0.827357	0.388434	-0.000082
O288	O	-0.327357	0.888434	0.499918
C289	C	-0.872709	0.433636	-0.000113
C290	C	-0.372709	0.933636	0.499887
H291	H	-0.858225	0.475150	0.033711
H292	H	-0.358225	0.975150	0.533711
H293	H	-0.911152	0.423346	0.051745
H294	H	-0.411152	0.923346	0.551745
H295	H	-0.885422	0.438963	-0.085818
H296	H	-0.385422	0.938963	0.414182
O297	O	-0.772137	0.654528	0.000098
O298	O	-0.272137	1.154528	0.500098
C299	C	-0.806981	0.676785	0.092597
C300	C	-0.306981	1.176785	0.592597
H301	H	-0.778800	0.691364	0.157266
H302	H	-0.278800	1.191364	0.657266
H303	H	-0.832155	0.642084	0.123652
H304	H	-0.332155	1.142084	0.623652
H305	H	-0.838163	0.714904	0.071670
H306	H	-0.338163	1.214904	0.571670
H307	H	-0.404508	0.017438	-0.000103
H308	H	0.095492	0.517438	0.499897
