data_functionalizedCrystal
_audit_creation_method	'MofGen! by Chris Wilmer'
_symmetry_space_group_name_H-M	'P1'
_symmetry_Int_Tables_number	1
_symmetry_cell_setting	triclinic
loop_
_symmetry_equiv_pos_as_xyz
  x,y,z
_cell_length_a	23.532355
_cell_length_b	23.532407
_cell_length_c	15.186229
_cell_angle_alpha	90.008386
_cell_angle_beta	89.997531
_cell_angle_gamma	82.838088
loop_
_atom_site_label
_atom_site_type_symbol
_atom_site_fract_x
_atom_site_fract_y
_atom_site_fract_z
O1	O	0.755278	0.068993	0.073118
O2	O	1.088611	0.402327	0.406451
O3	O	1.421945	0.735660	0.739784
O4	O	0.589410	0.079027	0.073147
O5	O	0.922744	0.412361	0.406480
O6	O	1.256077	0.745694	0.739814
O7	O	0.677346	-0.008922	0.073115
O8	O	1.010679	0.324411	0.406449
O9	O	1.344012	0.657744	0.739782
O10	O	0.667342	0.156943	0.073149
O11	O	1.000676	0.490276	0.406483
O12	O	1.334009	0.823610	0.739816
O13	O	0.677340	-0.008923	-0.073342
O14	O	1.010673	0.324410	0.259991
O15	O	1.344007	0.657743	0.593325
O16	O	0.589404	0.079026	-0.073310
O17	O	0.922738	0.412360	0.260023
O18	O	1.256071	0.745693	0.593356
O19	O	0.755272	0.068992	-0.073340
O20	O	1.088605	0.402325	0.259994
O21	O	1.421939	0.735659	0.593327
Zn22	Zn	0.672337	0.074009	-0.096578
Zn23	Zn	1.005671	0.407342	0.236755
Zn24	Zn	1.339004	0.740676	0.570088
Zn25	Zn	0.672345	0.074011	0.096386
Zn26	Zn	1.005678	0.407344	0.429719
Zn27	Zn	1.339012	0.740677	0.763052
O28	O	0.667336	0.156942	-0.073308
O29	O	1.000670	0.490275	0.260025
O30	O	1.334003	0.823609	0.593359
C31	C	0.568191	0.078776	-0.000078
C32	C	0.901524	0.412109	0.333255
C33	C	1.234857	0.745443	0.666589
C34	C	0.504972	0.078022	-0.000068
C35	C	0.838305	0.411355	0.333266
C36	C	1.171639	0.744689	0.666599
C37	C	0.112955	0.073283	-0.079939
C38	C	0.446288	0.406617	0.253394
C39	C	0.779622	0.739950	0.586727
C40	C	0.053556	0.072566	-0.079943
C41	C	0.386889	0.405899	0.253390
C42	C	0.720222	0.739232	0.586724
O43	O	0.022834	0.072175	-0.147838
O44	O	0.356168	0.405508	0.185496
O45	O	0.689501	0.738841	0.518829
N46	N	0.023850	0.072211	-0.000109
N47	N	0.357184	0.405544	0.333224
N48	N	0.690517	0.738877	0.666557
C49	C	0.053548	0.072567	0.079733
C50	C	0.386882	0.405901	0.413066
C51	C	0.720215	0.739234	0.746399
O52	O	0.022828	0.072199	0.147637
O53	O	0.356161	0.405532	0.480970
O54	O	0.689494	0.738865	0.814304
C55	C	0.112947	0.073281	0.079735
C56	C	0.446281	0.406614	0.413069
C57	C	0.779614	0.739947	0.746402
C58	C	0.142649	0.073641	-0.000103
C59	C	0.475982	0.406975	0.333230
C60	C	0.809315	0.740308	0.666563
C61	C	0.142657	0.073643	-0.159772
C62	C	0.475990	0.406977	0.173562
C63	C	0.809323	0.740310	0.506895
C64	C	0.202052	0.074362	-0.159768
C65	C	0.535385	0.407695	0.173566
C66	C	0.868719	0.741029	0.506899
C67	C	0.231745	0.074720	-0.079932
C68	C	0.565079	0.408054	0.253402
C69	C	0.898412	0.741387	0.586735
C70	C	0.202044	0.074360	-0.000099
C71	C	0.535377	0.407693	0.333234
C72	C	0.868711	0.741027	0.666567
C73	C	0.142645	0.073633	0.159577
C74	C	0.475978	0.406966	0.492910
C75	C	0.809311	0.740300	0.826243
C76	C	0.202048	0.074346	0.159573
C77	C	0.535381	0.407679	0.492906
C78	C	0.868714	0.741013	0.826239
C79	C	0.231749	0.074707	0.079734
C80	C	0.565082	0.408040	0.413067
C81	C	0.898416	0.741374	0.746400
C82	C	0.291133	0.075437	0.079741
C83	C	0.624466	0.408770	0.413074
C84	C	0.957799	0.742103	0.746407
N85	N	0.320838	0.075792	-0.000093
N86	N	0.654171	0.409125	0.333240
N87	N	0.987505	0.742458	0.666574
C88	C	0.291144	0.075434	-0.079929
C89	C	0.624478	0.408767	0.253404
C90	C	0.957811	0.742100	0.586738
C91	C	-0.071193	0.071068	0.079721
C92	C	0.262140	0.404402	0.413055
C93	C	0.595474	0.737735	0.746388
C94	C	-0.130591	0.070359	0.079720
C95	C	0.202742	0.403692	0.413053
C96	C	0.536075	0.737026	0.746386
C97	C	-0.130580	0.070356	-0.079957
C98	C	0.202753	0.403690	0.253377
C99	C	0.536087	0.737023	0.586710
C100	C	-0.071181	0.071070	-0.079954
C101	C	0.262152	0.404403	0.253379
C102	C	0.595486	0.737736	0.586713
C103	C	-0.041488	0.071423	-0.000112
C104	C	0.291846	0.404757	0.333221
C105	C	0.625179	0.738090	0.666554
C106	C	0.415878	0.076943	-0.079915
C107	C	0.749212	0.410276	0.253419
C108	C	1.082545	0.743610	0.586752
C109	C	0.475279	0.077664	-0.079904
C110	C	0.808612	0.410997	0.253430
C111	C	1.141945	0.744330	0.586763
C112	C	0.475262	0.077663	0.079772
C113	C	0.808596	0.410997	0.413105
C114	C	1.141929	0.744330	0.746438
C115	C	0.415867	0.076945	0.079761
C116	C	0.749200	0.410279	0.413095
C117	C	1.082534	0.743612	0.746428
C118	C	0.386177	0.076583	-0.000089
C119	C	0.719510	0.409917	0.333244
C120	C	1.052843	0.743250	0.666578
O121	O	0.321892	0.075826	0.147601
O122	O	0.655225	0.409159	0.480934
O123	O	0.988559	0.742492	0.814267
O124	O	0.321873	0.075795	-0.147822
O125	O	0.655207	0.409128	0.185511
O126	O	0.988540	0.742461	0.518845
C127	C	0.677088	-0.030139	-0.000116
C128	C	1.010421	0.303195	0.333218
C129	C	1.343755	0.636528	0.666551
C130	C	0.676322	-0.093356	-0.000122
C131	C	1.009656	0.239978	0.333211
C132	C	1.342989	0.573311	0.666544
C133	C	0.723557	-0.492468	-0.000082
C134	C	1.056890	-0.159134	0.333251
C135	C	1.390224	0.174199	0.666584
C136	C	0.722845	-0.551868	-0.000075
C137	C	1.056179	-0.218534	0.333258
C138	C	1.389512	0.114799	0.666591
O139	O	0.766632	-0.588620	-0.000051
O140	O	1.099966	-0.255287	0.333283
O141	O	1.433299	0.078046	0.666616
N142	N	0.670568	-0.574484	-0.000067
N143	N	1.003901	-0.241151	0.333266
N144	N	1.337234	0.092183	0.666600
C145	C	0.618998	-0.537697	-0.000056
C146	C	0.952332	-0.204364	0.333277
C147	C	1.285665	0.128970	0.666611
O148	O	0.574467	-0.562388	-0.000047
O149	O	0.907800	-0.229055	0.333286
O150	O	1.241133	0.104278	0.666619
C151	C	0.619710	-0.478298	-0.000057
C152	C	0.953044	-0.144965	0.333277
C153	C	1.286377	0.188369	0.666610
C154	C	0.671991	-0.455685	-0.000074
C155	C	1.005325	-0.122352	0.333259
C156	C	1.338658	0.210982	0.666593
C157	C	0.775834	-0.469854	-0.000099
C158	C	1.109167	-0.136521	0.333235
C159	C	1.442500	0.196813	0.666568
C160	C	0.776545	-0.410458	-0.000107
C161	C	1.109878	-0.077125	0.333226
C162	C	1.443212	0.256209	0.666559
C163	C	0.724979	-0.373676	-0.000099
C164	C	1.058313	-0.040342	0.333234
C165	C	1.391646	0.292991	0.666568
C166	C	0.672703	-0.396289	-0.000083
C167	C	1.006036	-0.062956	0.333251
C168	C	1.339369	0.270378	0.666584
C169	C	0.568141	-0.441512	-0.000040
C170	C	0.901475	-0.108179	0.333294
C171	C	1.234808	0.225155	0.666627
C172	C	0.568858	-0.382110	-0.000039
C173	C	0.902191	-0.048776	0.333294
C174	C	1.235525	0.284557	0.666627
C175	C	0.621139	-0.359497	-0.000057
C176	C	0.954472	-0.026163	0.333276
C177	C	1.287806	0.307170	0.666610
C178	C	0.621848	-0.300110	-0.000083
C179	C	0.955182	0.033223	0.333250
C180	C	1.288515	0.366556	0.666584
N181	N	0.674126	-0.277494	-0.000092
N182	N	1.007459	0.055839	0.333242
N183	N	1.340793	0.389173	0.666575
C184	C	0.725691	-0.314277	-0.000100
C185	C	1.059025	0.019057	0.333234
C186	C	1.392358	0.352390	0.666567
C187	C	0.617507	-0.662439	-0.000053
C188	C	0.950840	-0.329106	0.333280
C189	C	1.284173	0.004228	0.666613
C190	C	0.616794	-0.721837	-0.000059
C191	C	0.950127	-0.388504	0.333274
C192	C	1.283461	-0.055170	0.666607
C193	C	0.720642	-0.736004	-0.000077
C194	C	1.053975	-0.402670	0.333256
C195	C	1.387308	-0.069337	0.666590
C196	C	0.721354	-0.676605	-0.000077
C197	C	1.054687	-0.343271	0.333256
C198	C	1.388020	-0.009938	0.666589
C199	C	0.669784	-0.639823	-0.000062
C200	C	1.003118	-0.306489	0.333271
C201	C	1.336451	0.026844	0.666605
C202	C	0.727181	-0.189540	-0.000118
C203	C	1.060514	0.143793	0.333215
C204	C	1.393848	0.477127	0.666549
C205	C	0.727888	-0.130138	-0.000130
C206	C	1.061221	0.203195	0.333203
C207	C	1.394554	0.536528	0.666536
C208	C	0.624041	-0.115977	-0.000108
C209	C	0.957374	0.217357	0.333225
C210	C	1.290707	0.550690	0.666559
C211	C	0.623334	-0.175373	-0.000100
C212	C	0.956667	0.157960	0.333233
C213	C	1.290000	0.491293	0.666566
C214	C	0.674909	-0.212154	-0.000103
C215	C	1.008242	0.121179	0.333231
C216	C	1.341575	0.454512	0.666564
O217	O	0.578084	-0.263323	-0.000104
O218	O	0.911418	0.070010	0.333229
O219	O	1.244751	0.403344	0.666563
O220	O	0.770216	-0.289577	-0.000097
O221	O	1.103549	0.043756	0.333237
O222	O	1.436882	0.377090	0.666570
C223	C	0.776492	0.069244	-0.000113
C224	C	1.109825	0.402577	0.333221
C225	C	1.443158	0.735910	0.666554
C226	C	0.839710	0.069998	-0.000117
C227	C	1.173043	0.403331	0.333216
C228	C	1.506377	0.736664	0.666549
C229	C	0.667594	0.178158	-0.000075
C230	C	1.000927	0.511492	0.333258
C231	C	1.334261	0.844825	0.666592
C232	C	0.668360	0.241375	-0.000063
C233	C	1.001693	0.574709	0.333271
C234	C	1.335027	0.908042	0.666604
N235	N	0.672336	0.074008	-0.228271
N236	N	1.005670	0.407341	0.105062
N237	N	1.339003	0.740674	0.438396
C238	C	0.711287	0.035076	-0.454008
C239	C	1.044620	0.368410	-0.120674
C240	C	1.377954	0.701743	0.212659
C241	C	0.711289	0.035075	-0.546197
C242	C	1.044622	0.368408	-0.212864
C243	C	1.377956	0.701742	0.120469
C244	C	0.633395	0.112941	-0.546178
C245	C	0.966729	0.446274	-0.212845
C246	C	1.300062	0.779607	0.120488
C247	C	0.633391	0.112939	-0.453990
C248	C	0.966725	0.446272	-0.120657
C249	C	1.300058	0.779605	0.212676
C250	C	0.672340	0.074007	-0.407907
C251	C	1.005674	0.407341	-0.074574
C252	C	1.339007	0.740674	0.258759
C253	C	0.672346	0.074008	-0.592285
C254	C	1.005680	0.407341	-0.258952
C255	C	1.339013	0.740674	0.074382
C256	C	0.672348	0.074007	-0.692241
C257	C	1.005681	0.407340	-0.358908
C258	C	1.339015	0.740673	-0.025575
C259	C	0.672338	0.074008	-0.307945
C260	C	1.005672	0.407341	0.025388
C261	C	1.339005	0.740674	0.358722
N262	N	0.672351	0.074008	0.228078
N263	N	1.005684	0.407341	0.561412
N264	N	1.339017	0.740674	0.894745
H265	H	0.391711	0.076653	-0.144937
H266	H	0.725044	0.409987	0.188397
H267	H	1.058378	0.743320	0.521730
F268	F	0.506875	0.078043	0.164735
F269	F	0.840208	0.411376	0.498068
F270	F	1.173542	0.744710	0.831401
H271	H	0.601685	0.144638	-0.583708
H272	H	0.935018	0.477972	-0.250375
H273	H	1.268351	0.811305	0.082958
H274	H	0.743001	0.003375	-0.416489
H275	H	1.076334	0.336709	-0.083156
H276	H	1.409668	0.670042	0.250178
F277	F	0.233655	0.074743	-0.244744
F278	F	0.566989	0.408077	0.088589
F279	F	0.900322	0.741410	0.421923
H280	H	0.762629	-0.765963	-0.000080
H281	H	1.095962	-0.432630	0.333253
H282	H	1.429296	-0.099296	0.666587
F283	F	0.591935	0.154374	-0.404923
F284	F	0.925268	0.487707	-0.071590
F285	F	1.258601	0.821041	0.261743
F286	F	0.233646	0.074721	0.244554
F287	F	0.566979	0.408054	0.577887
F288	F	0.900313	0.741387	0.911220
H289	H	0.769178	-0.219481	-0.000116
H290	H	1.102512	0.113853	0.333217
H291	H	1.435845	0.447186	0.666550
H292	H	-0.154771	0.070074	0.144732
H293	H	0.178563	0.403408	0.478066
H294	H	0.511896	0.736741	0.811399
F295	F	0.513969	-0.342966	-0.000021
F296	F	0.847303	-0.009633	0.333312
F297	F	1.180636	0.323700	0.666645
F298	F	0.752740	-0.006361	-0.595258
F299	F	1.086073	0.326972	-0.261924
F300	F	1.419407	0.660305	0.071409
H301	H	0.499459	0.077959	-0.144921
H302	H	0.832792	0.411293	0.188412
H303	H	1.166125	0.744626	0.521746
F304	F	0.567691	-0.199441	-0.000098
F305	F	0.901024	0.133893	0.333236
F306	F	1.234358	0.467226	0.666569
F307	F	-0.039597	0.071450	0.164705
F308	F	0.293736	0.404783	0.498039
F309	F	0.627070	0.738117	0.831372
H310	H	0.118487	0.073350	-0.224787
H311	H	0.451820	0.406684	0.108546
H312	H	0.785153	0.740017	0.441879
F313	F	0.783535	-0.106076	-0.000148
F314	F	1.116868	0.227257	0.333185
F315	F	1.450201	0.560591	0.666518
H316	H	-0.047002	0.071364	-0.144966
H317	H	0.286331	0.404698	0.188368
H318	H	0.619665	0.738031	0.521701
F319	F	0.562616	-0.623297	-0.000045
F320	F	0.895949	-0.289964	0.333288
F321	F	1.229283	0.043370	0.666621
H322	H	-0.154767	0.070064	-0.144964
H323	H	0.178566	0.403397	0.188370
H324	H	0.511900	0.736730	0.521703
F325	F	0.384254	0.076571	0.164734
F326	F	0.717587	0.409904	0.498067
F327	F	1.050921	0.743237	0.831401
F328	F	0.832190	-0.386400	-0.000107
F329	F	1.165523	-0.053066	0.333226
F330	F	1.498857	0.280267	0.666560
F331	F	0.111047	0.073248	0.244554
F332	F	0.444380	0.406581	0.577887
F333	F	0.777714	0.739915	0.911220
F334	F	0.776998	-0.652544	-0.000096
F335	F	1.110331	-0.319211	0.333237
F336	F	1.443664	0.014123	0.666571
F337	F	0.830722	-0.508993	-0.000107
F338	F	1.164055	-0.175660	0.333227
F339	F	1.497389	0.157674	0.666560
H340	H	0.525569	-0.459912	-0.000020
H341	H	0.858902	-0.126579	0.333313
H342	H	1.192235	0.206754	0.666647
F343	F	0.561150	-0.745896	-0.000056
F344	F	0.894483	-0.412563	0.333277
F345	F	1.227816	-0.079230	0.666610
F346	F	0.569164	-0.076820	-0.000100
F347	F	0.902497	0.256513	0.333234
F348	F	1.235831	0.589847	0.666567
