data_functionalizedCrystal
_audit_creation_method	'MofGen! by Chris Wilmer'
_symmetry_space_group_name_H-M	'P1'
_symmetry_Int_Tables_number	1
_symmetry_cell_setting	triclinic
loop_
_symmetry_equiv_pos_as_xyz
  x,y,z
_cell_length_a	10.654550
_cell_length_b	14.971486
_cell_length_c	9.130313
_cell_angle_alpha	89.995272
_cell_angle_beta	89.999724
_cell_angle_gamma	84.049530
loop_
_atom_site_label
_atom_site_type_symbol
_atom_site_fract_x
_atom_site_fract_y
_atom_site_fract_z
O1	O	1.666492	0.125631	-0.121691
O2	O	1.300885	0.137600	-0.121718
O3	O	1.493487	0.001469	-0.121693
O4	O	1.473889	0.261762	-0.121716
O5	O	1.493474	0.001465	0.121906
O6	O	1.300872	0.137596	0.121881
O7	O	1.666479	0.125627	0.121908
Cu8	Cu	1.483674	0.131611	0.144137
Cu9	Cu	1.483689	0.131616	-0.143947
O10	O	1.473876	0.261758	0.121883
C11	C	1.254090	0.136720	0.000078
C12	C	1.114675	0.134090	0.000068
C13	C	1.492604	-0.031863	0.000106
C14	C	1.489978	-0.131174	0.000104
C15	C	1.034329	0.214242	0.000065
C16	C	0.903335	0.211766	0.000091
C17	C	0.933044	0.048979	0.000116
C18	C	1.064036	0.051456	0.000101
C19	C	1.603127	-0.187783	0.000114
C20	C	1.600651	-0.281096	0.000099
C21	C	1.485026	-0.317798	0.000085
C22	C	1.371868	-0.261181	0.000071
C23	C	1.374345	-0.167870	0.000075
C24	C	1.366714	-0.455672	0.000065
C25	C	1.364237	-0.548989	0.000064
C26	C	1.593020	-0.568898	0.000089
C27	C	1.595497	-0.475587	0.000093
C28	C	1.482339	-0.418976	0.000082
C29	C	1.713274	0.126508	0.000109
C30	C	1.852689	0.129137	0.000109
C31	C	1.474759	0.295090	0.000081
C32	C	1.477385	0.394401	0.000073
N33	N	1.483672	0.131608	0.346760
N34	N	1.483701	0.131613	-0.346570
C35	C	1.568985	0.071354	0.423422
C36	C	1.568997	0.071354	0.576759
C37	C	1.398379	0.191869	0.576757
C38	C	1.398362	0.191864	0.423423
H39	H	0.837922	0.277034	0.000092
O40	O	0.884059	-0.031364	0.000194
C41	C	0.983069	-0.101577	0.000155
H42	H	1.072091	-0.075953	0.046269
H43	H	0.955613	-0.159221	0.070881
H44	H	1.001564	-0.126335	-0.116712
O45	O	1.715369	-0.152029	-0.000069
C46	C	1.723665	-0.098661	-0.126247
H47	H	1.624720	-0.076033	-0.168312
H48	H	1.773820	-0.037260	-0.097868
H49	H	1.779162	-0.139531	-0.214590
O50	O	1.083730	0.294433	-0.000022
C51	C	1.216576	0.279436	-0.000003
H52	H	1.247231	0.209825	-0.046114
H53	H	1.256864	0.332359	-0.070740
H54	H	1.253056	0.283998	0.116858
H55	H	1.129457	-0.013817	0.000107
O56	O	1.710681	-0.335958	0.000183
C57	C	1.813265	-0.283556	0.000172
H58	H	1.781486	-0.214124	0.046289
H59	H	1.892543	-0.317483	0.070910
H60	H	1.848718	-0.276685	-0.116686
O61	O	1.251811	-0.584495	-0.000038
C62	C	1.152465	-0.514523	-0.000030
H63	H	1.187769	-0.450920	-0.046130
H64	H	1.071768	-0.534520	-0.070785
H65	H	1.117525	-0.501547	0.116825
O66	O	1.315395	0.250434	0.651004
C67	C	1.240109	0.303627	0.550453
H68	H	1.238631	0.266941	0.441160
H69	H	1.139846	0.316605	0.594768
H70	H	1.280969	0.370347	0.534123
O71	O	1.707923	-0.440081	0.000048
C72	C	1.807268	-0.510053	0.000092
H73	H	1.771981	-0.573649	-0.046035
H74	H	1.887991	-0.490047	-0.070619
H75	H	1.842168	-0.523045	0.116963
H76	H	1.685158	-0.614995	0.000093
H77	H	1.277724	-0.291071	0.000051
O78	O	1.256875	-0.400589	0.000252
C79	C	1.251443	-0.346043	0.126435
H80	H	1.351130	-0.340711	0.168501
H81	H	1.204770	-0.276211	0.098063
H82	H	1.194038	-0.377098	0.214774
H83	H	1.282207	-0.121779	0.000068
H84	H	1.638448	0.022288	0.361007
H85	H	1.638465	0.022290	0.639174
H86	H	1.328884	0.240930	0.361000
