data_functionalizedCrystal
_audit_creation_method	'MofGen! by Chris Wilmer'
_symmetry_space_group_name_H-M	'P1'
_symmetry_Int_Tables_number	1
_symmetry_cell_setting	triclinic
loop_
_symmetry_equiv_pos_as_xyz
  x,y,z
_cell_length_a	12.759400
_cell_length_b	17.077404
_cell_length_c	17.077396
_cell_angle_alpha	89.983895
_cell_angle_beta	89.973580
_cell_angle_gamma	90.012655
loop_
_atom_site_label
_atom_site_type_symbol
_atom_site_fract_x
_atom_site_fract_y
_atom_site_fract_z
Zn1	Zn	-0.418315	1.200082	-0.443835
Zn2	Zn	-0.594018	1.200013	-0.312575
Zn3	Zn	-0.418347	1.068819	-0.312585
Zn4	Zn	-0.593946	1.068800	-0.443801
O5	O	-0.506156	1.134429	-0.378199
O6	O	-0.441638	1.309920	-0.426433
O7	O	-0.570758	1.182589	-0.202730
O8	O	-0.271322	1.086268	-0.330014
O9	O	-0.570727	1.309869	-0.329997
O10	O	-0.271298	1.182706	-0.426442
O11	O	-0.441694	1.086201	-0.202737
O12	O	-0.441624	0.958970	-0.329982
O13	O	-0.570604	1.086236	-0.553653
O14	O	-0.570636	0.958956	-0.426386
O15	O	-0.441569	1.182688	-0.553677
O16	O	-0.741029	1.182571	-0.329965
O17	O	-0.740976	1.086170	-0.426376
C18	C	-0.506127	0.930481	-0.378182
C19	C	-0.506139	0.843231	-0.378193
C20	C	-0.439042	0.802268	-0.428483
C21	C	-0.439049	0.720287	-0.428487
C22	C	-0.506159	0.679271	-0.378203
C23	C	-0.573258	0.720240	-0.327907
C24	C	-0.573246	0.802219	-0.327900
C25	C	-0.573282	0.549370	-0.327926
C26	C	-0.573297	0.467386	-0.327934
C27	C	-0.439086	0.467438	-0.428513
C28	C	-0.439073	0.549417	-0.428506
C29	C	-0.506174	0.590380	-0.378211
C30	C	-0.779124	1.134382	-0.378183
C31	C	-0.895900	1.134434	-0.378202
C32	C	-0.950755	1.184686	-0.328056
C33	C	-1.060479	1.184734	-0.328080
C34	C	-1.060484	1.084272	-0.428399
C35	C	-0.950762	1.084228	-0.428378
C36	C	-0.950753	1.242684	-0.270136
C37	C	-1.060477	1.242733	-0.270160
C38	C	-0.232123	1.134497	-0.378233
C39	C	-0.115346	1.134526	-0.378247
C40	C	-0.506075	1.134468	-0.582944
C41	C	-0.506040	1.134485	-0.670193
C42	C	-0.506187	1.339173	-0.378217
C43	C	-0.506200	1.426423	-0.378225
C44	C	-0.438828	1.084311	-0.711187
C45	C	-0.438804	1.084324	-0.793167
C46	C	-0.505988	1.134515	-0.834153
C47	C	-0.573207	1.184691	-0.793154
C48	C	-0.573236	1.184674	-0.711175
C49	C	-0.573142	1.184725	-0.964024
C50	C	-0.573112	1.184743	-1.046009
C51	C	-0.438710	1.084375	-1.046016
C52	C	-0.438739	1.084358	-0.964037
C53	C	-0.505957	1.134535	-0.923044
C54	C	-0.506162	1.134434	-0.174251
C55	C	-0.505900	1.134570	-0.087002
H56	H	-0.627944	0.433993	-0.286989
H57	H	-1.094427	1.300489	-0.291988
H58	H	-1.090331	1.226496	-0.209356
H59	H	-0.384114	1.043444	-0.677822
C60	C	-0.305852	0.985165	-1.037786
C61	C	-0.364823	1.029217	-1.091072
H62	H	-0.260233	0.951121	-1.065605
H63	H	-0.351630	0.955121	-1.005803
H64	H	-0.265687	1.019382	-1.005819
H65	H	-0.404994	0.995000	-1.123035
H66	H	-0.319040	1.059264	-1.123069
C67	C	-1.049467	0.984970	-0.527561
C68	C	-1.120791	1.029086	-0.483549
H69	H	-1.086699	0.950904	-0.561613
H70	H	-1.006742	0.954945	-0.493326
H71	H	-1.006602	1.019144	-0.557604
H72	H	-1.163651	0.994912	-0.453502
H73	H	-1.163534	1.059113	-0.517789
C74	C	-0.938900	1.136590	-0.178282
C75	C	-0.904908	1.213321	-0.192141
H76	H	-0.910602	1.118465	-0.130129
H77	H	-0.915896	1.103641	-0.219659
H78	H	-1.013258	1.135630	-0.175647
H79	H	-0.830550	1.214280	-0.194782
H80	H	-0.927906	1.246278	-0.150754
H81	H	-0.920900	1.303459	-0.286464
C82	C	-0.306422	0.475729	-0.527936
C83	C	-0.365321	0.422416	-0.483797
H84	H	-0.260893	0.447930	-0.562069
H85	H	-0.266174	0.507695	-0.493787
H86	H	-0.352258	0.507710	-0.557898
H87	H	-0.319485	0.390438	-0.453831
H88	H	-0.405572	0.390437	-0.517951
C89	C	-0.705917	0.728428	-0.228488
C90	C	-0.647029	0.675158	-0.272633
H91	H	-0.751457	0.700596	-0.194362
H92	H	-0.746152	0.760412	-0.262634
H93	H	-0.660074	0.760395	-0.198518
H94	H	-0.692871	0.643195	-0.302608
H95	H	-0.606790	0.643161	-0.238483
H96	H	-0.906100	1.043316	-0.469217
C97	C	-0.714529	0.894403	-0.316806
C98	C	-0.647001	0.847252	-0.272622
H99	H	-0.760056	0.922207	-0.282676
H100	H	-0.754780	0.862432	-0.350949
H101	H	-0.674545	0.930557	-0.346750
H102	H	-0.686985	0.811095	-0.242683
H103	H	-0.606747	0.879226	-0.238466
H104	H	-0.384078	1.043464	-0.826540
C105	C	-0.424162	0.978761	-0.871833
C106	C	-0.364891	1.029188	-0.918983
H107	H	-0.378570	0.944703	-0.844016
H108	H	-0.469908	0.948730	-0.903806
H109	H	-0.464193	1.008651	-0.835691
H110	H	-0.324866	0.999297	-0.955129
H111	H	-0.319126	1.059221	-0.887007
C112	C	-0.705984	1.283939	-1.037771
C113	C	-0.646968	1.239908	-1.091062
H114	H	-0.751584	1.317992	-1.065587
H115	H	-0.660234	1.313975	-1.005806
H116	H	-0.746172	1.249711	-1.005787
H117	H	-0.606774	1.274137	-1.123043
H118	H	-0.692724	1.209870	-1.123040
H119	H	-0.384432	0.582810	-0.469456
H120	H	-0.627959	1.225536	-0.677799
C121	C	-0.306379	0.794077	-0.527898
C122	C	-0.365273	0.847349	-0.483758
H123	H	-0.260830	0.821908	-0.562019
H124	H	-0.352209	0.762111	-0.557866
H125	H	-0.266141	0.762092	-0.493742
H126	H	-0.405516	0.879330	-0.517914
H127	H	-0.319436	0.879328	-0.453788
C128	C	-0.714505	1.195576	-0.871813
C129	C	-0.647029	1.239879	-0.918960
H130	H	-0.760119	1.229628	-0.843996
H131	H	-0.674496	1.165687	-0.835678
H132	H	-0.754675	1.161377	-0.903794
H133	H	-0.606853	1.274075	-0.886978
H134	H	-0.687042	1.269781	-0.955099
C135	C	-0.424655	0.628137	-0.534103
C136	C	-0.365300	0.675262	-0.483774
H137	H	-0.379121	0.600339	-0.568233
H138	H	-0.470472	0.660125	-0.564061
H139	H	-0.464613	0.591979	-0.504147
H140	H	-0.325348	0.711425	-0.513730
H141	H	-0.319465	0.643271	-0.453814
H142	H	-0.627921	0.582720	-0.286969
H143	H	-0.627915	1.225553	-0.826531
