data_functionalizedCrystal
_audit_creation_method	'MofGen! by Chris Wilmer'
_symmetry_space_group_name_H-M	'P1'
_symmetry_Int_Tables_number	1
_symmetry_cell_setting	triclinic
loop_
_symmetry_equiv_pos_as_xyz
  x,y,z
_cell_length_a	15.021413
_cell_length_b	15.944551
_cell_length_c	15.944551
_cell_angle_alpha	83.498738
_cell_angle_beta	89.998676
_cell_angle_gamma	90.002688
loop_
_atom_site_label
_atom_site_type_symbol
_atom_site_fract_x
_atom_site_fract_y
_atom_site_fract_z
O1	O	-0.073941	-1.114528	-0.108323
O2	O	0.426059	-0.614528	0.391677
O3	O	-0.073964	-0.869979	-0.121679
O4	O	0.426036	-0.369979	0.378321
O5	O	-0.073944	-0.998932	0.007274
O6	O	0.426056	-0.498932	0.507274
O7	O	-0.073961	-0.985576	-0.237276
O8	O	0.426039	-0.485576	0.262724
O9	O	0.074121	-0.998912	0.007260
O10	O	0.574121	-0.498912	0.507260
O11	O	0.074101	-0.869959	-0.121693
O12	O	0.574101	-0.369959	0.378307
O13	O	0.074123	-1.114509	-0.108337
O14	O	0.574123	-0.614509	0.391663
Zn15	Zn	0.097620	-0.992231	-0.115017
Zn16	Zn	0.597620	-0.492231	0.384983
Zn17	Zn	-0.097461	-0.992257	-0.114999
Zn18	Zn	0.402539	-0.492257	0.385001
O19	O	0.074103	-0.985556	-0.237290
O20	O	0.574103	-0.485556	0.262710
C21	C	0.000066	-0.838675	-0.121132
C22	C	0.500066	-0.338675	0.378868
C23	C	0.000057	-0.745429	-0.119470
C24	C	0.500057	-0.245429	0.380530
N25	N	0.230758	-0.992219	-0.115030
N26	N	0.730758	-0.492219	0.384970
N27	N	-0.230598	-0.992275	-0.114980
N28	N	0.269402	-0.492275	0.385020
C29	C	0.529764	-0.933085	-0.175123
C30	C	1.029764	-0.433085	0.324877
C31	C	0.470408	-0.916089	-0.099454
C32	C	0.970408	-0.416089	0.400546
C33	C	0.587795	-0.992256	-0.114995
C34	C	1.087795	-0.492256	0.385005
C35	C	0.470409	-1.009195	-0.190679
C36	C	0.970409	-0.509195	0.309321
C37	C	0.412371	-0.992236	-0.115016
C38	C	0.912371	-0.492236	0.384984
C39	C	0.529746	-0.975222	-0.039288
C40	C	1.029746	-0.475222	0.460712
C41	C	0.529751	-1.068361	-0.130562
C42	C	1.029751	-0.568361	0.369438
C43	C	0.470423	-1.051396	-0.054838
C44	C	0.970423	-0.551396	0.445162
C45	C	0.688852	-0.992265	-0.114984
C46	C	1.188852	-0.492265	0.385016
C47	C	0.311315	-0.992227	-0.115018
C48	C	0.811315	-0.492227	0.384982
C49	C	0.000089	-0.998367	0.038561
C50	C	0.500089	-0.498367	0.538561
C51	C	0.000089	-0.996705	0.131807
C52	C	0.500089	-0.496705	0.631807
C53	C	0.000092	-1.145813	-0.108885
C54	C	0.500092	-0.645813	0.391115
C55	C	0.000094	-1.239059	-0.110547
C56	C	0.500094	-0.739059	0.389453
C57	C	0.000081	-0.530572	-0.035565
C58	C	0.500081	-0.030572	0.464435
C59	C	-0.072926	-0.469562	-0.074521
C60	C	0.427074	0.030438	0.425479
C61	C	0.000068	-0.574703	-0.116462
C62	C	0.500068	-0.074703	0.383538
C63	C	0.073054	-0.469565	-0.074554
C64	C	0.573054	0.030435	0.425446
C65	C	0.000083	-0.409790	-0.113551
C66	C	0.500083	0.090210	0.386449
C67	C	-0.072998	-0.514921	-0.155440
C68	C	0.427002	-0.014921	0.344560
C69	C	0.073047	-0.514930	-0.155462
C70	C	0.573047	-0.014930	0.344538
C71	C	0.000023	-0.453937	-0.194476
C72	C	0.500023	0.046063	0.305524
C73	C	0.000059	-0.669705	-0.118137
C74	C	0.500059	-0.169705	0.381863
C75	C	0.000085	-0.314789	-0.111883
C76	C	0.500085	0.185211	0.388117
C77	C	0.000069	-0.986120	-0.268577
C78	C	0.500069	-0.486120	0.231423
C79	C	0.000063	-0.987782	-0.361823
C80	C	0.500063	-0.487782	0.138177
C81	C	0.000069	-0.912801	0.346663
C82	C	0.500069	-0.412801	0.846663
C83	C	0.073077	-0.951753	0.407674
C84	C	0.573077	-0.451753	0.907674
C85	C	0.000082	-0.993698	0.302533
C86	C	0.500082	-0.493698	0.802533
C87	C	-0.072903	-0.951792	0.407671
C88	C	0.427097	-0.451792	0.907671
C89	C	0.000071	-0.990787	0.467445
C90	C	0.500071	-0.490787	0.967445
C91	C	0.073150	-1.032673	0.362315
C92	C	0.573150	-0.532673	0.862315
C93	C	-0.072895	-1.032700	0.362306
C94	C	0.427105	-0.532700	0.862306
C95	C	0.000131	-1.071711	0.423298
C96	C	0.500131	-0.571711	0.923298
C97	C	0.000089	-0.995372	0.207530
C98	C	0.500089	-0.495372	0.707530
C99	C	0.000070	-0.989119	0.562446
C100	C	0.500070	-0.489119	1.062446
H101	H	0.444335	-0.851721	-0.086294
H102	H	0.944335	-0.351721	0.413706
H103	H	-0.134787	-0.534917	-0.189625
H104	H	0.365213	-0.034917	0.310375
O105	O	-0.000145	-0.414276	-0.274611
O106	O	0.499855	0.085724	0.225389
C107	C	-0.076482	-0.362908	-0.286921
C108	C	0.423518	0.137092	0.213079
H109	H	-0.101615	-0.346550	-0.223298
H110	H	0.398385	0.153450	0.276702
H111	H	-0.058938	-0.302387	-0.328748
H112	H	0.441062	0.197613	0.171252
H113	H	-0.130619	-0.398247	-0.318673
H114	H	0.369381	0.101753	0.181327
H115	H	0.134773	-0.449470	-0.040328
H116	H	0.634773	0.050530	0.459672
O117	O	0.000301	-0.832682	0.306959
O118	O	0.500301	-0.332682	0.806959
C119	C	0.077404	-0.790325	0.329950
C120	C	0.577404	-0.290325	0.829950
H121	H	0.130940	-0.838536	0.351936
H122	H	0.630940	-0.338536	0.851936
H123	H	0.102877	-0.747116	0.273162
H124	H	0.602877	-0.247116	0.773162
H125	H	0.060743	-0.751072	0.383341
H126	H	0.560743	-0.251072	0.883341
H127	H	0.555840	-1.132709	-0.143751
H128	H	1.055840	-0.632709	0.356249
O129	O	0.439481	-1.111172	0.005764
O130	O	0.939481	-0.611172	0.505764
C131	C	0.387807	-1.170404	-0.032097
C132	C	0.887807	-0.670404	0.467903
H133	H	0.407889	-1.169640	-0.101128
H134	H	0.907889	-0.669640	0.398872
H135	H	0.399406	-1.236125	0.002338
H136	H	0.899406	-0.736125	0.502338
H137	H	0.314344	-1.153345	-0.028116
H138	H	0.814344	-0.653345	0.471884
O139	O	0.439208	-1.026408	-0.266951
O140	O	0.939208	-0.526408	0.233049
C141	C	0.387603	-1.100717	-0.256283
C142	C	0.887603	-0.600717	0.243717
H143	H	0.362003	-1.111417	-0.188609
H144	H	0.862003	-0.611417	0.311391
H145	H	0.328780	-1.094097	-0.301726
H146	H	0.828780	-0.594097	0.198274
H147	H	0.430295	-1.156725	-0.269887
H148	H	0.930295	-0.656725	0.230113
O149	O	0.146610	-0.910848	0.431753
O150	O	0.646610	-0.410848	0.931753
C151	C	0.120399	-0.840806	0.472469
C152	C	0.620399	-0.340806	0.972469
H153	H	0.050058	-0.851379	0.498367
H154	H	0.550058	-0.351379	0.998367
H155	H	0.168149	-0.832967	0.526604
H156	H	0.668149	-0.332967	1.026604
H157	H	0.121794	-0.781435	0.425362
H158	H	0.621794	-0.281435	0.925362
H159	H	-0.134615	-1.066895	0.342181
H160	H	0.365385	-0.566895	0.842181
H161	H	0.134767	-0.535053	-0.189655
H162	H	0.634767	-0.035053	0.310345
H163	H	0.555701	-0.960811	0.024721
H164	H	1.055701	-0.460811	0.524721
O165	O	-0.000157	-0.570282	0.044551
O166	O	0.499843	-0.070282	0.544551
C167	C	-0.077263	-0.547295	0.086904
C168	C	0.422737	-0.047295	0.586904
H169	H	-0.130794	-0.525302	0.038689
H170	H	0.369206	-0.025302	0.538689
H171	H	-0.102742	-0.604086	0.130104
H172	H	0.397258	-0.104086	0.630104
H173	H	-0.060603	-0.493910	0.126165
H174	H	0.439397	0.006090	0.626165
O175	O	0.561003	-0.873428	-0.235692
O176	O	1.061003	-0.373428	0.264308
C177	C	0.654854	-0.874730	-0.235347
C178	C	1.154854	-0.374730	0.264653
H179	H	0.679099	-0.939238	-0.206087
H180	H	1.179099	-0.439238	0.293913
H181	H	0.680510	-0.862097	-0.302886
H182	H	1.180510	-0.362097	0.197114
H183	H	0.680844	-0.823910	-0.196792
H184	H	1.180844	-0.323910	0.303208
O185	O	-0.146579	-0.445724	-0.033639
O186	O	0.353421	0.054276	0.466361
C187	C	-0.197854	-0.517615	-0.005898
C188	C	0.302146	-0.017615	0.494102
H189	H	-0.153473	-0.575980	-0.000067
H190	H	0.346527	-0.075980	0.499933
H191	H	-0.228379	-0.509790	0.058213
H192	H	0.271621	-0.009790	0.558213
H193	H	-0.253172	-0.525209	-0.053405
H194	H	0.246828	-0.025209	0.446595
O195	O	0.146841	-1.073392	0.338319
O196	O	0.646841	-0.573392	0.838319
C197	C	0.145964	-1.074452	0.250021
C198	C	0.645964	-0.574452	0.750021
H199	H	0.102693	-1.020537	0.219829
H200	H	0.602693	-0.520537	0.719829
H201	H	0.216746	-1.066500	0.224565
H202	H	0.716746	-0.566500	0.724565
H203	H	0.117747	-1.137173	0.234270
H204	H	0.617747	-0.637173	0.734270
H205	H	-0.134630	-0.917573	0.427754
H206	H	0.365370	-0.417573	0.927754
O207	O	0.000341	-1.151900	0.462827
O208	O	0.500341	-0.651900	0.962827
C209	C	0.077405	-1.194221	0.439688
C210	C	0.577405	-0.694221	0.939688
H211	H	0.130955	-1.145991	0.417778
H212	H	0.630955	-0.645991	0.917778
H213	H	0.102889	-1.237559	0.496376
H214	H	0.602889	-0.737559	0.996376
H215	H	0.060687	-1.233333	0.386202
H216	H	0.560687	-0.733333	0.886202
