data_functionalizedCrystal
_audit_creation_method	'MofGen! by Chris Wilmer'
_symmetry_space_group_name_H-M	'P1'
_symmetry_Int_Tables_number	1
_symmetry_cell_setting	triclinic
loop_
_symmetry_equiv_pos_as_xyz
  x,y,z
_cell_length_a	14.519731
_cell_length_b	12.996460
_cell_length_c	14.519709
_cell_angle_alpha	89.985436
_cell_angle_beta	83.684499
_cell_angle_gamma	89.993310
loop_
_atom_site_label
_atom_site_type_symbol
_atom_site_fract_x
_atom_site_fract_y
_atom_site_fract_z
O1	O	-1.223857	0.085613	-0.120987
O2	O	-0.973857	0.335613	0.129013
O3	O	-0.723857	0.585613	0.379013
O4	O	-0.473857	0.835613	0.629013
O5	O	-0.955382	0.085612	-0.135203
O6	O	-0.705382	0.335612	0.114797
O7	O	-0.455382	0.585612	0.364797
O8	O	-0.205382	0.835612	0.614797
O9	O	-1.096738	0.085584	0.006143
O10	O	-0.846738	0.335584	0.256143
O11	O	-0.596738	0.585584	0.506143
O12	O	-0.346738	0.835584	0.756143
O13	O	-1.082501	0.085641	-0.262332
O14	O	-0.832501	0.335641	-0.012332
O15	O	-0.582501	0.585641	0.237668
O16	O	-0.332501	0.835641	0.487668
O17	O	-1.096723	-0.085550	0.006151
O18	O	-0.846723	0.164450	0.256151
O19	O	-0.596723	0.414450	0.506151
O20	O	-0.346723	0.664450	0.756151
O21	O	-0.955368	-0.085522	-0.135195
O22	O	-0.705368	0.164478	0.114805
O23	O	-0.455368	0.414478	0.364805
O24	O	-0.205368	0.664478	0.614805
O25	O	-1.223842	-0.085521	-0.120979
O26	O	-0.973842	0.164479	0.129021
O27	O	-0.723842	0.414479	0.379021
O28	O	-0.473842	0.664479	0.629021
Cu29	Cu	-1.089603	-0.101147	-0.128086
Cu30	Cu	-0.839603	0.148853	0.121914
Cu31	Cu	-0.589603	0.398853	0.371914
Cu32	Cu	-0.339603	0.648853	0.621914
Cu33	Cu	-1.089621	0.101238	-0.128095
Cu34	Cu	-0.839621	0.351238	0.121905
Cu35	Cu	-0.589621	0.601238	0.371905
Cu36	Cu	-0.339621	0.851238	0.621905
O37	O	-1.082487	-0.085493	-0.262325
O38	O	-0.832487	0.164507	-0.012325
O39	O	-0.582487	0.414507	0.237675
O40	O	-0.332487	0.664507	0.487675
C41	C	-0.921016	0.000044	-0.134532
C42	C	-0.671016	0.250044	0.115468
C43	C	-0.421016	0.500044	0.365468
C44	C	-0.171016	0.750044	0.615468
C45	C	-0.818635	0.000042	-0.132536
C46	C	-0.568635	0.250042	0.117464
C47	C	-0.318635	0.500042	0.367464
C48	C	-0.068635	0.750042	0.617464
C49	C	-0.735491	0.000045	-0.130915
C50	C	-0.485491	0.250045	0.119085
C51	C	-0.235491	0.500045	0.369085
C52	C	0.014509	0.750045	0.619085
C53	C	-0.631182	0.000042	-0.128888
C54	C	-0.381182	0.250042	0.121112
C55	C	-0.131182	0.500042	0.371112
C56	C	0.118818	0.750042	0.621112
C57	C	-0.548043	0.000040	-0.127280
C58	C	-0.298043	0.250040	0.122720
C59	C	-0.048043	0.500040	0.372720
C60	C	0.201957	0.750040	0.622720
C61	C	-0.443728	0.000040	-0.125253
C62	C	-0.193728	0.250040	0.124747
C63	C	0.056272	0.500040	0.374747
C64	C	0.306272	0.750040	0.624747
N65	N	-1.089598	-0.243494	-0.128079
N66	N	-0.839598	0.006506	0.121921
N67	N	-0.589598	0.256506	0.371921
N68	N	-0.339598	0.506506	0.621921
C69	C	-1.089620	-0.663309	-0.128096
C70	C	-0.839620	-0.413309	0.121904
C71	C	-0.589620	-0.163309	0.371904
C72	C	-0.339620	0.086691	0.621904
C73	C	-1.089611	-0.546503	-0.128094
C74	C	-0.839611	-0.296503	0.121906
C75	C	-0.589611	-0.046503	0.371906
C76	C	-0.339611	0.203497	0.621906
C77	C	-1.089609	-0.453405	-0.128088
C78	C	-0.839609	-0.203405	0.121912
C79	C	-0.589609	0.046595	0.371912
C80	C	-0.339609	0.296595	0.621912
C81	C	-1.089600	-0.336593	-0.128085
C82	C	-0.839600	-0.086593	0.121915
C83	C	-0.589600	0.163407	0.371915
C84	C	-0.339600	0.413407	0.621915
C85	C	-0.258209	0.000044	-0.121649
C86	C	-0.008209	0.250044	0.128351
C87	C	0.241791	0.500044	0.378351
C88	C	0.491791	0.750044	0.628351
C89	C	-0.360589	0.000038	-0.123645
C90	C	-0.110589	0.250038	0.126355
C91	C	0.139411	0.500038	0.376355
C92	C	0.389411	0.750038	0.626355
C93	C	-1.096067	0.000012	0.040507
C94	C	-0.846067	0.250012	0.290507
C95	C	-0.596067	0.500012	0.540507
C96	C	-0.346067	0.750012	0.790507
C97	C	-1.094079	-0.000004	0.142889
C98	C	-0.844079	0.249996	0.392889
C99	C	-0.594079	0.499996	0.642889
C100	C	-0.344079	0.749996	0.892889
N101	N	-1.089634	0.243585	-0.128095
N102	N	-0.839634	0.493585	0.121905
N103	N	-0.589634	0.743585	0.371905
N104	N	-0.339634	0.993585	0.621905
C105	C	-1.086759	-0.000032	0.517785
C106	C	-0.836759	0.249968	0.767785
C107	C	-0.586759	0.499968	1.017785
C108	C	-0.336759	0.749968	1.267785
C109	C	-1.088792	-0.000024	0.413477
C110	C	-0.838792	0.249976	0.663477
C111	C	-0.588792	0.499976	0.913477
C112	C	-0.338792	0.749976	1.163477
C113	C	-1.090419	-0.000019	0.330340
C114	C	-0.840419	0.249981	0.580340
C115	C	-0.590419	0.499981	0.830340
C116	C	-0.340419	0.749981	1.080340
C117	C	-1.092452	-0.000009	0.226025
C118	C	-0.842452	0.249991	0.476025
C119	C	-0.592452	0.499991	0.726025
C120	C	-0.342452	0.749991	0.976025
C121	C	-1.083157	0.000045	0.703312
C122	C	-0.833157	0.250045	0.953312
C123	C	-0.583157	0.500045	1.203312
C124	C	-0.333157	0.750045	1.453312
C125	C	-1.085146	-0.000042	0.600930
C126	C	-0.835146	0.249958	0.850930
C127	C	-0.585146	0.499958	1.100930
C128	C	-0.335146	0.749958	1.350930
