data_functionalizedCrystal
_audit_creation_method	'MofGen! by Chris Wilmer'
_symmetry_space_group_name_H-M	'P1'
_symmetry_Int_Tables_number	1
_symmetry_cell_setting	triclinic
loop_
_symmetry_equiv_pos_as_xyz
  x,y,z
_cell_length_a	10.489741
_cell_length_b	23.532407
_cell_length_c	9.565339
_cell_angle_alpha	89.995586
_cell_angle_beta	89.999100
_cell_angle_gamma	83.693926
loop_
_atom_site_label
_atom_site_type_symbol
_atom_site_fract_x
_atom_site_fract_y
_atom_site_fract_z
O1	O	1.691382	0.080340	-0.116190
O2	O	1.319936	0.087882	-0.116213
O3	O	1.516860	0.001253	-0.116175
O4	O	1.494458	0.166968	-0.116228
O5	O	1.516844	0.001259	0.116345
O6	O	1.319920	0.087887	0.116307
O7	O	1.691366	0.080345	0.116330
Zn8	Zn	1.505641	0.084117	0.153236
Zn9	Zn	1.505661	0.084110	-0.153119
O10	O	1.494442	0.166974	0.116293
C11	C	1.272415	0.087315	0.000045
C12	C	1.130842	0.085611	0.000037
C13	C	1.064535	0.030491	0.000067
C14	C	0.971550	0.056527	-0.114582
C15	C	0.971568	0.056545	0.114664
C16	C	1.039722	0.111668	-0.114708
C17	C	1.039750	0.111679	0.114642
C18	C	0.946792	0.137754	-0.000036
C19	C	1.516282	-0.019964	0.000089
C20	C	1.514566	-0.083192	0.000099
C21	C	1.620344	-0.481594	0.000029
C22	C	1.618751	-0.541005	0.000019
O23	O	1.716808	-0.577100	-0.000027
N24	N	1.501680	-0.564407	0.000012
C25	C	1.386194	-0.528395	0.000002
O26	O	1.286470	-0.553755	-0.000005
C27	C	1.387789	-0.468985	0.000003
C28	C	1.504868	-0.445587	0.000024
C29	C	1.737414	-0.458195	0.000048
C30	C	1.739007	-0.398788	0.000062
C31	C	1.623530	-0.362781	0.000056
C32	C	1.506460	-0.386180	0.000037
C33	C	1.272305	-0.432974	-0.000017
C34	C	1.273909	-0.373561	-0.000017
C35	C	1.390988	-0.350162	0.000003
C36	C	1.392576	-0.290766	0.000045
N37	N	1.509648	-0.267364	0.000051
C38	C	1.625125	-0.303371	0.000057
C39	C	1.382854	-0.653160	-0.000002
C40	C	1.381258	-0.712568	0.000008
C41	C	1.613816	-0.725174	0.000021
C42	C	1.615410	-0.665765	0.000022
C43	C	1.499926	-0.629758	0.000005
C44	C	1.628461	-0.178612	0.000086
C45	C	1.630043	-0.119200	0.000105
C46	C	1.397486	-0.106599	0.000084
C47	C	1.395903	-0.166006	0.000072
C48	C	1.511401	-0.202012	0.000068
O49	O	1.294571	-0.254636	0.000084
O50	O	1.724833	-0.278003	0.000046
C51	C	1.738887	0.080912	0.000070
C52	C	1.880460	0.082616	0.000069
C53	C	1.495021	0.188191	0.000026
C54	C	1.496736	0.251419	0.000006
N55	N	1.505636	0.084122	0.362316
N56	N	1.505676	0.084101	-0.362198
C57	C	1.414538	0.124171	0.453501
C58	C	1.529652	0.135693	0.546683
C59	C	1.390572	0.072603	0.546689
C60	C	1.620808	0.095670	0.453446
C61	C	1.481652	0.032557	0.453444
C62	C	1.596850	0.044059	0.546584
H63	H	1.069782	0.134970	-0.211745
H64	H	1.179865	-0.344246	-0.000033
O65	O	0.935558	0.028612	-0.230096
C66	C	0.955314	-0.059466	-0.360737
C67	C	0.996149	-0.027921	-0.229852
H68	H	1.004304	-0.105174	-0.360599
H69	H	0.846820	-0.060176	-0.360145
H70	H	0.984654	-0.036380	-0.458426
H71	H	0.966895	-0.050981	-0.132094
H72	H	1.104639	-0.027205	-0.230568
H73	H	1.300568	-0.185058	0.000094
H74	H	1.070015	0.134984	0.211562
O75	O	0.886076	0.191875	-0.000368
C76	C	0.852008	0.282050	-0.121510
C77	C	0.920827	0.220771	-0.121317
H78	H	0.880100	0.305434	-0.219272
H79	H	0.743801	0.280392	-0.120667
H80	H	0.881246	0.305704	-0.024664
H81	H	0.891695	0.197082	-0.218147
H82	H	1.029021	0.222470	-0.122088
H83	H	1.707843	-0.754503	0.000020
H84	H	1.710746	-0.646718	0.000038
H85	H	1.176967	-0.452014	-0.000042
O86	O	1.267561	-0.735321	0.000248
C87	C	1.130800	-0.795107	0.120637
C88	C	1.259598	-0.769369	0.120568
H89	H	1.124332	-0.822649	0.217889
H90	H	1.048495	-0.759183	0.120725
H91	H	1.124260	-0.822574	0.023275
H92	H	1.266263	-0.741908	0.217912
H93	H	1.341841	-0.805320	0.120406
H94	H	1.673989	0.010180	0.587197
O95	O	0.935355	0.028795	0.230346
C96	C	0.809200	0.034666	0.441424
C97	C	0.850076	0.066161	0.310467
H98	H	0.740267	0.064867	0.506252
H99	H	0.759571	-0.003937	0.408444
H100	H	0.897589	0.019758	0.506576
H101	H	0.761754	0.081107	0.245256
H102	H	0.899751	0.104737	0.343543
O103	O	1.743747	-0.096444	0.000365
C104	C	1.880485	-0.036671	0.120800
C105	C	1.751691	-0.062412	0.120700
H106	H	1.886939	-0.009140	0.218065
H107	H	1.962794	-0.072593	0.120885
H108	H	1.887034	-0.009191	0.023451
H109	H	1.745017	-0.089886	0.218032
H110	H	1.669444	-0.026463	0.120542
H111	H	1.834344	-0.379743	0.000072
O112	O	1.457154	-0.019415	0.404598
C113	C	1.308137	-0.090323	0.396675
C114	C	1.335724	-0.031451	0.452062
H115	H	1.209974	-0.100078	0.435051
H116	H	1.309209	-0.089943	0.277501
H117	H	1.384863	-0.124553	0.436551
H118	H	1.259028	0.002812	0.412290
H119	H	1.334698	-0.031879	0.571234
H120	H	1.722510	-0.207922	0.000077
O121	O	1.270547	-0.618266	0.000064
C122	C	1.039716	-0.612045	-0.000025
C123	C	1.166806	-0.651623	-0.000063
H124	H	0.955808	-0.638998	-0.000157
H125	H	1.034548	-0.583931	0.097309
H126	H	1.034712	-0.583899	-0.097309
H127	H	1.171895	-0.679804	0.097155
H128	H	1.171921	-0.679698	-0.097462
H129	H	1.115731	-0.014820	-0.000062
H130	H	1.293248	0.062870	0.587651
O131	O	1.285200	-0.071697	0.000130
C132	C	1.054366	-0.065447	-0.000018
C133	C	1.181434	-0.105040	-0.000018
H134	H	0.970438	-0.092388	-0.000167
H135	H	1.049195	-0.037329	0.097312
H136	H	1.049401	-0.037305	-0.097307
H137	H	1.186484	-0.133217	0.097205
H138	H	1.186552	-0.133118	-0.097412
O139	O	1.554102	0.187661	0.595631
C140	C	1.694484	0.240258	0.732156
C141	C	1.666979	0.181371	0.676790
H142	H	1.785730	0.235191	0.797808
H143	H	1.707402	0.269991	0.640358
H144	H	1.610616	0.259183	0.799371
H145	H	1.750808	0.162395	0.609596
H146	H	1.654010	0.151677	0.768650
H147	H	1.831454	-0.487507	0.000048
H148	H	1.337568	0.158071	0.412632
O149	O	1.736838	0.107472	0.404773
C150	C	1.852303	0.170832	0.267660
C151	C	1.720834	0.157519	0.322693
H152	H	1.839405	0.211288	0.201263
H153	H	1.918182	0.177477	0.359629
H154	H	1.896646	0.133555	0.201265
H155	H	1.676378	0.194777	0.389066
H156	H	1.655044	0.150851	0.230661
