data_functionalizedCrystal
_audit_creation_method	'MofGen! by Chris Wilmer'
_symmetry_space_group_name_H-M	'P1'
_symmetry_Int_Tables_number	1
_symmetry_cell_setting	triclinic
loop_
_symmetry_equiv_pos_as_xyz
  x,y,z
_cell_length_a	19.319731
_cell_length_b	19.318970
_cell_length_c	19.315557
_cell_angle_alpha	60.007379
_cell_angle_beta	60.014690
_cell_angle_gamma	59.991495
loop_
_atom_site_label
_atom_site_type_symbol
_atom_site_fract_x
_atom_site_fract_y
_atom_site_fract_z
O1	O	0.095954	-1.011347	0.845684
O2	O	0.036156	-0.787405	0.681392
O3	O	0.177960	-0.929104	0.681276
O4	O	-0.045850	-0.869648	0.845799
O5	O	0.225008	-0.882072	0.728208
O6	O	0.083204	-0.740373	0.728324
O7	O	0.143002	-0.964315	0.892616
Cu8	Cu	0.117399	-0.848050	0.814755
Cu9	Cu	0.061759	-0.903670	0.759252
O10	O	0.001198	-0.822616	0.892732
N11	N	0.156535	-0.808935	0.853797
N12	N	0.022631	-0.942793	0.720211
C13	C	0.182113	-0.653200	0.879374
C14	C	0.182221	-0.783395	1.009518
C15	C	0.312319	-0.783375	0.879314
C16	C	0.182127	-0.783371	0.879357
C17	C	0.214696	-0.750836	0.911890
C18	C	-0.132988	-0.968144	0.694232
C19	C	-0.002674	-0.968326	0.564242
C20	C	-0.002907	-1.098444	0.694459
C21	C	-0.002887	-0.968321	0.694542
C22	C	-0.035363	-1.000810	0.661869
N23	N	0.389025	-0.808944	0.853717
O24	O	0.660019	-0.816766	0.651282
O25	O	0.660312	-0.981573	0.874999
O26	O	0.660193	-0.981192	0.733108
O27	O	0.660138	-0.817147	0.793174
O28	O	0.519202	-0.934278	0.780210
O29	O	0.519321	-0.934658	0.922102
O30	O	0.519028	-0.769852	0.698384
Cu31	Cu	0.506300	-0.847971	0.814544
Cu32	Cu	0.673039	-0.903453	0.758840
O33	O	0.519147	-0.770232	0.840276
N34	N	0.790314	-0.942480	0.719658
N35	N	0.156514	-0.576494	0.853827
O36	O	-0.045823	-0.305328	0.845846
O37	O	0.177892	-0.305317	0.681053
O38	O	0.035967	-0.305340	0.681465
O39	O	0.096102	-0.305306	0.845434
O40	O	0.083020	-0.446347	0.728459
O41	O	0.224945	-0.446325	0.728047
O42	O	0.001230	-0.446335	0.892839
Cu43	Cu	0.117383	-0.459205	0.814734
Cu44	Cu	0.061738	-0.292448	0.759159
O45	O	0.143154	-0.446313	0.892428
N46	N	0.022597	-0.175159	0.720067
N47	N	0.156703	-0.808977	1.086224
O48	O	0.148753	-1.011298	1.357359
O49	O	-0.016009	-0.787491	1.357400
O50	O	-0.015627	-0.929387	1.357339
O51	O	0.148372	-0.869401	1.357420
O52	O	0.031342	-0.882367	1.216340
O53	O	0.030961	-0.740471	1.216400
O54	O	0.195723	-0.964278	1.216360
Cu55	Cu	0.117631	-0.848081	1.203506
Cu56	Cu	0.062083	-0.903688	1.370254
O57	O	0.195341	-0.822381	1.216420
N58	N	0.023010	-0.942801	1.487536
C59	C	0.054075	-0.735670	0.682223
C60	C	0.229681	-0.911148	0.682079
C61	C	0.125082	-1.016051	0.891784
C62	C	-0.050524	-0.840572	0.891928
C63	C	0.589851	-0.980810	0.926735
C64	C	0.589706	-0.980340	0.751019
C65	C	0.589484	-0.770613	0.646650
C66	C	0.589634	-0.771085	0.822364
C67	C	0.229543	-0.375646	0.681799
C68	C	0.053845	-0.375847	0.682366
C69	C	-0.050480	-0.375832	0.892036
C70	C	0.125277	-0.375807	0.891527
C71	C	-0.015214	-0.735785	1.286905
C72	C	-0.014732	-0.911497	1.286802
C73	C	0.194928	-1.015984	1.286855
C74	C	0.194457	-0.840261	1.286926
H75	H	0.293962	-0.923825	0.630414
C76	C	-0.084164	-0.650037	1.286742
C77	C	-0.106702	-0.612820	1.214180
C78	C	-0.170206	-0.533824	1.213994
H79	H	-0.132403	-0.657345	1.335847
H80	H	-0.063705	-0.614379	1.286717
H81	H	-0.127164	-0.648469	1.214212
H82	H	-0.058483	-0.605491	1.165063
H83	H	-0.149747	-0.498166	1.213969
H84	H	-0.218440	-0.541140	1.263102
H85	H	-0.185501	-0.508559	1.164758
C86	C	0.315081	-0.375305	0.612672
C87	C	0.352572	-0.447710	0.589821
C88	C	0.431378	-0.447436	0.526157
H89	H	0.307475	-0.326087	0.564576
H90	H	0.350723	-0.375237	0.633092
H91	H	0.316939	-0.447770	0.569398
H92	H	0.360200	-0.496938	0.637898
H93	H	0.467019	-0.447368	0.546577
H94	H	0.423763	-0.398216	0.478066
H95	H	0.456829	-0.496566	0.510650
H96	H	0.041301	-0.671339	0.630625
C97	C	-0.136151	-0.823757	0.960943
C98	C	-0.124992	-0.833231	1.031841
C99	C	-0.203850	-0.817759	1.095439
H100	H	-0.171795	-0.767648	0.940506
H101	H	-0.161565	-0.862958	0.976441
H102	H	-0.099590	-0.794030	1.016344
H103	H	-0.089362	-0.889335	1.052303
H104	H	-0.229264	-0.856961	1.110937
H105	H	-0.239488	-0.761650	1.074993
H106	H	-0.196288	-0.824193	1.143553
H107	H	0.589926	-1.032546	0.990990
H108	H	0.589389	-0.718870	0.582402
C109	C	0.263258	-0.823334	1.286985
C110	C	0.335865	-0.895690	1.286995
C111	C	0.399257	-0.880132	1.287059
H112	H	0.276540	-0.777128	1.237839
H113	H	0.243726	-0.809919	1.336184
H114	H	0.355394	-0.909094	1.237801
H115	H	0.322610	-0.941906	1.336138
H116	H	0.379726	-0.866717	1.336258
H117	H	0.412532	-0.833924	1.237912
H118	H	0.448526	-0.929225	1.287073
H119	H	0.589622	-0.719555	0.835218
C120	C	-0.083530	-0.928421	1.286733
C121	C	-0.156141	-0.856069	1.286736
C122	C	-0.219538	-0.871632	1.286686
H123	H	-0.064033	-0.941831	1.237550
H124	H	-0.096788	-0.974643	1.335895
H125	H	-0.142884	-0.809861	1.237579
H126	H	-0.175663	-0.842647	1.335916
H127	H	-0.232796	-0.917853	1.335848
H128	H	-0.200034	-0.885043	1.237501
H129	H	-0.268815	-0.822547	1.286695
H130	H	0.040966	-0.375849	0.630853
C131	C	-0.136221	-0.375774	0.960895
C132	C	-0.188585	-0.375758	0.930523
C133	C	-0.267581	-0.375685	0.993925
H134	H	-0.128898	-0.424923	1.009116
H135	H	-0.161619	-0.326572	0.976275
H136	H	-0.163192	-0.424955	0.915155
H137	H	-0.195933	-0.326612	0.882310
H138	H	-0.292979	-0.326483	1.009305
H139	H	-0.260249	-0.424835	1.042143
H140	H	-0.303122	-0.375667	0.973324
H141	H	0.589730	-1.031874	0.738162
C142	C	0.142623	-0.375856	0.960129
C143	C	0.225396	-0.375876	0.929383
C144	C	0.241410	-0.375939	0.992561
H145	H	0.103594	-0.326702	0.975627
H146	H	0.136380	-0.425054	1.008341
H147	H	0.231632	-0.326684	0.881186
H148	H	0.264442	-0.425026	0.913891
H149	H	0.235167	-0.425137	1.040773
H150	H	0.202377	-0.326785	1.008055
H151	H	0.297575	-0.375961	0.971712
C152	C	0.142256	-1.101895	0.960467
C153	C	0.224995	-1.154066	0.929841
C154	C	0.240841	-1.233156	0.993083
H155	H	0.135993	-1.094668	1.008692
H156	H	0.103147	-1.127392	0.975907
H157	H	0.264092	-1.128575	0.914413
H158	H	0.231277	-1.161318	0.881624
H159	H	0.201732	-1.258652	1.008523
H160	H	0.234574	-1.225919	1.041305
H161	H	0.296977	-1.268565	0.972310
H162	H	0.246659	-1.080258	1.286832
