data_functionalizedCrystal
_audit_creation_method	'MofGen! by Chris Wilmer'
_symmetry_space_group_name_H-M	'P1'
_symmetry_Int_Tables_number	1
_symmetry_cell_setting	triclinic
loop_
_symmetry_equiv_pos_as_xyz
  x,y,z
_cell_length_a	8.597340
_cell_length_b	10.540539
_cell_length_c	7.681481
_cell_angle_alpha	84.202085
_cell_angle_beta	103.474906
_cell_angle_gamma	84.930270
loop_
_atom_site_label
_atom_site_type_symbol
_atom_site_fract_x
_atom_site_fract_y
_atom_site_fract_z
O1	O	2.101845	0.175543	0.172468
O2	O	1.638015	0.195768	0.102093
O3	O	1.880512	0.000872	0.138888
O4	O	1.859348	0.370439	0.135673
O5	O	1.910359	-0.023171	0.436275
O6	O	1.667862	0.171725	0.399480
O7	O	2.131692	0.151500	0.469854
Zn8	Zn	1.904516	0.157795	0.481884
Zn9	Zn	1.865191	0.189472	0.090064
O10	O	1.889195	0.346396	0.433059
C11	C	1.593545	0.182914	0.241775
C12	C	1.416573	0.180417	0.214924
C13	C	1.893848	-0.058441	0.287337
C14	C	1.889099	-0.199354	0.286607
C15	C	1.707076	-0.381405	0.258333
C16	C	1.711956	-0.234876	0.259733
C17	C	1.991392	-0.275360	0.469364
C18	C	1.985360	-0.421872	0.468590
C19	C	1.955022	-0.395076	0.130952
C20	C	1.956428	-0.247924	0.128955
C21	C	2.176161	0.164354	0.330168
C22	C	2.353133	0.166851	0.357008
C23	C	1.875858	0.405709	0.284606
C24	C	1.880607	0.546623	0.285324
N25	N	1.931365	0.136175	0.749292
N26	N	1.838354	0.211082	-0.177342
H27	H	1.335487	0.190123	0.072722
F28	F	1.459105	0.154152	0.542869
F29	F	1.608311	-0.165685	0.087314
F30	F	2.055490	0.036245	0.866420
H31	H	1.944857	-0.242548	0.586755
H32	H	1.624878	-0.399651	0.125934
H33	H	1.649539	-0.420897	0.368859
F34	F	2.122109	-0.457898	0.154829
F35	F	1.639657	-0.192535	0.405715
H36	H	1.935098	-0.459877	0.585976
F37	F	2.162257	-0.248048	0.503422
F38	F	2.152887	-0.486600	0.503943
H39	H	1.884771	-0.415806	-0.006461
H40	H	1.743409	0.287539	0.733055
F41	F	1.859055	-0.180060	-0.047551
H42	H	2.084549	-0.223812	0.138295
