data_functionalizedCrystal
_audit_creation_method	'MofGen! by Chris Wilmer'
_symmetry_space_group_name_H-M	'P1'
_symmetry_Int_Tables_number	1
_symmetry_cell_setting	triclinic
loop_
_symmetry_equiv_pos_as_xyz
  x,y,z
_cell_length_a	17.699097
_cell_length_b	10.654545
_cell_length_c	16.176319
_cell_angle_alpha	89.995575
_cell_angle_beta	89.988988
_cell_angle_gamma	83.886929
loop_
_atom_site_label
_atom_site_type_symbol
_atom_site_fract_x
_atom_site_fract_y
_atom_site_fract_z
O1	O	1.005083	0.158888	-0.068811
O2	O	1.505083	0.658888	0.431189
O3	O	0.784837	0.179532	-0.068797
O4	O	1.284837	0.679532	0.431203
O5	O	0.900024	-0.013617	-0.068804
O6	O	1.400024	0.486383	0.431196
O7	O	0.889897	0.352038	-0.068804
O8	O	1.389897	0.852038	0.431196
O9	O	0.900007	-0.013629	0.068689
O10	O	1.400007	0.486371	0.568689
O11	O	0.784821	0.179520	0.068696
O12	O	1.284821	0.679520	0.568696
O13	O	1.005067	0.158876	0.068682
O14	O	1.505067	0.658876	0.568682
Cu15	Cu	0.894943	0.169197	0.081243
Cu16	Cu	1.394943	0.669197	0.581243
Cu17	Cu	0.894962	0.169211	-0.081358
Cu18	Cu	1.394962	0.669211	0.418642
O19	O	0.889881	0.352025	0.068689
O20	O	1.389881	0.852025	0.568689
C21	C	0.756628	0.178784	-0.000049
C22	C	1.256628	0.678784	0.499951
C23	C	0.672596	0.176556	-0.000044
C24	C	1.172596	0.676556	0.499956
C25	C	0.156800	0.162908	-0.075025
C26	C	0.656800	0.662908	0.424975
C27	C	0.235757	0.164993	-0.075020
C28	C	0.735757	0.664993	0.424980
C29	C	0.275221	0.166030	-0.000069
C30	C	0.775221	0.666030	0.499931
C31	C	0.235724	0.164971	0.074882
C32	C	0.735724	0.664971	0.574882
C33	C	0.156769	0.162877	0.074877
C34	C	0.656769	0.662877	0.574877
C35	C	0.554142	0.173412	0.074904
C36	C	1.054142	0.673412	0.574904
C37	C	0.633102	0.175509	0.074903
C38	C	1.133102	0.675509	0.574903
C39	C	0.633130	0.175527	-0.074994
C40	C	1.133130	0.675527	0.425006
C41	C	0.554175	0.173434	-0.074999
C42	C	1.054175	0.673434	0.425001
C43	C	0.514686	0.172368	-0.000047
C44	C	1.014686	0.672368	0.499953
C45	C	0.429071	0.170105	-0.000053
C46	C	0.929071	0.670105	0.499947
C47	C	0.360833	0.168302	-0.000063
C48	C	0.860833	0.668302	0.499937
C49	C	0.899272	-0.060408	-0.000059
C50	C	1.399272	0.439592	0.499941
C51	C	0.897047	-0.199813	-0.000063
C52	C	1.397047	0.300187	0.499937
C53	C	0.897073	-0.199808	-0.149963
C54	C	1.397073	0.300192	0.350037
C55	C	0.896044	-0.265298	-0.224912
C56	C	1.396044	0.234702	0.275088
C57	C	0.893953	-0.396280	-0.224913
C58	C	1.393953	0.103720	0.275087
C59	C	0.892890	-0.461775	-0.149956
C60	C	1.392890	0.038225	0.350044
C61	C	0.893919	-0.396286	-0.075007
C62	C	1.393919	0.103714	0.424993
C63	C	0.896012	-0.265301	-0.075014
C64	C	1.396012	0.234699	0.424986
C65	C	0.893887	-0.396290	0.074890
C66	C	1.393887	0.103710	0.574890
C67	C	0.895983	-0.265308	0.074893
C68	C	1.395983	0.234692	0.574893
C69	C	0.892823	-0.461785	0.149847
C70	C	1.392823	0.038215	0.649847
C71	C	0.893858	-0.396297	0.224798
C72	C	1.393858	0.103703	0.724798
C73	C	0.895950	-0.265307	0.224796
C74	C	1.395950	0.234693	0.724796
C75	C	0.897012	-0.199819	0.149842
C76	C	1.397012	0.300181	0.649842
C77	C	1.033277	0.159625	-0.000068
C78	C	1.533277	0.659625	0.499932
C79	C	1.117308	0.161852	-0.000079
C80	C	1.617308	0.661852	0.499921
C81	C	0.890632	0.398817	-0.000058
C82	C	1.390632	0.898817	0.499942
C83	C	0.892858	0.538221	-0.000059
C84	C	1.392858	1.038221	0.499941
N85	N	0.894935	0.169186	0.195609
N86	N	1.394935	0.669186	0.695609
N87	N	0.894975	0.169212	-0.195724
N88	N	1.394975	0.669212	0.304276
C89	C	0.945955	0.083694	0.238870
C90	C	1.445955	0.583694	0.738870
C91	C	0.945959	0.083693	0.325417
C92	C	1.445959	0.583693	0.825417
C93	C	0.894946	0.169190	0.368701
C94	C	1.394946	0.669190	0.868701
C95	C	0.843920	0.254686	0.325434
C96	C	1.343920	0.754686	0.825434
C97	C	0.843913	0.254680	0.238888
C98	C	1.343913	0.754680	0.738888
C99	C	0.843946	0.254710	0.674462
C100	C	1.343946	0.754710	1.174462
C101	C	0.843958	0.254711	0.761014
C102	C	1.343958	0.754711	1.261014
C103	C	0.945992	0.083722	0.760991
C104	C	1.445992	0.583722	1.260991
C105	C	0.945985	0.083716	0.674445
C106	C	1.445985	0.583716	1.174445
C107	C	0.894957	0.169207	0.631185
C108	C	1.394957	0.669207	1.131185
C109	C	0.894952	0.169206	0.537341
C110	C	1.394952	0.669206	1.037341
C111	C	0.894953	0.169198	0.462544
C112	C	1.394953	0.669198	0.962544
H113	H	0.522047	0.172595	-0.136031
H114	H	1.022047	0.672595	0.363969
H115	H	0.124615	0.162030	0.135906
H116	H	0.624615	0.662030	0.635906
Br117	Br	0.892547	-0.485162	-0.326629
Br118	Br	1.392547	0.014838	0.173371
H119	H	0.522001	0.172525	0.135934
H120	H	1.022001	0.672525	0.635934
H121	H	0.267863	0.165807	0.135909
H122	H	0.767863	0.665807	0.635909
Br123	Br	1.015199	-0.032338	0.384131
Br124	Br	1.515199	0.467662	0.884131
H125	H	0.896909	-0.211956	-0.285940
H126	H	1.396909	0.288044	0.214060
H127	H	0.891178	-0.568426	-0.149964
H128	H	1.391178	-0.068426	0.350036
H129	H	0.891117	-0.568437	0.149841
H130	H	1.391117	-0.068437	0.649841
H131	H	0.898784	-0.093157	-0.149970
H132	H	1.398784	0.406843	0.350030
Br133	Br	0.774663	0.370702	0.180177
Br134	Br	1.274663	0.870702	0.680177
H135	H	0.892987	-0.449632	0.285821
H136	H	1.392987	0.050368	0.785821
H137	H	0.896776	-0.211990	0.285829
H138	H	1.396776	0.288010	0.785829
Br139	Br	1.015223	-0.032312	0.615705
Br140	Br	1.515223	0.467688	1.115705
Br141	Br	0.899858	-0.022058	0.149833
Br142	Br	1.399858	0.477942	0.649833
Br143	Br	0.774722	0.370752	0.819757
Br144	Br	1.274722	0.870752	1.319757
Br145	Br	1.015197	-0.032336	0.180136
Br146	Br	1.515197	0.467664	0.680136
Br147	Br	1.015245	-0.032306	0.819704
Br148	Br	1.515245	0.467694	1.319704
H149	H	0.124673	0.162072	-0.136058
H150	H	0.624673	0.662072	0.363942
Br151	Br	0.774698	0.370731	0.615757
Br152	Br	1.274698	0.870731	1.115757
Br153	Br	0.289351	0.166414	-0.176737
Br154	Br	0.789351	0.666414	0.323263
H155	H	0.665292	0.176390	-0.136023
H156	H	1.165292	0.676390	0.363977
Br157	Br	0.686660	0.176919	0.176629
Br158	Br	1.186660	0.676919	0.676629
H159	H	0.802380	0.324295	0.360681
H160	H	1.302380	0.824295	0.860681
