data_functionalizedCrystal
_audit_creation_method	'MofGen! by Chris Wilmer'
_symmetry_space_group_name_H-M	'P1'
_symmetry_Int_Tables_number	1
_symmetry_cell_setting	triclinic
loop_
_symmetry_equiv_pos_as_xyz
  x,y,z
_cell_length_a	27.731993
_cell_length_b	26.809956
_cell_length_c	19.188930
_cell_angle_alpha	89.990297
_cell_angle_beta	97.117412
_cell_angle_gamma	90.004510
loop_
_atom_site_label
_atom_site_type_symbol
_atom_site_fract_x
_atom_site_fract_y
_atom_site_fract_z
O1	O	0.641206	0.041351	-0.082895
O2	O	0.974539	0.374684	0.250438
O3	O	1.307873	0.708018	0.583772
O4	O	0.500448	0.041382	-0.095567
O5	O	0.833781	0.374715	0.237767
O6	O	1.167114	0.708049	0.571100
O7	O	0.574889	0.041356	0.012452
O8	O	0.908222	0.374689	0.345785
O9	O	1.241556	0.708022	0.679119
O10	O	0.566765	0.041377	-0.190914
O11	O	0.900098	0.374710	0.142420
O12	O	1.233432	0.708044	0.475753
O13	O	0.574866	-0.041603	0.012452
O14	O	0.908199	0.291730	0.345785
O15	O	1.241533	0.625063	0.679119
O16	O	0.500425	-0.041577	-0.095567
O17	O	0.833758	0.291756	0.237767
O18	O	1.167091	0.625090	0.571100
O19	O	0.641183	-0.041608	-0.082895
O20	O	0.974517	0.291725	0.250438
O21	O	1.307850	0.625058	0.583772
Zn22	Zn	0.570800	-0.054764	-0.089231
Zn23	Zn	0.904134	0.278569	0.244102
Zn24	Zn	1.237467	0.611902	0.577436
Zn25	Zn	0.570830	0.054538	-0.089231
Zn26	Zn	0.904164	0.387871	0.244103
Zn27	Zn	1.237497	0.721205	0.577436
O28	O	0.566742	-0.041582	-0.190914
O29	O	0.900075	0.291751	0.142420
O30	O	1.233409	0.625085	0.475753
C31	C	0.482428	-0.000094	-0.095307
C32	C	0.815761	0.333240	0.238027
C33	C	1.149095	0.666573	0.571360
C34	C	0.428769	-0.000082	-0.094523
C35	C	0.762103	0.333251	0.238810
C36	C	1.095436	0.666584	0.572143
C37	C	0.045604	0.045114	-0.088846
C38	C	0.378938	0.378447	0.244487
C39	C	0.712271	0.711781	0.577821
C40	C	0.247271	0.045128	-0.091832
C41	C	0.580604	0.378461	0.241502
C42	C	0.913937	0.711795	0.574835
O43	O	0.273356	0.083588	-0.092190
O44	O	0.606689	0.416921	0.241144
O45	O	0.940022	0.750254	0.574477
N46	N	0.272480	-0.000092	-0.092205
N47	N	0.605813	0.333241	0.241128
N48	N	0.939146	0.666575	0.574461
C49	C	0.247269	-0.045319	-0.091828
C50	C	0.580603	0.288015	0.241506
C51	C	0.913936	0.621348	0.574839
O52	O	0.273339	-0.083781	-0.092207
O53	O	0.606672	0.249552	0.241127
O54	O	0.940006	0.582886	0.574460
C55	C	0.045604	-0.045332	-0.088837
C56	C	0.378938	0.288001	0.244496
C57	C	0.712271	0.621335	0.577830
C58	C	0.020397	-0.000109	-0.088471
C59	C	0.353731	0.333224	0.244863
C60	C	0.687064	0.666558	0.578196
C61	C	0.020397	0.090333	-0.088479
C62	C	0.353731	0.423667	0.244855
C63	C	0.687064	0.757000	0.578188
C64	C	-0.030017	0.090329	-0.087736
C65	C	0.303317	0.423663	0.245597
C66	C	0.636650	0.756996	0.578930
C67	C	-0.055224	0.045106	-0.087361
C68	C	0.278110	0.378440	0.245972
C69	C	0.611443	0.711773	0.579306
C70	C	-0.030017	-0.000113	-0.087728
C71	C	0.303317	0.333220	0.245605
C72	C	0.636650	0.666554	0.578939
C73	C	0.020395	-0.090558	-0.088455
C74	C	0.353729	0.242775	0.244879
C75	C	0.687062	0.576108	0.578212
C76	C	-0.030024	-0.090558	-0.087705
C77	C	0.303309	0.242776	0.245628
C78	C	0.636643	0.576109	0.578962
C79	C	-0.055231	-0.045335	-0.087339
C80	C	0.278102	0.287999	0.245995
C81	C	0.611436	0.621332	0.579328
C82	C	-0.105638	-0.045340	-0.086610
C83	C	0.227696	0.287993	0.246723
C84	C	0.561029	0.621326	0.580056
N85	N	-0.130847	-0.000120	-0.086237
N86	N	0.202487	0.333213	0.247097
N87	N	0.535820	0.666547	0.580430
C88	C	-0.105640	0.045103	-0.086612
C89	C	0.227694	0.378436	0.246721
C90	C	0.561027	0.711770	0.580055
C91	C	0.353146	-0.045309	-0.093399
C92	C	0.686480	0.288025	0.239934
C93	C	1.019813	0.621358	0.573267
C94	C	0.403562	-0.045305	-0.094148
C95	C	0.736896	0.288028	0.239185
C96	C	1.070229	0.621361	0.572519
C97	C	0.403560	0.045142	-0.094151
C98	C	0.736894	0.378475	0.239183
C99	C	1.070227	0.711808	0.572516
C100	C	0.353143	0.045138	-0.093407
C101	C	0.686476	0.378471	0.239927
C102	C	1.019810	0.711804	0.573260
C103	C	0.327937	-0.000089	-0.093026
C104	C	0.661271	0.333245	0.240308
C105	C	0.994604	0.666578	0.573641
C106	C	-0.211513	0.045091	-0.085053
C107	C	0.121821	0.378425	0.248280
C108	C	0.455154	0.711758	0.581613
C109	C	-0.261931	0.045083	-0.084314
C110	C	0.071402	0.378417	0.249020
C111	C	0.404735	0.711750	0.582353
C112	C	-0.261925	-0.045363	-0.084307
C113	C	0.071409	0.287970	0.249026
C114	C	0.404742	0.621304	0.582359
C115	C	-0.211511	-0.045355	-0.085051
C116	C	0.121823	0.287978	0.248283
C117	C	0.455156	0.621311	0.581616
C118	C	-0.186306	-0.000124	-0.085421
C119	C	0.147028	0.333209	0.247912
C120	C	0.480361	0.666542	0.581245
O121	O	-0.131753	-0.083780	-0.086244
O122	O	0.201580	0.249554	0.247089
O123	O	0.534914	0.582887	0.580423
O124	O	-0.131717	0.083559	-0.086217
O125	O	0.201617	0.416893	0.247116
O126	O	0.534950	0.750226	0.580449
C127	C	0.096018	0.045118	-0.089588
C128	C	0.429351	0.378451	0.243745
C129	C	0.762685	0.711785	0.577078
C130	C	0.121225	-0.000101	-0.089956
C131	C	0.454558	0.333232	0.243378
C132	C	0.787892	0.666565	0.576711
C133	C	0.096018	-0.045325	-0.089580
C134	C	0.429351	0.288009	0.243753
C135	C	0.762685	0.621342	0.577086
C136	C	0.171641	-0.000098	-0.090705
C137	C	0.504974	0.333235	0.242629
C138	C	0.838308	0.666569	0.575962
C139	C	0.196848	0.045125	-0.091080
C140	C	0.530181	0.378458	0.242253
C141	C	0.863515	0.711792	0.575587
C142	C	0.171639	0.090345	-0.090706
C143	C	0.504972	0.423678	0.242627
C144	C	0.838306	0.757012	0.575960
C145	C	0.121225	0.090341	-0.089964
C146	C	0.454558	0.423675	0.243370
C147	C	0.787892	0.757008	0.576703
C148	C	0.121227	-0.090545	-0.089954
C149	C	0.454560	0.242789	0.243379
C150	C	0.787894	0.576122	0.576713
C151	C	0.171641	-0.090537	-0.090697
C152	C	0.504974	0.242796	0.242636
C153	C	0.838308	0.576130	0.575969
C154	C	0.196848	-0.045314	-0.091073
C155	C	0.530181	0.288020	0.242261
C156	C	0.863515	0.621353	0.575594
N157	N	0.570783	-0.129360	-0.089230
N158	N	0.904117	0.203973	0.244103
N159	N	1.237450	0.537306	0.577436
C160	C	0.600050	-0.473989	-0.131270
C161	C	0.933384	-0.140655	0.202063
C162	C	1.266717	0.192678	0.535396
C163	C	0.600066	-0.682866	-0.131270
C164	C	0.933399	-0.349533	0.202064
C165	C	1.266733	-0.016200	0.535397
O166	O	0.624937	-0.709872	-0.167006
O167	O	0.958270	-0.376539	0.166327
O168	O	1.291604	-0.043205	0.499661
N169	N	0.570842	-0.708987	-0.089224
N170	N	0.904175	-0.375654	0.244110
N171	N	1.237509	-0.042321	0.577443
C172	C	0.541615	-0.682886	-0.047171
C173	C	0.874948	-0.349553	0.286162
C174	C	1.208281	-0.016219	0.619495
O175	O	0.516762	-0.709896	-0.011403
O176	O	0.850095	-0.376563	0.321930
O177	O	1.183429	-0.043230	0.655264
C178	C	0.541602	-0.474009	-0.047169
C179	C	0.874935	-0.140676	0.286165
C180	C	1.208268	0.192658	0.619498
C181	C	0.570824	-0.447891	-0.089223
C182	C	0.904157	-0.114557	0.244111
C183	C	1.237491	0.218776	0.577444
C184	C	0.629271	-0.447870	-0.173321
C185	C	0.962604	-0.114537	0.160013
C186	C	1.295937	0.218796	0.493346
C187	C	0.629264	-0.395654	-0.173323
C188	C	0.962598	-0.062321	0.160010
C189	C	1.295931	0.271013	0.493344
C190	C	0.600038	-0.369556	-0.131276
C191	C	0.933371	-0.036223	0.202058
C192	C	1.266705	0.297111	0.535391
C193	C	0.570818	-0.395674	-0.089225
C194	C	0.904151	-0.062341	0.244108
C195	C	1.237484	0.270992	0.577441
C196	C	0.512377	-0.447909	-0.005113
C197	C	0.845711	-0.114575	0.328220
C198	C	1.179044	0.218758	0.661554
C199	C	0.512378	-0.395686	-0.005115
C200	C	0.845711	-0.062353	0.328219
C201	C	1.179044	0.270981	0.661552
C202	C	0.541600	-0.369568	-0.047169
C203	C	0.874933	-0.036234	0.286164
C204	C	1.208266	0.297099	0.619498
C205	C	0.541585	-0.317360	-0.047181
C206	C	0.874919	0.015973	0.286153
C207	C	1.208252	0.349306	0.619486
N208	N	0.570809	-0.291239	-0.089227
N209	N	0.904143	0.042094	0.244107
N210	N	1.237476	0.375427	0.577440
C211	C	0.600036	-0.317337	-0.131274
C212	C	0.933369	0.015996	0.202059
C213	C	1.266702	0.349330	0.535393
C214	C	0.541623	-0.792549	-0.047177
C215	C	0.874956	-0.459216	0.286157
C216	C	1.208289	-0.125883	0.619490
C217	C	0.541625	-0.844768	-0.047178
C218	C	0.874958	-0.511435	0.286155
C219	C	1.208292	-0.178101	0.619489
C220	C	0.600077	-0.844745	-0.131276
C221	C	0.933411	-0.511412	0.202058
C222	C	1.266744	-0.178078	0.535391
C223	C	0.600072	-0.792525	-0.131278
C224	C	0.933405	-0.459192	0.202056
C225	C	1.266739	-0.125858	0.535389
C226	C	0.570846	-0.766428	-0.089223
C227	C	0.904180	-0.433095	0.244111
C228	C	1.237513	-0.099761	0.577444
C229	C	0.600020	-0.207679	-0.131277
C230	C	0.933353	0.125654	0.202056
C231	C	1.266687	0.458988	0.535390
C232	C	0.600010	-0.155458	-0.131278
C233	C	0.933343	0.177875	0.202055
C234	C	1.266676	0.511208	0.535389
C235	C	0.541560	-0.155486	-0.047178
C236	C	0.874893	0.177847	0.286155
C237	C	1.208226	0.511181	0.619489
C238	C	0.541568	-0.207702	-0.047179
C239	C	0.874901	0.125631	0.286154
C240	C	1.208234	0.458964	0.619487
C241	C	0.570802	-0.233798	-0.089231
C242	C	0.904135	0.099536	0.244103
C243	C	1.237468	0.432869	0.577436
O244	O	0.516731	-0.290322	-0.011457
O245	O	0.850065	0.043011	0.321876
O246	O	1.183398	0.376344	0.655210
O247	O	0.624893	-0.290318	-0.167025
O248	O	0.958226	0.043016	0.166308
O249	O	1.291559	0.376349	0.499641
C250	C	0.600057	-0.526205	-0.131268
C251	C	0.933390	-0.192872	0.202066
C252	C	1.266723	0.140462	0.535399
C253	C	0.570836	-0.552323	-0.089218
C254	C	0.904170	-0.218990	0.244116
C255	C	1.237503	0.114343	0.577449
C256	C	0.541610	-0.526225	-0.047170
C257	C	0.874943	-0.192892	0.286163
C258	C	1.208277	0.140441	0.619497
C259	C	0.570839	-0.604542	-0.089219
C260	C	0.904172	-0.271209	0.244114
C261	C	1.237505	0.062124	0.577448
C262	C	0.600065	-0.630640	-0.131267
C263	C	0.933399	-0.297307	0.202067
C264	C	1.266732	0.036026	0.535400
C265	C	0.629289	-0.604519	-0.173313
C266	C	0.962622	-0.271186	0.160021
C267	C	1.295956	0.062148	0.493354
C268	C	0.629283	-0.552303	-0.173315
C269	C	0.962616	-0.218969	0.160018
C270	C	1.295950	0.114364	0.493351
C271	C	0.512386	-0.552347	-0.005124
C272	C	0.845719	-0.219013	0.328209
C273	C	1.179053	0.114320	0.661543
C274	C	0.512394	-0.604563	-0.005125
C275	C	0.845728	-0.271230	0.328208
C276	C	1.179061	0.062104	0.661541
C277	C	0.541621	-0.630661	-0.047173
C278	C	0.874954	-0.297327	0.286160
C279	C	1.208287	0.036006	0.619494
C280	C	0.659203	-0.000132	-0.083155
C281	C	0.992536	0.333202	0.250178
C282	C	1.325870	0.666535	0.583512
C283	C	0.712862	-0.000140	-0.083938
C284	C	1.046195	0.333194	0.249395
C285	C	1.379528	0.666527	0.582728
C286	C	0.574614	-0.000125	0.038461
C287	C	0.907948	0.333208	0.371794
C288	C	1.241281	0.666541	0.705128
C289	C	0.573825	-0.000129	0.115960
C290	C	0.907158	0.333204	0.449294
C291	C	1.240491	0.666537	0.782627
N292	N	0.570851	0.129134	-0.089226
N293	N	0.904185	0.462467	0.244108
N294	N	1.237518	0.795801	0.577441
C295	C	0.567017	-0.000100	-0.216923
C296	C	0.900350	0.333233	0.116411
C297	C	1.233683	0.666567	0.449744
C298	C	0.567806	-0.000093	-0.294422
C299	C	0.901140	0.333241	0.038911
C300	C	1.234473	0.666574	0.372245
C301	C	0.617504	-0.000141	0.161175
C302	C	0.950838	0.333192	0.494509
C303	C	1.284171	0.666525	0.827842
C304	C	0.616762	-0.000133	0.233994
C305	C	0.950096	0.333200	0.567327
C306	C	1.283429	0.666533	0.900661
C307	C	0.572338	-0.000123	0.261595
C308	C	0.905672	0.333210	0.594928
C309	C	1.239005	0.666544	0.928261
C310	C	0.528653	-0.000108	0.216370
C311	C	0.861986	0.333225	0.549703
C312	C	1.195319	0.666559	0.883037
C313	C	0.529396	-0.000111	0.143553
C314	C	0.862729	0.333222	0.476886
C315	C	1.196063	0.666555	0.810219
N316	N	0.538373	-0.028348	0.369374
N317	N	0.871707	0.304985	0.702707
N318	N	1.205040	0.638319	1.036040
N319	N	0.537670	-0.028346	0.438548
N320	N	0.871004	0.304987	0.771881
N321	N	1.204337	0.638321	1.105214
C322	C	0.570096	-0.000112	0.480989
C323	C	0.903430	0.333221	0.814322
C324	C	1.236763	0.666554	1.147655
N325	N	0.603259	0.028113	0.451644
N326	N	0.936593	0.361446	0.784977
N327	N	1.269926	0.694780	1.118311
N328	N	0.603964	0.028109	0.382464
N329	N	0.937297	0.361442	0.715797
N330	N	1.270630	0.694776	1.049131
C331	C	0.571527	-0.000119	0.340552
C332	C	0.904861	0.333214	0.673885
C333	C	1.238194	0.666547	1.007219
C334	C	0.612975	-0.000115	0.605163
C335	C	0.946308	0.333218	0.938496
C336	C	1.279641	0.666552	1.271829
C337	C	0.612231	-0.000104	0.677982
C338	C	0.945564	0.333230	1.011316
C339	C	1.278897	0.666563	1.344649
C340	C	0.524120	-0.000084	0.660357
C341	C	0.857453	0.333250	0.993690
C342	C	1.190787	0.666583	1.327023
C343	C	0.524865	-0.000090	0.587538
C344	C	0.858198	0.333244	0.920872
C345	C	1.191532	0.666577	1.254205
C346	C	0.569294	-0.000108	0.559946
C347	C	0.902627	0.333225	0.893279
C348	C	1.235960	0.666559	1.226613
H349	H	-0.050544	-0.127387	-0.087401
H350	H	0.282789	0.205946	0.245932
H351	H	0.616122	0.539279	0.579266
H352	H	0.493826	-0.000102	0.106738
H353	H	0.827159	0.333232	0.440071
H354	H	1.160492	0.666565	0.773405
H355	H	0.623867	-0.771263	-0.165522
H356	H	0.957200	-0.437930	0.167811
H357	H	1.290533	-0.104596	0.501144
H358	H	0.517822	-0.771306	-0.012929
H359	H	0.851156	-0.437972	0.320405
H360	H	1.184489	-0.104639	0.653738
Br361	Br	0.639742	-0.880173	-0.188339
Br362	Br	0.973076	-0.546840	0.144995
Br363	Br	1.306409	-0.213507	0.478328
H364	H	0.489296	-0.000083	0.550723
H365	H	0.822630	0.333251	0.884056
H366	H	1.155963	0.666584	1.217390
Br367	Br	0.639695	-0.243086	-0.188347
Br368	Br	0.973029	0.090247	0.144987
Br369	Br	1.306362	0.423581	0.478320
H370	H	-0.282453	0.081911	-0.084017
H371	H	0.050880	0.415244	0.249316
H372	H	0.384214	0.748578	0.582649
Br373	Br	0.639666	-0.120015	-0.188363
Br374	Br	0.972999	0.213318	0.144971
Br375	Br	1.306333	0.546652	0.478304
H376	H	0.652333	-0.000141	0.270815
H377	H	0.985666	0.333192	0.604148
H378	H	1.318999	0.666526	0.937482
H379	H	0.487949	-0.000073	0.682828
H380	H	0.821282	0.333261	1.016162
H381	H	1.154616	0.666594	1.349495
H382	H	0.424092	0.081964	-0.094459
H383	H	0.757425	0.415297	0.238875
H384	H	1.090759	0.748631	0.572208
Br385	Br	0.501956	-0.880208	0.009884
Br386	Br	0.835289	-0.546875	0.343218
Br387	Br	1.168622	-0.213541	0.676551
Br388	Br	0.205858	0.151719	-0.091220
Br389	Br	0.539192	0.485052	0.242113
Br390	Br	0.872525	0.818386	0.575447
H391	H	0.040910	-0.127384	-0.088751
H392	H	0.374244	0.205950	0.244583
H393	H	0.707577	0.539283	0.577916
Br394	Br	0.205844	-0.151917	-0.091202
Br395	Br	0.539177	0.181416	0.242132
Br396	Br	0.872510	0.514750	0.575465
Br397	Br	0.087023	0.151719	-0.089467
Br398	Br	0.420357	0.485052	0.243866
Br399	Br	0.753690	0.818385	0.577200
Br400	Br	0.472710	-0.516936	0.051935
Br401	Br	0.806043	-0.183603	0.385269
Br402	Br	1.139376	0.149730	0.718602
H403	H	0.100709	-0.127372	-0.089645
H404	H	0.434042	0.205962	0.243689
H405	H	0.767376	0.539295	0.577022
Br406	Br	0.668939	-0.516865	-0.230398
Br407	Br	1.002273	-0.183531	0.102935
Br408	Br	1.335606	0.149802	0.436268
Br409	Br	0.668950	-0.639948	-0.230381
Br410	Br	1.002284	-0.306615	0.102952
Br411	Br	1.335617	0.026719	0.436286
H412	H	-0.190997	0.081923	-0.085356
H413	H	0.142336	0.415256	0.247977
H414	H	0.475670	0.748590	0.581311
Br415	Br	0.472718	-0.360272	0.051971
Br416	Br	0.806051	-0.026938	0.385304
Br417	Br	1.139384	0.306395	0.718638
H418	H	0.332629	-0.082139	-0.093087
H419	H	0.665962	0.251194	0.240247
H420	H	0.999295	0.584527	0.573580
Br421	Br	-0.064218	0.151707	-0.087233
Br422	Br	0.269115	0.485040	0.246100
Br423	Br	0.602449	0.818374	0.579433
Br424	Br	0.673269	-0.000144	0.567711
Br425	Br	1.006602	0.333189	0.901044
Br426	Br	1.339935	0.666522	1.234378
H427	H	0.647802	-0.000111	0.714796
H428	H	0.981135	0.333223	1.048130
H429	H	1.314468	0.666556	1.381463
Br430	Br	0.472728	-0.640003	0.051948
Br431	Br	0.806061	-0.306669	0.385282
Br432	Br	1.139395	0.026664	0.718615
Br433	Br	0.318939	0.106514	-0.092909
Br434	Br	0.652272	0.439847	0.240424
Br435	Br	0.985605	0.773180	0.573757
H436	H	-0.190987	-0.082180	-0.085363
H437	H	0.142346	0.251154	0.247970
H438	H	0.475679	0.584487	0.581304
Br439	Br	0.437764	-0.106682	-0.094663
Br440	Br	0.771097	0.226651	0.238670
Br441	Br	1.104431	0.559985	0.572004
Br442	Br	0.668916	-0.360216	-0.230414
Br443	Br	1.002249	-0.026882	0.102920
Br444	Br	1.335582	0.306451	0.436253
H445	H	0.653073	-0.469114	-0.207561
H446	H	0.986406	-0.135780	0.125773
H447	H	1.319739	0.197553	0.459106
H448	H	0.492482	-0.000099	0.238847
H449	H	0.825816	0.333235	0.572180
H450	H	1.159149	0.666568	0.905514
Br451	Br	0.501903	-0.243150	0.009886
Br452	Br	0.835236	0.090183	0.343219
Br453	Br	1.168570	0.423517	0.676553
Br454	Br	-0.296144	-0.106735	-0.083802
Br455	Br	0.037189	0.226599	0.249532
Br456	Br	0.370523	0.559932	0.582865
Br457	Br	0.677800	-0.000152	0.123731
Br458	Br	1.011133	0.333181	0.457065
Br459	Br	1.344466	0.666515	0.790398
H460	H	0.040916	0.127162	-0.088782
H461	H	0.374249	0.460495	0.244551
H462	H	0.707582	0.793828	0.577885
H463	H	0.488582	-0.469165	0.029133
H464	H	0.821915	-0.135832	0.362466
H465	H	1.155249	0.197501	0.695800
Br466	Br	0.501895	-0.120057	0.009882
Br467	Br	0.835229	0.213276	0.343215
Br468	Br	1.168562	0.546609	0.676548
