data_functionalizedCrystal
_audit_creation_method	'MofGen! by Chris Wilmer'
_symmetry_space_group_name_H-M	'P1'
_symmetry_Int_Tables_number	1
_symmetry_cell_setting	triclinic
loop_
_symmetry_equiv_pos_as_xyz
  x,y,z
_cell_length_a	19.188930
_cell_length_b	16.992694
_cell_length_c	16.053802
_cell_angle_alpha	92.750953
_cell_angle_beta	92.551696
_cell_angle_gamma	93.093497
loop_
_atom_site_label
_atom_site_type_symbol
_atom_site_fract_x
_atom_site_fract_y
_atom_site_fract_z
O1	O	0.145267	-1.043197	-0.069340
O2	O	0.645267	-0.543197	0.430660
O3	O	0.143642	-0.814918	-0.069364
O4	O	0.643642	-0.314918	0.430636
O5	O	0.043185	-0.935644	-0.069335
O6	O	0.543185	-0.435644	0.430665
O7	O	0.245724	-0.922471	-0.069369
O8	O	0.745724	-0.422471	0.430631
O9	O	0.048690	-0.928999	0.069522
O10	O	0.548690	-0.428999	0.569522
O11	O	0.149147	-0.808273	0.069493
O12	O	0.649147	-0.308273	0.569493
O13	O	0.150772	-1.036552	0.069517
O14	O	0.650772	-0.536552	0.569517
Zn15	Zn	0.150834	-0.921357	0.091552
Zn16	Zn	0.650834	-0.421357	0.591552
Zn17	Zn	0.143581	-0.930113	-0.091399
Zn18	Zn	0.643581	-0.430113	0.408601
O19	O	0.251229	-0.915826	0.069488
O20	O	0.751229	-0.415826	0.569488
C21	C	0.144306	-0.782390	0.000061
C22	C	0.644306	-0.282390	0.500061
C23	C	0.138072	-0.695368	0.000053
C24	C	0.638072	-0.195368	0.500053
C25	C	0.019902	-0.931895	0.000096
C26	C	0.519902	-0.431895	0.500096
C27	C	-0.057677	-0.930614	0.000103
C28	C	0.442323	-0.430614	0.500103
C29	C	0.150109	-1.069080	0.000090
C30	C	0.650109	-0.569080	0.500090
C31	C	0.156342	-1.156102	0.000093
C32	C	0.656342	-0.656102	0.500093
C33	C	-0.098456	-1.001452	0.000114
C34	C	0.401544	-0.501452	0.500114
C35	C	-0.171350	-1.000250	0.000101
C36	C	0.328650	-0.500250	0.500101
C37	C	-0.203463	-0.928204	0.000093
C38	C	0.296537	-0.428204	0.500093
C39	C	-0.162676	-0.857356	0.000076
C40	C	0.337324	-0.357356	0.500076
C41	C	-0.089783	-0.858561	0.000081
C42	C	0.410217	-0.358561	0.500081
N43	N	-0.312817	-0.870872	0.047342
N44	N	0.187183	-0.370872	0.547342
N45	N	-0.382063	-0.869732	0.047339
N46	N	0.117937	-0.369732	0.547339
C47	C	-0.423085	-0.924569	0.000075
C48	C	0.076915	-0.424569	0.500075
N49	N	-0.392247	-0.980600	-0.047175
N50	N	0.107753	-0.480600	0.452825
N51	N	-0.322995	-0.981742	-0.047168
N52	N	0.177005	-0.481742	0.452832
C53	C	-0.282503	-0.926889	0.000086
C54	C	0.217497	-0.426889	0.500086
C55	C	-0.542905	-0.994108	0.000071
C56	C	-0.042905	-0.494108	0.500071
C57	C	-0.615801	-0.992903	0.000052
C58	C	-0.115801	-0.492903	0.500052
C59	C	-0.607124	-0.850007	0.000036
C60	C	-0.107124	-0.350007	0.500036
C61	C	-0.534230	-0.851215	0.000046
C62	C	-0.034230	-0.351215	0.500046
C63	C	-0.502125	-0.923267	0.000068
C64	C	-0.002125	-0.423267	0.500068
C65	C	0.274513	-0.919575	0.000055
C66	C	0.774513	-0.419575	0.500055
C67	C	0.352091	-0.920856	0.000043
C68	C	0.852091	-0.420856	0.500043
N69	N	0.155784	-0.915388	0.216410
N70	N	0.655784	-0.415388	0.716410
C71	C	0.198212	-0.644922	0.000043
C72	C	0.698212	-0.144922	0.500043
C73	C	0.192351	-0.563155	0.000056
C74	C	0.692351	-0.063155	0.500056
C75	C	0.126351	-0.531836	0.000072
C76	C	0.626351	-0.031836	0.500072
C77	C	0.066208	-0.582288	0.000084
C78	C	0.566208	-0.082288	0.500084
C79	C	0.072069	-0.664054	0.000077
C80	C	0.572069	-0.164054	0.500077
C81	C	0.102059	-0.288320	0.000098
C82	C	0.602059	0.211680	0.500098
C83	C	0.096203	-0.206548	0.000102
C84	C	0.596203	0.293452	0.500102
C85	C	0.222347	-0.187420	0.000076
C86	C	0.722347	0.312580	0.500076
C87	C	0.228202	-0.269188	0.000064
C88	C	0.728202	0.230812	0.500064
C89	C	0.168059	-0.319633	0.000081
C90	C	0.668059	0.180367	0.500081
N91	N	0.120359	-0.448257	0.000082
N92	N	0.620359	0.051743	0.500082
N93	N	0.174051	-0.403210	0.000076
N94	N	0.674051	0.096790	0.500076
N95	N	0.138625	-0.936088	-0.216258
N96	N	0.638625	-0.436088	0.283742
C97	C	0.113057	-0.966776	0.260117
C98	C	0.613057	-0.466776	0.760117
C99	C	0.116526	-0.962607	0.347523
C100	C	0.616526	-0.462607	0.847523
C101	C	0.162727	-0.907054	0.391220
C102	C	0.662727	-0.407054	0.891220
C103	C	0.205456	-0.855661	0.347508
C104	C	0.705456	-0.355661	0.847508
C105	C	0.201983	-0.859826	0.260104
C106	C	0.701983	-0.359826	0.760104
C107	C	0.177881	-0.888860	0.652626
C108	C	0.677881	-0.388860	1.152626
C109	C	0.181353	-0.884700	0.740036
C110	C	0.681353	-0.384700	1.240036
C111	C	0.092421	-0.991646	0.740045
C112	C	0.592421	-0.491646	1.240045
C113	C	0.088955	-0.995810	0.652639
C114	C	0.588955	-0.495810	1.152639
C115	C	0.131681	-0.944414	0.608934
C116	C	0.631681	-0.444414	1.108934
N117	N	0.166276	-0.902794	0.480563
N118	N	0.666276	-0.402794	0.980563
N119	N	0.128128	-0.948671	0.519593
N120	N	0.628128	-0.448671	1.019593
H121	H	-0.072320	-1.060123	0.000129
H122	H	0.427680	-0.560123	0.500129
H123	H	0.281946	-0.294682	0.000042
H124	H	0.781946	0.205318	0.500042
H125	H	0.023097	-0.705127	0.000084
H126	H	0.523097	-0.205127	0.500084
Br127	Br	0.273973	-0.494694	0.000040
Br128	Br	0.773973	0.005306	0.500040
Br129	Br	0.050357	-1.042179	0.200822
Br130	Br	0.550357	-0.542179	0.700822
H131	H	0.042455	-0.181053	0.000114
H132	H	0.542455	0.318947	0.500114
H133	H	0.057635	-1.033489	0.775637
H134	H	0.557635	-0.533489	1.275637
Br135	Br	0.244063	-0.809303	0.799335
Br136	Br	0.744063	-0.309303	1.299335
H137	H	-0.516763	-1.052778	0.000085
H138	H	-0.016763	-0.552778	0.500085
H139	H	0.243072	-0.810425	0.383092
H140	H	0.743072	-0.310425	0.883092
H141	H	0.053086	-0.329383	0.000112
H142	H	0.553086	0.170617	0.500112
H143	H	0.251956	-0.670415	0.000030
H144	H	0.751956	-0.170415	0.500030
H145	H	0.012469	-0.556782	0.000109
H146	H	0.512469	-0.056782	0.500109
H147	H	-0.204558	-1.057937	0.000107
H148	H	0.295442	-0.557937	0.500107
Br149	Br	0.058536	-1.032346	0.406841
Br150	Br	0.558536	-0.532346	0.906841
H151	H	0.051334	-1.041045	0.617062
H152	H	0.551334	-0.541045	1.117062
H153	H	-0.056581	-0.800874	0.000072
H154	H	0.443419	-0.300874	0.500072
Br155	Br	0.303966	-0.118956	0.000055
Br156	Br	0.803966	0.381044	0.500055
H157	H	-0.649002	-1.050591	0.000057
H158	H	-0.149002	-0.550591	0.500057
H159	H	0.236775	-0.817980	0.224519
H160	H	0.736775	-0.317980	0.724519
Br161	Br	-0.206256	-0.759579	0.000054
Br162	Br	0.293744	-0.259579	0.500054
Br163	Br	-0.650698	-0.752229	0.000016
Br164	Br	-0.150698	-0.252229	0.500016
Br165	Br	-0.478884	-0.755071	0.000032
Br166	Br	0.021116	-0.255071	0.500032
Br167	Br	0.235866	-0.819112	0.593317
Br168	Br	0.735866	-0.319112	1.093317
