data_functionalizedCrystal
_audit_creation_method	'MofGen! by Chris Wilmer'
_symmetry_space_group_name_H-M	'P1'
_symmetry_Int_Tables_number	1
_symmetry_cell_setting	triclinic
loop_
_symmetry_equiv_pos_as_xyz
  x,y,z
_cell_length_a	13.033291
_cell_length_b	21.295417
_cell_length_c	21.295412
_cell_angle_alpha	90.030140
_cell_angle_beta	97.205936
_cell_angle_gamma	97.198771
loop_
_atom_site_label
_atom_site_type_symbol
_atom_site_fract_x
_atom_site_fract_y
_atom_site_fract_z
Zn1	Zn	1.597667	-0.128525	0.478357
Zn2	Zn	1.597532	-0.233805	0.373074
Zn3	Zn	1.422906	-0.141898	0.359708
Zn4	Zn	1.422833	-0.247121	0.464917
O5	O	1.510235	-0.187837	0.419014
O6	O	1.743899	-0.131321	0.475608
O7	O	1.574342	-0.221637	0.283209
O8	O	1.446176	-0.052028	0.375479
O9	O	1.743800	-0.208669	0.398257
O10	O	1.574571	-0.042203	0.462649
O11	O	1.446045	-0.154114	0.273390
O12	O	1.276647	-0.167026	0.362447
O13	O	1.446051	-0.231365	0.554791
O14	O	1.276593	-0.244333	0.439743
O15	O	1.574501	-0.144233	0.564665
O16	O	1.574271	-0.323667	0.385226
O17	O	1.445920	-0.333451	0.452702
C18	C	1.238699	-0.208577	0.398186
C19	C	1.122535	-0.217464	0.389291
C20	C	0.950735	-0.192395	0.414468
C21	C	1.070797	-0.183210	0.423661
C22	C	1.510101	-0.351399	0.418972
C23	C	1.510140	-0.421364	0.418982
C24	C	1.576957	-0.449061	0.464398
C25	C	1.576994	-0.514800	0.464416
C26	C	1.510225	-0.552840	0.419008
C27	C	1.443394	-0.525137	0.373589
C28	C	1.443352	-0.459399	0.373576
N29	N	1.502336	-0.656705	0.363313
N30	N	1.502382	-0.719153	0.363328
C31	C	1.510347	-0.750906	0.419046
N32	N	1.518284	-0.717850	0.474752
N33	N	1.518243	-0.655396	0.474737
C34	C	1.510263	-0.624123	0.419018
C35	C	1.577208	-0.849884	0.464485
C36	C	1.577237	-0.915626	0.464504
C37	C	1.443643	-0.925961	0.373672
C38	C	1.443608	-0.860221	0.373659
C39	C	1.510396	-0.822186	0.419065
C40	C	1.782830	-0.167018	0.439923
C41	C	1.898994	-0.158145	0.448833
C42	C	1.510283	-0.187793	0.583208
C43	C	1.510303	-0.187774	0.653178
C44	C	1.510397	-0.023635	0.419072
C45	C	1.510466	0.046339	0.419097
C46	C	1.510247	-0.187831	0.255463
C47	C	1.510429	-0.187658	0.185509
C48	C	1.577286	-0.142297	1.157786
C49	C	1.577278	-0.142313	1.092043
C50	C	1.510394	-0.187684	1.054024
C51	C	1.443532	-0.233053	1.081755
C52	C	1.443549	-0.233039	1.147498
N53	N	1.418879	-0.199521	0.943782
N54	N	1.418866	-0.199530	0.881330
C55	C	1.510339	-0.187728	0.855945
N56	N	1.601829	-0.175904	0.895373
N57	N	1.601841	-0.175892	0.957831
C58	C	1.510368	-0.187704	0.982737
C59	C	1.577193	-0.142382	0.756936
C60	C	1.577187	-0.142402	0.691191
C61	C	1.443431	-0.233139	0.680905
C62	C	1.443447	-0.233122	0.746648
C63	C	1.510326	-0.187740	0.784660
H64	H	1.631396	-0.537356	0.501405
O65	O	0.897666	-0.235568	0.371288
C66	C	0.924209	-0.296310	0.386961
H67	H	1.003506	-0.291624	0.417185
H68	H	0.862804	-0.322216	0.414619
C69	C	0.831639	-0.339751	0.288769
C70	C	0.929038	-0.333996	0.325887
H71	H	0.834613	-0.363000	0.251097
H72	H	0.813753	-0.298829	0.278211
H73	H	0.780478	-0.361338	0.311825
H74	H	0.980193	-0.312403	0.302834
H75	H	0.946933	-0.374916	0.336440
O76	O	1.123929	-0.140028	0.466814
C77	C	1.097343	-0.079290	0.451164
H78	H	1.067237	-0.078331	0.398592
H79	H	1.034097	-0.067685	0.480136
C80	C	1.231384	-0.031094	0.530517
C81	C	1.194416	-0.029914	0.465946
H82	H	1.291260	-0.000636	0.539638
H83	H	1.249293	-0.072014	0.541063
H84	H	1.178669	-0.021425	0.554652
H85	H	1.247125	-0.039591	0.441812
H86	H	1.176517	0.011006	0.455396
H87	H	1.631650	-0.105429	0.787886
H88	H	1.631637	-0.105465	0.668621
O89	O	1.069475	-0.260640	0.346108
C90	C	1.096022	-0.321381	0.361781
H91	H	1.175317	-0.316693	0.392008
H92	H	1.034615	-0.347290	0.389436
C93	C	1.003466	-0.364824	0.263586
C94	C	1.100862	-0.359066	0.300707
H95	H	1.006447	-0.388071	0.225914
H96	H	0.985577	-0.323902	0.253027
H97	H	0.952304	-0.386413	0.286639
H98	H	1.152019	-0.337470	0.277657
H99	H	1.118760	-0.399985	0.311260
O100	O	1.378604	-0.277234	0.643925
C101	C	1.438059	-0.313368	0.610458
H102	H	1.517279	-0.285117	0.606692
H103	H	1.449506	-0.359138	0.636658
C104	C	1.283230	-0.363875	0.548218
C105	C	1.380526	-0.329174	0.543589
H106	H	1.247740	-0.373628	0.506971
H107	H	1.243173	-0.339533	0.570767
H108	H	1.292783	-0.402012	0.570055
H109	H	1.370971	-0.291034	0.521760
H110	H	1.420580	-0.353510	0.521035
O111	O	1.378393	-0.277208	0.773477
C112	C	1.319375	-0.317268	0.725828
H113	H	1.315768	-0.291770	0.678697
H114	H	1.357599	-0.362159	0.721753
C115	C	1.212571	-0.366151	0.800836
C116	C	1.208134	-0.334831	0.742949
H117	H	1.143954	-0.376988	0.811398
H118	H	1.252335	-0.339164	0.832939
H119	H	1.244430	-0.403556	0.797433
H120	H	1.176288	-0.297423	0.746356
H121	H	1.168362	-0.361813	0.710847
H122	H	1.388940	-0.436849	0.336593
O123	O	0.952225	-0.115139	0.492124
C124	C	1.015391	-0.146233	0.537506
H125	H	0.982400	-0.198323	0.538795
H126	H	1.098063	-0.142096	0.524323
C127	C	1.057797	-0.051445	0.601563
C128	C	1.017273	-0.115422	0.603150
H129	H	1.058963	-0.032438	0.642055
H130	H	1.015245	-0.030495	0.570988
H131	H	1.126688	-0.048007	0.590575
H132	H	0.948380	-0.118859	0.614131
H133	H	1.059814	-0.136372	0.633729
O134	O	1.641999	-0.942570	0.508679
C135	C	1.582488	-0.985159	0.544745
H136	H	1.500159	-0.971681	0.542280
H137	H	1.578936	-1.035271	0.525019
C138	C	1.734608	-0.998749	0.617146
C139	C	1.633493	-0.982192	0.614123
H140	H	1.766072	-0.996922	0.659941
H141	H	1.774704	-0.970058	0.592847
H142	H	1.731635	-1.040508	0.600704
H143	H	1.636469	-0.940431	0.630557
H144	H	1.593400	-1.010876	0.638427
O145	O	1.641925	-0.812874	0.508614
C146	C	1.582350	-0.779413	0.544672
H147	H	1.503167	-0.775676	0.516353
H148	H	1.570830	-0.805601	0.590438
C149	C	1.737051	-0.717125	0.595275
C150	C	1.639801	-0.712530	0.560491
H151	H	1.772490	-0.675869	0.605035
H152	H	1.777189	-0.739669	0.570984
H153	H	1.727437	-0.738951	0.633409
H154	H	1.649416	-0.690712	0.522354
H155	H	1.599665	-0.689981	0.584776
O156	O	1.641862	-0.412210	0.508567
C157	C	1.700866	-0.450756	0.548646
H158	H	1.658085	-0.500910	0.547531
H159	H	1.780265	-0.451653	0.531721
C160	C	1.768395	-0.362303	0.618165
C161	C	1.715846	-0.423901	0.616800
H162	H	1.777641	-0.345736	0.660205
H163	H	1.728647	-0.336332	0.591162
H164	H	1.834556	-0.363058	0.604057
H165	H	1.649682	-0.423144	0.630900
H166	H	1.755584	-0.449871	0.643807
O167	O	1.378724	-0.962976	0.329648
C168	C	1.311190	-1.006161	0.360285
H169	H	1.348011	-1.013145	0.410832
H170	H	1.233722	-0.986778	0.361221
C171	C	1.247104	-1.061505	0.262122
C172	C	1.292332	-1.070087	0.324203
H173	H	1.235466	-1.100937	0.239864
H174	H	1.292599	-1.032410	0.241481
H175	H	1.182552	-1.045350	0.262911
H176	H	1.356888	-1.086234	0.323414
H177	H	1.246847	-1.099187	0.344844
O178	O	1.378484	-0.562159	0.329563
C179	C	1.310955	-0.605350	0.360196
H180	H	1.347773	-0.612333	0.410744
H181	H	1.233481	-0.585973	0.361130
C182	C	1.246888	-0.660694	0.262031
C183	C	1.292113	-0.669275	0.324113
H184	H	1.235260	-0.700125	0.239773
H185	H	1.292380	-0.631594	0.241392
H186	H	1.182331	-0.644544	0.262818
H187	H	1.356674	-0.685416	0.323326
H188	H	1.246631	-0.698379	0.344752
O189	O	1.378678	-0.833412	0.329474
C190	C	1.319733	-0.881083	0.289409
H191	H	1.362571	-0.924651	0.290544
H192	H	1.240337	-0.894168	0.306331
C193	C	1.252115	-0.803116	0.219854
C194	C	1.304733	-0.856625	0.221245
H195	H	1.242858	-0.788029	0.177808
H196	H	1.291824	-0.770999	0.246848
H197	H	1.185957	-0.814028	0.233959
H198	H	1.370894	-0.845710	0.207147
H199	H	1.265035	-0.888739	0.194247
O200	O	1.642357	-0.098192	1.194620
C201	C	1.701349	-0.058149	1.156045
H202	H	1.704927	-0.083667	1.109448
H203	H	1.663119	-0.013262	1.146139
C204	C	1.808203	-0.009230	1.247468
C205	C	1.812605	-0.040575	1.190238
H206	H	1.876829	0.001613	1.268561
H207	H	1.768457	-0.036206	1.273457
H208	H	1.776340	0.028172	1.239205
H209	H	1.844455	-0.077979	1.198503
H210	H	1.852358	-0.013605	1.164252
H211	H	1.389076	-0.269995	1.050797
O212	O	1.642079	-0.098228	1.065021
C213	C	1.582592	-0.062117	1.022456
H214	H	1.503369	-0.090378	1.006528
H215	H	1.571157	-0.016335	1.046928
C216	C	1.737382	-0.011631	0.983981
C217	C	1.640081	-0.046343	0.964414
H218	H	1.772844	-0.001898	0.948180
H219	H	1.777460	-0.035958	1.012660
H220	H	1.727839	0.026516	1.004376
H221	H	1.649626	-0.084493	0.944028
H222	H	1.600006	-0.022023	0.935731
O223	O	1.378498	-0.277130	1.174326
C224	C	1.319483	-0.317193	1.126678
H225	H	1.315876	-0.291697	1.079546
H226	H	1.357710	-0.362083	1.122606
C227	C	1.212679	-0.366074	1.201687
C228	C	1.208242	-0.334757	1.143799
H229	H	1.144061	-0.376911	1.212249
H230	H	1.252441	-0.339085	1.233789
H231	H	1.244540	-0.403479	1.198286
H232	H	1.176394	-0.297350	1.147203
H233	H	1.168472	-0.361741	1.111698
