data_functionalizedCrystal
_audit_creation_method	'MofGen! by Chris Wilmer'
_symmetry_space_group_name_H-M	'P1'
_symmetry_Int_Tables_number	1
_symmetry_cell_setting	triclinic
loop_
_symmetry_equiv_pos_as_xyz
  x,y,z
_cell_length_a	10.654537
_cell_length_b	17.019234
_cell_length_c	9.130307
_cell_angle_alpha	86.115410
_cell_angle_beta	90.000617
_cell_angle_gamma	96.067153
loop_
_atom_site_label
_atom_site_type_symbol
_atom_site_fract_x
_atom_site_fract_y
_atom_site_fract_z
O1	O	-1.666095	0.110768	-0.135746
O2	O	-1.300448	0.121330	-0.137088
O3	O	-1.493485	0.001270	-0.121925
O4	O	-1.473057	0.230827	-0.150909
O5	O	-1.493479	0.001269	0.121675
O6	O	-1.300442	0.121328	0.106511
O7	O	-1.666088	0.110767	0.107853
Cu8	Cu	-1.483265	0.116047	0.129425
Cu9	Cu	-1.483272	0.116049	-0.158659
O10	O	-1.473051	0.230826	0.092690
C11	C	-1.253659	0.120555	-0.015192
C12	C	-1.114252	0.118238	-0.014903
C13	C	-1.084016	0.261800	-0.033047
C14	C	-1.003406	0.332489	-0.041987
C15	C	-0.872422	0.330307	-0.041712
C16	C	-0.822047	0.257429	-0.032492
C17	C	-0.902657	0.186740	-0.023552
C18	C	-1.033642	0.188929	-0.023832
C19	C	-0.932892	0.043180	-0.005397
C20	C	-1.063876	0.045360	-0.005683
C21	C	-0.882517	-0.029699	0.003823
C22	C	-0.963127	-0.100390	0.012753
C23	C	-1.094118	-0.098205	0.012476
C24	C	-1.144486	-0.025330	0.003257
C25	C	-1.492712	-0.028124	0.003583
C26	C	-1.490402	-0.115709	0.014632
C27	C	-1.477222	-0.611059	0.083721
C28	C	-1.479405	-0.528765	0.073346
C29	C	-1.480509	-0.487610	-0.064630
C30	C	-1.479418	-0.528752	-0.192240
C31	C	-1.477226	-0.611043	-0.181864
C32	C	-1.487119	-0.239142	-0.102602
C33	C	-1.489315	-0.156845	-0.112969
C34	C	-1.489299	-0.156864	0.152620
C35	C	-1.487115	-0.239158	0.162983
C36	C	-1.486017	-0.280292	0.035373
C37	C	-1.482744	-0.403493	-0.075238
C38	C	-1.483773	-0.364406	0.045982
C39	C	-0.712877	0.111544	-0.014044
C40	C	-0.852282	0.113869	-0.014337
C41	C	-1.473825	0.260220	-0.032821
C42	C	-1.476135	0.347805	-0.043879
N43	N	-1.483268	0.116046	0.332048
N44	N	-1.483278	0.116044	-0.361282
C45	C	-1.654272	0.009764	0.345461
C46	C	-1.739782	-0.043374	0.428834
C47	C	-1.739795	-0.043374	0.582167
C48	C	-1.654286	0.009768	0.652131
C49	C	-1.568775	0.062906	0.568758
C50	C	-1.568775	0.062902	0.415421
C51	C	-1.397768	0.169182	0.555345
C52	C	-1.397759	0.169188	0.402011
C53	C	-1.312259	0.222325	0.625309
C54	C	-1.226752	0.275468	0.541935
C55	C	-1.226744	0.275467	0.388593
C56	C	-1.312249	0.222326	0.318638
H57	H	-1.190668	0.263583	-0.033305
H58	H	-0.715392	0.255659	-0.032251
H59	H	-1.486221	-0.272661	0.275339
H60	H	-1.654281	0.009766	0.220609
H61	H	-1.157107	0.318736	0.320718
F62	F	-1.476056	-0.654853	0.230576
F63	F	-1.483970	-0.359689	-0.222079
H64	H	-1.809401	-0.086643	0.371857
H65	H	-1.312255	0.222324	0.193786
F66	F	-0.909505	-0.177943	0.022576
F67	F	-1.057028	0.410048	-0.051800
F68	F	-1.480540	-0.484987	0.209157
H69	H	-1.312267	0.222319	0.750162
H70	H	-1.482866	-0.397918	0.158322
H71	H	-1.480311	-0.495236	-0.304584
H72	H	-1.654291	0.009757	0.776984
H73	H	-0.806789	0.387869	-0.048981
H74	H	-1.251138	-0.023544	0.003013
H75	H	-1.490191	-0.123364	0.256512
F76	F	-1.476063	-0.654822	-0.317675
H77	H	-1.157131	0.318729	0.598910
H78	H	-1.490212	-0.123338	-0.225331
H79	H	-1.809420	-0.086647	0.650051
H80	H	-1.159744	-0.155769	0.019761
F81	F	-0.743111	-0.032019	0.004124
H82	H	-1.486236	-0.272624	-0.206512
