data_functionalizedCrystal
_audit_creation_method	'MofGen! by Chris Wilmer'
_symmetry_space_group_name_H-M	'P1'
_symmetry_Int_Tables_number	1
_symmetry_cell_setting	triclinic
loop_
_symmetry_equiv_pos_as_xyz
  x,y,z
_cell_length_a	17.699083
_cell_length_b	17.699083
_cell_length_c	16.176319
_cell_angle_alpha	89.999455
_cell_angle_beta	90.008460
_cell_angle_gamma	96.717152
loop_
_atom_site_label
_atom_site_type_symbol
_atom_site_fract_x
_atom_site_fract_y
_atom_site_fract_z
O1	O	0.095712	-1.004072	0.068734
O2	O	0.108165	-0.783694	0.068739
O3	O	-0.008251	-0.900109	0.068729
O4	O	0.212128	-0.887657	0.068744
O5	O	-0.008262	-0.900107	-0.068764
O6	O	0.108154	-0.783692	-0.068754
O7	O	0.095701	-1.004070	-0.068759
Cu8	Cu	0.101927	-0.893881	-0.081311
Cu9	Cu	0.101939	-0.893883	0.081291
O10	O	0.212117	-0.887655	-0.068749
C11	C	0.107713	-0.755496	-0.000007
C12	C	0.106375	-0.671478	-0.000005
C13	C	0.105739	-0.632009	-0.074954
C14	C	0.104469	-0.553067	-0.074954
C15	C	0.103841	-0.513594	-0.000006
C16	C	0.104476	-0.553068	0.074948
C17	C	0.105740	-0.632010	0.074948
C18	C	0.099376	-0.234705	0.074950
C19	C	0.098114	-0.155758	0.074945
C20	C	0.098106	-0.155763	-0.074952
C21	C	0.099370	-0.234704	-0.074952
C22	C	0.100000	-0.274172	0.000001
C23	C	0.101375	-0.359771	0.000001
C24	C	0.102472	-0.427996	-0.000005
C25	C	-0.036453	-0.899662	-0.000017
C26	C	-0.120471	-0.898323	-0.000018
C27	C	-0.169092	-0.966657	-0.000020
C28	C	-0.248036	-0.965395	-0.000013
C29	C	-0.278356	-0.895798	-0.000009
C30	C	-0.229729	-0.827459	-0.000004
C31	C	-0.150787	-0.828722	-0.000005
C32	C	-0.548092	-0.822364	0.000003
C33	C	-0.627040	-0.821106	0.000002
C34	C	-0.645341	-0.959036	-0.000005
C35	C	-0.566399	-0.960299	-0.000006
C36	C	-0.517778	-0.891961	0.000003
C37	C	-0.432179	-0.893331	-0.000003
C38	C	-0.363954	-0.894428	-0.000009
C39	C	0.240319	-0.888102	-0.000001
C40	C	0.324337	-0.889441	0.000005
C41	C	0.096148	-0.032269	-0.000010
C42	C	0.097472	-0.116289	-0.000004
N43	N	0.101943	-0.893885	0.195656
N44	N	0.101917	-0.893884	-0.195676
C45	C	0.050495	-0.945530	0.238916
C46	C	0.050493	-0.945533	0.325463
C47	C	0.101936	-0.893887	0.368749
C48	C	0.153389	-0.842240	0.325483
C49	C	0.153394	-0.842242	0.238937
C50	C	0.153372	-0.842235	0.674511
C51	C	0.153362	-0.842236	0.761063
C52	C	0.050471	-0.945526	0.761037
C53	C	0.050476	-0.945527	0.674491
C54	C	0.101932	-0.893883	0.631233
C55	C	0.101934	-0.893882	0.537389
C56	C	0.101931	-0.893884	0.462591
H57	H	0.097589	-0.123619	-0.135983
C58	C	-0.006108	-1.002339	0.626881
H59	H	-0.036745	-1.033103	0.665041
H60	H	-0.037638	-0.975243	0.593109
H61	H	0.021155	-1.033735	0.593130
C62	C	-0.006118	-1.002346	0.808623
H63	H	0.001251	-0.994958	0.866366
H64	H	-0.056649	-0.994323	0.794431
H65	H	0.002146	-1.052813	0.794436
C66	C	-0.135747	-1.043214	-0.000025
H67	H	-0.176013	-1.083729	-0.000018
H68	H	-0.105339	-1.046576	-0.047972
H69	H	-0.105326	-1.046574	0.047928
H70	H	-0.111200	-0.773078	-0.000003
C71	C	0.106445	-0.675424	0.157391
H72	H	0.105898	-0.640610	0.202028
H73	H	0.062820	-0.712076	0.160505
H74	H	0.151064	-0.700361	0.160508
C75	C	0.209979	-0.785431	0.373091
H76	H	0.240625	-0.754679	0.334929
H77	H	0.182726	-0.754035	0.406845
H78	H	0.241509	-0.812536	0.406859
H79	H	0.099885	-0.266839	-0.135983
C80	C	-0.698825	-1.034208	-0.000002
H81	H	-0.750183	-1.023492	0.000010
H82	H	-0.689657	-1.062752	-0.047950
H83	H	-0.689637	-1.062751	0.047950
H84	H	0.097603	-0.123621	0.135981
C85	C	0.100078	-0.278109	0.157396
H86	H	0.099532	-0.243291	0.202030
H87	H	0.056453	-0.314760	0.160514
H88	H	0.144696	-0.303046	0.160514
C89	C	-0.006094	-1.002340	0.191309
H90	H	-0.036729	-1.033102	0.229472
H91	H	-0.037623	-0.975242	0.157539
H92	H	0.021165	-1.033738	0.157556
C93	C	-0.263080	-0.750905	-0.000002
H94	H	-0.317058	-0.759938	-0.000010
H95	H	-0.246376	-0.722773	0.047945
H96	H	-0.246386	-0.722777	-0.047955
H97	H	0.195289	-0.800188	0.203716
H98	H	-0.541717	-1.016972	-0.000014
C99	C	0.209957	-0.785429	0.808676
H100	H	0.240609	-0.754677	0.770518
H101	H	0.182706	-0.754032	0.842430
H102	H	0.241483	-0.812540	0.842445
H103	H	0.103959	-0.520923	0.135973
H104	H	0.195267	-0.800183	0.639297
H105	H	0.106256	-0.664142	-0.135986
H106	H	-0.287620	-1.021039	-0.000017
C107	C	-0.660395	-0.744549	0.000013
H108	H	-0.714373	-0.753587	0.000004
H109	H	-0.643694	-0.716422	0.047964
H110	H	-0.643704	-0.716414	-0.047936
C111	C	0.103775	-0.509654	-0.157397
H112	H	0.104340	-0.544467	-0.202033
H113	H	0.059163	-0.484715	-0.160523
H114	H	0.147407	-0.473003	-0.160505
H115	H	-0.508514	-0.766719	0.000011
C116	C	-0.006103	-1.002337	0.373045
H117	H	-0.036747	-1.033088	0.334871
H118	H	0.021143	-1.033735	0.406814
H119	H	-0.037636	-0.975229	0.406798
