data_functionalizedCrystal
_audit_creation_method	'MofGen! by Chris Wilmer'
_symmetry_space_group_name_H-M	'P1'
_symmetry_Int_Tables_number	1
_symmetry_cell_setting	triclinic
loop_
_symmetry_equiv_pos_as_xyz
  x,y,z
_cell_length_a	6.817900
_cell_length_b	16.417825
_cell_length_c	16.418042
_cell_angle_alpha	95.405182
_cell_angle_beta	103.389568
_cell_angle_gamma	103.385495
loop_
_atom_site_label
_atom_site_type_symbol
_atom_site_fract_x
_atom_site_fract_y
_atom_site_fract_z
V1	V	-4.025074	-0.116567	-0.261449
O2	O	-4.013115	0.004901	-0.256170
O3	O	-3.976127	-0.230459	-0.259951
O4	O	-3.976155	-0.115081	-0.375343
O5	O	-4.013086	-0.111275	-0.139979
V6	V	-4.508841	-0.102002	-0.246885
O7	O	-4.285799	-0.148517	-0.293396
O8	O	-4.698313	-0.070051	-0.214937
O9	O	-4.334581	0.011890	-0.248382
O10	O	-4.638197	-0.223470	-0.252164
O11	O	-4.638225	-0.107293	-0.368355
O12	O	-4.334553	-0.103487	-0.132990
C13	C	-3.821011	-0.258214	-0.255902
C14	C	-3.862274	-0.351324	-0.255436
C15	C	-3.917414	-0.553385	-0.177648
C16	C	-3.956208	-0.640873	-0.177217
C17	C	-4.035881	-0.665184	-0.330695
C18	C	-3.997102	-0.577697	-0.331125
C19	C	-3.937858	-0.521800	-0.254599
C20	C	-4.015430	-0.696774	-0.253738
C21	C	-4.057492	-0.791633	-0.253272
C22	C	-3.895797	-0.426935	-0.255065
C23	C	-3.821046	-0.111037	-0.403095
C24	C	-3.862329	-0.110576	-0.496206
C25	C	-4.139337	-0.113692	-0.714700
C26	C	-4.178107	-0.113251	-0.802186
C27	C	-3.813934	-0.104873	-0.793622
C28	C	-3.775163	-0.105307	-0.706136
C29	C	-3.937874	-0.109721	-0.666678
C30	C	-4.015415	-0.108846	-0.841650
C31	C	-4.057451	-0.108368	-0.936507
C32	C	-3.895836	-0.110197	-0.571815
C33	C	-4.153039	0.039641	-0.252430
C34	C	-4.091014	0.132750	-0.252900
C35	C	-4.153004	-0.107534	-0.105235
C36	C	-4.090960	-0.107991	-0.012123
H37	H	-3.939560	-0.666585	-0.114556
C38	C	-4.100098	-0.726008	-0.413686
C39	C	-4.129625	-0.809385	-0.396840
C40	C	-4.188748	-0.865437	-0.473270
H41	H	-4.226638	-0.719512	-0.448033
H42	H	-3.993604	-0.713976	-0.442607
H43	H	-4.236113	-0.821414	-0.367931
H44	H	-4.003112	-0.815909	-0.362505
H45	H	-4.082254	-0.853404	-0.502192
H46	H	-4.315284	-0.858933	-0.507612
H47	H	-4.208771	-0.922014	-0.461851
H48	H	-4.013763	-0.551982	-0.393792
C49	C	-3.853547	-0.492744	-0.094551
C50	C	-4.010835	-0.510715	-0.052126
C51	C	-3.952099	-0.454865	0.024421
H52	H	-3.727125	-0.499301	-0.060163
H53	H	-3.833467	-0.436105	-0.105795
H54	H	-4.030890	-0.567340	-0.040879
H55	H	-4.137270	-0.504153	-0.086488
H56	H	-3.932018	-0.398226	0.013178
H57	H	-3.825675	-0.461426	0.058801
H58	H	-4.058816	-0.467045	0.053212
H59	H	-4.342155	-0.116483	-0.841281
H60	H	-4.271828	-0.117284	-0.682575
H61	H	-3.681468	-0.101281	-0.825760
H62	H	-3.611097	-0.102067	-0.667035
