data_functionalizedCrystal
_audit_creation_method	'MofGen! by Chris Wilmer'
_symmetry_space_group_name_H-M	'P1'
_symmetry_Int_Tables_number	1
_symmetry_cell_setting	triclinic
loop_
_symmetry_equiv_pos_as_xyz
  x,y,z
_cell_length_a	19.188905
_cell_length_b	19.188930
_cell_length_c	9.565339
_cell_angle_alpha	89.995116
_cell_angle_beta	89.989339
_cell_angle_gamma	83.139668
loop_
_atom_site_label
_atom_site_type_symbol
_atom_site_fract_x
_atom_site_fract_y
_atom_site_fract_z
O1	O	0.926156	0.087079	-0.116506
O2	O	1.426156	0.587079	0.383494
O3	O	0.722842	0.098832	-0.116460
O4	O	1.222842	0.598832	0.383540
O5	O	0.830366	-0.008701	-0.116457
O6	O	1.330366	0.491299	0.383543
O7	O	0.818631	0.194612	-0.116509
O8	O	1.318631	0.694612	0.383491
O9	O	0.830357	-0.008694	0.116063
O10	O	1.330357	0.491306	0.616063
O11	O	0.722833	0.098839	0.116060
O12	O	1.222833	0.598839	0.616060
O13	O	0.926147	0.087086	0.116014
O14	O	1.426147	0.587086	0.616014
Zn15	Zn	0.824489	0.092963	0.152955
Zn16	Zn	1.324489	0.592963	0.652955
Zn17	Zn	0.824500	0.092955	-0.153401
Zn18	Zn	1.324500	0.592955	0.346599
O19	O	0.818623	0.194619	0.116011
O20	O	1.318623	0.694619	0.616011
C21	C	0.696826	0.098458	-0.000194
C22	C	1.196826	0.598458	0.499806
C23	C	0.619321	0.097324	-0.000175
C24	C	1.119321	0.597324	0.499825
C25	C	0.582934	0.096776	-0.126926
C26	C	1.082934	0.596776	0.373074
C27	C	0.510110	0.095703	-0.126943
C28	C	1.010110	0.595703	0.373057
C29	C	0.473678	0.095164	-0.000202
C30	C	0.973678	0.595164	0.499798
C31	C	0.510074	0.095716	0.126565
C32	C	1.010074	0.595716	0.626565
C33	C	0.582895	0.096796	0.126578
C34	C	1.082895	0.596796	0.626578
N35	N	0.364654	0.053738	0.094129
N36	N	0.864654	0.553738	0.594129
N37	N	0.295477	0.052710	0.094107
N38	N	0.795477	0.552710	0.594107
C39	C	0.254272	0.091911	-0.000235
C40	C	0.754272	0.591911	0.499765
N41	N	0.284857	0.132169	-0.094577
N42	N	0.784857	0.632169	0.405423
N43	N	0.354041	0.133194	-0.094560
N44	N	0.854041	0.633194	0.405440
C45	C	0.394716	0.093993	-0.000203
C46	C	0.894716	0.593993	0.499797
C47	C	0.138921	0.090200	-0.127013
C48	C	0.638921	0.590200	0.372987
C49	C	0.066095	0.089132	-0.127025
C50	C	0.566095	0.589132	0.372975
C51	C	0.066061	0.089138	0.126486
C52	C	0.566061	0.589138	0.626486
C53	C	0.138884	0.090214	0.126495
C54	C	0.638884	0.590214	0.626495
C55	C	0.175310	0.090742	-0.000259
C56	C	0.675310	0.590742	0.499741
C57	C	0.829982	-0.034708	-0.000193
C58	C	1.329982	0.465292	0.499807
C59	C	0.828841	-0.112213	-0.000181
C60	C	1.328841	0.387787	0.499819
C61	C	0.891933	-0.157142	-0.000188
C62	C	1.391933	0.342858	0.499812
C63	C	0.890861	-0.229966	-0.000210
C64	C	1.390861	0.270034	0.499790
C65	C	0.826694	-0.257857	-0.000197
C66	C	1.326694	0.242143	0.499803
C67	C	0.763594	-0.212917	-0.000197
C68	C	1.263594	0.287083	0.499803
C69	C	0.764668	-0.140095	-0.000189
C70	C	1.264668	0.359905	0.499811
N71	N	0.777643	-0.365855	0.078945
N72	N	1.277643	0.134145	0.578945
N73	N	0.776628	-0.435034	0.078940
N74	N	1.276628	0.064966	0.578940
C75	C	0.823456	-0.477265	-0.000224
C76	C	1.323456	0.022735	0.499776
N77	N	0.871348	-0.447706	-0.079367
N78	N	1.371348	0.052294	0.420633
N79	N	0.872366	-0.378522	-0.079356
N80	N	1.372366	0.121478	0.420644
C81	C	0.825523	-0.336819	-0.000207
C82	C	1.325523	0.163181	0.499793
C83	C	0.885390	-0.601159	-0.000258
C84	C	1.385390	-0.101159	0.499742
C85	C	0.884315	-0.673984	-0.000289
C86	C	1.384315	-0.173984	0.499711
C87	C	0.757047	-0.656933	-0.000262
C88	C	1.257047	-0.156933	0.499738
C89	C	0.758123	-0.584110	-0.000245
C90	C	1.258123	-0.084110	0.499755
C91	C	0.822296	-0.556228	-0.000236
C92	C	1.322296	-0.056228	0.499764
C93	C	0.952163	0.087460	-0.000255
C94	C	1.452163	0.587460	0.499745
C95	C	1.029668	0.088594	-0.000283
C96	C	1.529668	0.588594	0.499717
C97	C	0.819007	0.220626	-0.000256
C98	C	1.319007	0.720626	0.499744
C99	C	0.820148	0.298131	-0.000278
C100	C	1.320148	0.798131	0.499722
N101	N	0.824486	0.092969	0.362034
N102	N	1.324486	0.592969	0.862034
N103	N	0.824508	0.092943	-0.362480
N104	N	1.324508	0.592943	0.137520
C105	C	0.774745	0.142683	0.453236
C106	C	1.274745	0.642683	0.953236
C107	C	0.837798	0.156032	0.546396
C108	C	1.337798	0.656032	1.046396
C109	C	0.761461	0.079625	0.546429
C110	C	1.261461	0.579625	1.046429
C111	C	0.887571	0.106350	0.453143
C112	C	1.387571	0.606350	0.953143
C113	C	0.811192	0.029915	0.453167
C114	C	1.311192	0.529915	0.953167
C115	C	0.874291	0.043237	0.546286
C116	C	1.374291	0.543237	1.046286
H117	H	0.168579	0.090638	-0.230223
H118	H	0.668579	0.590638	0.269777
H119	H	0.168512	0.090656	0.229709
H120	H	0.668512	0.590656	0.729709
C121	C	0.962525	-0.126476	-0.000191
C122	C	1.462525	0.373524	0.499809
N123	N	1.015696	-0.103377	-0.000196
N124	N	1.515696	0.396623	0.499804
H125	H	0.708153	0.068349	0.587409
H126	H	1.208153	0.568349	1.087409
H127	H	0.732718	0.184762	0.412380
H128	H	1.232718	0.684762	0.912380
C129	C	0.795953	-0.042083	0.397791
C130	C	1.295953	0.457917	0.897791
N131	N	0.784467	-0.096312	0.356078
N132	N	1.284467	0.403688	0.856078
C133	C	0.931192	-0.013571	0.601159
C134	C	1.431192	0.486429	1.101159
N135	N	0.974053	-0.056354	0.642498
N136	N	1.474053	0.443646	1.142498
C137	C	0.622998	0.097355	-0.266359
C138	C	1.122998	0.597355	0.233641
N139	N	0.653176	0.097790	-0.371381
N140	N	1.153176	0.597790	0.128619
H141	H	0.036469	0.088690	-0.230244
H142	H	0.536469	0.588690	0.269756
H143	H	0.706747	-0.547527	-0.000231
H144	H	1.206747	-0.047527	0.499769
H145	H	0.940891	0.117689	0.412339
H146	H	1.440891	0.617689	0.912339
H147	H	0.612521	0.097243	0.229797
H148	H	1.112521	0.597243	0.729797
H149	H	0.036398	0.088704	0.229681
H150	H	0.536398	0.588704	0.729681
C151	C	0.960269	-0.279398	-0.000210
C152	C	1.460269	0.220602	0.499790
N153	N	1.012548	-0.316627	-0.000205
N154	N	1.512548	0.183373	0.499795
H155	H	0.711349	-0.235631	-0.000189
H156	H	1.211349	0.264369	0.499811
H157	H	0.937644	-0.578456	-0.000257
H158	H	1.437644	-0.078456	0.499743
C159	C	0.695259	-0.090670	-0.000177
C160	C	1.195259	0.409330	0.499823
N161	N	0.642979	-0.053442	-0.000165
N162	N	1.142979	0.446558	0.499835
C163	C	0.470077	0.095095	-0.266383
C164	C	0.970077	0.595095	0.233617
N165	N	0.439926	0.094635	-0.371410
N166	N	0.939926	0.594635	0.128590
H167	H	0.480406	0.095279	0.229758
H168	H	0.980406	0.595279	0.729758
H169	H	0.935694	-0.710565	-0.000303
H170	H	1.435694	-0.210565	0.499697
H171	H	0.704801	-0.679641	-0.000258
H172	H	1.204801	-0.179641	0.499742
H173	H	0.849057	0.209345	0.587346
H174	H	1.349057	0.709345	1.087346
