data_functionalizedCrystal
_audit_creation_method	'MofGen! by Chris Wilmer'
_symmetry_space_group_name_H-M	'P1'
_symmetry_Int_Tables_number	1
_symmetry_cell_setting	triclinic
loop_
_symmetry_equiv_pos_as_xyz
  x,y,z
_cell_length_a	6.817900
_cell_length_b	9.582889
_cell_length_c	17.982968
_cell_angle_alpha	93.503180
_cell_angle_beta	102.451960
_cell_angle_gamma	111.207298
loop_
_atom_site_label
_atom_site_type_symbol
_atom_site_fract_x
_atom_site_fract_y
_atom_site_fract_z
V1	V	-4.055307	-0.208457	-0.237408
V2	V	-3.555307	0.291543	0.262592
O3	O	-4.001167	0.008575	-0.233032
O4	O	-3.501167	0.508575	0.266968
O5	O	-4.046166	-0.411947	-0.235646
O6	O	-3.546166	0.088053	0.264354
O7	O	-4.001317	-0.205883	-0.341013
O8	O	-3.501317	0.294117	0.158987
O9	O	-4.046326	-0.198916	-0.126936
O10	O	-3.546326	0.301084	0.373064
V11	V	-4.534572	-0.182422	-0.224211
V12	V	-4.034572	0.317578	0.275789
O13	O	-4.325905	-0.265565	-0.266356
O14	O	-3.825905	0.234435	0.233644
O15	O	-4.714171	-0.125314	-0.195264
O16	O	-4.214171	0.374686	0.304736
O17	O	-4.320506	0.021068	-0.225973
O18	O	-3.820506	0.521068	0.274027
O19	O	-4.706108	-0.399454	-0.228587
O20	O	-4.206108	0.100546	0.271413
O21	O	-4.660949	-0.191963	-0.334683
O22	O	-4.160949	0.308037	0.165317
O23	O	-4.365354	-0.184996	-0.120607
O24	O	-3.865354	0.315004	0.379393
C25	C	-3.900898	-0.461534	-0.231865
C26	C	-3.400898	0.038466	0.268135
C27	C	-3.974674	-0.627894	-0.231116
C28	C	-3.474674	-0.127894	0.268884
C29	C	-3.843688	-0.198677	-0.366270
C30	C	-3.343688	0.301323	0.133730
C31	C	-3.881089	-0.197919	-0.450967
C32	C	-3.381089	0.302081	0.049033
C33	C	-4.082028	-0.205062	-0.494633
C34	C	-3.582028	0.294938	0.005367
C35	C	-4.117158	-0.204350	-0.574215
C36	C	-3.617158	0.295650	-0.074215
C37	C	-3.951352	-0.196504	-0.610128
C38	C	-3.451352	0.303496	-0.110128
C39	C	-3.750395	-0.189356	-0.566455
C40	C	-3.250395	0.310644	-0.066455
C41	C	-3.715263	-0.190058	-0.486875
C42	C	-3.215263	0.309942	0.013125
C43	C	-3.892076	-0.186522	-0.887394
C44	C	-3.392076	0.313478	-0.387394
C45	C	-3.927227	-0.185825	-0.966981
C46	C	-3.427227	0.314175	-0.466981
C47	C	-4.293971	-0.200813	-0.974734
C48	C	-3.793971	0.299187	-0.474734
C49	C	-4.258838	-0.201516	-0.895153
C50	C	-3.758838	0.298484	-0.395153
C51	C	-4.057882	-0.194359	-0.851487
C52	C	-3.557882	0.305641	-0.351487
C53	C	-4.019791	-0.195130	-0.765196
C54	C	-3.519791	0.304870	-0.265196
C55	C	-3.989446	-0.195745	-0.696419
C56	C	-3.489446	0.304255	-0.196419
C57	C	-4.129117	0.070647	-0.229752
C58	C	-3.629117	0.570647	0.270248
C59	C	-4.034580	0.237006	-0.230507
C60	C	-3.534580	0.737006	0.269493
C61	C	-4.186327	-0.192207	-0.095345
C62	C	-3.686327	0.307793	0.404655
C63	C	-4.128163	-0.192957	-0.010648
C64	C	-3.628163	0.307043	0.489352
H65	H	-4.217056	-0.211461	-0.465400
H66	H	-3.717056	0.288539	0.034600
H67	H	-4.457600	-0.206634	-1.010297
H68	H	-3.957600	0.293366	-0.510297
F69	F	-3.573932	-0.181005	-0.604679
F70	F	-3.073932	0.318995	-0.104679
H71	H	-3.792195	-0.179432	-0.996218
H72	H	-3.292195	0.320568	-0.496218
F73	F	-3.501393	-0.182444	-0.440400
F74	F	-3.001393	0.317556	0.059600
H75	H	-3.728476	-0.180748	-0.851854
H76	H	-3.228476	0.319252	-0.351854
H77	H	-4.393861	-0.207911	-0.865917
H78	H	-3.893861	0.292089	-0.365917
F79	F	-4.331029	-0.211967	-0.620686
F80	F	-3.831029	0.288033	-0.120686
