data_functionalizedCrystal
_audit_creation_method	'MofGen! by Chris Wilmer'
_symmetry_space_group_name_H-M	'P1'
_symmetry_Int_Tables_number	1
_symmetry_cell_setting	triclinic
loop_
_symmetry_equiv_pos_as_xyz
  x,y,z
_cell_length_a	14.853567
_cell_length_b	13.101018
_cell_length_c	14.853567
_cell_angle_alpha	93.367354
_cell_angle_beta	96.365070
_cell_angle_gamma	93.364098
loop_
_atom_site_label
_atom_site_type_symbol
_atom_site_fract_x
_atom_site_fract_y
_atom_site_fract_z
O1	O	1.201319	0.085135	-0.112743
O2	O	0.938861	0.085152	-0.126763
O3	O	1.077101	0.085146	0.011477
O4	O	1.063079	0.085141	-0.250983
O5	O	1.067171	-0.085284	0.001549
O6	O	0.928931	-0.085278	-0.136691
O7	O	1.191389	-0.085295	-0.122670
Zn8	Zn	1.058583	-0.112346	-0.131257
Zn9	Zn	1.071666	0.112203	-0.118177
O10	O	1.053149	-0.085289	-0.260910
C11	C	0.900307	-0.000061	-0.131092
C12	C	0.800224	-0.000054	-0.129187
C13	C	0.387689	-0.000075	-0.039023
C14	C	0.366408	-0.000078	-0.203256
C15	C	0.460441	-0.000074	-0.205046
C16	C	0.518104	-0.000070	-0.123823
C17	C	0.481732	-0.000069	-0.040810
C18	C	0.496821	-0.000065	-0.288057
C19	C	0.590860	-0.000061	-0.289850
C20	C	0.648524	-0.000064	-0.208626
C21	C	0.612147	-0.000064	-0.125610
C22	C	0.669809	-0.000059	-0.044387
C23	C	0.633433	-0.000067	0.038629
C24	C	0.539395	-0.000072	0.040413
C25	C	0.742562	-0.000058	-0.210410
C26	C	0.763852	-0.000053	-0.046175
N27	N	1.049661	-0.265594	-0.140183
C28	C	1.092730	-0.525506	-0.097096
C29	C	1.037529	-0.474631	-0.152327
C30	C	1.044281	-0.358312	-0.145568
C31	C	1.085980	-0.641835	-0.103854
C32	C	1.229943	-0.000080	-0.118342
C33	C	1.330027	-0.000080	-0.120246
C34	C	1.071501	-0.000066	0.040102
C35	C	1.069597	-0.000057	0.140186
N36	N	1.080596	0.265452	-0.109244
C37	C	1.058749	-0.000075	-0.289536
C38	C	1.060653	-0.000077	-0.389619
C39	C	0.979431	-0.000070	0.552719
C40	C	1.143663	-0.000081	0.574000
C41	C	1.145453	-0.000075	0.479966
C42	C	1.064231	-0.000068	0.422305
C43	C	0.981219	-0.000068	0.458677
C44	C	1.228464	-0.000086	0.443586
C45	C	1.230258	-0.000081	0.349548
C46	C	1.149035	-0.000067	0.291885
C47	C	1.066019	-0.000065	0.328262
C48	C	0.984797	-0.000059	0.270601
C49	C	0.901780	-0.000050	0.306977
C50	C	0.899996	-0.000054	0.401014
C51	C	1.150819	-0.000063	0.197848
C52	C	0.986585	-0.000056	0.176558
H53	H	0.449867	-0.000058	-0.354183
H54	H	0.620469	-0.000054	-0.357447
H55	H	1.294590	-0.000101	0.490540
F56	F	1.161127	-0.468258	-0.028663
F57	F	0.815340	-0.000051	0.245598
H58	H	0.358067	-0.000085	0.028567
F59	F	0.900135	-0.000042	0.115197
H60	H	0.832408	-0.000047	0.430640
H61	H	0.509768	-0.000102	0.107999
H62	H	0.911841	-0.000059	0.582341
F63	F	0.969132	-0.531883	-0.220768
F64	F	0.781272	-0.000043	-0.298755
H65	H	0.810795	-0.000054	0.019968
F66	F	1.230099	-0.000102	0.635368
F67	F	1.318610	-0.000078	0.310843
F68	F	0.305039	-0.000070	-0.289693
H69	H	0.680394	-0.000056	0.104761
H70	H	1.218410	-0.000077	0.168234
