data_functionalizedCrystal
_audit_creation_method	'MofGen! by Chris Wilmer'
_symmetry_space_group_name_H-M	'P1'
_symmetry_Int_Tables_number	1
_symmetry_cell_setting	triclinic
loop_
_symmetry_equiv_pos_as_xyz
  x,y,z
_cell_length_a	23.532407
_cell_length_b	9.065218
_cell_length_c	8.140239
_cell_angle_alpha	90.002802
_cell_angle_beta	89.991844
_cell_angle_gamma	96.067719
loop_
_atom_site_label
_atom_site_type_symbol
_atom_site_fract_x
_atom_site_fract_y
_atom_site_fract_z
O1	O	0.083497	-1.956283	-0.136637
O2	O	0.090346	-1.526661	-0.136641
O3	O	0.004085	-1.754427	-0.136609
O4	O	0.169758	-1.728517	-0.136670
O5	O	0.004084	-1.754415	0.136618
O6	O	0.090345	-1.526649	0.136586
O7	O	0.083496	-1.956271	0.136590
Zn8	Zn	0.086921	-1.741458	0.179968
Zn9	Zn	0.086922	-1.741474	-0.180020
O10	O	0.169757	-1.728504	0.136558
C11	C	0.089687	-1.471701	-0.000028
C12	C	0.087719	-1.307955	-0.000028
N13	N	0.086919	-1.741457	0.425651
C14	C	-0.017136	-1.753761	0.000009
C15	C	-0.080368	-1.751778	0.000021
C16	C	-0.478573	-1.874123	-0.000068
C17	C	-0.537986	-1.872280	-0.000080
O18	O	-0.573898	-1.985695	-0.000140
N19	N	-0.561607	-1.736873	-0.000080
C20	C	-0.525810	-1.603300	-0.000085
O21	O	-0.551356	-1.487956	-0.000087
C22	C	-0.466397	-1.605144	-0.000084
C23	C	-0.442780	-1.740560	-0.000067
C24	C	-0.454955	-2.009527	-0.000053
C25	C	-0.395546	-2.011370	-0.000037
C26	C	-0.359753	-1.877807	-0.000037
C27	C	-0.383371	-1.742402	-0.000052
C28	C	-0.430601	-1.471573	-0.000100
C29	C	-0.371185	-1.473429	-0.000100
C30	C	-0.347568	-1.608845	-0.000084
C31	C	-0.288169	-1.610682	-0.000035
N32	N	-0.264548	-1.746089	-0.000035
C33	C	-0.300341	-1.879651	-0.000036
C34	C	-0.650581	-1.599437	-0.000089
C35	C	-0.709992	-1.597591	-0.000078
C36	C	-0.722165	-1.866571	-0.000077
C37	C	-0.662752	-1.868416	-0.000076
C38	C	-0.626960	-1.734844	-0.000089
C39	C	-0.175576	-1.883510	-0.000002
C40	C	-0.116160	-1.885340	0.000021
C41	C	-0.103993	-1.616360	0.000011
C42	C	-0.163403	-1.614529	-0.000003
C43	C	-0.199194	-1.748116	-0.000015
O44	O	-0.252222	-1.497326	0.000018
O45	O	-0.274786	-1.994976	-0.000055
C46	C	0.190979	-1.729170	-0.000064
C47	C	0.254210	-1.731154	-0.000087
C48	C	0.084155	-2.011231	-0.000027
C49	C	0.086123	-2.174977	-0.000038
N50	N	0.086919	-1.741486	-0.425703
H51	H	-0.096935	-1.995617	0.000038
F52	F	-0.612493	-1.457261	-0.000088
F53	F	-0.213658	-2.025688	-0.000015
H54	H	-0.182633	-1.504263	0.000029
F55	F	-0.455723	-1.327442	-0.000125
F56	F	-0.370418	-2.155499	-0.000055
H57	H	-0.484092	-2.118297	-0.000059
F58	F	-0.637623	-2.012542	-0.000058
H59	H	-0.342046	-1.364656	-0.000113
H60	H	-0.751318	-1.975325	-0.000084
H61	H	-0.074840	-1.507618	0.000017
F62	F	-0.735120	-1.453463	-0.000066
