data_functionalizedCrystal
_audit_creation_method	'MofGen! by Chris Wilmer'
_symmetry_space_group_name_H-M	'P1'
_symmetry_Int_Tables_number	1
_symmetry_cell_setting	triclinic
loop_
_symmetry_equiv_pos_as_xyz
  x,y,z
_cell_length_a	12.645330
_cell_length_b	19.077105
_cell_length_c	19.076919
_cell_angle_alpha	89.923776
_cell_angle_beta	92.276250
_cell_angle_gamma	92.285767
loop_
_atom_site_label
_atom_site_type_symbol
_atom_site_fract_x
_atom_site_fract_y
_atom_site_fract_z
Zn1	Zn	-0.512860	-1.058309	-0.440444
Zn2	Zn	-0.683311	-1.062962	-0.322946
Zn3	Zn	-0.498659	-0.945526	-0.318237
Zn4	Zn	-0.682672	-0.940784	-0.435699
O5	O	-0.594376	-1.001896	-0.379332
O6	O	-0.541682	-1.157259	-0.428815
O7	O	-0.653141	-1.051316	-0.223990
O8	O	-0.352199	-0.960524	-0.334463
O9	O	-0.666911	-1.160677	-0.342490
O10	O	-0.362632	-1.043386	-0.424248
O11	O	-0.517478	-0.965036	-0.220530
O12	O	-0.516858	-0.846565	-0.329862
O13	O	-0.665822	-0.952442	-0.534660
O14	O	-0.652051	-0.843081	-0.416161
O15	O	-0.541062	-1.038788	-0.538146
O16	O	-0.831570	-1.046718	-0.337888
O17	O	-0.831101	-0.956954	-0.420727
C18	C	-0.582845	-0.819326	-0.371986
C19	C	-0.577939	-0.741222	-0.368860
C20	C	-0.869801	-1.001845	-0.379320
C21	C	-0.987635	-1.001886	-0.379341
C22	C	-0.604955	-0.994567	-0.562612
C23	C	-0.609463	-0.991444	-0.640716
C24	C	-1.154972	-0.945633	-0.431631
C25	C	-1.032385	-0.945363	-0.431445
C26	C	-1.026659	-0.984820	-0.304483
C27	C	-1.149256	-0.984477	-0.304800
C28	C	-1.160522	-1.075561	-0.401321
C29	C	-1.037980	-1.075039	-0.402922
C30	C	-0.317876	-1.001965	-0.379360
C31	C	-0.200049	-1.001995	-0.379372
C32	C	-0.605952	-1.185178	-0.386707
C33	C	-0.610885	-1.263281	-0.389850
C34	C	-0.646120	-0.702735	-0.412251
C35	C	-0.641496	-0.629348	-0.409318
C36	C	-0.568695	-0.594448	-0.362988
C37	C	-0.500507	-0.632940	-0.319594
C38	C	-0.505126	-0.706326	-0.322532
C39	C	-0.547316	-0.375159	-0.349394
C40	C	-0.542704	-0.301768	-0.346458
C41	C	-0.683692	-0.298181	-0.436183
C42	C	-0.688309	-0.371569	-0.439113
C43	C	-0.620117	-0.410054	-0.395722
N44	N	-0.563970	-0.519434	-0.359986
N45	N	-0.624839	-0.485066	-0.398728
C46	C	-0.546628	-1.034930	-0.679225
C47	C	-0.550859	-1.031987	-0.752611
C48	C	-0.617932	-0.985561	-0.787487
C49	C	-0.680769	-0.942070	-0.748972
C50	C	-0.676531	-0.945010	-0.675587
C51	C	-0.637565	-0.971944	-1.006769
C52	C	-0.641800	-0.969009	-1.080159
C53	C	-0.511889	-1.058925	-1.083793
C54	C	-0.507662	-1.061864	-1.010407
C55	C	-0.570495	-1.018371	-0.971898
N56	N	-0.622261	-0.982553	-0.862499
N57	N	-0.566159	-1.021376	-0.896887
C58	C	-0.583764	-1.009236	-0.196766
C59	C	-0.578966	-1.012495	-0.118668
H60	H	-1.006214	-0.955696	-0.486858
O61	O	-1.178344	-0.920478	-0.282924
C62	C	-1.270236	-0.855833	-0.197350
C63	C	-1.237350	-0.928354	-0.222034
H64	H	-1.317967	-0.862177	-0.148126
H65	H	-1.196421	-0.821038	-0.185160
H66	H	-1.320729	-0.830594	-0.240527
H67	H	-1.186882	-0.953654	-0.178887
H68	H	-1.311210	-0.963099	-0.234246
H69	H	-0.739209	-0.266839	-0.471510
O70	O	-0.758918	-0.405429	-0.484222
C71	C	-0.819012	-0.423084	-0.604588
C72	C	-0.738963	-0.384705	-0.553584
H73	H	-0.802921	-0.406332	-0.660677
H74	H	-0.810608	-0.482153	-0.599298
H75	H	-0.902826	-0.409143	-0.591537
H76	H	-0.655115	-0.398589	-0.566602
H77	H	-0.747459	-0.325646	-0.558883
H78	H	-0.697017	-0.598015	-0.444651
H79	H	-0.483409	-0.273354	-0.308735
H80	H	-0.449601	-0.737661	-0.287201
H81	H	-0.491797	-0.406485	-0.314057
O82	O	-1.008303	-1.090544	-0.468684
C83	C	-1.020173	-1.173798	-0.563829
C84	C	-1.053860	-1.156333	-0.489349
H85	H	-1.056973	-1.226995	-0.580554
H86	H	-1.048345	-1.131742	-0.601934
H87	H	-0.930188	-1.175603	-0.564118
H88	H	-1.143838	-1.154537	-0.488992
H89	H	-1.025610	-1.198393	-0.451276
H90	H	-1.007870	-1.119004	-0.367868
O91	O	-1.195445	-1.125694	-0.356063
C92	C	-1.298787	-1.233276	-0.341817
C93	C	-1.259285	-1.176565	-0.393151
H94	H	-1.350427	-1.274412	-0.371780
H95	H	-1.228048	-1.259339	-0.315437
H96	H	-1.347192	-1.208029	-0.300214
H97	H	-1.210898	-1.201758	-0.434794
H98	H	-1.330070	-1.150508	-0.419478
H99	H	-0.492014	-1.072737	-0.650835
H100	H	-0.460732	-1.094334	-1.115154
H101	H	-0.441227	-0.604518	-0.281874
O102	O	-0.442553	-1.106915	-0.976420
C103	C	-0.378307	-1.151199	-0.864974
C104	C	-0.452131	-1.100174	-0.903376
H105	H	-0.386009	-1.145756	-0.805912
H106	H	-0.401279	-1.207309	-0.881613
H107	H	-0.292915	-1.138272	-0.878976
H108	H	-0.537545	-1.113037	-0.889394
H109	H	-0.429069	-1.044079	-0.886735
H110	H	-0.991707	-0.931710	-0.285967
O111	O	-0.706980	-0.923845	-1.113927
C112	C	-0.835431	-0.834998	-1.102583
C113	C	-0.761646	-0.886096	-1.064252
H114	H	-0.879665	-0.804475	-1.062439
H115	H	-0.786469	-0.796850	-1.135448
H116	H	-0.894840	-0.865882	-1.138251
H117	H	-0.702224	-0.855270	-1.028549
H118	H	-0.810677	-0.924244	-1.031432
H119	H	-0.998945	-0.890765	-0.416668
O120	O	-0.698660	-0.929796	-0.969302
C121	C	-0.836463	-0.923603	-0.886098
C122	C	-0.767319	-0.971422	-0.928475
H123	H	-0.892006	-0.957238	-0.853091
H124	H	-0.783550	-0.888255	-0.850222
H125	H	-0.885073	-0.889908	-0.923654
H126	H	-0.718699	-1.005160	-0.890972
H127	H	-0.820291	-1.006722	-0.964360
H128	H	-0.499695	-1.067399	-0.783962
H129	H	-1.178854	-1.023908	-0.264375
H130	H	-0.735377	-0.904267	-0.777373
H131	H	-0.727687	-0.909592	-0.644233
O132	O	-0.992057	-1.032467	-0.256612
C133	C	-1.040415	-1.120772	-0.171995
C134	C	-1.079734	-1.066835	-0.226188
H135	H	-1.111281	-1.148563	-0.147371
H136	H	-0.991639	-1.160968	-0.199087
H137	H	-0.989202	-1.092675	-0.129367
H138	H	-1.130989	-1.094872	-0.268831
H139	H	-1.128453	-1.026642	-0.199045
O140	O	-0.716869	-0.736523	-0.457319
C141	C	-0.856257	-0.725212	-0.545979
C142	C	-0.776169	-0.686862	-0.494980
H143	H	-0.904237	-0.685079	-0.576430
H144	H	-0.812012	-0.758092	-0.584197
H145	H	-0.911866	-0.760866	-0.515022
H146	H	-0.720539	-0.651172	-0.525879
H147	H	-0.820483	-0.654026	-0.456761
O148	O	-1.194645	-0.957852	-0.497983
C149	C	-1.155932	-0.983091	-0.617798
C150	C	-1.110853	-0.969277	-0.542682
H151	H	-1.088207	-0.992318	-0.653961
H152	H	-1.211972	-1.031415	-0.618040
H153	H	-1.200998	-0.935713	-0.637011
H154	H	-1.065737	-1.016614	-0.523423
H155	H	-1.054869	-0.920928	-0.542484
O156	O	-1.187031	-0.880947	-0.414198
C157	C	-1.334769	-0.807476	-0.397968
C158	C	-1.298607	-0.880767	-0.417712
H159	H	-1.424980	-0.807302	-0.400816
H160	H	-1.304460	-0.793859	-0.342373
H161	H	-1.301625	-0.766991	-0.436149
H162	H	-1.331737	-0.921300	-0.379579
H163	H	-1.328902	-0.894324	-0.473323
H164	H	-1.195605	-1.091711	-0.455137
