data_functionalizedCrystal
_audit_creation_method	'MofGen! by Chris Wilmer'
_symmetry_space_group_name_H-M	'P1'
_symmetry_Int_Tables_number	1
_symmetry_cell_setting	triclinic
loop_
_symmetry_equiv_pos_as_xyz
  x,y,z
_cell_length_a	14.908742
_cell_length_b	12.594516
_cell_length_c	14.908308
_cell_angle_alpha	86.728502
_cell_angle_beta	83.239341
_cell_angle_gamma	86.722363
loop_
_atom_site_label
_atom_site_type_symbol
_atom_site_fract_x
_atom_site_fract_y
_atom_site_fract_z
Zn1	Zn	1.354260	-0.545267	0.431806
Zn2	Zn	1.362907	-0.713557	0.280462
Zn3	Zn	1.211633	-0.525896	0.289212
Zn4	Zn	1.202880	-0.713497	0.440525
O5	O	1.282920	-0.624554	0.360501
O6	O	1.482068	-0.575722	0.404418
O7	O	1.350123	-0.680582	0.154959
O8	O	1.230597	-0.379524	0.308140
O9	O	1.488422	-0.699365	0.293227
O10	O	1.335384	-0.393755	0.412903
O11	O	1.238982	-0.542708	0.161388
O12	O	1.083810	-0.542650	0.316595
O13	O	1.215678	-0.699263	0.566031
O14	O	1.077379	-0.680480	0.427764
O15	O	1.326896	-0.575664	0.559625
O16	O	1.341635	-0.862491	0.301682
O17	O	1.224063	-0.862447	0.419279
C18	C	1.047753	-0.609457	0.374076
C19	C	0.947146	-0.603026	0.379904
C20	C	0.802028	-0.529713	0.446094
C21	C	0.896557	-0.535747	0.440622
C22	C	0.903199	-0.664277	0.324656
C23	C	0.808670	-0.658243	0.330128
C24	C	0.758088	-0.590957	0.390848
C25	C	0.663558	-0.584918	0.396315
C26	C	0.670201	-0.713454	0.280354
C27	C	0.764730	-0.719488	0.274882
C28	C	1.282861	-0.901091	0.360496
C29	C	1.282917	-1.019402	0.360519
C30	C	1.218966	-1.088666	0.424438
C31	C	1.201683	-1.152817	0.343119
C32	C	1.300282	-1.166056	0.441847
C33	C	1.265592	-1.081989	0.279159
C34	C	1.364227	-1.095227	0.377940
C35	C	1.346978	-1.159345	0.296562
C36	C	1.519005	-0.639711	0.346874
C37	C	1.619611	-0.646170	0.341067
C38	C	1.269346	-0.639617	0.596589
C39	C	1.263562	-0.646037	0.697196
C40	C	1.283002	-0.346941	0.360525
C41	C	1.283038	-0.228638	0.360535
C42	C	1.296493	-0.609476	0.125328
C43	C	1.302452	-0.602769	0.024712
C44	C	1.368501	-0.529371	0.879577
C45	C	1.363069	-0.535398	0.974106
C46	C	1.247262	-0.664113	0.980784
C47	C	1.252694	-0.658086	0.886255
C48	C	1.313317	-0.590713	0.835655
C49	C	1.318753	-0.584692	0.741124
C50	C	1.202941	-0.713400	0.747804
C51	C	1.197509	-0.719428	0.842333
H52	H	0.760844	-0.474915	0.495527
H53	H	0.805926	-0.774273	0.225447
O54	O	1.181872	-0.736757	1.035375
H55	H	1.198402	-0.820137	1.016341
O56	O	0.943955	-0.469681	0.500199
H57	H	0.892898	-0.421874	0.543332
H58	H	1.148150	-0.774279	0.883544
O59	O	0.957761	-0.736842	0.259166
H60	H	1.030874	-0.730741	0.264642
H61	H	1.164798	-1.057623	0.478423
O62	O	1.319683	-1.214673	0.532940
H63	H	1.266447	-1.186347	0.585861
H64	H	0.634415	-0.763326	0.235370
O65	O	1.110674	-1.186620	0.323591
H66	H	1.057652	-1.158332	0.376731
O67	O	1.418691	-1.200194	0.224898
H68	H	1.418630	-1.288373	0.225796
H69	H	1.250873	-1.045407	0.210372
O70	O	1.455323	-1.061630	0.397378
H71	H	1.469574	-1.095520	0.464913
O72	O	1.143398	-0.779525	0.700411
H73	H	1.071328	-0.757846	0.722665
H74	H	1.368116	-0.529835	0.699927
O75	O	1.433889	-0.456720	0.824990
H76	H	1.417347	-0.373343	0.844024
O77	O	0.608995	-0.512354	0.461805
H78	H	0.655434	-0.470790	0.499308
O79	O	1.422594	-0.469244	1.021484
H80	H	1.465664	-0.421393	0.970414
