data_functionalizedCrystal
_audit_creation_method	'MofGen! by Chris Wilmer'
_symmetry_space_group_name_H-M	'P1'
_symmetry_Int_Tables_number	1
_symmetry_cell_setting	triclinic
loop_
_symmetry_equiv_pos_as_xyz
  x,y,z
_cell_length_a	14.971486
_cell_length_b	14.971494
_cell_length_c	14.048226
_cell_angle_alpha	89.995286
_cell_angle_beta	89.998499
_cell_angle_gamma	83.615843
loop_
_atom_site_label
_atom_site_type_symbol
_atom_site_fract_x
_atom_site_fract_y
_atom_site_fract_z
O1	O	1.186951	0.116564	-0.079047
O2	O	1.686951	0.616564	0.420953
O3	O	0.926551	0.130523	-0.079073
O4	O	1.426551	0.630523	0.420927
O5	O	1.063726	-0.006656	-0.079057
O6	O	1.563726	0.493344	0.420943
O7	O	1.049775	0.253743	-0.079063
O8	O	1.549775	0.753743	0.420937
O9	O	1.063710	-0.006664	0.079264
O10	O	1.563710	0.493336	0.579264
O11	O	0.926534	0.130515	0.079248
O12	O	1.426534	0.630515	0.579248
O13	O	1.186934	0.116556	0.079274
O14	O	1.686934	0.616556	0.579274
Zn15	Zn	1.056732	0.123534	0.104398
Zn16	Zn	1.556732	0.623534	0.604398
Zn17	Zn	1.056753	0.123545	-0.104197
Zn18	Zn	1.556753	0.623545	0.395803
O19	O	1.049759	0.253735	0.079258
O20	O	1.549759	0.753735	0.579258
C21	C	0.893218	0.129895	0.000084
C22	C	1.393218	0.629895	0.500084
C23	C	0.793921	0.128024	0.000075
C24	C	1.293921	0.628024	0.500075
C25	C	1.063093	-0.039985	0.000102
C26	C	1.563093	0.460015	0.500102
C27	C	1.061219	-0.139281	0.000097
C28	C	1.561219	0.360719	0.500097
C29	C	0.736698	0.208613	0.000074
C30	C	1.236698	0.708613	0.500074
C31	C	0.643398	0.206850	0.000088
C32	C	1.143398	0.706850	0.500088
C33	C	0.607323	0.124497	0.000096
C34	C	1.107323	0.624497	0.500096
C35	C	0.664554	0.043902	0.000100
C36	C	1.164554	0.543902	0.500100
C37	C	0.757851	0.045666	0.000092
C38	C	1.257851	0.545666	0.500092
C39	C	0.470091	0.040231	0.000113
C40	C	0.970091	0.540231	0.500113
C41	C	0.376787	0.038466	0.000118
C42	C	0.876787	0.538466	0.500118
C43	C	0.355638	0.201415	0.000109
C44	C	0.855638	0.701415	0.500109
C45	C	0.448936	0.203179	0.000102
C46	C	0.948936	0.703179	0.500102
C47	C	0.506160	0.122583	0.000103
C48	C	1.006160	0.622583	0.500103
C49	C	1.060350	-0.185922	-0.086205
C50	C	1.560350	0.314078	0.413795
C51	C	1.058583	-0.279221	-0.086206
C52	C	1.558583	0.220779	0.413794
C53	C	1.057693	-0.325879	0.000096
C54	C	1.557693	0.174121	0.500096
C55	C	1.058559	-0.279231	0.086404
C56	C	1.558559	0.220769	0.586404
C57	C	1.060319	-0.185933	0.086405
C58	C	1.560319	0.314067	0.586405
C59	C	1.054893	-0.473695	0.086398
C60	C	1.554893	0.026305	0.586398
C61	C	1.053135	-0.566999	0.086398
C62	C	1.553135	-0.066999	0.586398
C63	C	1.053158	-0.566982	-0.086213
C64	C	1.553158	-0.066982	0.413787
C65	C	1.054917	-0.473684	-0.086213
C66	C	1.554917	0.026316	0.413787
C67	C	1.055786	-0.427043	0.000096
C68	C	1.555786	0.072957	0.500096
C69	C	1.220267	0.117184	0.000114
C70	C	1.720267	0.617184	0.500114
C71	C	1.319564	0.119055	0.000118
C72	C	1.819564	0.619055	0.500118
C73	C	1.050392	0.287064	0.000097
C74	C	1.550392	0.787064	0.500097
C75	C	1.052266	0.386360	0.000095
C76	C	1.552266	0.886360	0.500095
N77	N	1.056723	0.123526	0.246759
N78	N	1.556723	0.623526	0.746759
N79	N	1.056769	0.123546	-0.246558
N80	N	1.556769	0.623546	0.253442
C81	C	1.117484	0.062809	0.296584
C82	C	1.617484	0.562809	0.796584
C83	C	1.117490	0.062808	0.396241
C84	C	1.617490	0.562808	0.896241
C85	C	1.056739	0.123530	0.446072
C86	C	1.556739	0.623530	0.946072
C87	C	0.995972	0.184251	0.396240
C88	C	1.495972	0.684251	0.896240
C89	C	0.995962	0.184246	0.296584
C90	C	1.495962	0.684246	0.796584
C91	C	0.995998	0.184257	0.603955
C92	C	1.495998	0.684257	1.103955
C93	C	0.996008	0.184263	0.703617
C94	C	1.496008	0.684263	1.203617
C95	C	1.117525	0.062819	0.703611
C96	C	1.617525	0.562819	1.203611
C97	C	1.117515	0.062815	0.603956
C98	C	1.617515	0.562815	1.103956
C99	C	1.056749	0.123537	0.554131
C100	C	1.556749	0.623537	1.054131
H101	H	0.766062	0.275674	0.000067
H102	H	1.266062	0.775674	0.500067
F103	F	0.818752	-0.040108	0.000096
F104	F	1.318752	0.459892	0.500096
F105	F	1.061304	-0.136274	-0.178061
F106	F	1.561304	0.363726	0.321939
H107	H	1.057879	-0.317192	-0.156482
H108	H	1.557879	0.182808	0.343518
F109	F	1.061243	-0.136295	0.178259
F110	F	1.561243	0.363705	0.678259
H111	H	1.052449	-0.604961	-0.156489
H112	H	1.552449	-0.104961	0.343511
F113	F	1.182148	-0.001817	0.243559
F114	F	1.682148	0.498183	0.743559
F115	F	1.055819	-0.424059	0.178258
F116	F	1.555819	0.075941	0.678258
H117	H	0.596810	0.272473	0.000087
H118	H	1.096810	0.772473	0.500087
H119	H	1.057829	-0.317227	0.156673
H120	H	1.557829	0.182773	0.656673
F121	F	0.530991	-0.045549	0.000117
F122	F	1.030991	0.454451	0.500117
H123	H	1.166965	0.013367	0.436808
H124	H	1.666965	0.513367	0.936808
H125	H	1.055649	-0.435698	-0.156488
H126	H	1.555649	0.064302	0.343512
F127	F	0.931290	0.248868	0.243558
F128	F	1.431290	0.748868	0.743558
F129	F	1.052188	-0.616655	0.178249
F130	F	1.552188	-0.116655	0.678249
F131	F	0.931347	0.248891	0.756644
F132	F	1.431347	0.748891	1.256644
H133	H	1.166987	0.013375	0.563383
H134	H	1.666987	0.513375	1.063383
H135	H	0.946513	0.233701	0.563390
H136	H	1.446513	0.733701	1.063390
H137	H	0.946503	0.233689	0.436818
H138	H	1.446503	0.733689	0.936818
F139	F	0.487327	0.290828	0.000084
F140	F	0.987327	0.790828	0.500084
F141	F	0.294735	0.287191	0.000109
F142	F	0.794735	0.787191	0.500109
F143	F	0.626158	-0.043745	0.000114
F144	F	1.126158	0.456255	0.500114
F145	F	1.182197	-0.001804	0.756643
F146	F	1.682197	0.498196	1.256643
F147	F	0.338396	-0.049183	0.000151
F148	F	0.838396	0.450817	0.500151
