data_functionalizedCrystal
_audit_creation_method	'MofGen! by Chris Wilmer'
_symmetry_space_group_name_H-M	'P1'
_symmetry_Int_Tables_number	1
_symmetry_cell_setting	triclinic
loop_
_symmetry_equiv_pos_as_xyz
  x,y,z
_cell_length_a	21.295417
_cell_length_b	12.759401
_cell_length_c	21.295412
_cell_angle_alpha	90.016179
_cell_angle_beta	89.968813
_cell_angle_gamma	89.968672
loop_
_atom_site_label
_atom_site_type_symbol
_atom_site_fract_x
_atom_site_fract_y
_atom_site_fract_z
Zn1	Zn	-0.250608	-1.606085	-0.355907
Zn2	Zn	0.249392	-1.106085	0.144093
Zn3	Zn	-0.355877	-1.605947	-0.250632
Zn4	Zn	0.144123	-1.105947	0.249368
Zn5	Zn	-0.250627	-1.430404	-0.250652
Zn6	Zn	0.249373	-0.930404	0.249348
Zn7	Zn	-0.355845	-1.430328	-0.355865
Zn8	Zn	0.144155	-0.930328	0.144135
O9	O	-0.303239	-1.518191	-0.303264
O10	O	0.196761	-1.018191	0.196736
O11	O	-0.264578	-1.753088	-0.341951
O12	O	0.235422	-1.253088	0.158049
O13	O	-0.341937	-1.582635	-0.162546
O14	O	0.158063	-1.082635	0.337454
O15	O	-0.162535	-1.453798	-0.264641
O16	O	0.337465	-0.953798	0.235359
O17	O	-0.341919	-1.752987	-0.264607
O18	O	0.158081	-1.252987	0.235393
O19	O	-0.162521	-1.582870	-0.341971
O20	O	0.337479	-1.082870	0.158029
O21	O	-0.264611	-1.453664	-0.162560
O22	O	0.235389	-0.953664	0.337440
O23	O	-0.264579	-1.283372	-0.264600
O24	O	0.235421	-0.783372	0.235400
O25	O	-0.341863	-1.453668	-0.443960
O26	O	0.158137	-0.953668	0.056040
O27	O	-0.341882	-1.283317	-0.341899
O28	O	0.158118	-0.783317	0.158101
O29	O	-0.264546	-1.582797	-0.443991
O30	O	0.235454	-1.082797	0.056009
O31	O	-0.443962	-1.582562	-0.264565
O32	O	0.056038	-1.082562	0.235435
O33	O	-0.443938	-1.453534	-0.341879
O34	O	0.056062	-0.953534	0.158121
C35	C	-0.303230	-1.245224	-0.303247
C36	C	0.196770	-0.745224	0.196753
C37	C	-0.303241	-1.128447	-0.303255
C38	C	0.196759	-0.628447	0.196745
C39	C	-0.343553	-1.073583	-0.343440
C40	C	0.156447	-0.573583	0.156560
C41	C	-0.343555	-0.963859	-0.343451
C42	C	0.156445	-0.463859	0.156549
C43	C	-0.262930	-0.963872	-0.263086
C44	C	0.237070	-0.463872	0.236914
C45	C	-0.262925	-1.073594	-0.263078
C46	C	0.237075	-0.573594	0.236922
C47	C	-0.366150	-0.813939	-0.417658
C48	C	0.133850	-0.313939	0.082342
C49	C	-0.406472	-0.759072	-0.457837
C50	C	0.093528	-0.259072	0.042163
C51	C	-0.467906	-0.794640	-0.467385
C52	C	0.032094	-0.294640	0.032615
C53	C	-0.489030	-0.885073	-0.436744
C54	C	0.010970	-0.385073	0.063256
C55	C	-0.448712	-0.939935	-0.396560
C56	C	0.051288	-0.439935	0.103440
C57	C	-0.387269	-0.904368	-0.387024
C58	C	0.112731	-0.404368	0.112976
C59	C	-0.240337	-1.223516	-0.188871
C60	C	0.259663	-0.723516	0.311129
C61	C	-0.200020	-1.278380	-0.148683
C62	C	0.299980	-0.778380	0.351317
C63	C	-0.138585	-1.242814	-0.139128
C64	C	0.361415	-0.742814	0.360872
C65	C	-0.117463	-1.152378	-0.169758
C66	C	0.382537	-0.652378	0.330242
C67	C	-0.157779	-1.097514	-0.209946
C68	C	0.342221	-0.597514	0.290054
C69	C	-0.219214	-1.133087	-0.219502
C70	C	0.280786	-0.633087	0.280498
C71	C	-0.466791	-1.518053	-0.303229
C72	C	0.033209	-1.018053	0.196771
C73	C	-0.536759	-1.518090	-0.303235
C74	C	-0.036759	-1.018090	0.196765
C75	C	-0.569617	-1.585335	-0.263019
C76	C	-0.069617	-1.085335	0.236981
C77	C	-0.635360	-1.585384	-0.263034
C78	C	-0.135360	-1.085384	0.236966
C79	C	-0.668242	-1.518170	-0.303257
C80	C	-0.168242	-1.018170	0.196743
C81	C	-0.635375	-1.450921	-0.343481
C82	C	-0.135375	-0.950921	0.156519
C83	C	-0.569634	-1.450881	-0.343470
C84	C	-0.069634	-0.950881	0.156530
N85	N	-0.771508	-1.426262	-0.308050
N86	N	-0.271508	-0.926262	0.191950
N87	N	-0.833960	-1.426303	-0.308057
N88	N	-0.333960	-0.926303	0.191943
C89	C	-0.866316	-1.518288	-0.303293
C90	C	-0.366316	-1.018288	0.196707
N91	N	-0.833862	-1.610232	-0.298510
N92	N	-0.333862	-1.110232	0.201490
N93	N	-0.771405	-1.610190	-0.298500
N94	N	-0.271405	-1.110190	0.201500
C95	C	-0.739527	-1.518206	-0.303274
C96	C	-0.239527	-1.018206	0.196726
C97	C	-0.970460	-1.585591	-0.263090
C98	C	-0.470460	-1.085591	0.236910
C99	C	-1.036204	-1.585642	-0.263109
C100	C	-0.536204	-1.085642	0.236891
C101	C	-1.036218	-1.451170	-0.343553
C102	C	-0.536218	-0.951170	0.156447
C103	C	-0.970476	-1.451129	-0.343538
C104	C	-0.470476	-0.951129	0.156462
C105	C	-0.937600	-1.518338	-0.303303
C106	C	-0.437600	-1.018338	0.196697
C107	C	-0.139049	-1.518358	-0.303313
C108	C	0.360951	-1.018358	0.196687
C109	C	-0.069081	-1.518429	-0.303334
C110	C	0.430919	-1.018429	0.196666
C111	C	-0.303199	-1.518239	-0.467454
C112	C	0.196801	-1.018239	0.032546
C113	C	-0.303181	-1.518260	-0.537423
C114	C	0.196819	-1.018260	-0.037423
C115	C	-0.303248	-0.792224	-0.303277
C116	C	0.196752	-0.292224	0.196723
C117	C	-0.303246	-0.909001	-0.303273
C118	C	0.196754	-0.409001	0.196727
C119	C	-0.262823	-1.585597	-1.036898
C120	C	0.237177	-1.085597	-0.536898
C121	C	-0.262838	-1.585589	-0.971155
C122	C	0.237162	-1.085589	-0.471155
C123	C	-0.303098	-1.518351	-0.938262
C124	C	0.196902	-1.018351	-0.438262
C125	C	-0.343358	-1.451136	-0.971117
C126	C	0.156642	-0.951136	-0.471117
C127	C	-0.343346	-1.451153	-1.036858
C128	C	0.156654	-0.951153	-0.536858
N129	N	-0.307943	-1.426354	-0.835034
N130	N	0.192057	-0.926354	-0.335034
N131	N	-0.307950	-1.426340	-0.772582
N132	N	0.192050	-0.926340	-0.272582
C133	C	-0.303138	-1.518296	-0.740187
C134	C	0.196862	-1.018296	-0.240187
N135	N	-0.298304	-1.610268	-0.772603
N136	N	0.201696	-1.110268	-0.272603
N137	N	-0.298294	-1.610280	-0.835060
N138	N	0.201706	-1.110280	-0.335060
C139	C	-0.303116	-1.518325	-0.866977
C140	C	0.196884	-1.018325	-0.366977
C141	C	-0.262900	-1.585503	-0.636055
C142	C	0.237100	-1.085503	-0.136055
C143	C	-0.262920	-1.585497	-0.570311
C144	C	0.237080	-1.085497	-0.070311
C145	C	-0.343436	-1.451035	-0.570274
C146	C	0.156564	-0.951035	-0.070274
C147	C	-0.343420	-1.451050	-0.636016
C148	C	0.156580	-0.951050	-0.136016
C149	C	-0.303149	-1.518283	-0.668903
C150	C	0.196851	-1.018283	-0.168903
C151	C	-0.303234	-1.518203	-0.139713
C152	C	0.196766	-1.018203	0.360287
C153	C	-0.303074	-1.518386	-0.069745
C154	C	0.196926	-1.018386	0.430255
H155	H	-0.500736	-0.749959	-0.500101
H156	H	-0.000736	-0.249959	-0.000101
H157	H	-0.376139	-1.396392	-0.944331
H158	H	0.123861	-0.896392	-0.444331
H159	H	-0.316123	-0.784979	-0.409894
H160	H	0.183877	-0.284979	0.090106
H161	H	-0.542852	-1.640063	-0.230260
H162	H	-0.042852	-1.140063	0.269740
H163	H	-0.542880	-1.396122	-0.376219
H164	H	-0.042880	-0.896122	0.123781
H165	H	-0.376125	-1.396420	-1.063602
H166	H	0.123875	-0.896420	-0.563602
H167	H	-0.230033	-1.640348	-1.063670
H168	H	0.269967	-1.140348	-0.563670
H169	H	-0.389267	-0.685442	-0.482786
H170	H	0.110733	-0.185442	0.017214
H171	H	-0.662152	-1.396197	-0.376232
H172	H	-0.162152	-0.896197	0.123768
H173	H	-0.230107	-0.919198	-0.230374
H174	H	0.269893	-0.419198	0.269626
H175	H	-0.140575	-1.023881	-0.234891
H176	H	0.359425	-0.523881	0.265109
H177	H	-0.230109	-1.640248	-0.662833
H178	H	0.269891	-1.140248	-0.162833
H179	H	-0.230144	-1.640236	-0.543568
H180	H	0.269856	-1.140236	-0.043568
H181	H	-0.662118	-1.640146	-0.230285
H182	H	-0.162118	-1.140146	0.269715
H183	H	-0.376379	-1.118241	-0.376156
H184	H	0.123621	-0.618241	0.123844
H185	H	-0.376219	-1.396292	-0.543493
H186	H	0.123781	-0.896292	-0.043493
H187	H	-0.943692	-1.640320	-0.230331
H188	H	-0.443692	-1.140320	0.269669
H189	H	-0.376195	-1.396316	-0.662761
H190	H	0.123805	-0.896316	-0.162761
H191	H	-1.062956	-1.640407	-0.230362
H192	H	-0.562956	-1.140407	0.269638
H193	H	-0.539059	-0.914018	-0.444516
H194	H	-0.039059	-0.414018	0.055484
H195	H	-0.465911	-1.013563	-0.371612
H196	H	0.034089	-0.513563	0.128388
H197	H	-0.943721	-1.396368	-0.376283
H198	H	-0.443721	-0.896368	0.123717
H199	H	-0.067442	-1.123407	-0.161969
H200	H	0.432558	-0.623407	0.338031
H201	H	-0.105762	-1.287489	-0.106398
H202	H	0.394238	-0.787489	0.393602
H203	H	-0.290360	-1.252489	-0.196652
H204	H	0.209640	-0.752489	0.303348
H205	H	-0.217224	-1.352018	-0.123742
H206	H	0.282776	-0.852018	0.376258
H207	H	-1.062990	-1.396448	-0.376307
H208	H	-0.562990	-0.896448	0.123693
H209	H	-0.230058	-1.640319	-0.944406
H210	H	0.269942	-1.140319	-0.444406
