data_functionalizedCrystal
_audit_creation_method	'MofGen! by Chris Wilmer'
_symmetry_space_group_name_H-M	'P1'
_symmetry_Int_Tables_number	1
_symmetry_cell_setting	triclinic
loop_
_symmetry_equiv_pos_as_xyz
  x,y,z
_cell_length_a	23.532355
_cell_length_b	14.044220
_cell_length_c	13.101039
_cell_angle_alpha	93.667477
_cell_angle_beta	86.670091
_cell_angle_gamma	88.008188
loop_
_atom_site_label
_atom_site_type_symbol
_atom_site_fract_x
_atom_site_fract_y
_atom_site_fract_z
O1	O	0.764361	0.109522	-0.085076
O2	O	0.599399	0.126212	-0.085109
O3	O	0.679404	-0.020092	-0.085083
O4	O	0.684356	0.255827	-0.085102
O5	O	0.673664	-0.009578	0.085345
O6	O	0.593660	0.136727	0.085319
O7	O	0.758622	0.120037	0.085352
Zn8	Zn	0.675229	0.130051	0.112394
Zn9	Zn	0.682791	0.116198	-0.112152
O10	O	0.678617	0.266342	0.085325
C11	C	0.674366	-0.050129	0.000131
C12	C	0.667900	-0.155291	0.000131
C13	C	0.575290	0.131052	0.000101
C14	C	0.512004	0.129797	0.000088
C15	C	0.656080	-0.347839	0.000114
C16	C	0.701939	-0.405918	0.000120
C17	C	0.695362	-0.513058	0.000110
C18	C	0.662656	-0.240689	0.000123
C19	C	0.116433	0.127649	0.093032
C20	C	0.056969	0.126456	0.093036
O21	O	0.023554	0.130681	0.172043
N22	N	0.030357	0.120133	0.000136
C23	C	0.063213	0.114993	-0.092774
O24	O	0.035117	0.109504	-0.171792
C25	C	0.122676	0.116179	-0.092777
C26	C	0.149284	0.122512	0.000129
C27	C	0.143042	0.133981	0.185931
C28	C	0.202502	0.135176	0.185926
C29	C	0.235353	0.130039	0.093023
C30	C	0.208745	0.123707	0.000125
C31	C	0.155531	0.111033	-0.185686
C32	C	0.214998	0.112219	-0.185681
C33	C	0.241606	0.118552	-0.092775
C34	C	0.301056	0.119766	-0.092783
N35	N	0.327668	0.126089	0.000117
C36	C	0.294817	0.131226	0.093020
C37	C	-0.061664	0.112500	-0.092760
C38	C	-0.121127	0.111320	-0.092759
C39	C	-0.127366	0.122782	0.093052
C40	C	-0.067903	0.123968	0.093049
C41	C	-0.035052	0.118823	0.000139
C42	C	0.419687	0.133735	0.093004
C43	C	0.479153	0.134934	0.092991
C44	C	0.485387	0.123467	-0.092818
C45	C	0.425927	0.122274	-0.092806
C46	C	0.393078	0.127405	0.000113
O47	O	0.334507	0.115540	-0.171749
O48	O	0.322921	0.136701	0.172025
C49	C	0.782730	0.115197	0.000139
C50	C	0.846017	0.116452	0.000145
C51	C	0.683655	0.296378	0.000109
C52	C	0.690121	0.401540	0.000103
N53	N	0.670073	0.139505	0.265641
N54	N	0.687952	0.106737	-0.265399
C55	C	0.663057	0.152376	0.474681
C56	C	0.694966	0.093869	0.525567
C57	C	0.691062	0.101030	0.641885
C58	C	0.666960	0.145216	0.358354
H59	H	0.746142	-0.375180	0.000060
H60	H	0.611882	-0.378579	0.000102
H61	H	0.116300	0.138162	0.261587
Cl62	Cl	0.616359	0.238014	0.542287
Cl63	Cl	0.512600	0.142899	0.209796
Cl64	Cl	0.741904	0.008590	0.457961
H65	H	0.512145	0.119289	-0.168458
H66	H	0.224161	0.140327	0.261580
Cl67	Cl	-0.034459	0.131927	0.209849
Cl68	Cl	0.378401	0.140186	0.209819
H69	H	-0.154125	0.126962	0.168698
Cl70	Cl	-0.154571	0.103377	-0.209560
H71	H	-0.034921	0.108319	-0.168423
Cl72	Cl	0.122095	0.103067	-0.302490
Cl73	Cl	0.256292	0.105748	-0.302489
H74	H	0.404261	0.117132	-0.168458
