data_functionalizedCrystal
_audit_creation_method	'MofGen! by Chris Wilmer'
_symmetry_space_group_name_H-M	'P1'
_symmetry_Int_Tables_number	1
_symmetry_cell_setting	triclinic
loop_
_symmetry_equiv_pos_as_xyz
  x,y,z
_cell_length_a	27.731994
_cell_length_b	26.809956
_cell_length_c	27.732064
_cell_angle_alpha	89.991600
_cell_angle_beta	82.634978
_cell_angle_gamma	90.002666
loop_
_atom_site_label
_atom_site_type_symbol
_atom_site_fract_x
_atom_site_fract_y
_atom_site_fract_z
O1	O	0.640952	0.041404	0.057385
O2	O	1.140952	0.541404	0.557385
O3	O	0.500155	0.041420	0.066158
O4	O	1.000155	0.541420	0.566158
O5	O	0.574922	0.041414	-0.008626
O6	O	1.074922	0.541414	0.491374
O7	O	0.566185	0.041411	0.132168
O8	O	1.066185	0.541411	0.632168
O9	O	0.574908	-0.041545	-0.008614
O10	O	1.074908	0.458455	0.491386
O11	O	0.500141	-0.041539	0.066169
O12	O	1.000141	0.458461	0.566169
O13	O	0.640938	-0.041555	0.057396
O14	O	1.140938	0.458445	0.557396
Zn15	Zn	0.570537	-0.054718	0.061785
Zn16	Zn	1.070537	0.445282	0.561785
Zn17	Zn	0.570556	0.054584	0.061770
Zn18	Zn	1.070556	0.554584	0.561770
O19	O	0.566171	-0.041548	0.132180
O20	O	1.066171	0.458452	0.632180
C21	C	0.482140	-0.000057	0.065983
C22	C	0.982140	0.499943	0.565983
C23	C	0.428484	-0.000051	0.065441
C24	C	0.928484	0.499949	0.565441
C25	C	0.095758	-0.045291	0.062032
C26	C	0.595758	0.454709	0.562032
C27	C	-0.105900	-0.045297	0.059970
C28	C	0.394100	0.454703	0.559970
O29	O	-0.131980	-0.083755	0.059688
O30	O	0.368020	0.416245	0.559688
N31	N	-0.131108	-0.000076	0.059708
N32	N	0.368892	0.499924	0.559708
C33	C	-0.105897	0.045150	0.059958
C34	C	0.394103	0.545150	0.559958
O35	O	-0.131963	0.083613	0.059682
O36	O	0.368037	0.583613	0.559682
C37	C	0.095761	0.045155	0.062016
C38	C	0.595761	0.545155	0.562016
C39	C	0.120965	-0.000069	0.062283
C40	C	0.620965	0.499931	0.562283
C41	C	0.120962	-0.090511	0.062298
C42	C	0.620962	0.409489	0.562298
C43	C	0.171373	-0.090510	0.062816
C44	C	0.671373	0.409490	0.562816
C45	C	0.196580	-0.045287	0.063068
C46	C	0.696580	0.454713	0.563068
C47	C	0.171376	-0.000067	0.062801
C48	C	0.671376	0.499933	0.562801
C49	C	0.120972	0.090380	0.062262
C50	C	0.620972	0.590380	0.562262
C51	C	0.171389	0.090377	0.062776
C52	C	0.671389	0.590377	0.562776
C53	C	0.196593	0.045153	0.063043
C54	C	0.696593	0.545153	0.563043
C55	C	0.246995	0.045157	0.063570
C56	C	0.746995	0.545157	0.563570
N57	N	0.272202	-0.000064	0.063833
N58	N	0.772202	0.499936	0.563833
C59	C	0.246994	-0.045286	0.063581
C60	C	0.746994	0.454714	0.563581
C61	C	-0.211770	0.045144	0.058878
C62	C	0.288230	0.545144	0.558878
C63	C	-0.262184	0.045143	0.058364
C64	C	0.237816	0.545143	0.558364
C65	C	-0.262185	-0.045304	0.058376
C66	C	0.237815	0.454696	0.558376
C67	C	-0.211770	-0.045302	0.058893
C68	C	0.288230	0.454698	0.558893
C69	C	-0.186563	-0.000077	0.059140
C70	C	0.313437	0.499923	0.559140
C71	C	0.352862	-0.045279	0.064670
C72	C	0.852862	0.454721	0.564670
C73	C	0.403277	-0.045273	0.065190
C74	C	0.903277	0.454727	0.565190
C75	C	0.403273	0.045174	0.065176
C76	C	0.903273	0.545174	0.565176
C77	C	0.352862	0.045168	0.064658
C78	C	0.852862	0.545168	0.564658
C79	C	0.327657	-0.000062	0.064403
C80	C	0.827657	0.499938	0.564403
O81	O	0.273105	0.083595	0.063847
O82	O	0.773105	0.583595	0.563847
O83	O	0.273071	-0.083744	0.063846
O84	O	0.773071	0.416256	0.563846
C85	C	0.045347	-0.045293	0.061514
C86	C	0.545347	0.454707	0.561514
C87	C	0.020143	-0.000073	0.061247
C88	C	0.520143	0.499927	0.561247
C89	C	0.045350	0.045150	0.061498
C90	C	0.545350	0.545150	0.561498
C91	C	-0.030272	-0.000074	0.060733
C92	C	0.469728	0.499926	0.560733
C93	C	-0.055479	-0.045296	0.060482
C94	C	0.444521	0.454704	0.560482
C95	C	-0.030272	-0.090517	0.060744
C96	C	0.469728	0.409483	0.560744
C97	C	0.020139	-0.090515	0.061262
C98	C	0.520139	0.409485	0.561262
C99	C	0.020143	0.090371	0.061236
C100	C	0.520143	0.590371	0.561236
C101	C	-0.030269	0.090365	0.060719
C102	C	0.469731	0.590365	0.560719
C103	C	-0.055476	0.045143	0.060467
C104	C	0.444524	0.545143	0.560467
N105	N	0.570528	-0.129314	0.061795
N106	N	1.070528	0.370686	0.561795
C107	C	0.603658	-0.473943	0.028664
C108	C	1.103658	0.026057	0.528664
C109	C	0.603670	-0.682821	0.028656
C110	C	1.103670	-0.182821	0.528656
O111	O	0.631818	-0.709827	0.000490
O112	O	1.131818	-0.209827	0.500490
N113	N	0.570558	-0.708942	0.061759
N114	N	1.070558	-0.208942	0.561759
C115	C	0.537439	-0.682839	0.094864
C116	C	1.037439	-0.182839	0.594864
O117	O	0.509273	-0.709849	0.123016
O118	O	1.009273	-0.209849	0.623016
C119	C	0.537426	-0.473963	0.094868
C120	C	1.037426	0.026037	0.594868
C121	C	0.570543	-0.447845	0.061767
C122	C	1.070543	0.052155	0.561767
C123	C	0.636772	-0.447826	-0.004436
C124	C	1.136772	0.052174	0.495564
C125	C	0.636770	-0.395609	-0.004432
C126	C	1.136770	0.104391	0.495568
C127	C	0.603655	-0.369511	0.028671
C128	C	1.103655	0.130489	0.528671
C129	C	0.570541	-0.395629	0.061771
C130	C	1.070541	0.104371	0.561771
C131	C	0.504305	-0.447861	0.127971
C132	C	1.004305	0.052139	0.627971
C133	C	0.504304	-0.395639	0.127968
C134	C	1.004304	0.104361	0.627968
C135	C	0.537421	-0.369521	0.094866
C136	C	1.037421	0.130479	0.594866
C137	C	0.537425	-0.317314	0.094878
C138	C	1.037425	0.182686	0.594878
N139	N	0.570536	-0.291193	0.061775
N140	N	1.070536	0.208807	0.561775
C141	C	0.603651	-0.317292	0.028672
C142	C	1.103651	0.182708	0.528672
C143	C	0.537449	-0.792503	0.094859
C144	C	1.037449	-0.292503	0.594859
C145	C	0.537453	-0.844722	0.094859
C146	C	1.037453	-0.344722	0.594859
C147	C	0.603683	-0.844700	0.028651
C148	C	1.103683	-0.344700	0.528651
C149	C	0.603681	-0.792480	0.028654
C150	C	1.103681	-0.292480	0.528654
C151	C	0.570561	-0.766382	0.061757
C152	C	1.070561	-0.266382	0.561757
C153	C	0.603646	-0.207634	0.028683
C154	C	1.103646	0.292366	0.528683
C155	C	0.603643	-0.155413	0.028691
C156	C	1.103643	0.344587	0.528691
C157	C	0.537412	-0.155439	0.094898
C158	C	1.037412	0.344561	0.594898
C159	C	0.537416	-0.207656	0.094891
C160	C	1.037416	0.292344	0.594891
C161	C	0.570535	-0.233752	0.061780
C162	C	1.070535	0.266248	0.561780
O163	O	0.509287	-0.290275	0.123026
O164	O	1.009287	0.209725	0.623026
O165	O	0.631806	-0.290273	0.000517
O166	O	1.131806	0.209727	0.500517
C167	C	0.603660	-0.526160	0.028660
C168	C	1.103660	-0.026160	0.528660
C169	C	0.570546	-0.552277	0.061759
C170	C	1.070546	-0.052277	0.561759
C171	C	0.537431	-0.526179	0.094862
C172	C	1.037431	-0.026179	0.594862
C173	C	0.570550	-0.604496	0.061758
C174	C	1.070550	-0.104496	0.561758
C175	C	0.603665	-0.630595	0.028655
C176	C	1.103665	-0.130595	0.528655
C177	C	0.636776	-0.604474	-0.004448
C178	C	1.136776	-0.104474	0.495552
C179	C	0.636775	-0.552258	-0.004444
C180	C	1.136775	-0.052258	0.495556
C181	C	0.504319	-0.552299	0.127965
C182	C	1.004319	-0.052299	0.627965
C183	C	0.504324	-0.604516	0.127959
C184	C	1.004324	-0.104516	0.627959
C185	C	0.537439	-0.630614	0.094855
C186	C	1.037439	-0.130614	0.594855
C187	C	0.658952	-0.000076	0.057571
C188	C	1.158952	0.499924	0.557571
C189	C	0.712608	-0.000079	0.058113
C190	C	1.212608	0.499921	0.558113
C191	C	0.574730	-0.000064	-0.026627
C192	C	1.074730	0.499936	0.473373
C193	C	0.574174	-0.000060	-0.080281
C194	C	1.074174	0.499940	0.419719
N195	N	0.570569	0.129180	0.061756
N196	N	1.070569	0.629180	0.561756
C197	C	0.526206	-0.000052	-0.457344
C198	C	1.026206	0.499948	0.042656
C199	C	0.528252	-0.000052	-0.255685
C200	C	1.028252	0.499948	0.244315
O201	O	0.491030	-0.000028	-0.224425
O202	O	0.991030	0.499972	0.275575
N203	N	0.572588	-0.000057	-0.236566
N204	N	1.072588	0.499943	0.263434
C205	C	0.616415	-0.000058	-0.267865
C206	C	1.116415	0.499942	0.232135
O207	O	0.654172	-0.000058	-0.246976
O208	O	1.154172	0.499942	0.253024
C209	C	0.614368	-0.000055	-0.469524
C210	C	1.114368	0.499945	0.030476
C211	C	0.570029	-0.000055	-0.488640
C212	C	1.070029	0.499945	0.011360
C213	C	0.481871	-0.000052	-0.476461
C214	C	0.981871	0.499948	0.023539
C215	C	0.481360	-0.000054	-0.526873
C216	C	0.981360	0.499946	-0.026873
C217	C	0.525184	-0.000058	-0.558168
C218	C	1.025184	0.499942	-0.058168
C219	C	0.569518	-0.000058	-0.539052
C220	C	1.069518	0.499942	-0.039052
C221	C	0.658194	-0.000054	-0.500823
C222	C	1.158194	0.499946	-0.000823
C223	C	0.657679	-0.000051	-0.551240
C224	C	1.157679	0.499949	-0.051240
C225	C	0.613340	-0.000052	-0.570356
C226	C	1.113340	0.499948	-0.070356
C227	C	0.612831	-0.000064	-0.620760
C228	C	1.112831	0.499936	-0.120760
N229	N	0.568495	-0.000059	-0.639879
N230	N	1.068495	0.499941	-0.139879
C231	C	0.524672	-0.000056	-0.608583
C232	C	1.024672	0.499944	-0.108583
C233	C	0.617486	-0.000061	-0.161991
C234	C	1.117486	0.499939	0.338009
C235	C	0.617998	-0.000063	-0.111577
C236	C	1.117998	0.499937	0.388423
C237	C	0.529835	-0.000055	-0.099399
C238	C	1.029835	0.499945	0.400601
C239	C	0.529324	-0.000057	-0.149815
C240	C	1.029324	0.499943	0.350185
C241	C	0.573151	-0.000056	-0.181110
C242	C	1.073151	0.499944	0.318890
C243	C	0.523602	-0.000062	-0.714452
C244	C	1.023602	0.499938	-0.214452
C245	C	0.523095	-0.000067	-0.764869
C246	C	1.023095	0.499933	-0.264869
C247	C	0.611257	-0.000072	-0.777042
C248	C	1.111257	0.499928	-0.277042
C249	C	0.611764	-0.000070	-0.726630
C250	C	1.111764	0.499930	-0.226630
C251	C	0.567933	-0.000063	-0.695335
C252	C	1.067933	0.499937	-0.195335
O253	O	0.650033	-0.000083	-0.652048
O254	O	1.150033	0.499917	-0.152048
O255	O	0.486920	-0.000046	-0.629481
O256	O	0.986920	0.499954	-0.129481
C257	C	0.526717	-0.000049	-0.406932
C258	C	1.026717	0.499951	0.093068
C259	C	0.571052	-0.000050	-0.387816
C260	C	1.071052	0.499950	0.112184
C261	C	0.614875	-0.000053	-0.419112
C262	C	1.114875	0.499947	0.080888
C263	C	0.571563	-0.000051	-0.337402
C264	C	1.071563	0.499949	0.162598
C265	C	0.527740	-0.000048	-0.306106
C266	C	1.027740	0.499952	0.193894
C267	C	0.483404	-0.000043	-0.325225
C268	C	0.983404	0.499957	0.174775
C269	C	0.482893	-0.000046	-0.375637
C270	C	0.982893	0.499954	0.124363
C271	C	0.659211	-0.000058	-0.399993
C272	C	1.159211	0.499942	0.100007
C273	C	0.659718	-0.000056	-0.349580
C274	C	1.159718	0.499944	0.150420
C275	C	0.615895	-0.000052	-0.318285
C276	C	1.115895	0.499948	0.181715
C277	C	0.566362	-0.000069	0.150181
C278	C	1.066362	0.499931	0.650181
C279	C	0.566918	-0.000071	0.203835
C280	C	1.066918	0.499929	0.703835
H281	H	-0.282717	-0.082126	0.058172
H282	H	0.217283	0.417874	0.558172
H283	H	0.654103	-0.000071	-0.096017
H284	H	1.154103	0.499929	0.403983
H285	H	0.630612	-0.134149	0.001736
H286	H	1.130612	0.365851	0.501736
F287	F	0.469072	-0.524529	0.163199
F288	F	0.969072	-0.024529	0.663199
H289	H	0.100444	-0.127339	0.062092
H290	H	0.600444	0.372661	0.562092
H291	H	0.423806	0.081992	0.065382
H292	H	0.923806	0.581992	0.565382
F293	F	0.430098	-0.093409	0.065476
F294	F	0.930098	0.406591	0.565476
F295	F	0.046957	-0.138649	0.061546
F296	F	0.546957	0.361351	0.561546
H297	H	0.100459	0.127207	0.062044
H298	H	0.600459	0.627207	0.562044
F299	F	-0.057108	-0.138646	0.060479
F300	F	0.442892	0.361354	0.560479
H301	H	0.695827	-0.000060	-0.334022
H302	H	1.195827	0.499940	0.165978
F303	F	-0.184950	-0.093435	0.059176
F304	F	0.315050	0.406565	0.559176
H305	H	0.477339	-0.469119	0.154925
H306	H	0.977339	0.030881	0.654925
H307	H	0.510454	-0.228921	0.121850
H308	H	1.010454	0.271079	0.621850
H309	H	0.630647	-0.771218	0.001700
H310	H	1.130647	-0.271218	0.501700
F311	F	0.638927	-0.872485	-0.006580
F312	F	1.138927	-0.372485	0.493420
H313	H	0.332346	-0.082110	0.064467
H314	H	0.832346	0.417890	0.564467
F315	F	0.502197	-0.764733	0.130095
F316	F	1.002197	-0.264733	0.630095
H317	H	0.332339	0.081993	0.064449
H318	H	0.832339	0.581993	0.564449
H319	H	-0.282702	0.081969	0.058155
H320	H	0.217298	0.581969	0.558155
H321	H	-0.050786	0.127195	0.060505
H322	H	0.449214	0.627195	0.560505
F323	F	0.482134	-0.000056	-0.170154
F324	F	0.982134	0.499944	0.329846
F325	F	0.198214	0.138514	0.063038
F326	F	0.698214	0.638514	0.563038
H327	H	0.486987	-0.000070	-0.780430
H328	H	0.986987	0.499930	-0.280430
H329	H	0.663741	-0.530997	-0.031398
H330	H	1.163741	-0.030997	0.468602
H331	H	-0.191251	0.081974	0.059079
H332	H	0.308749	0.581974	0.559079
H333	H	0.191890	-0.127336	0.063031
H334	H	0.691890	0.372664	0.563031
H335	H	0.040661	0.127197	0.061439
H336	H	0.540661	0.627197	0.561439
F337	F	0.638895	-0.235399	-0.006558
F338	F	1.138895	0.264601	0.493442
H339	H	0.445255	-0.000050	-0.542432
H340	H	0.945255	0.499950	-0.042432
H341	H	0.663738	-0.469070	-0.031395
H342	H	1.163738	0.030930	0.468605
H343	H	0.477332	-0.374393	0.154924
H344	H	0.977332	0.125607	0.654924
H345	H	0.663736	-0.374347	-0.031387
H346	H	1.163736	0.125653	0.468613
H347	H	0.510492	-0.865983	0.121818
H348	H	1.010492	-0.365983	0.621818
H349	H	0.647868	-0.000077	-0.711065
H350	H	1.147868	0.499923	-0.211065
F351	F	0.502171	-0.127656	0.130128
F352	F	1.002171	0.372344	0.630128
F353	F	0.672021	-0.632259	-0.039677
F354	F	1.172021	-0.132259	0.460323
F355	F	0.469076	-0.632307	0.163195
F356	F	0.969076	-0.132307	0.663195
H357	H	0.694299	-0.000053	-0.485268
H358	H	1.194299	0.499947	0.014732
H359	H	0.694898	-0.000060	-0.425469
H360	H	1.194898	0.499940	0.074531
H361	H	0.487910	-0.000057	-0.688978
H362	H	0.987910	0.499943	-0.188978
H363	H	0.653177	-0.000061	-0.187468
H364	H	1.153177	0.499939	0.312532
F365	F	0.435702	-0.000045	-0.395975
F366	F	0.935702	0.499955	0.104025
F367	F	0.435224	-0.000046	-0.443160
F368	F	0.935224	0.499954	0.056840
H369	H	0.494152	-0.000055	-0.073910
H370	H	0.994152	0.499945	0.426090
F371	F	0.704327	-0.000049	-0.584545
F372	F	1.204327	0.499951	-0.084545
H373	H	0.447722	-0.000044	-0.299735
H374	H	0.947722	0.499956	0.200265
F375	F	0.657895	-0.000080	-0.810358
F376	F	1.157895	0.499920	-0.310358
