data_functionalizedCrystal
_audit_creation_method	'MofGen! by Chris Wilmer'
_symmetry_space_group_name_H-M	'P1'
_symmetry_Int_Tables_number	1
_symmetry_cell_setting	triclinic
loop_
_symmetry_equiv_pos_as_xyz
  x,y,z
_cell_length_a	19.902436
_cell_length_b	23.196402
_cell_length_c	23.196401
_cell_angle_alpha	119.990204
_cell_angle_beta	89.983205
_cell_angle_gamma	59.997492
loop_
_atom_site_label
_atom_site_type_symbol
_atom_site_fract_x
_atom_site_fract_y
_atom_site_fract_z
Zr1	Zr	0.647316	0.630934	0.075583
O2	O	0.539997	0.751213	0.167637
O3	O	0.680212	0.510665	0.047367
O4	O	0.680176	0.630933	0.167632
O5	O	0.540064	0.630942	-0.047501
O6	O	0.790755	0.630922	0.167625
O7	O	0.540033	0.630944	0.047371
O8	O	0.790819	0.415784	-0.047509
O9	O	0.540000	0.846080	0.167633
O10	O	0.776769	0.560122	0.035323
O11	O	0.694269	0.560128	-0.035473
O12	O	0.694226	0.701729	0.106124
O13	O	0.611726	0.701735	0.035328
Zr14	Zr	0.823726	0.630913	-0.075739
Zr15	Zr	0.823676	0.630916	0.075570
Zr16	Zr	0.647366	0.630930	-0.075727
Zr17	Zr	0.647321	0.782237	0.075576
Zr18	Zr	0.823721	0.479610	-0.075733
O19	O	0.790830	0.751182	-0.047523
O20	O	0.790759	0.751187	0.167620
O21	O	0.540068	0.751207	-0.047506
O22	O	0.931045	0.510634	-0.167794
O23	O	0.930974	0.510640	0.047349
O24	O	0.680283	0.510660	-0.167776
O25	O	0.930978	0.630905	0.047344
O26	O	0.790866	0.630914	-0.167789
O27	O	0.680287	0.630925	-0.167781
O28	O	0.931009	0.630902	-0.047528
O29	O	0.680183	0.846066	0.167623
O30	O	0.790859	0.415781	-0.167780
O31	O	0.931042	0.415767	-0.167790
O32	O	0.931002	0.415770	-0.047519
O33	O	0.540040	0.846077	0.047362
O34	O	0.680223	0.846063	0.047352
O35	O	0.776816	0.560118	-0.106281
O36	O	0.859316	0.560112	-0.035485
O37	O	0.776773	0.701719	0.035317
O38	O	0.694273	0.701725	-0.035479
C39	C	0.735515	0.441667	-0.000070
C40	C	0.735513	0.377435	-0.000067
C41	C	0.514921	0.630946	-0.000063
C42	C	0.440051	0.630953	-0.000058
C43	C	0.778571	0.347262	0.036890
C44	C	0.778579	0.286900	0.036884
C45	C	0.735513	0.256727	-0.000069
C46	C	0.692452	0.286905	-0.037035
C47	C	0.692452	0.347259	-0.037034
C48	C	0.663357	0.194705	0.005210
C49	C	0.663354	0.134356	0.005214
C50	C	0.735514	0.070572	-0.000076
C51	C	0.807675	0.067153	-0.005357
C52	C	0.807675	0.127507	-0.005356
C53	C	0.735508	0.191283	-0.000075
C54	C	0.778585	-0.025053	0.036877
C55	C	0.778595	-0.085418	0.036866
C56	C	0.692460	-0.085407	-0.037049
C57	C	0.692458	-0.025048	-0.037043
C58	C	0.735518	0.005128	-0.000076
C59	C	0.168049	0.630913	-0.000085
C60	C	0.144471	0.720242	0.044364
C61	C	0.222308	0.720298	0.044611
C62	C	0.302992	0.630934	-0.000072
C63	C	0.300569	0.586573	0.032500
C64	C	0.222341	0.587144	0.032829
C65	C	0.223365	0.585306	-0.077126
C66	C	0.300286	0.586985	-0.077008
C67	C	0.379259	0.630940	-0.000064
C68	C	0.091784	0.630904	-0.000090
C69	C	0.956121	0.630901	-0.000094
C70	C	1.030991	0.630894	-0.000099
C71	C	0.735458	0.630928	0.189187
C72	C	0.735437	0.630930	0.253422
C73	C	0.735527	0.820180	-0.000086
C74	C	0.735529	0.884412	-0.000089
C75	C	0.692353	0.704845	0.320553
C76	C	0.692371	0.704847	0.380908
C77	C	0.735462	0.630929	0.374129
C78	C	0.778555	0.557004	0.306986
C79	C	0.778543	0.557004	0.246632
C80	C	0.729337	0.574302	0.441449
C81	C	0.729343	0.574305	0.501803
C82	C	0.735504	0.630925	0.560277
C83	C	0.741642	0.687555	0.558397
C84	C	0.741629	0.687556	0.498044
C85	C	0.735480	0.630920	0.439568
C86	C	0.692437	0.704847	0.692855
C87	C	0.692461	0.704846	0.753210
C88	C	0.778639	0.557000	0.679286
C89	C	0.778621	0.557004	0.618933
C90	C	0.735516	0.630929	0.625722
C91	C	0.735571	0.630921	0.810658
C92	C	0.735553	0.630927	0.746426
C93	C	0.956115	0.441645	-0.000086
C94	C	1.030982	0.377405	-0.000088
C95	C	0.735577	0.441662	-0.189336
C96	C	0.735597	0.377429	-0.253568
C97	C	0.956177	0.441640	-0.189351
C98	C	1.031066	0.377399	-0.253588
C99	C	0.514864	0.820207	0.189194
C100	C	0.439976	0.884448	0.253432
C101	C	0.514927	0.820202	-0.000071
C102	C	0.440059	0.884441	-0.000069
C103	C	0.735464	0.820184	0.189179
C104	C	0.735445	0.884418	0.253411
C105	C	1.023052	0.347243	0.036878
C106	C	1.093392	0.286892	0.036890
C107	C	1.171660	0.256700	-0.000069
C108	C	1.179589	0.286868	-0.037036
C109	C	1.109250	0.347222	-0.037043
C110	C	0.778694	0.347259	-0.320699
C111	C	0.778709	0.286913	-0.381058
C112	C	0.735631	0.256734	-0.374284
C113	C	0.692528	0.286910	-0.307145
C114	C	0.692508	0.347259	-0.246788
C115	C	1.109307	0.347227	-0.246800
C116	C	1.179679	0.286874	-0.307152
C117	C	1.171810	0.256690	-0.374292
C118	C	1.093561	0.286868	-0.381079
C119	C	1.023190	0.347224	-0.320727
C120	C	0.361735	0.914627	0.246643
C121	C	0.291363	0.974998	0.306995
C122	C	0.299232	1.005186	0.374135
C123	C	0.377481	0.975004	0.380922
C124	C	0.447851	0.914638	0.320571
C125	C	0.447990	0.914610	-0.037028
C126	C	0.377650	0.974978	-0.037023
C127	C	0.299382	1.005172	-0.000063
C128	C	0.291453	0.975001	0.036902
C129	C	0.361792	0.914638	0.036900
C130	C	0.778532	0.914578	0.246614
C131	C	0.778530	0.974924	0.306961
C132	C	0.735436	1.005113	0.374105
C133	C	0.692348	0.974948	0.380900
C134	C	0.692355	0.914599	0.320554
H135	H	0.813636	0.371827	0.066988
H136	H	0.813774	0.371824	-0.326228
H137	H	1.086920	0.262336	0.066993
Cl138	Cl	0.546376	0.876668	-0.083495
Cl139	Cl	0.220512	0.774033	0.010881
Cl140	Cl	0.387360	1.012960	0.465332
H141	H	1.115730	0.371794	-0.192137
H142	H	0.813812	0.262351	-0.435719
Cl143	Cl	0.351821	0.876689	0.162246
Cl144	Cl	0.219538	0.774374	0.132352
H145	H	0.813617	0.999478	0.301415
Cl146	Cl	0.735665	0.180865	-0.450170
Cl147	Cl	0.749387	0.758740	0.631904
Cl148	Cl	0.193052	1.012965	0.083360
Cl149	Cl	0.721660	0.503073	0.367920
H150	H	0.657454	0.262330	-0.301640
H151	H	1.087166	0.262283	-0.435752
H152	H	0.657416	0.371816	-0.192129
H153	H	0.813625	0.890007	0.191948
H154	H	1.243386	0.262310	-0.301614
Cl155	Cl	0.387637	1.012891	-0.083500
Cl156	Cl	0.193004	1.012925	0.298447
Cl157	Cl	0.210963	1.081056	-0.000070
Cl158	Cl	0.084008	0.774379	0.010809
Cl159	Cl	0.735432	1.080985	0.449963
H160	H	1.229117	0.207544	-0.423428
Cl161	Cl	1.277990	0.248900	-0.083499
Cl162	Cl	0.167315	0.629430	-0.119138
H163	H	0.959486	0.371782	-0.326264
H164	H	0.657262	0.999537	0.435576
Cl165	Cl	0.252219	0.485960	-0.013912
Cl166	Cl	0.351808	0.876714	0.083364
Cl167	Cl	0.210756	1.081075	0.450000
Cl168	Cl	1.260079	0.180823	-0.000054
H169	H	0.302102	0.617383	0.088653
Cl170	Cl	0.546208	0.876700	0.329117
H171	H	0.104541	0.755131	0.100852
H172	H	0.813640	0.496819	0.301470
H173	H	0.746629	0.733665	0.496516
Cl174	Cl	0.832723	0.248952	0.083341
Cl175	Cl	0.898388	0.123206	-0.011999
Cl176	Cl	1.119234	0.385128	-0.083526
H177	H	0.866437	0.015213	-0.009674
Cl178	Cl	0.832724	0.012880	0.083341
H179	H	0.813664	-0.109990	0.066958
Cl180	Cl	0.638317	-0.123333	-0.083505
H181	H	0.657265	0.890049	0.326097
H182	H	0.657380	0.765039	0.807873
Cl183	Cl	0.638321	0.012889	-0.083504
H184	H	0.604596	0.137148	0.009518
H185	H	0.604587	0.246648	0.009533
H186	H	0.357390	0.520866	0.001683
Cl187	Cl	0.638318	0.248968	-0.083497
H188	H	0.657387	0.371827	-0.067129
H189	H	0.657257	0.765041	0.326087
Cl190	Cl	0.165887	0.635826	0.120357
H191	H	0.299918	0.619330	-0.101341
H192	H	0.243291	0.519503	-0.110401
Cl193	Cl	0.638205	0.797776	0.465313
Cl194	Cl	0.389000	0.486314	-0.132440
H195	H	0.813726	0.496815	0.673765
Cl196	Cl	0.832769	0.464076	0.534535
Cl197	Cl	0.721619	0.503119	0.504164
Cl198	Cl	0.832704	0.464074	0.162233
Cl199	Cl	0.638269	0.797780	0.701387
H200	H	0.959328	0.371825	0.066983
