data_functionalizedCrystal
_audit_creation_method	'MofGen! by Chris Wilmer'
_symmetry_space_group_name_H-M	'P1'
_symmetry_Int_Tables_number	1
_symmetry_cell_setting	triclinic
loop_
_symmetry_equiv_pos_as_xyz
  x,y,z
_cell_length_a	13.635800
_cell_length_b	19.263289
_cell_length_c	11.100257
_cell_angle_alpha	78.885134
_cell_angle_beta	108.570032
_cell_angle_gamma	98.568307
loop_
_atom_site_label
_atom_site_type_symbol
_atom_site_fract_x
_atom_site_fract_y
_atom_site_fract_z
V1	V	1.989554	-0.097316	0.396874
O2	O	2.038225	0.004538	0.388712
O3	O	1.913098	-0.192828	0.394745
O4	O	1.978859	-0.095880	0.569698
O5	O	1.972009	-0.093081	0.212547
V6	V	2.236390	-0.085126	0.374756
O7	O	2.109054	-0.124056	0.445392
O8	O	2.341989	-0.058386	0.326239
O9	O	2.201243	0.010386	0.376886
O10	O	2.246417	-0.186980	0.382919
O11	O	2.312634	-0.089360	0.559084
O12	O	2.135482	-0.086562	0.201932
V13	V	2.489554	-0.097316	0.396874
O14	O	2.538225	0.004538	0.388712
O15	O	2.413098	-0.192828	0.394745
O16	O	2.478859	-0.095880	0.569698
O17	O	2.472009	-0.093081	0.212547
V18	V	2.736390	-0.085126	0.374756
O19	O	2.609054	-0.124056	0.445392
O20	O	2.841989	-0.058386	0.326239
O21	O	2.701243	0.010386	0.376886
O22	O	2.746417	-0.186980	0.382919
O23	O	2.812634	-0.089360	0.559084
O24	O	2.635482	-0.086562	0.201932
C25	C	2.322448	-0.216110	0.388635
C26	C	2.300669	-0.294193	0.388046
C27	C	2.380008	-0.334450	0.394124
C28	C	2.359547	-0.407819	0.393584
C29	C	2.259738	-0.440924	0.386938
C30	C	2.180392	-0.400658	0.380866
C31	C	2.200858	-0.327292	0.381419
N32	N	2.146440	-0.547162	0.308613
N33	N	2.127005	-0.616856	0.308084
C34	C	2.198072	-0.661971	0.385272
N35	N	2.289321	-0.634757	0.462993
N36	N	2.308760	-0.565056	0.463516
C37	C	2.237537	-0.520476	0.386338
C38	C	2.255230	-0.781783	0.390767
C39	C	2.234767	-0.855153	0.390234
C40	C	2.055607	-0.847990	0.377503
C41	C	2.076076	-0.774622	0.378049
C42	C	2.175887	-0.741523	0.384675
C43	C	1.822448	-0.216110	0.388635
C44	C	1.800669	-0.294193	0.388046
C45	C	1.906333	-0.092442	0.611804
C46	C	1.937885	-0.091900	0.753092
C47	C	2.123561	0.033664	0.382993
C48	C	2.134959	0.111747	0.383590
C49	C	2.039677	-0.090002	0.159820
C50	C	1.997746	-0.090541	0.018531
C51	C	1.880008	-0.334450	0.394124
C52	C	1.859547	-0.407819	0.393584
C53	C	1.759738	-0.440924	0.386938
C54	C	1.680392	-0.400658	0.380866
C55	C	1.700858	-0.327292	0.381419
N56	N	1.646440	-0.547162	0.308613
N57	N	1.627005	-0.616856	0.308084
C58	C	1.698072	-0.661971	0.385272
N59	N	1.789321	-0.634757	0.462993
N60	N	1.808760	-0.565056	0.463516
C61	C	1.737537	-0.520476	0.386338
C62	C	1.755230	-0.781783	0.390767
C63	C	1.734767	-0.855153	0.390234
C64	C	1.555607	-0.847990	0.377503
C65	C	1.576076	-0.774622	0.378049
C66	C	1.675887	-0.741523	0.384675
C67	C	2.024828	0.038119	0.980884
C68	C	2.023397	0.102110	0.895702
C69	C	1.993462	0.101433	0.762983
C70	C	1.964958	0.036759	0.715446
C71	C	1.966389	-0.027232	0.800628
C72	C	1.996323	-0.026549	0.933348
C73	C	1.939315	-0.155891	0.838275
C74	C	1.969243	-0.155215	0.970994
C75	C	1.910812	-0.220565	0.790738
C76	C	1.912235	-0.284557	0.875920
C77	C	1.942171	-0.283878	1.008646
C78	C	1.970674	-0.219206	1.056176
C79	C	2.406333	-0.092442	0.611804
C80	C	2.437885	-0.091900	0.753092
C81	C	2.623561	0.033664	0.382993
C82	C	2.634959	0.111747	0.383590
C83	C	2.539677	-0.090002	0.159820
C84	C	2.497746	-0.090541	0.018531
C85	C	2.617138	-0.098923	0.766105
C86	C	2.721583	-0.102183	0.838989
C87	C	2.751223	-0.101672	0.971740
C88	C	2.676408	-0.097900	1.031611
C89	C	2.571963	-0.094641	0.958727
C90	C	2.542333	-0.095154	0.825974
C91	C	2.392713	-0.087612	0.945713
C92	C	2.363070	-0.088127	0.812963
C93	C	2.317898	-0.083840	1.005583
C94	C	2.213450	-0.080586	0.932701
C95	C	2.183813	-0.081097	0.799942
C96	C	2.258625	-0.084868	0.740079
H97	H	2.461282	-0.307506	0.399528
Cl98	Cl	2.459293	-0.458438	0.401226
H99	H	1.889033	-0.337210	0.837204
Cl100	Cl	2.054920	-0.442276	0.372519
Cl101	Cl	2.882528	-0.105762	1.063366
Cl102	Cl	1.601108	-0.276680	0.373774
Cl103	Cl	2.815627	-0.106930	0.763719
H104	H	1.836503	-0.754832	0.396160
Cl105	Cl	2.380712	-0.740171	0.399126
Cl106	Cl	2.101108	-0.276680	0.373774
Cl107	Cl	2.713674	-0.097249	1.198497
Cl108	Cl	1.943974	-0.364329	1.115724
H109	H	2.234502	-0.085289	0.631988
H110	H	1.511467	-0.741843	0.373091
H111	H	2.342040	-0.083420	1.113676
Cl112	Cl	1.959293	-0.458438	0.401226
Cl113	Cl	1.873192	-0.221416	0.623891
Cl114	Cl	2.059231	0.183410	0.955469
H115	H	2.098768	-0.078427	0.740603
Cl116	Cl	2.119413	-0.075841	1.007972
H117	H	2.299380	-0.887931	0.395192
Cl118	Cl	1.834519	-0.905764	0.397886
H119	H	1.974343	-0.874944	0.372100
H120	H	2.011467	-0.741843	0.373091
Cl121	Cl	2.005481	-0.292842	0.402436
Cl122	Cl	2.062449	0.038975	1.147730
H123	H	1.995044	-0.218647	1.164240
H124	H	2.593012	-0.099348	0.658015
Cl125	Cl	1.927350	0.035909	0.548599
Cl126	Cl	1.554920	-0.442276	0.372519
H127	H	1.474343	-0.874944	0.372100
H128	H	1.992302	0.153540	0.693626
