data_functionalizedCrystal
_audit_creation_method	'MofGen! by Chris Wilmer'
_symmetry_space_group_name_H-M	'P1'
_symmetry_Int_Tables_number	1
_symmetry_cell_setting	triclinic
loop_
_symmetry_equiv_pos_as_xyz
  x,y,z
_cell_length_a	23.096457
_cell_length_b	18.426585
_cell_length_c	23.096457
_cell_angle_alpha	60.003850
_cell_angle_beta	60.000185
_cell_angle_gamma	89.999725
loop_
_atom_site_label
_atom_site_type_symbol
_atom_site_fract_x
_atom_site_fract_y
_atom_site_fract_z
Zr1	Zr	0.557781	-0.095227	0.633735
O2	O	0.465335	-0.211093	0.754516
O3	O	0.586118	-0.059713	0.512951
O4	O	0.586121	-0.211105	0.633732
O5	O	0.465332	0.059725	0.633739
O6	O	0.681401	-0.211109	0.633734
O7	O	0.465332	-0.059701	0.633735
O8	O	0.681396	0.059704	0.417679
O9	O	0.465337	-0.211088	0.849794
O10	O	0.669313	-0.044564	0.562634
O11	O	0.598206	0.044565	0.562636
O12	O	0.598210	-0.133679	0.704840
O13	O	0.527103	-0.044550	0.704841
Zr14	Zr	0.709742	0.095236	0.633744
Zr15	Zr	0.709742	-0.095234	0.633738
Zr16	Zr	0.557781	0.095243	0.633742
Zr17	Zr	0.557784	-0.095219	0.785693
Zr18	Zr	0.709738	0.095228	0.481787
O19	O	0.681405	0.059722	0.754528
O20	O	0.681404	-0.211103	0.754519
O21	O	0.465335	0.059732	0.754525
O22	O	0.802188	0.211102	0.512964
O23	O	0.802187	-0.059723	0.512955
O24	O	0.586118	0.211112	0.512960
O25	O	0.802190	-0.059716	0.633741
O26	O	0.681402	0.211114	0.633748
O27	O	0.586122	0.211118	0.633746
O28	O	0.802191	0.059710	0.633745
O29	O	0.586126	-0.211094	0.849796
O30	O	0.681396	0.211102	0.417684
O31	O	0.802185	0.211097	0.417686
O32	O	0.802185	0.059698	0.417681
O33	O	0.465338	-0.059689	0.849799
O34	O	0.586127	-0.059695	0.849801
O35	O	0.669313	0.133688	0.562640
O36	O	0.740420	0.044559	0.562638
O37	O	0.669316	-0.044557	0.704844
O38	O	0.598210	0.044573	0.704846
C39	C	0.443681	0.000013	0.633737
C40	C	0.379170	0.000016	0.633736
C41	C	0.633757	-0.000006	0.443664
C42	C	0.633755	-0.000009	0.379154
C43	C	0.633762	0.238254	0.633748
C44	C	0.633762	0.319114	0.633751
C45	C	0.385979	0.046525	0.559508
C46	C	0.325363	0.046529	0.559507
C47	C	0.257939	0.000006	0.633737
C48	C	0.251132	-0.046504	0.707975
C49	C	0.311747	-0.046500	0.707974
N50	N	0.135144	-0.075710	0.688990
N51	N	0.077565	-0.075713	0.688986
C52	C	0.075306	-0.000009	0.633745
N53	N	0.132808	0.075696	0.578496
N54	N	0.190394	0.075697	0.578497
C55	C	0.192208	-0.000003	0.633747
C56	C	0.016392	0.046508	0.559511
C57	C	-0.044226	0.046514	0.559513
C58	C	-0.118458	-0.046528	0.707983
C59	C	-0.057840	-0.046525	0.707979
C60	C	0.009583	-0.000010	0.633741
C61	C	0.823842	-0.000004	0.633743
C62	C	0.888353	-0.000007	0.633744
C63	C	0.633761	-0.238245	0.633732
C64	C	0.633761	-0.319105	0.633729
C65	C	0.633763	0.615228	0.633726
C66	C	0.633764	0.532843	0.633729
C67	C	0.633763	0.467174	0.633738
C68	C	0.633763	0.384782	0.633742
C69	C	0.670867	-0.046537	0.348853
C70	C	0.670874	-0.046530	0.288230
C71	C	0.633755	-0.000007	0.257924
C72	C	0.596641	0.046532	0.288230
C73	C	0.596641	0.046530	0.348845
N74	N	0.573351	-0.006455	0.195527
N75	N	0.573352	-0.006458	0.137946
C76	C	0.633754	0.000002	0.075292
N77	N	0.694154	0.006448	0.072401
N78	N	0.694151	0.006447	0.129990
C79	C	0.633751	0.000000	0.192196
C80	C	0.670877	-0.046521	-0.020745
C81	C	0.670886	-0.046507	-0.081372
C82	C	0.596647	0.046548	-0.081365
C83	C	0.596645	0.046541	-0.020745
C84	C	0.633758	0.000001	0.009564
C85	C	0.633766	0.000015	0.823815
C86	C	0.633768	0.000018	0.888325
C87	C	0.823837	-0.000014	0.443668
C88	C	0.888347	-0.000021	0.379159
C89	C	0.633757	0.238244	0.443672
C90	C	0.633755	0.319100	0.379165
C91	C	0.823837	0.238235	0.443676
C92	C	0.888347	0.319089	0.379170
C93	C	0.443685	-0.238226	0.823804
C94	C	0.379175	-0.319080	0.888310
C95	C	0.443686	0.000023	0.823812
C96	C	0.379176	0.000030	0.888321
C97	C	0.633766	-0.238235	0.823807
C98	C	0.633767	-0.319091	0.888314
C99	C	0.881524	-0.046553	0.348863
C100	C	0.942132	-0.046577	0.288258
C101	C	1.009562	-0.000063	0.257947
C102	C	1.016383	0.046471	0.288249
C103	C	0.955776	0.046489	0.348856
C104	C	0.670872	0.403600	0.348874
C105	C	0.670868	0.479581	0.288271
C106	C	0.633751	0.471059	0.257957
C107	C	0.596630	0.386550	0.288254
C108	C	0.596630	0.310571	0.348859
C109	C	0.955765	0.310533	0.348876
C110	C	1.016385	0.386497	0.288274
C111	C	1.009585	0.471014	0.257963
C112	C	0.942160	0.479567	0.288262
C113	C	0.881542	0.403605	0.348867
C114	C	0.311758	-0.310525	0.918611
C115	C	0.251138	-0.386488	0.979232
C116	C	0.257937	-0.471005	1.009546
C117	C	0.325362	-0.479558	0.979243
C118	C	0.385981	-0.403596	0.918627
C119	C	0.385998	0.046554	0.918623
C120	C	0.325390	0.046557	0.979245
C121	C	0.257960	0.000040	1.009558
C122	C	0.251139	-0.046490	0.979253
C123	C	0.311747	-0.046498	0.918637
C124	C	0.670891	-0.310541	0.918610
C125	C	0.670906	-0.386507	0.979213
C126	C	0.633793	-0.471022	1.009524
C127	C	0.596668	-0.479571	0.979222
C128	C	0.596657	-0.403606	0.918616
H129	H	0.440873	0.084396	0.499057
H130	H	1.071280	0.379516	0.263610
H131	H	1.058950	0.532860	0.208614
Br132	Br	0.546296	-0.594277	1.020374
Br133	Br	0.932858	-0.109732	0.247145
Br134	Br	0.334599	0.109650	0.458762
H135	H	0.826650	0.410583	0.373525
H136	H	0.566424	-0.410580	0.893956
H137	H	0.633756	0.532933	0.208607
Br138	Br	0.721254	-0.109666	0.247087
Br139	Br	0.159628	-0.109634	0.808717
H140	H	0.936635	0.548391	0.263574
H141	H	0.701098	0.548384	0.263611
Br142	Br	0.633814	-0.574110	1.091778
H143	H	-0.038675	0.084394	0.499065
H144	H	0.566418	0.084419	0.373517
H145	H	0.961341	0.084386	0.373516
H146	H	0.826625	-0.084441	0.373541
Br147	Br	1.091809	-0.000096	0.175692
Br148	Br	-0.209957	-0.109656	0.808727
H149	H	0.306208	-0.241713	0.893932
H150	H	0.566411	0.379625	0.263562
Br151	Br	0.159642	-0.374859	1.020344
Br152	Br	0.302505	-0.109623	0.808719
Br153	Br	0.175661	-0.574089	1.091811
Br154	Br	0.175714	0.000059	1.091824
H155	H	0.566408	0.241770	0.373514
Br156	Br	0.334578	-0.594267	1.020391
Br157	Br	0.965013	0.195841	0.390004
H158	H	0.196230	-0.084363	1.003944
Br159	Br	-0.067081	-0.109651	0.808722
H160	H	0.306182	-0.084381	0.893966
Br161	Br	0.477474	-0.415223	0.877508
H162	H	0.566419	0.084412	0.263550
H163	H	0.701113	-0.241731	0.893940
Br164	Br	0.107896	0.109638	0.458762
Br165	Br	0.721235	-0.109697	0.389984
H166	H	0.440898	0.084439	0.893947
Br167	Br	1.107901	0.109596	0.247101
Br168	Br	0.334664	0.109711	1.020358
H169	H	0.701137	-0.379529	1.003878
Br170	Br	0.721249	-0.109673	0.020389
H171	H	0.701111	-0.084392	-0.106047
H172	H	0.566424	0.084429	-0.106040
H173	H	0.566421	0.084425	0.003930
H174	H	0.701097	0.410556	0.373550
