data_functionalizedCrystal
_audit_creation_method	'MofGen! by Chris Wilmer'
_symmetry_space_group_name_H-M	'P1'
_symmetry_Int_Tables_number	1
_symmetry_cell_setting	triclinic
loop_
_symmetry_equiv_pos_as_xyz
  x,y,z
_cell_length_a	15.944551
_cell_length_b	15.944493
_cell_length_c	14.421503
_cell_angle_alpha	90.010165
_cell_angle_beta	90.003141
_cell_angle_gamma	96.513109
loop_
_atom_site_label
_atom_site_type_symbol
_atom_site_fract_x
_atom_site_fract_y
_atom_site_fract_z
O1	O	1.114507	-0.108323	0.077003
O2	O	1.364507	0.141677	0.327003
O3	O	1.614507	0.391677	0.577003
O4	O	1.864507	0.641677	0.827003
O5	O	0.869954	-0.121680	0.077024
O6	O	1.119954	0.128320	0.327024
O7	O	1.369954	0.378320	0.577024
O8	O	1.619954	0.628320	0.827024
O9	O	0.998934	0.007276	0.077021
O10	O	1.248934	0.257276	0.327021
O11	O	1.498934	0.507276	0.577021
O12	O	1.748934	0.757276	0.827021
O13	O	0.985527	-0.237280	0.077006
O14	O	1.235527	0.012720	0.327006
O15	O	1.485527	0.262720	0.577006
O16	O	1.735527	0.512720	0.827006
O17	O	0.998913	0.007257	-0.077203
O18	O	1.248913	0.257257	0.172797
O19	O	1.498913	0.507257	0.422797
O20	O	1.748913	0.757257	0.672797
O21	O	0.869933	-0.121699	-0.077199
O22	O	1.119933	0.128301	0.172801
O23	O	1.369933	0.378301	0.422801
O24	O	1.619933	0.628301	0.672801
O25	O	1.114485	-0.108343	-0.077221
O26	O	1.364485	0.141657	0.172779
O27	O	1.614485	0.391657	0.422779
O28	O	1.864485	0.641657	0.672779
Cu29	Cu	0.992207	-0.115023	-0.091292
Cu30	Cu	1.242207	0.134977	0.158708
Cu31	Cu	1.492207	0.384977	0.408708
Cu32	Cu	1.742207	0.634977	0.658708
Cu33	Cu	0.992232	-0.115000	0.091095
Cu34	Cu	1.242232	0.135000	0.341095
Cu35	Cu	1.492232	0.385000	0.591095
Cu36	Cu	1.742232	0.635000	0.841095
O37	O	0.985506	-0.237299	-0.077217
O38	O	1.235506	0.012701	0.172783
O39	O	1.485506	0.262701	0.422783
O40	O	1.735506	0.512701	0.672783
C41	C	0.838650	-0.121135	-0.000084
C42	C	1.088650	0.128865	0.249916
C43	C	1.338650	0.378865	0.499916
C44	C	1.588650	0.628865	0.749916
C45	C	0.745404	-0.119473	-0.000076
C46	C	0.995404	0.130527	0.249924
C47	C	1.245404	0.380527	0.499924
C48	C	1.495404	0.630527	0.749924
C49	C	0.530565	-0.035566	-0.000089
C50	C	0.780565	0.214434	0.249911
C51	C	1.030565	0.464434	0.499911
C52	C	1.280565	0.714434	0.749911
C53	C	0.469547	-0.074520	0.075949
C54	C	0.719547	0.175480	0.325949
C55	C	0.969547	0.425480	0.575949
C56	C	1.219547	0.675480	0.825949
C57	C	0.574679	-0.116465	-0.000086
C58	C	0.824679	0.133535	0.249914
C59	C	1.074679	0.383535	0.499914
C60	C	1.324679	0.633535	0.749914
C61	C	0.469548	-0.074558	-0.076103
C62	C	0.719548	0.175442	0.173897
C63	C	0.969548	0.425442	0.423897
C64	C	1.219548	0.675442	0.673897
C65	C	0.409767	-0.113555	-0.000101
C66	C	0.659767	0.136445	0.249899
C67	C	0.909767	0.386445	0.499899
C68	C	1.159767	0.636445	0.749899
C69	C	0.514889	-0.155442	0.076014
C70	C	0.764889	0.094558	0.326014
C71	C	1.014889	0.344558	0.576014
C72	C	1.264889	0.594558	0.826014
C73	C	0.514897	-0.155468	-0.076106
C74	C	0.764897	0.094532	0.173894
C75	C	1.014897	0.344532	0.423894
C76	C	1.264897	0.594532	0.673894
C77	C	0.453897	-0.194481	-0.000050
C78	C	0.703897	0.055519	0.249950
C79	C	0.953897	0.305519	0.499950
C80	C	1.203897	0.555519	0.749950
C81	C	0.669681	-0.118140	-0.000077
C82	C	0.919681	0.131860	0.249923
C83	C	1.169681	0.381860	0.499923
C84	C	1.419681	0.631860	0.749923
C85	C	0.314766	-0.111886	-0.000103
C86	C	0.564766	0.138114	0.249897
C87	C	0.814766	0.388114	0.499897
C88	C	1.064766	0.638114	0.749897
C89	C	0.998375	0.038562	-0.000087
C90	C	1.248375	0.288562	0.249913
C91	C	1.498375	0.538562	0.499913
C92	C	1.748375	0.788562	0.749913
C93	C	0.996733	0.131810	-0.000075
C94	C	1.246733	0.381810	0.249925
C95	C	1.496733	0.631810	0.499925
C96	C	1.746733	0.881810	0.749925
C97	C	1.145790	-0.108888	-0.000110
C98	C	1.395790	0.141112	0.249890
C99	C	1.645790	0.391112	0.499890
C100	C	1.895790	0.641112	0.749890
C101	C	1.239036	-0.110550	-0.000113
C102	C	1.489036	0.139450	0.249887
C103	C	1.739036	0.389450	0.499887
C104	C	1.989036	0.639450	0.749887
C105	C	0.986064	-0.268584	-0.000107
C106	C	1.236064	-0.018584	0.249893
C107	C	1.486064	0.231416	0.499893
C108	C	1.736064	0.481416	0.749893
C109	C	0.987707	-0.361833	-0.000113
C110	C	1.237707	-0.111833	0.249887
C111	C	1.487707	0.138167	0.499887
C112	C	1.737707	0.388167	0.749887
C113	C	1.072653	0.367570	-0.000099
C114	C	1.322653	0.617570	0.249901
C115	C	1.572653	0.867570	0.499901
C116	C	1.822653	1.117570	0.749901
C117	C	1.031722	0.418148	0.075944
C118	C	1.281722	0.668148	0.325944
C119	C	1.531722	0.918148	0.575944
C120	C	1.781722	1.168148	0.825944
C121	C	0.993688	0.302531	-0.000086
C122	C	1.243688	0.552531	0.249914
C123	C	1.493688	0.802531	0.499914
C124	C	1.743688	1.052531	0.749914
C125	C	1.031683	0.418105	-0.076108
C126	C	1.281683	0.668105	0.173892
C127	C	1.531683	0.918105	0.423892
C128	C	1.781683	1.168105	0.673892
C129	C	0.990754	0.467441	-0.000101
C130	C	1.240754	0.717441	0.249899
C131	C	1.490754	0.967441	0.499899
C132	C	1.740754	1.217441	0.749899
C133	C	0.952779	0.351881	0.076020
C134	C	1.202779	0.601881	0.326020
C135	C	1.452779	0.851881	0.576020
C136	C	1.702779	1.101881	0.826020
C137	C	0.952751	0.351834	-0.076101
C138	C	1.202751	0.601834	0.173899
C139	C	1.452751	0.851834	0.423899
C140	C	1.702751	1.101834	0.673899
C141	C	0.911763	0.402379	-0.000039
C142	C	1.161763	0.652379	0.249961
C143	C	1.411763	0.902379	0.499961
C144	C	1.661763	1.152379	0.749961
C145	C	0.995381	0.207531	-0.000077
C146	C	1.245381	0.457531	0.249923
C147	C	1.495381	0.707531	0.499923
C148	C	1.745381	0.957531	0.749923
C149	C	0.989055	0.562438	-0.000104
C150	C	1.239055	0.812438	0.249896
C151	C	1.489055	1.062438	0.499896
C152	C	1.739055	1.312438	0.749896
N153	N	0.992196	-0.115038	-0.219573
N154	N	1.242196	0.134962	0.030427
N155	N	1.492196	0.384962	0.280427
N156	N	1.742196	0.634962	0.530427
C157	C	0.932545	-0.174641	-0.469225
C158	C	1.182545	0.075359	-0.219225
C159	C	1.432545	0.325359	0.030775
C160	C	1.682545	0.575359	0.280775
C161	C	1.008441	-0.190949	-0.531036
C162	C	1.258441	0.059051	-0.281036
C163	C	1.508441	0.309051	-0.031036
C164	C	1.758441	0.559051	0.218964
C165	C	0.992216	-0.115018	-0.408734
C166	C	1.242216	0.134982	-0.158734
C167	C	1.492216	0.384982	0.091266
C168	C	1.742216	0.634982	0.341266
C169	C	0.916339	-0.098730	-0.531018
C170	C	1.166339	0.151270	-0.281018
C171	C	1.416339	0.401270	-0.031018
C172	C	1.666339	0.651270	0.218982
C173	C	0.992229	-0.115001	-0.591456
C174	C	1.242229	0.134999	-0.341456
C175	C	1.492229	0.384999	-0.091456
C176	C	1.742229	0.634999	0.158544
C177	C	1.068151	-0.131364	-0.469184
C178	C	1.318151	0.118636	-0.219184
C179	C	1.568151	0.368636	0.030816
C180	C	1.818151	0.618636	0.280816
C181	C	0.975998	-0.039112	-0.469161
C182	C	1.225998	0.210888	-0.219161
C183	C	1.475998	0.460888	0.030839
C184	C	1.725998	0.710888	0.280839
C185	C	1.051950	-0.055388	-0.530944
C186	C	1.301950	0.194612	-0.280944
C187	C	1.551950	0.444612	-0.030944
C188	C	1.801950	0.694612	0.219056
C189	C	0.992207	-0.115030	-0.303473
C190	C	1.242207	0.134970	-0.053473
C191	C	1.492207	0.384970	0.196527
C192	C	1.742207	0.634970	0.446527
C193	C	0.992246	-0.114988	-0.696715
C194	C	1.242246	0.135012	-0.446715
C195	C	1.492246	0.385012	-0.196715
C196	C	1.742246	0.635012	0.053285
N197	N	0.992251	-0.114978	0.219377
N198	N	1.242251	0.135022	0.469377
N199	N	1.492251	0.385022	0.719377
N200	N	1.742251	0.635022	0.969377
H201	H	0.535012	-0.189665	-0.140398
H202	H	0.785012	0.060335	0.109602
H203	H	1.035012	0.310335	0.359602
H204	H	1.285012	0.560335	0.609602
H205	H	0.449460	-0.040334	-0.140385
H206	H	0.699460	0.209666	0.109615
H207	H	0.949460	0.459666	0.359615
H208	H	1.199460	0.709666	0.609615
H209	H	0.919459	0.323069	0.140377
H210	H	1.169459	0.573069	0.390377
H211	H	1.419459	0.823069	0.640377
H212	H	1.669459	1.073069	0.890377
Cl213	Cl	0.901313	0.307085	-0.175355
Cl214	Cl	1.151313	0.557085	0.074645
Cl215	Cl	1.401313	0.807085	0.324645
Cl216	Cl	1.651313	1.057085	0.574645
H217	H	0.852166	-0.084961	-0.558181
H218	H	1.102166	0.165039	-0.308181
H219	H	1.352166	0.415039	-0.058181
H220	H	1.602166	0.665039	0.191819
Cl221	Cl	1.083221	0.462854	0.175192
Cl222	Cl	1.333221	0.712854	0.425192
Cl223	Cl	1.583221	0.962854	0.675192
Cl224	Cl	1.833221	1.212854	0.925192
Cl225	Cl	0.582012	0.068107	0.000030
Cl226	Cl	0.832012	0.318107	0.250030
Cl227	Cl	1.082012	0.568107	0.500030
Cl228	Cl	1.332012	0.818107	0.750030
Cl229	Cl	1.083178	0.462758	-0.175360
Cl230	Cl	1.333178	0.712758	0.074640
Cl231	Cl	1.583178	0.962758	0.324640
Cl232	Cl	1.833178	1.212758	0.574640
H233	H	1.140671	0.351942	-0.000029
H234	H	1.390671	0.601942	0.249971
H235	H	1.640671	0.851942	0.499971
H236	H	1.890671	1.101942	0.749971
Cl237	Cl	0.402676	-0.298244	0.000007
Cl238	Cl	0.652676	-0.048244	0.250007
Cl239	Cl	0.902676	0.201756	0.500007
Cl240	Cl	1.152676	0.451756	0.750007
H241	H	0.962246	0.025052	-0.441962
H242	H	1.212246	0.275052	-0.191962
H243	H	1.462246	0.525052	0.058038
H244	H	1.712246	0.775052	0.308038
Cl245	Cl	0.854716	-0.252545	-0.427378
Cl246	Cl	1.104716	-0.002545	-0.177378
Cl247	Cl	1.354716	0.247455	0.072622
Cl248	Cl	1.604716	0.497455	0.322622
H249	H	0.449453	-0.040295	0.140238
H250	H	0.699453	0.209705	0.390238
H251	H	0.949453	0.459705	0.640238
H252	H	1.199453	0.709705	0.890238
Cl253	Cl	1.029640	-0.290042	-0.572998
Cl254	Cl	1.279640	-0.040042	-0.322998
Cl255	Cl	1.529640	0.209958	-0.072998
Cl256	Cl	1.779640	0.459958	0.177002
H257	H	1.132338	-0.145209	-0.442138
H258	H	1.382338	0.104791	-0.192138
H259	H	1.632338	0.354791	0.057862
H260	H	1.882338	0.604791	0.307862
H261	H	1.102473	-0.004956	-0.557873
H262	H	1.352473	0.245044	-0.307873
H263	H	1.602473	0.495044	-0.057873
H264	H	1.852473	0.745044	0.192127
H265	H	0.534879	-0.189625	0.140369
H266	H	0.784879	0.060375	0.390369
H267	H	1.034879	0.310375	0.640369
H268	H	1.284879	0.560375	0.890369
H269	H	0.843692	0.417845	0.000009
H270	H	1.093692	0.667845	0.250009
H271	H	1.343692	0.917845	0.500009
H272	H	1.593692	1.167845	0.750009
