data_functionalizedCrystal
_audit_creation_method	'MofGen! by Chris Wilmer'
_symmetry_space_group_name_H-M	'P1'
_symmetry_Int_Tables_number	1
_symmetry_cell_setting	triclinic
loop_
_symmetry_equiv_pos_as_xyz
  x,y,z
_cell_length_a	14.044220
_cell_length_b	14.044220
_cell_length_c	13.101039
_cell_angle_alpha	93.667477
_cell_angle_beta	93.659868
_cell_angle_gamma	86.811122
loop_
_atom_site_label
_atom_site_type_symbol
_atom_site_fract_x
_atom_site_fract_y
_atom_site_fract_z
O1	O	1.281968	-0.225348	0.085109
O2	O	1.781968	0.274652	0.585109
O3	O	1.005298	-0.217041	0.085135
O4	O	1.505298	0.282959	0.585135
O5	O	1.139480	-0.082860	0.085112
O6	O	1.639480	0.417140	0.585112
O7	O	1.147787	-0.359530	0.085132
O8	O	1.647787	0.140470	0.585132
O9	O	1.129854	-0.092504	-0.085316
O10	O	1.629854	0.407496	0.414684
O11	O	0.995673	-0.226686	-0.085293
O12	O	1.495673	0.273314	0.414707
O13	O	1.272343	-0.234993	-0.085319
O14	O	1.772343	0.265007	0.414681
Zn15	Zn	1.132479	-0.232371	-0.112365
Zn16	Zn	1.632479	0.267629	0.387635
Zn17	Zn	1.145162	-0.219663	0.112181
Zn18	Zn	1.645162	0.280337	0.612181
O19	O	1.138161	-0.369175	-0.085296
O20	O	1.638161	0.130825	0.414704
C21	C	0.964864	-0.218228	-0.000076
C22	C	1.464864	0.281772	0.499924
C23	C	0.858722	-0.207383	-0.000066
C24	C	1.358722	0.292617	0.499934
C25	C	1.131031	-0.052060	-0.000102
C26	C	1.631031	0.447940	0.499898
C27	C	1.120187	0.054083	-0.000102
C28	C	1.620187	0.554083	0.499898
C29	C	0.664383	-0.187558	-0.000088
C30	C	1.164383	0.312442	0.499912
C31	C	0.613253	-0.264472	-0.000087
C32	C	1.113253	0.235528	0.499913
C33	C	0.505116	-0.253441	-0.000099
C34	C	1.005116	0.246559	0.499901
C35	C	0.772529	-0.198587	-0.000076
C36	C	1.272529	0.301413	0.499924
C37	C	1.312777	-0.233806	-0.000106
C38	C	1.812777	0.266194	0.499894
C39	C	1.418920	-0.244651	-0.000109
C40	C	1.918920	0.255349	0.499891
C41	C	1.146610	-0.399974	-0.000080
C42	C	1.646610	0.100026	0.499920
C43	C	1.157455	-0.506116	-0.000073
C44	C	1.657455	-0.006116	0.499927
N45	N	1.123831	-0.241043	-0.265612
N46	N	1.623831	0.258957	0.234388
C47	C	1.100362	0.248421	-0.000086
C48	C	1.600362	0.748421	0.499914
C49	C	1.177276	0.299551	-0.000090
C50	C	1.677276	0.799551	0.499910
C51	C	1.166245	0.407688	-0.000080
C52	C	1.666245	0.907688	0.499920
C53	C	1.111391	0.140275	-0.000095
C54	C	1.611391	0.640275	0.499905
C55	C	1.112065	-0.252851	-0.474653
C56	C	1.612065	0.247149	0.025347
C57	C	1.165580	-0.199179	-0.525538
C58	C	1.665580	0.300821	-0.025538
C59	C	1.159034	-0.205749	-0.641855
C60	C	1.659034	0.294251	-0.141855
C61	C	1.118610	-0.246282	-0.358325
C62	C	1.618610	0.253718	0.141675
N63	N	1.153817	-0.210984	0.265428
N64	N	1.653817	0.289016	0.765428
H65	H	0.650693	-0.338605	-0.000077
H66	H	1.150693	0.161395	0.499923
O67	O	0.619692	-0.099131	0.000090
O68	O	1.119692	0.400869	0.500090
C69	C	0.567186	-0.083209	0.088340
C70	C	1.067186	0.416791	0.588340
H71	H	0.598517	-0.131561	0.150033
H72	H	1.098517	0.368439	0.650033
H73	H	0.571157	-0.005336	0.117972
H74	H	1.071157	0.494664	0.617972
H75	H	0.489429	-0.099852	0.068378
H76	H	0.989429	0.400148	0.568378
O77	O	1.011858	0.292928	-0.000034
O78	O	1.511858	0.792928	0.499966
C79	C	0.942503	0.224096	-0.000063
C80	C	1.442503	0.724096	0.499937
H81	H	0.976688	0.155959	0.032198
H82	H	1.476688	0.655959	0.532198
H83	H	0.882232	0.252992	0.049419
H84	H	1.382232	0.752992	0.549419
H85	H	0.912506	0.207677	-0.081826
H86	H	1.412506	0.707677	0.418174
O87	O	1.225901	-0.138367	-0.473143
O88	O	1.725901	0.361633	0.026857
C89	C	1.218941	-0.145105	-0.366987
C90	C	1.718941	0.354895	0.133013
H91	H	1.190856	-0.217315	-0.352388
H92	H	1.690856	0.282685	0.147612
H93	H	1.292507	-0.137923	-0.326018
H94	H	1.792507	0.362077	0.173982
H95	H	1.167832	-0.085527	-0.336714
H96	H	1.667832	0.414473	0.163286
O97	O	1.051629	-0.313540	-0.527047
O98	O	1.551629	0.186460	-0.027047
C99	C	1.058460	-0.306661	-0.633201
C100	C	1.558460	0.193339	-0.133201
H101	H	1.130483	-0.278109	-0.647720
H102	H	1.630483	0.221891	-0.147720
H103	H	1.051820	-0.380343	-0.674064
H104	H	1.551820	0.119657	-0.174064
H105	H	0.998602	-0.255970	-0.663659
H106	H	1.498602	0.244030	-0.163659
H107	H	1.251413	0.262115	-0.000028
H108	H	1.751413	0.762115	0.499972
