data_functionalizedCrystal
_audit_creation_method	'MofGen! by Chris Wilmer'
_symmetry_space_group_name_H-M	'P1'
_symmetry_Int_Tables_number	1
_symmetry_cell_setting	triclinic
loop_
_symmetry_equiv_pos_as_xyz
  x,y,z
_cell_length_a	21.395362
_cell_length_b	19.077068
_cell_length_c	21.395355
_cell_angle_alpha	92.279051
_cell_angle_beta	89.956060
_cell_angle_gamma	92.343691
loop_
_atom_site_label
_atom_site_type_symbol
_atom_site_fract_x
_atom_site_fract_y
_atom_site_fract_z
Zn1	Zn	0.947861	-0.279990	-0.364586
Zn2	Zn	1.447861	0.220010	0.135414
Zn3	Zn	0.943561	-0.397672	-0.264012
Zn4	Zn	1.443561	0.102328	0.235988
Zn5	Zn	0.843074	-0.280023	-0.259789
Zn6	Zn	1.343074	0.219977	0.240211
Zn7	Zn	0.838842	-0.397686	-0.368717
Zn8	Zn	1.338842	0.102314	0.131283
O9	O	0.893334	-0.338843	-0.314276
O10	O	1.393334	0.161157	0.185724
O11	O	1.034969	-0.295581	-0.351283
O12	O	1.534969	0.204419	0.148717
O13	O	0.930203	-0.382073	-0.175774
O14	O	1.430203	0.117927	0.324226
O15	O	0.860546	-0.181525	-0.270194
O16	O	1.360546	0.318475	0.229806
O17	O	1.031810	-0.382041	-0.277392
O18	O	1.531810	0.117959	0.222608
O19	O	0.937532	-0.181501	-0.347188
O20	O	1.437532	0.318499	0.152812
O21	O	0.856376	-0.295637	-0.172671
O22	O	1.356376	0.204363	0.327329
O23	O	0.754834	-0.295651	-0.274200
O24	O	1.254834	0.204349	0.225800
O25	O	0.853331	-0.382066	-0.455847
O26	O	1.353331	0.117934	0.044153
O27	O	0.751725	-0.382098	-0.354229
O28	O	1.251725	0.117902	0.145771
O29	O	0.933427	-0.295595	-0.452812
O30	O	1.433427	0.204405	0.047188
O31	O	0.926098	-0.496167	-0.281398
O32	O	1.426098	0.003833	0.218602
O33	O	0.849162	-0.496177	-0.358324
O34	O	1.349162	0.003823	0.141676
C35	C	0.730545	-0.338880	-0.314205
C36	C	1.230545	0.161120	0.185795
C37	C	0.660903	-0.338913	-0.314190
C38	C	1.160903	0.161087	0.185810
C39	C	0.626585	-0.383985	-0.355803
C40	C	1.126585	0.116015	0.144197
C41	C	0.561150	-0.383968	-0.355830
C42	C	1.061150	0.116032	0.144170
C43	C	0.530036	-0.338886	-0.314233
C44	C	1.030036	0.161114	0.185767
C45	C	0.564362	-0.293804	-0.272617
C46	C	1.064362	0.206196	0.227383
C47	C	0.629796	-0.293818	-0.272595
C48	C	1.129796	0.206182	0.227405
C49	C	0.426513	-0.333216	-0.257626
C50	C	0.926513	0.166784	0.242374
C51	C	0.361081	-0.333207	-0.257647
C52	C	0.861081	0.166793	0.242353
C53	C	0.328216	-0.338840	-0.314301
C54	C	0.828216	0.161160	0.185699
C55	C	0.360792	-0.344496	-0.370937
C56	C	0.860792	0.155504	0.129063
C57	C	0.426226	-0.344510	-0.370915
C58	C	0.926226	0.155490	0.129085
C59	C	0.459084	-0.338866	-0.314253
C60	C	0.959084	0.161134	0.185747
C61	C	0.222946	-0.383896	-0.355947
C62	C	0.722946	0.116104	0.144053
C63	C	0.157511	-0.383874	-0.355976
C64	C	0.657511	0.116126	0.144024
C65	C	0.160724	-0.293714	-0.272756
C66	C	0.660724	0.206286	0.227244
C67	C	0.226158	-0.293732	-0.272734
C68	C	0.726158	0.206268	0.227266
C69	C	0.257266	-0.338827	-0.314328
C70	C	0.757266	0.161173	0.185672
C71	C	0.886721	-0.521710	-0.320781
C72	C	1.386721	-0.021710	0.179219
C73	C	0.883949	-0.599942	-0.323585
C74	C	1.383949	-0.099942	0.176415
C75	C	0.922735	-0.636666	-0.284884
C76	C	1.422735	-0.136666	0.215116
C77	C	0.920132	-0.710173	-0.287525
C78	C	1.420132	-0.210173	0.212475
C79	C	0.878739	-0.746954	-0.328864
C80	C	1.378739	-0.246954	0.171136
C81	C	0.839952	-0.710224	-0.367570
C82	C	1.339952	-0.210224	0.132430
C83	C	0.842559	-0.636719	-0.364931
C84	C	1.342559	-0.136719	0.135069
C85	C	0.866647	-0.966795	-0.341049
C86	C	1.366647	-0.466795	0.158951
C87	C	0.864041	-1.040305	-0.343683
C88	C	1.364041	-0.540305	0.156317
C89	C	0.944222	-1.040249	-0.263639
C90	C	1.444222	-0.540249	0.236361
C91	C	0.946823	-0.966742	-0.261002
C92	C	1.446823	-0.466742	0.238998
C93	C	0.908038	-0.930019	-0.299709
C94	C	1.408038	-0.430019	0.200291
N95	N	0.876076	-0.822090	-0.331564
N96	N	1.376076	-0.322090	0.168436
N97	N	0.910705	-0.854884	-0.297013
N98	N	1.410705	-0.354884	0.202987
C99	C	1.056759	-0.338806	-0.314348
C100	C	1.556759	0.161194	0.185652
C101	C	1.126401	-0.338790	-0.314379
C102	C	1.626401	0.161210	0.185621
C103	C	0.893387	-0.338828	-0.477699
C104	C	1.393387	0.161172	0.022301
C105	C	0.893409	-0.338822	-0.547340
C106	C	1.393409	0.161178	-0.047340
C107	C	0.899990	-0.155261	-0.307759
C108	C	1.399990	0.344739	0.192241
C109	C	0.902827	-0.077030	-0.304982
C110	C	1.402827	0.422970	0.195018
C111	C	0.935113	-0.293795	-0.578474
C112	C	1.435113	0.206205	-0.078474
C113	C	0.935114	-0.293765	-0.643908
C114	C	1.435114	0.206235	-0.143908
C115	C	0.893416	-0.338774	-0.678207
C116	C	1.393416	0.161226	-0.178207
C117	C	0.851704	-0.383805	-0.647065
C118	C	1.351704	0.116195	-0.147065
C119	C	0.851700	-0.383829	-0.581632
C120	C	1.351700	0.116171	-0.081632
C121	C	0.886177	-0.402150	-0.784134
C122	C	1.386177	0.097850	-0.284134
C123	C	0.886184	-0.402127	-0.849566
C124	C	1.386184	0.097873	-0.349566
C125	C	0.893422	-0.338700	-0.880025
C126	C	1.393422	0.161300	-0.380025
C127	C	0.900666	-0.275294	-0.845043
C128	C	1.400666	0.224706	-0.345043
C129	C	0.900663	-0.275318	-0.779610
C130	C	1.400663	0.224682	-0.279610
C131	C	0.893414	-0.338753	-0.749158
C132	C	1.393414	0.161247	-0.249158
C133	C	0.935129	-0.293636	-0.982110
C134	C	1.435129	0.206364	-0.482110
C135	C	0.935125	-0.293605	-1.047545
C136	C	1.435125	0.206395	-0.547545
C137	C	0.851718	-0.383651	-1.050701
C138	C	1.351718	0.116349	-0.550701
C139	C	0.851719	-0.383676	-0.985267
C140	C	1.351719	0.116324	-0.485267
C141	C	0.893428	-0.338670	-0.950975
C142	C	1.393428	0.161330	-0.450975
C143	C	0.893320	-0.338806	-0.151487
C144	C	1.393320	0.161194	0.348513
C145	C	0.893426	-0.338614	-0.081839
C146	C	1.393426	0.161386	0.418161
H147	H	0.453266	-0.328626	-0.211488
H148	H	0.953266	0.171374	0.288512
N149	N	0.986054	-1.079865	-0.221901
N150	N	1.486054	-0.579865	0.278099
H151	H	1.031271	-1.067012	-0.231227
H152	H	1.531271	-0.567012	0.268773
H153	H	0.976746	-1.067097	-0.176680
H154	H	1.476746	-0.567097	0.323320
N155	N	0.878377	-0.470511	-0.887294
N156	N	1.378377	0.029489	-0.387294
H157	H	0.873783	-0.510695	-0.858071
H158	H	1.373783	-0.010695	-0.358071
H159	H	0.839810	-0.469494	-0.914380
H160	H	1.339810	0.030506	-0.414380
H161	H	0.810976	-0.606818	-0.396447
H162	H	1.310976	-0.106818	0.103553
N163	N	0.991474	-0.927075	-0.216420
N164	N	1.491474	-0.427075	0.283580
H165	H	0.987239	-0.874937	-0.220620
H166	H	1.487239	-0.374937	0.279380
H167	H	0.981288	-0.939960	-0.172122
H168	H	1.481288	-0.439960	0.327878
N169	N	0.325946	-0.327109	-0.196566
N170	N	0.825946	0.172891	0.303434
H171	H	0.335818	-0.367759	-0.169906
H172	H	0.835818	0.132241	0.330094
H173	H	0.338991	-0.281499	-0.173742
H174	H	0.838991	0.218501	0.326258
H175	H	0.129570	-0.420576	-0.389866
H176	H	0.629570	0.079424	0.110134
N177	N	0.967379	-0.596994	-0.240298
N178	N	1.467379	-0.096994	0.259702
H179	H	0.957218	-0.609825	-0.195979
H180	H	1.457218	-0.109825	0.304021
H181	H	1.011672	-0.609741	-0.250599
H182	H	1.511672	-0.109741	0.249401
H183	H	0.452747	-0.349113	-0.417029
H184	H	0.952747	0.150887	0.082971
N185	N	0.530807	-0.245185	-0.227746
N186	N	1.030807	0.254815	0.272254
H187	H	0.541754	-0.256047	-0.183348
H188	H	1.041754	0.243953	0.316652
H189	H	0.544057	-0.194933	-0.235811
H190	H	1.044057	0.305067	0.264189
N191	N	0.795303	-0.749894	-0.412153
N192	N	1.295303	-0.249894	0.087847
H193	H	0.771128	-0.715473	-0.436270
H194	H	1.271128	-0.215473	0.063730
H195	H	0.819711	-0.780346	-0.442273
H196	H	1.319711	-0.280346	0.057727
H197	H	0.817763	-0.420347	-0.959918
H198	H	1.317763	0.079653	-0.459918
N199	N	0.666819	-0.245210	-0.227707
N200	N	1.166819	0.254790	0.272293
H201	H	0.695190	-0.212645	-0.252051
H202	H	1.195190	0.287355	0.247949
H203	H	0.637145	-0.216690	-0.201368
H204	H	1.137145	0.283310	0.298632
H205	H	0.835065	-0.936900	-0.372565
H206	H	1.335065	-0.436900	0.127435
H207	H	0.969075	-0.257146	-0.550557
H208	H	1.469075	0.242854	-0.050557
N209	N	0.819394	-1.079979	-0.388272
N210	N	1.319394	-0.579979	0.111728
H211	H	0.795220	-1.045562	-0.412394
H212	H	1.295220	-0.545562	0.087606
H213	H	0.843807	-1.110431	-0.418387
H214	H	1.343807	-0.610431	0.081613
N215	N	0.961964	-0.749784	-0.245784
N216	N	1.461964	-0.249784	0.254216
H217	H	0.988578	-0.715329	-0.219192
H218	H	1.488578	-0.215329	0.280808
H219	H	0.935389	-0.780331	-0.217855
H220	H	1.435389	-0.280331	0.282145
H221	H	0.969073	-0.257094	-0.669262
H222	H	1.469073	0.242906	-0.169262
H223	H	0.880115	-0.453787	-0.759340
H224	H	1.380115	0.046213	-0.259340
N225	N	0.980121	-0.245100	-0.945126
N226	N	1.480121	0.254900	-0.445126
H227	H	1.008119	-0.273718	-0.919032
H228	H	1.508119	0.226282	-0.419032
H229	H	1.006495	-0.216585	-0.974828
H230	H	1.506495	0.283415	-0.474828
H231	H	0.969085	-0.256934	-1.072893
H232	H	1.469085	0.243066	-0.572893
N233	N	0.263183	-0.245129	-0.227846
N234	N	0.763183	0.254871	0.272154
H235	H	0.291552	-0.212562	-0.252190
H236	H	0.791552	0.287438	0.247810
H237	H	0.233509	-0.216610	-0.201504
H238	H	0.733509	0.283390	0.298496
H239	H	0.906559	-0.223690	-0.751130
H240	H	1.406559	0.276310	-0.251130
N241	N	0.325357	-0.350576	-0.432048
N242	N	0.825357	0.149424	0.067952
H243	H	0.278962	-0.349706	-0.423471
H244	H	0.778962	0.150294	0.076529
H245	H	0.338317	-0.309924	-0.458669
H246	H	0.838317	0.190076	0.041331
H247	H	0.906561	-0.223645	-0.869841
H248	H	1.406561	0.276355	-0.369841
N249	N	0.806719	-0.432340	-0.684054
N250	N	1.306719	0.067660	-0.184054
H251	H	0.813048	-0.425492	-0.730230
H252	H	1.313048	0.074508	-0.230230
H253	H	0.814638	-0.482613	-0.674422
H254	H	1.314638	0.017387	-0.174422
N255	N	0.806741	-0.432192	-1.087690
N256	N	1.306741	0.067808	-0.587690
H257	H	0.831021	-0.464793	-1.116023
H258	H	1.331021	0.035207	-0.616023
H259	H	0.780330	-0.460677	-1.057995
H260	H	1.280330	0.039323	-0.557995
N261	N	0.660136	-0.432621	-0.400664
N262	N	1.160136	0.067379	0.099336
H263	H	0.628462	-0.461172	-0.427031
H264	H	1.128462	0.038828	0.072969
H265	H	0.688364	-0.404027	-0.428677
H266	H	1.188364	0.095973	0.071323
N267	N	0.524120	-0.432584	-0.400711
N268	N	1.024120	0.067416	0.099289
H269	H	0.535950	-0.421737	-0.445107
H270	H	1.035950	0.078263	0.054893
H271	H	0.533669	-0.482839	-0.392633
H272	H	1.033669	0.017161	0.107367
N273	N	0.256504	-0.432528	-0.400809
N274	N	0.756504	0.067472	0.099191
H275	H	0.224832	-0.461076	-0.427180
H276	H	0.724832	0.038924	0.072820
H277	H	0.284735	-0.403933	-0.428818
H278	H	0.784735	0.096067	0.071182
N279	N	0.127175	-0.245082	-0.227894
N280	N	0.627175	0.254918	0.272106
H281	H	0.080515	-0.251911	-0.234223
H282	H	0.580515	0.248089	0.265777
H283	H	0.138163	-0.255964	-0.183513
H284	H	0.638163	0.244036	0.316487
N285	N	0.806709	-0.432386	-0.548047
N286	N	1.306709	0.067614	-0.048047
H287	H	0.780288	-0.460892	-0.579701
H288	H	1.280288	0.039108	-0.079701
H289	H	0.831023	-0.464967	-0.522077
H290	H	1.331023	0.035033	-0.022077
