data_functionalizedCrystal
_audit_creation_method	'MofGen! by Chris Wilmer'
_symmetry_space_group_name_H-M	'P1'
_symmetry_Int_Tables_number	1
_symmetry_cell_setting	triclinic
loop_
_symmetry_equiv_pos_as_xyz
  x,y,z
_cell_length_a	12.759401
_cell_length_b	18.215405
_cell_length_c	18.215399
_cell_angle_alpha	89.967040
_cell_angle_beta	89.985126
_cell_angle_gamma	90.026410
loop_
_atom_site_label
_atom_site_type_symbol
_atom_site_fract_x
_atom_site_fract_y
_atom_site_fract_z
Zn1	Zn	1.606129	-0.292944	-0.416064
Zn2	Zn	2.106129	0.207056	0.083936
Zn3	Zn	1.606008	-0.416021	-0.292992
Zn4	Zn	2.106008	0.083979	0.207008
Zn5	Zn	1.430446	-0.292976	-0.293016
Zn6	Zn	1.930446	0.207024	0.206984
Zn7	Zn	1.430389	-0.415977	-0.416022
Zn8	Zn	1.930389	0.084023	0.083978
O9	O	1.518243	-0.354480	-0.354524
O10	O	2.018243	0.145520	0.145476
O11	O	1.753134	-0.309276	-0.399747
O12	O	2.253134	0.190724	0.100253
O13	O	1.582692	-0.399730	-0.190011
O14	O	2.082692	0.100270	0.309989
O15	O	1.453826	-0.189988	-0.309366
O16	O	1.953826	0.310012	0.190634
O17	O	1.753045	-0.399700	-0.309326
O18	O	2.253045	0.100300	0.190674
O19	O	1.582900	-0.189964	-0.399769
O20	O	2.082900	0.310036	0.100231
O21	O	1.453708	-0.309330	-0.190028
O22	O	1.953708	0.190670	0.309972
O23	O	1.283418	-0.309287	-0.309325
O24	O	1.783418	0.190713	0.190675
O25	O	1.453728	-0.399625	-0.519011
O26	O	1.953728	0.100375	-0.019011
O27	O	1.283375	-0.399656	-0.399696
O28	O	1.783375	0.100344	0.100304
O29	O	1.582843	-0.309233	-0.519043
O30	O	2.082843	0.190767	-0.019043
O31	O	1.582636	-0.518999	-0.309285
O32	O	2.082636	-0.018999	0.190715
O33	O	1.453610	-0.518967	-0.399674
O34	O	1.953610	-0.018967	0.100326
C35	C	1.245276	-0.354471	-0.354509
C36	C	1.745276	0.145529	0.145491
C37	C	1.128499	-0.354484	-0.354520
C38	C	1.628499	0.145516	0.145480
C39	C	1.073642	-0.401611	-0.401503
C40	C	1.573642	0.098389	0.098497
C41	C	0.963918	-0.401614	-0.401517
C42	C	1.463918	0.098386	0.098483
C43	C	0.963917	-0.307362	-0.307560
C44	C	1.463917	0.192638	0.192440
C45	C	1.073639	-0.307356	-0.307550
C46	C	1.573639	0.192644	0.192450
C47	C	1.518132	-0.545686	-0.354488
C48	C	2.018132	-0.045686	0.145512
C49	C	1.518181	-0.627485	-0.354498
C50	C	2.018181	-0.127485	0.145502
C51	C	1.585522	-0.815671	-0.307519
C52	C	2.085522	-0.315671	0.192481
C53	C	1.585569	-0.892530	-0.307536
C54	C	2.085569	-0.392530	0.192464
C55	C	1.451098	-0.892536	-0.401581
C56	C	1.951098	-0.392536	0.098419
C57	C	1.451057	-0.815679	-0.401567
C58	C	1.951057	-0.315679	0.098433
C59	C	1.518268	-0.777248	-0.354531
C60	C	2.018268	-0.277248	0.145469
C61	C	1.518356	-0.930964	-0.354564
C62	C	2.018356	-0.430964	0.145436
C63	C	1.518406	-1.014298	-0.354583
C64	C	2.018406	-0.514298	0.145417
C65	C	1.518219	-0.693909	-0.354512
C66	C	2.018219	-0.193909	0.145488
C67	C	1.792276	-0.354489	-0.354539
C68	C	2.292276	0.145511	0.145461
C69	C	1.909053	-0.354493	-0.354545
C70	C	2.409053	0.145507	0.145455
C71	C	1.518293	-0.354421	-0.546477
C72	C	2.018293	0.145579	-0.046477
C73	C	1.518314	-0.354396	-0.628275
C74	C	2.018314	0.145604	-0.128275
C75	C	1.518383	-0.162527	-0.354575
C76	C	2.018383	0.337473	0.145425
C77	C	1.518443	-0.080728	-0.354597
C78	C	2.018443	0.419272	0.145403
C79	C	1.451209	-0.307292	-0.816479
C80	C	1.951209	0.192708	-0.316479
C81	C	1.451227	-0.307278	-0.893338
C82	C	1.951227	0.192722	-0.393338
C83	C	1.585545	-0.401411	-0.893310
C84	C	2.085545	0.098589	-0.393310
C85	C	1.585520	-0.401429	-0.816452
C86	C	2.085520	0.098571	-0.316452
C87	C	1.518354	-0.354366	-0.778039
C88	C	2.018354	0.145634	-0.278039
C89	C	1.518396	-0.354333	-0.931755
C90	C	2.018396	0.145667	-0.431755
C91	C	1.518417	-0.354317	-1.015089
C92	C	2.018417	0.145683	-0.515089
C93	C	1.518332	-0.354382	-0.694700
C94	C	2.018332	0.145618	-0.194700
C95	C	1.518254	-0.354485	-0.163317
C96	C	2.018254	0.145515	0.336683
C97	C	1.518436	-0.354303	-0.081519
C98	C	2.018436	0.145697	0.418481
H99	H	1.118306	-0.439984	-0.439750
H100	H	1.618306	0.060016	0.060250
C101	C	0.903581	-0.453463	-0.453195
C102	C	1.403581	0.046537	0.046805
N103	N	0.858136	-0.492521	-0.492119
N104	N	1.358136	0.007479	0.007881
C105	C	1.377158	-0.934817	-0.453309
C106	C	1.877158	-0.434817	0.046691
N107	N	1.321461	-0.966662	-0.492269
N108	N	1.821461	-0.466662	0.007731
C109	C	1.659551	-0.934791	-0.255816
C110	C	2.159551	-0.434791	0.244184
N111	N	1.715276	-0.966622	-0.216857
N112	N	2.215276	-0.466622	0.283143
C113	C	0.903561	-0.255527	-0.255892
C114	C	1.403561	0.244473	0.244108
N115	N	0.858102	-0.216485	-0.216973
N116	N	1.358102	0.283515	0.283027
C117	C	1.133985	-0.255510	-0.255863
C118	C	1.633985	0.244490	0.244137
N119	N	1.179437	-0.216461	-0.216935
N120	N	1.679437	0.283539	0.283065
H121	H	1.396549	-0.268946	-0.924633
H122	H	1.896549	0.231054	-0.424633
C123	C	1.659462	-0.773400	-0.255782
C124	C	2.159462	-0.273400	0.244218
N125	N	1.715158	-0.741564	-0.216815
N126	N	2.215158	-0.241564	0.283185
C127	C	1.659193	-0.453339	-0.935571
C128	C	2.159193	0.046661	-0.435571
N129	N	1.714583	-0.492511	-0.967401
N130	N	2.214583	0.007489	-0.467401
C131	C	1.659408	-0.453203	-0.774165
C132	C	2.159408	0.046797	-0.274165
N133	N	1.715064	-0.492193	-0.742315
N134	N	2.215064	0.007807	-0.242315
H135	H	1.396290	-0.784393	-0.439853
H136	H	1.896290	-0.284393	0.060147
C137	C	1.377315	-0.255527	-0.774228
C138	C	1.877315	0.244473	-0.274228
N139	N	1.321653	-0.216538	-0.742406
N140	N	1.821653	0.283462	-0.242406
