data_functionalizedCrystal
_audit_creation_method	'MofGen! by Chris Wilmer'
_symmetry_space_group_name_H-M	'P1'
_symmetry_Int_Tables_number	1
_symmetry_cell_setting	triclinic
loop_
_symmetry_equiv_pos_as_xyz
  x,y,z
_cell_length_a	23.532407
_cell_length_b	19.288864
_cell_length_c	22.010155
_cell_angle_alpha	90.028244
_cell_angle_beta	90.002880
_cell_angle_gamma	82.992461
loop_
_atom_site_label
_atom_site_type_symbol
_atom_site_fract_x
_atom_site_fract_y
_atom_site_fract_z
O1	O	0.071038	0.921140	0.050726
O2	O	0.404371	1.254474	0.384059
O3	O	0.737705	1.587807	0.717393
O4	O	0.080622	0.718850	0.050685
O5	O	0.413955	1.052183	0.384019
O6	O	0.747288	1.385517	0.717352
O7	O	-0.007089	0.826095	0.050696
O8	O	0.326244	1.159428	0.384029
O9	O	0.659577	1.492762	0.717362
O10	O	0.158749	0.813895	0.050716
O11	O	0.492082	1.147228	0.384049
O12	O	0.825416	1.480562	0.717382
O13	O	-0.007079	0.826064	-0.050355
O14	O	0.326254	1.159397	0.282979
O15	O	0.659588	1.492731	0.616312
O16	O	0.080632	0.718819	-0.050365
O17	O	0.413965	1.052152	0.282968
O18	O	0.747299	1.385486	0.616302
O19	O	0.071048	0.921109	-0.050324
O20	O	0.404381	1.254442	0.283009
O21	O	0.737715	1.587776	0.616342
Cu22	Cu	0.075841	0.819961	-0.059571
Cu23	Cu	0.409174	1.153295	0.273762
Cu24	Cu	0.742508	1.486628	0.607095
Cu25	Cu	0.075829	0.819998	0.059932
Cu26	Cu	0.409162	1.153331	0.393266
Cu27	Cu	0.742496	1.486665	0.726599
O28	O	0.158759	0.813864	-0.050335
O29	O	0.492092	1.147197	0.282999
O30	O	0.825426	1.480531	0.616332
C31	C	0.080319	0.692959	0.000155
C32	C	0.413652	1.026292	0.333488
C33	C	0.746985	1.359626	0.666821
C34	C	0.079393	0.615858	0.000139
C35	C	0.412726	0.949192	0.333472
C36	C	0.746059	1.282525	0.666805
C37	C	0.130858	0.571003	0.000154
C38	C	0.464191	0.904337	0.333488
C39	C	0.797524	1.237670	0.666821
C40	C	0.129988	0.498559	0.000161
C41	C	0.463321	0.831892	0.333494
C42	C	0.796655	1.165226	0.666828
C43	C	0.077651	0.470973	0.000164
C44	C	0.410984	0.804306	0.333498
C45	C	0.744317	1.137639	0.666831
C46	C	0.026179	0.515838	0.000145
C47	C	0.359512	0.849171	0.333478
C48	C	0.692846	1.182504	0.666812
C49	C	0.027050	0.588280	0.000132
C50	C	0.360383	0.921614	0.333466
C51	C	0.693717	1.254947	0.666799
C52	C	0.036504	0.362848	0.035582
C53	C	0.369837	0.696182	0.368915
C54	C	0.703171	1.029515	0.702249
C55	C	0.035635	0.290407	0.035599
C56	C	0.368968	0.623740	0.368932
C57	C	0.702302	0.957073	0.702265
C58	C	0.074961	0.247535	0.000201
C59	C	0.408295	0.580869	0.333534
C60	C	0.741628	0.914202	0.666867
C61	C	0.115167	0.277113	-0.035206
C62	C	0.448500	0.610447	0.298127
C63	C	0.781833	0.943780	0.631461
C64	C	0.116038	0.349556	-0.035219
C65	C	0.449371	0.682889	0.298115
C66	C	0.782705	1.016223	0.631448
C67	C	0.076700	0.392422	0.000178
C68	C	0.410033	0.725755	0.333511
C69	C	0.743367	1.059088	0.666844
C70	C	0.125487	0.124127	0.000223
C71	C	0.458820	0.457461	0.333556
C72	C	0.792154	0.790794	0.666889
C73	C	0.124615	0.051682	0.000226
C74	C	0.457948	0.385015	0.333559
C75	C	0.791282	0.718349	0.666892
C76	C	0.020805	0.068962	0.000216
C77	C	0.354138	0.402296	0.333549
C78	C	0.687471	0.735629	0.666882
C79	C	0.021678	0.141406	0.000207
C80	C	0.355011	0.474739	0.333540
C81	C	0.688345	0.808073	0.666873
C82	C	0.074021	0.168984	0.000213
C83	C	0.407354	0.502317	0.333546
C84	C	0.740687	0.835651	0.666880
C85	C	-0.028301	0.825769	0.000169
C86	C	0.305033	1.159102	0.333502
C87	C	0.638366	1.492436	0.666836
C88	C	-0.091520	0.824835	0.000164
C89	C	0.241814	1.158168	0.333497
C90	C	0.575147	1.491502	0.666831
C91	C	-0.490503	0.882442	0.000209
C92	C	-0.157170	1.215775	0.333542
C93	C	0.176163	1.549108	0.666876
C94	C	-0.549905	0.881574	0.000213
C95	C	-0.216572	1.214907	0.333547
C96	C	0.116761	1.548241	0.666880
O97	O	-0.586539	0.934976	0.000247
O98	O	-0.253206	1.268309	0.333580
O99	O	0.080127	1.601643	0.666913
N100	N	-0.572664	0.817817	0.000200
N101	N	-0.239330	1.151150	0.333534
N102	N	0.094003	1.484483	0.666867
C103	C	-0.536017	0.754923	0.000189
C104	C	-0.202683	1.088257	0.333522
C105	C	0.130650	1.421590	0.666855
O106	O	-0.560829	0.700613	0.000178
O107	O	-0.227495	1.033946	0.333512
O108	O	0.105838	1.367280	0.666845
C109	C	-0.476616	0.755792	0.000189
C110	C	-0.143282	1.089125	0.333522
C111	C	0.190051	1.422458	0.666855
C112	C	-0.453861	0.819553	0.000196
C113	C	-0.120528	1.152886	0.333529
C114	C	0.212806	1.486220	0.666862
C115	C	-0.467748	0.946198	0.000217
C116	C	-0.134415	1.279531	0.333550
C117	C	0.198919	1.612865	0.666884
C118	C	-0.408350	0.947065	0.000211
C119	C	-0.075017	1.280399	0.333545
C120	C	0.258317	1.613732	0.666878
C121	C	-0.371707	0.884177	0.000198
C122	C	-0.038374	1.217510	0.333531
C123	C	0.294959	1.550843	0.666865
C124	C	-0.394463	0.820420	0.000190
C125	C	-0.061130	1.153754	0.333523
C126	C	0.272204	1.487087	0.666857
C127	C	-0.439970	0.692899	0.000181
C128	C	-0.106636	1.026232	0.333515
C129	C	0.226697	1.359565	0.666848
C130	C	-0.380565	0.693773	0.000182
C131	C	-0.047232	1.027106	0.333515
C132	C	0.286101	1.360439	0.666848
C133	C	-0.357810	0.757534	0.000189
C134	C	-0.024477	1.090867	0.333522
C135	C	0.308856	1.424201	0.666856
C136	C	-0.298422	0.758399	0.000171
C137	C	0.034911	1.091732	0.333505
C138	C	0.368244	1.425066	0.666838
N139	N	-0.275664	0.822156	0.000184
N140	N	0.057669	1.155490	0.333518
N141	N	0.391003	1.488823	0.666851
C142	C	-0.312307	0.885045	0.000198
C143	C	0.021027	1.218378	0.333531
C144	C	0.354360	1.551712	0.666864
C145	C	-0.660763	0.753104	0.000190
C146	C	-0.327430	1.086438	0.333523
C147	C	0.005904	1.419771	0.666857
C148	C	-0.720163	0.752235	0.000186
C149	C	-0.386829	1.085568	0.333519
C150	C	-0.053496	1.418902	0.666852
C151	C	-0.734047	0.878886	0.000212
C152	C	-0.400714	1.212220	0.333545
C153	C	-0.067381	1.545553	0.666878
C154	C	-0.674647	0.879755	0.000212
C155	C	-0.341313	1.213088	0.333545
C156	C	-0.007980	1.546421	0.666878
C157	C	-0.638005	0.816861	0.000203
C158	C	-0.304671	1.150195	0.333537
C159	C	0.028662	1.483528	0.666870
C160	C	-0.187566	0.886862	0.000186
C161	C	0.145767	1.220195	0.333519
C162	C	0.479101	1.553528	0.666852
C163	C	-0.128162	0.887724	0.000178
C164	C	0.205171	1.221057	0.333511
C165	C	0.538504	1.554390	0.666844
C166	C	-0.114283	0.761073	0.000155
C167	C	0.219051	1.094406	0.333488
C168	C	0.552384	1.427740	0.666821
C169	C	-0.173681	0.760211	0.000160
C170	C	0.159652	1.093544	0.333493
C171	C	0.492985	1.426877	0.666826
C172	C	-0.210322	0.823111	0.000177
C173	C	0.123011	1.156444	0.333510
C174	C	0.456345	1.489777	0.666844
O175	O	-0.261754	0.705025	0.000141
O176	O	0.071579	1.038358	0.333474
O177	O	0.404913	1.371692	0.666807
O178	O	-0.287486	0.939346	0.000216
O179	O	0.045847	1.272680	0.333549
O180	O	0.379181	1.606013	0.666883
C181	C	0.179971	0.814190	0.000193
C182	C	0.513304	1.147523	0.333527
C183	C	0.846637	1.480857	0.666860
C184	C	0.243190	0.815124	0.000202
C185	C	0.576523	1.148458	0.333536
C186	C	0.909856	1.481791	0.666869
C187	C	0.071351	0.947000	0.000208
C188	C	0.404685	1.280333	0.333541
C189	C	0.738018	1.613667	0.666874
C190	C	0.072277	1.024101	0.000228
C191	C	0.405610	1.357434	0.333561
C192	C	0.738944	1.690768	0.666894
N193	N	0.075849	0.819940	-0.143624
N194	N	0.409183	1.153274	0.189709
N195	N	0.742516	1.486607	0.523043
C196	C	0.041371	0.778096	-0.436242
C197	C	0.374704	1.111429	-0.102909
C198	C	0.708038	1.444763	0.230425
C199	C	0.041373	0.778090	-0.372634
C200	C	0.374707	1.111423	-0.039301
C201	C	0.708040	1.444757	0.294032
O202	O	0.012060	0.742486	-0.339748
O203	O	0.345393	1.075819	-0.006415
O204	O	0.678727	1.409152	0.326918
N205	N	0.075831	0.819968	-0.340808
N206	N	0.409165	1.153301	-0.007475
N207	N	0.742498	1.486635	0.325859
C208	C	0.110285	0.861860	-0.372592
C209	C	0.443618	1.195193	-0.039259
C210	C	0.776951	1.528527	0.294074
O211	O	0.139594	0.897480	-0.339681
O212	O	0.472927	1.230814	-0.006347
O213	O	0.806261	1.564147	0.326986
C214	C	0.110279	0.861869	-0.436199
C215	C	0.443612	1.195203	-0.102866
C216	C	0.776945	1.528536	0.230468
C217	C	0.075823	0.819983	-0.468022
C218	C	0.409156	1.153317	-0.134689
C219	C	0.742489	1.486650	0.198645
C220	C	0.006917	0.736214	-0.468065
C221	C	0.340251	1.069547	-0.134732
C222	C	0.673584	1.402881	0.198601
C223	C	0.006916	0.736219	-0.531669
C224	C	0.340249	1.069553	-0.198335
C225	C	0.673582	1.402886	0.134998
C226	C	0.041368	0.778107	-0.563449
C227	C	0.374701	1.111440	-0.230115
C228	C	0.708034	1.444773	0.103218
C229	C	0.075821	0.819989	-0.531625
C230	C	0.409155	1.153322	-0.198292
C231	C	0.742488	1.486655	0.135041
C232	C	0.144729	0.903765	-0.467982
C233	C	0.478062	1.237098	-0.134649
C234	C	0.811395	1.570431	0.198685
C235	C	0.144719	0.903771	-0.531593
C236	C	0.478053	1.237104	-0.198260
C237	C	0.811386	1.570438	0.135074
C238	C	0.110263	0.861885	-0.563416
C239	C	0.443597	1.195218	-0.230083
C240	C	0.776930	1.528552	0.103251
C241	C	0.110271	0.861881	-0.627008
C242	C	0.443605	1.195215	-0.293675
C243	C	0.776938	1.528548	0.039658
N244	N	0.075813	0.820003	-0.658835
N245	N	0.409147	1.153337	-0.325502
N246	N	0.742480	1.486670	0.007832
C247	C	0.041362	0.778116	-0.627055
C248	C	0.374695	1.111449	-0.293722
C249	C	0.708028	1.444783	0.039612
C250	C	0.110294	0.861838	-0.239015
C251	C	0.443627	1.195171	0.094319
C252	C	0.776961	1.528505	0.427652
C253	C	0.110304	0.861825	-0.175409
C254	C	0.443637	1.195159	0.157924
C255	C	0.776970	1.528492	0.491257
C256	C	0.041391	0.778056	-0.175456
C257	C	0.374725	1.111389	0.157878
C258	C	0.708058	1.444723	0.491211
C259	C	0.041385	0.778065	-0.239062
C260	C	0.374719	1.111399	0.094271
C261	C	0.708052	1.444732	0.427604
C262	C	0.075836	0.819960	-0.270841
C263	C	0.409169	1.153293	0.062492
C264	C	0.742503	1.486627	0.395826
C265	C	0.041361	0.778130	-0.760626
C266	C	0.374694	1.111463	-0.427293
C267	C	0.708028	1.444797	-0.093960
C268	C	0.041364	0.778137	-0.824235
C269	C	0.374698	1.111470	-0.490902
C270	C	0.708031	1.444804	-0.157568
C271	C	0.110274	0.861909	-0.824183
C272	C	0.443607	1.195242	-0.490850
C273	C	0.776941	1.528575	-0.157516
C274	C	0.110273	0.861899	-0.760580
C275	C	0.443607	1.195233	-0.427247
C276	C	0.776940	1.528566	-0.093913
C277	C	0.075812	0.820008	-0.728803
C278	C	0.409146	1.153341	-0.395470
C279	C	0.742479	1.486675	-0.062136
O280	O	0.139568	0.897469	-0.659935
O281	O	0.472902	1.230803	-0.326602
O282	O	0.806235	1.564136	0.006732
O283	O	0.012052	0.742509	-0.659974
O284	O	0.345385	1.075842	-0.326641
O285	O	0.678718	1.409175	0.006692
N286	N	0.075816	0.820024	0.143985
N287	N	0.409150	1.153358	0.477318
N288	N	0.742483	1.486691	0.810652
H289	H	-0.016435	0.493372	0.000156
H290	H	0.316899	0.826706	0.333489
H291	H	0.650232	1.160039	0.666823
N292	N	0.159392	0.381465	-0.073408
N293	N	0.492725	0.714798	0.259926
N294	N	0.826059	1.048131	0.593259
H295	H	0.199312	0.362203	-0.060189
H296	H	0.532645	0.695536	0.273145
H297	H	0.865978	1.028869	0.606478
H298	H	0.153888	0.369700	-0.117569
H299	H	0.487221	0.703033	0.215764
H300	H	0.820554	1.036366	0.549097
N301	N	-0.198229	0.691443	0.000150
N302	N	0.135104	1.024776	0.333483
N303	N	0.468437	1.358109	0.666816
H304	H	-0.222571	0.688245	-0.037306
H305	H	0.110762	1.021579	0.296027
H306	H	0.444095	1.354912	0.629361
H307	H	-0.165970	0.651776	0.000161
H308	H	0.167364	0.985109	0.333495
H309	H	0.500697	1.318442	0.666828
N310	N	-0.007730	0.258510	0.073782
N311	N	0.325604	0.591844	0.407116
N312	N	0.658937	0.925177	0.740449
H313	H	-0.002313	0.206113	0.068423
H314	H	0.331021	0.539446	0.401756
H315	H	0.664354	0.872780	0.735090
H316	H	-0.002262	0.270325	0.117940
H317	H	0.331072	0.603658	0.451273
H318	H	0.664405	0.936991	0.784606
H319	H	-0.458486	0.640978	0.000179
H320	H	-0.125152	0.974311	0.333513
H321	H	0.208181	1.307644	0.666846
N322	N	0.147459	0.907014	-0.273296
N323	N	0.480792	1.240348	0.060037
N324	N	0.814126	1.573681	0.393370
H325	H	0.122590	0.941188	-0.299667
H326	H	0.455924	1.274521	0.033666
H327	H	0.789257	1.607854	0.366999
H328	H	0.169284	0.933496	-0.243446
H329	H	0.502618	1.266830	0.089887
H330	H	0.835951	1.600163	0.423220
N331	N	-0.744702	0.683465	0.000161
N332	N	-0.411369	1.016798	0.333495
N333	N	-0.078035	1.350131	0.666828
H334	H	-0.712471	0.643760	0.000150
H335	H	-0.379137	0.977094	0.333483
H336	H	-0.045804	1.310427	0.666817
H337	H	-0.769043	0.680349	0.037622
H338	H	-0.435710	1.013682	0.370955
H339	H	-0.102376	1.347016	0.704288
H340	H	0.004478	0.397749	0.064411
H341	H	0.337812	0.731083	0.397744
H342	H	0.671145	1.064416	0.731078
H343	H	-0.021144	0.702114	-0.557573
H344	H	0.312189	1.035447	-0.224240
H345	H	0.645523	1.368781	0.109093
H346	H	0.013306	0.744025	-0.850143
H347	H	0.346639	1.077359	-0.516809
H348	H	0.679973	1.410692	-0.183476
H349	H	-0.497577	0.997413	0.000230
H350	H	-0.164244	1.330746	0.333563
H351	H	0.169089	1.664079	0.666897
H352	H	-0.020231	0.177928	0.000197
H353	H	0.313103	0.511262	0.333531
H354	H	0.646436	0.844595	0.666864
N355	N	-0.341046	0.625935	0.000156
N356	N	-0.007713	0.959268	0.333489
N357	N	0.325620	1.292601	0.666822
H358	H	-0.299962	0.636154	0.000151
H359	H	0.033372	0.969487	0.333484
H360	H	0.366705	1.302821	0.666818
H361	H	-0.348391	0.598136	0.037609
H362	H	-0.015058	0.931470	0.370943
H363	H	0.318276	1.264803	0.704276
H364	H	-0.084438	0.709871	0.000142
H365	H	0.248896	1.043204	0.333475
H366	H	0.582229	1.376537	0.666808
N367	N	-0.028460	0.636665	0.000113
N368	N	0.304873	0.969999	0.333446
N369	N	0.638206	1.303332	0.666779
H370	H	-0.061750	0.608200	0.000113
H371	H	0.271584	0.941533	0.333446
H372	H	0.604917	1.274867	0.666779
H373	H	-0.030365	0.667128	0.037568
H374	H	0.302968	1.000461	0.370901
H375	H	0.636301	1.333795	0.704235
N376	N	0.004193	0.732950	-0.726358
N377	N	0.337526	1.066283	-0.393025
N378	N	0.670859	1.399616	-0.059691
H379	H	-0.017630	0.706421	-0.756177
H380	H	0.315703	1.039755	-0.422844
H381	H	0.649036	1.373088	-0.089511
H382	H	0.029095	0.698818	-0.699985
H383	H	0.362428	1.032151	-0.366651
H384	H	0.695761	1.365484	-0.033318
H385	H	-0.630931	0.701886	0.000178
H386	H	-0.297598	1.035219	0.333511
H387	H	0.035735	1.368552	0.666845
H388	H	-0.217393	0.938081	0.000202
H389	H	0.115941	1.271415	0.333536
H390	H	0.449274	1.604748	0.666869
N391	N	0.147471	0.907001	-0.141094
N392	N	0.480804	1.240334	0.192240
N393	N	0.814138	1.573667	0.525573
H394	H	0.122606	0.941169	-0.114688
H395	H	0.455940	1.274502	0.218645
H396	H	0.789273	1.607835	0.551979
H397	H	0.175409	0.876520	-0.114753
H398	H	0.508742	1.209853	0.218581
H399	H	0.842075	1.543186	0.551914
H400	H	-0.021141	0.702104	-0.442197
H401	H	0.312193	1.035437	-0.108864
H402	H	0.645526	1.368771	0.224470
N403	N	-0.103620	0.956497	0.000182
N404	N	0.229713	1.289830	0.333515
N405	N	0.563047	1.623164	0.666848
H406	H	-0.135850	0.996203	0.000193
H407	H	0.197484	1.329537	0.333526
H408	H	0.530817	1.662870	0.666859
H409	H	-0.079273	0.959630	0.037640
H410	H	0.254061	1.292964	0.370973
H411	H	0.587394	1.626297	0.704307
H412	H	-0.021810	0.046503	0.000256
H413	H	0.311524	0.379836	0.333589
H414	H	0.644857	0.713169	0.666922
N415	N	0.187308	0.600755	0.000151
N416	N	0.520641	0.934088	0.333484
N417	N	0.853974	1.267421	0.666817
H418	H	0.189978	0.630458	0.037604
H419	H	0.523311	0.963791	0.370938
H420	H	0.856645	1.297125	0.704271
H421	H	0.219749	0.561308	0.000137
H422	H	0.553082	0.894641	0.333471
H423	H	0.886415	1.227975	0.666804
H424	H	0.013339	0.743949	-0.149569
H425	H	0.346672	1.077282	0.183764
H426	H	0.680005	1.410616	0.517098
H427	H	0.013328	0.743958	-0.264969
H428	H	0.346662	1.077291	0.068365
H429	H	0.679995	1.410625	0.401698
H430	H	-0.389829	0.998986	0.000220
H431	H	-0.056496	1.332320	0.333553
H432	H	0.276838	1.665653	0.666886
N433	N	-0.650106	0.948524	0.000219
N434	N	-0.316772	1.281858	0.333552
N435	N	0.016561	1.615191	0.666885
H436	H	-0.682337	0.988229	0.000225
H437	H	-0.349004	1.321562	0.333559
H438	H	-0.015671	1.654895	0.666892
H439	H	-0.625763	0.951660	0.037680
H440	H	-0.292430	1.284993	0.371014
H441	H	0.040903	1.618327	0.704347
N442	N	0.147428	0.907086	-0.858471
N443	N	0.480761	1.240419	-0.525138
N444	N	0.814094	1.573752	-0.191804
H445	H	0.136086	0.957697	-0.847378
H446	H	0.469420	1.291031	-0.514044
H447	H	0.802753	1.624364	-0.180711
H448	H	0.188884	0.893042	-0.847401
H449	H	0.522217	1.226376	-0.514067
H450	H	0.855550	1.559709	-0.180734
N451	N	-0.773575	0.946719	0.000226
N452	N	-0.440242	1.280052	0.333559
N453	N	-0.106908	1.613386	0.666893
H454	H	-0.814657	0.936488	0.000227
H455	H	-0.481323	1.269822	0.333560
H456	H	-0.147990	1.603155	0.666894
H457	H	-0.766225	0.974535	0.037692
H458	H	-0.432891	1.307869	0.371026
H459	H	-0.099558	1.641202	0.704359
H460	H	0.138338	0.895996	-0.734668
H461	H	0.471672	1.229330	-0.401335
H462	H	0.805005	1.562663	-0.068001
N463	N	0.185498	0.450167	0.000179
N464	N	0.518831	0.783501	0.333513
N465	N	0.852165	1.116834	0.666846
H466	H	0.218788	0.478631	0.000181
H467	H	0.552122	0.811964	0.333515
H468	H	0.885455	1.145297	0.666848
H469	H	0.187387	0.419768	0.037647
H470	H	0.520720	0.753101	0.370981
H471	H	0.854053	1.086434	0.704314
H472	H	0.172785	0.937874	-0.442083
H473	H	0.506119	1.271208	-0.108749
H474	H	0.839452	1.604541	0.224584
N475	N	0.181876	0.948967	-0.565861
N476	N	0.515209	1.282300	-0.232528
N477	N	0.848543	1.615633	0.100805
H478	H	0.223342	0.934980	-0.554797
H479	H	0.556676	1.268314	-0.221463
H480	H	0.890009	1.601647	0.111870
H481	H	0.176602	0.942606	-0.610975
H482	H	0.509936	1.275939	-0.277642
H483	H	0.843269	1.609273	0.055691
N484	N	0.157590	0.230891	-0.073392
N485	N	0.490923	0.564225	0.259942
N486	N	0.824256	0.897558	0.593275
H487	H	0.181686	0.196782	-0.046270
H488	H	0.515019	0.530115	0.287064
H489	H	0.848353	0.863449	0.620397
H490	H	0.136277	0.204342	-0.103663
H491	H	0.469611	0.537675	0.229670
H492	H	0.802944	0.871009	0.563004
N493	N	0.181940	0.153875	0.000226
N494	N	0.515274	0.487208	0.333559
N495	N	0.848607	0.820541	0.666892
H496	H	0.204483	0.137464	-0.037231
H497	H	0.537816	0.470797	0.296102
H498	H	0.871149	0.804131	0.629436
H499	H	0.174637	0.206569	0.000243
H500	H	0.507970	0.539902	0.333576
H501	H	0.841304	0.873236	0.666910
H502	H	0.166526	0.015161	0.000235
H503	H	0.499859	0.348494	0.333568
H504	H	0.833192	0.681828	0.666901
