data_functionalizedCrystal
_audit_creation_method	'MofGen! by Chris Wilmer'
_symmetry_space_group_name_H-M	'P1'
_symmetry_Int_Tables_number	1
_symmetry_cell_setting	triclinic
loop_
_symmetry_equiv_pos_as_xyz
  x,y,z
_cell_length_a	23.532355
_cell_length_b	22.610064
_cell_length_c	16.992695
_cell_angle_alpha	90.004106
_cell_angle_beta	93.252139
_cell_angle_gamma	90.002356
loop_
_atom_site_label
_atom_site_type_symbol
_atom_site_fract_x
_atom_site_fract_y
_atom_site_fract_z
O1	O	0.759994	0.049104	-0.094944
O2	O	0.594812	0.049123	-0.108753
O3	O	0.676741	0.049109	0.012289
O4	O	0.678065	0.049118	-0.215986
O5	O	0.676726	-0.049260	0.012271
O6	O	0.594797	-0.049246	-0.108771
O7	O	0.759979	-0.049265	-0.094961
Zn8	Zn	0.677386	-0.064874	-0.101869
Zn9	Zn	0.677405	0.064732	-0.101846
O10	O	0.678051	-0.049251	-0.216003
C11	C	0.573571	-0.000059	-0.108417
C12	C	0.510301	-0.000052	-0.107379
C13	C	0.117955	-0.053698	-0.100868
C14	C	0.058507	-0.053700	-0.099880
O15	O	0.027755	-0.099302	-0.099351
N16	N	0.028782	-0.000079	-0.099381
C17	C	0.058509	0.053547	-0.099861
O18	O	0.027767	0.099156	-0.099345
C19	C	0.117957	0.053549	-0.100843
C20	C	0.147678	-0.000075	-0.101350
C21	C	0.147677	-0.107318	-0.101374
C22	C	0.207121	-0.107315	-0.102363
C23	C	0.236844	-0.053693	-0.102845
C24	C	0.207122	-0.000073	-0.102339
C25	C	0.147683	0.107175	-0.101318
C26	C	0.207135	0.107172	-0.102299
C27	C	0.236856	0.053548	-0.102806
C28	C	0.296289	0.053552	-0.103810
N29	N	0.326014	-0.000069	-0.104310
C30	C	0.296291	-0.053691	-0.103827
C31	C	-0.066335	0.053540	-0.097798
C32	C	-0.125782	0.053538	-0.096822
C33	C	-0.125780	-0.053709	-0.096840
C34	C	-0.066332	-0.053708	-0.097821
C35	C	-0.036610	-0.000081	-0.098297
C36	C	0.421129	-0.053682	-0.105904
C37	C	0.480578	-0.053674	-0.106897
C38	C	0.480571	0.053573	-0.106875
C39	C	0.421127	0.053566	-0.105887
C40	C	0.391407	-0.000066	-0.105399
O41	O	0.327079	0.099131	-0.104337
O42	O	0.327041	-0.099292	-0.104333
N43	N	0.677377	-0.153326	-0.101884
C44	C	0.713686	-0.561974	-0.048256
C45	C	0.713688	-0.623894	-0.048251
O46	O	0.744535	-0.655918	-0.002666
N47	N	0.677404	-0.654863	-0.101829
C48	C	0.641111	-0.623910	-0.155412
O49	O	0.610248	-0.655938	-0.200984
C50	C	0.641106	-0.561991	-0.155413
C51	C	0.677396	-0.531025	-0.101836
C52	C	0.749973	-0.531007	0.005317
C53	C	0.749971	-0.469092	0.005310
C54	C	0.713682	-0.438142	-0.048270
C55	C	0.677394	-0.469109	-0.101843
C56	C	0.604810	-0.531039	-0.208992
C57	C	0.604808	-0.469116	-0.208988
C58	C	0.641098	-0.438149	-0.155411
C59	C	0.641103	-0.376244	-0.155430
N60	N	0.677387	-0.345274	-0.101851
C61	C	0.713676	-0.376224	-0.048271
C62	C	0.641124	-0.753943	-0.155404
C63	C	0.641131	-0.815861	-0.155407
C64	C	0.713708	-0.815841	-0.048245
C65	C	0.713703	-0.753922	-0.048246
C66	C	0.677408	-0.722974	-0.101825
C67	C	0.713670	-0.246196	-0.048290
C68	C	0.713666	-0.184275	-0.048304
C69	C	0.641088	-0.184301	-0.155464
C70	C	0.641093	-0.246217	-0.155453
C71	C	0.677386	-0.277163	-0.101860
O72	O	0.610270	-0.344181	-0.200989
O73	O	0.744528	-0.344188	-0.002700
C74	C	0.781221	-0.000081	-0.095298
C75	C	0.844491	-0.000084	-0.096335
C76	C	0.675030	-0.000075	0.041479
C77	C	0.669946	-0.000074	0.128482
N78	N	0.677419	0.153184	-0.101824
C79	C	0.679762	-0.000065	-0.245193
C80	C	0.684845	-0.000062	-0.332197
C81	C	0.718993	-0.000081	0.179117
C82	C	0.714214	-0.000074	0.260865
C83	C	0.660387	-0.000066	0.291977
C84	C	0.611336	-0.000058	0.241335
C85	C	0.616116	-0.000060	0.159589
C86	C	0.640574	-0.000056	0.535415
C87	C	0.635798	-0.000056	0.617168
C88	C	0.738676	-0.000071	0.636693
C89	C	0.743452	-0.000076	0.554944
C90	C	0.694401	-0.000065	0.504309
N91	N	0.655500	-0.000062	0.375536
N92	N	0.699288	-0.000065	0.420751
H93	H	0.231315	-0.150982	-0.102771
H94	H	0.231331	0.150842	-0.102687
C95	C	0.789167	-0.435369	0.063630
C96	C	0.781333	-0.374517	0.052263
C97	C	0.817355	-0.343439	0.106075
H98	H	0.780466	-0.445547	0.115829
H99	H	0.827622	-0.445383	0.055632
H100	H	0.742886	-0.364508	0.060268
H101	H	0.790037	-0.364322	0.000075
H102	H	0.855810	-0.353452	0.098077
H103	H	0.808651	-0.353621	0.158271
H104	H	0.812048	-0.302147	0.098365
H105	H	0.787283	-0.000083	0.529619
H106	H	0.504782	0.097231	-0.107271
H107	H	0.778610	-0.000079	0.677928
H108	H	0.754153	-0.000081	0.302090
C109	C	0.552930	0.000043	0.275220
C110	C	0.547195	0.050644	0.321604
C111	C	0.493402	0.050751	0.352838
H112	H	0.524351	0.000078	0.233436
H113	H	0.548915	-0.034243	0.306744
H114	H	0.551205	0.084921	0.290082
H115	H	0.575762	0.050620	0.363400
H116	H	0.489386	0.016466	0.384361
H117	H	0.464826	0.050785	0.311048
H118	H	0.489505	0.085081	0.384318
H119	H	0.591963	-0.000059	0.642495
H120	H	0.600634	-0.000047	0.494198
C121	C	0.115513	-0.165605	-0.100896
C122	C	0.154276	-0.212554	-0.101569
C123	C	0.124672	-0.266260	-0.101147
H124	H	0.094583	-0.167930	-0.054814
H125	H	0.090071	-0.167866	-0.146248
H126	H	0.179708	-0.210294	-0.056222
H127	H	0.175208	-0.210248	-0.147648
H128	H	0.099231	-0.268522	-0.146499
H129	H	0.103743	-0.268579	-0.055065
H130	H	0.150968	-0.298122	-0.101611
H131	H	0.576177	-0.000055	0.118362
C132	C	0.115493	0.165442	-0.100881
C133	C	0.126628	0.197810	-0.168540
C134	C	0.096993	0.251496	-0.168157
H135	H	0.075819	0.157857	-0.100264
H136	H	0.127522	0.187496	-0.055344
H137	H	0.114596	0.175762	-0.214066
H138	H	0.166296	0.205411	-0.169172
H139	H	0.109021	0.273550	-0.122619
H140	H	0.057320	0.243905	-0.167537
H141	H	0.104547	0.273467	-0.214058
C142	C	0.601790	-0.279869	-0.213716
C143	C	0.634292	-0.315413	-0.261491
C144	C	0.598101	-0.346410	-0.315174
H145	H	0.576796	-0.304068	-0.185780
H146	H	0.580190	-0.252583	-0.245672
H147	H	0.655882	-0.342697	-0.229539
H148	H	0.659284	-0.291230	-0.289444
H149	H	0.576501	-0.319124	-0.347130
H150	H	0.573109	-0.370605	-0.287232
H151	H	0.620149	-0.370526	-0.347601
C152	C	0.753089	-0.150762	0.009959
C153	C	0.784857	-0.191124	0.056897
C154	C	0.821171	-0.160276	0.110583
H155	H	0.778121	-0.126607	-0.017974
H156	H	0.731138	-0.126619	0.042481
H157	H	0.806806	-0.215257	0.024378
H158	H	0.759840	-0.215281	0.084847
H159	H	0.799220	-0.136133	0.143105
H160	H	0.846199	-0.136122	0.082643
H161	H	0.842726	-0.187657	0.142441
C162	C	0.512745	-0.111960	-0.107402
C163	C	0.473988	-0.158919	-0.106744
C164	C	0.503598	-0.212618	-0.107197
H165	H	0.533671	-0.114273	-0.153489
H166	H	0.538191	-0.114223	-0.062055
H167	H	0.448552	-0.156657	-0.152086
H168	H	0.453061	-0.156625	-0.060660
H169	H	0.529044	-0.214881	-0.061850
H170	H	0.524523	-0.214925	-0.153284
H171	H	0.477306	-0.244486	-0.106743
H172	H	0.575259	-0.556243	-0.252618
H173	H	0.396937	-0.097354	-0.105514
C174	C	0.565331	-0.435485	-0.267040
C175	C	0.528571	-0.399947	-0.225544
C176	C	0.492194	-0.368965	-0.278995
H177	H	0.587224	-0.411284	-0.299547
H178	H	0.543688	-0.462780	-0.298933
H179	H	0.550212	-0.372654	-0.193664
H180	H	0.506665	-0.424133	-0.193039
H181	H	0.470551	-0.396261	-0.310889
H182	H	0.514092	-0.344768	-0.311500
H183	H	0.467245	-0.344854	-0.250848
H184	H	0.611570	-0.728748	-0.199041
H185	H	-0.149991	-0.097372	-0.096445
H186	H	0.611543	-0.159093	-0.199090
H187	H	-0.149976	0.097205	-0.096422
C188	C	-0.034166	-0.111990	-0.098322
C189	C	-0.072927	-0.158947	-0.097671
C190	C	-0.043319	-0.212647	-0.098119
H191	H	-0.013236	-0.114305	-0.144405
H192	H	-0.008725	-0.114255	-0.052971
H193	H	-0.098358	-0.156683	-0.143018
H194	H	-0.093859	-0.156652	-0.051592
H195	H	-0.017878	-0.214912	-0.052768
H196	H	-0.022390	-0.214956	-0.144202
H197	H	-0.069613	-0.244514	-0.097670
H198	H	0.762825	-0.000091	0.153793
H199	H	-0.042139	0.097211	-0.098193
C200	C	0.789346	-0.564526	0.063618
C201	C	0.776622	-0.549445	0.140574
C202	C	0.812892	-0.580300	0.194300
H203	H	0.784196	-0.605849	0.056066
H204	H	0.827733	-0.554354	0.055420
H205	H	0.738244	-0.559621	0.148769
H206	H	0.781776	-0.508128	0.148152
H207	H	0.851279	-0.570128	0.186102
H208	H	0.807739	-0.621621	0.186741
H209	H	0.804268	-0.570068	0.246521
C210	C	0.388958	0.111847	-0.105313
C211	C	0.427716	0.158808	-0.105936
C212	C	0.398108	0.212505	-0.105394
H213	H	0.363498	0.114159	-0.150628
H214	H	0.368049	0.114110	-0.059195
H215	H	0.448615	0.156546	-0.152050
H216	H	0.453177	0.156515	-0.060625
H217	H	0.377200	0.214768	-0.059275
H218	H	0.372649	0.214811	-0.150709
H219	H	0.424401	0.244374	-0.105809
H220	H	0.743222	-0.271386	-0.004649
H221	H	0.743253	-0.728713	-0.004619
H222	H	0.611586	-0.841070	-0.199043
C223	C	0.753010	-0.849481	0.010025
C224	C	0.720497	-0.885015	0.057797
C225	C	0.756679	-0.916007	0.111487
H226	H	0.778002	-0.873685	-0.017905
H227	H	0.774611	-0.822192	0.041983
H228	H	0.698905	-0.912300	0.025843
H229	H	0.695507	-0.860825	0.085744
H230	H	0.778281	-0.888718	0.143445
H231	H	0.781669	-0.940208	0.083550
H232	H	0.734625	-0.940116	0.143911
