data_functionalizedCrystal
_audit_creation_method	'MofGen! by Chris Wilmer'
_symmetry_space_group_name_H-M	'P1'
_symmetry_Int_Tables_number	1
_symmetry_cell_setting	triclinic
loop_
_symmetry_equiv_pos_as_xyz
  x,y,z
_cell_length_a	23.532407
_cell_length_b	23.532407
_cell_length_c	14.750779
_cell_angle_alpha	77.433997
_cell_angle_beta	102.563622
_cell_angle_gamma	82.848712
loop_
_atom_site_label
_atom_site_type_symbol
_atom_site_fract_x
_atom_site_fract_y
_atom_site_fract_z
O1	O	0.742834	0.081554	-0.079778
O2	O	0.576968	0.091560	-0.079794
O3	O	0.664906	0.003622	-0.079768
O4	O	0.654897	0.169491	-0.079804
O5	O	0.689764	-0.021234	0.079890
O6	O	0.601827	0.066704	0.079863
O7	O	0.767693	0.056698	0.079880
Zn8	Zn	0.688707	0.057754	0.105221
Zn9	Zn	0.655954	0.090503	-0.105135
O10	O	0.679756	0.144635	0.079853
C11	C	0.568181	0.078877	0.000033
C12	C	0.504963	0.078112	0.000027
C13	C	0.238802	0.022911	0.000065
C14	C	0.298202	0.023622	0.000065
O15	O	0.334953	-0.020170	0.000108
N16	N	0.320826	0.075901	0.000047
C17	C	0.284047	0.127471	0.000039
O18	O	0.308744	0.172004	0.000025
C19	C	0.224649	0.126758	0.000046
C20	C	0.202027	0.074477	0.000055
C21	C	0.216180	-0.029366	0.000074
C22	C	0.156784	-0.030077	0.000073
C23	C	0.120009	0.021489	0.000062
C24	C	0.142631	0.073766	0.000053
C25	C	0.187872	0.178325	0.000045
C26	C	0.128471	0.177608	0.000053
C27	C	0.105850	0.125327	0.000062
C28	C	0.046460	0.124621	0.000041
N29	N	0.023837	0.072342	0.000059
C30	C	0.060611	0.020776	0.000070
C31	C	0.408787	0.128964	0.000025
C32	C	0.468183	0.129679	0.000011
C33	C	0.482334	0.025830	0.000039
C34	C	0.422937	0.025117	0.000046
C35	C	0.386164	0.076685	0.000043
C36	C	-0.064126	0.019287	0.000066
C37	C	-0.123529	0.018581	0.000061
C38	C	-0.137675	0.122429	0.000038
C39	C	-0.078278	0.123136	0.000038
C40	C	-0.041504	0.071559	0.000056
O41	O	0.009675	0.168390	0.000002
O42	O	0.035908	-0.023752	0.000097
C43	C	0.677081	-0.030022	0.000063
C44	C	0.676316	-0.093240	0.000071
C45	C	0.723542	-0.492336	0.000023
C46	C	0.722829	-0.551735	0.000015
O47	O	0.766610	-0.588475	-0.000016
N48	N	0.670552	-0.574360	0.000011
C49	C	0.618983	-0.537582	0.000004
O50	O	0.574452	-0.562281	-0.000002
C51	C	0.619695	-0.478183	0.000004
C52	C	0.671977	-0.455562	0.000019
C53	C	0.775819	-0.469715	0.000036
C54	C	0.776532	-0.410320	0.000045
C55	C	0.724967	-0.373546	0.000041
C56	C	0.672690	-0.396168	0.000028
C57	C	0.568125	-0.441404	-0.000010
C58	C	0.568842	-0.382002	-0.000010
C59	C	0.621124	-0.359381	0.000005
C60	C	0.621837	-0.299999	0.000033
N61	N	0.674115	-0.277374	0.000037
C62	C	0.725679	-0.314147	0.000041
C63	C	0.617491	-0.662324	0.000001
C64	C	0.616780	-0.721723	0.000007
C65	C	0.720626	-0.735872	0.000017
C66	C	0.721338	-0.676473	0.000018
C67	C	0.669768	-0.639698	0.000006
C68	C	0.727172	-0.189414	0.000061
C69	C	0.727881	-0.130014	0.000075
C70	C	0.624034	-0.115869	0.000060
C71	C	0.623326	-0.175265	0.000052
C72	C	0.674899	-0.212036	0.000049
O73	O	0.578079	-0.263224	0.000060
O74	O	0.770201	-0.289438	0.000034
C75	C	0.776480	0.069381	0.000051
C76	C	0.839697	0.070147	0.000050
C77	C	0.667580	0.178280	0.000020
C78	C	0.668344	0.241499	0.000006
N79	N	0.711064	0.035404	0.248783
N80	N	0.633602	0.112850	-0.248698
C81	C	0.571162	0.175247	0.600559
C82	C	0.586833	0.159588	0.701063
C83	C	0.664717	0.081748	0.701049
C84	C	0.649051	0.097398	0.600543
C85	C	0.602274	0.144148	0.550306
C86	C	0.680163	0.066300	0.550290
C87	C	0.664500	0.081950	0.449793
C88	C	0.617726	0.128700	0.399549
C89	C	0.586611	0.159799	0.449809
C90	C	0.726943	0.019553	0.600529
C91	C	0.758055	-0.011546	0.550276
C92	C	0.742389	0.004102	0.449777
C93	C	0.695615	0.050851	0.399533
C94	C	0.773504	-0.026997	0.399517
C95	C	0.757841	-0.011346	0.299020
C96	C	0.679952	0.066502	0.299036
H97	H	0.404523	-0.017455	0.000053
Br98	Br	0.596472	0.149945	0.263158
H99	H	0.811594	-0.065058	0.440433
Br100	Br	0.498872	0.200638	-0.000024
Br101	Br	0.547498	-0.612422	-0.000007
Br102	Br	0.797165	-0.239308	0.000057
H103	H	0.246117	-0.071360	0.000086
Br104	Br	0.845810	-0.519612	0.000040
H105	H	0.098533	0.219601	0.000056
Br106	Br	0.497166	-0.472087	-0.000033
H107	H	0.512287	-0.016158	0.000048
Br108	Br	-0.187595	0.192409	0.000016
Br109	Br	-0.047578	0.194091	0.000012
H110	H	0.378848	0.170961	0.000016
H111	H	0.548516	0.197864	0.408904
Br112	Br	0.800069	-0.053549	0.230817
H113	H	0.533068	0.213311	0.559654
H114	H	0.819105	-0.391908	0.000053
Br115	Br	0.792294	-0.645780	0.000039
H116	H	0.561494	0.184917	0.741974
H117	H	-0.141944	-0.023994	0.000065
Br118	Br	0.728202	0.018306	0.769234
H119	H	0.739695	0.006814	0.682360
H120	H	-0.034191	-0.022712	0.000080
H121	H	0.762612	-0.765823	0.000017
Br122	Br	0.126091	-0.101032	0.000071
Br123	Br	0.218557	0.249283	0.000032
H124	H	0.770457	-0.111600	0.000089
Br125	Br	0.545826	-0.752418	0.000011
H126	H	0.526846	-0.352062	-0.000021
H127	H	0.580758	-0.193687	0.000067
H128	H	0.582052	-0.085918	0.000060
Br129	Br	0.821539	-0.074988	0.618461
H130	H	0.641857	0.104567	0.258131
