data_functionalizedCrystal
_audit_creation_method	'MofGen! by Chris Wilmer'
_symmetry_space_group_name_H-M	'P1'
_symmetry_Int_Tables_number	1
_symmetry_cell_setting	triclinic
loop_
_symmetry_equiv_pos_as_xyz
  x,y,z
_cell_length_a	10.540558
_cell_length_b	15.455313
_cell_length_c	16.974813
_cell_angle_alpha	89.012317
_cell_angle_beta	96.036895
_cell_angle_gamma	92.707085
loop_
_atom_site_label
_atom_site_type_symbol
_atom_site_fract_x
_atom_site_fract_y
_atom_site_fract_z
O1	O	-1.690208	-0.079665	0.107714
O2	O	-1.320684	-0.080405	0.118163
O3	O	-1.515127	-0.071982	-0.001724
O4	O	-1.495765	-0.088088	0.227601
O5	O	-1.504008	0.071801	0.005103
O6	O	-1.309565	0.063377	0.124990
O7	O	-1.679089	0.064118	0.114542
Cu8	Cu	-1.493311	0.076876	0.120389
Cu9	Cu	-1.506461	-0.093163	0.112315
O10	O	-1.484646	0.055695	0.234428
C11	C	-1.267831	-0.008460	0.120789
C12	C	-1.126910	-0.008297	0.118436
C13	C	-1.508624	0.001970	-0.027675
C14	C	-1.505799	0.008109	-0.115174
N15	N	-1.484072	0.196473	0.126067
C16	C	-0.944441	-0.001641	0.028482
C17	C	-1.091058	-0.002143	0.030852
C18	C	-1.071126	-0.093360	0.156683
C19	C	-0.924620	-0.093208	0.153685
C20	C	-0.911468	0.070174	0.163230
C21	C	-1.058356	0.071192	0.164094
C22	C	-0.731944	-0.007827	0.111904
C23	C	-0.872872	-0.007986	0.114227
N24	N	-1.515711	-0.212759	0.106631
C25	C	-1.566707	0.245444	0.075154
C26	C	-1.559731	0.335950	0.079456
C27	C	-1.470125	0.377482	0.134675
C28	C	-1.387482	0.328504	0.185590
C29	C	-1.394452	0.238001	0.181284
C30	C	-1.440038	0.647759	0.153240
C31	C	-1.433076	0.738269	0.157544
C32	C	-1.605324	0.745708	0.051408
C33	C	-1.612292	0.655202	0.047110
C34	C	-1.529644	0.606233	0.098023
N35	N	-1.462996	0.469993	0.139075
N36	N	-1.536769	0.513724	0.093618
C37	C	-1.510536	-0.067382	-0.159998
C38	C	-1.507873	-0.061610	-0.242211
C39	C	-1.500482	0.019653	-0.279600
C40	C	-1.495742	0.095149	-0.234770
C41	C	-1.498395	0.089377	-0.152557
C42	C	-1.491887	0.045320	-0.525079
C43	C	-1.489237	0.051087	-0.607298
C44	C	-1.501367	-0.105673	-0.614734
C45	C	-1.504027	-0.111438	-0.532520
C46	C	-1.499280	-0.035942	-0.487697
N47	N	-1.497764	0.025554	-0.363635
N48	N	-1.501989	-0.041844	-0.403662
C49	C	-1.491148	-0.018259	0.260379
C50	C	-1.493974	-0.024404	0.347878
H51	H	-1.129483	0.059041	0.000485
C52	C	-1.100699	-0.103596	0.243378
N53	N	-1.122978	-0.111305	0.308676
C54	C	-0.900170	0.081186	-0.014487
N55	N	-0.866815	0.143574	-0.046852
H56	H	-1.118760	-0.152408	0.124505
C57	C	-1.518666	-0.156778	-0.118878
N58	N	-1.524784	-0.224115	-0.087909
C59	C	-1.650606	0.389815	0.023428
N60	N	-1.719046	0.430387	-0.018782
C61	C	-1.481103	0.140487	-0.648423
N62	N	-1.474977	0.207819	-0.679399
H63	H	-0.901497	-0.152393	0.119618
C64	C	-0.862780	0.156940	0.128924
N65	N	-0.826112	0.222289	0.103075
C66	C	-1.288902	0.374194	0.246324
N67	N	-1.214650	0.408606	0.292070
H68	H	-1.511736	-0.123083	-0.278704
H69	H	-0.876251	-0.101358	0.216494
C70	C	-1.487603	0.184540	-0.275899
N71	N	-1.481475	0.251871	-0.306878
C72	C	-1.506574	-0.188714	-0.664045
N73	N	-1.510490	-0.251263	-0.701187
H74	H	-1.488046	0.106795	-0.488596
C75	C	-1.303557	0.184132	0.237299
N76	N	-1.235092	0.143559	0.279491
C77	C	-1.107754	0.156173	0.126372
N78	N	-1.144959	0.220179	0.097953
C79	C	-1.493188	0.172423	-0.103251
N80	N	-1.489263	0.234977	-0.066114
H81	H	-0.919139	-0.057774	-0.008753
C82	C	-1.154112	-0.078627	-0.018043
N83	N	-1.201603	-0.136239	-0.054872
C84	C	-1.696221	0.799583	-0.004598
N85	N	-1.764683	0.840161	-0.046787
C86	C	-1.089643	0.071842	0.250674
N87	N	-1.113217	0.072329	0.315886
H88	H	-0.863507	0.066286	0.226515
H89	H	-1.510047	-0.177611	-0.502085
H90	H	-1.639678	0.211634	0.030193
H91	H	-1.360104	0.772080	0.202513
C92	C	-1.710859	0.609524	-0.013639
N93	N	-1.785101	0.575119	-0.059396
H94	H	-1.372744	0.607895	0.194696
