data_functionalizedCrystal
_audit_creation_method	'MofGen! by Chris Wilmer'
_symmetry_space_group_name_H-M	'P1'
_symmetry_Int_Tables_number	1
_symmetry_cell_setting	triclinic
loop_
_symmetry_equiv_pos_as_xyz
  x,y,z
_cell_length_a	8.497374
_cell_length_b	18.215407
_cell_length_c	18.215405
_cell_angle_alpha	89.980602
_cell_angle_beta	89.985971
_cell_angle_gamma	90.001682
loop_
_atom_site_label
_atom_site_type_symbol
_atom_site_fract_x
_atom_site_fract_y
_atom_site_fract_z
Zn1	Zn	0.891893	1.124955	0.293220
Zn2	Zn	0.628070	1.124898	0.416255
Zn3	Zn	0.628121	1.001922	0.293195
Zn4	Zn	0.891802	1.001853	0.416237
O5	O	0.759971	1.063407	0.354727
O6	O	0.856914	1.227931	0.309558
O7	O	0.407314	1.108590	0.399929
O8	O	0.663170	1.018295	0.190214
O9	O	0.663084	1.227890	0.399952
O10	O	0.856963	1.108687	0.190232
O11	O	0.407352	1.018240	0.309517
O12	O	0.663081	0.898929	0.309499
O13	O	1.112576	1.018178	0.399921
O14	O	0.856807	0.898878	0.399898
O15	O	1.112643	1.108620	0.309541
O16	O	0.662995	1.108523	0.519237
O17	O	0.856758	1.018123	0.519224
C18	C	0.759941	0.872201	0.354694
C19	C	0.759965	0.790402	0.354698
C20	C	0.861059	0.525360	0.307750
C21	C	0.861054	0.602219	0.307738
C22	C	0.658918	0.602195	0.401728
C23	C	0.658932	0.525337	0.401743
C24	C	0.760000	0.486922	0.354750
C25	C	0.759981	0.640638	0.354723
C26	C	0.759975	0.723972	0.354710
C27	C	0.760009	0.403583	0.354763
C28	C	0.759896	1.063329	0.545933
C29	C	0.759916	1.063363	0.627732
C30	C	1.171452	1.063401	0.354728
C31	C	1.350096	1.063403	0.354736
C32	C	0.760003	1.255360	0.354760
C33	C	0.760017	1.337159	0.354774
C34	C	0.760082	1.063505	0.162774
C35	C	0.760129	1.063547	0.080975
C36	C	0.659209	1.110545	0.815909
C37	C	0.659248	1.110578	0.892767
C38	C	0.860847	1.016363	0.892793
C39	C	0.860815	1.016334	0.815936
C40	C	0.759988	1.063424	0.777496
C41	C	0.760057	1.063486	0.931212
C42	C	0.760100	1.063521	1.014545
C43	C	0.759947	1.063390	0.694157
H44	H	0.576629	0.633482	0.439987
N45	N	0.970056	0.643673	0.257042
H46	H	0.906072	0.675566	0.222888
H47	H	1.043031	0.675514	0.287048
H48	H	0.576637	0.494040	0.440020
N49	N	0.969516	0.965503	0.774504
H50	H	0.905320	0.931416	0.742652
H51	H	1.042651	0.995420	0.742623
N52	N	0.970059	0.483925	0.257065
H53	H	1.034078	0.519941	0.227289
H54	H	1.042961	0.452034	0.287076
N55	N	0.550477	1.161343	0.774452
H56	H	0.614649	1.195407	0.742527
H57	H	0.477309	1.131407	0.742643
H58	H	0.577186	1.148950	0.924040
N59	N	0.969585	0.965572	0.934254
H60	H	0.954311	0.972737	0.988772
H61	H	0.944917	0.913018	0.920860
