data_functionalizedCrystal
_audit_creation_method	'MofGen! by Chris Wilmer'
_symmetry_space_group_name_H-M	'P1'
_symmetry_Int_Tables_number	1
_symmetry_cell_setting	triclinic
loop_
_symmetry_equiv_pos_as_xyz
  x,y,z
_cell_length_a	19.805407
_cell_length_b	14.909042
_cell_length_c	19.805399
_cell_angle_alpha	93.319324
_cell_angle_beta	90.019573
_cell_angle_gamma	86.719064
loop_
_atom_site_label
_atom_site_type_symbol
_atom_site_fract_x
_atom_site_fract_y
_atom_site_fract_z
Zn1	Zn	1.050329	-0.359172	0.367200
Zn2	Zn	1.056793	-0.510034	0.247493
Zn3	Zn	0.937144	-0.359197	0.254023
Zn4	Zn	0.943654	-0.509986	0.360642
O5	O	0.996980	-0.434597	0.307339
O6	O	1.145903	-0.379194	0.351332
O7	O	1.040902	-0.490055	0.153641
O8	O	0.946729	-0.232951	0.274514
O9	O	1.150653	-0.490031	0.263384
O10	O	1.029885	-0.232933	0.357664
O11	O	0.952997	-0.379236	0.158439
O12	O	0.843291	-0.379189	0.268155
O13	O	0.957824	-0.489949	0.456229
O14	O	0.848074	-0.489973	0.346487
O15	O	1.036197	-0.379147	0.461048
O16	O	1.047215	-0.636269	0.257024
O17	O	0.964092	-0.636234	0.340154
C18	C	0.821123	-0.434580	0.307318
C19	C	0.745892	-0.434594	0.307324
C20	C	0.713060	-0.492366	0.348038
C21	C	0.642371	-0.492368	0.348047
C22	C	0.604517	-0.434601	0.307339
C23	C	0.637354	-0.376823	0.266624
C24	C	0.708041	-0.376817	0.266618
C25	C	0.352281	-0.376842	0.266645
C26	C	0.281590	-0.376854	0.266652
C27	C	0.286612	-0.492393	0.348074
C28	C	0.357299	-0.492388	0.348069
C29	C	0.390130	-0.434606	0.307357
C30	C	0.466778	-0.434604	0.307348
C31	C	0.527870	-0.434607	0.307344
C32	C	1.007080	-0.668985	0.297184
C33	C	1.011462	-0.769257	0.292862
C34	C	0.933059	-0.957706	0.371229
C35	C	0.937174	-1.051921	0.367170
C36	C	1.023805	-1.051902	0.280684
C37	C	1.019690	-0.957687	0.284742
C38	C	0.974316	-0.910593	0.330017
C39	C	0.970204	-0.816377	0.334078
C40	C	1.056831	-0.816359	0.247589
C41	C	1.060946	-0.910574	0.243530
C42	C	1.173524	-0.434615	0.307361
C43	C	1.248756	-0.434623	0.307370
C44	C	0.997016	-0.434540	0.483885
C45	C	0.997031	-0.434516	0.559118
C46	C	0.986860	-0.199294	0.317549
C47	C	0.982547	-0.099022	0.321900
C48	C	0.996981	-0.434588	0.131484
C49	C	0.997086	-0.434358	0.056262
C50	C	1.037841	-0.376818	0.596972
C51	C	1.037846	-0.376792	0.667661
C52	C	0.997046	-0.434469	0.700495
C53	C	0.956231	-0.492169	0.662636
C54	C	0.956222	-0.492190	0.591948
C55	C	0.956266	-0.492085	0.947713
C56	C	0.956279	-0.492061	1.018406
C57	C	1.037890	-0.376687	1.023427
C58	C	1.037881	-0.376708	0.952739
C59	C	0.997064	-0.434404	0.914886
C60	C	0.997057	-0.434431	0.838236
C61	C	0.997055	-0.434447	0.777143
H62	H	0.259873	-0.539438	0.381227
C63	C	0.283721	-0.262622	0.186175
C64	C	0.239978	-0.313345	0.221908
H65	H	0.258029	-0.223414	0.158557
H66	H	0.312972	-0.301873	0.158530
H67	H	0.309819	-0.228168	0.217208
H68	H	0.213883	-0.347804	0.190875
H69	H	0.210715	-0.274090	0.249555
C70	C	1.058070	-1.080868	0.164840
C71	C	1.073668	-1.103627	0.230885
H72	H	1.088850	-1.112791	0.134087
H73	H	1.061508	-1.018013	0.161398
H74	H	1.013274	-1.096380	0.154242
H75	H	1.118462	-1.088109	0.241485
H76	H	1.070236	-1.166496	0.234330
H77	H	0.923041	-0.539078	0.916901
H78	H	0.743876	-0.539409	0.381185
H79	H	1.097887	-0.948931	0.206667
H80	H	0.923008	-0.539127	0.689375
H81	H	0.615643	-0.539412	0.381200
H82	H	0.903580	-1.090277	0.400731
H83	H	0.379004	-0.329800	0.233489
H84	H	1.071068	-0.329854	0.570244
H85	H	1.071079	-0.329811	0.698479
C86	C	1.118547	-0.262651	0.964804
C87	C	1.082728	-0.313305	0.916649
H88	H	1.146229	-0.223503	0.942523
H89	H	1.146133	-0.301948	0.990671
H90	H	1.087569	-0.228136	0.993869
H91	H	1.113706	-0.347825	0.887586
H92	H	1.055140	-0.274002	0.890770
C93	C	1.088990	-0.671929	0.215402
C94	C	1.102182	-0.764570	0.202281
H95	H	1.116985	-0.639958	0.187430
H96	H	1.098192	-0.656445	0.261551
H97	H	1.042846	-0.656555	0.206113
H98	H	1.148325	-0.779946	0.211576
H99	H	1.092985	-0.780061	0.156122
C100	C	0.875590	-0.606100	1.006348
C101	C	0.911422	-0.555457	1.054499
H102	H	0.847896	-0.645231	1.028632
H103	H	0.906555	-0.640624	0.977285
H104	H	0.848008	-0.566788	0.980477
H105	H	0.939008	-0.594770	1.080366
H106	H	0.880453	-0.520931	1.083573
C107	C	1.074140	-0.325403	1.134017
C108	C	1.082749	-0.313253	1.065038
H109	H	1.101831	-0.286239	1.159703
H110	H	1.086655	-0.386006	1.142973
H111	H	1.028094	-0.312189	1.146158
H112	H	1.128794	-0.326473	1.052896
H113	H	1.070238	-0.252636	1.056078
H114	H	0.606527	-0.329784	0.233482
H115	H	0.734771	-0.329768	0.233469
H116	H	0.922983	-0.539164	0.561128
C117	C	0.884985	-0.825862	0.419157
C118	C	0.920330	-0.764608	0.383844
H119	H	0.854192	-0.793902	0.449877
H120	H	0.916061	-0.862553	0.443494
H121	H	0.860723	-0.862663	0.388047
H122	H	0.944596	-0.727810	0.414953
H123	H	0.889250	-0.727901	0.359505
H124	H	0.388117	-0.539430	0.381215
H125	H	0.896118	-0.919361	0.408098
