data_functionalizedCrystal
_audit_creation_method	'MofGen! by Chris Wilmer'
_symmetry_space_group_name_H-M	'P1'
_symmetry_Int_Tables_number	1
_symmetry_cell_setting	triclinic
loop_
_symmetry_equiv_pos_as_xyz
  x,y,z
_cell_length_a	14.519731
_cell_length_b	17.019294
_cell_length_c	13.596369
_cell_angle_alpha	86.115041
_cell_angle_beta	89.994584
_cell_angle_gamma	83.541199
loop_
_atom_site_label
_atom_site_type_symbol
_atom_site_fract_x
_atom_site_fract_y
_atom_site_fract_z
O1	O	1.223521	0.103487	-0.090557
O2	O	1.556854	0.436820	0.242777
O3	O	1.890187	0.770154	0.576110
O4	O	0.955007	0.115647	-0.091588
O5	O	1.288340	0.448980	0.241745
O6	O	1.621674	0.782314	0.575079
O7	O	1.096754	-0.005255	-0.081343
O8	O	1.430088	0.328078	0.251991
O9	O	1.763421	0.661412	0.585324
O10	O	1.081774	0.224389	-0.100802
O11	O	1.415107	0.557722	0.232531
O12	O	1.748440	0.891056	0.565865
O13	O	1.096740	-0.005261	0.082241
O14	O	1.430074	0.328072	0.415574
O15	O	1.763407	0.661405	0.748907
O16	O	0.954993	0.115640	0.071995
O17	O	1.288326	0.448974	0.405329
O18	O	1.621660	0.782307	0.738662
O19	O	1.223507	0.103481	0.073027
O20	O	1.556840	0.436814	0.406360
O21	O	1.890173	0.770147	0.739693
Zn22	Zn	1.089248	0.109560	0.098483
Zn23	Zn	1.422581	0.442893	0.431817
Zn24	Zn	1.755914	0.776226	0.765150
Zn25	Zn	1.089266	0.109568	-0.117045
Zn26	Zn	1.422600	0.442901	0.216289
Zn27	Zn	1.755933	0.776235	0.549622
O28	O	1.081759	0.224382	0.062781
O29	O	1.415093	0.557716	0.396115
O30	O	1.748426	0.891049	0.729448
C31	C	0.920643	0.115074	-0.009748
C32	C	1.253976	0.448407	0.323585
C33	C	1.587309	0.781741	0.656919
C34	C	0.818268	0.113367	-0.009604
C35	C	1.151601	0.446700	0.323729
C36	C	1.484935	0.780033	0.657063
C37	C	0.735128	0.111979	-0.009490
C38	C	1.068461	0.445313	0.323843
C39	C	1.401795	0.778646	0.657176
C40	C	0.630825	0.110246	-0.009344
C41	C	0.964158	0.443579	0.323989
C42	C	1.297492	0.776912	0.657323
C43	C	0.547690	0.108870	-0.009227
C44	C	0.881024	0.442203	0.324106
C45	C	1.214357	0.775537	0.657439
C46	C	0.443381	0.107137	-0.009083
C47	C	0.776714	0.440470	0.324251
C48	C	1.110047	0.773803	0.657584
C49	C	1.096179	-0.034648	0.002937
C50	C	1.429513	0.298685	0.336271
C51	C	1.762846	0.632018	0.669604
C52	C	1.094475	-0.122221	0.010352
C53	C	1.427808	0.211112	0.343685
C54	C	1.761142	0.544445	0.677018
C55	C	1.093684	-0.163355	-0.075334
C56	C	1.427017	0.169978	0.258000
C57	C	1.760351	0.503311	0.591333
C58	C	1.092077	-0.245639	-0.068364
C59	C	1.425410	0.087694	0.264969
C60	C	1.758743	0.421028	0.598303
C61	C	1.091267	-0.286788	0.024292
C62	C	1.424600	0.046546	0.357625
C63	C	1.757934	0.379879	0.690959
C64	C	1.092055	-0.245648	0.109984
C65	C	1.425389	0.087686	0.443317
C66	C	1.758722	0.421019	0.776650
C67	C	1.093656	-0.163365	0.103013
C68	C	1.426989	0.169969	0.436346
C69	C	1.760323	0.503302	0.769680
C70	C	1.086428	-0.535228	0.049800
C71	C	1.419761	-0.201895	0.383133
C72	C	1.753094	0.131438	0.716466
C73	C	1.084830	-0.617517	0.056764
C74	C	1.418163	-0.284184	0.390097
C75	C	1.751497	0.049150	0.723430
C76	C	1.084850	-0.617503	-0.121585
C77	C	1.418183	-0.284169	0.211748
C78	C	1.751516	0.049164	0.545082
C79	C	1.086456	-0.535219	-0.128547
C80	C	1.419789	-0.201886	0.204786
C81	C	1.753123	0.131448	0.538119
C82	C	1.087239	-0.494085	-0.042856
C83	C	1.420572	-0.160752	0.290478
C84	C	1.753906	0.172581	0.623811
C85	C	1.089627	-0.370895	0.031418
C86	C	1.422960	-0.037562	0.364752
C87	C	1.756294	0.295772	0.698085
C88	C	1.088872	-0.409979	-0.049983
C89	C	1.422206	-0.076646	0.283351
C90	C	1.755539	0.256688	0.616684
C91	C	1.257871	0.104054	-0.008815
C92	C	1.591205	0.437387	0.324518
C93	C	1.924538	0.770720	0.657851
C94	C	1.360246	0.105761	-0.008966
C95	C	1.693579	0.439094	0.324367
C96	C	2.026913	0.772428	0.657701
C97	C	1.082335	0.253776	-0.021501
C98	C	1.415668	0.587109	0.311833
C99	C	1.749001	0.920442	0.645166
C100	C	1.084039	0.341349	-0.028922
C101	C	1.417372	0.674682	0.304412
C102	C	1.750706	1.008015	0.637745
N103	N	1.089242	0.109553	0.245576
N104	N	1.422575	0.442887	0.578909
N105	N	1.755908	0.776220	0.912242
N106	N	1.089279	0.109568	-0.264137
N107	N	1.422613	0.442901	0.069197
N108	N	1.755946	0.776235	0.402530
C109	C	1.089265	0.109569	0.646865
C110	C	1.422598	0.442902	0.980199
C111	C	1.755932	0.776235	1.313532
C112	C	1.089256	0.109567	0.535214
C113	C	1.422589	0.442900	0.868548
C114	C	1.755922	0.776234	1.201881
C115	C	1.089254	0.109562	0.446224
C116	C	1.422587	0.442895	0.779557
C117	C	1.755920	0.776228	1.112891
C118	C	1.089244	0.109559	0.334566
C119	C	1.422577	0.442892	0.667899
C120	C	1.755910	0.776225	1.001233
H121	H	1.094348	-0.129859	-0.150784
H122	H	1.427682	0.203475	0.182549
H123	H	1.761015	0.536808	0.515882
O124	O	1.089491	-0.370033	-0.140014
O125	O	1.422824	-0.036700	0.193320
O126	O	1.756158	0.296633	0.526653
C127	C	1.009287	-0.381341	-0.193318
C128	C	1.342621	-0.048008	0.140015
C129	C	1.675954	0.285326	0.473348
H130	H	0.953044	-0.397804	-0.139751
H131	H	1.286378	-0.064471	0.193583
H132	H	1.619711	0.268863	0.526916
H133	H	0.983546	-0.324268	-0.238603
H134	H	1.316879	0.009065	0.094730
H135	H	1.650212	0.342398	0.428064
H136	H	1.026416	-0.431093	-0.244704
H137	H	1.359750	-0.097759	0.088629
H138	H	1.693083	0.235574	0.421963
H139	H	1.087084	-0.501749	0.119576
H140	H	1.420417	-0.168416	0.452910
H141	H	1.753751	0.164917	0.786243
H142	H	1.084166	-0.651018	0.132219
H143	H	1.417499	-0.317684	0.465553
H144	H	1.750832	0.015649	0.798886
H145	H	1.091437	-0.279127	-0.138138
H146	H	1.424770	0.054206	0.195195
H147	H	1.758103	0.387540	0.528528
O148	O	1.088733	-0.410948	0.121364
O149	O	1.422066	-0.077614	0.454697
O150	O	1.755400	0.255719	0.788030
C151	C	1.007968	-0.449718	0.130000
C152	C	1.341301	-0.116384	0.463333
C153	C	1.674635	0.216949	0.796666
H154	H	0.981105	-0.459088	0.053374
H155	H	1.314439	-0.125754	0.386707
H156	H	1.647772	0.207579	0.720040
H157	H	1.024805	-0.509570	0.172791
H158	H	1.358138	-0.176237	0.506124
H159	H	1.691472	0.157096	0.839458
H160	H	0.952686	-0.411847	0.170818
H161	H	1.286020	-0.078514	0.504151
H162	H	1.619353	0.254820	0.837484
O163	O	1.087258	-0.495154	-0.218492
O164	O	1.420591	-0.161821	0.114841
O165	O	1.753924	0.171513	0.448174
C166	C	1.167926	-0.456260	-0.227206
C167	C	1.501260	-0.122926	0.106127
C168	C	1.834593	0.210407	0.439461
H169	H	1.223374	-0.487236	-0.174149
H170	H	1.556707	-0.153902	0.159184
H171	H	1.890041	0.179431	0.492517
H172	H	1.194591	-0.458145	-0.305972
H173	H	1.527925	-0.124811	0.027361
H174	H	1.861258	0.208522	0.360695
H175	H	1.151046	-0.391949	-0.208544
H176	H	1.484379	-0.058616	0.124789
H177	H	1.817713	0.274718	0.458123
H178	H	1.091390	-0.279157	0.185426
H179	H	1.424724	0.054177	0.518760
H180	H	1.758057	0.387510	0.852093
H181	H	1.094287	-0.129873	0.172787
H182	H	1.427620	0.203460	0.506121
H183	H	1.760954	0.536794	0.839454
H184	H	1.084210	-0.651002	-0.191350
H185	H	1.417544	-0.317669	0.141983
H186	H	1.750877	0.015664	0.475317
