data_functionalizedCrystal
_audit_creation_method	'MofGen! by Chris Wilmer'
_symmetry_space_group_name_H-M	'P1'
_symmetry_Int_Tables_number	1
_symmetry_cell_setting	triclinic
loop_
_symmetry_equiv_pos_as_xyz
  x,y,z
_cell_length_a	8.497374
_cell_length_b	19.077105
_cell_length_c	19.077068
_cell_angle_alpha	90.115316
_cell_angle_beta	92.284024
_cell_angle_gamma	87.699981
loop_
_atom_site_label
_atom_site_type_symbol
_atom_site_fract_x
_atom_site_fract_y
_atom_site_fract_z
Zn1	Zn	1.016648	-1.062860	0.323110
Zn2	Zn	0.762970	-1.058079	0.440586
Zn3	Zn	0.741875	-0.945387	0.318369
Zn4	Zn	1.015701	-0.940595	0.435851
O5	O	0.884299	-1.001730	0.379479
O6	O	0.992222	-1.160556	0.342659
O7	O	0.539410	-1.043135	0.424372
O8	O	0.769893	-0.964977	0.220667
O9	O	0.805846	-1.157044	0.428968
O10	O	0.971767	-1.051283	0.224150
O11	O	0.523911	-0.960341	0.334579
O12	O	0.768974	-0.846421	0.329988
O13	O	1.236588	-0.956809	0.420898
O14	O	0.970152	-0.842901	0.416301
O15	O	1.237285	-1.046636	0.338067
O16	O	0.804927	-1.038488	0.538289
O17	O	0.990607	-0.952173	0.534810
C18	C	0.867172	-0.819165	0.372117
C19	C	0.859884	-0.741062	0.368984
C20	C	0.899989	-0.994311	0.562047
C21	C	0.906761	-0.991201	0.640152
C22	C	0.868583	-1.009198	0.196199
C23	C	0.861886	-1.012380	0.118097
C24	C	1.295778	-1.001725	0.379480
C25	C	1.474423	-1.001726	0.379487
C26	C	0.901493	-1.185009	0.386870
C27	C	0.908820	-1.263111	0.390020
C28	C	0.961050	-0.702552	0.412519
C29	C	0.954209	-0.629166	0.409566
C30	C	0.846193	-0.594292	0.363082
C31	C	0.745023	-0.632808	0.319542
C32	C	0.751873	-0.706192	0.322492
C33	C	0.814499	-0.375011	0.349430
C34	C	0.807654	-0.301621	0.346485
C35	C	1.016843	-0.297985	0.436509
C36	C	1.023677	-0.371371	0.439457
C37	C	0.922512	-0.409880	0.395915
N38	N	0.839195	-0.519280	0.360064
N39	N	0.929519	-0.484891	0.398930
C40	C	0.813355	-1.034715	0.678636
C41	C	0.819734	-1.031794	0.752025
C42	C	0.919510	-0.985356	0.786928
C43	C	1.012926	-0.941841	0.748439
C44	C	1.006555	-0.944765	0.675052
C45	C	0.948930	-0.971789	1.006221
C46	C	0.955291	-0.968866	1.079613
C47	C	0.762100	-1.058821	1.083193
C48	C	0.755730	-1.061739	1.009804
C49	C	0.849152	-1.018226	0.971322
N50	N	0.926029	-0.982368	0.861943
N51	N	0.842641	-1.021218	0.896309
H52	H	1.049004	-0.730941	0.450374
C53	C	1.099243	-0.183877	0.471957
C54	C	1.128053	-0.255654	0.484361
H55	H	1.167914	-0.157746	0.501497
H56	H	0.992979	-0.171431	0.481687
H57	H	1.117324	-0.173777	0.424275
H58	H	1.109961	-0.265756	0.532043
H59	H	1.234343	-0.268105	0.474636
C60	C	0.489928	-1.096982	0.988620
C61	C	0.646062	-1.112793	0.971446
H62	H	0.422224	-1.128505	0.964943
H63	H	0.461289	-1.050264	0.974729
H64	H	0.480379	-1.101466	1.037836
H65	H	0.655613	-1.108304	0.922230
H66	H	0.674709	-1.159523	0.985333
C67	C	0.698594	-1.176939	1.110481
C68	C	0.659425	-1.106657	1.125490
H69	H	0.635199	-1.206473	1.136589
H70	H	0.806598	-1.186697	1.122898
H71	H	0.680523	-1.185313	1.061777
H72	H	0.677508	-1.098282	1.174194
H73	H	0.551396	-1.096896	1.113077
H74	H	0.719703	-0.273229	0.308624
C75	C	1.229774	-0.360402	0.528141
C76	C	1.142416	-0.409702	0.490553
H77	H	1.303080	-0.384068	0.559684
H78	H	1.160575	-0.330686	0.553819
H79	H	1.284932	-0.333025	0.496411
H80	H	1.087248	-0.437076	0.522283
H81	H	1.211624	-0.439430	0.464874
C82	C	0.547541	-1.069947	0.657449
C83	C	0.703673	-1.085761	0.640274
H84	H	0.479833	-1.101466	0.633770
H85	H	0.518910	-1.023227	0.643561
H86	H	0.537993	-1.074434	0.706665
H87	H	0.713225	-1.081269	0.591058
H88	H	0.732313	-1.132492	0.654158
C89	C	1.012288	-0.853526	0.588786
C90	C	1.109229	-0.896934	0.632748
H91	H	1.075686	-0.824001	0.562668
H92	H	0.943491	-0.825531	0.616367
H93	H	0.951961	-0.881608	0.557499
H94	H	1.169547	-0.868851	0.664038
H95	H	1.178054	-0.924931	0.605164
H96	H	1.094174	-0.904033	0.776864
H97	H	0.669500	-0.737547	0.287037
C98	C	1.145656	-0.880253	1.068707
C99	C	1.064991	-0.917825	1.117981
H100	H	1.213382	-0.848748	1.092396
H101	H	1.071886	-0.854535	1.039038
H102	H	1.206428	-0.911998	1.041278
H103	H	1.004209	-0.886080	1.145407
H104	H	1.138771	-0.943544	1.147662
H105	H	0.732112	-0.406356	0.313981
C106	C	1.161625	-0.632942	0.498865
C107	C	1.065390	-0.586835	0.457433
H108	H	1.230254	-0.606807	0.528422
H109	H	1.222143	-0.662805	0.469448
H110	H	1.097737	-0.660475	0.526834
H111	H	1.129278	-0.559305	0.429460
H112	H	1.004866	-0.556960	0.486853
C113	C	0.641639	-0.521931	0.275047
C114	C	0.626294	-0.594476	0.268442
H115	H	0.568331	-0.498269	0.243502
H116	H	0.745663	-0.510331	0.264357
H117	H	0.621301	-0.507993	0.321762
H118	H	0.646644	-0.608414	0.221729
H119	H	0.522246	-0.606081	0.279128
H120	H	1.024995	-0.936358	0.974894
H121	H	0.743672	-1.067227	0.783355
