data_functionalizedCrystal
_audit_creation_method	'MofGen! by Chris Wilmer'
_symmetry_space_group_name_H-M	'P1'
_symmetry_Int_Tables_number	1
_symmetry_cell_setting	triclinic
loop_
_symmetry_equiv_pos_as_xyz
  x,y,z
_cell_length_a	19.288864
_cell_length_b	19.188930
_cell_length_c	18.366186
_cell_angle_alpha	89.993572
_cell_angle_beta	89.979684
_cell_angle_gamma	83.140512
loop_
_atom_site_label
_atom_site_type_symbol
_atom_site_fract_x
_atom_site_fract_y
_atom_site_fract_z
O1	O	0.921357	0.087094	-0.060791
O2	O	0.719097	0.098844	-0.060743
O3	O	0.826064	-0.008687	-0.060754
O4	O	0.814391	0.194625	-0.060780
O5	O	0.826050	-0.008683	0.060345
O6	O	0.719083	0.098848	0.060357
O7	O	0.921343	0.087099	0.060308
Zn8	Zn	0.820211	0.092974	0.079560
Zn9	Zn	0.820230	0.092968	-0.079994
O10	O	0.814377	0.194629	0.060320
C11	C	0.693214	0.098468	-0.000186
C12	C	0.616110	0.097333	-0.000167
C13	C	0.571419	0.160427	-0.000187
C14	C	0.498972	0.159361	-0.000195
C15	C	0.471219	0.095197	-0.000198
C16	C	0.515921	0.032095	-0.000174
C17	C	0.588366	0.033163	-0.000159
C18	C	0.362958	0.044756	-0.042642
C19	C	0.290514	0.043690	-0.042662
C20	C	0.247773	0.091900	-0.000241
C21	C	0.277485	0.141188	0.042190
C22	C	0.349930	0.142256	0.042205
C23	C	0.392665	0.094032	-0.000214
C24	C	0.124526	0.153843	-0.000268
C25	C	0.052078	0.152774	-0.000272
C26	C	0.069028	0.025506	-0.000259
C27	C	0.141475	0.026576	-0.000248
C28	C	0.169219	0.090747	-0.000256
C29	C	0.825679	-0.034696	-0.000202
C30	C	0.824544	-0.112200	-0.000196
C31	C	0.887309	-0.157129	-0.000207
C32	C	0.886243	-0.229953	-0.000219
C33	C	0.822408	-0.257844	-0.000204
C34	C	0.759636	-0.212906	-0.000196
C35	C	0.760704	-0.140084	-0.000192
N36	N	0.773610	-0.365844	0.041020
N37	N	0.772600	-0.435023	0.041018
C38	C	0.819187	-0.477253	-0.000218
N39	N	0.866833	-0.447692	-0.041442
N40	N	0.867846	-0.378508	-0.041436
C41	C	0.821243	-0.336807	-0.000209
C42	C	0.880800	-0.601146	-0.000243
C43	C	0.879731	-0.673971	-0.000259
C44	C	0.753122	-0.656922	-0.000229
C45	C	0.754193	-0.584099	-0.000220
C46	C	0.818034	-0.556216	-0.000224
C47	C	0.947227	0.087475	-0.000250
C48	C	1.024330	0.088609	-0.000274
C49	C	0.814762	0.220638	-0.000234
C50	C	0.815896	0.298143	-0.000245
N51	N	0.820203	0.092977	0.188451
C52	C	0.862236	0.135196	0.772984
C53	C	0.862229	0.135203	0.696756
C54	C	0.820234	0.092964	0.658662
C55	C	0.778230	0.050729	0.696802
C56	C	0.778233	0.050729	0.773028
C57	C	0.818503	0.030013	0.537905
C58	C	0.818505	0.030012	0.461680
C59	C	0.820221	0.092965	0.423555
C60	C	0.821950	0.155920	0.461663
C61	C	0.821953	0.155920	0.537890
C62	C	0.820226	0.092960	0.576007
C63	C	0.862212	0.135208	0.302769
C64	C	0.862200	0.135216	0.226540
C65	C	0.778204	0.050736	0.226587
C66	C	0.778212	0.050734	0.302815
C67	C	0.820220	0.092969	0.340901
N68	N	0.820240	0.092964	0.811115
H69	H	0.374119	0.182385	0.076756
H70	H	0.177864	-0.024802	-0.000236
H71	H	0.744034	0.016338	0.804074
H72	H	0.896413	0.169601	0.333780
O73	O	0.003871	0.220831	-0.000285
H74	H	-0.029522	0.223382	-0.049644
H75	H	0.896427	0.169596	0.665704
O76	O	0.039108	-0.043703	-0.000262
H77	H	-0.018777	-0.033847	-0.000280
H78	H	0.939293	-0.134431	-0.000213
O79	O	0.823816	0.223815	0.578994
H80	H	0.777320	0.260968	0.564387
O81	O	0.231399	0.193189	0.087953
H82	H	0.176033	0.184162	0.080825
O83	O	0.947434	-0.722430	-0.000274
H84	H	0.935968	-0.777754	-0.000286
H85	H	0.147116	0.206094	-0.000264
H86	H	0.817103	-0.021250	0.430658
O87	O	0.823793	0.223827	0.420553
H88	H	0.871186	0.219875	0.385796
O89	O	0.907537	0.180756	0.814059
H90	H	0.944973	0.147187	0.848772
O91	O	0.686494	-0.535637	-0.000189
H92	H	0.655933	-0.545522	-0.049536
H93	H	0.701147	-0.679631	-0.000221
O94	O	0.258469	-0.009473	-0.088414
H95	H	0.300360	-0.042830	-0.117895
O96	O	0.953940	-0.278426	-0.000221
H97	H	0.998511	-0.246802	-0.000217
H98	H	0.744018	0.016341	0.333861
H99	H	0.624755	-0.018218	-0.000144
H100	H	0.462577	0.210742	-0.000208
H101	H	0.397753	0.005496	-0.077191
O102	O	0.732923	0.005168	0.185502
H103	H	0.695494	0.038731	0.150775
H104	H	0.709591	-0.103502	-0.000183
O105	O	0.907493	0.180772	0.185407
H106	H	0.936705	0.210135	0.224700
H107	H	0.817099	-0.021253	0.568941
O108	O	0.732968	0.005135	0.655722
H109	H	0.740039	0.012212	0.596310
H110	H	0.493320	-0.020148	-0.000187
O111	O	0.601345	0.229636	-0.000175
H112	H	0.558092	0.273331	-0.000179
H113	H	0.707661	-0.235620	-0.000186
H114	H	0.932783	-0.578442	-0.000249
