data_functionalizedCrystal
_audit_creation_method	'MofGen! by Chris Wilmer'
_symmetry_space_group_name_H-M	'P1'
_symmetry_Int_Tables_number	1
_symmetry_cell_setting	triclinic
loop_
_symmetry_equiv_pos_as_xyz
  x,y,z
_cell_length_a	10.685901
_cell_length_b	13.897447
_cell_length_c	10.686551
_cell_angle_alpha	94.405975
_cell_angle_beta	90.348291
_cell_angle_gamma	85.656047
loop_
_atom_site_label
_atom_site_type_symbol
_atom_site_fract_x
_atom_site_fract_y
_atom_site_fract_z
Zn1	Zn	1.972171	-0.466434	0.561872
Zn2	Zn	2.472171	0.033566	1.061872
Zn3	Zn	1.955924	-0.639118	0.352116
Zn4	Zn	2.455924	-0.139118	0.852116
Zn5	Zn	1.746297	-0.464622	0.368248
Zn6	Zn	2.246297	0.035378	0.868248
Zn7	Zn	1.762364	-0.614465	0.577944
Zn8	Zn	2.262364	-0.114465	1.077944
O9	O	1.859189	-0.546159	0.465045
O10	O	2.359189	-0.046159	0.965045
O11	O	2.145551	-0.500416	0.520570
O12	O	2.645551	-0.000416	1.020570
O13	O	1.914594	-0.625529	0.178714
O14	O	2.414594	-0.125529	0.678714
O15	O	1.776336	-0.329883	0.393957
O16	O	2.276336	0.170117	0.893957
O17	O	2.133614	-0.627286	0.366463
O18	O	2.633614	-0.127286	0.866463
O19	O	1.942284	-0.331215	0.536212
O20	O	2.442284	0.168785	1.036212
O21	O	1.760582	-0.497328	0.190566
O22	O	2.260582	0.002672	0.690566
O23	O	1.572894	-0.473423	0.409542
O24	O	2.072894	0.026577	0.909542
O25	O	1.803718	-0.585269	0.751354
O26	O	2.303718	-0.085269	1.251354
O27	O	1.584698	-0.583512	0.563605
O28	O	2.084698	-0.083512	1.063605
O29	O	1.957863	-0.476511	0.739546
O30	O	2.457863	0.023489	1.239546
O31	O	1.930172	-0.770826	0.382048
O32	O	2.430172	-0.270826	0.882048
O33	O	1.787964	-0.752714	0.547963
O34	O	2.287964	-0.252714	1.047963
C35	C	1.533282	-0.525596	0.490069
C36	C	2.033282	-0.025596	0.990069
C37	C	1.393859	-0.516821	0.500804
C38	C	1.893859	-0.016821	1.000804
C39	C	1.859085	-0.796769	0.465024
C40	C	2.359085	-0.296769	0.965024
C41	C	1.859158	-0.903986	0.465048
C42	C	2.359158	-0.403986	0.965048
C43	C	1.859221	-0.991058	0.465072
C44	C	2.359221	-0.491058	0.965072
C45	C	1.859312	-1.100294	0.465097
C46	C	2.359312	-0.600294	0.965097
C47	C	2.186369	-0.566803	0.439924
C48	C	2.686369	-0.066803	0.939924
C49	C	2.325794	-0.575601	0.429219
C50	C	2.825794	-0.075601	0.929219
C51	C	1.884395	-0.528342	0.792239
C52	C	2.384395	-0.028342	1.292239
C53	C	1.895136	-0.520750	0.931669
C54	C	2.395136	-0.020750	1.431669
C55	C	1.859330	-0.294572	0.465091
C56	C	2.359330	0.205428	0.965091
C57	C	1.859390	-0.187360	0.465111
C58	C	2.359390	0.312640	0.965111
C59	C	1.834154	-0.563842	0.139118
C60	C	2.334154	-0.063842	0.639118
C61	C	1.823655	-0.571178	-0.000330
C62	C	2.323655	-0.071178	0.499670
H63	H	1.345465	-0.459786	0.570310
H64	H	1.845465	0.040214	1.070310
H65	H	1.964561	-0.471769	0.980125
H66	H	2.464561	0.028231	1.480125
H67	H	1.374183	-0.632640	0.359729
H68	H	1.874183	-0.132640	0.859729
C69	C	1.729874	-0.637351	0.934218
C70	C	2.229874	-0.137351	1.434218
N71	N	1.659234	-0.687192	0.884912
N72	N	2.159234	-0.187192	1.384912
