data_functionalizedCrystal
_audit_creation_method	'MofGen! by Chris Wilmer'
_symmetry_space_group_name_H-M	'P1'
_symmetry_Int_Tables_number	1
_symmetry_cell_setting	triclinic
loop_
_symmetry_equiv_pos_as_xyz
  x,y,z
_cell_length_a	12.827893
_cell_length_b	13.032721
_cell_length_c	13.033454
_cell_angle_alpha	89.068673
_cell_angle_beta	97.162513
_cell_angle_gamma	97.204267
loop_
_atom_site_label
_atom_site_type_symbol
_atom_site_fract_x
_atom_site_fract_y
_atom_site_fract_z
Zn1	Zn	1.474590	-0.335514	-0.633434
Zn2	Zn	1.468911	-0.529367	-0.483297
Zn3	Zn	1.318883	-0.357410	-0.461486
Zn4	Zn	1.275198	-0.507448	-0.655216
O5	O	1.384395	-0.432435	-0.558358
O6	O	1.620070	-0.361239	-0.613531
O7	O	1.464915	-0.524893	-0.336494
O8	O	1.360197	-0.210585	-0.466052
O9	O	1.615897	-0.503662	-0.503225
O10	O	1.474594	-0.194499	-0.592382
O11	O	1.354690	-0.398557	-0.320469
O12	O	1.166855	-0.377303	-0.487172
O13	O	1.285742	-0.466304	-0.796236
O14	O	1.134760	-0.487535	-0.629505
O15	O	1.432235	-0.339985	-0.780234
O16	O	1.422555	-0.670379	-0.524346
O17	O	1.280235	-0.654275	-0.650654
C18	C	1.112891	-0.432417	-0.558336
C19	C	0.996733	-0.432432	-0.558354
C20	C	0.929091	-0.487088	-0.628701
C21	C	0.809036	-0.487104	-0.628721
C22	C	1.346064	-0.699641	-0.592253
C23	C	1.329758	-0.813949	-0.606787
C24	C	1.392956	-0.872838	-0.550819
C25	C	1.376104	-0.990981	-0.565840
C26	C	1.656960	-0.432453	-0.558381
C27	C	1.773111	-0.432460	-0.558391
C28	C	1.354749	-0.398257	-0.826593
C29	C	1.342115	-0.383693	-0.940898
C30	C	1.422902	-0.164182	-0.524354
C31	C	1.439311	-0.049869	-0.509864
C32	C	1.391020	-0.439708	-0.999788
C33	C	1.377964	-0.424656	-1.117929
C34	C	1.413997	-0.466405	-0.291158
C35	C	1.426875	-0.480680	-0.176816
H36	H	0.750926	-0.533901	-0.688945
F37	F	0.849056	-0.371299	-0.479660
H38	H	1.263180	-0.850996	-0.665828
H39	H	1.478418	-0.539780	-1.139776
F40	F	0.956261	-0.371277	-0.479655
F41	F	1.458390	-0.516950	-0.951371
F42	F	1.274760	-0.306438	-0.989313
H43	H	1.309521	-1.028024	-0.624884
F44	F	0.969564	-0.548241	-0.707402
H45	H	1.326430	-0.365548	-1.154969
H46	H	1.459543	-0.835792	-0.491785
H47	H	1.505902	-1.012826	-0.450826
