data_functionalizedCrystal
_audit_creation_method	'MofGen! by Chris Wilmer'
_symmetry_space_group_name_H-M	'P1'
_symmetry_Int_Tables_number	1
_symmetry_cell_setting	triclinic
loop_
_symmetry_equiv_pos_as_xyz
  x,y,z
_cell_length_a	15.625950
_cell_length_b	19.188925
_cell_length_c	14.750779
_cell_angle_alpha	77.401762
_cell_angle_beta	120.090508
_cell_angle_gamma	83.720912
loop_
_atom_site_label
_atom_site_type_symbol
_atom_site_fract_x
_atom_site_fract_y
_atom_site_fract_z
O1	O	1.286118	0.021527	0.367715
O2	O	0.999070	0.051303	0.267827
O3	O	1.150882	-0.065763	0.320661
O4	O	1.134306	0.138593	0.314882
O5	O	1.193797	-0.098853	0.495246
O6	O	1.041986	0.018213	0.442413
O7	O	1.329033	-0.011563	0.542301
Zn8	Zn	1.192323	-0.001929	0.520076
Zn9	Zn	1.135780	0.041669	0.290052
O10	O	1.177221	0.105503	0.489467
C11	C	0.983804	0.036686	0.342341
C12	C	0.874379	0.042423	0.304263
C13	C	0.631332	-0.028832	0.654732
C14	C	0.528496	-0.023418	0.618903
C15	C	0.481763	0.012653	0.428594
C16	C	0.584596	0.007245	0.464408
C17	C	0.659374	-0.013498	0.577478
C18	C	0.612638	0.022579	0.387153
C19	C	0.715464	0.017168	0.422965
C20	C	0.790247	-0.003576	0.536030
C21	C	0.762200	-0.018909	0.613289
C22	C	0.537860	0.043317	0.274084
C23	C	0.565901	0.058651	0.196829
C24	C	0.668728	0.053245	0.232640
C25	C	0.743511	0.032501	0.345706
C26	C	0.696775	0.068578	0.155381
C27	C	0.799601	0.063167	0.191192
C28	C	0.846337	0.027090	0.381517
C29	C	1.171804	-0.108285	0.407766
C30	C	1.170195	-0.185688	0.407204
C31	C	1.248496	-0.752375	0.434428
C32	C	1.250018	-0.679650	0.434966
C33	C	1.160940	-0.629116	0.403968
C34	C	1.070341	-0.651319	0.372457
C35	C	1.068824	-0.724046	0.371930
N36	N	1.081845	-0.493119	0.322103
N37	N	1.083292	-0.424032	0.322603
C38	C	1.165506	-0.409994	0.405556
N39	N	1.246232	-0.467652	0.487982
N40	N	1.244786	-0.536745	0.487478
C41	C	1.162576	-0.550255	0.404537
C42	C	1.257752	-0.308943	0.437657
C43	C	1.259273	-0.236216	0.438201
C44	C	1.079590	-0.207885	0.375680
C45	C	1.078076	-0.280612	0.375148
C46	C	1.167158	-0.331136	0.406132
C47	C	1.344299	0.003054	0.467785
C48	C	1.453722	-0.002682	0.505856
C49	C	1.156299	0.148026	0.402359
C50	C	1.157906	0.225430	0.402914
N51	N	1.230919	-0.031684	0.677064
N52	N	1.097192	0.071418	0.133067
C53	C	0.989399	0.154488	0.944828
C54	C	1.016452	0.133642	1.054742
C55	C	1.150908	0.030013	1.101499
C56	C	1.123863	0.050848	0.991585
C57	C	1.043109	0.113087	0.913258
C58	C	1.177573	0.009447	0.960015
C59	C	1.150534	0.030284	0.850112
C60	C	1.069784	0.092521	0.771780
C61	C	1.016069	0.133923	0.803355
C62	C	1.258332	-0.052788	1.038346
C63	C	1.312042	-0.094189	1.006775
C64	C	1.284998	-0.073356	0.896869
C65	C	1.204249	-0.011119	0.818537
C66	C	1.338713	-0.114758	0.865294
C67	C	1.311674	-0.093922	0.755391
C68	C	1.177209	0.009717	0.708634
H69	H	0.692220	-0.045712	0.746805
Cl70	Cl	0.964183	-0.308513	0.335519
Cl71	Cl	0.967609	-0.144366	0.336725
H72	H	1.321035	-0.793510	0.459664
Cl73	Cl	1.440240	-0.192992	0.963774
H74	H	1.333046	-0.218150	0.463870
H75	H	0.972708	0.167362	1.080437
Cl76	Cl	0.887866	0.232726	0.846351
H77	H	1.323789	-0.661575	0.460629
Cl78	Cl	0.919517	-0.010385	0.581054
H79	H	1.377796	-0.144863	1.070562
Cl80	Cl	1.075676	0.087956	0.610157
Cl81	Cl	0.387753	0.038706	0.286455
Cl82	Cl	1.379200	-0.145969	0.715703
Cl83	Cl	0.834858	0.082442	0.094072
Cl84	Cl	1.252428	-0.048226	1.199973
Cl85	Cl	0.954930	-0.751948	0.332307
Cl86	Cl	1.035795	0.118718	0.633616
Cl87	Cl	0.958359	-0.587793	0.333493
H88	H	1.330289	-0.350082	0.462887
H89	H	0.950304	0.184599	0.739574
Cl90	Cl	0.856213	-0.044978	0.755437
Cl91	Cl	1.292326	-0.078976	1.176511
H92	H	0.907225	0.010209	0.473589
H93	H	0.454133	0.047726	0.244930
Cl94	Cl	0.493252	-0.042710	0.716037
H95	H	0.505005	0.075537	0.104767
H96	H	0.635878	0.085460	0.063319
