data_functionalizedCrystal
_audit_creation_method	'MofGen! by Chris Wilmer'
_symmetry_space_group_name_H-M	'P1'
_symmetry_Int_Tables_number	1
_symmetry_cell_setting	triclinic
loop_
_symmetry_equiv_pos_as_xyz
  x,y,z
_cell_length_a	6.817900
_cell_length_b	15.301126
_cell_length_c	9.582880
_cell_angle_alpha	92.795801
_cell_angle_beta	111.207034
_cell_angle_gamma	104.177575
loop_
_atom_site_label
_atom_site_type_symbol
_atom_site_fract_x
_atom_site_fract_y
_atom_site_fract_z
V1	V	-4.120136	-0.124378	-0.467055
O2	O	-4.102207	0.006368	-0.457696
O3	O	-4.074539	-0.246997	-0.464311
O4	O	-4.110851	-0.122293	-0.670548
O5	O	-4.065644	-0.119199	-0.250031
V6	V	-4.598332	-0.108759	-0.441042
O7	O	-4.393079	-0.158638	-0.524115
O8	O	-4.775587	-0.074499	-0.383982
O9	O	-4.420723	0.013860	-0.443786
O10	O	-4.733658	-0.239506	-0.450401
O11	O	-4.770221	-0.113938	-0.658066
O12	O	-4.384411	-0.110844	-0.237549
C13	C	-3.918956	-0.276894	-0.457059
C14	C	-3.963222	-0.377136	-0.456171
C15	C	-4.167694	-0.428816	-0.463236
C16	C	-4.209280	-0.523005	-0.462411
C17	C	-4.046385	-0.565510	-0.454511
C18	C	-3.841899	-0.513823	-0.447450
C19	C	-3.800321	-0.419637	-0.448286
C20	C	-3.928571	-0.710135	-0.445705
C21	C	-3.970149	-0.804327	-0.444867
C22	C	-4.337529	-0.813502	-0.459830
C23	C	-4.295952	-0.719317	-0.460666
C24	C	-4.091466	-0.667636	-0.453603
C25	C	-3.965274	-0.117821	-0.720133
C26	C	-4.038985	-0.116927	-0.886493
C27	C	-4.239647	0.043752	-0.451034
C28	C	-4.174620	0.143993	-0.451931
C29	C	-4.193328	-0.115320	-0.187956
C30	C	-4.098855	-0.116208	-0.021595
H31	H	-3.709275	-0.548439	-0.441027
H32	H	-3.633825	-0.377561	-0.442540
C33	C	-3.706540	-0.653888	-0.437805
C34	C	-3.608742	-0.587485	-0.308475
C35	C	-3.404224	-0.535644	-0.301150
H36	H	-3.615219	-0.692573	-0.432891
H37	H	-3.725477	-0.625064	-0.525478
H38	H	-3.589795	-0.616307	-0.220824
H39	H	-3.699999	-0.548779	-0.313360
H40	H	-3.423161	-0.506821	-0.388823
H41	H	-3.312922	-0.574337	-0.296241
H42	H	-3.337851	-0.490579	-0.213409
C43	C	-4.559330	-0.869688	-0.467239
C44	C	-4.530666	-0.911991	-0.337815
C45	C	-4.734922	-0.963764	-0.344577
H46	H	-4.650542	-0.830976	-0.471976
H47	H	-4.626104	-0.914839	-0.554880
H48	H	-4.463923	-0.866846	-0.250197
H49	H	-4.439490	-0.950718	-0.333053
H50	H	-4.801697	-1.008915	-0.432218
H51	H	-4.826119	-0.925046	-0.349316
H52	H	-4.715499	-0.992480	-0.256772
H53	H	-4.375779	-0.565079	-0.468166
C54	C	-4.344320	-0.382592	-0.471498
C55	C	-4.267975	-0.316757	-0.343003
C56	C	-4.430639	-0.274169	-0.350555
H57	H	-4.378708	-0.354128	-0.559744
H58	H	-4.472062	-0.426828	-0.475510
H59	H	-4.140272	-0.272528	-0.339005
H60	H	-4.233602	-0.345198	-0.254737
H61	H	-4.558381	-0.318405	-0.354568
H62	H	-4.465015	-0.245710	-0.438806
H63	H	-4.378869	-0.229501	-0.263368
H64	H	-4.428593	-0.684711	-0.467090
H65	H	-3.837525	-0.838936	-0.438478
