data_functionalizedCrystal
_audit_creation_method	'MofGen! by Chris Wilmer'
_symmetry_space_group_name_H-M	'P1'
_symmetry_Int_Tables_number	1
_symmetry_cell_setting	triclinic
loop_
_symmetry_equiv_pos_as_xyz
  x,y,z
_cell_length_a	12.759401
_cell_length_b	18.215404
_cell_length_c	12.759393
_cell_angle_alpha	89.967833
_cell_angle_beta	89.981105
_cell_angle_gamma	90.021426
loop_
_atom_site_label
_atom_site_type_symbol
_atom_site_fract_x
_atom_site_fract_y
_atom_site_fract_z
Zn1	Zn	-1.606187	0.292988	0.593993
Zn2	Zn	-1.606057	0.416071	0.418306
Zn3	Zn	-1.430491	0.293019	0.418329
Zn4	Zn	-1.430451	0.416014	0.593944
O5	O	-1.518296	0.354523	0.506143
O6	O	-1.753191	0.309327	0.570698
O7	O	-1.582730	0.399785	0.271288
O8	O	-1.453868	0.190031	0.441661
O9	O	-1.753095	0.399755	0.441622
O10	O	-1.582951	0.190008	0.570721
O11	O	-1.453742	0.309379	0.271305
O12	O	-1.283464	0.309323	0.441614
O13	O	-1.453801	0.399657	0.740972
O14	O	-1.283436	0.399687	0.570638
O15	O	-1.582913	0.309271	0.741008
O16	O	-1.582692	0.519048	0.441575
O17	O	-1.453675	0.519006	0.570615
C18	C	-1.245329	0.354503	0.506124
C19	C	-1.128552	0.354512	0.506141
C20	C	-1.073741	0.307510	0.573454
C21	C	-0.964017	0.307514	0.573459
C22	C	-0.963926	0.401530	0.438835
C23	C	-1.073648	0.401521	0.438826
C24	C	-0.814114	0.220766	0.611230
C25	C	-0.759299	0.173770	0.678559
C26	C	-0.794957	0.162555	0.781099
C27	C	-0.885429	0.198347	0.816330
C28	C	-0.940238	0.245348	0.749007
C29	C	-0.904582	0.256549	0.646452
C30	C	-1.223552	0.488271	0.401066
C31	C	-1.278364	0.535276	0.333746
C32	C	-1.242708	0.546499	0.231205
C33	C	-1.152233	0.510720	0.195977
C34	C	-1.097421	0.463714	0.263297
C35	C	-1.133084	0.452491	0.365837
C36	C	-1.518193	0.545729	0.506110
C37	C	-1.518246	0.627528	0.506131
C38	C	-1.518367	0.354455	0.780177
C39	C	-1.518397	0.354425	0.896953
C40	C	-0.792330	0.354537	0.506159
C41	C	-0.909106	0.354525	0.506156
C42	C	-1.585625	0.892583	0.439099
C43	C	-1.585581	0.815724	0.439070
C44	C	-1.451113	0.815722	0.573323
C45	C	-1.451153	0.892579	0.573346
C46	C	-1.518415	0.931008	0.506235
C47	C	-1.518330	0.777292	0.506183
C48	C	-1.518282	0.693958	0.506152
C49	C	-1.518462	1.014347	0.506264
C50	C	-1.518432	1.162570	0.506215
C51	C	-1.518500	1.080771	0.506287
C52	C	-1.518287	0.354538	0.233176
C53	C	-1.518460	0.354360	0.116400
C54	C	-1.451224	0.401436	1.061530
C55	C	-1.451189	0.401466	0.951805
C56	C	-1.585636	0.307345	0.951831
C57	C	-1.585665	0.307311	1.061553
C58	C	-1.327226	0.427797	0.801842
C59	C	-1.259999	0.474884	0.746968
C60	C	-1.243827	0.546680	0.782566
C61	C	-1.294898	0.571404	0.873036
C62	C	-1.362132	0.524321	0.927904
C63	C	-1.378285	0.452514	0.892307
C64	C	-1.709629	0.280988	1.211519
C65	C	-1.776870	0.233908	1.266389
C66	C	-1.793053	0.162111	1.230793
C67	C	-1.742001	0.137390	1.140320
C68	C	-1.674760	0.184469	1.085450
C69	C	-1.658576	0.256266	1.121053
H70	H	-0.785081	0.229884	0.527730
H71	H	-1.696443	0.339447	1.240521
H72	H	-0.750319	0.124289	0.835919
H73	H	-1.281734	0.629871	0.902005
H74	H	-1.340373	0.369331	0.772859
H75	H	-1.118441	0.269230	0.628263
H76	H	-1.013902	0.274486	0.777689
Cl77	Cl	-1.670102	0.248189	0.882874
Cl78	Cl	-1.159313	0.605873	0.713579
Cl79	Cl	-1.366569	0.767406	0.657695
Cl80	Cl	-1.311609	0.605601	0.146580
H81	H	-1.123197	0.519861	0.112482
H82	H	-1.403715	0.544451	1.001561
H83	H	-1.218418	0.454747	0.673308
Cl84	Cl	-0.645555	0.128789	0.634276
Cl85	Cl	-0.930239	0.184257	0.945252
Cl86	Cl	-1.366650	0.940888	0.657751
H87	H	-1.023751	0.434581	0.234606
Cl88	Cl	-1.366733	0.460580	1.130476
Cl89	Cl	-1.610580	0.153390	0.971710
H90	H	-1.352044	0.564400	0.362432
H91	H	-1.640394	0.923870	0.384452
Cl92	Cl	-0.894895	0.460626	0.354219
Cl93	Cl	-1.762349	0.047129	1.095562
H94	H	-1.252598	0.479131	0.484561
H95	H	-1.847815	0.123781	1.275474
Cl96	Cl	-1.841059	0.264990	1.380122
H97	H	-1.640308	0.784441	0.384400
