data_functionalizedCrystal
_audit_creation_method	'MofGen! by Chris Wilmer'
_symmetry_space_group_name_H-M	'P1'
_symmetry_Int_Tables_number	1
_symmetry_cell_setting	triclinic
loop_
_symmetry_equiv_pos_as_xyz
  x,y,z
_cell_length_a	13.635800
_cell_length_b	19.361453
_cell_length_c	19.551595
_cell_angle_alpha	79.428167
_cell_angle_beta	78.339497
_cell_angle_gamma	81.487372
loop_
_atom_site_label
_atom_site_type_symbol
_atom_site_fract_x
_atom_site_fract_y
_atom_site_fract_z
V1	V	1.924794	-0.218267	0.097418
O2	O	1.982552	-0.213693	-0.003931
O3	O	1.841225	-0.217176	0.192441
O4	O	1.889300	-0.313277	0.096248
O5	O	1.934144	-0.116928	0.092928
V6	V	2.175764	-0.206097	0.085256
O7	O	2.035223	-0.244962	0.124095
O8	O	2.290433	-0.179401	0.058579
O9	O	2.147729	-0.207187	-0.009768
O10	O	2.176704	-0.210670	0.186605
O11	O	2.225112	-0.307436	0.089746
O12	O	2.099654	-0.111087	0.086426
V13	V	2.424794	-0.218267	0.097418
O14	O	2.482552	-0.213693	-0.003931
O15	O	2.341225	-0.217176	0.192441
O16	O	2.389300	-0.313277	0.096248
O17	O	2.434144	-0.116928	0.092928
V18	V	2.675764	-0.206097	0.085256
O19	O	2.535223	-0.244962	0.124095
O20	O	2.790433	-0.179401	0.058579
O21	O	2.647729	-0.207187	-0.009768
O22	O	2.676704	-0.210670	0.186605
O23	O	2.725112	-0.307436	0.089746
O24	O	2.599654	-0.111087	0.086426
C25	C	1.749648	-0.213837	0.215596
C26	C	1.721889	-0.213579	0.293281
C27	C	1.810973	-0.336422	0.092891
C28	C	1.822203	-0.414096	0.092564
C29	C	1.797239	-0.216964	0.333338
C30	C	1.771171	-0.216732	0.406334
C31	C	1.669753	-0.213110	0.439271
C32	C	1.594399	-0.209727	0.399209
C33	C	1.620467	-0.209964	0.326215
C34	C	2.070975	-0.210525	-0.032918
C35	C	2.088352	-0.210787	-0.110603
C36	C	2.009651	-0.087938	0.089785
C37	C	1.988043	-0.010264	0.090109
C38	C	1.820798	0.539174	0.156443
C39	C	1.841107	0.466190	0.156144
C40	C	1.862801	0.439939	0.091963
C41	C	1.864210	0.486679	0.028075
C42	C	1.843911	0.559662	0.028375
C43	C	1.846644	0.329866	0.044677
C44	C	1.866936	0.256884	0.044380
C45	C	1.925415	0.214836	0.091033
C46	C	1.963585	0.245776	0.137997
C47	C	1.943286	0.318759	0.138297
C48	C	1.884814	0.360802	0.091630
C49	C	1.946033	0.088967	0.154593
C50	C	1.966349	0.015983	0.154291
C51	C	1.989442	0.036473	0.026220
C52	C	1.969136	0.109456	0.026524
C53	C	1.947428	0.135699	0.090712
C54	C	2.185500	-0.207462	-0.150657
C55	C	2.201849	-0.207799	-0.223636
C56	C	2.121048	-0.211475	-0.256555
C57	C	2.023885	-0.214797	-0.216492
C58	C	2.007537	-0.214453	-0.143516
C59	C	2.088646	-0.255855	-0.362828
C60	C	2.104998	-0.256203	-0.435802
C61	C	2.171466	-0.212533	-0.481638
C62	C	2.221599	-0.168523	-0.454490
C63	C	2.205251	-0.168179	-0.381514
C64	C	2.138765	-0.211848	-0.335685
C65	C	2.286348	-0.209572	-0.600824
C66	C	2.302693	-0.209904	-0.673804
C67	C	2.124728	-0.216909	-0.666659
C68	C	2.108384	-0.216569	-0.593681
C69	C	2.189199	-0.212904	-0.560767
C70	C	2.249648	-0.213837	0.215596
C71	C	2.221889	-0.213579	0.293281
C72	C	2.310973	-0.336422	0.092891
C73	C	2.322203	-0.414096	0.092564
C74	C	2.570975	-0.210525	-0.032918
C75	C	2.588352	-0.210787	-0.110603
C76	C	2.509651	-0.087938	0.089785
C77	C	2.488043	-0.010264	0.090109
C78	C	2.415900	-0.454148	0.095906
C79	C	2.426468	-0.527130	0.095589
C80	C	2.343336	-0.560059	0.091935
C81	C	2.249633	-0.520000	0.088590
C82	C	2.239067	-0.447019	0.088902
C83	C	2.685496	-0.207404	-0.150659
C84	C	2.701834	-0.207640	-0.223655
C85	C	2.621029	-0.211263	-0.256591
C86	C	2.523877	-0.214644	-0.216530
C87	C	2.507538	-0.214404	-0.143537
C88	C	2.388947	0.022647	0.093755
C89	C	2.368632	0.095631	0.094051
C90	C	2.447413	0.135703	0.090706
C91	C	2.546518	0.102788	0.087057
C92	C	2.566833	0.029806	0.086756
H93	H	1.879824	-0.219909	0.306530
Br94	Br	1.916571	0.124587	0.241703
H95	H	1.974368	0.343948	0.176535
Br96	Br	2.419825	0.234751	0.091116
H97	H	2.634347	-0.211458	-0.316028
Br98	Br	2.311833	-0.109266	-0.516685
Br99	Br	2.042976	0.188723	0.201303
Br100	Br	2.414221	-0.219555	-0.261242
Br101	Br	1.976531	-0.221078	-0.539318
H102	H	2.483600	-0.427348	0.098884
Br103	Br	2.375689	-0.218996	-0.089183
H104	H	2.351953	-0.619485	0.091682
Br105	Br	1.767308	0.386929	-0.018663
Br106	Br	1.791351	0.574787	0.243555
H107	H	2.181951	-0.546822	0.085615
H108	H	1.965211	-0.022065	0.206311
Br109	Br	2.111893	-0.392672	0.084374
H110	H	2.502772	-0.559736	0.098316
H111	H	1.839960	0.428135	0.208164
Br112	Br	1.873452	-0.221321	0.460688
Br113	Br	2.653424	0.157180	0.082525
Br114	Br	2.036969	-0.315935	-0.472638
H115	H	2.780947	-0.204887	-0.256263
Br116	Br	2.282010	-0.031720	0.098296
Br117	Br	2.234127	0.140285	0.099007
Br118	Br	2.015063	-0.221892	-0.711328
Br119	Br	2.795178	-0.202488	-0.105976
Br120	Br	1.634391	-0.212789	0.538335
H121	H	1.511823	-0.206778	0.426037
Br122	Br	1.518191	-0.205365	0.271860
H123	H	1.845056	0.597711	-0.023645
H124	H	2.007111	0.015100	-0.026038
H125	H	2.034509	-0.291413	-0.325513
H126	H	2.647527	0.003015	0.083791
H127	H	1.970275	0.147505	-0.025494
H128	H	1.835851	0.231698	0.006142
H129	H	2.381804	-0.207193	-0.706416
H130	H	1.881877	0.465301	-0.024182
H131	H	2.251307	-0.204476	-0.123864
H132	H	2.280961	-0.205087	-0.256254
H133	H	2.352152	-0.206583	-0.574025
Br134	Br	2.273280	-0.108452	-0.344671
Br135	Br	1.875681	-0.218962	-0.089154
Br136	Br	1.914222	-0.219776	-0.261168
