data_functionalizedCrystal
_audit_creation_method	'MofGen! by Chris Wilmer'
_symmetry_space_group_name_H-M	'P1'
_symmetry_Int_Tables_number	1
_symmetry_cell_setting	triclinic
loop_
_symmetry_equiv_pos_as_xyz
  x,y,z
_cell_length_a	13.033293
_cell_length_b	16.120444
_cell_length_c	13.032268
_cell_angle_alpha	80.356652
_cell_angle_beta	90.920818
_cell_angle_gamma	100.431871
loop_
_atom_site_label
_atom_site_type_symbol
_atom_site_fract_x
_atom_site_fract_y
_atom_site_fract_z
Zn1	Zn	1.479894	-0.262707	0.795796
Zn2	Zn	1.979894	0.237293	1.295796
Zn3	Zn	1.493060	-0.384053	0.630435
Zn4	Zn	1.993060	0.115947	1.130435
Zn5	Zn	1.330069	-0.258248	0.601729
Zn6	Zn	1.830069	0.241752	1.101729
Zn7	Zn	1.296822	-0.419254	0.782392
Zn8	Zn	1.796822	0.080746	1.282392
O9	O	1.399961	-0.331066	0.702588
O10	O	1.899961	0.168934	1.202588
O11	O	1.626468	-0.265939	0.791483
O12	O	2.126468	0.234061	1.291483
O13	O	1.490862	-0.350767	0.481814
O14	O	1.990862	0.149233	0.981814
O15	O	1.358348	-0.140674	0.621068
O16	O	1.858348	0.359326	1.121068
O17	O	1.636141	-0.355091	0.669993
O18	O	2.136141	0.144909	1.169993
O19	O	1.468423	-0.143950	0.763649
O20	O	1.968423	0.356050	1.263649
O21	O	1.371114	-0.258339	0.460724
O22	O	1.871114	0.241661	0.960724
O23	O	1.180831	-0.292471	0.608071
O24	O	1.680831	0.207529	1.108071
O25	O	1.301683	-0.415085	0.928983
O26	O	1.801683	0.084915	1.428983
O27	O	1.156404	-0.410762	0.740804
O28	O	1.656404	0.089238	1.240804
O29	O	1.436185	-0.300071	0.938831
O30	O	1.936185	0.199929	1.438831
O31	O	1.458624	-0.506888	0.656996
O32	O	1.958624	-0.006888	1.156996
O33	O	1.314450	-0.532750	0.768639
O34	O	1.814450	-0.032750	1.268639
C35	C	1.131065	-0.354953	0.669869
C36	C	1.631065	0.145047	1.169869
C37	C	1.016026	-0.365195	0.655897
C38	C	1.516026	0.134805	1.155897
C39	C	0.959932	-0.325741	0.709881
C40	C	1.459932	0.174259	1.209881
C41	C	0.841033	-0.336326	0.695442
C42	C	1.341033	0.163674	1.195442
C43	C	1.384383	-0.550458	0.714504
C44	C	1.884383	-0.050458	1.214504
C45	C	1.377809	-0.644311	0.719648
C46	C	1.877809	-0.144311	1.219648
C47	C	1.434289	-0.845131	0.676157
C48	C	1.934289	-0.345131	1.176157
C49	C	1.365823	-0.816133	0.729053
C50	C	1.865823	-0.316133	1.229053
C51	C	1.372494	-0.720522	0.723818
C52	C	1.872494	-0.220522	1.223818
C53	C	1.427620	-0.940750	0.681390
C54	C	1.927620	-0.440750	1.181390
C55	C	1.669907	-0.307086	0.735435
C56	C	2.169907	0.192914	1.235435
C57	C	1.784942	-0.296867	0.749433
C58	C	2.284942	0.203133	1.249433
C59	C	1.363757	-0.362002	0.972505
C60	C	1.863757	0.137998	1.472505
C61	C	1.348329	-0.375185	1.087528
C62	C	1.848329	0.124815	1.587528
C63	C	1.415625	-0.110816	0.690651
C64	C	1.915625	0.389184	1.190651
C65	C	1.422300	-0.016959	0.685565
C66	C	1.922300	0.483041	1.185565
C67	C	1.436088	-0.300183	0.433725
C68	C	1.936088	0.199817	0.933725
C69	C	1.451734	-0.286744	0.318714
C70	C	1.951734	0.213256	0.818714
C71	C	1.407999	-0.324156	1.143681
C72	C	1.907999	0.175844	1.643681
C73	C	1.392055	-0.337781	1.262563
C74	C	1.892055	0.162219	1.762563
H75	H	0.976025	-0.406807	0.598988
H76	H	1.476025	0.093193	1.098988
N77	N	1.308728	-0.409007	1.315443
N78	N	1.808728	0.090993	1.815443
H79	H	1.309143	-0.408640	1.392872
H80	H	1.809143	0.091360	1.892872
H81	H	1.323044	-0.465745	1.301839
H82	H	1.823044	0.034255	1.801839
H83	H	1.514623	-0.232962	1.278782
H84	H	2.014623	0.267038	1.778782
H85	H	0.824938	-0.255245	0.806339
H86	H	1.324938	0.244755	1.306339
N87	N	1.265006	-0.446408	1.140413
N88	N	1.765006	0.053592	1.640413
H89	H	1.265421	-0.446041	1.217841
H90	H	1.765421	0.053959	1.717841
H91	H	1.279323	-0.503146	1.126808
H92	H	1.779323	-0.003146	1.626808
N93	N	1.281540	-0.878356	0.794247
N94	N	1.781540	-0.378356	1.294247
H95	H	1.288659	-0.938826	0.788791
H96	H	1.788659	-0.438826	1.288791
H97	H	1.210855	-0.867776	0.768260
H98	H	1.710855	-0.367776	1.268260
H99	H	0.999934	-0.284124	0.766784
H100	H	1.499934	0.215876	1.266784
N101	N	1.518558	-0.782913	0.610953
N102	N	2.018558	-0.282913	1.110953
H103	H	1.589292	-0.793409	0.636890
H104	H	2.089292	-0.293409	1.136890
H105	H	1.511340	-0.722470	0.616429
H106	H	2.011340	-0.222470	1.116429
H107	H	1.470886	-0.270379	1.103743
H108	H	1.970886	0.229621	1.603743
N109	N	0.788067	-0.391446	0.620046
N110	N	1.288067	0.108554	1.120046
H111	H	0.710637	-0.391192	0.620414
H112	H	1.210637	0.108808	1.120414
H113	H	0.800489	-0.451941	0.641578
H114	H	1.300489	0.048059	1.141578
