data_functionalizedCrystal
_audit_creation_method	'MofGen! by Chris Wilmer'
_symmetry_space_group_name_H-M	'P1'
_symmetry_Int_Tables_number	1
_symmetry_cell_setting	triclinic
loop_
_symmetry_equiv_pos_as_xyz
  x,y,z
_cell_length_a	19.288840
_cell_length_b	18.366186
_cell_length_c	19.288865
_cell_angle_alpha	89.993214
_cell_angle_beta	96.868869
_cell_angle_gamma	90.013590
loop_
_atom_site_label
_atom_site_type_symbol
_atom_site_fract_x
_atom_site_fract_y
_atom_site_fract_z
O1	O	0.921362	0.060680	-0.086561
O2	O	0.719099	0.060655	-0.098268
O3	O	0.826075	0.060654	0.008716
O4	O	0.814386	0.060681	-0.193546
O5	O	0.826061	-0.060446	0.008712
O6	O	0.719085	-0.060444	-0.098272
O7	O	0.921348	-0.060420	-0.086565
Zn8	Zn	0.820214	-0.079659	-0.092419
Zn9	Zn	0.820232	0.079895	-0.092414
O10	O	0.814372	-0.060418	-0.193549
C11	C	0.693215	0.000102	-0.097896
C12	C	0.616110	0.000093	-0.096774
C13	C	0.579914	0.066106	-0.096233
C14	C	0.507467	0.066114	-0.095171
C15	C	0.471221	0.000106	-0.094636
C16	C	0.507425	-0.065915	-0.095181
C17	C	0.579870	-0.065922	-0.096250
C18	C	0.361888	-0.050461	-0.052260
C19	C	0.289445	-0.050451	-0.051187
C20	C	0.247778	0.000125	-0.091342
C21	C	0.278563	0.050703	-0.132562
C22	C	0.351007	0.050697	-0.133631
C23	C	0.392667	0.000107	-0.093477
C24	C	0.133026	0.066152	-0.089651
C25	C	0.060577	0.066158	-0.088593
C26	C	0.060538	-0.065874	-0.088596
C27	C	0.132984	-0.065878	-0.089661
C28	C	0.169225	0.000137	-0.090185
C29	C	0.825692	0.000102	0.034591
C30	C	0.824563	0.000095	0.111694
C31	C	0.947232	0.000135	-0.086937
C32	C	1.024336	0.000149	-0.088059
N33	N	0.820207	-0.188550	-0.092422
C34	C	0.862238	-0.773088	-0.134416
C35	C	0.862231	-0.696861	-0.134423
C36	C	0.820239	-0.658761	-0.092407
C37	C	0.778237	-0.696896	-0.050394
C38	C	0.778240	-0.773123	-0.050393
C39	C	0.818512	-0.538004	-0.029782
C40	C	0.818514	-0.461779	-0.029781
C41	C	0.820225	-0.423654	-0.092408
C42	C	0.821949	-0.461763	-0.155038
C43	C	0.821952	-0.537989	-0.155037
C44	C	0.820230	-0.576107	-0.092403
C45	C	0.862213	-0.302873	-0.134429
C46	C	0.862200	-0.226644	-0.134438
C47	C	0.778211	-0.226681	-0.050402
C48	C	0.778219	-0.302909	-0.050400
C49	C	0.820223	-0.341000	-0.092413
N50	N	0.820245	0.188786	-0.092406
C51	C	0.814755	0.000135	-0.219424
C52	C	0.815884	0.000147	-0.296527
C53	C	0.887331	0.000099	0.156396
C54	C	0.886270	0.000111	0.228843
C55	C	0.822438	0.000103	0.256585
C56	C	0.759661	0.000104	0.211873
C57	C	0.760723	0.000100	0.139428
C58	C	0.772253	-0.042321	0.364866
C59	C	0.771193	-0.042321	0.437311
C60	C	0.819158	0.000119	0.480030
C61	C	0.868195	0.042551	0.450298
C62	C	0.869257	0.042547	0.377852
C63	C	0.821278	0.000108	0.335139
C64	C	0.880781	0.000137	0.603288
C65	C	0.879717	0.000153	0.675736
C66	C	0.753106	0.000138	0.658764
C67	C	0.754171	0.000130	0.586318
C68	C	0.818010	0.000125	0.558584
H69	H	0.477909	-0.119660	-0.094747
F70	F	0.906936	-0.656276	-0.179129
F71	F	0.685169	0.000134	0.688284
H72	H	0.244638	0.091885	-0.165263
F73	F	0.921441	0.087708	0.346211
F74	F	0.021966	-0.136125	-0.088032
H75	H	0.707687	0.000099	0.234465
F76	F	0.468937	0.136377	-0.094595
H77	H	0.939314	0.000098	0.133820
H78	H	0.896412	-0.333889	-0.168642
H79	H	0.733192	-0.076885	0.330089
H80	H	0.703058	0.000122	0.549920
F81	F	0.719007	-0.087483	0.468948
F82	F	0.733543	-0.813700	-0.005678
H83	H	0.896395	-0.195603	-0.168652
F84	F	0.022054	0.136422	-0.088022
F85	F	0.406227	-0.104295	-0.009519
F86	F	0.733514	-0.186139	-0.005690
F87	F	0.618394	-0.136186	-0.096826
F88	F	0.946528	0.000161	0.723312
F89	F	0.733526	-0.343487	-0.005684
H90	H	0.896441	-0.804098	-0.168627
H91	H	0.932763	0.000137	0.580706
H92	H	0.823354	-0.569014	-0.206032
F93	F	0.816675	-0.421228	0.036873
H94	H	0.937386	0.000117	0.265246
F95	F	0.823773	-0.421193	-0.221695
H96	H	0.817112	-0.569040	0.021219
H97	H	0.907252	0.077111	0.485079
F98	F	0.618480	0.136365	-0.096793
F99	F	0.383769	0.104522	-0.177501
H100	H	0.744045	-0.665871	-0.016185
H101	H	0.264386	-0.091632	-0.017620
H102	H	0.162534	0.119905	-0.090084
F103	F	0.171509	-0.136139	-0.090233
F104	F	0.693913	0.000096	0.091850
