data_functionalizedCrystal
_audit_creation_method	'MofGen! by Chris Wilmer'
_symmetry_space_group_name_H-M	'P1'
_symmetry_Int_Tables_number	1
_symmetry_cell_setting	triclinic
loop_
_symmetry_equiv_pos_as_xyz
  x,y,z
_cell_length_a	12.759401
_cell_length_b	13.031981
_cell_length_c	12.759393
_cell_angle_alpha	97.216555
_cell_angle_beta	90.020938
_cell_angle_gamma	97.193318
loop_
_atom_site_label
_atom_site_type_symbol
_atom_site_fract_x
_atom_site_fract_y
_atom_site_fract_z
Zn1	Zn	1.553159	-0.416025	0.540846
Zn2	Zn	2.053159	0.083975	1.040846
Zn3	Zn	1.530734	-0.590838	0.342822
Zn4	Zn	2.030734	-0.090838	0.842822
Zn5	Zn	1.377451	-0.416080	0.365174
Zn6	Zn	1.877451	0.083920	0.865174
Zn7	Zn	1.355143	-0.590765	0.518469
Zn8	Zn	1.855143	-0.090765	1.018469
O9	O	1.454122	-0.503427	0.441828
O10	O	1.954122	-0.003427	0.941828
O11	O	1.697204	-0.439221	0.514588
O12	O	2.197204	0.060779	1.014588
O13	O	1.510352	-0.567710	0.198759
O14	O	2.010352	-0.067710	0.698759
O15	O	1.419479	-0.269807	0.407196
O16	O	1.919479	0.230193	0.907196
O17	O	1.680729	-0.567656	0.369101
O18	O	2.180729	-0.067656	0.869101
O19	O	1.548571	-0.269766	0.536262
O20	O	2.048571	0.230234	1.036262
O21	O	1.397735	-0.439316	0.215181
O22	O	1.897735	0.060684	0.715181
O23	O	1.227471	-0.439245	0.385498
O24	O	1.727471	0.060755	0.885498
O25	O	1.381459	-0.567531	0.668465
O26	O	1.881459	-0.067531	1.168465
O27	O	1.211082	-0.567585	0.498123
O28	O	1.711082	-0.067585	0.998123
O29	O	1.526941	-0.439151	0.684905
O30	O	2.026941	0.060849	1.184905
O31	O	1.488721	-0.737094	0.347403
O32	O	1.988721	-0.237094	0.847403
O33	O	1.359715	-0.737040	0.476450
O34	O	1.859715	-0.237040	0.976450
C35	C	1.181156	-0.503414	0.441808
C36	C	1.681156	-0.003414	0.941808
C37	C	1.064377	-0.503434	0.441822
C38	C	1.564377	-0.003434	0.941822
C39	C	1.000996	-0.570362	0.500347
C40	C	1.500996	-0.070362	1.000347
C41	C	0.891271	-0.570366	0.500367
C42	C	1.391271	-0.070366	1.000367
C43	C	0.908319	-0.436511	0.383329
C44	C	1.408319	0.063489	0.883329
C45	C	1.018042	-0.436502	0.383315
C46	C	1.518042	0.063498	0.883315
C47	C	1.419393	-0.774992	0.407096
C48	C	1.919393	-0.274992	0.907096
C49	C	1.404632	-0.891169	0.392272
C50	C	1.904632	-0.391169	0.892272
C51	C	1.461881	-0.942861	0.449585
C52	C	1.961881	-0.442861	0.949585
C53	C	1.446627	-1.062935	0.434266
C54	C	1.946627	-0.562935	0.934266
C55	C	1.728153	-0.503440	0.441847
C56	C	2.228153	-0.003440	0.941847
C57	C	1.844929	-0.503446	0.441856
C58	C	2.344929	-0.003446	0.941856
C59	C	1.454213	-0.503327	0.715874
C60	C	1.954213	-0.003327	1.215874
C61	C	1.454252	-0.503284	0.832656
C62	C	1.954252	-0.003284	1.332656
C63	C	1.489015	-0.230801	0.476718
C64	C	1.989015	0.269199	0.976718
C65	C	1.503884	-0.114624	0.491587
C66	C	2.003884	0.385376	0.991587
C67	C	1.454101	-0.503451	0.168857
C68	C	1.954101	-0.003451	0.668857
C69	C	1.454303	-0.503200	0.052113
C70	C	1.954303	-0.003200	0.552113
C71	C	1.530011	-0.436425	0.896082
C72	C	2.030011	0.063575	1.396082
C73	C	1.530034	-0.436380	1.005812
C74	C	2.030034	0.063620	1.505812
C75	C	1.378537	-0.570061	0.988680
C76	C	1.878537	-0.070061	1.488680
C77	C	1.378509	-0.570100	0.878952
C78	C	1.878509	-0.070100	1.378952
H79	H	0.839670	-0.624864	0.548026
H80	H	1.339670	-0.124864	1.048026
O81	O	1.050978	-0.642536	0.563461
O82	O	1.550978	-0.142536	1.063461
H83	H	0.988468	-0.689067	0.604170
H84	H	1.488468	-0.189067	1.104170
O85	O	0.858341	-0.364356	0.320187
O86	O	1.358341	0.135644	0.820187
H87	H	0.771393	-0.375622	0.330008
H88	H	1.271393	0.124378	0.830008
H89	H	1.069650	-0.381995	0.335658
H90	H	1.569650	0.118005	0.835658
H91	H	1.344319	-0.935809	0.331868
H92	H	1.844319	-0.435809	0.831868
H93	H	1.522185	-0.898223	0.509999
H94	H	2.022185	-0.398223	1.009999
H95	H	1.386310	-1.107571	0.373858
H96	H	1.886310	-0.607571	0.873858
O97	O	1.583796	-1.055507	0.571592
O98	O	2.083796	-0.555507	1.071592
H99	H	1.623414	-1.111640	0.611241
H100	H	2.123414	-0.611640	1.111241
O101	O	1.611693	-0.364355	0.846143
O102	O	2.111693	0.135645	1.346143
H103	H	1.664369	-0.317850	0.908687
H104	H	2.164369	0.182150	1.408687
O105	O	1.296846	-0.642128	1.038612
O106	O	1.796846	-0.142128	1.538612
H107	H	1.309595	-0.630876	1.125567
H108	H	1.809595	-0.130876	1.625567
H109	H	1.591723	-0.381936	1.057449
H110	H	2.091723	0.118064	1.557449
H111	H	1.316810	-0.624544	0.827309
H112	H	1.816810	-0.124544	1.327309
