data_functionalizedCrystal
_audit_creation_method	'MofGen! by Chris Wilmer'
_symmetry_space_group_name_H-M	'P1'
_symmetry_Int_Tables_number	1
_symmetry_cell_setting	triclinic
loop_
_symmetry_equiv_pos_as_xyz
  x,y,z
_cell_length_a	19.077236
_cell_length_b	19.077432
_cell_length_c	19.076919
_cell_angle_alpha	89.934943
_cell_angle_beta	90.112677
_cell_angle_gamma	89.927472
loop_
_atom_site_label
_atom_site_type_symbol
_atom_site_fract_x
_atom_site_fract_y
_atom_site_fract_z
Zn1	Zn	1.068908	-0.254666	0.430741
Zn2	Zn	1.318908	-0.004666	0.680741
Zn3	Zn	1.568908	0.245334	0.930741
Zn4	Zn	1.818908	0.495334	1.180741
Zn5	Zn	1.078235	-0.367094	0.308908
Zn6	Zn	1.328235	-0.117094	0.558908
Zn7	Zn	1.578235	0.132906	0.808908
Zn8	Zn	1.828235	0.382906	1.058908
Zn9	Zn	0.956108	-0.254298	0.308536
Zn10	Zn	1.206108	-0.004298	0.558536
Zn11	Zn	1.456108	0.245702	0.808536
Zn12	Zn	1.706108	0.495702	1.058536
Zn13	Zn	0.956444	-0.376454	0.421286
Zn14	Zn	1.206444	-0.126454	0.671286
Zn15	Zn	1.456444	0.123546	0.921286
Zn16	Zn	1.706444	0.373546	1.171286
O17	O	1.014924	-0.313128	0.367368
O18	O	1.264924	-0.063128	0.617368
O19	O	1.514924	0.186872	0.867368
O20	O	1.764924	0.436872	1.117368
O21	O	1.168322	-0.265816	0.418693
O22	O	1.418322	-0.015816	0.668693
O23	O	1.668322	0.234184	0.918693
O24	O	1.918322	0.484184	1.168693
O25	O	1.065797	-0.348061	0.210685
O26	O	1.315797	-0.098061	0.460685
O27	O	1.565797	0.151939	0.710685
O28	O	1.815797	0.401939	0.960685
O29	O	0.967027	-0.156172	0.328548
O30	O	1.217027	0.093828	0.578548
O31	O	1.467027	0.343828	0.828548
O32	O	1.717027	0.593828	1.078548
O33	O	1.175174	-0.348417	0.329183
O34	O	1.425174	-0.098417	0.579183
O35	O	1.675174	0.151583	0.829183
O36	O	1.925174	0.401583	1.079183
O37	O	1.049901	-0.156442	0.418332
O38	O	1.299901	0.093558	0.668332
O39	O	1.549901	0.343558	0.918332
O40	O	1.799901	0.593558	1.168332
O41	O	0.976071	-0.265189	0.210411
O42	O	1.226071	-0.015189	0.460411
O43	O	1.476071	0.234811	0.710411
O44	O	1.726071	0.484811	0.960411
O45	O	0.857976	-0.274265	0.319379
O46	O	1.107976	-0.024265	0.569379
O47	O	1.357976	0.225735	0.819379
O48	O	1.607976	0.475735	1.069379
O49	O	0.967600	-0.364369	0.520715
O50	O	1.217600	-0.114369	0.770715
O51	O	1.467600	0.135631	1.020715
O52	O	1.717600	0.385631	1.270715
O53	O	0.858223	-0.364013	0.402217
O54	O	1.108223	-0.114013	0.652217
O55	O	1.358223	0.135987	0.902217
O56	O	1.608223	0.385987	1.152217
O57	O	1.050227	-0.274892	0.527661
O58	O	1.300227	-0.024892	0.777661
O59	O	1.550227	0.225108	1.027661
O60	O	1.800227	0.475108	1.277661
O61	O	1.066123	-0.466510	0.320014
O62	O	1.316123	-0.216510	0.570014
O63	O	1.566123	0.033490	0.820014
O64	O	1.816123	0.283490	1.070014
O65	O	0.976644	-0.473387	0.402578
O66	O	1.226644	-0.223387	0.652578
O67	O	1.476644	0.026613	0.902578
O68	O	1.726644	0.276613	1.152578
C69	C	0.832643	-0.320115	0.359732
C70	C	1.082643	-0.070115	0.609732
C71	C	1.332643	0.179885	0.859732
C72	C	1.582643	0.429885	1.109732
C73	C	0.754663	-0.323122	0.356481
C74	C	1.004663	-0.073122	0.606481
C75	C	1.254663	0.176878	0.856481
C76	C	1.504663	0.426878	1.106481
C77	C	0.714461	-0.281603	0.401623
C78	C	0.964461	-0.031603	0.651623
C79	C	1.214461	0.218397	0.901623
C80	C	1.464461	0.468397	1.151623
C81	C	0.641190	-0.284424	0.398563
C82	C	0.891190	-0.034424	0.648563
C83	C	1.141190	0.215576	0.898563
C84	C	1.391190	0.465576	1.148563
C85	C	0.608123	-0.328769	0.350363
C86	C	0.858123	-0.078769	0.600363
C87	C	1.108123	0.171231	0.850363
C88	C	1.358123	0.421231	1.100363
C89	C	0.648330	-0.370290	0.305217
C90	C	0.898330	-0.120290	0.555217
C91	C	1.148330	0.129710	0.805217
C92	C	1.398330	0.379710	1.055217
C93	C	0.721599	-0.367464	0.308274
C94	C	0.971599	-0.117464	0.558274
C95	C	1.221599	0.132536	0.808274
C96	C	1.471599	0.382536	1.058274
C97	C	0.389373	-0.341820	0.336212
C98	C	0.639373	-0.091820	0.586212
C99	C	0.889373	0.158180	0.836212
C100	C	1.139373	0.408180	1.086212
C101	C	0.316099	-0.344644	0.333159
C102	C	0.566099	-0.094644	0.583159
C103	C	0.816099	0.155356	0.833159
C104	C	1.066099	0.405356	1.083159
C105	C	0.308963	-0.258777	0.426504
C106	C	0.558963	-0.008777	0.676504
C107	C	0.808963	0.241223	0.926504
C108	C	1.058963	0.491223	1.176504
C109	C	0.382235	-0.255959	0.429560
C110	C	0.632235	-0.005959	0.679560
C111	C	0.882235	0.244041	0.929560
C112	C	1.132235	0.494041	1.179560
C113	C	0.422436	-0.297477	0.384411
C114	C	0.672436	-0.047477	0.634411
C115	C	0.922436	0.202523	0.884411
C116	C	1.172436	0.452523	1.134411
N117	N	0.533228	-0.331656	0.347236
N118	N	0.783228	-0.081656	0.597236
N119	N	1.033228	0.168344	0.847236
N120	N	1.283228	0.418344	1.097236
N121	N	0.497329	-0.294586	0.387536
N122	N	0.747329	-0.044586	0.637536
N123	N	0.997329	0.205414	0.887536
N124	N	1.247329	0.455414	1.137536
C125	C	1.022451	-0.495404	0.360326
C126	C	1.272451	-0.245404	0.610326
C127	C	1.522451	0.004596	0.860326
C128	C	1.772451	0.254596	1.110326
C129	C	1.025734	-0.573381	0.357340
C130	C	1.275734	-0.323381	0.607340
C131	C	1.525734	-0.073381	0.857340
C132	C	1.775734	0.176619	1.107340
C133	C	0.980660	-0.613620	0.398885
C134	C	1.230660	-0.363620	0.648885
C135	C	1.480660	-0.113620	0.898885
C136	C	1.730660	0.136380	1.148885
C137	C	0.983748	-0.686888	0.396077
C138	C	1.233748	-0.436888	0.646077
C139	C	1.483748	-0.186888	0.896077
C140	C	1.733748	0.063112	1.146077
C141	C	1.031914	-0.719915	0.351726
C142	C	1.281914	-0.469915	0.601726
C143	C	1.531914	-0.219915	0.851726
C144	C	1.781914	0.030085	1.101726
C145	C	1.076990	-0.679670	0.310177
C146	C	1.326990	-0.429670	0.560177
C147	C	1.576990	-0.179670	0.810177
C148	C	1.826990	0.070330	1.060177
C149	C	1.073898	-0.606404	0.312982
C150	C	1.323898	-0.356404	0.562982
C151	C	1.573898	-0.106404	0.812982
C152	C	1.823898	0.143596	1.062982
C153	C	1.046158	-0.938650	0.338728
C154	C	1.296158	-0.688650	0.588728
C155	C	1.546158	-0.438650	0.838728
C156	C	1.796158	-0.188650	1.088728
C157	C	1.049248	-1.011922	0.335927
C158	C	1.299248	-0.761922	0.585927
C159	C	1.549248	-0.511922	0.835927
C160	C	1.799248	-0.261922	1.085927
C161	C	0.956005	-1.019134	0.421827
C162	C	1.206005	-0.769134	0.671827
C163	C	1.456005	-0.519134	0.921827
C164	C	1.706005	-0.269134	1.171827
C165	C	0.952920	-0.945867	0.424631
C166	C	1.202920	-0.695867	0.674631
C167	C	1.452920	-0.445867	0.924631
C168	C	1.702920	-0.195867	1.174631
C169	C	0.997993	-0.905628	0.383079
C170	C	1.247993	-0.655628	0.633079
C171	C	1.497993	-0.405628	0.883079
C172	C	1.747993	-0.155628	1.133079
N173	N	1.035073	-0.794806	0.348856
N174	N	1.285073	-0.544806	0.598856
N175	N	1.535073	-0.294806	0.848856
N176	N	1.785073	-0.044806	1.098856
N177	N	0.994830	-0.830739	0.385946
N178	N	1.244830	-0.580739	0.635946
N179	N	1.494830	-0.330739	0.885946
N180	N	1.744830	-0.080739	1.135946
C181	C	1.197916	-0.306114	0.375034
C182	C	1.447916	-0.056114	0.625034
C183	C	1.697916	0.193886	0.875034
C184	C	1.947916	0.443886	1.125034
C185	C	1.275897	-0.303125	0.378301
C186	C	1.525897	-0.053125	0.628301
C187	C	1.775897	0.196875	0.878301
C188	C	2.025897	0.446875	1.128301
C189	C	1.007910	-0.320716	0.550355
C190	C	1.257910	-0.070716	0.800355
C191	C	1.507910	0.179284	1.050355
C192	C	1.757910	0.429284	1.300355
C193	C	1.004922	-0.323949	0.628333
C194	C	1.254922	-0.073949	0.878333
C195	C	1.504922	0.176051	1.128333
C196	C	1.754922	0.426051	1.378333
C197	C	1.007386	-0.130140	0.374453
C198	C	1.257386	0.119860	0.624453
C199	C	1.507386	0.369860	0.874453
C200	C	1.757386	0.619860	1.124453
C201	C	1.004174	-0.052161	0.377472
C202	C	1.254174	0.197839	0.627472
C203	C	1.504174	0.447839	0.877472
C204	C	1.754174	0.697839	1.127472
C205	C	1.021948	-0.305517	0.185096
C206	C	1.271948	-0.055517	0.435096
C207	C	1.521948	0.194483	0.685096
C208	C	1.771948	0.444483	0.935096
C209	C	1.025064	-0.302081	0.107132
C210	C	1.275064	-0.052081	0.357132
C211	C	1.525064	0.197919	0.607132
C212	C	1.775064	0.447919	0.857132
C213	C	1.046535	-0.278884	0.668586
C214	C	1.296535	-0.028884	0.918586
C215	C	1.546535	0.221116	1.168586
C216	C	1.796535	0.471116	1.418586
C217	C	1.043718	-0.281920	0.741854
C218	C	1.293718	-0.031920	0.991854
C219	C	1.543718	0.218080	1.241854
C220	C	1.793718	0.468080	1.491854
C221	C	0.999291	-0.330025	0.774869
C222	C	1.249291	-0.080025	1.024869
C223	C	1.499291	0.169975	1.274869
C224	C	1.749291	0.419975	1.524869
C225	C	0.957674	-0.375092	0.734612
C226	C	1.207674	-0.125092	0.984612
C227	C	1.457674	0.124908	1.234612
C228	C	1.707674	0.374908	1.484612
C229	C	0.960487	-0.372052	0.661344
C230	C	1.210487	-0.122052	0.911344
C231	C	1.460487	0.127948	1.161344
C232	C	1.710487	0.377948	1.411344
C233	C	0.986260	-0.344108	0.993607
C234	C	1.236260	-0.094108	1.243607
C235	C	1.486260	0.155892	1.493607
C236	C	1.736260	0.405892	1.743607
C237	C	0.983451	-0.347146	1.066879
C238	C	1.233451	-0.097146	1.316879
C239	C	1.483451	0.152854	1.566879
C240	C	1.733451	0.402854	1.816879
C241	C	1.069495	-0.253973	1.074117
C242	C	1.319495	-0.003973	1.324117
C243	C	1.569495	0.246027	1.574117
C244	C	1.819495	0.496027	1.824117
C245	C	1.072308	-0.250941	1.000848
C246	C	1.322308	-0.000941	1.250848
C247	C	1.572308	0.249059	1.500848
C248	C	1.822308	0.499059	1.750848
C249	C	1.030687	-0.296005	0.960597
C250	C	1.280687	-0.046005	1.210597
C251	C	1.530687	0.203995	1.460597
C252	C	1.780687	0.453995	1.710597
N253	N	0.996413	-0.333131	0.849761
N254	N	1.246413	-0.083131	1.099761
N255	N	1.496413	0.166869	1.349761
N256	N	1.746413	0.416869	1.599761
N257	N	1.033563	-0.292895	0.885706
N258	N	1.283563	-0.042895	1.135706
N259	N	1.533563	0.207105	1.385706
N260	N	1.783563	0.457105	1.635706
H261	H	0.422096	-0.375628	0.299449
H262	H	0.672096	-0.125628	0.549449
H263	H	0.922096	0.124372	0.799449
H264	H	1.172096	0.374372	1.049449
F265	F	0.613135	-0.417481	0.253916
F266	F	0.863135	-0.167481	0.503916
F267	F	1.113135	0.082519	0.753916
F268	F	1.363135	0.332519	1.003916
H269	H	1.108486	-0.211771	0.973972
H270	H	1.358486	0.038229	1.223972
H271	H	1.608486	0.288229	1.473972
H272	H	1.858486	0.538229	1.723972
F273	F	0.417422	-0.208764	0.480864
F274	F	0.667422	0.041236	0.730864
F275	F	0.917422	0.291236	0.980864
F276	F	1.167422	0.541236	1.230864
F277	F	0.901657	-0.910722	0.471837
F278	F	1.151657	-0.660722	0.721837
F279	F	1.401657	-0.410722	0.971837
F280	F	1.651657	-0.160722	1.221837
F281	F	1.113785	-0.206015	1.116960
F282	F	1.363785	0.043985	1.366960
F283	F	1.613785	0.293985	1.616960
F284	F	1.863785	0.543985	1.866960
H285	H	1.082859	-0.905894	0.304895
H286	H	1.332859	-0.655894	0.554895
H287	H	1.582859	-0.405894	0.804895
H288	H	1.832859	-0.155894	1.054895
H289	H	0.754331	-0.401273	0.271514
H290	H	1.004331	-0.151273	0.521514
H291	H	1.254331	0.098727	0.771514
H292	H	1.504331	0.348727	1.021514
F293	F	0.598407	-0.240235	0.446610
F294	F	0.848407	0.009765	0.696610
F295	F	1.098407	0.259765	0.946610
F296	F	1.348407	0.509765	1.196610
H297	H	1.116204	-0.706567	0.274062
H298	H	1.366204	-0.456567	0.524062
H299	H	1.616204	-0.206567	0.774062
H300	H	1.866204	0.043433	1.024062
H301	H	1.110601	-0.573642	0.279150
H302	H	1.360601	-0.323642	0.529150
H303	H	1.610601	-0.073642	0.779150
H304	H	1.860601	0.176358	1.029150
F305	F	1.100515	-1.047070	0.288721
F306	F	1.350515	-0.797070	0.538721
F307	F	1.600515	-0.547070	0.788721
F308	F	1.850515	-0.297070	1.038721
F309	F	0.266174	-0.214593	0.474551
F310	F	0.516174	0.035407	0.724551
F311	F	0.766174	0.285407	0.974551
F312	F	1.016174	0.535407	1.224551
H313	H	0.919308	-1.051904	0.455656
H314	H	1.169308	-0.801904	0.705656
H315	H	1.419308	-0.551904	0.955656
H316	H	1.669308	-0.301904	1.205656
F317	F	0.936161	-0.398345	1.102015
F318	F	1.186161	-0.148345	1.352015
F319	F	1.436161	0.101655	1.602015
F320	F	1.686161	0.351655	1.852015
H321	H	1.082714	-0.239714	0.641710
H322	H	1.332714	0.010286	0.891710
H323	H	1.582714	0.260286	1.141710
H324	H	1.832714	0.510286	1.391710
F325	F	0.280908	-0.391858	0.281869
F326	F	0.530908	-0.141858	0.531869
F327	F	0.780908	0.108142	0.781869
F328	F	1.030908	0.358142	1.031869
H329	H	0.741378	-0.245494	0.440874
H330	H	0.991378	0.004506	0.690874
H331	H	1.241378	0.254506	0.940874
H332	H	1.491378	0.504506	1.190874
H333	H	0.921498	-0.414257	0.761498
H334	H	1.171498	-0.164257	1.011498
H335	H	1.421498	0.085743	1.261498
H336	H	1.671498	0.335743	1.511498
F337	F	0.941964	-0.392070	0.950778
F338	F	1.191964	-0.142070	1.200778
F339	F	1.441964	0.107930	1.450778
F340	F	1.691964	0.357930	1.700778
F341	F	0.916195	-0.420014	0.618505
F342	F	1.166195	-0.170014	0.868505
F343	F	1.416195	0.079986	1.118505
F344	F	1.666195	0.329986	1.368505
F345	F	0.929398	-0.578477	0.446093
F346	F	1.179398	-0.328477	0.696093
F347	F	1.429398	-0.078477	0.946093
F348	F	1.679398	0.171523	1.196093
H349	H	0.947038	-0.719648	0.429901
H350	H	1.197038	-0.469648	0.679901
H351	H	1.447038	-0.219648	0.929901
H352	H	1.697038	0.030352	1.179901
H353	H	1.077605	-0.245225	0.774625
H354	H	1.327605	0.004775	1.024625
H355	H	1.577605	0.254775	1.274625
H356	H	1.827605	0.504775	1.524625
