data_functionalizedCrystal
_audit_creation_method	'MofGen! by Chris Wilmer'
_symmetry_space_group_name_H-M	'P1'
_symmetry_Int_Tables_number	1
_symmetry_cell_setting	triclinic
loop_
_symmetry_equiv_pos_as_xyz
  x,y,z
_cell_length_a	14.971486
_cell_length_b	15.995350
_cell_length_c	14.048226
_cell_angle_alpha	89.995798
_cell_angle_beta	89.998499
_cell_angle_gamma	83.553252
loop_
_atom_site_label
_atom_site_type_symbol
_atom_site_fract_x
_atom_site_fract_y
_atom_site_fract_z
O1	O	1.186822	0.109116	-0.079046
O2	O	0.926407	0.122183	-0.079072
O3	O	1.063733	-0.006231	-0.079057
O4	O	1.049496	0.237530	-0.079061
O5	O	1.063717	-0.006238	0.079264
O6	O	0.926391	0.122176	0.079250
O7	O	1.186806	0.109109	0.079275
Zn8	Zn	1.056596	0.115641	0.104399
Zn9	Zn	1.056617	0.115651	-0.104196
O10	O	1.049480	0.237523	0.079261
C11	C	0.893075	0.121595	0.000086
C12	C	0.793780	0.119844	0.000076
C13	C	1.063137	-0.037430	0.000101
C14	C	1.061372	-0.130382	0.000096
C15	C	0.736468	0.195284	0.000076
C16	C	0.643171	0.193633	0.000090
C17	C	0.607187	0.116542	0.000098
C18	C	0.664505	0.041097	0.000100
C19	C	0.757801	0.042748	0.000093
C20	C	0.470047	0.037660	0.000113
C21	C	0.376745	0.036008	0.000119
C22	C	0.355417	0.188545	0.000111
C23	C	0.448712	0.190197	0.000104
C24	C	0.506025	0.114751	0.000104
C25	C	1.055035	-0.468136	0.000098
C26	C	0.957234	-0.420800	-0.000266
C27	C	0.958999	-0.324108	0.000091
C28	C	1.058178	-0.300572	0.000097
C29	C	1.106408	-0.341606	0.090509
C30	C	1.103951	-0.438244	0.090584
C31	C	1.105990	-0.438591	-0.089456
C32	C	1.105967	-0.341646	-0.090651
C33	C	1.059960	-0.205873	0.000099
C34	C	1.053256	-0.562835	0.000103
C35	C	1.220138	0.109697	0.000116
C36	C	1.319433	0.111448	0.000119
C37	C	1.050077	0.268722	0.000100
C38	C	1.051841	0.361674	0.000099
N39	N	1.056587	0.115634	0.246760
N40	N	1.056633	0.115652	-0.246557
C41	C	1.117414	0.058795	0.296584
C42	C	1.117421	0.058795	0.396242
C43	C	1.056603	0.115637	0.446073
C44	C	0.995769	0.172478	0.396242
C45	C	0.995760	0.172474	0.296586
C46	C	0.995795	0.172484	0.603956
C47	C	0.995806	0.172490	0.703619
C48	C	1.117456	0.058805	0.703612
C49	C	1.117446	0.058801	0.603956
C50	C	1.056614	0.115643	0.554132
H51	H	0.765759	0.258060	0.000070
C52	C	0.817703	-0.404721	0.085622
C53	C	0.904680	-0.447302	0.086760
H54	H	0.785260	-0.421090	0.139346
H55	H	0.820998	-0.345795	0.087755
H56	H	0.787859	-0.418413	0.028998
H57	H	0.934527	-0.433606	0.143381
H58	H	0.901389	-0.506241	0.084635
C59	C	0.541288	0.280535	0.081450
C60	C	0.488280	0.274930	0.000077
H61	H	0.565722	0.332843	0.081424
H62	H	0.505340	0.276741	0.136657
H63	H	0.588762	0.235829	0.081443
H64	H	0.440802	0.319633	0.000087
H65	H	0.524230	0.278732	-0.055145
H66	H	0.918150	-0.439368	-0.065103
H67	H	0.347450	-0.026766	0.000126
H68	H	1.178098	-0.470280	-0.090060
H69	H	1.166943	0.012511	0.256018
H70	H	1.166950	0.012513	0.436809
C71	C	0.835316	-0.229177	0.057991
C72	C	0.907464	-0.286544	0.087728
H73	H	0.803498	-0.205993	0.112100
H74	H	0.857427	-0.185357	0.022453
H75	H	0.796084	-0.257281	0.019265
H76	H	0.946699	-0.258438	0.126449
H77	H	0.885353	-0.330371	0.123282
C78	C	1.030461	-0.390824	0.235877
C79	C	1.056445	-0.463008	0.181807
H80	H	1.001126	-0.406110	0.292191
H81	H	1.082118	-0.364516	0.252395
H82	H	0.990504	-0.352898	0.199718
H83	H	1.096407	-0.500931	0.217964
H84	H	1.004780	-0.489329	0.165290
H85	H	1.175755	-0.470420	0.094691
C86	C	0.976380	0.286424	0.815670
C87	C	0.928946	0.234969	0.758389
H88	H	0.935100	0.324999	0.849476
H89	H	1.012603	0.252579	0.859606
H90	H	1.013597	0.316602	0.776772
H91	H	0.891735	0.204786	0.797288
H92	H	0.892708	0.268818	0.714449
H93	H	1.179272	-0.327407	0.093875
C94	C	1.237690	-0.053576	0.613954
C95	C	1.184296	-0.003681	0.549179
H96	H	1.278955	-0.092154	0.580134
H97	H	1.269866	-0.018673	0.652810
H98	H	1.200458	-0.083750	0.652836
H99	H	1.221528	0.026498	0.510301
H100	H	1.152118	-0.038589	0.510306
H101	H	1.074021	-0.459160	-0.157983
C102	C	1.136896	-0.055133	0.815677
C103	C	1.184324	-0.003684	0.758370
H104	H	1.178180	-0.093711	0.849478
H105	H	1.100686	-0.021285	0.859616
H106	H	1.099668	-0.085308	0.776797
H107	H	1.221547	0.026496	0.797250
H108	H	1.220549	-0.037536	0.714426
C109	C	0.481763	-0.113286	0.000101
C110	C	0.533047	-0.045271	0.000104
H111	H	0.520658	-0.164481	0.000084
H112	H	0.444940	-0.110767	0.055314
H113	H	0.444921	-0.110743	-0.055107
H114	H	0.569884	-0.047811	0.055316
H115	H	0.569885	-0.047792	-0.055115
H116	H	0.946256	0.218769	0.563393
H117	H	0.946246	0.218758	0.436821
H118	H	0.308748	0.249976	0.000115
H119	H	1.072896	-0.313261	0.157786
H120	H	0.946227	0.218756	0.256020
H121	H	0.596511	0.255064	0.000090
C122	C	0.804714	-0.086750	-0.081301
C123	C	0.820805	-0.040176	0.000085
H124	H	0.843614	-0.137942	-0.081305
H125	H	0.744009	-0.098767	-0.081289
H126	H	0.815621	-0.055130	-0.136506
H127	H	0.809892	-0.071794	0.055290
H128	H	0.881524	-0.028161	0.000081
H129	H	0.921086	-0.295721	-0.064720
C130	C	1.119470	-0.265903	-0.236560
C131	C	1.058437	-0.304832	-0.180950
H132	H	1.090126	-0.243176	-0.292306
H133	H	1.141429	-0.221988	-0.201057
H134	H	1.168242	-0.306151	-0.254042
H135	H	1.009668	-0.264582	-0.163461
H136	H	1.036465	-0.348752	-0.216459
C137	C	1.262156	-0.395475	-0.096983
C138	C	1.203596	-0.320794	-0.098079
H139	H	1.322427	-0.382593	-0.101586
H140	H	1.254630	-0.424818	-0.039269
H141	H	1.249134	-0.429655	-0.149364
H142	H	1.216614	-0.286616	-0.045694
H143	H	1.211127	-0.291438	-0.155799
H144	H	0.635200	-0.021672	0.000119
