data_functionalizedCrystal
_audit_creation_method	'MofGen! by Chris Wilmer'
_symmetry_space_group_name_H-M	'P1'
_symmetry_Int_Tables_number	1
_symmetry_cell_setting	triclinic
loop_
_symmetry_equiv_pos_as_xyz
  x,y,z
_cell_length_a	18.050591
_cell_length_b	18.050590
_cell_length_c	16.120256
_cell_angle_alpha	92.872767
_cell_angle_beta	92.873632
_cell_angle_gamma	90.015000
loop_
_atom_site_label
_atom_site_type_symbol
_atom_site_fract_x
_atom_site_fract_y
_atom_site_fract_z
Zn1	Zn	1.114083	-0.317057	-0.471484
Zn2	Zn	1.447416	0.016277	-0.138151
Zn3	Zn	1.780749	0.349610	0.195182
Zn4	Zn	1.120301	-0.434948	-0.332071
Zn5	Zn	1.453634	-0.101614	0.001263
Zn6	Zn	1.786967	0.231719	0.334596
Zn7	Zn	0.996188	-0.310769	-0.332076
Zn8	Zn	1.329521	0.022565	0.001257
Zn9	Zn	1.662855	0.355898	0.334590
Zn10	Zn	0.989874	-0.441199	-0.471424
Zn11	Zn	1.323207	-0.107866	-0.138091
Zn12	Zn	1.656540	0.225468	0.195242
O13	O	1.055111	-0.375993	-0.401764
O14	O	1.388445	-0.042660	-0.068431
O15	O	1.721778	0.290674	0.264903
O16	O	1.218831	-0.332711	-0.453014
O17	O	1.552164	0.000623	-0.119680
O18	O	1.885498	0.333956	0.213653
O19	O	1.109082	-0.413227	-0.215409
O20	O	1.442415	-0.079894	0.117925
O21	O	1.775748	0.253439	0.451258
O22	O	1.011867	-0.207679	-0.350597
O23	O	1.345201	0.125654	-0.017264
O24	O	1.678534	0.458987	0.316070
O25	O	1.223399	-0.419325	-0.350587
O26	O	1.556733	-0.085991	-0.017253
O27	O	1.890066	0.247342	0.316080
O28	O	1.098484	-0.212299	-0.453019
O29	O	1.431817	0.121034	-0.119686
O30	O	1.765151	0.454368	0.213647
O31	O	1.017897	-0.321994	-0.215413
O32	O	1.351230	0.011340	0.117920
O33	O	1.684563	0.344673	0.451254
O34	O	0.891427	-0.328055	-0.350539
O35	O	1.224760	0.005278	-0.017205
O36	O	1.558093	0.338612	0.316128
O37	O	1.001105	-0.429979	-0.588095
O38	O	1.334439	-0.096645	-0.254762
O39	O	1.667772	0.236688	0.078572
O40	O	0.886788	-0.423882	-0.452917
O41	O	1.220121	-0.090548	-0.119583
O42	O	1.553454	0.242785	0.213750
O43	O	1.092361	-0.338772	-0.588139
O44	O	1.425695	-0.005439	-0.254806
O45	O	1.759028	0.327895	0.078528
O46	O	1.102959	-0.539700	-0.350528
O47	O	1.436292	-0.206367	-0.017195
O48	O	1.769626	0.126966	0.316138
O49	O	1.007135	-0.544293	-0.452911
O50	O	1.340468	-0.210960	-0.119578
O51	O	1.673801	0.122374	0.213756
C52	C	0.862161	-0.375965	-0.401722
C53	C	1.195494	-0.042632	-0.068389
C54	C	1.528828	0.290702	0.264944
C55	C	0.779615	-0.375972	-0.401724
C56	C	1.112948	-0.042638	-0.068391
C57	C	1.446282	0.290695	0.264943
C58	C	0.533285	-0.323816	-0.346183
C59	C	0.866618	0.009518	-0.012849
C60	C	1.199951	0.342851	0.320484
C61	C	0.579283	-0.309169	-0.422266
C62	C	0.912616	0.024165	-0.088933
C63	C	1.245950	0.357498	0.244400
C64	C	0.482492	-0.376013	-0.401792
C65	C	0.815825	-0.042679	-0.068459
C66	C	1.149158	0.290654	0.264874
C67	C	0.583576	-0.390605	-0.325679
C68	C	0.916910	-0.057271	0.007654
C69	C	1.250243	0.276062	0.340987
C70	C	0.628478	-0.375991	-0.401755
C71	C	0.961812	-0.042657	-0.068422
C72	C	1.295145	0.290676	0.264912
C73	C	0.527401	-0.361332	-0.477917
C74	C	0.860734	-0.027999	-0.144583
C75	C	1.194067	0.305334	0.188750
C76	C	0.531692	-0.442798	-0.381278
C77	C	0.865025	-0.109464	-0.047945
C78	C	1.198359	0.223869	0.285388
C79	C	0.577666	-0.428179	-0.457415
C80	C	0.910999	-0.094845	-0.124081
C81	C	1.244332	0.238488	0.209252
C82	C	0.398392	-0.376024	-0.401813
C83	C	0.731726	-0.042690	-0.068480
C84	C	1.065059	0.290643	0.264854
C85	C	0.712575	-0.375980	-0.401743
C86	C	1.045909	-0.042647	-0.068410
C87	C	1.379242	0.290686	0.264924
C88	C	1.055056	-0.568944	-0.401731
C89	C	1.388389	-0.235610	-0.068397
C90	C	1.721722	0.097723	0.264936
C91	C	1.055099	-0.651490	-0.401744
C92	C	1.388432	-0.318157	-0.068411
C93	C	1.721765	0.015177	0.264922
C94	C	1.107307	-0.848420	-0.346146
C95	C	1.440641	-0.515086	-0.012813
C96	C	1.773974	-0.181753	0.320520
C97	C	1.122012	-0.901193	-0.422236
C98	C	1.455345	-0.567860	-0.088903
C99	C	1.788679	-0.234527	0.244431
C100	C	1.055139	-0.802622	-0.401778
C101	C	1.388473	-0.469288	-0.068444
C102	C	1.721806	-0.135955	0.264889
C103	C	1.040509	-0.896931	-0.325722
C104	C	1.373842	-0.563598	0.007611
C105	C	1.707175	-0.230264	0.340945
C106	C	1.055180	-0.948608	-0.401803
C107	C	1.388513	-0.615275	-0.068470
C108	C	1.721847	-0.281941	0.264864
C109	C	1.069877	-0.854310	-0.477907
C110	C	1.403210	-0.520977	-0.144574
C111	C	1.736543	-0.187644	0.188759
C112	C	0.988344	-0.850041	-0.381342
C113	C	1.321678	-0.516708	-0.048009
C114	C	1.655011	-0.183375	0.285325
C115	C	1.003021	-0.902795	-0.457484
C116	C	1.336354	-0.569462	-0.124151
C117	C	1.669687	-0.236128	0.209183
C118	C	1.055118	-0.718523	-0.401762
C119	C	1.388451	-0.385189	-0.068429
C120	C	1.721784	-0.051856	0.264905
C121	C	1.055201	-1.032706	-0.401827
C122	C	1.388535	-0.699372	-0.068494
C123	C	1.721868	-0.366039	0.264839
C124	C	1.248815	-0.376022	-0.401806
C125	C	1.582148	-0.042688	-0.068473
C126	C	1.915482	0.290645	0.264860
C127	C	1.331360	-0.376034	-0.401824
C128	C	1.664693	-0.042701	-0.068491
C129	C	1.998026	0.290633	0.264842
C130	C	1.045335	-0.385774	-0.619212
C131	C	1.378669	-0.052441	-0.285879
C132	C	1.712002	0.280893	0.047455
C133	C	1.041169	-0.389942	-0.711876
C134	C	1.374503	-0.056609	-0.378542
C135	C	1.707836	0.276724	-0.045209
C136	C	1.055186	-0.182290	-0.401816
C137	C	1.388520	0.151044	-0.068482
C138	C	1.721853	0.484377	0.264851
C139	C	1.055218	-0.099745	-0.401838
C140	C	1.388552	0.233588	-0.068504
C141	C	1.721885	0.566922	0.264829
C142	C	1.076835	-0.354237	-0.922842
C143	C	1.410168	-0.020904	-0.589508
C144	C	1.743501	0.312429	-0.256175
C145	C	1.033539	-0.397521	-0.881527
C146	C	1.366872	-0.064188	-0.548194
C147	C	1.700205	0.269145	-0.214861
C148	C	1.037786	-0.393303	-0.787124
C149	C	1.371119	-0.059970	-0.453791
C150	C	1.704452	0.273364	-0.120458
C151	C	1.072588	-0.358455	-1.017253
C152	C	1.405922	-0.025121	-0.683920
C153	C	1.739255	0.308212	-0.350586
C154	C	1.064892	-0.366196	-0.185162
C155	C	1.398225	-0.032863	0.148172
C156	C	1.731558	0.300470	0.481505
C157	C	1.069202	-0.361819	-0.092499
C158	C	1.402535	-0.028486	0.240835
C159	C	1.735868	0.304848	0.574168
H160	H	0.510743	-0.499268	-0.363916
H161	H	0.844077	-0.165935	-0.030582
H162	H	1.177410	0.167399	0.302751
C163	C	0.979158	-0.451867	-0.929514
C164	C	1.312492	-0.118534	-0.596181
C165	C	1.645825	0.214799	-0.262848
H166	H	0.952550	-0.478468	-0.891177
H167	H	1.285883	-0.145135	-0.557843
H168	H	1.619216	0.188199	-0.224510
H169	H	1.006059	-0.485715	-0.963493
H170	H	1.339392	-0.152382	-0.630160
H171	H	1.672725	0.180952	-0.296827
H172	H	0.945309	-0.424940	-0.963471
H173	H	1.278642	-0.091607	-0.630138
H174	H	1.611975	0.241727	-0.296804
C175	C	0.506836	-0.264163	-0.282759
C176	C	0.840169	0.069171	0.050575
C177	C	1.173502	0.402504	0.383908
H178	H	0.523102	-0.216732	-0.297461
H179	H	0.856435	0.116602	0.035872
H180	H	1.189768	0.449935	0.369206
H181	H	0.526874	-0.274069	-0.228840
H182	H	0.860207	0.059265	0.104493
H183	H	1.193540	0.392598	0.437827
H184	H	0.454206	-0.264877	-0.282863
H185	H	0.787539	0.068456	0.050470
H186	H	1.120872	0.401789	0.383804
C187	C	0.607570	-0.232863	-0.445691
C188	C	0.940904	0.100470	-0.112357
C189	C	1.274237	0.433804	0.220976
H190	H	0.592445	-0.195837	-0.406139
H191	H	0.925779	0.137496	-0.072805
H192	H	1.259112	0.470830	0.260528
H193	H	0.587542	-0.222128	-0.499365
H194	H	0.920875	0.111205	-0.166031
H195	H	1.254208	0.444538	0.167302
H196	H	0.660181	-0.233545	-0.445999
H197	H	0.993515	0.099788	-0.112666
H198	H	1.326848	0.433122	0.220667
C199	C	1.131216	-0.299901	-0.874855
C200	C	1.464549	0.033433	-0.541522
C201	C	1.797883	0.366766	-0.208188
H202	H	1.157822	-0.273292	-0.913189
H203	H	1.491155	0.060041	-0.579855
H204	H	1.824488	0.393374	-0.246522
H205	H	1.165057	-0.326828	-0.840896
H206	H	1.498390	0.006505	-0.507563
H207	H	1.831724	0.339838	-0.174229
H208	H	1.104313	-0.266048	-0.840877
H209	H	1.437646	0.067285	-0.507544
H210	H	1.770979	0.400619	-0.174211
C211	C	0.616754	-0.407299	-0.238748
C212	C	0.950087	-0.073965	0.094586
C213	C	1.283420	0.259368	0.427919
H214	H	0.601607	-0.370175	-0.199321
H215	H	0.934940	-0.036841	0.134012
H216	H	1.268274	0.296492	0.467345
H217	H	0.669342	-0.407622	-0.239473
H218	H	1.002676	-0.074289	0.093860
H219	H	1.336009	0.259044	0.427193
H220	H	0.599763	-0.454394	-0.223810
H221	H	0.933096	-0.121061	0.109524
H222	H	1.266429	0.212273	0.442857
H223	H	0.502928	-0.348915	-0.542287
H224	H	0.836261	-0.015581	-0.208954
H225	H	1.169594	0.317752	0.124380
H226	H	0.597095	-0.472313	-0.504480
H227	H	0.930428	-0.138980	-0.171147
H228	H	1.263761	0.194353	0.162187
C229	C	1.166917	-0.816272	-0.282661
C230	C	1.500250	-0.482939	0.050672
C231	C	1.833584	-0.149605	0.384006
H232	H	1.214361	-0.833816	-0.297330
H233	H	1.547695	-0.500483	0.036004
H234	H	1.881028	-0.167149	0.369337
H235	H	1.156977	-0.831510	-0.228761
H236	H	1.490310	-0.498176	0.104573
H237	H	1.823643	-0.164843	0.437906
H238	H	1.166196	-0.763651	-0.282743
H239	H	1.499529	-0.430318	0.050591
H240	H	1.832863	-0.096984	0.383924
H241	H	1.178516	-0.923634	-0.439537
H242	H	1.511850	-0.590301	-0.106204
H243	H	1.845183	-0.256968	0.227130
H244	H	1.082209	-0.835570	-0.542292
H245	H	1.415542	-0.502237	-0.208959
H246	H	1.748876	-0.168903	0.124374
H247	H	0.958919	-0.926454	-0.504595
H248	H	1.292252	-0.593120	-0.171261
H249	H	1.625586	-0.259787	0.162072
C250	C	0.912039	-0.819694	-0.357939
C251	C	1.245372	-0.486361	-0.024606
C252	C	1.578706	-0.153027	0.308727
H253	H	0.901703	-0.834168	-0.303846
H254	H	1.235037	-0.500834	0.029487
H255	H	1.568370	-0.167501	0.362821
H256	H	0.874895	-0.839084	-0.396913
H257	H	1.208228	-0.505751	-0.063580
H258	H	1.541562	-0.172418	0.269753
H259	H	0.912451	-0.767098	-0.358599
H260	H	1.245784	-0.433765	-0.025266
H261	H	1.579118	-0.100432	0.308067
C262	C	1.023762	-0.922371	-0.238821
C263	C	1.357095	-0.589037	0.094512
C264	C	1.690429	-0.255704	0.427846
H265	H	1.060860	-0.903682	-0.199357
H266	H	1.394193	-0.570349	0.133976
H267	H	1.727526	-0.237015	0.467309
H268	H	1.023446	-0.975025	-0.239572
H269	H	1.356780	-0.641692	0.093761
H270	H	1.690113	-0.308359	0.427094
H271	H	0.976653	-0.904082	-0.223914
H272	H	1.309986	-0.570749	0.109419
H273	H	1.643319	-0.237415	0.442753
