data_functionalizedCrystal
_audit_creation_method	'MofGen! by Chris Wilmer'
_symmetry_space_group_name_H-M	'P1'
_symmetry_Int_Tables_number	1
_symmetry_cell_setting	triclinic
loop_
_symmetry_equiv_pos_as_xyz
  x,y,z
_cell_length_a	9.065218
_cell_length_b	9.065218
_cell_length_c	8.140239
_cell_angle_alpha	90.001686
_cell_angle_beta	90.002802
_cell_angle_gamma	85.015885
loop_
_atom_site_label
_atom_site_type_symbol
_atom_site_fract_x
_atom_site_fract_y
_atom_site_fract_z
O1	O	-1.960398	-0.216355	-0.136610
O2	O	-1.460398	0.283645	0.363390
O3	O	-1.531113	-0.234101	-0.136612
O4	O	-1.031113	0.265899	0.363388
O5	O	-1.754629	-0.010585	-0.136608
O6	O	-1.254629	0.489415	0.363392
O7	O	-1.736882	-0.439870	-0.136615
O8	O	-1.236882	0.060130	0.363385
O9	O	-1.754616	-0.010583	0.136619
O10	O	-1.254616	0.489417	0.636619
O11	O	-1.531101	-0.234098	0.136615
O12	O	-1.031101	0.265902	0.636615
O13	O	-1.960385	-0.216352	0.136617
O14	O	-1.460385	0.283648	0.636617
Zn15	Zn	-1.745741	-0.225225	0.179997
Zn16	Zn	-1.245741	0.274775	0.679997
Zn17	Zn	-1.745758	-0.225228	-0.179992
Zn18	Zn	-1.245758	0.274772	0.320008
O19	O	-1.736870	-0.439868	0.136613
O20	O	-1.236870	0.060132	0.636613
C21	C	-1.476120	-0.232394	0.000001
C22	C	-0.976120	0.267606	0.500001
C23	C	-1.312277	-0.227294	0.000000
C24	C	-0.812277	0.272706	0.500000
C25	C	-1.752917	0.044403	0.000003
C26	C	-1.252917	0.544403	0.500003
C27	C	-1.747817	0.208245	-0.000005
C28	C	-1.247817	0.708245	0.499995
C29	C	-2.015378	-0.218059	-0.000000
C30	C	-1.515378	0.281941	0.500000
C31	C	-2.179221	-0.223158	-0.000010
C32	C	-1.679221	0.276842	0.499990
C33	C	-1.738582	-0.494855	-0.000002
C34	C	-1.238582	0.005145	0.499998
C35	C	-1.743681	-0.658698	-0.000005
C36	C	-1.243681	-0.158698	0.499995
N37	N	-1.745741	-0.225221	0.425679
N38	N	-1.245741	0.274779	0.925679
N39	N	-1.745770	-0.225220	-0.425674
N40	N	-1.245770	0.274780	0.074326
