data_functionalizedCrystal
_audit_creation_method	'MofGen! by Chris Wilmer'
_symmetry_space_group_name_H-M	'P1'
_symmetry_Int_Tables_number	1
_symmetry_cell_setting	triclinic
loop_
_symmetry_equiv_pos_as_xyz
  x,y,z
_cell_length_a	18.266242
_cell_length_b	11.026607
_cell_length_c	10.967829
_cell_angle_alpha	83.619437
_cell_angle_beta	77.864002
_cell_angle_gamma	89.999774
loop_
_atom_site_label
_atom_site_type_symbol
_atom_site_fract_x
_atom_site_fract_y
_atom_site_fract_z
O1	O	-0.126929	-1.614515	0.523526
O2	O	-0.119409	-1.260713	0.463913
O3	O	-0.100480	-1.445775	0.313900
O4	O	-0.145858	-1.429453	0.673540
O5	O	0.021285	-1.445772	0.313880
O6	O	0.002356	-1.260710	0.463893
O7	O	-0.005164	-1.614512	0.523506
Zn8	Zn	0.017929	-1.437610	0.493696
Zn9	Zn	-0.142501	-1.437615	0.493723
O10	O	-0.024093	-1.429450	0.673520
C11	C	-0.057139	-1.215409	0.452906
C12	C	-0.053004	-1.080422	0.420121
N13	N	-0.251990	-1.437618	0.493732
C14	C	-0.033699	-1.444586	0.267132
C15	C	-0.016124	-1.441032	0.127807
C16	C	-0.825907	-1.519726	0.427479
C17	C	-0.749261	-1.519723	0.427476
C18	C	-0.719298	-1.437622	0.493698
C19	C	-0.765983	-1.355496	0.559901
C20	C	-0.842625	-1.355493	0.559892
N21	N	-0.612484	-1.422846	0.600795
N22	N	-0.539677	-1.422856	0.600801
C23	C	-0.488379	-1.437623	0.493728
N24	N	-0.512640	-1.452404	0.386649
N25	N	-0.585454	-1.452400	0.386645
C26	C	-0.636193	-1.437615	0.493715
C27	C	-0.358595	-1.519734	0.427518
C28	C	-0.281948	-1.519722	0.427512
C29	C	-0.298673	-1.355501	0.559948
C30	C	-0.375317	-1.355507	0.559943
C31	C	-0.405274	-1.437630	0.493731
N32	N	0.127418	-1.437616	0.493679
C33	C	-0.067435	-1.659816	0.534514
C34	C	-0.071576	-1.794803	0.567298
C35	C	-0.064426	-1.007370	0.510644
C36	C	-0.060152	-0.867854	0.476762
C37	C	-0.071367	-1.439449	0.065708
C38	C	-0.053204	-1.435776	-0.078292
C39	C	-0.090875	-1.430640	0.720287
C40	C	-0.108455	-1.434193	0.859612
H41	H	-0.850295	-1.586592	0.373562
H42	H	-0.243942	-1.586582	0.373596
N43	N	-0.188924	-1.436008	-0.069625
H44	H	-0.214239	-1.360196	-0.099122
H45	H	-0.190434	-1.438423	0.023194
N46	N	-0.035864	-1.026462	0.284235
H47	H	-0.028829	-1.094381	0.228479
H48	H	0.011488	-0.974414	0.266693
H49	H	0.007542	-1.434404	-0.131730
N50	N	-0.698905	-1.608284	0.356069
H51	H	-0.729513	-1.660305	0.314121
H52	H	-0.674692	-1.662319	0.416143
H53	H	0.044618	-1.439660	0.074364
H54	H	-0.880630	-1.288628	0.613800
N55	N	-0.733670	-1.266936	0.631318
H56	H	-0.678034	-1.279398	0.621282
H57	H	-0.758667	-1.281538	0.723179
N58	N	-0.390913	-1.608300	0.356105
H59	H	-0.349710	-1.660311	0.314157
H60	H	-0.414403	-1.561414	0.290273
H61	H	-0.077365	-1.048115	0.613227
H62	H	-0.274276	-1.288648	0.613861
H63	H	-0.047226	-0.827114	0.374172
N64	N	-0.425666	-1.266944	0.631344
H65	H	-0.395056	-1.214929	0.673294
H66	H	-0.465780	-1.313825	0.697173
N67	N	-0.088715	-0.848750	0.703194
H68	H	-0.089338	-0.940768	0.708139
H69	H	-0.139277	-0.820727	0.746175
N70	N	-0.151828	-1.441099	0.136468
H71	H	-0.153397	-1.443416	0.229300
H72	H	-0.178879	-1.515707	0.120502
