data_functionalizedCrystal
_audit_creation_method	'MofGen! by Chris Wilmer'
_symmetry_space_group_name_H-M	'P1'
_symmetry_Int_Tables_number	1
_symmetry_cell_setting	triclinic
loop_
_symmetry_equiv_pos_as_xyz
  x,y,z
_cell_length_a	10.489711
_cell_length_b	10.489741
_cell_length_c	9.565339
_cell_angle_alpha	89.999484
_cell_angle_beta	89.994873
_cell_angle_gamma	95.466909
loop_
_atom_site_label
_atom_site_type_symbol
_atom_site_fract_x
_atom_site_fract_y
_atom_site_fract_z
O1	O	1.694075	-0.179778	-0.116310
O2	O	1.322874	-0.196711	-0.116301
O3	O	1.516921	-0.002646	-0.116297
O4	O	1.500028	-0.373843	-0.116314
O5	O	1.516906	-0.002658	0.116223
O6	O	1.322859	-0.196723	0.116219
O7	O	1.694060	-0.179790	0.116210
Zn8	Zn	1.508457	-0.188258	0.153132
Zn9	Zn	1.508477	-0.188242	-0.153223
O10	O	1.500013	-0.373855	0.116206
C11	C	1.275334	-0.195446	-0.000040
C12	C	1.133703	-0.191644	-0.000037
N13	N	1.508452	-0.188268	0.362211
C14	C	1.515638	0.044880	-0.000038
C15	C	1.511820	0.186509	-0.000041
C16	C	0.951317	-0.308348	-0.000058
C17	C	1.043470	-0.250047	-0.114698
C18	C	1.043428	-0.250027	0.114549
C19	C	0.973519	-0.126504	-0.114801
C20	C	0.973467	-0.126502	0.114549
C21	C	1.065593	-0.068111	-0.000119
C22	C	1.741600	-0.181055	-0.000054
C23	C	1.883231	-0.184857	-0.000066
C24	C	1.501296	-0.421381	-0.000056
C25	C	1.505114	-0.563010	-0.000063
C26	C	1.388354	0.254636	-0.000048
C27	C	1.446671	0.346759	0.114595
C28	C	1.446715	0.346745	-0.114652
C29	C	1.570188	0.276766	0.114697
C30	C	1.570215	0.276743	-0.114652
C31	C	1.628622	0.368839	0.000019
N32	N	1.508492	-0.188222	-0.362303
C33	C	1.418685	-0.277987	0.453413
C34	C	1.534183	-0.303785	0.546588
C35	C	1.393004	-0.162481	0.546592
C36	C	1.624009	-0.214125	0.453335
C37	C	1.482754	-0.072769	0.453331
C38	C	1.598335	-0.098519	0.546464
H39	H	0.901626	-0.409850	-0.000176
H40	H	1.622377	0.245935	0.211728
C41	C	0.931768	-0.056768	0.243564
C42	C	0.991632	0.068366	0.244686
C43	C	0.953027	0.132591	0.363453
H44	H	0.841503	-0.054247	0.241800
H45	H	0.955263	-0.100598	0.325139
H46	H	0.968129	0.112185	0.163131
H47	H	1.081896	0.065883	0.246470
H48	H	0.976522	0.088761	0.445028
H49	H	0.862762	0.135102	0.361679
H50	H	0.993647	0.217497	0.364237
H51	H	1.460955	0.024855	0.412336
H52	H	0.942716	-0.074296	-0.211834
H53	H	1.115050	0.033484	-0.000173
C54	C	1.376772	0.388006	0.243713
C55	C	1.251026	0.329690	0.243176
C56	C	1.186585	0.367663	0.362082
H57	H	1.419656	0.362898	0.325226
H58	H	1.375454	0.478440	0.243208
H59	H	1.252350	0.239275	0.243695
H60	H	1.208107	0.354790	0.161691
H61	H	1.185267	0.458097	0.361577
H62	H	1.229480	0.342553	0.443586
H63	H	1.101257	0.328111	0.361727
H64	H	1.674349	-0.022624	0.587064
H65	H	1.074377	-0.302306	0.211469
H66	H	1.295355	-0.140690	0.587559
C67	C	1.252930	0.188584	-0.000116
C68	C	1.187929	0.225621	-0.119034
C69	C	1.063173	0.164815	-0.119127
H70	H	1.256117	0.098392	-0.001018
H71	H	1.209196	0.212426	0.081389
H72	H	1.231652	0.201770	-0.200518
H73	H	1.184707	0.315802	-0.118158
H74	H	1.019439	0.188657	-0.037623
H75	H	1.066373	0.074626	-0.120025
H76	H	1.019051	0.189944	-0.199805
H77	H	1.074471	-0.302298	-0.211618
C78	C	1.764121	0.434702	0.000383
C79	C	1.828143	0.399213	0.120630
C80	C	1.952958	0.459877	0.121030
H81	H	1.808471	0.409718	-0.080192
H82	H	1.761006	0.524920	-0.000316
H83	H	1.831265	0.309015	0.121316
H84	H	1.783832	0.424198	0.201224
H85	H	1.949843	0.550095	0.120331
H86	H	1.997296	0.434888	0.040450
H87	H	1.996409	0.435816	0.202622
C88	C	1.640041	0.235302	-0.243724
C89	C	1.747524	0.175020	-0.202782
C90	C	1.811875	0.136837	-0.321656
H91	H	1.584319	0.177304	-0.296848
H92	H	1.666526	0.308305	-0.299002
H93	H	1.721037	0.102027	-0.147527
H94	H	1.803275	0.232994	-0.149674
H95	H	1.838361	0.209840	-0.376934
H96	H	1.756144	0.078843	-0.374772
H97	H	1.884816	0.095942	-0.293894
C98	C	1.377249	0.388254	-0.243937
C99	C	1.460503	0.471806	-0.323246
C100	C	1.396542	0.510077	-0.442336
H101	H	1.349448	0.315146	-0.298432
H102	H	1.305193	0.430671	-0.216422
H103	H	1.532536	0.429387	-0.350764
H104	H	1.488309	0.544933	-0.268793
H105	H	1.324486	0.552494	-0.414820
H106	H	1.368744	0.436961	-0.496819
H107	H	1.453017	0.566779	-0.496155
H108	H	1.342841	-0.353929	0.412556
H109	H	1.555946	-0.401440	0.587550
H110	H	1.721681	-0.236033	0.412543
