data_functionalizedCrystal
_audit_creation_method	'MofGen! by Chris Wilmer'
_symmetry_space_group_name_H-M	'P1'
_symmetry_Int_Tables_number	1
_symmetry_cell_setting	triclinic
loop_
_symmetry_equiv_pos_as_xyz
  x,y,z
_cell_length_a	15.995292
_cell_length_b	15.944551
_cell_length_c	14.472310
_cell_angle_alpha	90.002021
_cell_angle_beta	90.014199
_cell_angle_gamma	83.483677
loop_
_atom_site_label
_atom_site_type_symbol
_atom_site_fract_x
_atom_site_fract_y
_atom_site_fract_z
O1	O	1.111033	0.108031	0.076868
O2	O	0.867252	0.121452	0.076865
O3	O	0.995799	-0.007535	0.076858
O4	O	0.982485	0.237018	0.076874
O5	O	0.995766	-0.007527	-0.076824
O6	O	0.867219	0.121460	-0.076817
O7	O	1.111000	0.108039	-0.076814
Cu8	Cu	0.989106	0.114750	-0.090848
Cu9	Cu	0.989145	0.114741	0.090899
O10	O	0.982452	0.237026	-0.076808
C11	C	0.836040	0.120910	0.000023
C12	C	0.743087	0.119272	0.000021
C13	C	0.405348	0.113252	0.000032
C14	C	0.428665	0.206351	0.000381
C15	C	0.525341	0.208121	0.000031
C16	C	0.572904	0.116239	0.000027
C17	C	0.543780	0.069698	-0.087733
C18	C	0.446990	0.068577	-0.087803
C19	C	0.447172	0.066668	0.086963
C20	C	0.543665	0.070118	0.088119
C21	C	0.667600	0.117923	0.000021
C22	C	0.310652	0.111566	0.000031
C23	C	0.995230	-0.038825	0.000017
C24	C	0.993573	-0.132070	0.000016
C25	C	0.909932	-0.346905	0.000028
C26	C	0.948756	-0.407929	-0.075746
C27	C	0.990575	-0.302795	0.000023
C28	C	0.948808	-0.407920	0.075772
C29	C	0.987674	-0.467707	0.000034
C30	C	1.029421	-0.362591	-0.075813
C31	C	1.029461	-0.362576	0.075773
C32	C	1.068344	-0.423582	-0.000019
C33	C	0.992245	-0.207794	0.000016
C34	C	0.986011	-0.562708	0.000035
C35	C	1.142212	0.108581	0.000029
C36	C	1.235165	0.110219	0.000037
C37	C	0.983021	0.268316	0.000036
C38	C	0.984678	0.361562	0.000042
N39	N	0.989085	0.114756	-0.218679
C40	C	0.989144	0.114738	-0.592770
C41	C	0.920130	0.183525	-0.553601
C42	C	0.920289	0.183776	-0.446513
C43	C	0.989114	0.114747	-0.407179
C44	C	1.076482	0.133871	-0.446014
C45	C	1.076094	0.134360	-0.553135
C46	C	0.971570	0.026623	-0.553306
C47	C	0.969566	0.027211	-0.446178
C48	C	0.989102	0.114750	-0.302291
C49	C	0.989162	0.114736	-0.697658
N50	N	0.989173	0.114729	0.218730
H51	H	0.575644	0.002086	-0.090999
C52	C	1.147524	0.067994	-0.411589
C53	C	1.145757	-0.026048	-0.434781
C54	C	1.216797	-0.091925	-0.400354
C55	C	1.289604	-0.063761	-0.342737
C56	C	1.291374	0.030285	-0.319543
C57	C	1.220334	0.096163	-0.353969
H58	H	1.091859	-0.046900	-0.477435
H59	H	1.215487	-0.161545	-0.417525
H60	H	1.342193	-0.112528	-0.317253
H61	H	1.345272	0.051138	-0.276888
H62	H	1.221644	0.165782	-0.336798
C63	C	0.568768	0.115892	0.175832
C64	C	0.615596	0.194779	0.167549
C65	C	0.640704	0.240556	0.255261
C66	C	0.618983	0.207446	0.351256
C67	C	0.572152	0.128556	0.359543
C68	C	0.547045	0.082779	0.271831
H69	H	0.631678	0.219292	0.096484
H70	H	0.675371	0.298956	0.249126
H71	H	0.637569	0.241333	0.416185
H72	H	0.556071	0.104043	0.430608
H73	H	0.512378	0.024379	0.277967
C74	C	0.588211	-0.020478	0.095293
C75	C	0.652199	-0.054317	0.020951
C76	C	0.696753	-0.144914	0.028124
C77	C	0.677318	-0.201671	0.109638
C78	C	0.613328	-0.167832	0.183986
C79	C	0.568774	-0.077236	0.176813
H80	H	0.666588	-0.012302	-0.039395
H81	H	0.744123	-0.169963	-0.026913
H82	H	0.710300	-0.268736	0.114948
H83	H	0.598938	-0.209848	0.244333
H84	H	0.521403	-0.052187	0.231850
H85	H	0.914702	-0.427990	0.139838
H86	H	0.855347	0.172384	-0.420259
H87	H	0.433175	-0.001860	0.087553
C88	C	0.902663	-0.435087	-0.162287
C89	C	0.809944	-0.400868	-0.178935
C90	C	0.763845	-0.428023	-0.265471
C91	C	0.810464	-0.489397	-0.335360
C92	C	0.903189	-0.523619	-0.318714
C93	C	0.949288	-0.496465	-0.232178
H94	H	0.775428	-0.355432	-0.127197
H95	H	0.695204	-0.402689	-0.277793
H96	H	0.776339	-0.509499	-0.399419
H97	H	0.937704	-0.569055	-0.370451
H98	H	1.017928	-0.521799	-0.219856
H99	H	0.842995	-0.313579	-0.000049
H100	H	1.016567	-0.026374	-0.419407
C101	C	0.550198	0.257652	-0.085103
C102	C	0.643215	0.269121	-0.102361
C103	C	0.668071	0.318652	-0.187501
C104	C	0.599911	0.356713	-0.255383
C105	C	0.506889	0.345246	-0.238127
C106	C	0.482032	0.295715	-0.152987
H107	H	0.693676	0.240945	-0.052109
H108	H	0.736933	0.327140	-0.200275
H109	H	0.618312	0.393379	-0.318409
H110	H	0.456427	0.373422	-0.288379
H111	H	0.413170	0.287226	-0.140213
C112	C	1.039550	-0.042536	-0.587530
C113	C	1.110664	-0.019225	-0.650967
C114	C	1.178645	-0.088375	-0.685199
C115	C	1.175513	-0.180836	-0.655994
C116	C	1.104397	-0.204151	-0.592553
C117	C	1.036415	-0.135001	-0.558321
H118	H	1.112985	0.049224	-0.672590
H119	H	1.231291	-0.071115	-0.732162
H120	H	1.225837	-0.232025	-0.681334
H121	H	1.102076	-0.272600	-0.570930
H122	H	0.983770	-0.152261	-0.511358
C123	C	1.097907	0.219696	-0.409762
C124	C	1.036285	0.272491	-0.344974
C125	C	1.057704	0.358318	-0.308725
C126	C	1.140746	0.391350	-0.337264
C127	C	1.202374	0.338555	-0.402055
C128	C	1.180954	0.252727	-0.438305
H129	H	0.974807	0.248039	-0.323844
H130	H	1.012083	0.397400	-0.260762
H131	H	1.156602	0.454885	-0.310430
H132	H	1.263851	0.363006	-0.423185
H133	H	1.226576	0.213645	-0.486268
C134	C	0.887355	0.001786	-0.589839
C135	C	0.833464	0.061206	-0.655987
C136	C	0.749245	0.036380	-0.692522
C137	C	0.718917	-0.047865	-0.662909
C138	C	0.772808	-0.107291	-0.596757
C139	C	0.857027	-0.082465	-0.560223
H140	H	0.855914	0.123574	-0.677912
H141	H	0.709352	0.080371	-0.741492
H142	H	0.656573	-0.066243	-0.689954
H143	H	0.750358	-0.169659	-0.574833
H144	H	0.896921	-0.126456	-0.511253
C145	C	0.427319	-0.023633	-0.093211
C146	C	0.499654	-0.096016	-0.097456
C147	C	0.479986	-0.188224	-0.102876
C148	C	0.387984	-0.208049	-0.104051
C149	C	0.315643	-0.135664	-0.099806
C150	C	0.335310	-0.043456	-0.094386
H151	H	0.567765	-0.081342	-0.096586
H152	H	0.533539	-0.241808	-0.106019
H153	H	0.373426	-0.276307	-0.108064
H154	H	0.247532	-0.150338	-0.100676
H155	H	0.281758	0.010128	-0.091243
C156	C	1.097009	0.221173	-0.586876
C157	C	1.174964	0.227432	-0.647817
C158	C	1.195878	0.314247	-0.681552
C159	C	1.138837	0.394803	-0.654347
C160	C	1.060877	0.388547	-0.593403
C161	C	1.039963	0.301731	-0.559668
H162	H	1.217194	0.167797	-0.667959
H163	H	1.253589	0.318878	-0.726667
H164	H	1.154318	0.459069	-0.679320
H165	H	1.018647	0.448182	-0.573261
H166	H	0.982252	0.297100	-0.514553
C167	C	0.882752	0.007580	-0.411884
C168	C	0.812883	-0.005439	-0.481917
C169	C	0.726074	-0.025076	-0.447611
C170	C	0.709133	-0.031693	-0.343273
C171	C	0.779004	-0.018674	-0.273234
C172	C	0.865814	0.000962	-0.307540
H173	H	0.825422	-0.000541	-0.559159
H174	H	0.674351	-0.034713	-0.499459
H175	H	0.644872	-0.046229	-0.317878
H176	H	0.766466	-0.023572	-0.195991
H177	H	0.917537	0.010600	-0.255692
C178	C	1.075440	-0.335603	-0.162455
C179	C	1.028998	-0.273718	-0.231986
C180	C	1.075013	-0.246728	-0.318628
C181	C	1.167470	-0.281623	-0.335739
C182	C	1.213918	-0.343511	-0.266206
C183	C	1.167903	-0.370501	-0.179564
H184	H	0.960551	-0.247883	-0.219322
H185	H	1.040629	-0.200914	-0.370101
H186	H	1.201533	-0.261643	-0.399876
H187	H	1.282365	-0.369346	-0.278870
H188	H	1.202287	-0.416315	-0.128091
C189	C	0.551082	0.257352	0.085017
C190	C	0.595893	0.337074	0.072090
C191	C	0.621634	0.386305	0.157079
C192	C	0.602564	0.355814	0.254994
C193	C	0.557751	0.276088	0.267925
C194	C	0.532011	0.226857	0.182936
H195	H	0.610011	0.359649	-0.000397
H196	H	0.654807	0.445324	0.147506
H197	H	0.621619	0.392258	0.317908
H198	H	0.543633	0.253513	0.340412
H199	H	0.498837	0.167838	0.192509
C200	C	0.390854	0.254838	0.085394
C201	C	0.338340	0.210493	0.155541
C202	C	0.300518	0.258982	0.240555
C203	C	0.315211	0.351815	0.255421
C204	C	0.367728	0.396165	0.185272
C205	C	0.405549	0.347677	0.100258
H206	H	0.327461	0.141768	0.144538
H207	H	0.261642	0.226150	0.292484
H208	H	0.287213	0.387709	0.318353
H209	H	0.378607	0.464891	0.196275
H210	H	0.444426	0.380508	0.048329
C211	C	0.389465	0.254567	-0.084166
C212	C	0.336429	0.209777	-0.153425
C213	C	0.297230	0.257988	-0.237975
C214	C	0.311068	0.350990	-0.253266
C215	C	0.364107	0.395785	-0.184005
C216	C	0.403305	0.347573	-0.099455
H217	H	0.326183	0.140927	-0.142107
H218	H	0.257968	0.224828	-0.289246
H219	H	0.282051	0.386679	-0.315855
H220	H	0.374353	0.464634	-0.195322
H221	H	0.442568	0.380734	-0.048183
H222	H	0.931198	0.248546	-0.580506
C223	C	0.409033	0.106028	0.176847
C224	C	0.415132	0.199732	0.198323
C225	C	0.376995	0.239087	0.288210
C226	C	0.332758	0.184738	0.356621
C227	C	0.326657	0.091029	0.335146
C228	C	0.364795	0.051674	0.245259
H229	H	0.447881	0.239969	0.147681
H230	H	0.381512	0.308457	0.304107
H231	H	0.304526	0.213871	0.423160
H232	H	0.293909	0.050792	0.385788
H233	H	0.360278	-0.017696	0.229362
H234	H	0.931513	0.249165	-0.420874
C235	C	0.570852	0.113368	-0.175965
C236	C	0.504035	0.150701	-0.245740
C237	C	0.531103	0.194377	-0.333968
C238	C	0.624988	0.200721	-0.352422
C239	C	0.691811	0.163387	-0.282645
C240	C	0.664743	0.119711	-0.194416
H241	H	0.434530	0.146006	-0.232081
H242	H	0.481635	0.222014	-0.385622
H243	H	0.645025	0.233052	-0.417734
H244	H	0.761315	0.168082	-0.296304
H245	H	0.714210	0.092074	-0.142763
H246	H	0.420161	0.100816	-0.153402
C247	C	1.075520	-0.335387	0.162318
C248	C	1.041688	-0.352959	0.259183
C249	C	1.087738	-0.325767	0.345737
C250	C	1.167620	-0.281003	0.335424
C251	C	1.201456	-0.263429	0.238555
C252	C	1.155406	-0.290621	0.152002
H253	H	0.982551	-0.386098	0.266821
H254	H	1.062690	-0.338777	0.417446
H255	H	1.201709	-0.260874	0.399496
H256	H	1.260593	-0.230290	0.230918
H257	H	1.180454	-0.277611	0.080292
H258	H	1.135340	-0.456758	-0.000061
H259	H	0.854978	0.172321	-0.579391
H260	H	1.129054	0.086233	-0.579043
