data_functionalizedCrystal
_audit_creation_method	'MofGen! by Chris Wilmer'
_symmetry_space_group_name_H-M	'P1'
_symmetry_Int_Tables_number	1
_symmetry_cell_setting	triclinic
loop_
_symmetry_equiv_pos_as_xyz
  x,y,z
_cell_length_a	14.853567
_cell_length_b	9.482900
_cell_length_c	10.967829
_cell_angle_alpha	111.321436
_cell_angle_beta	84.185224
_cell_angle_gamma	80.672408
loop_
_atom_site_label
_atom_site_type_symbol
_atom_site_fract_x
_atom_site_fract_y
_atom_site_fract_z
O1	O	1.177769	0.168406	0.190044
O2	O	0.914824	0.173498	0.210272
O3	O	1.057826	0.123526	0.010879
O4	O	1.034767	0.218379	0.389437
O5	O	1.086926	-0.128440	-0.029711
O6	O	0.943924	-0.078467	0.169682
O7	O	1.206869	-0.083559	0.149454
Cu8	Cu	1.078054	-0.104019	0.155862
Cu9	Cu	1.043639	0.193959	0.203864
O10	O	1.063867	-0.033586	0.348847
C11	C	0.895807	0.047289	0.189061
C12	C	0.795787	0.046611	0.186317
N13	N	1.019435	0.403538	0.237617
C14	C	1.072897	-0.014592	-0.057862
C15	C	1.074438	-0.050753	-0.202216
C16	C	0.386362	0.013991	0.056261
C17	C	0.359426	0.073347	0.293142
C18	C	0.453397	0.073999	0.295725
C19	C	0.513856	0.044649	0.178574
C20	C	0.480342	0.014647	0.058841
C21	C	0.486916	0.104015	0.415459
C22	C	0.580893	0.104670	0.418046
C23	C	0.641354	0.075309	0.300892
C24	C	0.607836	0.045304	0.181154
C25	C	0.668294	0.015954	0.064003
C26	C	0.634779	-0.014062	-0.055738
C27	C	0.540804	-0.014714	-0.058313
C28	C	0.735329	0.075961	0.303467
C29	C	0.762274	0.016609	0.066583
C30	C	1.225886	0.042653	0.170665
C31	C	1.325904	0.043341	0.173411
N32	N	1.102266	-0.313602	0.122098
C33	C	1.070919	0.457745	0.165826
C34	C	1.050774	0.632198	0.193900
C35	C	1.060050	0.063653	-0.245540
C36	C	1.061643	0.026283	-0.394737
C37	C	1.048796	0.104535	0.417589
C38	C	1.047253	0.140705	0.561944
H39	H	0.811495	-0.007297	-0.028818
H40	H	1.046549	0.189267	-0.172177
H41	H	1.075135	-0.099338	-0.468096
Br42	Br	1.096924	-0.260124	-0.324479
Br43	Br	0.921115	0.541440	0.374715
H44	H	1.033745	0.266328	-0.364696
H45	H	0.684015	-0.037948	-0.151120
H46	H	0.513511	-0.039188	-0.155806
H47	H	0.359070	-0.010453	-0.041231
Br48	Br	1.169254	0.319853	0.028748
H49	H	0.310194	0.097255	0.388523
H50	H	0.762614	0.100397	0.400959
H51	H	1.161264	0.603661	0.039851
Br52	Br	0.626370	0.145404	0.580548
Br53	Br	0.404860	0.143877	0.574444
H54	H	0.991781	0.714938	0.276156
