data_functionalizedCrystal
_audit_creation_method	'MofGen! by Chris Wilmer'
_symmetry_space_group_name_H-M	'P1'
_symmetry_Int_Tables_number	1
_symmetry_cell_setting	triclinic
loop_
_symmetry_equiv_pos_as_xyz
  x,y,z
_cell_length_a	17.077404
_cell_length_b	19.077068
_cell_length_c	17.077396
_cell_angle_alpha	87.732878
_cell_angle_beta	90.019501
_cell_angle_gamma	92.327269
loop_
_atom_site_label
_atom_site_type_symbol
_atom_site_fract_x
_atom_site_fract_y
_atom_site_fract_z
Zn1	Zn	1.187475	-0.280197	0.456376
Zn2	Zn	1.182097	-0.397901	0.330375
Zn3	Zn	1.056205	-0.280222	0.325125
Zn4	Zn	1.050892	-0.397859	0.461596
O5	O	1.119167	-0.339045	0.393368
O6	O	1.296608	-0.295818	0.439674
O7	O	1.165371	-0.382318	0.219833
O8	O	1.078093	-0.181727	0.338154
O9	O	1.292657	-0.382294	0.347101
O10	O	1.174536	-0.181709	0.434583
O11	O	1.072878	-0.295860	0.215976
O12	O	0.945654	-0.295819	0.343216
O13	O	1.069036	-0.382223	0.570750
O14	O	0.941750	-0.382247	0.443481
O15	O	1.169383	-0.295777	0.566914
O16	O	1.160218	-0.496386	0.352163
O17	O	1.063822	-0.496356	0.448571
C18	C	0.915220	-0.339032	0.393346
C19	C	0.827970	-0.339043	0.393356
C20	C	0.784964	-0.384114	0.445486
C21	C	0.702984	-0.384116	0.445499
C22	C	0.664010	-0.339050	0.393376
C23	C	0.707021	-0.293974	0.341243
C24	C	0.789000	-0.293969	0.341235
C25	C	0.536151	-0.293988	0.341263
C26	C	0.454166	-0.293993	0.341270
C27	C	0.450134	-0.384134	0.445526
C28	C	0.532113	-0.384130	0.445518
C29	C	0.575119	-0.339055	0.393384
C30	C	1.110881	-0.521909	0.401521
C31	C	1.107408	-0.600139	0.405035
C32	C	1.156004	-0.636884	0.356533
C33	C	1.152742	-0.710389	0.359843
C34	C	1.100880	-0.747148	0.411651
C35	C	1.052283	-0.710398	0.460158
C36	C	1.055549	-0.636894	0.456852
C37	C	1.085729	-0.966982	0.426921
C38	C	1.082465	-1.040491	0.430222
C39	C	1.182926	-1.040478	0.329907
C40	C	1.186184	-0.966973	0.326602
C41	C	1.137590	-0.930229	0.375112
N42	N	1.097543	-0.822282	0.415033
N43	N	1.140931	-0.855096	0.371733
C44	C	1.323911	-0.339058	0.393391
C45	C	1.411160	-0.339064	0.393400
C46	C	1.119217	-0.338993	0.598110
C47	C	1.119238	-0.338971	0.685359
C48	C	1.127507	-0.155467	0.385201
C49	C	1.131061	-0.077237	0.381720
C50	C	1.119165	-0.339046	0.189420
C51	C	1.119305	-0.338869	0.102163
C52	C	1.171491	-0.293955	0.724353
C53	C	1.171501	-0.293931	0.806332
C54	C	1.119262	-0.338928	0.849316
C55	C	1.067004	-0.383946	0.810317
C56	C	1.066990	-0.383965	0.728339
C57	C	1.067038	-0.383904	0.981185
C58	C	1.067052	-0.383885	1.063169
C59	C	1.171549	-0.293870	1.059179
C60	C	1.171535	-0.293889	0.977201
C61	C	1.119277	-0.338908	0.938207
H62	H	0.824015	-0.257264	0.298789
H63	H	0.571164	-0.257277	0.298816
C64	C	1.206203	-0.750805	0.306490
C65	C	1.200296	-0.740762	0.216795
C66	C	1.253763	-0.781175	0.163442
C67	C	1.313139	-0.831631	0.199783
C68	C	1.319049	-0.841676	0.289482
C69	C	1.265581	-0.801263	0.342836
H70	H	1.156340	-0.703409	0.189889
H71	H	1.249388	-0.773738	0.097040
H72	H	1.352719	-0.861547	0.160288
H73	H	1.363004	-0.879028	0.316389
H74	H	1.269956	-0.808699	0.409237
H75	H	1.024472	-0.420552	0.949438
H76	H	1.040242	-1.070418	0.472424
C77	C	1.213054	-0.596452	0.299542
C78	C	1.206252	-0.606623	0.210757
C79	C	1.263305	-0.566193	0.153767
C80	C	1.327161	-0.515593	0.185563
C81	C	1.333966	-0.505420	0.274353
C82	C	1.276912	-0.545849	0.331342
H83	H	1.158980	-0.644082	0.187216
H84	H	1.258268	-0.573724	0.088039
H85	H	1.369395	-0.485664	0.143376
H86	H	1.381238	-0.467960	0.297894
H87	H	1.281950	-0.538318	0.397071
C88	C	1.228956	-0.244457	0.677074
C89	C	1.197443	-0.189212	0.618251
C90	C	1.254908	-0.139711	0.570974
C91	C	1.343885	-0.145455	0.582520
C92	C	1.375402	-0.200703	0.641346
C93	C	1.317938	-0.250204	0.688623
H94	H	1.131572	-0.184958	0.609701
H95	H	1.231576	-0.098813	0.527427
H96	H	1.386424	-0.108812	0.547523
H97	H	1.441273	-0.204957	0.649895
H98	H	1.341269	-0.291101	0.732169
H99	H	0.415115	-0.420834	0.487978
H100	H	1.214052	-0.257276	0.838078
C101	C	1.229027	-0.244343	1.102070
C102	C	1.226258	-0.164334	1.087235
C103	C	1.283736	-0.114813	1.130132
C104	C	1.343983	-0.145300	1.187864
C105	C	1.346754	-0.225313	1.202702
C106	C	1.289276	-0.274835	1.159806
H107	H	1.181658	-0.141762	1.044495
H108	H	1.281684	-0.055582	1.119147
H109	H	1.386531	-0.108641	1.219619
H110	H	1.391354	-0.247885	1.245442
H111	H	1.291328	-0.334066	1.170790
H112	H	1.024513	-0.420524	1.098164
H113	H	1.214077	-0.257253	0.942205
H114	H	1.228414	-0.937045	0.284416
C115	C	1.032273	-0.926575	0.480283
C116	C	0.942588	-0.936753	0.474257
C117	C	0.889130	-0.896345	0.527624
C118	C	0.925358	-0.845757	0.587018
C119	C	1.015048	-0.835576	0.593046
C120	C	1.068506	-0.875985	0.539679
H121	H	0.915766	-0.974203	0.430288
H122	H	0.822736	-0.903881	0.523161
H123	H	0.885785	-0.815844	0.626523
H124	H	1.041869	-0.798127	0.637015
H125	H	1.134900	-0.868448	0.544142
C126	C	1.009546	-0.433444	0.857603
C127	C	1.041070	-0.488688	0.916421
C128	C	0.983614	-0.538189	0.963708
C129	C	0.894634	-0.532447	0.952178
C130	C	0.863106	-0.477201	0.893358
C131	C	0.920561	-0.427699	0.846070
H132	H	1.106942	-0.492941	0.924959
H133	H	1.006954	-0.579086	1.007251
H134	H	0.852102	-0.569090	0.987183
H135	H	0.797234	-0.472948	0.884820
H136	H	0.897221	-0.386803	0.802527
H137	H	1.010059	-0.740332	0.502345
C138	C	1.002091	-0.596470	0.510202
C139	C	0.912405	-0.606642	0.504171
C140	C	0.858948	-0.566219	0.557525
C141	C	0.895176	-0.515624	0.616909
C142	C	0.984867	-0.505449	0.622942
C143	C	1.038324	-0.545872	0.569588
H144	H	0.885583	-0.644098	0.460209
H145	H	0.792553	-0.573751	0.553058
H146	H	0.855604	-0.485700	0.656405
H147	H	1.011689	-0.467993	0.666904
H148	H	1.104719	-0.538340	0.574055
C149	C	0.664157	-0.244394	0.283910
C150	C	0.675138	-0.250027	0.194913
C151	C	0.632277	-0.200446	0.137578
C152	C	0.578435	-0.145231	0.169240
C153	C	0.567451	-0.139596	0.258241
C154	C	0.610312	-0.189177	0.315577
H155	H	0.714998	-0.290903	0.171471
H156	H	0.640409	-0.204618	0.071693
H157	H	0.546707	-0.108528	0.126797
H158	H	0.527591	-0.098721	0.281684
H159	H	0.602180	-0.185005	0.381462
H160	H	1.024433	-0.420615	0.696590
H161	H	0.667972	-0.420818	0.487948
C162	C	0.574984	-0.433703	0.502853
C163	C	0.560090	-0.513708	0.499871
C164	C	0.602961	-0.563281	0.557209
C165	C	0.660726	-0.532848	0.617527
C166	C	0.675623	-0.452838	0.620511
C167	C	0.632752	-0.403266	0.563174
H168	H	0.517326	-0.536240	0.455218
H169	H	0.591933	-0.622509	0.555000
H170	H	0.692462	-0.569544	0.659972
H171	H	0.718387	-0.430306	0.665164
H172	H	0.643781	-0.344037	0.565383
H173	H	0.816690	-0.420815	0.487928
H174	H	1.222490	-1.070403	0.290414
H175	H	0.422436	-0.257288	0.298836
