data_functionalizedCrystal
_audit_creation_method	'MofGen! by Chris Wilmer'
_symmetry_space_group_name_H-M	'P1'
_symmetry_Int_Tables_number	1
_symmetry_cell_setting	triclinic
loop_
_symmetry_equiv_pos_as_xyz
  x,y,z
_cell_length_a	19.288864
_cell_length_b	19.188925
_cell_length_c	17.766277
_cell_angle_alpha	89.993978
_cell_angle_beta	89.976791
_cell_angle_gamma	83.139398
loop_
_atom_site_label
_atom_site_type_symbol
_atom_site_fract_x
_atom_site_fract_y
_atom_site_fract_z
O1	O	0.921358	0.087099	-0.062835
O2	O	1.254691	0.420433	0.270498
O3	O	1.588025	0.753766	0.603832
O4	O	0.719098	0.098849	-0.062783
O5	O	1.052431	0.432182	0.270550
O6	O	1.385765	0.765516	0.603883
O7	O	0.826067	-0.008682	-0.062806
O8	O	1.159400	0.324651	0.270527
O9	O	1.492733	0.657985	0.603860
O10	O	0.814389	0.194631	-0.062812
O11	O	1.147722	0.527964	0.270521
O12	O	1.481056	0.861297	0.603855
O13	O	0.826048	-0.008688	0.062382
O14	O	1.159381	0.324646	0.395715
O15	O	1.492715	0.657979	0.729049
O16	O	0.719079	0.098844	0.062405
O17	O	1.052412	0.432177	0.395738
O18	O	1.385746	0.765510	0.729072
O19	O	0.921339	0.087094	0.062354
O20	O	1.254672	0.420427	0.395687
O21	O	1.588006	0.753761	0.729020
Cu22	Cu	0.820207	0.092968	0.073810
Cu23	Cu	1.153541	0.426302	0.407143
Cu24	Cu	1.486874	0.759635	0.740477
Cu25	Cu	0.820230	0.092975	-0.074240
Cu26	Cu	1.153563	0.426308	0.259093
Cu27	Cu	1.486896	0.759641	0.592427
O28	O	0.814370	0.194625	0.062377
O29	O	1.147704	0.527958	0.395710
O30	O	1.481037	0.861292	0.729043
C31	C	0.693212	0.098468	-0.000183
C32	C	1.026545	0.431802	0.333151
C33	C	1.359879	0.765135	0.666484
C34	C	0.616108	0.097333	-0.000163
C35	C	0.949442	0.430667	0.333170
C36	C	1.282775	0.764000	0.666504
C37	C	0.825680	-0.034696	-0.000213
C38	C	1.159013	0.298637	0.333121
C39	C	1.492346	0.631971	0.666454
C40	C	0.824546	-0.112201	-0.000214
C41	C	1.157880	0.221133	0.333119
C42	C	1.491213	0.554466	0.666453
C43	C	0.571416	0.160428	-0.000176
C44	C	0.904749	0.493761	0.333157
C45	C	1.238082	0.827094	0.666490
C46	C	0.498968	0.159362	-0.000185
C47	C	0.832302	0.492695	0.333149
C48	C	1.165635	0.826028	0.666482
C49	C	0.471217	0.095197	-0.000195
C50	C	0.804551	0.428531	0.333139
C51	C	1.137884	0.761864	0.666472
C52	C	0.515920	0.032095	-0.000177
C53	C	0.849253	0.365428	0.333157
C54	C	1.182587	0.698761	0.666490
C55	C	0.588366	0.033163	-0.000161
C56	C	0.921699	0.366496	0.333172
C57	C	1.255032	0.699829	0.666506
C58	C	0.362959	0.044759	-0.044078
C59	C	0.696292	0.378092	0.289256
C60	C	1.029626	0.711426	0.622589
C61	C	0.290515	0.043694	-0.044098
C62	C	0.623848	0.377027	0.289235
C63	C	0.957181	0.710360	0.622569
C64	C	0.247772	0.091901	-0.000240
C65	C	0.581105	0.425234	0.333093
C66	C	0.914438	0.758567	0.666427
C67	C	0.277480	0.141185	0.043629
C68	C	0.610814	0.474518	0.376962
C69	C	0.944147	0.807851	0.710295
C70	C	0.349926	0.142253	0.043645
C71	C	0.683259	0.475586	0.376978
C72	C	1.016593	0.808919	0.710311
C73	C	0.392663	0.094032	-0.000211
C74	C	0.725997	0.427365	0.333122
C75	C	1.059330	0.760699	0.666455
C76	C	0.124523	0.153843	-0.000261
C77	C	0.457856	0.487177	0.333072
C78	C	0.791189	0.820510	0.666405
C79	C	0.052075	0.152774	-0.000265
C80	C	0.385408	0.486108	0.333068
C81	C	0.718741	0.819441	0.666402
C82	C	0.069028	0.025506	-0.000265
C83	C	0.402361	0.358839	0.333069
C84	C	0.735695	0.692172	0.666402
C85	C	0.141474	0.026576	-0.000254
C86	C	0.474808	0.359910	0.333080
C87	C	0.808141	0.693243	0.666413
C88	C	0.169217	0.090747	-0.000255
C89	C	0.502551	0.424080	0.333078
C90	C	0.835884	0.757414	0.666411
C91	C	0.879724	-0.673975	-0.000247
C92	C	1.213057	-0.340642	0.333086
C93	C	1.546390	-0.007308	0.666420
C94	C	0.880795	-0.601152	-0.000240
C95	C	1.214128	-0.267818	0.333093
C96	C	1.547461	0.065515	0.666426
C97	C	0.818029	-0.556213	-0.000225
C98	C	1.151362	-0.222879	0.333109
C99	C	1.484695	0.110454	0.666442
C100	C	0.754187	-0.584102	-0.000196
C101	C	1.087521	-0.250769	0.333137
C102	C	1.420854	0.082565	0.666471
C103	C	0.753118	-0.656924	-0.000195
C104	C	1.086451	-0.323590	0.333138
C105	C	1.419785	0.009743	0.666472
N106	N	0.772595	-0.435527	-0.042824
N107	N	1.105929	-0.102193	0.290509
N108	N	1.439262	0.231140	0.623843
N109	N	0.773615	-0.366350	-0.042826
N110	N	1.106948	-0.033016	0.290507
N111	N	1.440282	0.300317	0.623840
C112	C	0.821246	-0.336804	-0.000226
C113	C	1.154579	-0.003470	0.333107
C114	C	1.487913	0.329863	0.666441
N115	N	0.867829	-0.379050	0.042368
N116	N	1.201163	-0.045716	0.375701
N117	N	1.534496	0.287617	0.709034
N118	N	0.866811	-0.448234	0.042367
N119	N	1.200145	-0.114900	0.375700
N120	N	1.533478	0.218433	0.709034
C121	C	0.819181	-0.477248	-0.000225
C122	C	1.152514	-0.143915	0.333108
C123	C	1.485848	0.189418	0.666441
C124	C	0.886245	-0.229960	-0.000242
C125	C	1.219578	0.103374	0.333091
C126	C	1.552911	0.436707	0.666425
C127	C	0.887313	-0.157135	-0.000231
C128	C	1.220646	0.176199	0.333102
C129	C	1.553980	0.509532	0.666436
C130	C	0.760704	-0.140086	-0.000194
C131	C	1.094037	0.193247	0.333139
C132	C	1.427370	0.526581	0.666473
C133	C	0.759637	-0.212910	-0.000198
C134	C	1.092971	0.120424	0.333136
C135	C	1.426304	0.453757	0.666469
C136	C	0.822410	-0.257842	-0.000225
C137	C	1.155743	0.075491	0.333108
C138	C	1.489076	0.408824	0.666441
C139	C	0.947225	0.087475	-0.000249
C140	C	1.280558	0.420808	0.333084
C141	C	1.613892	0.754141	0.666418
C142	C	1.024329	0.088610	-0.000274
C143	C	1.357662	0.421943	0.333060
C144	C	1.690995	0.755276	0.666393
C145	C	0.814757	0.220639	-0.000219
C146	C	1.148091	0.553972	0.333114
C147	C	1.481424	0.887306	0.666448
C148	C	0.815891	0.298144	-0.000223
C149	C	1.149224	0.631477	0.333111
C150	C	1.482557	0.964810	0.666444
N151	N	0.820197	0.092963	0.177940
N152	N	1.153530	0.426297	0.511274
N153	N	1.486864	0.759630	0.844607
N154	N	0.820246	0.092974	-0.178370
N155	N	1.153579	0.426307	0.154963
N156	N	1.486912	0.759641	0.488296
C157	C	0.867578	0.045372	0.217317
C158	C	1.200911	0.378705	0.550650
C159	C	1.534245	0.712038	0.883984
C160	C	0.867582	0.045369	0.296119
C161	C	1.200915	0.378702	0.629452
C162	C	1.534249	0.712035	0.962786
C163	C	0.820212	0.092969	0.335541
C164	C	1.153545	0.426302	0.668874
C165	C	1.486878	0.759636	1.002208
C166	C	0.772822	0.140564	0.296155
C167	C	1.106155	0.473897	0.629488
C168	C	1.439488	0.807231	0.962821
C169	C	0.772814	0.140561	0.217354
C170	C	1.106148	0.473895	0.550688
C171	C	1.439481	0.807228	0.884021
C172	C	0.810916	0.156586	0.460379
C173	C	1.144250	0.489919	0.793712
C174	C	1.477583	0.823252	1.127045
C175	C	0.810928	0.156589	0.539177
C176	C	1.144262	0.489923	0.872511
C177	C	1.477595	0.823256	1.205844
C178	C	0.820230	0.092977	0.578587
C179	C	1.153563	0.426311	0.911921
C180	C	1.486897	0.759644	1.245254
C181	C	0.829534	0.029359	0.539189
C182	C	1.162868	0.362692	0.872522
C183	C	1.496201	0.696025	1.205855
C184	C	0.829527	0.029356	0.460388
C185	C	1.162860	0.362689	0.793722
C186	C	1.496194	0.696023	1.127055
C187	C	0.820214	0.092977	0.420987
C188	C	1.153547	0.426310	0.754320
C189	C	1.486881	0.759644	1.087653
C190	C	0.867618	0.045378	0.703410
C191	C	1.200951	0.378712	1.036743
C192	C	1.534285	0.712045	1.370077
C193	C	0.867617	0.045374	0.782213
C194	C	1.200951	0.378707	1.115546
C195	C	1.534284	0.712041	1.448880
C196	C	0.772860	0.140576	0.782247
C197	C	1.106194	0.473909	1.115581
C198	C	1.439527	0.807242	1.448914
C199	C	0.772858	0.140574	0.703446
C200	C	1.106191	0.473907	1.036779
C201	C	1.439524	0.807240	1.370112
C202	C	0.820240	0.092976	0.664032
C203	C	1.153574	0.426309	0.997365
C204	C	1.486907	0.759642	1.330698
H205	H	0.593999	0.212680	-0.000179
H206	H	0.927332	0.546014	0.333154
H207	H	1.260665	0.879347	0.666487
H208	H	0.701136	-0.679623	-0.000174
H209	H	1.034469	-0.346290	0.333160
H210	H	1.367803	-0.012957	0.666493
Br211	Br	0.971433	-0.290944	-0.000278
Br212	Br	1.304767	0.042390	0.333056
Br213	Br	1.638100	0.375723	0.666389
H214	H	0.147112	0.206095	-0.000252
H215	H	0.480445	0.539428	0.333081
H216	H	0.813779	0.872762	0.666415
H217	H	0.803357	0.208391	0.571250
H218	H	1.136690	0.541725	0.904583
H219	H	1.470023	0.875058	1.237916
Br220	Br	0.438302	0.244996	-0.000199
Br221	Br	0.771635	0.578329	0.333135
Br222	Br	1.104969	0.911662	0.666468
Br223	Br	0.708506	0.205154	0.163910
Br224	Br	1.041839	0.538487	0.497243
Br225	Br	1.375173	0.871821	0.830576
H226	H	0.932777	-0.578446	-0.000260
H227	H	1.266110	-0.245113	0.333073
H228	H	1.599443	0.088221	0.666407
H229	H	0.374112	0.182379	0.079367
H230	H	0.707445	0.515713	0.412700
H231	H	1.040779	0.849046	0.746033
Br232	Br	0.708527	0.205160	0.349653
Br233	Br	1.041861	0.538494	0.682986
Br234	Br	1.375194	0.871827	1.016320
H235	H	0.624755	-0.018218	-0.000150
H236	H	0.958089	0.315115	0.333183
H237	H	1.291422	0.648449	0.666516
H238	H	0.703083	-0.547508	-0.000181
H239	H	1.036416	-0.214174	0.333152
H240	H	1.369750	0.119159	0.666486
H241	H	0.397755	0.005502	-0.079797
H242	H	0.731089	0.338835	0.253537
H243	H	1.064422	0.672168	0.586870
H244	H	0.242680	0.180439	0.079343
H245	H	0.576014	0.513773	0.412676
H246	H	0.909347	0.847106	0.746009
Br247	Br	0.964914	-0.734952	-0.000278
Br248	Br	1.298248	-0.401618	0.333056
Br249	Br	1.631581	-0.068285	0.666389
Br250	Br	0.973951	-0.119295	-0.000265
Br251	Br	1.307285	0.214039	0.333068
Br252	Br	1.640618	0.547372	0.666402
Br253	Br	0.478260	-0.054986	-0.000182
Br254	Br	0.811593	0.278347	0.333151
Br255	Br	1.144927	0.611681	0.666484
Br256	Br	0.842167	-0.056979	0.592663
Br257	Br	1.175501	0.276355	0.925996
Br258	Br	1.508834	0.609688	1.259329
H259	H	0.837101	-0.022444	0.428313
H260	H	1.170434	0.310889	0.761646
H261	H	1.503768	0.644222	1.094980
Br262	Br	0.675520	-0.079105	-0.000159
Br263	Br	1.008853	0.254228	0.333175
Br264	Br	1.342186	0.587562	0.666508
Br265	Br	0.931920	-0.019220	0.649917
Br266	Br	1.265253	0.314113	0.983251
Br267	Br	1.598586	0.647446	1.316584
H268	H	0.906199	0.006616	0.814274
H269	H	1.239532	0.339949	1.147608
H270	H	1.572865	0.673282	1.480941
H271	H	0.015686	0.204156	-0.000272
H272	H	0.349019	0.537489	0.333062
H273	H	0.682352	0.870822	0.666395
Br274	Br	0.708564	0.205169	0.835742
Br275	Br	1.041897	0.538503	1.169076
Br276	Br	1.375231	0.871836	1.502409
Br277	Br	0.673002	-0.250752	-0.000170
Br278	Br	1.006335	0.082581	0.333164
Br279	Br	1.339668	0.415915	0.666497
H280	H	0.906158	0.006613	0.185228
H281	H	1.239491	0.339947	0.518562
H282	H	1.572825	0.673280	0.851895
H283	H	0.906166	0.006612	0.328185
H284	H	1.239500	0.339946	0.661519
H285	H	1.572833	0.673279	0.994852
H286	H	0.046434	-0.026738	-0.000319
H287	H	0.379767	0.306595	0.333014
H288	H	0.713101	0.639929	0.666347
Br289	Br	0.708554	0.205167	0.650000
Br290	Br	1.041888	0.538501	0.983333
Br291	Br	1.375221	0.871834	1.316666
H292	H	0.803330	0.208390	0.428298
H293	H	1.136663	0.541723	0.761631
H294	H	1.469996	0.875056	1.094964
H295	H	0.266331	0.003566	-0.079822
H296	H	0.599665	0.336900	0.253512
H297	H	0.932998	0.670233	0.586845
Br298	Br	0.202133	-0.059057	-0.000237
Br299	Br	0.535467	0.274277	0.333096
Br300	Br	0.868800	0.607610	0.666430
