data_functionalizedCrystal
_audit_creation_method	'MofGen! by Chris Wilmer'
_symmetry_space_group_name_H-M	'P1'
_symmetry_Int_Tables_number	1
_symmetry_cell_setting	triclinic
loop_
_symmetry_equiv_pos_as_xyz
  x,y,z
_cell_length_a	14.853567
_cell_length_b	19.188930
_cell_length_c	13.930277
_cell_angle_alpha	89.990320
_cell_angle_beta	89.995755
_cell_angle_gamma	83.389856
loop_
_atom_site_label
_atom_site_type_symbol
_atom_site_fract_x
_atom_site_fract_y
_atom_site_fract_z
O1	O	1.195862	0.091155	-0.079776
O2	O	0.933342	0.102014	-0.079794
O3	O	1.072177	-0.005046	-0.079766
O4	O	1.057026	0.198215	-0.079804
O5	O	1.072158	-0.005048	0.079896
O6	O	0.933322	0.102012	0.079868
O7	O	1.195842	0.091153	0.079886
Zn8	Zn	1.064579	0.096582	0.105227
Zn9	Zn	1.064605	0.096585	-0.105135
O10	O	1.057007	0.198213	0.079858
C11	C	0.899746	0.101521	0.000035
C12	C	0.799671	0.100046	0.000029
C13	C	0.387525	0.030218	0.000064
C14	C	0.365537	0.157407	0.000039
C15	C	0.459563	0.158794	0.000036
C16	C	0.517574	0.095891	0.000045
C17	C	0.481560	0.031602	0.000058
C18	C	0.495585	0.223081	0.000013
C19	C	0.589616	0.224470	0.000009
C20	C	0.647629	0.161567	0.000025
C21	C	0.611610	0.097276	0.000039
C22	C	0.669621	0.034373	0.000048
C23	C	0.633603	-0.029919	0.000069
C24	C	0.539574	-0.031301	0.000074
C25	C	0.741659	0.162949	0.000020
C26	C	0.763656	0.035757	0.000042
C27	C	1.071677	-0.031060	0.000068
C28	C	1.070204	-0.108569	0.000076
C29	C	1.151668	-0.153221	0.000086
C30	C	1.150285	-0.226050	0.000071
C31	C	1.067432	-0.254223	0.000065
C32	C	0.985957	-0.209561	0.000049
C33	C	0.987343	-0.136734	0.000055
N34	N	1.004095	-0.362440	0.054396
N35	N	1.002783	-0.431623	0.054393
C36	C	1.063251	-0.473645	0.000045
N37	N	1.125093	-0.443873	-0.054287
N38	N	1.126407	-0.374684	-0.054279
C39	C	1.065920	-0.333190	0.000058
C40	C	1.143220	-0.597267	0.000037
C41	C	1.141833	-0.670096	0.000015
C42	C	0.977503	-0.653606	0.000003
C43	C	0.978893	-0.580778	0.000015
C44	C	1.061754	-0.552613	0.000036
C45	C	1.229438	0.091646	0.000055
C46	C	1.329513	0.093120	0.000055
C47	C	1.057507	0.224226	0.000022
C48	C	1.058980	0.301736	0.000008
N49	N	1.064569	0.096579	0.248793
N50	N	1.064623	0.096582	-0.248701
C51	C	1.003126	0.143972	0.701050
C52	C	1.126108	0.049192	0.701044
C53	C	1.126098	0.049190	0.600548
C54	C	1.064601	0.096580	0.550299
C55	C	1.003115	0.143973	0.600545
C56	C	1.187588	0.001803	0.550295
C57	C	1.187581	0.001799	0.449793
C58	C	1.126079	0.049187	0.399541
C59	C	1.064590	0.096581	0.449794
C60	C	1.003094	0.143971	0.399544
C61	C	0.941600	0.191363	0.449794
C62	C	0.941614	0.191361	0.550293
C63	C	1.126065	0.049189	0.299043
C64	C	1.003083	0.143972	0.299039
H65	H	0.618933	0.276821	-0.000008
O66	O	1.185757	0.003187	0.750001
C67	C	1.172600	0.013364	0.849480
H68	H	1.100826	0.039358	0.863213
H69	H	1.182845	-0.039496	0.887690
H70	H	1.223489	0.048455	0.877976
H71	H	0.921003	-0.100377	0.000047
O72	O	1.223786	-0.570018	-0.000002
C73	C	1.295395	-0.625051	0.000014
H74	H	1.270320	-0.674543	-0.030217
H75	H	1.353259	-0.609767	-0.046341
H76	H	1.320510	-0.635344	0.076610
H77	H	0.680849	-0.081134	0.000070
O78	O	0.943269	0.189935	0.749815
C79	C	0.854076	0.178466	0.725252
H80	H	0.853862	0.122566	0.697634
H81	H	0.808804	0.186428	0.791349
H82	H	0.827437	0.217130	0.666913
O83	O	0.776542	0.225436	-0.000129
C84	C	0.746900	0.263776	-0.082842
H85	H	0.681756	0.244688	-0.110404
H86	H	0.733624	0.321907	-0.064262
H87	H	0.801350	0.255736	-0.140744
H88	H	0.318299	0.208620	0.000023
H89	H	0.910043	-0.676543	-0.000007
H90	H	1.219140	-0.130295	0.000100
H91	H	1.216625	-0.262413	0.000075
O92	O	0.504540	-0.093731	-0.000084
C93	C	0.450794	-0.098323	-0.082761
H94	H	0.472899	-0.061817	-0.140563
H95	H	0.459447	-0.154583	-0.110509
H96	H	0.376576	-0.082282	-0.064069
H97	H	0.891548	0.229946	0.591213
H98	H	0.918498	-0.232504	0.000042
H99	H	1.237662	-0.036778	0.591211
O100	O	1.220950	-0.713502	-0.000149
C101	C	1.225072	-0.756116	-0.082835
H102	H	1.178874	-0.729480	-0.140633
H103	H	1.297729	-0.764226	-0.110580
H104	H	1.201947	-0.809100	-0.064153
H105	H	1.237651	-0.036790	0.408885
O106	O	1.185704	0.003071	0.250261
C107	C	1.171366	-0.066073	0.274844
H108	H	1.099201	-0.066532	0.302495
H109	H	1.181868	-0.101090	0.208748
H110	H	1.221434	-0.086510	0.333163
O111	O	0.899674	-0.537498	0.000060
C112	C	0.826247	-0.577978	0.000027
H113	H	0.849342	-0.632313	0.030250
H114	H	0.769180	-0.551177	0.046381
H115	H	0.800844	-0.583175	-0.076573
O116	O	0.943256	0.189913	0.250186
C117	C	0.887803	0.152445	0.192049
H118	H	0.886503	0.097378	0.222344
H119	H	0.816035	0.180829	0.190914
H120	H	0.916026	0.148829	0.115878
O121	O	0.881988	0.237427	0.400872
C122	C	0.930095	0.280581	0.342744
H123	H	1.000749	0.252875	0.327693
H124	H	0.892426	0.291571	0.272070
H125	H	0.936009	0.332194	0.381462
H126	H	0.448345	0.274293	-0.000004
H127	H	0.810884	-0.015466	0.000053
H128	H	0.358195	-0.022127	0.000085
