data_functionalizedCrystal
_audit_creation_method	'MofGen! by Chris Wilmer'
_symmetry_space_group_name_H-M	'P1'
_symmetry_Int_Tables_number	1
_symmetry_cell_setting	triclinic
loop_
_symmetry_equiv_pos_as_xyz
  x,y,z
_cell_length_a	12.759401
_cell_length_b	12.645330
_cell_length_c	12.759393
_cell_angle_alpha	89.971026
_cell_angle_beta	89.979062
_cell_angle_gamma	90.019217
loop_
_atom_site_label
_atom_site_type_symbol
_atom_site_fract_x
_atom_site_fract_y
_atom_site_fract_z
Zn1	Zn	1.606245	-0.421945	-0.594031
Zn2	Zn	1.606126	-0.599246	-0.418356
Zn3	Zn	1.430543	-0.422001	-0.418366
Zn4	Zn	1.430526	-0.599172	-0.593993
O5	O	1.518360	-0.510591	-0.506187
O6	O	1.753250	-0.445472	-0.570739
O7	O	1.582793	-0.575788	-0.271336
O8	O	1.453907	-0.273647	-0.441689
O9	O	1.753163	-0.575734	-0.441671
O10	O	1.582994	-0.273605	-0.570749
O11	O	1.453793	-0.445568	-0.271344
O12	O	1.283520	-0.445496	-0.441652
O13	O	1.453878	-0.575607	-0.741019
O14	O	1.283507	-0.575662	-0.570684
O15	O	1.582977	-0.445400	-0.741047
O16	O	1.582776	-0.747583	-0.441634
O17	O	1.453763	-0.747529	-0.570674
C18	C	1.245393	-0.510578	-0.506166
C19	C	1.128616	-0.510598	-0.506182
C20	C	1.073775	-0.578479	-0.573263
C21	C	0.964051	-0.578483	-0.573284
C22	C	0.964019	-0.442722	-0.439133
C23	C	1.073741	-0.442714	-0.439118
C24	C	1.518283	-0.786021	-0.506172
C25	C	1.518347	-0.903851	-0.506201
C26	C	1.437519	-1.071424	-0.587630
C27	C	1.437106	-0.948865	-0.587368
C28	C	1.488371	-0.948453	-0.395479
C29	C	1.487878	-1.071052	-0.395973
C30	C	1.629644	-1.070935	-0.534596
C31	C	1.628962	-0.948328	-0.537017
C32	C	1.792393	-0.510605	-0.506208
C33	C	1.909170	-0.510610	-0.506217
C34	C	1.518439	-0.510489	-0.780220
C35	C	1.518472	-0.510446	-0.896997
C36	C	1.518466	-0.234086	-0.506224
C37	C	1.518511	-0.116255	-0.506241
C38	C	1.585699	-0.442636	-0.951875
C39	C	1.585717	-0.442590	-1.061599
C40	C	1.451278	-0.578173	-1.061557
C41	C	1.451255	-0.578213	-0.951835
C42	C	1.518342	-0.510616	-0.233219
C43	C	1.518512	-0.510360	-0.116443
H44	H	1.118394	-0.387431	-0.384493
H45	H	1.455861	-0.918705	-0.669468
H46	H	0.919326	-0.387455	-0.384531
H47	H	1.692482	-0.917680	-0.482054
H48	H	1.456102	-1.100830	-0.669999
C49	C	1.377366	-0.652732	-1.121891
C50	C	1.385907	-0.773249	-1.106783
C51	C	1.312004	-0.847816	-1.167118
C52	C	1.229559	-0.801866	-1.242561
C53	C	1.221015	-0.681342	-1.257671
C54	C	1.294918	-0.606775	-1.197337
H55	H	1.446940	-0.807270	-1.050933
H56	H	1.318329	-0.937036	-1.155932
H57	H	1.174852	-0.857064	-1.287224
H58	H	1.159982	-0.647321	-1.313521
H59	H	1.288593	-0.517555	-1.208523
C60	C	1.326909	-1.113171	-0.562587
C61	C	1.309880	-1.187719	-0.468637
C62	C	1.199272	-1.229471	-0.443593
C63	C	1.105693	-1.196675	-0.512499
C64	C	1.122719	-1.122123	-0.606456
C65	C	1.233327	-1.080371	-0.631500
H66	H	1.379156	-1.212000	-0.417622
H67	H	1.186669	-1.284659	-0.374039
H68	H	1.023815	-1.227582	-0.493960
H69	H	1.053444	-1.097842	-0.657470
H70	H	1.245931	-1.025183	-0.701053
H71	H	1.689984	-1.099926	-0.475316
H72	H	1.396503	-0.633431	-0.907152
C73	C	1.565525	-0.909066	-0.311307
C74	C	1.630228	-0.989071	-0.247343
C75	C	1.707383	-0.949682	-0.163173
C76	C	1.719834	-0.830288	-0.142967
C77	C	1.655129	-0.750276	-0.206933
C78	C	1.577975	-0.789665	-0.291103
H79	H	1.621013	-1.077460	-0.262299
H80	H	1.755282	-1.008913	-0.115821
H81	H	1.776948	-0.801130	-0.080659
H82	H	1.664344	-0.661887	-0.191977
H83	H	1.530076	-0.730434	-0.338455
C84	C	1.134140	-0.653140	-0.647039
C85	C	1.119015	-0.773644	-0.638270
C86	C	1.179376	-0.848305	-0.712050
C87	C	1.254862	-0.802462	-0.794600
C88	C	1.269990	-0.681952	-0.803372
C89	C	1.209629	-0.607291	-0.729592
H90	H	1.063133	-0.807586	-0.577159
H91	H	1.168177	-0.937515	-0.705556
H92	H	1.299546	-0.857731	-0.849216
H93	H	1.325873	-0.648010	-0.864483
H94	H	1.220828	-0.518081	-0.736086
H95	H	1.640429	-0.387452	-0.907229
H96	H	0.919404	-0.633756	-0.627910
H97	H	1.406639	-1.099747	-0.371952
C98	C	1.659671	-0.367999	-1.121964
C99	C	1.779101	-0.376671	-1.106899
C100	C	1.853056	-0.302074	-1.167263
C101	C	1.807583	-0.218807	-1.242692
C102	C	1.688147	-0.210132	-1.257760
C103	C	1.614191	-0.284729	-1.197396
H104	H	1.812768	-0.438313	-1.051060
H105	H	1.941471	-0.308496	-1.156108
H106	H	1.862330	-0.163586	-1.287377
H107	H	1.654480	-0.148490	-1.313600
H108	H	1.525777	-0.278307	-1.208551
H109	H	1.354717	-0.919634	-0.568583
H110	H	1.544308	-1.100712	-0.333264
H111	H	1.407979	-0.917846	-0.371023
C112	C	1.666588	-1.112586	-0.641816
C113	C	1.596306	-1.188298	-0.704997
C114	C	1.633236	-1.229950	-0.812220
C115	C	1.740448	-1.195892	-0.856262
C116	C	1.810736	-1.120176	-0.793081
C117	C	1.773806	-1.078523	-0.685857
H118	H	1.516936	-1.213514	-0.672394
H119	H	1.581204	-1.286000	-0.858991
H120	H	1.767786	-1.226725	-0.935636
H121	H	1.890107	-1.094960	-0.825683
H122	H	1.825839	-1.022473	-0.639086
C123	C	1.659508	-0.908928	-0.647093
C124	C	1.590321	-0.936453	-0.742114
C125	C	1.620861	-0.897044	-0.852190
C126	C	1.720588	-0.830110	-0.867246
C127	C	1.789782	-0.802581	-0.772223
C128	C	1.759242	-0.841990	-0.662146
H129	H	1.516492	-0.986005	-0.730971
H130	H	1.569639	-0.917423	-0.922533
H131	H	1.743196	-0.800937	-0.948732
H132	H	1.863611	-0.753029	-0.783365
H133	H	1.810464	-0.821612	-0.591804
