data_functionalizedCrystal
_audit_creation_method	'MofGen! by Chris Wilmer'
_symmetry_space_group_name_H-M	'P1'
_symmetry_Int_Tables_number	1
_symmetry_cell_setting	triclinic
loop_
_symmetry_equiv_pos_as_xyz
  x,y,z
_cell_length_a	13.033293
_cell_length_b	18.050589
_cell_length_c	13.032268
_cell_angle_alpha	97.149417
_cell_angle_beta	89.079182
_cell_angle_gamma	97.198160
loop_
_atom_site_label
_atom_site_type_symbol
_atom_site_fract_x
_atom_site_fract_y
_atom_site_fract_z
Zn1	Zn	1.498401	-0.231056	-0.781488
Zn2	Zn	1.998401	0.268944	-0.281488
Zn3	Zn	1.520116	-0.337783	-0.609517
Zn4	Zn	2.020116	0.162217	-0.109517
Zn5	Zn	1.348263	-0.227134	-0.587664
Zn6	Zn	1.848263	0.272866	-0.087664
Zn7	Zn	1.326359	-0.368742	-0.759558
Zn8	Zn	1.826359	0.131258	-0.259558
O9	O	1.423285	-0.291179	-0.684557
O10	O	1.923285	0.208821	-0.184557
O11	O	1.645204	-0.233898	-0.776999
O12	O	2.145204	0.266102	-0.276999
O13	O	1.515574	-0.308507	-0.462710
O14	O	2.015574	0.191493	0.037290
O15	O	1.368258	-0.123726	-0.613406
O16	O	1.868258	0.376274	-0.113406
O17	O	1.661157	-0.312310	-0.650653
O18	O	2.161157	0.187690	-0.150653
O19	O	1.478564	-0.126607	-0.755808
O20	O	1.978564	0.373393	-0.255808
O21	O	1.389314	-0.227214	-0.446654
O22	O	1.889314	0.272786	0.053346
O23	O	1.201435	-0.257234	-0.592142
O24	O	1.701435	0.242766	-0.092142
O25	O	1.330926	-0.365076	-0.906376
O26	O	1.830926	0.134924	-0.406376
O27	O	1.185343	-0.361273	-0.718432
O28	O	1.685343	0.138727	-0.218432
O29	O	1.457325	-0.263919	-0.922488
O30	O	1.957325	0.236081	-0.422488
O31	O	1.494335	-0.445819	-0.629389
O32	O	1.994335	0.054181	-0.129389
O33	O	1.351982	-0.468564	-0.739623
O34	O	1.851982	0.031436	-0.239623
C35	C	1.156072	-0.312188	-0.650537
C36	C	1.656072	0.187812	-0.150537
C37	C	1.041754	-0.321197	-0.636007
C38	C	1.541754	0.178803	-0.136007
C39	C	0.982881	-0.286496	-0.692140
C40	C	1.482881	0.213504	-0.192140
C41	C	0.864727	-0.295806	-0.677124
C42	C	1.364727	0.204194	-0.177124
C43	C	1.423163	-0.484139	-0.684524
C44	C	1.923163	0.015861	-0.184524
C45	C	1.423200	-0.566684	-0.684556
C46	C	1.923200	-0.066684	-0.184556
C47	C	1.345859	-0.778523	-0.744486
C48	C	1.845859	-0.278523	-0.244486
C49	C	1.332713	-0.820398	-0.647460
C50	C	1.832713	-0.320398	-0.147460
C51	C	1.423300	-0.717808	-0.684582
C52	C	1.923300	-0.217808	-0.184582
C53	C	1.436495	-0.823013	-0.781626
C54	C	1.936495	-0.323013	-0.281626
C55	C	1.423393	-0.863788	-0.684616
C56	C	1.923393	-0.363788	-0.184616
C57	C	1.410111	-0.758594	-0.587500
C58	C	1.910111	-0.258594	-0.087500
C59	C	1.513927	-0.761207	-0.721735
C60	C	2.013927	-0.261207	-0.221735
C61	C	1.500825	-0.803050	-0.624649
C62	C	2.000825	-0.303050	-0.124649
C63	C	1.423243	-0.633713	-0.684564
C64	C	1.923243	-0.133713	-0.184564
C65	C	1.423450	-0.947880	-0.684624
C66	C	1.923450	-0.447880	-0.184624
C67	C	1.691541	-0.270088	-0.718710
C68	C	2.191541	0.229912	-0.218710
C69	C	1.805856	-0.261100	-0.733264
C70	C	2.305856	0.238900	-0.233264
C71	C	1.389260	-0.318388	-0.952789
C72	C	1.889260	0.181612	-0.452789
C73	C	1.374761	-0.329983	-1.067094
C74	C	1.874761	0.170017	-0.567094
C75	C	1.423432	-0.097465	-0.684616
C76	C	1.923432	0.402535	-0.184616
C77	C	1.423495	-0.014916	-0.684641
C78	C	1.923495	0.485084	-0.184641
C79	C	1.430836	-0.285102	-1.126026
C80	C	1.930836	0.214898	-0.626026
C81	C	1.415852	-0.297085	-1.244166
C82	C	1.915852	0.202915	-0.744166
C83	C	1.457236	-0.264017	-0.417375
C84	C	1.957236	0.235983	0.082625
C85	C	1.471935	-0.252197	-0.303097
C86	C	1.971935	0.247803	0.196903
H87	H	1.019951	-0.249893	-0.751310
H88	H	1.519951	0.250107	-0.251310
H89	H	1.256115	-0.846254	-0.616062
H90	H	1.756115	-0.346254	-0.116062
H91	H	0.842920	-0.224493	-0.792437
H92	H	1.342920	0.275507	-0.292437
H93	H	1.398897	-0.730640	-0.505411
H94	H	1.898897	-0.230640	-0.005411
H95	H	1.489934	-0.237804	-1.089017
H96	H	1.989934	0.262196	-0.589017
Br97	Br	0.802959	-0.356807	-0.578480
Br98	Br	1.302959	0.143193	-0.078480
Br99	Br	1.236589	-0.759889	-0.828770
Br100	Br	1.736589	-0.259889	-0.328770
H101	H	1.004684	-0.357795	-0.576832
H102	H	1.504684	0.142205	-0.076832
H103	H	1.566362	-0.814081	-0.573937
H104	H	2.066362	-0.314081	-0.073937
Br105	Br	1.641559	-0.718123	-0.774137
Br106	Br	2.141559	-0.218123	-0.274137
Br107	Br	1.455035	-0.869768	-0.918388
Br108	Br	1.955035	-0.369768	-0.418388
Br109	Br	1.317328	-0.375916	-1.305832
Br110	Br	1.817328	0.124084	-0.805832
Br111	Br	1.570464	-0.173369	-1.241435
Br112	Br	2.070464	0.326631	-0.741435
Br113	Br	1.276241	-0.408811	-1.128764
Br114	Br	1.776241	0.091189	-0.628764
