data_functionalizedCrystal
_audit_creation_method	'MofGen! by Chris Wilmer'
_symmetry_space_group_name_H-M	'P1'
_symmetry_Int_Tables_number	1
_symmetry_cell_setting	triclinic
loop_
_symmetry_equiv_pos_as_xyz
  x,y,z
_cell_length_a	19.288864
_cell_length_b	14.519709
_cell_length_c	17.766277
_cell_angle_alpha	89.992699
_cell_angle_beta	89.976791
_cell_angle_gamma	83.408195
loop_
_atom_site_label
_atom_site_type_symbol
_atom_site_fract_x
_atom_site_fract_y
_atom_site_fract_z
O1	O	0.921767	0.115045	-0.062837
O2	O	0.719562	0.130564	-0.062786
O3	O	0.826026	-0.011468	-0.062806
O4	O	0.815304	0.257077	-0.062817
O5	O	0.826007	-0.011475	0.062382
O6	O	0.719544	0.130557	0.062402
O7	O	0.921748	0.115038	0.062351
Cu8	Cu	0.820644	0.122797	0.073808
Cu9	Cu	0.820666	0.122805	-0.074242
O10	O	0.815285	0.257070	0.062371
C11	C	0.693675	0.130061	-0.000185
C12	C	0.616566	0.128562	-0.000165
C13	C	0.572169	0.211900	-0.000181
C14	C	0.499717	0.210492	-0.000189
C15	C	0.471665	0.125741	-0.000197
C16	C	0.516071	0.042392	-0.000178
C17	C	0.588521	0.043803	-0.000162
C18	C	0.363169	0.059120	-0.044079
C19	C	0.290720	0.057713	-0.044099
C20	C	0.248203	0.121387	-0.000242
C21	C	0.278144	0.186483	0.043625
C22	C	0.350594	0.187894	0.043641
C23	C	0.393105	0.124202	-0.000214
C24	C	0.125246	0.203203	-0.000265
C25	C	0.052792	0.201792	-0.000269
C26	C	0.069148	0.033689	-0.000265
C27	C	0.141599	0.035103	-0.000254
C28	C	0.169644	0.119863	-0.000258
C29	C	0.825517	-0.045828	-0.000212
C30	C	0.824019	-0.148200	-0.000211
C31	C	0.818507	-0.523061	-0.000229
C32	C	0.820037	-0.418762	-0.000224
C33	C	0.821263	-0.335633	-0.000219
C34	C	0.822794	-0.231329	-0.000215
C35	C	0.947636	0.115541	-0.000251
C36	C	1.024745	0.117040	-0.000276
C37	C	0.815794	0.291430	-0.000225
C38	C	0.817291	0.393802	-0.000230
N39	N	0.820634	0.122790	0.177938
N40	N	0.820682	0.122805	-0.178373
C41	C	0.867791	0.059929	0.217316
C42	C	0.867795	0.059925	0.296118
C43	C	0.820648	0.122798	0.335538
C44	C	0.773482	0.185664	0.296151
C45	C	0.773475	0.185660	0.217351
C46	C	0.811652	0.206826	0.460375
C47	C	0.811664	0.206831	0.539173
C48	C	0.820667	0.122809	0.578585
C49	C	0.829672	0.038778	0.539188
C50	C	0.829665	0.038775	0.460387
C51	C	0.820651	0.122808	0.420984
C52	C	0.867831	0.059938	0.703409
C53	C	0.867830	0.059932	0.782212
C54	C	0.773521	0.185679	0.782244
C55	C	0.773518	0.185676	0.703442
C56	C	0.820677	0.122807	0.664029
H57	H	0.624670	-0.024063	-0.000150
H58	H	0.594998	0.280918	-0.000185
H59	H	0.735121	0.236867	0.671378
N60	N	0.722665	0.253488	0.824752
H61	H	0.673359	0.243024	0.811064
H62	H	0.729884	0.243913	0.880633
H63	H	0.804336	0.275253	0.571244
N64	N	0.382888	0.258087	0.090964
H65	H	0.435236	0.249313	0.084319
H66	H	0.363928	0.322701	0.074569
N67	N	0.258429	-0.012497	-0.091407
H68	H	0.225098	0.020782	-0.128926
H69	H	0.296398	-0.052609	-0.119130
N70	N	0.918659	-0.007872	0.338608
H71	H	0.910588	-0.073305	0.324913
H72	H	0.967942	0.002669	0.324852
N73	N	0.189483	-0.054788	-0.000241
H74	H	0.180475	-0.091776	-0.046649
H75	H	0.239618	-0.040964	-0.000200
N76	N	0.801942	0.297455	0.417870
H77	H	0.796247	0.350686	0.454782
H78	H	0.844142	0.302691	0.385153
H79	H	0.735073	0.236850	0.185288
N80	N	0.409024	-0.009564	-0.091382
H81	H	0.379065	-0.051009	-0.119178
H82	H	0.435803	0.024961	-0.128838
N83	N	0.038904	-0.057725	-0.000276
H84	H	0.055063	-0.094225	0.046136
H85	H	-0.013725	-0.045899	-0.000315
N86	N	0.839375	-0.051849	0.417893
H87	H	0.845080	-0.105080	0.454812
H88	H	0.797171	-0.057090	0.385223
H89	H	0.463563	0.278358	-0.000199
H90	H	0.735093	0.236854	0.328251
H91	H	0.906189	0.008735	0.185228
H92	H	0.837003	-0.029641	0.571275
H93	H	0.493226	-0.026613	-0.000195
H94	H	0.148080	0.272220	-0.000257
N95	N	0.232298	0.255172	0.090928
H96	H	0.181858	0.244401	0.084266
H97	H	0.245773	0.246796	0.145637
N98	N	0.918690	-0.007869	0.660892
H99	H	0.948562	-0.047699	0.697799
H100	H	0.892049	-0.048550	0.628214
H101	H	0.016645	0.269658	-0.000277
N102	N	0.918707	-0.007856	0.824688
H103	H	0.948585	-0.047673	0.787760
H104	H	0.949446	0.027375	0.857354
