data_functionalizedCrystal
_audit_creation_method	'MofGen! by Chris Wilmer'
_symmetry_space_group_name_H-M	'P1'
_symmetry_Int_Tables_number	1
_symmetry_cell_setting	triclinic
loop_
_symmetry_equiv_pos_as_xyz
  x,y,z
_cell_length_a	8.497374
_cell_length_b	8.497365
_cell_length_c	11.169417
_cell_angle_alpha	89.969268
_cell_angle_beta	89.997658
_cell_angle_gamma	90.037770
loop_
_atom_site_label
_atom_site_type_symbol
_atom_site_fract_x
_atom_site_fract_y
_atom_site_fract_z
Zn1	Zn	0.627607	-0.892031	1.835172
Zn2	Zn	1.127607	-0.392031	2.335172
Zn3	Zn	0.891551	-0.628296	1.835055
Zn4	Zn	1.391551	-0.128296	2.335055
Zn5	Zn	0.627785	-0.628266	1.634419
Zn6	Zn	1.127785	-0.128266	2.134419
Zn7	Zn	0.891345	-0.892036	1.634498
Zn8	Zn	1.391345	-0.392036	2.134498
O9	O	0.759572	-0.760157	1.734786
O10	O	1.259572	-0.260157	2.234786
O11	O	0.662632	-0.857056	2.003106
O12	O	1.162632	-0.357056	2.503106
O13	O	0.856722	-0.407529	1.808358
O14	O	1.356722	0.092471	2.308358
O15	O	0.406999	-0.663240	1.661065
O16	O	0.906999	-0.163240	2.161065
O17	O	0.856550	-0.663291	2.003020
O18	O	1.356550	-0.163291	2.503020
O19	O	0.406869	-0.857027	1.808558
O20	O	0.906869	-0.357027	2.308558
O21	O	0.662934	-0.407507	1.660951
O22	O	1.162934	0.092493	2.160951
O23	O	0.662734	-0.663246	1.466480
O24	O	1.162734	-0.163246	1.966480
O25	O	0.856199	-1.112798	1.661200
O26	O	1.356199	-0.612798	2.161200
O27	O	0.856371	-0.857036	1.466538
O28	O	1.356371	-0.357036	1.966538
O29	O	0.662432	-1.112794	1.808635
O30	O	1.162432	-0.612794	2.308635
O31	O	1.112286	-0.663297	1.808435
O32	O	1.612286	-0.163297	2.308435
O33	O	1.112135	-0.857065	1.661086
O34	O	1.612135	-0.357065	2.161086
C35	C	0.759551	-0.760139	1.422961
C36	C	1.259551	-0.260139	1.922961
C37	C	0.759580	-0.760169	1.289561
C38	C	1.259580	-0.260169	1.789561
C39	C	1.169452	-0.760180	1.734771
C40	C	1.669452	-0.260180	2.234771
C41	C	1.348096	-0.760154	1.734803
C42	C	1.848096	-0.260154	2.234803
C43	C	0.759744	-0.350277	1.734699
C44	C	1.259744	0.149723	2.234699
C45	C	0.759420	-0.171634	1.734870
C46	C	1.259420	0.328366	2.234870
C47	C	0.759594	-0.760176	2.047828
C48	C	1.259594	-0.260176	2.547828
C49	C	0.759604	-0.760184	2.181228
C50	C	1.259604	-0.260184	2.681228
