data_functionalizedCrystal
_audit_creation_method	'MofGen! by Chris Wilmer'
_symmetry_space_group_name_H-M	'P1'
_symmetry_Int_Tables_number	1
_symmetry_cell_setting	triclinic
loop_
_symmetry_equiv_pos_as_xyz
  x,y,z
_cell_length_a	12.837943
_cell_length_b	10.654541
_cell_length_c	11.295483
_cell_angle_alpha	94.135029
_cell_angle_beta	85.461227
_cell_angle_gamma	89.656434
loop_
_atom_site_label
_atom_site_type_symbol
_atom_site_fract_x
_atom_site_fract_y
_atom_site_fract_z
O1	O	1.384727	0.319125	-0.099003
O2	O	1.082806	0.302983	-0.099010
O3	O	1.240709	0.129073	-0.098999
O4	O	1.226824	0.493035	-0.099014
O5	O	1.226840	0.144321	0.099051
O6	O	1.068937	0.318232	0.099040
O7	O	1.370858	0.334373	0.099047
Cu8	Cu	1.218631	0.327695	0.117127
Cu9	Cu	1.235033	0.309662	-0.117090
O10	O	1.212955	0.508284	0.099036
C11	C	1.037211	0.305155	0.000014
C12	C	0.922018	0.288892	0.000012
C13	C	0.682463	0.484397	0.000021
C14	C	0.574227	0.469123	0.000019
C15	C	0.597309	0.243071	0.000016
C16	C	0.705544	0.258345	0.000017
C17	C	0.748117	0.379012	0.000018
C18	C	0.856355	0.394285	0.000011
C19	C	0.879434	0.168234	0.000016
C20	C	0.771198	0.152960	0.000014
C21	C	1.232755	0.089788	0.000025
C22	C	1.229706	-0.049989	0.000023
C23	C	1.418522	-0.057353	0.000043
C24	C	1.511493	-0.126701	0.000055
C25	C	1.508622	-0.258033	0.000051
C26	C	1.412770	-0.320020	0.000031
C27	C	1.319799	-0.250672	0.000019
C28	C	1.322680	-0.119337	0.000027
C29	C	1.130987	-0.243308	-0.000009
C30	C	1.133855	-0.111975	0.000004
C31	C	1.035135	-0.305294	-0.000028
C32	C	0.942161	-0.235946	-0.000032
C33	C	0.945036	-0.104606	-0.000027
C34	C	1.040884	-0.042627	-0.000008
C35	C	1.416452	0.332202	0.000020
C36	C	1.531646	0.348464	0.000015
C37	C	1.220908	0.547569	0.000009
C38	C	1.223958	0.687344	0.000003
N39	N	1.207102	0.340379	0.281862
N40	N	1.246569	0.296969	-0.281825
C41	C	1.329558	0.205592	0.531160
C42	C	1.320854	0.215188	0.655823
C43	C	1.180983	0.369157	0.655854
C44	C	1.189688	0.359562	0.531191
C45	C	1.263979	0.277778	0.468848
C46	C	1.272688	0.268191	0.344183
C47	C	1.132814	0.422153	0.344216
C48	C	1.124109	0.431748	0.468879
H49	H	1.420868	0.049585	0.000062
H50	H	0.932903	0.082421	0.000006
C51	C	1.411276	0.115642	0.462580
H52	H	1.449085	0.074020	0.517547
H53	H	1.458180	0.162311	0.413936
H54	H	1.376969	0.055079	0.413962
C55	C	0.729298	0.617120	0.000011
H56	H	0.674693	0.677698	0.000014
H57	H	0.775878	0.622455	-0.069053
H58	H	0.766203	0.633096	0.069084
C59	C	0.903190	0.527008	0.000012
H60	H	0.977056	0.521014	0.000001
H61	H	0.875875	0.576257	0.069077
H62	H	0.885545	0.565628	-0.069060
C63	C	1.042365	0.521666	0.537456
H64	H	1.004543	0.563267	0.482487
H65	H	1.076634	0.582230	0.586100
H66	H	0.995463	0.474955	0.586075
C67	C	1.409610	-0.464482	0.000006
H68	H	1.339213	-0.491467	-0.000016
H69	H	1.438988	-0.490256	0.069066
H70	H	1.448666	-0.500848	-0.069072
C71	C	0.842766	-0.028333	-0.000040
H72	H	0.785275	-0.084063	-0.000045
H73	H	0.844803	0.017745	-0.069100
H74	H	0.835115	0.028360	0.069037
C75	C	1.616921	-0.058514	0.000081
H76	H	1.605320	0.029635	0.000093
H77	H	1.660087	-0.086861	-0.068976
H78	H	1.650392	-0.076240	0.069161
H79	H	0.736519	0.054717	0.000027
H80	H	1.584328	-0.314497	0.000051
H81	H	1.374254	0.156405	0.706554
C82	C	1.044051	0.101833	-0.000010
H83	H	1.114450	0.128811	-0.000008
H84	H	1.004990	0.138226	0.069044
H85	H	1.014683	0.127581	-0.069093
H86	H	1.032805	-0.412232	-0.000039
C87	C	1.354400	0.178229	0.275608
H88	H	1.392201	0.136603	0.330578
H89	H	1.401312	0.224888	0.226963
H90	H	1.320088	0.117671	0.226990
C91	C	1.099270	0.459105	0.724444
H92	H	1.103484	0.454480	0.807612
H93	H	1.031356	0.435558	0.704030
H94	H	1.112572	0.542783	0.704018
C95	C	1.060685	0.501576	0.275671
H96	H	1.076508	0.484152	0.192496
H97	H	1.071140	0.588385	0.296109
H98	H	0.989910	0.481175	0.296107
H99	H	0.520775	0.554939	0.000025
H100	H	0.562620	0.144837	0.000113
H101	H	0.864127	-0.286427	-0.000055
