data_functionalizedCrystal
_audit_creation_method	'MofGen! by Chris Wilmer'
_symmetry_space_group_name_H-M	'P1'
_symmetry_Int_Tables_number	1
_symmetry_cell_setting	triclinic
loop_
_symmetry_equiv_pos_as_xyz
  x,y,z
_cell_length_a	15.944551
_cell_length_b	14.519709
_cell_length_c	12.996460
_cell_angle_alpha	90.007090
_cell_angle_beta	90.001093
_cell_angle_gamma	83.589442
loop_
_atom_site_label
_atom_site_type_symbol
_atom_site_fract_x
_atom_site_fract_y
_atom_site_fract_z
O1	O	-1.114698	-0.118943	-0.085462
O2	O	-0.781365	0.214390	0.247872
O3	O	-0.448031	0.547723	0.581205
O4	O	-0.870170	-0.133608	-0.085488
O5	O	-0.536836	0.199726	0.247846
O6	O	-0.203503	0.533059	0.581179
O7	O	-0.998917	0.007974	-0.085465
O8	O	-0.665584	0.341308	0.247869
O9	O	-0.332250	0.674641	0.581202
O10	O	-0.985950	-0.260525	-0.085485
O11	O	-0.652617	0.072808	0.247849
O12	O	-0.319284	0.406141	0.581182
O13	O	-0.998904	0.007982	0.085669
O14	O	-0.665570	0.341316	0.419002
O15	O	-0.332237	0.674649	0.752336
O16	O	-0.870156	-0.133600	0.085646
O17	O	-0.536823	0.199734	0.418980
O18	O	-0.203489	0.533067	0.752313
O19	O	-1.114684	-0.118935	0.085672
O20	O	-0.781351	0.214398	0.419005
O21	O	-0.448018	0.547731	0.752339
Cu22	Cu	-0.992419	-0.126267	0.101285
Cu23	Cu	-0.659086	0.207066	0.434618
Cu24	Cu	-0.325752	0.540400	0.767952
Cu25	Cu	-0.992435	-0.126276	-0.101101
Cu26	Cu	-0.659102	0.207057	0.232233
Cu27	Cu	-0.325768	0.540391	0.565566
O28	O	-0.985937	-0.260517	0.085649
O29	O	-0.652604	0.072816	0.418983
O30	O	-0.319270	0.406149	0.752316
C31	C	-0.998306	0.042337	0.000102
C32	C	-0.664973	0.375670	0.333436
C33	C	-0.331639	0.709004	0.666769
C34	C	-0.996495	0.144715	0.000103
C35	C	-0.663162	0.478048	0.333436
C36	C	-0.329828	0.811382	0.666769
C37	C	-0.838868	-0.132995	0.000076
C38	C	-0.505535	0.200339	0.333409
C39	C	-0.172201	0.533672	0.666743
C40	C	-0.745619	-0.131170	0.000066
C41	C	-0.412286	0.202164	0.333400
C42	C	-0.078953	0.535497	0.666733
C43	C	-1.145986	-0.119548	0.000106
C44	C	-0.812653	0.213785	0.333439
C45	C	-0.479319	0.547119	0.666773
C46	C	-1.239235	-0.121373	0.000109
C47	C	-0.905901	0.211960	0.333442
C48	C	-0.572568	0.545293	0.666776
C49	C	-0.530629	-0.039048	0.000093
C50	C	-0.197296	0.294285	0.333427
C51	C	0.136038	0.627618	0.666760
C52	C	-0.469678	-0.081830	-0.084288
C53	C	-0.136344	0.251503	0.249045
C54	C	0.196989	0.584836	0.582379
C55	C	-0.574889	-0.127868	0.000079
C56	C	-0.241555	0.205465	0.333412
C57	C	0.091778	0.538799	0.666746
C58	C	-0.469687	-0.081844	0.084437
C59	C	-0.136353	0.251490	0.417770
C60	C	0.196980	0.584823	0.751103
C61	C	-0.409971	-0.124672	0.000095
C62	C	-0.076638	0.208661	0.333429
C63	C	0.256695	0.541995	0.666762
C64	C	-0.515165	-0.170674	-0.084372
C65	C	-0.181832	0.162659	0.248961
C66	C	0.151501	0.495992	0.582295
C67	C	-0.515181	-0.170675	0.084428
C68	C	-0.181847	0.162658	0.417762
C69	C	0.151486	0.495991	0.751095
C70	C	-0.454247	-0.213522	0.000027
C71	C	-0.120914	0.119812	0.333360
C72	C	0.212420	0.453145	0.666693
C73	C	-0.669894	-0.129706	0.000069
C74	C	-0.336560	0.203627	0.333402
C75	C	-0.003227	0.536960	0.666735
C76	C	-0.314967	-0.122840	0.000098
C77	C	0.018366	0.210493	0.333432
C78	C	0.351699	0.543826	0.666765
C79	C	-0.986548	-0.294880	0.000080
C80	C	-0.653215	0.038453	0.333413
C81	C	-0.319881	0.371787	0.666747
C82	C	-0.988359	-0.397258	0.000073
C83	C	-0.655025	-0.063925	0.333406
C84	C	-0.321692	0.269409	0.666739
N85	N	-0.992414	-0.126260	0.243632
N86	N	-0.659081	0.207074	0.576965
N87	N	-0.325747	0.540407	0.910299
C88	C	-0.989829	0.519599	0.000075
C89	C	-0.656495	0.852933	0.333409
C90	C	-0.323162	1.186266	0.666742
C91	C	-0.991680	0.415295	0.000083
C92	C	-0.658347	0.748628	0.333417
C93	C	-0.325013	1.081961	0.666750
C94	C	-0.993162	0.332161	0.000090
C95	C	-0.659828	0.665494	0.333423
C96	C	-0.326495	0.998827	0.666757
C97	C	-0.995013	0.227849	0.000096
C98	C	-0.661680	0.561183	0.333429
C99	C	-0.328347	0.894516	0.666763
N100	N	-0.992447	-0.126276	-0.243448
N101	N	-0.659113	0.207057	0.089886
N102	N	-0.325780	0.540391	0.423219
C103	C	-0.992434	-0.126277	0.663446
C104	C	-0.659100	0.207056	0.996780
C105	C	-0.325767	0.540390	1.330113
C106	C	-0.992426	-0.126275	0.546641
C107	C	-0.659092	0.207058	0.879975
C108	C	-0.325759	0.540391	1.213308
C109	C	-0.992424	-0.126269	0.453543
C110	C	-0.659091	0.207064	0.786876
C111	C	-0.325758	0.540398	1.120210
C112	C	-0.992415	-0.126266	0.336730
C113	C	-0.659082	0.207067	0.670064
C114	C	-0.325749	0.540401	1.003397
H115	H	-0.449518	-0.044266	-0.155621
H116	H	-0.116185	0.289067	0.177712
H117	H	0.217148	0.622400	0.511046
H118	H	-0.535213	-0.208217	-0.155788
H119	H	-0.201880	0.125117	0.177546
H120	H	0.131454	0.458450	0.510879
H121	H	-0.421196	-0.287311	-0.000026
H122	H	-0.087862	0.046022	0.333307
H123	H	0.245471	0.379356	0.666641
H124	H	-0.535361	-0.208208	0.155765
H125	H	-0.202028	0.125125	0.489098
H126	H	0.131306	0.458459	0.822431
H127	H	-0.563855	0.034665	-0.000006
H128	H	-0.230522	0.367998	0.333328
H129	H	0.102812	0.701332	0.666661
H130	H	-0.449540	-0.044257	0.155772
H131	H	-0.116207	0.289077	0.489105
H132	H	0.217126	0.622410	0.822439
