data_functionalizedCrystal
_audit_creation_method	'MofGen! by Chris Wilmer'
_symmetry_space_group_name_H-M	'P1'
_symmetry_Int_Tables_number	1
_symmetry_cell_setting	triclinic
loop_
_symmetry_equiv_pos_as_xyz
  x,y,z
_cell_length_a	15.944551
_cell_length_b	17.038272
_cell_length_c	14.421503
_cell_angle_alpha	90.004327
_cell_angle_beta	89.996859
_cell_angle_gamma	87.305147
loop_
_atom_site_label
_atom_site_type_symbol
_atom_site_fract_x
_atom_site_fract_y
_atom_site_fract_z
O1	O	1.121728	0.100827	-0.077015
O2	O	0.878066	0.113259	-0.077039
O3	O	0.998449	-0.006773	-0.077020
O4	O	1.001345	0.220859	-0.077034
O5	O	0.998429	-0.006755	0.077204
O6	O	0.878046	0.113277	0.077185
O7	O	1.121708	0.100845	0.077208
Cu8	Cu	0.999875	0.107062	0.091278
Cu9	Cu	0.999899	0.107041	-0.091109
O10	O	1.001325	0.220877	0.077189
C11	C	0.846725	0.112752	0.000070
C12	C	0.753369	0.111205	0.000062
C13	C	0.532936	0.033105	0.000085
C14	C	0.474515	0.069363	-0.075958
C15	C	0.582443	0.108405	0.000073
C16	C	0.474519	0.069398	0.076094
C17	C	0.417337	0.105696	0.000088
C18	C	0.525252	0.144684	-0.076033
C19	C	0.525261	0.144709	0.076088
C20	C	0.466862	0.181022	0.000027
C21	C	0.677557	0.109964	0.000063
C22	C	0.322225	0.104143	0.000090
C23	C	0.995805	-0.035893	0.000092
C24	C	0.987945	-0.122688	0.000091
C25	C	1.060103	-0.172781	0.000098
C26	C	1.052713	-0.254334	0.000089
C27	C	0.973165	-0.285792	0.000078
C28	C	0.901002	-0.235693	0.000068
C29	C	0.908393	-0.154142	0.000071
C30	C	0.947056	-0.531558	0.000063
C31	C	0.939671	-0.613115	0.000063
C32	C	1.091383	-0.631751	0.000083
C33	C	1.098766	-0.550197	0.000091
C34	C	1.026603	-0.500105	0.000075
C35	C	0.965610	-0.369152	0.000071
C36	C	1.034159	-0.416747	0.000076
C37	C	1.153049	0.101352	0.000097
C38	C	1.246405	0.102899	0.000100
C39	C	1.003969	0.249997	0.000076
C40	C	1.011829	0.336792	0.000071
N41	N	0.999865	0.107077	0.219560
N42	N	0.999916	0.107021	-0.219390
C43	C	0.944187	0.162555	0.469205
C44	C	1.021171	0.177734	0.531013
C45	C	0.999884	0.107058	0.408721
C46	C	0.922921	0.091897	0.531006
C47	C	0.999895	0.107042	0.591442
C48	C	1.076908	0.122272	0.469169
C49	C	0.978606	0.036405	0.469156
C50	C	1.055642	0.051554	0.530937
C51	C	0.999876	0.107070	0.303460
C52	C	0.999912	0.107030	0.696701
H53	H	1.124879	-0.147175	0.000113
C54	C	0.813501	-0.270295	0.000059
H55	H	0.819433	-0.326038	0.000068
H56	H	0.783550	-0.253105	-0.053724
H57	H	0.783542	-0.253096	0.053845
H58	H	0.452139	0.037506	-0.140243
C59	C	1.119347	-0.011856	0.567335
H60	H	1.173975	-0.000960	0.546047
H61	H	1.104696	-0.061911	0.545219
H62	H	1.118684	-0.011802	0.633205
H63	H	0.438170	0.243580	-0.000020
C64	C	0.880637	0.226001	0.432574
H65	H	0.895900	0.276165	0.453755
H66	H	0.826102	0.215732	0.454653
H67	H	0.880718	0.225258	0.366706
C68	C	0.852167	-0.647722	0.000051
H69	H	0.858104	-0.703465	0.000064
H70	H	0.822216	-0.630537	-0.053734
H71	H	0.822203	-0.630523	0.053835
H72	H	1.098927	-0.391130	0.000064
H73	H	0.452149	0.037543	0.140380
H74	H	0.561807	-0.029389	-0.000006
C75	C	0.555326	0.187683	-0.162964
H76	H	0.614868	0.188383	-0.162451
H77	H	0.532129	0.240066	-0.163164
H78	H	0.537546	0.161118	-0.216909
C79	C	1.045494	0.258435	0.567733
H80	H	1.005861	0.297816	0.546604
H81	H	1.099788	0.269586	0.545655
H82	H	1.045816	0.257694	0.633600
H83	H	0.960576	-0.023318	0.441965
C84	C	1.164865	0.139691	0.432637
H85	H	1.164316	0.139620	0.366763
H86	H	1.204469	0.100499	0.454266
H87	H	1.180063	0.189717	0.454332
H88	H	0.900842	-0.394774	0.000065
H89	H	1.111472	-0.295117	0.000097
C90	C	0.834989	0.074573	0.567690
H91	H	0.795485	0.114057	0.546540
H92	H	0.835736	0.074212	0.633553
H93	H	0.819492	0.024766	0.545588
C94	C	0.555526	0.187706	0.162932
H95	H	0.538262	0.160881	0.216913
H96	H	0.531961	0.239957	0.163476
H97	H	0.615036	0.188787	0.161995
C98	C	1.170757	-0.686849	0.000090
H99	H	1.219190	-0.656433	0.000102
H100	H	1.171035	-0.719053	-0.053692
H101	H	1.171022	-0.719046	0.053877
H102	H	0.888296	-0.490782	0.000051
C103	C	1.186269	-0.515598	0.000091
H104	H	1.228187	-0.557113	0.000084
H105	H	1.192302	-0.484167	0.053870
H106	H	1.192307	-0.484178	-0.053699
C107	C	0.829020	-0.099040	0.000064
H108	H	0.780585	-0.129454	0.000066
H109	H	0.828758	-0.066842	-0.053716
H110	H	0.828741	-0.066837	0.053853
