data_functionalizedCrystal
_audit_creation_method	'MofGen! by Chris Wilmer'
_symmetry_space_group_name_H-M	'P1'
_symmetry_Int_Tables_number	1
_symmetry_cell_setting	triclinic
loop_
_symmetry_equiv_pos_as_xyz
  x,y,z
_cell_length_a	19.851628
_cell_length_b	14.446369
_cell_length_c	14.446369
_cell_angle_alpha	60.000250
_cell_angle_beta	90.005090
_cell_angle_gamma	59.999397
loop_
_atom_site_label
_atom_site_type_symbol
_atom_site_fract_x
_atom_site_fract_y
_atom_site_fract_z
Zr1	Zr	0.648984	1.013130	-0.121411
O2	O	0.541418	1.206259	-0.269240
O3	O	0.681958	0.820008	-0.076088
O4	O	0.681959	1.013117	-0.269207
O5	O	0.541417	1.013159	0.076208
O6	O	0.792821	1.013099	-0.269189
O7	O	0.541417	1.013150	-0.076120
O8	O	0.792818	0.667663	0.076266
O9	O	0.541419	1.358594	-0.269247
O10	O	0.778756	0.899426	-0.056752
O11	O	0.696021	0.899446	0.056916
O12	O	0.696023	1.126806	-0.170457
O13	O	0.613288	1.126826	-0.056790
Zr14	Zr	0.825795	1.013115	0.121565
Zr15	Zr	0.825796	1.013102	-0.121382
Zr16	Zr	0.648984	1.013144	0.121535
Zr17	Zr	0.648985	1.256088	-0.121423
Zr18	Zr	0.825794	0.770157	0.121576
O19	O	0.792822	1.206237	0.076241
O20	O	0.792822	1.206218	-0.269198
O21	O	0.541418	1.206278	0.076199
O22	O	0.933361	0.819987	0.269393
O23	O	0.933361	0.819968	-0.076046
O24	O	0.681957	0.820027	0.269351
O25	O	0.933362	1.013087	-0.076055
O26	O	0.792820	1.013129	0.269361
O27	O	0.681958	1.013146	0.269342
O28	O	0.933362	1.013095	0.076274
O29	O	0.681961	1.358572	-0.269223
O30	O	0.792818	0.667674	0.269376
O31	O	0.933360	0.667651	0.269400
O32	O	0.933360	0.667640	0.076290
O33	O	0.541419	1.358605	-0.076136
O34	O	0.681961	1.358582	-0.076113
O35	O	0.778756	0.899439	0.170611
O36	O	0.861491	0.899419	0.056943
O37	O	0.778758	1.126799	-0.056762
O38	O	0.696023	1.126819	0.056905
C39	C	0.737388	0.709219	0.000091
C40	C	0.737387	0.606077	0.000095
C41	C	0.685456	0.459080	0.072114
C42	C	0.685174	0.566700	0.071823
C43	C	0.699322	0.655073	-0.123446
C44	C	0.698931	0.547840	-0.123072
C45	C	0.827420	0.372608	0.050555
C46	C	0.827288	0.478759	0.053076
C47	C	0.516225	1.013158	0.000040
C48	C	0.441164	1.013171	0.000027
C49	C	0.214709	1.137119	-0.061932
C50	C	0.192347	1.075142	-0.106847
C51	C	0.303757	1.013137	0.000060
C52	C	0.192378	1.075121	0.044954
C53	C	0.171025	1.013113	0.000091
C54	C	0.282384	0.951159	-0.044918
C55	C	0.282412	0.951156	0.106942
C56	C	0.260104	0.889089	0.062054
C57	C	0.380219	1.013154	0.000039
C58	C	0.094568	1.013086	0.000109
C59	C	0.958554	1.013087	0.000114
C60	C	1.033615	1.013075	0.000126
C61	C	0.737390	1.013106	-0.303813
C62	C	0.737390	1.013100	-0.406950
C63	C	0.737392	1.317026	0.000063
C64	C	0.737392	1.420168	0.000058
C65	C	0.789830	0.869707	-0.481917
C66	C	0.789603	0.869610	-0.374589
C67	C	0.647493	1.084343	-0.481528
C68	C	0.647780	1.083432	-0.588387
C69	C	0.774121	1.086365	-0.589939
C70	C	0.775940	1.083662	-0.481267
C71	C	0.737389	1.013139	0.303966
C72	C	0.737389	1.013145	0.407103
C73	C	0.958552	0.709184	0.000128
C74	C	1.033613	0.606030	0.000145
C75	C	0.737387	0.709236	0.303980
C76	C	0.737387	0.606100	0.407122
C77	C	0.958552	0.709200	0.304017
C78	C	1.033612	0.606052	0.407171
C79	C	0.516227	1.317045	-0.303864
C80	C	0.441167	1.420194	-0.407018
C81	C	0.516227	1.317062	0.000026
C82	C	0.441166	1.420216	0.000009
C83	C	0.737392	1.317009	-0.303827
C84	C	0.737393	1.420146	-0.406969
C85	C	1.025675	0.557591	-0.059205
C86	C	1.096196	0.460680	-0.059211
C87	C	1.174653	0.412203	0.000139
C88	C	1.182589	0.460651	0.059491
C89	C	1.112069	0.557567	0.059490
C90	C	1.112056	0.557602	0.396281
C91	C	1.182590	0.460697	0.493196
C92	C	1.174679	0.412236	0.601001
C93	C	1.096227	0.460696	0.611890
C94	C	1.025695	0.557606	0.514975
C95	C	0.362723	1.468655	-0.396127
C96	C	0.292189	1.565591	-0.493043
C97	C	0.300101	1.614056	-0.600848
C98	C	0.378552	1.565591	-0.611736
C99	C	0.449085	1.468663	-0.514822
C100	C	0.449104	1.468665	0.059348
C101	C	0.378583	1.565602	0.059328
C102	C	0.300126	1.614083	-0.000026
C103	C	0.292190	1.565630	-0.059373
C104	C	0.362710	1.468701	-0.059359
C105	C	0.684953	0.459794	0.482102
C106	C	0.685175	0.566714	0.374769
C107	C	0.827285	0.479232	0.481696
C108	C	0.827003	0.371857	0.588560
C109	C	0.700663	0.546851	0.590117
C110	C	0.698839	0.655321	0.481440
H111	H	0.632683	0.588547	-0.163496
N112	N	1.250708	0.307659	0.000146
H113	H	1.301620	0.284290	0.046750
H114	H	1.250657	0.341467	-0.080262
N115	N	0.719091	0.341373	0.192918
H116	H	0.768321	0.261678	0.202115
H117	H	0.674950	0.326268	0.211454
H118	H	1.246462	0.421251	0.484310
H119	H	0.512981	1.429199	0.107689
N120	N	0.387153	1.617848	0.123342
H121	H	0.447558	1.572412	0.160951
H122	H	0.359771	1.600998	0.182994
N123	N	0.354132	1.416446	-0.123354
H124	H	0.381459	1.319166	-0.068919
H125	H	0.381451	1.433383	-0.183076
H126	H	0.855725	0.439158	0.144090
N127	N	0.744162	0.697891	0.515249
H128	H	0.767612	0.643189	0.600638
H129	H	0.704655	0.793207	0.484954
N130	N	0.881571	0.332163	0.692664
H131	H	0.905706	0.384425	0.668997
H132	H	0.927650	0.235774	0.737129
H133	H	0.242662	1.692980	-0.679752
N134	N	0.533693	1.416370	-0.526569
H135	H	0.564898	1.433212	-0.489007
H136	H	0.527929	1.461800	-0.609590
H137	H	1.118513	0.597044	0.308509
H138	H	0.618767	0.655510	0.036814
H139	H	0.384984	1.605064	-0.699523
N140	N	0.333621	0.881812	-0.095353
H141	H	0.350907	0.788415	-0.048913
H142	H	0.384287	0.882381	-0.095089
N143	N	0.747010	0.693212	-0.197647
H144	H	0.721460	0.724400	-0.276654
H145	H	0.806194	0.614876	-0.164986
H146	H	1.246478	0.421167	0.107811
H147	H	0.618976	0.656073	0.320486
H148	H	0.153577	1.127549	0.082910
H149	H	1.232117	0.333325	0.679906
N150	N	1.087631	0.408418	-0.123212
H151	H	1.114953	0.425286	-0.182940
H152	H	1.027212	0.453848	-0.160725
N153	N	0.612408	0.777355	-0.177369
H154	H	0.597551	0.801206	-0.121980
H155	H	0.572893	0.761042	-0.198435
H156	H	1.118544	0.596993	0.107826
H157	H	0.866298	0.346624	-0.001677
N158	N	0.207565	1.617910	-0.123366
H159	H	0.200933	1.658126	-0.206390
H160	H	0.164157	1.686603	-0.114262
H161	H	0.619441	0.494851	0.037398
N162	N	0.224069	1.718628	-0.000036
H163	H	0.241010	1.741953	0.046568
H164	H	0.190153	1.684837	0.033709
N165	N	0.745799	0.518720	-0.198048
H166	H	0.766617	0.575539	-0.231200
H167	H	0.708003	0.537602	-0.261377
N168	N	0.597040	0.509122	0.478988
H169	H	0.558378	0.602204	0.409796
H170	H	0.590427	0.506196	0.549529
H171	H	0.859223	0.278861	0.140127
N172	N	0.284736	0.750122	0.131493
H173	H	0.262340	0.734706	0.196540
H174	H	0.346886	0.687395	0.162254
N175	N	0.882871	0.507209	-0.009204
H176	H	0.885384	0.573083	-0.004803
H177	H	0.860281	0.543895	-0.091216
N178	N	0.941089	0.609852	0.526730
H179	H	0.946788	0.564437	0.609732
H180	H	0.909949	0.592975	0.489116
N181	N	0.718386	0.341028	0.480723
H182	H	0.767355	0.261685	0.551673
H183	H	0.736081	0.355773	0.411915
H184	H	1.089798	0.421225	0.699677
H185	H	0.153538	1.127538	-0.197224
H186	H	0.710655	0.529241	0.320989
H187	H	0.356266	1.429200	-0.308356
H188	H	0.856409	0.281099	0.588295
N189	N	0.877744	0.795117	-0.478797
H190	H	0.891299	0.715913	-0.475407
H191	H	0.916343	0.765977	-0.409604
H192	H	0.228318	1.605035	-0.484155
H193	H	0.868054	0.501474	0.508933
H194	H	0.856898	0.440667	0.430096
N195	N	0.614303	0.599285	0.595562
H196	H	0.598116	0.541458	0.600006
H197	H	0.574635	0.691259	0.525368
H198	H	0.632610	0.745823	0.430005
N199	N	0.190278	1.275974	-0.131461
H200	H	0.156944	1.322643	-0.212194
H201	H	0.241541	1.274893	-0.130301
N202	N	0.941060	0.609859	-0.123221
H203	H	0.909870	0.707144	-0.182941
H204	H	0.909945	0.592899	-0.068719
N205	N	0.718994	0.518087	0.192319
H206	H	0.734220	0.426394	0.246104
H207	H	0.675747	0.577894	0.209610
N208	N	0.333833	0.881828	0.226617
H209	H	0.300457	0.928768	0.260458
H210	H	0.384768	0.881648	0.225640
N211	N	0.751014	0.514016	0.693729
H212	H	0.727131	0.595755	0.691363
H213	H	0.809914	0.477697	0.694949
H214	H	0.855800	0.813715	-0.320301
N215	N	0.593495	1.224101	-0.517631
H216	H	0.571780	1.285547	-0.603124
H217	H	0.626921	1.242485	-0.485833
H218	H	0.764586	0.813697	-0.480885
H219	H	0.618374	1.032818	-0.588120
N220	N	0.755856	0.795115	-0.303337
H221	H	0.741064	0.762219	-0.341613
H222	H	0.704976	0.854956	-0.294563
H223	H	0.606581	1.188671	-0.666978
N224	N	0.608257	1.018827	-0.413190
H225	H	0.648563	0.943014	-0.333939
H226	H	0.592939	0.985592	-0.450578
H227	H	0.839320	1.040456	-0.594043
N228	N	0.863674	1.014852	-0.413152
H229	H	0.878393	0.938293	-0.334479
H230	H	0.869060	1.078075	-0.407791
H231	H	0.741716	1.188344	-0.506793
H232	H	0.736093	1.192042	-0.668149
