data_functionalizedCrystal
_audit_creation_method	'MofGen! by Chris Wilmer'
_symmetry_space_group_name_H-M	'P1'
_symmetry_Int_Tables_number	1
_symmetry_cell_setting	triclinic
loop_
_symmetry_equiv_pos_as_xyz
  x,y,z
_cell_length_a	11.792241
_cell_length_b	14.472310
_cell_length_c	11.792241
_cell_angle_alpha	90.000647
_cell_angle_beta	95.806584
_cell_angle_gamma	89.989940
loop_
_atom_site_label
_atom_site_type_symbol
_atom_site_fract_x
_atom_site_fract_y
_atom_site_fract_z
O1	O	1.506926	-0.076752	-0.155559
O2	O	1.176585	-0.076773	-0.171592
O3	O	1.349772	-0.076755	0.001595
O4	O	1.333739	-0.076769	-0.328746
O5	O	1.349723	0.076927	0.001583
O6	O	1.176536	0.076909	-0.171604
O7	O	1.506877	0.076930	-0.155571
Cu8	Cu	1.341702	0.090952	-0.163589
Cu9	Cu	1.341760	-0.090795	-0.163574
O10	O	1.333690	0.076913	-0.328758
C11	C	1.134269	0.000065	-0.170591
C12	C	1.008255	0.000057	-0.167576
N13	N	1.341669	0.218783	-0.163598
C14	C	0.777543	0.000084	-0.162034
C15	C	0.905928	0.000069	-0.165113
C16	C	1.341739	0.592874	-0.163579
C17	C	1.248757	0.553699	-0.255933
C18	C	1.248978	0.446611	-0.256272
C19	C	1.341704	0.407283	-0.163589
C20	C	1.460290	0.446127	-0.190184
C21	C	1.459765	0.553248	-0.190843
C22	C	1.317192	0.553407	-0.044360
C23	C	1.314483	0.446279	-0.045136
C24	C	1.341691	0.302395	-0.163592
C25	C	1.341760	0.697762	-0.163579
C26	C	1.549192	0.000090	-0.156572
C27	C	1.675206	0.000092	-0.159587
N28	N	1.341774	0.781374	-0.163570
C29	C	1.348740	0.000085	0.043880
C30	C	1.345726	0.000084	0.169894
C31	C	1.334721	0.000070	-0.371043
C32	C	1.337736	0.000065	-0.497057
C33	C	1.340183	0.000068	0.400606
C34	C	1.343262	0.000077	0.272221
H35	H	1.160854	0.420350	-0.240318
H36	H	1.227246	0.420892	-0.024970
H37	H	1.160348	0.579482	-0.240232
H38	H	1.232555	0.580470	-0.018968
H39	H	1.481286	0.578222	-0.277811
H40	H	1.264295	0.580606	-0.343889
H41	H	1.531156	0.579161	-0.126268
H42	H	1.531166	0.420650	-0.124738
H43	H	1.482307	0.419287	-0.276165
H44	H	1.377754	0.419512	0.026866
H45	H	1.384991	0.578740	0.024375
H46	H	1.264731	0.420974	-0.344726
