data_functionalizedCrystal
_audit_creation_method	'MofGen! by Chris Wilmer'
_symmetry_space_group_name_H-M	'P1'
_symmetry_Int_Tables_number	1
_symmetry_cell_setting	triclinic
loop_
_symmetry_equiv_pos_as_xyz
  x,y,z
_cell_length_a	12.645331
_cell_length_b	19.121063
_cell_length_c	12.645323
_cell_angle_alpha	92.408124
_cell_angle_beta	89.977324
_cell_angle_gamma	92.467980
loop_
_atom_site_label
_atom_site_type_symbol
_atom_site_fract_x
_atom_site_fract_y
_atom_site_fract_z
Zn1	Zn	1.602654	-0.279627	-0.617388
Zn2	Zn	1.594942	-0.397086	-0.447665
Zn3	Zn	1.425367	-0.279651	-0.440134
Zn4	Zn	1.417760	-0.397040	-0.624877
O5	O	1.510181	-0.338351	-0.532516
O6	O	1.749978	-0.295217	-0.594892
O7	O	1.572404	-0.381537	-0.298321
O8	O	1.455295	-0.181363	-0.457361
O9	O	1.744312	-0.381514	-0.470197
O10	O	1.585547	-0.181346	-0.587589
O11	O	1.447818	-0.295258	-0.292788
O12	O	1.276011	-0.295213	-0.464623
O13	O	1.442330	-0.381436	-0.772230
O14	O	1.270422	-0.381459	-0.600353
O15	O	1.578171	-0.295173	-0.766727
O16	O	1.565027	-0.495364	-0.477459
O17	O	1.434852	-0.495330	-0.607656
C18	C	1.234752	-0.338334	-0.532485
C19	C	1.116921	-0.338344	-0.532497
C20	C	1.498306	-0.520831	-0.544210
C21	C	1.493323	-0.598897	-0.549248
C22	C	0.952854	-0.283838	-0.447545
C23	C	1.075405	-0.283979	-0.447195
C24	C	1.067618	-0.412331	-0.506730
C25	C	0.945039	-0.412033	-0.506155
C26	C	0.950986	-0.319567	-0.643576
C27	C	1.073698	-0.317914	-0.642847
C28	C	1.558810	-0.635567	-0.483885
C29	C	1.554130	-0.708918	-0.488629
C30	C	1.483957	-0.745598	-0.558733
C31	C	1.418467	-0.708923	-0.624104
C32	C	1.423154	-0.635573	-0.619364
C33	C	1.466419	-0.967067	-0.576438
C34	C	1.461736	-1.040422	-0.581171
C35	C	1.597400	-1.040412	-0.445697
C36	C	1.602076	-0.967061	-0.440959
C37	C	1.536590	-0.930392	-0.506334
C38	C	1.479169	-0.820575	-0.563582
C39	C	1.541384	-0.855417	-0.501489
C40	C	1.786685	-0.338368	-0.532549
C41	C	1.904514	-0.338375	-0.532563
C42	C	1.510262	-0.338296	-0.809018
C43	C	1.510297	-0.338273	-0.926847
C44	C	1.522130	-0.155158	-0.520800
C45	C	1.527222	-0.077092	-0.515807
C46	C	1.424603	-0.392285	-1.097856
C47	C	1.424801	-0.392553	-0.975313
C48	C	1.620698	-0.358362	-0.972656
C49	C	1.620225	-0.358700	-1.095276
C50	C	1.486666	-0.263871	-1.089271
C51	C	1.484145	-0.264317	-0.966693
C52	C	1.510164	-0.338354	-0.257087
C53	C	1.510347	-0.338179	-0.139246
H54	H	1.109052	-0.229114	-0.462801
H55	H	1.106322	-0.263468	-0.662363
Cl56	Cl	0.899215	-0.436656	-0.381072
Cl57	Cl	1.721752	-0.300460	-1.137365
Cl58	Cl	1.113321	-0.437382	-0.383033
Cl59	Cl	1.298175	-0.373142	-0.927588
H60	H	0.923516	-0.266557	-0.667927
H61	H	1.101976	-0.354739	-0.709195
H62	H	1.607456	-0.738771	-0.435402
H63	H	0.919439	-0.359290	-0.706863
Cl64	Cl	1.358738	-0.240929	-0.920280
Cl65	Cl	1.679726	-1.086514	-0.363524
H66	H	1.342333	-0.379835	-1.126531
Cl67	Cl	1.647026	-0.589462	-0.395743
Cl68	Cl	1.653254	-0.441350	-0.930604
Cl69	Cl	1.364925	-0.235602	-1.135164
H70	H	0.926948	-0.228808	-0.462935
Cl71	Cl	1.690312	-0.920954	-0.352840
Cl72	Cl	1.721659	-0.299445	-0.923897
H73	H	1.439685	-0.447029	-1.132188
H74	H	1.094090	-0.454052	-0.566917
Cl75	Cl	1.448397	-0.477596	-0.935503
Cl76	Cl	1.119375	-0.303168	-0.320032
H77	H	1.404605	-1.070285	-0.638276
Cl78	Cl	1.574123	-0.198786	-0.915229
Cl79	Cl	1.384091	-0.920979	-0.658622
H80	H	1.640858	-0.413021	-1.127372
Cl81	Cl	0.895071	-0.476897	-0.597978
H82	H	1.361335	-0.738794	-0.681188
Cl83	Cl	1.583174	-0.201634	-1.130071
H84	H	1.422032	-0.850448	-0.620658
Cl85	Cl	1.629603	-0.809304	-0.413366
Cl86	Cl	0.903982	-0.302803	-0.321127
Cl87	Cl	1.340827	-0.589474	-0.701542
