data_functionalizedCrystal
_audit_creation_method	'MofGen! by Chris Wilmer'
_symmetry_space_group_name_H-M	'P1'
_symmetry_Int_Tables_number	1
_symmetry_cell_setting	triclinic
loop_
_symmetry_equiv_pos_as_xyz
  x,y,z
_cell_length_a	13.897449
_cell_length_b	18.050589
_cell_length_c	13.897441
_cell_angle_alpha	90.027873
_cell_angle_beta	90.020733
_cell_angle_gamma	90.029500
loop_
_atom_site_label
_atom_site_type_symbol
_atom_site_fract_x
_atom_site_fract_y
_atom_site_fract_z
Zn1	Zn	1.474632	-0.295610	0.545399
Zn2	Zn	1.974632	0.204390	1.045399
Zn3	Zn	1.474496	-0.419815	0.384108
Zn4	Zn	1.974496	0.080185	0.884108
Zn5	Zn	1.313321	-0.295646	0.384118
Zn6	Zn	1.813321	0.204354	0.884118
Zn7	Zn	1.313273	-0.419766	0.545361
Zn8	Zn	1.813273	0.080234	1.045361
O9	O	1.393931	-0.357709	0.464747
O10	O	1.893931	0.142291	0.964747
O11	O	1.609596	-0.312092	0.524016
O12	O	2.109596	0.187908	1.024016
O13	O	1.453079	-0.403379	0.249128
O14	O	1.953079	0.096621	0.749128
O15	O	1.334796	-0.191716	0.405532
O16	O	1.834796	0.308284	0.905532
O17	O	1.609496	-0.403344	0.405516
O18	O	2.109496	0.096656	0.905516
O19	O	1.453311	-0.191690	0.524025
O20	O	1.953311	0.308310	1.024025
O21	O	1.334665	-0.312152	0.249135
O22	O	1.834665	0.187848	0.749135
O23	O	1.178333	-0.312105	0.405495
O24	O	1.678333	0.187895	0.905495
O25	O	1.334715	-0.403261	0.680348
O26	O	1.834715	0.096739	1.180348
O27	O	1.178298	-0.403295	0.523960
O28	O	1.678298	0.096705	1.023960
O29	O	1.453264	-0.312045	0.680376
O30	O	1.953264	0.187955	1.180376
O31	O	1.453033	-0.523733	0.405479
O32	O	1.953033	-0.023733	0.905479
O33	O	1.334583	-0.523697	0.523951
O34	O	1.834583	-0.023697	1.023951
C35	C	1.143316	-0.357699	0.464725
C36	C	1.643316	0.142301	0.964725
C37	C	1.036102	-0.357713	0.464738
C38	C	1.536102	0.142287	0.964738
C39	C	1.393814	-0.550661	0.464731
C40	C	1.893814	-0.050661	0.964731
C41	C	1.393853	-0.633207	0.464756
C42	C	1.893853	-0.133207	0.964756
C43	C	0.839807	-0.357716	0.464763
C44	C	1.339807	0.142284	0.964763
C45	C	0.949040	-0.357712	0.464747
C46	C	1.449040	0.142288	0.964747
C47	C	1.329503	-0.832665	0.529158
C48	C	1.829503	-0.332665	1.029158
C49	C	1.305986	-0.882111	0.441140
C50	C	1.805986	-0.382111	0.941140
C51	C	1.393947	-0.784337	0.464769
C52	C	1.893947	-0.284337	0.964769
C53	C	1.417512	-0.881973	0.552797
C54	C	1.917512	-0.381973	1.052797
C55	C	1.394037	-0.930323	0.464789
C56	C	1.894037	-0.430323	0.964789
C57	C	1.370384	-0.832696	0.376703
C58	C	1.870384	-0.332696	0.876703
C59	C	1.481951	-0.832554	0.488420
C60	C	1.981951	-0.332554	0.988420
C61	C	1.458467	-0.881977	0.400341
C62	C	1.958467	-0.381977	0.900341
C63	C	1.393893	-0.700239	0.464758
C64	C	1.893893	-0.200239	0.964758
C65	C	1.394092	-1.014419	0.464789
C66	C	1.894092	-0.514419	0.964789
C67	C	1.645524	-0.357720	0.464769
C68	C	2.145524	0.142280	0.964769
C69	C	1.752738	-0.357724	0.464779
C70	C	2.252738	0.142276	0.964779
C71	C	1.393999	-0.357644	0.716340
C72	C	1.893999	0.142356	1.216340
C73	C	1.394028	-0.357616	0.823554
C74	C	1.894028	0.142384	1.323554
C75	C	1.394074	-0.164004	0.464784
C76	C	1.894074	0.335996	0.964784
C77	C	1.394135	-0.081458	0.464800
C78	C	1.894135	0.418542	0.964800
C79	C	1.393918	-0.357721	0.214132
C80	C	1.893918	0.142279	0.714132
C81	C	1.394076	-0.357540	0.106919
C82	C	1.894076	0.142460	0.606919
C83	C	1.394055	-0.357565	1.019849
C84	C	1.894055	0.142435	1.519849
C85	C	1.394037	-0.357595	0.910616
C86	C	1.894037	0.142405	1.410616
H87	H	1.231606	-0.903895	0.421153
H88	H	1.731606	-0.403895	0.921153
O89	O	1.441423	-0.907761	0.641569
O90	O	1.941423	-0.407761	1.141569
C91	C	1.560422	-0.910645	0.767662
C92	C	2.060422	-0.410645	1.267662
C93	C	1.533484	-0.881408	0.667110
C94	C	2.033484	-0.381408	1.167110
H95	H	1.634845	-0.889338	0.788351
H96	H	2.134845	-0.389338	1.288351
H97	H	1.560996	-0.973797	0.766675
H98	H	2.060996	-0.473797	1.266675
H99	H	1.505323	-0.890402	0.822431
H100	H	2.005323	-0.390402	1.322431
H101	H	1.588555	-0.901596	0.612284
H102	H	2.088555	-0.401596	1.112284
H103	H	1.532879	-0.818257	0.668176
H104	H	2.032879	-0.318257	1.168176
O105	O	1.523409	-0.907743	0.335260
O106	O	2.023409	-0.407743	0.835260
C107	C	1.549465	-0.980846	0.192510
C108	C	2.049465	-0.480846	0.692510
C109	C	1.475830	-0.951731	0.266162
C110	C	1.975830	-0.451731	0.766162
H111	H	1.511024	-1.016404	0.136615
H112	H	2.011024	-0.516404	0.636615
H113	H	1.606049	-1.015605	0.231068
H114	H	2.106049	-0.515605	0.731068
H115	H	1.585836	-0.932034	0.155283
H116	H	2.085836	-0.432034	0.655283
H117	H	1.439389	-1.000498	0.303412
H118	H	1.939389	-0.500498	0.803412
H119	H	1.419307	-0.916950	0.227551
H120	H	1.919307	-0.416950	0.727551
O121	O	1.346516	-0.806862	0.287943
O122	O	1.846516	-0.306862	0.787943
C123	C	1.319750	-0.699594	0.188339
C124	C	1.819750	-0.199594	0.688339
C125	C	1.346775	-0.728752	0.288905
C126	C	1.846775	-0.228752	0.788905
H127	H	1.319970	-0.636440	0.189078
H128	H	1.819970	-0.136440	0.689078
H129	H	1.244978	-0.720396	0.168038
H130	H	1.744978	-0.220396	0.668038
H131	H	1.374368	-0.720370	0.133424
H132	H	1.874368	-0.220370	0.633424
H133	H	1.292222	-0.707989	0.343887
H134	H	1.792222	-0.207989	0.843887
H135	H	1.421571	-0.707957	0.309125
H136	H	1.921571	-0.207957	0.809125
H137	H	1.274924	-0.811012	0.583534
H138	H	1.774924	-0.311012	1.083534
O139	O	1.570619	-0.806438	0.512250
O140	O	2.070619	-0.306438	1.012250
C141	C	1.670053	-0.698858	0.538175
C142	C	2.170053	-0.198858	1.038175
C143	C	1.569598	-0.728335	0.511140
C144	C	2.069598	-0.228335	1.011140
H145	H	1.669255	-0.635708	0.537307
H146	H	2.169255	-0.135708	1.037307
H147	H	1.725253	-0.719945	0.484047
H148	H	2.225253	-0.219945	0.984047
H149	H	1.690005	-0.719107	0.613261
H150	H	2.190005	-0.219107	1.113261
H151	H	1.549555	-0.708098	0.436077
H152	H	2.049555	-0.208098	0.936077
H153	H	1.514456	-0.707253	0.565331
H154	H	2.014456	-0.207253	1.065331
