data_functionalizedCrystal
_audit_creation_method	'MofGen! by Chris Wilmer'
_symmetry_space_group_name_H-M	'P1'
_symmetry_Int_Tables_number	1
_symmetry_cell_setting	triclinic
loop_
_symmetry_equiv_pos_as_xyz
  x,y,z
_cell_length_a	19.077105
_cell_length_b	19.077068
_cell_length_c	19.076919
_cell_angle_alpha	94.470751
_cell_angle_beta	90.076224
_cell_angle_gamma	90.115316
loop_
_atom_site_label
_atom_site_type_symbol
_atom_site_fract_x
_atom_site_fract_y
_atom_site_fract_z
Zn1	Zn	1.044048	-0.340450	-0.453500
Zn2	Zn	1.544048	0.159550	0.046500
Zn3	Zn	1.043962	-0.453600	-0.340340
Zn4	Zn	1.543962	0.046400	0.159660
Zn5	Zn	0.931660	-0.331023	-0.330931
Zn6	Zn	1.431660	0.168977	0.169069
Zn7	Zn	0.921801	-0.453176	-0.453077
Zn8	Zn	1.421801	0.046824	0.046923
O9	O	0.985368	-0.394562	-0.394462
O10	O	1.485368	0.105438	0.105538
O11	O	1.142196	-0.359583	-0.442604
O12	O	1.642196	0.140417	0.057396
O13	O	1.033154	-0.433572	-0.240616
O14	O	1.533154	0.066428	0.259384
O15	O	0.950731	-0.233799	-0.343429
O16	O	1.450731	0.266201	0.156571
O17	O	1.142133	-0.442714	-0.359466
O18	O	1.642133	0.057286	0.140534
O19	O	1.033302	-0.240725	-0.433479
O20	O	1.533302	0.259275	0.066521
O21	O	0.950647	-0.343516	-0.233703
O22	O	1.450647	0.156484	0.266297
O23	O	0.832193	-0.343104	-0.343019
O24	O	1.332193	0.156896	0.156981
O25	O	0.933928	-0.441990	-0.551609
O26	O	1.433928	0.058010	-0.051609
O27	O	0.824949	-0.432849	-0.432759
O28	O	1.324949	0.067151	0.067241
O29	O	1.023742	-0.359171	-0.551919
O30	O	1.523742	0.140829	-0.051919
O31	O	1.023594	-0.552019	-0.359056
O32	O	1.523594	-0.052019	0.140944
O33	O	0.933844	-0.551707	-0.441883
O34	O	1.433844	-0.051707	0.058117
C35	C	0.803119	-0.386908	-0.386822
C36	C	1.303119	0.113092	0.113178
C37	C	0.725151	-0.383651	-0.383571
C38	C	1.225151	0.116349	0.116429
C39	C	0.684769	-0.428912	-0.428699
C40	C	1.184769	0.071088	0.071301
C41	C	0.611510	-0.425842	-0.425647
C42	C	1.111510	0.074158	0.074353
C43	C	0.578634	-0.377515	-0.377464
C44	C	1.078634	0.122485	0.122536
C45	C	0.619022	-0.332250	-0.332335
C46	C	1.119022	0.167750	0.167665
C47	C	0.692280	-0.335317	-0.335390
C48	C	1.192280	0.164683	0.164610
C49	C	0.359940	-0.363323	-0.363326
C50	C	0.859940	0.136677	0.136674
C51	C	0.286677	-0.360262	-0.360273
C52	C	0.786677	0.139738	0.139727
C53	C	0.279170	-0.453853	-0.453586
C54	C	0.779170	0.046147	0.046414
C55	C	0.352429	-0.456918	-0.456635
C56	C	0.852429	0.043082	0.043365
C57	C	0.392810	-0.411651	-0.411508
C58	C	0.892810	0.088349	0.088492
N59	N	0.503752	-0.374378	-0.374342
N60	N	1.003752	0.125622	0.125658
N61	N	0.467691	-0.414785	-0.414634
N62	N	0.967691	0.085215	0.085366
C63	C	0.977658	-0.577398	-0.401461
C64	C	1.477658	-0.077398	0.098539
C65	C	0.974423	-0.655619	-0.404482
C66	C	1.474423	-0.155619	0.095518
C67	C	1.019665	-0.692509	-0.362816
C68	C	1.519665	-0.192509	0.137184
C69	C	1.016626	-0.766007	-0.365661
C70	C	1.516626	-0.266007	0.134339
C71	C	0.968342	-0.802612	-0.410169
C72	C	1.468342	-0.302612	0.089831
C73	C	0.923098	-0.765717	-0.451839
C74	C	1.423098	-0.265717	0.048161
C75	C	0.926141	-0.692221	-0.448997
C76	C	1.426141	-0.192221	0.051003
C77	C	0.954231	-1.022406	-0.423292
C78	C	1.454231	-0.522406	0.076708
C79	C	0.951190	-1.095907	-0.426130
C80	C	1.451190	-0.595907	0.073870
C81	C	1.044720	-1.096192	-0.339952
C82	C	1.544720	-0.596192	0.160048
C83	C	1.047755	-1.022695	-0.337111
C84	C	1.547755	-0.522695	0.162889
C85	C	1.002514	-0.985806	-0.378784
C86	C	1.502514	-0.485806	0.121216
N87	N	0.965233	-0.877738	-0.413077
N88	N	1.465233	-0.377738	0.086923
N89	N	1.005627	-0.910681	-0.375880
N90	N	1.505627	-0.410681	0.124120
C91	C	1.168328	-0.402247	-0.402132
C92	C	1.668328	0.097753	0.097868
C93	C	1.246295	-0.405522	-0.405400
C94	C	1.746295	0.094478	0.094600
C95	C	0.977745	-0.401585	-0.578012
C96	C	1.477745	0.098415	-0.078012
C97	C	0.974497	-0.404578	-0.656230
C98	C	1.474497	0.095422	-0.156230
C99	C	0.993126	-0.211015	-0.387451
C100	C	1.493126	0.288985	0.112549
C101	C	0.996432	-0.132798	-0.384464
C102	C	1.496432	0.367202	0.115536
C103	C	1.019730	-0.362866	-0.693140
C104	C	1.519730	0.137134	-0.193140
C105	C	1.016669	-0.365675	-0.766634
C106	C	1.516669	0.134325	-0.266634
C107	C	0.968378	-0.410200	-0.803216
C108	C	1.468378	0.089800	-0.303216
C109	C	0.923140	-0.451913	-0.766301
C110	C	1.423140	0.048087	-0.266301
C111	C	0.926198	-0.449100	-0.692809
C112	C	1.426198	0.050900	-0.192809
C113	C	0.954216	-0.423233	-1.022998
C114	C	1.454216	0.076767	-0.522998
C115	C	0.951163	-0.426044	-1.096496
C116	C	1.451163	0.073956	-0.596496
C117	C	1.044691	-0.339805	-1.096823
C118	C	1.544691	0.160195	-0.596823
C119	C	1.047748	-0.337000	-1.023329
C120	C	1.547748	0.163000	-0.523329
C121	C	1.002507	-0.378710	-0.986421
C122	C	1.502507	0.121290	-0.486421
N123	N	0.965250	-0.413073	-0.878339
N124	N	1.465250	0.086927	-0.378339
N125	N	1.005632	-0.375832	-0.911299
N126	N	1.505632	0.124168	-0.411299
C127	C	0.993003	-0.387518	-0.211626
C128	C	1.493003	0.112482	0.288374
C129	C	0.996396	-0.384333	-0.133406
C130	C	1.496396	0.115667	0.366594
H131	H	0.379191	-0.496273	-0.495869
H132	H	0.879191	0.003727	0.004131
O133	O	1.060629	-0.325257	-0.802575
O134	O	1.560629	0.174743	-0.302575
C135	C	1.102481	-0.368847	-0.848514
C136	C	1.602481	0.131153	-0.348514
H137	H	1.075033	-0.421560	-0.860518
H138	H	1.575033	0.078440	-0.360518
H139	H	1.110932	-0.342553	-0.899495
H140	H	1.610932	0.157447	-0.399495
H141	H	1.155321	-0.377674	-0.822678
H142	H	1.655321	0.122326	-0.322678
H143	H	0.711530	-0.468267	-0.467932
H144	H	1.211530	0.031733	0.032068
O145	O	0.731538	-0.291283	-0.291650
O146	O	1.231538	0.208717	0.208350
C147	C	0.774179	-0.249214	-0.331818
C148	C	1.274179	0.250786	0.168182
H149	H	0.749992	-0.246151	-0.386167
H150	H	1.249992	0.253849	0.113833
H151	H	0.778340	-0.194082	-0.304415
H152	H	1.278340	0.305918	0.195585
H153	H	0.828685	-0.273390	-0.337355
H154	H	1.328685	0.226610	0.162645
H155	H	0.246283	-0.490707	-0.490327
H156	H	0.746283	0.009293	0.009673
O157	O	0.910332	-0.463852	-0.987196
O158	O	1.410332	0.036148	-0.487196
C159	C	0.921928	-0.535320	-1.008488
C160	C	1.421928	-0.035320	-0.508488
H161	H	0.976980	-0.542012	-1.031164
H162	H	1.476980	-0.042012	-0.531164
H163	H	0.916404	-0.567983	-0.961233
H164	H	1.416404	-0.067983	-0.461233
H165	H	0.881777	-0.553757	-1.050283
H166	H	1.381777	-0.053757	-0.550283
O167	O	0.876134	-0.495084	-0.801796
O168	O	1.376134	0.004916	-0.301796
C169	C	0.807620	-0.476091	-0.780303
C170	C	1.307620	0.023909	-0.280303
H171	H	0.807295	-0.418951	-0.757808
H172	H	1.307295	0.081049	-0.257808
H173	H	0.770699	-0.482550	-0.827411
H174	H	1.270699	0.017450	-0.327411
H175	H	0.789465	-0.511415	-0.738312
H176	H	1.289465	-0.011415	-0.238312
O177	O	1.094676	-0.293685	-0.987902
O178	O	1.594676	0.206315	-0.487902
C179	C	1.133957	-0.257483	-1.036241
C180	C	1.633957	0.242517	-0.536241
H181	H	1.103150	-0.255843	-1.087330
H182	H	1.603150	0.244157	-0.587330
H183	H	1.144668	-0.201541	-1.013203
H184	H	1.644668	0.298459	-0.513203
H185	H	1.185817	-0.285791	-1.047278
H186	H	1.685817	0.214209	-0.547278
O187	O	0.572387	-0.469888	-0.469506
O188	O	1.072387	0.030112	0.030494
C189	C	0.617113	-0.513194	-0.512693
C190	C	1.117113	-0.013194	-0.012693
H191	H	0.670425	-0.516659	-0.486135
H192	H	1.170425	-0.016659	0.013865
H193	H	0.593307	-0.568051	-0.521336
H194	H	1.093307	-0.068051	-0.021336
H195	H	0.623773	-0.489893	-0.565530
H196	H	1.123773	0.010107	-0.065530
O197	O	1.066661	-0.319554	-0.657714
O198	O	1.566661	0.180446	-0.157714
C199	C	1.105939	-0.283353	-0.706056
C200	C	1.605939	0.216647	-0.206056
H201	H	1.075130	-0.281716	-0.757144
H202	H	1.575130	0.218284	-0.257144
H203	H	1.116648	-0.227410	-0.683020
H204	H	1.616648	0.272590	-0.183020
H205	H	1.157799	-0.311659	-0.717093
H206	H	1.657799	0.188341	-0.217093
O207	O	0.587124	-0.285207	-0.285602
O208	O	1.087124	0.214793	0.214398
C209	C	0.607353	-0.216438	-0.299150
C210	C	1.107353	0.283562	0.200850
H211	H	0.625311	-0.215968	-0.356083
H212	H	1.125311	0.284032	0.143917
H213	H	0.560890	-0.179415	-0.289802
H214	H	1.060890	0.320585	0.210198
H215	H	0.652214	-0.198323	-0.262521
H216	H	1.152214	0.301677	0.237479
O217	O	0.882164	-0.656302	-0.489369
O218	O	1.382164	-0.156302	0.010631
C219	C	0.840300	-0.610422	-0.445732
C220	C	1.340300	-0.110422	0.054268
H221	H	0.867749	-0.598411	-0.393034
H222	H	1.367749	-0.098411	0.106966
H223	H	0.831827	-0.559438	-0.471998
H224	H	1.331827	-0.059438	0.028002
H225	H	0.787471	-0.636315	-0.436877
H226	H	1.287471	-0.136315	0.063123
H227	H	0.917392	-0.992377	-0.457223
H228	H	1.417392	-0.492377	0.042777
H229	H	1.053467	-0.796040	-0.331732
H230	H	1.553467	-0.296040	0.168268
H231	H	0.911836	-0.462303	-1.126280
H232	H	1.411836	0.037697	-0.626280
H233	H	1.058980	-0.662710	-0.326570
H234	H	1.558980	-0.162710	0.173430
O235	O	0.882337	-0.489729	-0.656987
O236	O	1.382337	0.010271	-0.156987
C237	C	0.893949	-0.561194	-0.678279
C238	C	1.393949	-0.061194	-0.178279
H239	H	0.948994	-0.567869	-0.700978
H240	H	1.448994	-0.067869	-0.200978
H241	H	0.888458	-0.593856	-0.631019
H242	H	1.388458	-0.093856	-0.131019
H243	H	0.853786	-0.579648	-0.720056
H244	H	1.353786	-0.079648	-0.220056
O245	O	0.876215	-0.801380	-0.495013
O246	O	1.376215	-0.301380	0.004987
C247	C	0.883239	-0.874162	-0.488600
C248	C	1.383239	-0.374162	0.011400
H249	H	0.908096	-0.883092	-0.435664
H250	H	1.408096	-0.383092	0.064336
H251	H	0.829338	-0.900111	-0.492208
H252	H	1.329338	-0.400111	0.007792
H253	H	0.917963	-0.898134	-0.532740
H254	H	1.417963	-0.398134	-0.032740
O255	O	1.088559	-0.299310	-1.132784
O256	O	1.588559	0.200690	-0.632784
C257	C	1.075520	-0.311350	-1.205496
C258	C	1.575520	0.188650	-0.705496
H259	H	1.019996	-0.332509	-1.214142
H260	H	1.519996	0.167491	-0.714142
H261	H	1.081342	-0.259907	-1.231612
H262	H	1.581342	0.240093	-0.731612
H263	H	1.114677	-0.351368	-1.229530
H264	H	1.614677	0.148632	-0.729530
O265	O	0.254853	-0.313249	-0.313446
O266	O	0.754853	0.186751	0.186554
C267	C	0.306202	-0.273964	-0.274259
C268	C	0.806202	0.226036	0.225741
H269	H	0.357333	-0.274857	-0.305173
H270	H	0.857333	0.225143	0.194827
H271	H	0.287673	-0.217339	-0.263840
H272	H	0.787673	0.282661	0.236160
H273	H	0.315124	-0.297926	-0.222077
H274	H	0.815124	0.202074	0.277923
H275	H	1.087072	-0.992892	-0.300869
H276	H	1.587072	-0.492892	0.199131
H277	H	0.392810	-0.326468	-0.326576
H278	H	0.892810	0.173532	0.173424
H279	H	1.081554	-1.126235	-0.306026
H280	H	1.581554	-0.626235	0.193974
O281	O	0.904360	-1.131445	-0.469473
O282	O	1.404360	-0.631445	0.030527
C283	C	0.917460	-1.116761	-0.539566
C284	C	1.417460	-0.616761	-0.039566
H285	H	0.974183	-1.098993	-0.544727
H286	H	1.474183	-0.598993	-0.044727
H287	H	0.907953	-1.166165	-0.575937
H288	H	1.407953	-0.666165	-0.075937
H289	H	0.880838	-1.073253	-0.554714
H290	H	1.380838	-0.573253	-0.054714
