data_functionalizedCrystal
_audit_creation_method	'MofGen! by Chris Wilmer'
_symmetry_space_group_name_H-M	'P1'
_symmetry_Int_Tables_number	1
_symmetry_cell_setting	triclinic
loop_
_symmetry_equiv_pos_as_xyz
  x,y,z
_cell_length_a	19.121102
_cell_length_b	25.639239
_cell_length_c	25.639233
_cell_angle_alpha	90.018747
_cell_angle_beta	92.451631
_cell_angle_gamma	87.592882
loop_
_atom_site_label
_atom_site_type_symbol
_atom_site_fract_x
_atom_site_fract_y
_atom_site_fract_z
Zn1	Zn	1.073601	-0.242371	0.329671
Zn2	Zn	1.573601	0.257629	0.829671
Zn3	Zn	1.073498	-0.329786	0.242232
Zn4	Zn	1.573498	0.170214	0.742232
Zn5	Zn	0.956164	-0.238634	0.238524
Zn6	Zn	1.456164	0.261366	0.738524
Zn7	Zn	0.956091	-0.326038	0.325912
Zn8	Zn	1.456091	0.173962	0.825912
O9	O	1.014838	-0.284207	0.284085
O10	O	1.514838	0.215793	0.784085
O11	O	1.171870	-0.257099	0.321197
O12	O	1.671870	0.242901	0.821197
O13	O	1.057921	-0.317699	0.168575
O14	O	1.557921	0.182301	0.668575
O15	O	0.971816	-0.165966	0.250636
O16	O	1.471816	0.334034	0.750636
O17	O	1.171794	-0.321323	0.256956
O18	O	1.671794	0.178677	0.756956
O19	O	1.058096	-0.168712	0.317602
O20	O	1.558096	0.331288	0.817602
O21	O	0.971717	-0.250730	0.165850
O22	O	1.471717	0.249270	0.665850
O23	O	0.857872	-0.247096	0.246991
O24	O	1.357872	0.252904	0.746991
O25	O	0.971691	-0.314935	0.399576
O26	O	1.471691	0.185065	0.899576
O27	O	0.857817	-0.311311	0.311194
O28	O	1.357817	0.188689	0.811194
O29	O	1.058025	-0.253465	0.402338
O30	O	1.558025	0.246535	0.902338
O31	O	1.057850	-0.402452	0.253311
O32	O	1.557850	0.097548	0.753311
O33	O	0.971591	-0.399698	0.314790
O34	O	1.471591	0.100302	0.814790
C35	C	0.832361	-0.278392	0.278282
C36	C	1.332361	0.221608	0.778282
C37	C	0.754296	-0.275916	0.275813
C38	C	1.254296	0.224084	0.775813
C39	C	0.717611	-0.308238	0.308027
C40	C	1.217611	0.191762	0.808027
C41	C	0.644261	-0.305905	0.305709
C42	C	1.144261	0.194095	0.805709
C43	C	0.607597	-0.271253	0.271173
C44	C	1.107597	0.228747	0.771173
C45	C	0.644287	-0.238929	0.238958
C46	C	1.144287	0.261071	0.738958
C47	C	0.717636	-0.241259	0.241279
C48	C	1.217636	0.258741	0.741279
C49	C	0.386132	-0.262539	0.262498
C50	C	0.886132	0.237461	0.762498
C51	C	0.312778	-0.260212	0.260178
C52	C	0.812778	0.239788	0.760178
C53	C	0.312757	-0.327189	0.326930
C54	C	0.812757	0.172811	0.826930
C55	C	0.386107	-0.329518	0.329246
C56	C	0.886107	0.170482	0.829246
C57	C	0.422791	-0.297191	0.297032
C58	C	0.922791	0.202809	0.797032
C59	C	0.532622	-0.268869	0.268802
C60	C	1.032622	0.231131	0.768802
C61	C	0.497765	-0.299573	0.299407
C62	C	0.997765	0.200427	0.799407
C63	C	1.014720	-0.420046	0.284057
C64	C	1.514720	0.079954	0.784057
C65	C	1.014734	-0.478160	0.284065
C66	C	1.514734	0.021840	0.784065
C67	C	1.059870	-0.839952	0.252133
C68	C	1.559870	-0.339952	0.752133
C69	C	1.059898	-0.894557	0.252141
C70	C	1.559898	-0.394557	0.752141
O71	O	1.098152	-0.924004	0.224962
O72	O	1.598152	-0.424004	0.724962
N73	N	1.014962	-0.920450	0.284123
N74	N	1.514962	-0.420450	0.784123
C75	C	0.970001	-0.891735	0.316104
C76	C	1.470001	-0.391735	0.816104
O77	O	0.931782	-0.918774	0.343308
O78	O	1.431782	-0.418774	0.843308
C79	C	0.969978	-0.837131	0.316098
C80	C	1.469978	-0.337131	0.816098
C81	C	1.014911	-0.811241	0.284110
C82	C	1.514911	-0.311241	0.784110
C83	C	1.104801	-0.814061	0.220148
C84	C	1.604801	-0.314061	0.720148
C85	C	1.104773	-0.759460	0.220140
C86	C	1.604773	-0.259460	0.720140
C87	C	1.059814	-0.730749	0.252116
C88	C	1.559814	-0.230749	0.752116
C89	C	1.014883	-0.756639	0.284101
C90	C	1.514883	-0.256639	0.784101
C91	C	0.925021	-0.808418	0.348081
C92	C	1.425021	-0.308418	0.848081
C93	C	0.925002	-0.753810	0.348073
C94	C	1.425002	-0.253810	0.848073
C95	C	0.969936	-0.727920	0.316085
C96	C	1.469936	-0.227920	0.816085
C97	C	0.969896	-0.673327	0.316070
C98	C	1.469896	-0.173327	0.816070
N99	N	1.014832	-0.647434	0.284088
N100	N	1.514832	-0.147434	0.784088
C101	C	1.059791	-0.676145	0.252111
C102	C	1.559791	-0.176145	0.752111
C103	C	0.970054	-1.006408	0.316113
C104	C	1.470054	-0.506408	0.816113
C105	C	0.970073	-1.061011	0.316116
C106	C	1.470073	-0.561011	0.816116
C107	C	1.059971	-1.063828	0.252155
C108	C	1.559971	-0.563828	0.752155
C109	C	1.059948	-1.009224	0.252149
C110	C	1.559948	-0.509224	0.752149
C111	C	1.014990	-0.980515	0.284131
C112	C	1.514990	-0.480515	0.784131
C113	C	1.059727	-0.561478	0.252095
C114	C	1.559727	-0.061478	0.752095
C115	C	1.059693	-0.506871	0.252088
C116	C	1.559693	-0.006871	0.752088
C117	C	0.969798	-0.504058	0.316052
C118	C	1.469798	-0.004058	0.816052
C119	C	0.969829	-0.558660	0.316057
C120	C	1.469829	-0.058660	0.816057
C121	C	1.014800	-0.587369	0.284077
C122	C	1.514800	-0.087369	0.784077
O123	O	0.931663	-0.643846	0.343237
O124	O	1.431663	-0.143846	0.843237
O125	O	1.098009	-0.649100	0.224916
O126	O	1.598009	-0.149100	0.724916
C127	C	1.198028	-0.290046	0.289910
C128	C	1.698028	0.209954	0.789910
C129	C	1.276093	-0.292534	0.292392
C130	C	1.776093	0.207466	0.792392
C131	C	1.014861	-0.284199	0.420458
C132	C	1.514861	0.215801	0.920458
C133	C	1.014871	-0.284195	0.478573
C134	C	1.514871	0.215805	0.978573
C135	C	1.014976	-0.147839	0.284125
C136	C	1.514976	0.352161	0.784125
C137	C	1.015035	-0.089726	0.284142
C138	C	1.515035	0.410274	0.784142
C139	C	1.014856	-0.284179	0.148243
C140	C	1.514856	0.215821	0.648243
C141	C	1.014983	-0.284040	0.090133
C142	C	1.514983	0.215960	0.590133
C143	C	1.059882	-0.252090	0.840382
C144	C	1.559882	0.247910	1.340382
C145	C	1.059891	-0.252076	0.894986
C146	C	1.559891	0.247924	1.394986
O147	O	1.098104	-0.224839	0.924450
O148	O	1.598104	0.275161	1.424450
N149	N	1.014948	-0.284075	0.920858
N150	N	1.514948	0.215925	1.420858
C151	C	0.969989	-0.316087	0.892122
C152	C	1.469989	0.183913	1.392122
O153	O	0.931762	-0.343303	0.919142
O154	O	1.431762	0.156697	1.419142
C155	C	0.969977	-0.316098	0.837518
C156	C	1.469977	0.183902	1.337518
C157	C	1.014928	-0.284100	0.811650
C158	C	1.514928	0.215900	1.311650
C159	C	1.104828	-0.220095	0.814513
C160	C	1.604828	0.279905	1.314513
C161	C	1.104820	-0.220110	0.759912
C162	C	1.604820	0.279890	1.259912
C163	C	1.059866	-0.252120	0.731180
C164	C	1.559866	0.247880	1.231180
C165	C	1.014920	-0.284115	0.757049
C166	C	1.514920	0.215885	1.257049
C167	C	0.925015	-0.348106	0.808783
C168	C	1.425015	0.151894	1.308783
C169	C	0.925007	-0.348114	0.754176
C170	C	1.425007	0.151886	1.254176
C171	C	0.969957	-0.316117	0.728307
C172	C	1.469957	0.183883	1.228307
C173	C	0.969958	-0.316141	0.673716
C174	C	1.469958	0.183859	1.173716
N175	N	1.014900	-0.284141	0.647844
N176	N	1.514900	0.215859	1.147844
C177	C	1.059854	-0.252131	0.676576
C178	C	1.559854	0.247869	1.176576
C179	C	0.970016	-0.316060	1.006793
C180	C	1.470016	0.183940	1.506793
C181	C	0.970031	-0.316052	1.061396
C182	C	1.470031	0.183948	1.561396
C183	C	1.059932	-0.252041	1.064257
C184	C	1.559932	0.247959	1.564257
C185	C	1.059920	-0.252052	1.009653
C186	C	1.559920	0.247948	1.509653
C187	C	1.014959	-0.284061	0.980922
C188	C	1.514959	0.215939	1.480922
C189	C	1.059835	-0.252165	0.561911
C190	C	1.559835	0.247835	1.061911
C191	C	1.059825	-0.252185	0.507305
C192	C	1.559825	0.247815	1.007305
C193	C	0.969922	-0.316194	0.504449
C194	C	1.469922	0.183806	1.004449
C195	C	0.969934	-0.316177	0.559050
C196	C	1.469934	0.183823	1.059050
C197	C	1.014893	-0.284158	0.587780
C198	C	1.514893	0.215842	1.087780
O199	O	0.931762	-0.343362	0.644218
O200	O	1.431762	0.156638	1.144218
O201	O	1.098068	-0.224915	0.649549
O202	O	1.598068	0.275085	1.149549
H203	H	0.282881	-0.353506	0.353157
H204	H	0.782881	0.146494	0.853157
H205	H	0.614430	-0.210712	0.210840
H206	H	1.114430	0.289288	0.710840
H207	H	0.933438	-0.983034	0.342155
H208	H	1.433438	-0.483034	0.842155
H209	H	0.282928	-0.231989	0.232058
H210	H	0.782928	0.268011	0.732058
N211	N	0.876565	-0.836332	0.382591
N212	N	1.376565	-0.336332	0.882591
H213	H	0.883395	-0.875282	0.377750
H214	H	1.383395	-0.375282	0.877750
H215	H	0.826407	-0.825232	0.372833
H216	H	1.326407	-0.325232	0.872833
H217	H	1.096431	-0.226128	0.486245
H218	H	1.596431	0.273872	0.986245
N219	N	0.425692	-0.227666	0.227763
N220	N	0.925692	0.272334	0.727763
H221	H	0.391334	-0.205361	0.205535
H222	H	0.891334	0.294639	0.705535
H223	H	0.456105	-0.249868	0.204487
H224	H	0.956105	0.250132	0.704487
N225	N	0.876512	-0.722845	0.382570
N226	N	1.376512	-0.222845	0.882570
H227	H	0.848054	-0.747536	0.402832
H228	H	1.348054	-0.247536	0.902832
H229	H	0.844015	-0.699191	0.360234
H230	H	1.344015	-0.199191	0.860234
H231	H	0.747504	-0.214937	0.215049
H232	H	1.247504	0.285063	0.715049
H233	H	0.747458	-0.336457	0.336148
H234	H	1.247458	0.163543	0.836148
N235	N	0.921438	-0.350684	0.586943
N236	N	1.421438	0.149316	1.086943
H237	H	0.888914	-0.328386	0.608556
H238	H	1.388914	0.171614	1.108556
H239	H	0.949987	-0.375818	0.610482
H240	H	1.449987	0.124182	1.110482
H241	H	1.141416	-0.837432	0.194109
H242	H	1.641416	-0.337432	0.694109
N243	N	0.921359	-0.586589	0.350551
N244	N	1.421359	-0.086589	0.850551
H245	H	0.892872	-0.560112	0.370805
H246	H	1.392872	-0.060112	0.870805
H247	H	0.949939	-0.610117	0.375678
H248	H	1.449939	-0.110117	0.875678
H249	H	0.933191	-0.480674	0.342085
H250	H	1.433191	0.019326	0.842085
H251	H	0.614396	-0.332225	0.331941
H252	H	1.114396	0.167775	0.831941
N253	N	1.153249	-0.731539	0.185647
N254	N	1.653249	-0.231539	0.685647
H255	H	1.142388	-0.740723	0.147938
H256	H	1.642388	-0.240723	0.647938
H257	H	1.203403	-0.742616	0.195448
H258	H	1.703403	-0.242616	0.695448
H259	H	0.415954	-0.357736	0.357367
H260	H	0.915954	0.142264	0.857367
H261	H	1.096581	-1.087215	0.226119
H262	H	1.596581	-0.587215	0.726119
N263	N	0.537302	-0.336949	0.336654
N264	N	1.037302	0.163051	0.836654
H265	H	0.567765	-0.316707	0.361886
H266	H	1.067765	0.183293	0.861886
H267	H	0.567664	-0.362101	0.316281
H268	H	1.067664	0.137899	0.816281
H269	H	1.096442	-0.226091	0.585296
H270	H	1.596442	0.273909	1.085296
H271	H	1.141422	-0.194053	0.738855
H272	H	1.641422	0.305947	1.238855
N273	N	0.921597	-1.088932	0.350608
N274	N	1.421597	-0.588932	0.850608
H275	H	0.893113	-1.062453	0.370861
H276	H	1.393113	-0.562453	0.870861
H277	H	0.950169	-1.112464	0.375736
H278	H	1.450169	-0.612464	0.875736
H279	H	1.141435	-0.194025	0.837901
H280	H	1.641435	0.305975	1.337901
N281	N	0.876532	-0.382617	0.836675
N282	N	1.376532	0.117383	1.336675
H283	H	0.848053	-0.402891	0.810180
H284	H	1.348053	0.097109	1.310180
H285	H	0.844053	-0.360293	0.858298
H286	H	1.344053	0.139707	1.358298
N287	N	1.108405	-0.217509	1.095259
N288	N	1.608405	0.282491	1.595259
H289	H	1.097527	-0.179808	1.085415
H290	H	1.597527	0.320192	1.585415
H291	H	1.158563	-0.227266	1.087347
H292	H	1.658563	0.272734	1.587347
N293	N	1.108401	-0.217541	0.981754
N294	N	1.608401	0.282459	1.481754
H295	H	1.136880	-0.197264	1.008246
H296	H	1.636880	0.302736	1.508246
H297	H	1.079835	-0.192437	0.958195
H298	H	1.579835	0.307563	1.458195
H299	H	0.933435	-0.342114	1.082454
H300	H	1.433435	0.157886	1.582454
H301	H	1.096537	-0.988148	0.226102
H302	H	1.596537	-0.488148	0.726102
N303	N	0.921515	-0.350583	0.975806
N304	N	1.421515	0.149417	1.475806
H305	H	0.893047	-0.370849	1.000485
H306	H	1.393047	0.129151	1.500485
H307	H	0.950064	-0.375698	0.954052
H308	H	1.450064	0.124302	1.454052
H309	H	1.096348	-0.584846	0.226056
H310	H	1.596348	-0.084846	0.726056
H311	H	0.888386	-0.374175	0.730785
H312	H	1.388386	0.125825	1.230785
H313	H	0.502762	-0.240657	0.240682
H314	H	1.002762	0.259343	0.740682
H315	H	1.096283	-0.485793	0.226038
H316	H	1.596283	0.014207	0.726038
N317	N	0.921439	-0.350720	0.473454
N318	N	1.421439	0.149280	0.973454
H319	H	0.928256	-0.345869	0.434939
H320	H	1.428256	0.154131	0.934939
H321	H	0.871289	-0.340979	0.481403
H322	H	1.371289	0.159021	0.981403
