data_functionalizedCrystal
_audit_creation_method	'MofGen! by Chris Wilmer'
_symmetry_space_group_name_H-M	'P1'
_symmetry_Int_Tables_number	1
_symmetry_cell_setting	triclinic
loop_
_symmetry_equiv_pos_as_xyz
  x,y,z
_cell_length_a	12.759399
_cell_length_b	12.759401
_cell_length_c	12.759393
_cell_angle_alpha	90.018205
_cell_angle_beta	89.969751
_cell_angle_gamma	89.986284
loop_
_atom_site_label
_atom_site_type_symbol
_atom_site_fract_x
_atom_site_fract_y
_atom_site_fract_z
Zn1	Zn	-0.418261	-1.606236	-0.594016
Zn2	Zn	-0.593980	-1.606130	-0.418340
Zn3	Zn	-0.418309	-1.430541	-0.418352
Zn4	Zn	-0.593892	-1.430523	-0.593979
O5	O	-0.506111	-1.518358	-0.506172
O6	O	-0.441587	-1.753243	-0.570722
O7	O	-0.570734	-1.582801	-0.271321
O8	O	-0.271282	-1.453899	-0.441675
O9	O	-0.570687	-1.753165	-0.441654
O10	O	-0.271246	-1.582981	-0.570734
O11	O	-0.441670	-1.453797	-0.271330
O12	O	-0.441584	-1.283518	-0.441640
O13	O	-0.570537	-1.453868	-0.741005
O14	O	-0.570584	-1.283504	-0.570672
O15	O	-0.441501	-1.582964	-0.741032
O16	O	-0.740989	-1.582784	-0.441619
O17	O	-0.740925	-1.453766	-0.570660
C18	C	-0.506080	-1.245390	-0.506154
C19	C	-0.506093	-1.128614	-0.506171
C20	C	-0.573368	-1.073772	-0.573246
C21	C	-0.573377	-0.964048	-0.573256
C22	C	-0.438833	-0.964017	-0.439106
C23	C	-0.438819	-1.073739	-0.439103
C24	C	-0.640642	-1.128647	-0.640314
C25	C	-0.707924	-1.073805	-0.707394
C26	C	-0.707933	-0.964081	-0.707404
C27	C	-0.640660	-0.909199	-0.640334
C28	C	-0.779078	-1.518290	-0.506157
C29	C	-0.895855	-1.518357	-0.506186
C30	C	-0.950818	-1.451238	-0.438951
C31	C	-1.060542	-1.451309	-0.438968
C32	C	-1.060329	-1.585622	-0.573464
C33	C	-0.950607	-1.585555	-0.573441
C34	C	-0.896066	-1.384040	-0.371697
C35	C	-0.951029	-1.316914	-0.304457
C36	C	-1.060753	-1.316985	-0.304474
C37	C	-1.115514	-1.384182	-0.371730
C38	C	-0.232077	-1.518454	-0.506210
C39	C	-0.115301	-1.518495	-0.506226
C40	C	-0.506004	-1.518426	-0.780205
C41	C	-0.505958	-1.518455	-0.896982
C42	C	-0.506132	-0.792391	-0.506187
C43	C	-0.506115	-0.909167	-0.506184
C44	C	-0.438742	-1.451311	-0.951855
C45	C	-0.438710	-1.451342	-1.061579
C46	C	-0.573115	-1.585672	-1.061548
C47	C	-0.573150	-1.585634	-0.951826
C48	C	-0.371549	-1.384132	-0.897011
C49	C	-0.304327	-1.316983	-0.951884
C50	C	-0.304295	-1.317015	-1.061608
C51	C	-0.371487	-1.384195	-1.116459
C52	C	-0.506141	-1.518350	-0.233205
C53	C	-0.505891	-1.518524	-0.116428
H54	H	-0.640664	-0.819854	-0.640356
H55	H	-1.204858	-1.384242	-0.371732
H56	H	-0.627816	-1.640369	-1.106217
H57	H	-0.371458	-1.384213	-1.205804
H58	H	-0.249566	-1.262332	-1.106282
C59	C	-0.371586	-1.384097	-0.776319
H60	H	-0.421237	-1.433712	-0.751493
H61	H	-0.389744	-1.316284	-0.751488
H62	H	-0.303794	-1.402296	-0.751517
H63	H	-0.249628	-1.262281	-0.907217
H64	H	-0.627870	-1.640323	-0.907147
H65	H	-0.384063	-0.919323	-0.384500
C66	C	-0.775374	-1.383959	-0.371683
H67	H	-0.750480	-1.433552	-0.421364
H68	H	-0.750574	-1.402139	-0.303897
H69	H	-0.750607	-1.316130	-0.389803
C70	C	-0.640630	-1.249339	-0.640312
H71	H	-0.690323	-1.274168	-0.689866
H72	H	-0.658707	-1.274135	-0.572480
H73	H	-0.572847	-1.274173	-0.658608
H74	H	-1.104924	-1.640329	-0.628221
C75	C	-0.781921	-1.134171	-0.781161
H76	H	-0.772290	-1.207372	-0.771542
H77	H	-0.766638	-1.116223	-0.851782
H78	H	-0.852496	-1.116168	-0.765652
H79	H	-0.762710	-0.919432	-0.762031
H80	H	-0.384030	-1.118392	-0.384492
C81	C	-0.890803	-1.243005	-0.230477
H82	H	-0.939255	-1.203048	-0.190430
H83	H	-0.848013	-1.197179	-0.270620
H84	H	-0.847998	-1.283197	-0.184723
C85	C	-1.121211	-1.243154	-0.230515
H86	H	-1.072885	-1.203121	-0.190466
H87	H	-1.164013	-1.283389	-0.184777
H88	H	-1.164022	-1.197380	-0.270683
C89	C	-0.890143	-1.659359	-0.647422
H90	H	-0.938465	-1.699372	-0.687498
H91	H	-0.847318	-1.705137	-0.607284
H92	H	-0.847354	-1.619089	-0.693151
