data_functionalizedCrystal
_audit_creation_method	'MofGen! by Chris Wilmer'
_symmetry_space_group_name_H-M	'P1'
_symmetry_Int_Tables_number	1
_symmetry_cell_setting	triclinic
loop_
_symmetry_equiv_pos_as_xyz
  x,y,z
_cell_length_a	6.817900
_cell_length_b	12.840964
_cell_length_c	10.773893
_cell_angle_alpha	82.067724
_cell_angle_beta	82.583307
_cell_angle_gamma	88.344333
loop_
_atom_site_label
_atom_site_type_symbol
_atom_site_fract_x
_atom_site_fract_y
_atom_site_fract_z
V1	V	-3.865452	0.282195	0.175493
O2	O	-3.889320	0.320351	-0.005436
O3	O	-3.786060	0.238400	0.345090
O4	O	-3.761303	0.424369	0.174109
O5	O	-3.914249	0.133095	0.166729
V6	V	-4.360319	0.269447	0.153696
O7	O	-4.101825	0.310158	0.223305
O8	O	-4.574143	0.241483	0.105884
O9	O	-4.216504	0.313241	-0.015901
O10	O	-4.453848	0.231290	0.334625
O11	O	-4.428919	0.418546	0.162460
O12	O	-4.241261	0.127272	0.155081
C13	C	-3.625326	0.223146	0.386393
C14	C	-3.641329	0.188287	0.525050
C15	C	-3.589608	0.578495	0.168302
C16	C	-3.593742	0.460363	0.168300
C17	C	-3.649827	0.080965	0.571502
C18	C	-3.664894	0.048197	0.701782
C19	C	-3.671447	0.122753	0.785608
C20	C	-3.662954	0.230084	0.739149
C21	C	-3.647902	0.262851	0.608871
C22	C	-4.072149	0.091269	0.160903
C23	C	-4.055151	-0.026864	0.160912
V24	V	-3.848390	0.768354	0.175512
O25	O	-3.886575	0.921710	0.166751
O26	O	-3.754382	0.621509	0.174125
O27	O	-3.767461	0.768167	0.345108
O28	O	-3.873405	0.774037	-0.005416
V29	V	-4.341311	0.811145	0.153724
O30	O	-4.086699	0.741102	0.223328
O31	O	-4.552404	0.861083	0.105916
O32	O	-4.212507	0.946742	0.155108
O33	O	-4.420315	0.663704	0.162487
O34	O	-4.433486	0.811377	0.334654
O35	O	-4.199427	0.800084	-0.015875
C36	C	-4.040581	0.328491	-0.057198
C37	C	-4.003812	0.363356	-0.195853
C38	C	-3.606279	0.765574	0.386402
C39	C	-3.620949	0.768563	0.525056
C40	C	-4.024545	0.785711	-0.057181
C41	C	-3.989151	0.781686	-0.195839
C42	C	-3.797457	0.773579	0.592956
C43	C	-3.812623	0.776669	0.736264
C44	C	-4.162409	0.376088	-0.267373
C45	C	-4.127886	0.408832	-0.397659
C46	C	-3.934766	0.428851	-0.456420
C47	C	-3.776157	0.416114	-0.384890
C48	C	-3.810680	0.383363	-0.254609
H49	H	-3.671801	-0.039202	0.739588
O50	O	-3.656797	0.371105	-0.184977
C51	C	-3.683777	0.438810	-0.091527
H52	H	-3.847496	0.459541	-0.071629
H53	H	-3.629651	0.397897	-0.001202
H54	H	-3.596004	0.513739	-0.126180
O55	O	-3.685970	0.090733	0.912119
C56	C	-3.692107	-0.019983	0.935130
H57	H	-3.621876	-0.053850	0.847243
H58	H	-3.606959	-0.049377	1.017738
H59	H	-3.852443	-0.046249	0.959017
O60	O	-3.901028	0.460809	-0.582939
C61	C	-3.810651	0.560170	-0.605228
H62	H	-3.733692	0.572229	-0.520517
H63	H	-3.697169	0.564447	-0.693248
H64	H	-3.928005	0.624181	-0.619943
O65	O	-3.645783	0.774087	0.793560
C66	C	-3.648522	0.685026	0.886316
H67	H	-3.749468	0.623141	0.863004
H68	H	-3.492282	0.651261	0.888221
H69	H	-3.706026	0.708656	0.982727
H70	H	-3.668295	0.290780	0.807419
H71	H	-3.644483	0.020243	0.503264
H72	H	-3.481062	0.766560	0.573018
H73	H	-3.640975	0.350243	0.571062
H74	H	-3.937344	0.775594	0.544993
O75	O	-4.156018	0.783894	0.746943
C76	C	-4.163855	0.692038	0.689668
H77	H	-4.070290	0.627452	0.737779
H78	H	-4.323643	0.665063	0.699682
H79	H	-4.103972	0.709321	0.585232
O80	O	-4.350013	0.356476	-0.210404
C81	C	-4.430982	0.275873	-0.263895
H82	H	-4.306297	0.226619	-0.308358
H83	H	-4.527572	0.223674	-0.187078
H84	H	-4.524549	0.312146	-0.339501
O85	O	-4.281871	0.421047	-0.467215
C86	C	-4.254880	0.353384	-0.560710
H87	H	-4.153219	0.285181	-0.530230
H88	H	-4.404148	0.321541	-0.573773
H89	H	-4.185450	0.398714	-0.653729
O90	O	-3.588507	0.435670	-0.441807
C91	C	-3.507551	0.516312	-0.388377
H92	H	-3.588462	0.520295	-0.289681
H93	H	-3.343892	0.499104	-0.382083
H94	H	-3.524833	0.594746	-0.450161
