data_functionalizedCrystal
_audit_creation_method	'MofGen! by Chris Wilmer'
_symmetry_space_group_name_H-M	'P1'
_symmetry_Int_Tables_number	1
_symmetry_cell_setting	triclinic
loop_
_symmetry_equiv_pos_as_xyz
  x,y,z
_cell_length_a	11.792241
_cell_length_b	15.944551
_cell_length_c	10.268362
_cell_angle_alpha	89.993764
_cell_angle_beta	89.999626
_cell_angle_gamma	83.846077
loop_
_atom_site_label
_atom_site_type_symbol
_atom_site_fract_x
_atom_site_fract_y
_atom_site_fract_z
O1	O	1.505960	0.115128	-0.108177
O2	O	1.755960	0.365128	0.141823
O3	O	2.005960	0.615128	0.391823
O4	O	2.255960	0.865128	0.641823
O5	O	1.175521	0.126993	-0.108207
O6	O	1.425521	0.376993	0.141793
O7	O	1.675521	0.626993	0.391793
O8	O	1.925521	0.876993	0.641793
O9	O	1.349764	-0.001173	-0.108180
O10	O	1.599764	0.248827	0.141820
O11	O	1.849764	0.498827	0.391820
O12	O	2.099764	0.748827	0.641820
O13	O	1.331717	0.243295	-0.108205
O14	O	1.581717	0.493295	0.141795
O15	O	1.831717	0.743295	0.391795
O16	O	2.081717	0.993295	0.641795
O17	O	1.349749	-0.001179	0.108421
O18	O	1.599749	0.248821	0.358421
O19	O	1.849749	0.498821	0.608421
O20	O	2.099749	0.748821	0.858421
O21	O	1.175506	0.126988	0.108393
O22	O	1.425506	0.376988	0.358393
O23	O	1.675506	0.626988	0.608393
O24	O	1.925506	0.876988	0.858393
O25	O	1.505945	0.115123	0.108424
O26	O	1.755945	0.365123	0.358424
O27	O	2.005945	0.615123	0.608424
O28	O	2.255945	0.865123	0.858424
Cu29	Cu	1.340724	0.121055	0.128186
Cu30	Cu	1.590724	0.371055	0.378186
Cu31	Cu	1.840724	0.621055	0.628186
Cu32	Cu	2.090724	0.871055	0.878186
Cu33	Cu	1.340742	0.121061	-0.127970
Cu34	Cu	1.590742	0.371061	0.122030
Cu35	Cu	1.840742	0.621061	0.372030
Cu36	Cu	2.090742	0.871061	0.622030
O37	O	1.331702	0.243290	0.108396
O38	O	1.581702	0.493290	0.358396
O39	O	1.831702	0.743290	0.608396
O40	O	2.081702	0.993290	0.858396
C41	C	1.133229	0.126245	0.000089
C42	C	1.383229	0.376245	0.250089
C43	C	1.633229	0.626245	0.500089
C44	C	1.883229	0.876245	0.750089
C45	C	1.007234	0.124015	0.000078
C46	C	1.257234	0.374015	0.250078
C47	C	1.507234	0.624015	0.500078
C48	C	1.757234	0.874015	0.750078
C49	C	1.349008	-0.032473	0.000121
C50	C	1.599008	0.217527	0.250121
C51	C	1.849008	0.467527	0.500121
C52	C	2.099008	0.717527	0.750121
C53	C	1.346761	-0.125729	0.000121
C54	C	1.596761	0.124271	0.250121
C55	C	1.846761	0.374271	0.500121
C56	C	2.096761	0.624271	0.750121
C57	C	0.776555	0.119913	0.000116
C58	C	1.026555	0.369913	0.250116
C59	C	1.276555	0.619913	0.500116
C60	C	1.526555	0.869913	0.750116
C61	C	0.904922	0.122192	0.000095
C62	C	1.154922	0.372192	0.250095
C63	C	1.404922	0.622192	0.500095
C64	C	1.654922	0.872192	0.750095
C65	C	1.233389	-0.341098	0.000093
C66	C	1.483389	-0.091098	0.250093
C67	C	1.733389	0.158902	0.500093
C68	C	1.983389	0.408902	0.750093
C69	C	1.286028	-0.401880	0.106895
C70	C	1.536028	-0.151880	0.356895
C71	C	1.786028	0.098120	0.606895
C72	C	2.036028	0.348120	0.856895
C73	C	1.342698	-0.296474	0.000111
C74	C	1.592698	-0.046474	0.250111
C75	C	1.842698	0.203526	0.500111
C76	C	2.092698	0.453526	0.750111
C77	C	1.286069	-0.401858	-0.106656
C78	C	1.536069	-0.151858	0.143344
C79	C	1.786069	0.098142	0.393344
C80	C	2.036069	0.348142	0.643344
C81	C	1.338765	-0.461404	0.000095
C82	C	1.588765	-0.211404	0.250095
C83	C	1.838765	0.038596	0.500095
C84	C	2.088765	0.288596	0.750095
C85	C	1.395367	-0.356028	0.107001
C86	C	1.645367	-0.106028	0.357001
C87	C	1.895367	0.143972	0.607001
C88	C	2.145367	0.393972	0.857001
C89	C	1.395392	-0.355999	-0.106646
C90	C	1.645392	-0.105999	0.143354
C91	C	1.895392	0.144001	0.393354
C92	C	2.145392	0.394001	0.643354
C93	C	1.448111	-0.416764	0.000182
C94	C	1.698111	-0.166764	0.250182
C95	C	1.948111	0.083236	0.500182
C96	C	2.198111	0.333236	0.750182
C97	C	1.344961	-0.201461	0.000121
C98	C	1.594961	0.048539	0.250121
C99	C	1.844961	0.298539	0.500121
C100	C	2.094961	0.548539	0.750121
C101	C	1.336511	-0.556415	0.000095
C102	C	1.586511	-0.306415	0.250095
C103	C	1.836511	-0.056415	0.500095
C104	C	2.086511	0.193585	0.750095
C105	C	1.548237	0.115871	0.000124
C106	C	1.798237	0.365871	0.250124
C107	C	2.048237	0.615871	0.500124
C108	C	2.298237	0.865871	0.750124
C109	C	1.674233	0.118102	0.000127
C110	C	1.924233	0.368102	0.250127
C111	C	2.174233	0.618102	0.500127
C112	C	2.424233	0.868102	0.750127
C113	C	1.332459	0.274590	0.000093
C114	C	1.582459	0.524590	0.250093
C115	C	1.832459	0.774590	0.500093
C116	C	2.082459	1.024590	0.750093
C117	C	1.334705	0.367846	0.000084
C118	C	1.584705	0.617846	0.250084
C119	C	1.834705	0.867846	0.500084
C120	C	2.084705	1.117846	0.750084
N121	N	1.340720	0.121050	0.308352
N122	N	1.590720	0.371050	0.558352
N123	N	1.840720	0.621050	0.808352
N124	N	2.090720	0.871050	1.058352
N125	N	1.340756	0.121060	-0.308135
N126	N	1.590756	0.371060	-0.058135
N127	N	1.840756	0.621060	0.191865
N128	N	2.090756	0.871060	0.441865
C129	C	1.340736	0.121060	0.574022
C130	C	1.590736	0.371060	0.824022
C131	C	1.840736	0.621060	1.074022
C132	C	2.090736	0.871060	1.324022
C133	C	1.340724	0.121057	0.426184
C134	C	1.590724	0.371057	0.676184
C135	C	1.840724	0.621057	0.926184
C136	C	2.090724	0.871057	1.176184
H137	H	1.142657	-0.308200	0.000191
H138	H	1.392657	-0.058200	0.250191
H139	H	1.642657	0.191800	0.500191
H140	H	1.892657	0.441800	0.750191
Cl141	Cl	1.214641	-0.433253	0.246288
Cl142	Cl	1.464641	-0.183253	0.496288
Cl143	Cl	1.714641	0.066747	0.746288
Cl144	Cl	1.964641	0.316747	0.996288
H145	H	1.441593	-0.335658	-0.196935
H146	H	1.691593	-0.085658	0.053065
H147	H	1.941593	0.164342	0.303065
H148	H	2.191593	0.414342	0.553065
H149	H	1.441555	-0.335831	0.197393
H150	H	1.691555	-0.085831	0.447393
H151	H	1.941555	0.164169	0.697393
H152	H	2.191555	0.414169	0.947393
H153	H	1.538922	-0.449513	0.000251
H154	H	1.788922	-0.199513	0.250251
H155	H	2.038922	0.050487	0.500251
H156	H	2.288922	0.300487	0.750251
Cl157	Cl	1.214668	-0.433196	-0.246051
Cl158	Cl	1.464668	-0.183196	0.003949
Cl159	Cl	1.714668	0.066804	0.253949
Cl160	Cl	1.964668	0.316804	0.503949
