data_functionalizedCrystal
_audit_creation_method	'MofGen! by Chris Wilmer'
_symmetry_space_group_name_H-M	'P1'
_symmetry_Int_Tables_number	1
_symmetry_cell_setting	triclinic
loop_
_symmetry_equiv_pos_as_xyz
  x,y,z
_cell_length_a	15.995350
_cell_length_b	15.995350
_cell_length_c	14.472310
_cell_angle_alpha	90.001162
_cell_angle_beta	89.990621
_cell_angle_gamma	83.492375
loop_
_atom_site_label
_atom_site_type_symbol
_atom_site_fract_x
_atom_site_fract_y
_atom_site_fract_z
O1	O	1.110997	0.107921	-0.076758
O2	O	1.610997	0.607921	0.423242
O3	O	0.867221	0.121248	-0.076776
O4	O	1.367221	0.621248	0.423224
O5	O	0.995773	-0.007303	-0.076766
O6	O	1.495773	0.492697	0.423234
O7	O	0.982445	0.236472	-0.076769
O8	O	1.482445	0.736472	0.423231
O9	O	0.995740	-0.007296	0.076916
O10	O	1.495740	0.492704	0.576916
O11	O	0.867188	0.121256	0.076906
O12	O	1.367188	0.621256	0.576906
O13	O	1.110963	0.107928	0.076924
O14	O	1.610963	0.607928	0.576924
Cu15	Cu	0.989073	0.114593	0.090947
Cu16	Cu	1.489073	0.614593	0.590947
Cu17	Cu	0.989112	0.114584	-0.090800
Cu18	Cu	1.489112	0.614584	0.409200
O19	O	0.982412	0.236480	0.076913
O20	O	1.482412	0.736480	0.576913
C21	C	0.836010	0.120701	0.000062
C22	C	1.336010	0.620701	0.500062
C23	C	0.743060	0.119049	0.000055
C24	C	1.243060	0.619049	0.500055
C25	C	0.405312	0.113117	0.000074
C26	C	0.905312	0.613117	0.500074
C27	C	0.452746	0.021565	0.000418
C28	C	0.952746	0.521565	0.500418
C29	C	0.549436	0.023217	0.000065
C30	C	1.049436	0.523217	0.500065
C31	C	0.572873	0.116060	0.000065
C32	C	1.072873	0.616060	0.500065
C33	C	0.531804	0.161212	-0.087692
C34	C	1.031804	0.661212	0.412308
C35	C	0.435169	0.158912	-0.087759
C36	C	0.935169	0.658912	0.412241
C37	C	0.434792	0.160812	0.087007
C38	C	0.934792	0.660812	0.587007
C39	C	0.531737	0.160790	0.088160
C40	C	1.031737	0.660790	0.588160
C41	C	0.667570	0.117727	0.000057
C42	C	1.167570	0.617727	0.500057
C43	C	0.310614	0.111452	0.000076
C44	C	0.810614	0.611452	0.500076
C45	C	0.995205	-0.038494	0.000073
C46	C	1.495205	0.461506	0.500073
C47	C	0.993553	-0.131444	0.000068
C48	C	1.493553	0.368556	0.500068
C49	C	0.987621	-0.469192	0.000071
C50	C	1.487621	0.030808	0.500071
C51	C	0.896069	-0.421758	-0.000281
C52	C	1.396069	0.078242	0.499719
C53	C	0.897721	-0.325068	0.000066
C54	C	1.397721	0.174932	0.500066
C55	C	0.990564	-0.301631	0.000069
C56	C	1.490564	0.198369	0.500069
C57	C	1.035701	-0.342705	0.087831
C58	C	1.535701	0.157295	0.587831
C59	C	1.033401	-0.439340	0.087904
C60	C	1.533401	0.060660	0.587904
C61	C	1.035330	-0.439707	-0.086861
C62	C	1.535330	0.060293	0.413139
C63	C	1.035309	-0.342762	-0.088021
C64	C	1.535309	0.157238	0.411979
C65	C	0.992231	-0.206934	0.000071
C66	C	1.492231	0.293066	0.500071
C67	C	0.985956	-0.563890	0.000075
C68	C	1.485956	-0.063890	0.500075
C69	C	1.142175	0.108476	0.000083
C70	C	1.642175	0.608476	0.500083
C71	C	1.235125	0.110127	0.000084
C72	C	1.735125	0.610127	0.500084
C73	C	0.982980	0.267671	0.000072
C74	C	1.482980	0.767671	0.500072
C75	C	0.984631	0.360621	0.000071
C76	C	1.484631	0.860621	0.500071
N77	N	0.989051	0.114598	0.218778
N78	N	1.489051	0.614598	0.718778
N79	N	0.989140	0.114572	-0.218631
N80	N	1.489140	0.614572	0.281369
C81	C	0.989111	0.114581	0.592869
C82	C	1.489111	0.614581	1.092869
C83	C	0.920095	0.183135	0.553698
C84	C	1.420095	0.683135	1.053698
C85	C	0.920254	0.183385	0.446610
C86	C	1.420254	0.683385	0.946610
C87	C	0.989081	0.114590	0.407278
C88	C	1.489081	0.614590	0.907278
C89	C	1.076445	0.133671	0.446122
C90	C	1.576445	0.633671	0.946122
C91	C	1.076057	0.134159	0.553243
C92	C	1.576057	0.634159	1.053243
C93	C	0.971542	0.026741	0.553398
C94	C	1.471542	0.526741	1.053398
C95	C	0.969538	0.027327	0.446270
C96	C	1.469538	0.527327	0.946270
C97	C	0.989069	0.114593	0.302390
C98	C	1.489069	0.614593	0.802390
C99	C	0.989128	0.114579	0.697757
C100	C	1.489128	0.614579	1.197757
H101	H	0.434210	-0.015027	0.063352
H102	H	0.934210	0.484973	0.563352
Br103	Br	0.596802	-0.035940	0.104916
Br104	Br	1.096802	0.464060	0.604916
Br105	Br	1.164093	0.052662	0.403665
Br106	Br	1.664093	0.552662	0.903665
Br107	Br	0.381416	0.270939	-0.094396
Br108	Br	0.881416	0.770939	0.405604
H109	H	1.092297	0.197002	0.419285
H110	H	1.592297	0.697002	0.919285
H111	H	0.855314	0.172016	0.420349
H112	H	1.355314	0.672016	0.920349
H113	H	0.545930	0.229421	-0.090955
H114	H	1.045930	0.729421	0.409045
H115	H	0.414242	0.130885	0.153524
H116	H	0.914242	0.630885	0.653524
H117	H	0.577308	-0.012521	-0.062951
H118	H	1.077308	0.487479	0.437049
H119	H	0.931473	0.248569	0.420976
H120	H	1.431473	0.748569	0.920976
Br121	Br	0.862422	0.003186	0.403961
Br122	Br	1.362422	0.503186	0.903961
Br123	Br	1.149388	-0.319166	0.093280
Br124	Br	1.649388	0.180834	0.593280
Br125	Br	0.420106	-0.039163	-0.103888
Br126	Br	0.920106	0.460837	0.396112
Br127	Br	1.164140	0.054010	0.596435
Br128	Br	1.664140	0.554010	1.096435
H129	H	0.559040	0.127830	0.153082
H130	H	1.059040	0.627830	0.653082
H131	H	1.004324	-0.314320	0.153137
H132	H	1.504324	0.185680	0.653137
H133	H	0.416874	0.125979	-0.153359
H134	H	0.916874	0.625979	0.346641
Br135	Br	1.047887	-0.061689	0.401667
Br136	Br	1.547887	0.438311	0.901667
Br137	Br	0.381858	0.273317	0.087996
Br138	Br	0.881858	0.773317	0.587996
Br139	Br	1.145427	-0.493094	0.094556
Br140	Br	1.645427	0.006906	0.594556
H141	H	1.005412	-0.460250	-0.153379
H142	H	1.505412	0.039750	0.346621
H143	H	1.021872	-0.024275	0.578728
H144	H	1.521872	0.475725	1.078728
Br145	Br	0.838133	-0.278611	0.105088
Br146	Br	1.338133	0.221389	0.605088
H147	H	0.560193	0.129845	-0.153002
H148	H	1.060193	0.629845	0.346998
H149	H	0.859626	-0.441349	0.062299
H150	H	1.359626	0.058651	0.562299
H151	H	0.547101	0.228494	0.093461
H152	H	1.047101	0.728494	0.593461
H153	H	0.909219	0.008392	0.580461
H154	H	1.409219	0.508392	1.080461
H155	H	0.862239	-0.296649	-0.062846
H156	H	1.362239	0.203351	0.437154
H157	H	1.103014	-0.327400	-0.093317
H158	H	1.603014	0.172600	0.406683
H159	H	1.000459	-0.457639	0.153505
H160	H	1.500459	0.042361	0.653505
Br161	Br	1.147835	-0.492643	-0.087843
Br162	Br	1.647835	0.007357	0.412157
H163	H	1.002307	-0.315516	-0.152945
H164	H	1.502307	0.184484	0.347055
Br165	Br	0.835096	-0.452645	-0.105181
Br166	Br	1.335096	0.047355	0.394819
Br167	Br	0.811498	0.164485	0.596643
Br168	Br	1.311498	0.664485	1.096643
H169	H	0.931159	0.247952	0.580608
H170	H	1.431159	0.747952	1.080608
Br171	Br	1.101863	0.240930	0.594878
Br172	Br	1.601863	0.740930	1.094878
