data_functionalizedCrystal
_audit_creation_method	'MofGen! by Chris Wilmer'
_symmetry_space_group_name_H-M	'P1'
_symmetry_Int_Tables_number	1
_symmetry_cell_setting	triclinic
loop_
_symmetry_equiv_pos_as_xyz
  x,y,z
_cell_length_a	13.339070
_cell_length_b	16.992694
_cell_length_c	15.455313
_cell_angle_alpha	92.857794
_cell_angle_beta	93.394339
_cell_angle_gamma	76.851241
loop_
_atom_site_label
_atom_site_type_symbol
_atom_site_fract_x
_atom_site_fract_y
_atom_site_fract_z
O1	O	0.214131	-1.090408	-0.072012
O2	O	0.714131	-0.590408	0.427988
O3	O	0.211734	-0.861603	-0.072038
O4	O	0.711734	-0.361603	0.427962
O5	O	0.063546	-0.949746	-0.072026
O6	O	0.563546	-0.449746	0.427974
O7	O	0.362319	-1.002265	-0.072025
O8	O	0.862319	-0.502265	0.427975
O9	O	0.071983	-0.944697	0.072236
O10	O	0.571983	-0.444697	0.572236
O11	O	0.220171	-0.856554	0.072223
O12	O	0.720171	-0.356554	0.572223
O13	O	0.222568	-1.085360	0.072249
O14	O	0.722568	-0.585360	0.572249
Cu15	Cu	0.222140	-0.970496	0.085408
Cu16	Cu	0.722140	-0.470496	0.585408
Cu17	Cu	0.212163	-0.976466	-0.085197
Cu18	Cu	0.712163	-0.476466	0.414803
O19	O	0.370756	-0.997216	0.072237
O20	O	0.870756	-0.497216	0.572237
C21	C	0.212871	-0.829195	0.000089
C22	C	0.712871	-0.329195	0.500089
C23	C	0.203676	-0.740151	0.000079
C24	C	0.703676	-0.240151	0.500079
C25	C	0.029358	-0.938350	0.000103
C26	C	0.529358	-0.438350	0.500103
C27	C	-0.085082	-0.911906	0.000097
C28	C	0.414918	-0.411906	0.500097
C29	C	0.221431	-1.117767	0.000120
C30	C	0.721431	-0.617767	0.500120
C31	C	0.230626	-1.206811	0.000124
C32	C	0.730626	-0.706811	0.500124
C33	C	-0.433251	-1.117519	0.000120
C34	C	0.066749	-0.617519	0.500120
C35	C	-0.325728	-1.142367	0.000131
C36	C	0.174272	-0.642367	0.500131
C37	C	-0.265562	-1.084754	0.000122
C38	C	0.234438	-0.584754	0.500122
C39	C	-0.312927	-1.002289	0.000103
C40	C	0.187073	-0.502289	0.500103
C41	C	-0.420460	-0.977439	0.000099
C42	C	0.079540	-0.477439	0.500099
C43	C	-0.252771	-0.944673	0.000101
C44	C	0.247229	-0.444673	0.500101
C45	C	-0.300136	-0.862209	0.000081
C46	C	0.199864	-0.362209	0.500081
C47	C	-0.407658	-0.837363	0.000077
C48	C	0.092342	-0.337363	0.500077
C49	C	-0.467825	-0.894976	0.000086
C50	C	0.032175	-0.394976	0.500086
C51	C	-0.145238	-0.969524	0.000105
C52	C	0.354762	-0.469524	0.500105
C53	C	-0.132447	-0.829443	0.000083
C54	C	0.367553	-0.329443	0.500083
C55	C	-0.239969	-0.804596	0.000072
C56	C	0.260031	-0.304596	0.500072
C57	C	0.404944	-1.008612	0.000106
C58	C	0.904944	-0.508612	0.500106
C59	C	0.519384	-1.035056	0.000107
C60	C	1.019384	-0.535056	0.500107
N61	N	0.229157	-0.966302	0.205403
N62	N	0.729157	-0.466302	0.705403
C63	C	0.292390	-0.709211	0.000080
C64	C	0.792390	-0.209211	0.500080
C65	C	0.283745	-0.625543	0.000092
C66	C	0.783745	-0.125543	0.500092
C67	C	0.186386	-0.572817	0.000097
C68	C	0.686386	-0.072817	0.500097
C69	C	0.097666	-0.603762	0.000099
C70	C	0.597666	-0.103762	0.500099
C71	C	0.106311	-0.687429	0.000093
C72	C	0.606311	-0.187429	0.500093
C73	C	0.150552	-0.321423	0.000120
C74	C	0.650552	0.178577	0.500120
C75	C	0.141912	-0.237751	0.000123
C76	C	0.641912	0.262249	0.500123
C77	C	0.327993	-0.259538	0.000118
C78	C	0.827993	0.240462	0.500118
C79	C	0.336630	-0.343205	0.000107
C80	C	0.836630	0.156795	0.500107
C81	C	0.247910	-0.374143	0.000114
C82	C	0.747910	0.125857	0.500114
N83	N	0.177547	-0.487295	0.000107
N84	N	0.677547	0.012705	0.500107
N85	N	0.256750	-0.459663	0.000110
N86	N	0.756750	0.040337	0.500110
N87	N	0.205137	-0.980664	-0.205192
N88	N	0.705137	-0.480664	0.294808
C89	C	0.166228	-1.003772	0.250803
C90	C	0.666228	-0.503772	0.750803
C91	C	0.171545	-1.000610	0.341610
C92	C	0.671545	-0.500610	0.841610
C93	C	0.239798	-0.959983	0.387017
C94	C	0.739798	-0.459983	0.887017
C95	C	0.302729	-0.922508	0.341611
C96	C	0.802729	-0.422508	0.841611
C97	C	0.297406	-0.925665	0.250805
C98	C	0.797406	-0.425665	0.750805
C99	C	0.262746	-0.946347	0.658596
C100	C	0.762746	-0.446347	1.158596
C101	C	0.268067	-0.943195	0.749408
C102	C	0.768067	-0.443195	1.249408
C103	C	0.136880	-1.021296	0.749401
C104	C	0.636880	-0.521296	1.249401
C105	C	0.131568	-1.024454	0.658594
C106	C	0.631568	-0.524454	1.158594
C107	C	0.194496	-0.986976	0.613196
C108	C	0.694496	-0.486976	1.113196
N109	N	0.245237	-0.956752	0.479836
N110	N	0.745237	-0.456752	0.979836
N111	N	0.189051	-0.990202	0.520378
N112	N	0.689051	-0.490202	1.020378
H113	H	-0.106684	-1.036667	0.000121
H114	H	0.393316	-0.536667	0.500121
H115	H	0.078309	-0.346601	0.000126
H116	H	0.578309	0.153399	0.500126
Cl117	Cl	0.395276	-0.586651	0.000088
Cl118	Cl	0.895276	-0.086651	0.500088
H119	H	-0.287171	-1.209509	0.000148
H120	H	0.212829	-0.709509	0.500148
Cl121	Cl	-0.130389	-1.115993	0.000131
Cl122	Cl	0.369611	-0.615993	0.500131
H123	H	0.323650	-0.910110	0.786374
H124	H	0.823650	-0.410110	1.286374
H125	H	0.075991	-1.057536	0.621626
H126	H	0.575991	-0.557536	1.121626
H127	H	-0.083459	-0.782529	0.000080
H128	H	0.416541	-0.282529	0.500080
Cl129	Cl	0.341858	-0.899237	0.601531
Cl130	Cl	0.841858	-0.399237	1.101531
Cl131	Cl	0.459029	-0.409484	0.000095
Cl132	Cl	0.959029	0.090516	0.500095
H133	H	0.358298	-0.889423	0.378586
H134	H	0.858298	-0.389423	0.878586
H135	H	0.034071	-0.712618	0.000092
H136	H	0.534071	-0.212618	0.500092
H137	H	-0.482247	-1.164418	0.000134
H138	H	0.017753	-0.664418	0.500134
Cl139	Cl	-0.603008	-0.863745	-0.000031
Cl140	Cl	-0.103008	-0.363745	0.499969
Cl141	Cl	-0.467200	-0.733692	0.000065
Cl142	Cl	0.032800	-0.233692	0.500065
H143	H	0.400223	-0.234339	0.000115
H144	H	0.900223	0.265661	0.500115
Cl145	Cl	-0.299528	-0.700929	0.000047
Cl146	Cl	0.200472	-0.200929	0.500047
H147	H	0.062627	-0.194822	0.000126
H148	H	0.562627	0.305178	0.500126
H149	H	0.018394	-0.560826	0.000115
H150	H	0.518394	-0.060826	0.500115
Cl151	Cl	0.376518	-0.878555	0.193732
Cl152	Cl	0.876518	-0.378555	0.693732
Cl153	Cl	0.414790	-0.775488	0.000068
Cl154	Cl	0.914790	-0.275488	0.500068
Cl155	Cl	0.080425	-1.054854	0.193730
Cl156	Cl	0.580425	-0.554854	0.693730
Cl157	Cl	0.057772	-1.068405	0.806477
Cl158	Cl	0.557772	-0.568405	1.306477
Cl159	Cl	0.092432	-1.047715	0.398685
Cl160	Cl	0.592432	-0.547715	0.898685
