data_functionalizedCrystal
_audit_creation_method	'MofGen! by Chris Wilmer'
_symmetry_space_group_name_H-M	'P1'
_symmetry_Int_Tables_number	1
_symmetry_cell_setting	triclinic
loop_
_symmetry_equiv_pos_as_xyz
  x,y,z
_cell_length_a	18.050591
_cell_length_b	18.050589
_cell_length_c	18.215399
_cell_angle_alpha	89.976397
_cell_angle_beta	89.974300
_cell_angle_gamma	90.024227
loop_
_atom_site_label
_atom_site_type_symbol
_atom_site_fract_x
_atom_site_fract_y
_atom_site_fract_z
Zn1	Zn	1.135328	-0.295746	-0.416253
Zn2	Zn	1.468661	0.037587	-0.082920
Zn3	Zn	1.801994	0.370921	0.250413
Zn4	Zn	1.135228	-0.419941	-0.293196
Zn5	Zn	1.468561	-0.086608	0.040137
Zn6	Zn	1.801895	0.246726	0.373470
Zn7	Zn	1.011136	-0.295761	-0.293188
Zn8	Zn	1.344470	0.037573	0.040145
Zn9	Zn	1.677803	0.370906	0.373479
Zn10	Zn	1.011095	-0.419890	-0.416209
Zn11	Zn	1.344428	-0.086557	-0.082875
Zn12	Zn	1.677761	0.246776	0.250458
O13	O	1.073197	-0.357835	-0.354712
O14	O	1.406530	-0.024501	-0.021378
O15	O	1.739863	0.308832	0.311955
O16	O	1.239239	-0.312236	-0.399952
O17	O	1.572572	0.021097	-0.066618
O18	O	1.905906	0.354431	0.266715
O19	O	1.118743	-0.403496	-0.190211
O20	O	1.452076	-0.070162	0.143122
O21	O	1.785409	0.263171	0.476456
O22	O	1.027670	-0.191834	-0.309528
O23	O	1.361003	0.141499	0.023805
O24	O	1.694336	0.474832	0.357139
O25	O	1.239166	-0.403482	-0.309542
O26	O	1.572499	-0.070148	0.023791
O27	O	1.905832	0.263185	0.357124
O28	O	1.118912	-0.191824	-0.399944
O29	O	1.452246	0.141510	-0.066610
O30	O	1.785579	0.474843	0.266723
O31	O	1.027573	-0.312261	-0.190205
O32	O	1.360906	0.021072	0.143129
O33	O	1.694240	0.354406	0.476462
O34	O	0.907206	-0.312212	-0.309485
O35	O	1.240540	0.021122	0.023849
O36	O	1.573873	0.354455	0.357182
O37	O	1.027599	-0.403395	-0.519199
O38	O	1.360932	-0.070061	-0.185866
O39	O	1.694265	0.263272	0.147468
O40	O	0.907176	-0.403409	-0.399868
O41	O	1.240509	-0.070076	-0.066534
O42	O	1.573842	0.263258	0.266799
O43	O	1.118872	-0.312187	-0.519232
O44	O	1.452205	0.021147	-0.185898
O45	O	1.785539	0.354480	0.147435
O46	O	1.118702	-0.523859	-0.309499
O47	O	1.452036	-0.190526	0.023834
O48	O	1.785369	0.142808	0.357168
O49	O	1.027502	-0.523822	-0.399876
O50	O	1.360835	-0.190488	-0.066542
O51	O	1.694169	0.142845	0.266791
C52	C	0.880245	-0.357807	-0.354671
C53	C	1.213578	-0.024474	-0.021338
C54	C	1.546911	0.308860	0.311996
C55	C	0.797699	-0.357813	-0.354671
C56	C	1.131032	-0.024480	-0.021338
C57	C	1.464365	0.308854	0.311996
C58	C	0.598243	-0.308162	-0.305634
C59	C	0.931577	0.025171	0.027699
C60	C	1.264910	0.358504	0.361033
C61	C	0.548822	-0.375900	-0.287528
C62	C	0.882155	-0.042567	0.045805
C63	C	1.215489	0.290767	0.379138
C64	C	0.646568	-0.357836	-0.354704
C65	C	0.979902	-0.024502	-0.021371
C66	C	1.313235	0.308831	0.311963
C67	C	0.548908	-0.290121	-0.372808
C68	C	0.882241	0.043212	-0.039475
C69	C	1.215575	0.376545	0.293859
C70	C	0.500583	-0.357851	-0.354735
C71	C	0.833917	-0.024518	-0.021402
C72	C	1.167250	0.308815	0.311932
C73	C	0.598234	-0.425609	-0.336563
C74	C	0.931568	-0.092275	-0.003230
C75	C	1.264901	0.241058	0.330103
C76	C	0.598325	-0.339784	-0.421874
C77	C	0.931658	-0.006451	-0.088541
C78	C	1.264991	0.326882	0.244792
C79	C	0.548926	-0.407569	-0.403794
C80	C	0.882259	-0.074236	-0.070461
C81	C	1.215592	0.259098	0.262873
C82	C	0.730667	-0.357825	-0.354685
C83	C	1.064000	-0.024492	-0.021351
C84	C	1.397333	0.308841	0.311982
C85	C	0.416487	-0.357869	-0.354755
C86	C	0.749820	-0.024536	-0.021421
C87	C	1.083153	0.308798	0.311912
C88	C	1.073107	-0.550787	-0.354699
C89	C	1.406440	-0.217453	-0.021366
C90	C	1.739774	0.115880	0.311967
C91	C	1.073137	-0.633333	-0.354719
C92	C	1.406470	-0.299999	-0.021385
C93	C	1.739803	0.033334	0.311948
C94	C	1.023591	-0.832790	-0.403848
C95	C	1.356924	-0.499456	-0.070515
C96	C	1.690257	-0.166123	0.262818
C97	C	1.005487	-0.882229	-0.336692
C98	C	1.338821	-0.548895	-0.003359
C99	C	1.672154	-0.215562	0.329974
C100	C	1.073210	-0.784463	-0.354728
C101	C	1.406543	-0.451129	-0.021395
C102	C	1.739876	-0.117796	0.311938
C103	C	1.091350	-0.882105	-0.421892
C104	C	1.424683	-0.548772	-0.088559
C105	C	1.758016	-0.215439	0.244775
C106	C	1.073279	-0.930448	-0.354743
C107	C	1.406612	-0.597115	-0.021410
C108	C	1.739945	-0.263781	0.311923
C109	C	1.055070	-0.832815	-0.287537
C110	C	1.388404	-0.499481	0.045797
C111	C	1.721737	-0.166148	0.379130
C112	C	1.140964	-0.832687	-0.372782
C113	C	1.474298	-0.499354	-0.039448
C114	C	1.807631	-0.166020	0.293885
C115	C	1.122886	-0.882104	-0.305579
C116	C	1.456220	-0.548770	0.027754
C117	C	1.789553	-0.215437	0.361087
C118	C	1.073168	-0.700365	-0.354721
C119	C	1.406501	-0.367031	-0.021387
C120	C	1.739835	-0.033698	0.311946
C121	C	1.073320	-1.014544	-0.354744
C122	C	1.406654	-0.681211	-0.021410
C123	C	1.739987	-0.347878	0.311923
C124	C	1.266902	-0.357863	-0.354753
C125	C	1.600236	-0.024530	-0.021419
C126	C	1.933569	0.308804	0.311914
C127	C	1.349448	-0.357875	-0.354770
C128	C	1.682781	-0.024542	-0.021437
C129	C	2.016115	0.308792	0.311896
C130	C	1.073242	-0.357783	-0.546665
C131	C	1.406575	-0.024450	-0.213331
C132	C	1.739909	0.308883	0.120002
C133	C	1.073261	-0.357762	-0.628463
C134	C	1.406595	-0.024428	-0.295130
C135	C	1.739928	0.308905	0.038203
C136	C	1.073307	-0.164129	-0.354740
C137	C	1.406640	0.169204	-0.021407
C138	C	1.739974	0.502538	0.311927
C139	C	1.073354	-0.081583	-0.354752
C140	C	1.406687	0.251750	-0.021419
C141	C	1.740021	0.585084	0.311915
C142	C	1.120804	-0.310225	-0.816676
C143	C	1.454138	0.023108	-0.483342
C144	C	1.787471	0.356442	-0.150009
C145	C	1.120813	-0.310203	-0.893535
C146	C	1.454146	0.023130	-0.560201
C147	C	1.787480	0.356463	-0.226868
C148	C	1.025771	-0.405183	-0.893489
C149	C	1.359104	-0.071850	-0.560156
C150	C	1.692437	0.261483	-0.226822
C151	C	1.025759	-0.405201	-0.816632
C152	C	1.359092	-0.071867	-0.483298
C153	C	1.692425	0.261466	-0.149965
C154	C	1.073280	-0.357723	-0.778227
C155	C	1.406613	-0.024389	-0.444894
C156	C	1.739946	0.308944	-0.111560
C157	C	1.073301	-0.357684	-0.931943
C158	C	1.406634	-0.024350	-0.598610
C159	C	1.739967	0.308983	-0.265277
C160	C	1.073310	-0.357660	-1.015277
C161	C	1.406643	-0.024327	-0.681944
C162	C	1.739976	0.309006	-0.348610
C163	C	1.073270	-0.357745	-0.694888
C164	C	1.406603	-0.024411	-0.361555
C165	C	1.739936	0.308922	-0.028221
C166	C	1.073194	-0.357832	-0.163505
C167	C	1.406528	-0.024499	0.169828
C168	C	1.739861	0.308835	0.503161
C169	C	1.073319	-0.357645	-0.081707
C170	C	1.406652	-0.024311	0.251627
C171	C	1.739986	0.309022	0.584960
H172	H	0.620085	-0.324484	-0.478648
H173	H	0.953418	0.008849	-0.145315
H174	H	1.286752	0.342182	0.188018
H175	H	0.619897	-0.266201	-0.264092
H176	H	0.953231	0.067133	0.069241
H177	H	1.286564	0.400466	0.402575
C178	C	0.519442	-0.396539	-0.210808
C179	C	0.852776	-0.063206	0.122526
C180	C	1.186109	0.270128	0.455859
N181	N	0.497314	-0.412078	-0.153020
N182	N	0.830648	-0.078745	0.180313
N183	N	1.163981	0.254588	0.513646
H184	H	0.987082	-0.443840	-0.924768
H185	H	1.320416	-0.110506	-0.591434
H186	H	1.653749	0.222827	-0.258101
C187	C	0.519639	-0.212750	-0.393480
C188	C	0.852972	0.120584	-0.060147
C189	C	1.186305	0.453917	0.273187
N190	N	0.497596	-0.154472	-0.409046
N191	N	0.830930	0.178862	-0.075712
N192	N	1.164263	0.512195	0.257621
H193	H	0.619812	-0.482897	-0.321201
H194	H	0.953145	-0.149564	0.012132
H195	H	1.286478	0.183769	0.345465
H196	H	0.987053	-0.443878	-0.785326
H197	H	1.320386	-0.110545	-0.451993
H198	H	1.653720	0.222789	-0.118659
C199	C	1.173096	-0.257954	-0.935825
C200	C	1.506429	0.075379	-0.602491
C201	C	1.839763	0.408713	-0.269158
N202	N	1.212478	-0.218598	-0.967677
N203	N	1.545811	0.114736	-0.634344
N204	N	1.879144	0.448069	-0.301010
C205	C	0.966821	-0.803529	-0.459883
C206	C	1.300154	-0.470195	-0.126550
C207	C	1.633488	-0.136862	0.206784
N208	N	0.924060	-0.781486	-0.502084
N209	N	1.257394	-0.448153	-0.168750
N210	N	1.590727	-0.114820	0.164583
C211	C	0.928120	-0.911628	-0.316066
C212	C	1.261453	-0.578294	0.017267
C213	C	1.594787	-0.244961	0.350600
N214	N	0.869846	-0.933769	-0.300536
N215	N	1.203179	-0.600435	0.032798
N216	N	1.536512	-0.267102	0.366131
C217	C	0.519847	-0.464392	-0.459869
C218	C	0.853181	-0.131059	-0.126536
C219	C	1.186514	0.202274	0.206798
N220	N	0.497942	-0.507194	-0.502100
N221	N	0.831275	-0.173861	-0.168767
N222	N	1.164609	0.159473	0.164567
C223	C	1.173072	-0.257992	-0.774433
C224	C	1.506405	0.075342	-0.441100
C225	C	1.839739	0.408675	-0.107767
N226	N	1.212439	-0.218645	-0.742618
N227	N	1.545773	0.114688	-0.409285
N228	N	1.879106	0.448022	-0.075952
H229	H	1.164877	-0.903620	-0.263999
H230	H	1.498210	-0.570287	0.069335
H231	H	1.831544	-0.236954	0.402668
C232	C	1.034287	-0.803688	-0.210790
C233	C	1.367620	-0.470355	0.122543
C234	C	1.700953	-0.137021	0.455876
N235	N	1.018629	-0.781748	-0.152987
N236	N	1.351962	-0.448415	0.180346
N237	N	1.685296	-0.115081	0.513680
C238	C	1.218304	-0.803253	-0.393442
C239	C	1.551637	-0.469920	-0.060109
C240	C	1.884970	-0.136587	0.273225
N241	N	1.276554	-0.781078	-0.409014
N242	N	1.609888	-0.447745	-0.075680
N243	N	1.943221	-0.114412	0.257653
C244	C	1.112041	-0.911355	-0.498617
C245	C	1.445374	-0.578022	-0.165284
C246	C	1.778708	-0.244689	0.168049
N247	N	1.127621	-0.933383	-0.556408
N248	N	1.460954	-0.600050	-0.223075
N249	N	1.794287	-0.266717	0.110258
