data_functionalizedCrystal
_audit_creation_method	'MofGen! by Chris Wilmer'
_symmetry_space_group_name_H-M	'P1'
_symmetry_Int_Tables_number	1
_symmetry_cell_setting	triclinic
loop_
_symmetry_equiv_pos_as_xyz
  x,y,z
_cell_length_a	10.723023
_cell_length_b	10.723024
_cell_length_c	9.198806
_cell_angle_alpha	89.997988
_cell_angle_beta	89.996191
_cell_angle_gamma	84.467709
loop_
_atom_site_label
_atom_site_type_symbol
_atom_site_fract_x
_atom_site_fract_y
_atom_site_fract_z
O1	O	1.657188	0.175020	-0.120884
O2	O	1.294036	0.191774	-0.120888
O3	O	1.483989	0.001821	-0.120881
O4	O	1.467235	0.364973	-0.120892
O5	O	1.483974	0.001820	0.120904
O6	O	1.294021	0.191774	0.120897
O7	O	1.657173	0.175019	0.120901
Cu8	Cu	1.475596	0.183396	0.142976
Cu9	Cu	1.475613	0.183397	-0.142963
O10	O	1.467220	0.364973	0.120893
C11	C	1.247529	0.190555	0.000004
C12	C	1.108974	0.186908	0.000003
C13	C	0.903998	0.181512	0.125249
C14	C	1.047202	0.185281	0.125254
C15	C	1.482762	-0.044679	0.000010
C16	C	1.479114	-0.183233	0.000005
C17	C	1.585402	-0.258216	0.000004
C18	C	1.581634	-0.401420	-0.000001
C19	C	1.703680	0.176239	0.000005
C20	C	1.842235	0.179886	-0.000003
C21	C	1.468447	0.411473	-0.000001
C22	C	1.472095	0.550027	-0.000005
N23	N	1.475592	0.183395	0.344090
N24	N	1.475627	0.183388	-0.344077
C25	C	1.555348	0.103288	0.416290
C26	C	1.555367	0.103283	0.583702
H27	H	1.055867	0.185506	-0.107236
O28	O	1.117554	0.187145	0.267301
H29	H	1.082227	0.271397	0.330527
H30	H	1.623612	0.034702	0.354166
H31	H	1.623654	0.034704	0.645791
H32	H	0.895373	0.181292	-0.107233
O33	O	1.385171	0.274233	0.573683
H34	H	1.402154	0.371615	0.602789
O35	O	1.385165	0.274262	0.426353
H36	H	1.323964	0.221321	0.495728
H37	H	1.679188	-0.216394	0.000014
H38	H	0.850859	0.180119	0.232479
O39	O	1.702174	-0.486753	0.000001
H40	H	1.680299	-0.585839	-0.000011
H41	H	1.381099	-0.385548	0.000006
H42	H	1.385328	-0.225055	-0.000005
