data_functionalizedCrystal
_audit_creation_method	'MofGen! by Chris Wilmer'
_symmetry_space_group_name_H-M	'P1'
_symmetry_Int_Tables_number	1
_symmetry_cell_setting	triclinic
loop_
_symmetry_equiv_pos_as_xyz
  x,y,z
_cell_length_a	27.731994
_cell_length_b	11.792254
_cell_length_c	10.868271
_cell_angle_alpha	89.994692
_cell_angle_beta	90.001770
_cell_angle_gamma	83.409566
loop_
_atom_site_label
_atom_site_type_symbol
_atom_site_fract_x
_atom_site_fract_y
_atom_site_fract_z
O1	O	0.641729	0.134747	-0.102148
O2	O	1.141729	0.634747	0.397852
O3	O	0.501051	0.155344	-0.102189
O4	O	1.001051	0.655344	0.397811
O5	O	0.574801	-0.020235	-0.102158
O6	O	1.074801	0.479765	0.397842
O7	O	0.567979	0.310326	-0.102178
O8	O	1.067979	0.810326	0.397822
O9	O	0.574795	-0.020242	0.102486
O10	O	1.074795	0.479758	0.602486
O11	O	0.501045	0.155337	0.102456
O12	O	1.001045	0.655337	0.602456
O13	O	0.641723	0.134740	0.102497
O14	O	1.141723	0.634740	0.602497
Zn15	Zn	0.571383	0.145038	0.134968
Zn16	Zn	1.071383	0.645038	0.634968
Zn17	Zn	0.571391	0.145046	-0.134660
Zn18	Zn	1.071391	0.645046	0.365340
O19	O	0.567973	0.310319	0.102467
O20	O	1.067973	0.810319	0.602467
C21	C	0.574368	-0.062515	0.000163
C22	C	1.074368	0.437485	0.500163
C23	C	0.573082	-0.188486	0.000162
C24	C	1.073082	0.311514	0.500162
C25	C	0.483038	0.154918	0.000129
C26	C	0.983038	0.654918	0.500129
C27	C	0.429375	0.153645	0.000113
C28	C	0.929375	0.653645	0.500113
C29	C	0.572037	-0.290789	0.000157
C30	C	1.072037	0.209211	0.500157
C31	C	0.570730	-0.419133	0.000146
C32	C	1.070730	0.080867	0.500146
C33	C	0.096606	0.145621	0.111713
C34	C	0.596606	0.645621	0.611713
C35	C	-0.105080	0.140781	0.111727
C36	C	0.394920	0.640781	0.611727
O37	O	-0.131159	0.140103	0.206597
O38	O	0.368841	0.640103	0.706597
N39	N	-0.130295	0.140184	0.000176
N40	N	0.369705	0.640184	0.500176
C41	C	-0.105085	0.140789	-0.111388
C42	C	0.394915	0.640789	0.388612
O43	O	-0.131159	0.140158	-0.206269
O44	O	0.368841	0.640158	0.293731
C45	C	0.096601	0.145621	-0.111401
C46	C	0.596601	0.645621	0.388599
C47	C	0.121813	0.146230	0.000158
C48	C	0.621813	0.646230	0.500158
C49	C	0.121818	0.146229	0.223263
C50	C	0.621818	0.646229	0.723263
C51	C	0.172236	0.147445	0.223258
C52	C	0.672236	0.647445	0.723258
C53	C	0.197443	0.148054	0.111704
C54	C	0.697443	0.648054	0.611704
C55	C	0.172231	0.147446	0.000154
C56	C	0.672231	0.647446	0.500154
C57	C	0.121810	0.146218	-0.222963
C58	C	0.621810	0.646218	0.277037
C59	C	0.172235	0.147423	-0.222956
C60	C	0.672235	0.647423	0.277044
C61	C	0.197447	0.148032	-0.111397
C62	C	0.697447	0.648032	0.388603
C63	C	0.247855	0.149271	-0.111406
C64	C	0.747855	0.649271	0.388594
N65	N	0.273070	0.149868	0.000146
N66	N	0.773070	0.649868	0.500146
C67	C	0.247864	0.149260	0.111701
C68	C	0.747864	0.649260	0.611701
C69	C	-0.210973	0.138254	-0.111373
C70	C	0.289027	0.638254	0.388627
C71	C	-0.261394	0.137048	-0.111370
C72	C	0.238606	0.637048	0.388630
C73	C	-0.261386	0.137038	0.111745
C74	C	0.238614	0.637038	0.611745
C75	C	-0.210964	0.138252	0.111741
C76	C	0.289036	0.638252	0.611741
C77	C	-0.185758	0.138852	0.000179
C78	C	0.314242	0.638852	0.500179
C79	C	0.353746	0.151815	0.111682
C80	C	0.853746	0.651815	0.611682
C81	C	0.404168	0.153036	0.111668
C82	C	0.904168	0.653036	0.611668
C83	C	0.404156	0.153040	-0.111447
C84	C	0.904156	0.653040	0.388553
C85	C	0.353737	0.151825	-0.111433
C86	C	0.853737	0.651825	0.388567
C87	C	0.328534	0.151208	0.000142
C88	C	0.828534	0.651208	0.500142
O89	O	0.273966	0.149936	-0.206226
O90	O	0.773966	0.649936	0.293774
O91	O	0.273948	0.149866	0.206568
O92	O	0.773948	0.649866	0.706568
C93	C	0.046188	0.144405	0.111718
C94	C	0.546188	0.644405	0.611718
C95	C	0.020976	0.143797	0.000168
C96	C	0.520976	0.643797	0.500168
C97	C	0.046182	0.144406	-0.111387
C98	C	0.546182	0.644406	0.388613
C99	C	-0.029445	0.142591	0.000171
C100	C	0.470555	0.642591	0.500171
C101	C	-0.054652	0.141983	0.111725
C102	C	0.445348	0.641983	0.611725
C103	C	-0.029437	0.142580	0.223277
C104	C	0.470563	0.642580	0.723277
C105	C	0.020982	0.143797	0.223272
C106	C	0.520982	0.643797	0.723272
C107	C	0.020967	0.143808	-0.222939
C108	C	0.520967	0.643808	0.277061
C109	C	-0.029451	0.142593	-0.222925
C110	C	0.470549	0.642593	0.277075
C111	C	-0.054657	0.141985	-0.111370
C112	C	0.445343	0.641985	0.388630
C113	C	0.659735	0.135166	0.000177
C114	C	1.159735	0.635166	0.500177
C115	C	0.713399	0.136440	0.000184
C116	C	1.213399	0.636440	0.500184
C117	C	0.568406	0.352599	0.000142
C118	C	1.068406	0.852599	0.500142
C119	C	0.569692	0.478570	0.000136
C120	C	1.069692	0.978570	0.500136
N121	N	0.571381	0.145031	0.318982
N122	N	1.071381	0.645031	0.818982
N123	N	0.571397	0.145044	-0.318674
N124	N	1.071397	0.645044	0.181326
C125	C	0.571388	0.145044	0.569988
C126	C	1.071388	0.645044	1.069988
C127	C	0.571383	0.145040	0.430311
C128	C	1.071383	0.645040	0.930311
H129	H	0.424693	0.153536	0.202516
H130	H	0.924693	0.653536	0.702516
H131	H	0.192760	0.147934	0.314101
H132	H	0.692760	0.647934	0.814101
H133	H	-0.049975	0.142107	-0.313776
H134	H	0.450025	0.642107	0.186224
H135	H	0.101301	0.145731	0.314109
H136	H	0.601301	0.645731	0.814109
H137	H	-0.281919	0.136570	-0.202213
H138	H	0.218081	0.636570	0.297787
H139	H	0.333231	0.151323	0.202537
H140	H	0.833231	0.651323	0.702537
H141	H	-0.190440	0.138750	0.202582
H142	H	0.309560	0.638750	0.702582
H143	H	-0.281918	0.136545	0.202577
H144	H	0.218082	0.636545	0.702577
H145	H	-0.190455	0.138741	-0.202226
H146	H	0.309545	0.638741	0.297774
H147	H	0.333208	0.151347	-0.202273
H148	H	0.833208	0.651347	0.297727
H149	H	0.101292	0.145720	-0.313806
H150	H	0.601292	0.645720	0.186194
H151	H	0.192755	0.147911	-0.313806
H152	H	0.692755	0.647911	0.186194
H153	H	0.424688	0.153540	-0.202272
H154	H	0.924688	0.653540	0.297728
H155	H	0.041505	0.144293	0.314115
H156	H	0.541505	0.644293	0.814115
H157	H	0.041486	0.144300	-0.313782
H158	H	0.541486	0.644300	0.186218
H159	H	-0.049969	0.142091	0.314109
H160	H	0.450031	0.642091	0.814109
