data_functionalizedCrystal
_audit_creation_method	'MofGen! by Chris Wilmer'
_symmetry_space_group_name_H-M	'P1'
_symmetry_Int_Tables_number	1
_symmetry_cell_setting	triclinic
loop_
_symmetry_equiv_pos_as_xyz
  x,y,z
_cell_length_a	18.215407
_cell_length_b	18.215404
_cell_length_c	18.215399
_cell_angle_alpha	89.972485
_cell_angle_beta	89.983140
_cell_angle_gamma	90.019956
loop_
_atom_site_label
_atom_site_type_symbol
_atom_site_fract_x
_atom_site_fract_y
_atom_site_fract_z
Zn1	Zn	-1.125077	0.293068	0.416060
Zn2	Zn	-0.625077	0.793068	0.916060
Zn3	Zn	-1.124988	0.416139	0.292994
Zn4	Zn	-0.624988	0.916139	0.792994
Zn5	Zn	-1.002010	0.293083	0.293013
Zn6	Zn	-0.502010	0.793083	0.793013
Zn7	Zn	-1.001978	0.416089	0.416026
Zn8	Zn	-0.501978	0.916089	0.916026
O9	O	-1.063513	0.354595	0.354523
O10	O	-0.563513	0.854595	0.854523
O11	O	-1.228050	0.309408	0.399741
O12	O	-0.728050	0.809408	0.899741
O13	O	-1.108651	0.399843	0.190013
O14	O	-0.608651	0.899843	0.690013
O15	O	-1.018386	0.190096	0.309358
O16	O	-0.518386	0.690096	0.809358
O17	O	-1.227984	0.399828	0.309325
O18	O	-0.727984	0.899828	0.809325
O19	O	-1.108803	0.190085	0.399760
O20	O	-0.608803	0.690085	0.899760
O21	O	-1.018299	0.309434	0.190027
O22	O	-0.518299	0.809434	0.690027
O23	O	-0.899021	0.309385	0.309325
O24	O	-0.399021	0.809385	0.809325
O25	O	-1.018332	0.399743	0.519014
O26	O	-0.518332	0.899743	1.019014
O27	O	-0.898998	0.399757	0.399702
O28	O	-0.398998	0.899757	0.899702
O29	O	-1.108772	0.309360	0.519039
O30	O	-0.608772	0.809360	1.019039
O31	O	-1.108620	0.519117	0.309292
O32	O	-0.608620	1.019117	0.809292
O33	O	-1.018245	0.519080	0.399683
O34	O	-0.518245	1.019080	0.899683
C35	C	-0.872307	0.354568	0.354512
C36	C	-0.372307	0.854568	0.854512
C37	C	-0.790508	0.354574	0.354525
C38	C	-0.290508	0.854574	0.854525
C39	C	-0.525458	0.401716	0.401518
C40	C	-0.025458	0.901716	0.901518
C41	C	-0.602316	0.401712	0.401514
C42	C	-0.102316	0.901712	0.901514
C43	C	-0.602310	0.307466	0.307542
C44	C	-0.102310	0.807466	0.807542
C45	C	-0.525453	0.307475	0.307542
C46	C	-0.025453	0.807475	0.807542
C47	C	-0.487029	0.354599	0.354535
C48	C	0.012971	0.854599	0.854535
C49	C	-0.640745	0.354586	0.354531
C50	C	-0.140745	0.854586	0.854531
C51	C	-0.724078	0.354580	0.354526
C52	C	-0.224078	0.854580	0.854526
C53	C	-0.403690	0.354605	0.354538
C54	C	0.096310	0.854605	0.854538
C55	C	-1.063439	0.545801	0.354498
C56	C	-0.563439	1.045801	0.854498
C57	C	-1.063475	0.627600	0.354512
C58	C	-0.563475	1.127600	0.854512
C59	C	-1.063558	0.354544	0.546476
C60	C	-0.563558	0.854544	1.046476
C61	C	-1.063577	0.354522	0.628275
C62	C	-0.563577	0.854522	1.128275
C63	C	-0.255466	0.354616	0.354535
C64	C	0.244534	0.854616	0.854535
C65	C	-0.337265	0.354611	0.354541
C66	C	0.162735	0.854611	0.854541
C67	C	-1.110647	0.815788	0.307542
C68	C	-0.610647	1.315788	0.807542
C69	C	-1.110681	0.892647	0.307564
C70	C	-0.610681	1.392647	0.807564
C71	C	-1.016492	0.892649	0.401610
C72	C	-0.516492	1.392649	0.901610
C73	C	-1.016462	0.815791	0.401592
C74	C	-0.516462	1.315791	0.901592
C75	C	-1.063539	0.777363	0.354553
C76	C	-0.563539	1.277363	0.854553
C77	C	-1.063603	0.931079	0.354594
C78	C	-0.563603	1.431079	0.854594
C79	C	-1.063640	1.014413	0.354618
C80	C	-0.563640	1.514413	0.854618
C81	C	-1.063503	0.694024	0.354530
C82	C	-0.563503	1.194024	0.854530
C83	C	-1.063612	1.162642	0.354578
C84	C	-0.563612	1.662642	0.854578
C85	C	-1.063667	1.080843	0.354635
C86	C	-0.563667	1.580843	0.854635
C87	C	-1.063511	0.354592	0.163317
C88	C	-0.563511	0.854592	0.663317
C89	C	-1.063635	0.354406	0.081519
C90	C	-0.563635	0.854406	0.581519
C91	C	-1.110687	0.307416	0.816483
C92	C	-0.610687	0.807416	1.316483
C93	C	-1.110695	0.307394	0.893342
C94	C	-0.610695	0.807394	1.393342
C95	C	-1.016520	0.401515	0.893305
C96	C	-0.516520	0.901515	1.393305
C97	C	-1.016508	0.401532	0.816448
C98	C	-0.516508	0.901532	1.316448
C99	C	-1.063596	0.354484	0.778039
C100	C	-0.563596	0.854484	1.278039
C101	C	-1.063616	0.354445	0.931755
C102	C	-0.563616	0.854445	1.431755
C103	C	-1.063625	0.354422	1.015089
C104	C	-0.563625	0.854422	1.515089
C105	C	-1.063586	0.354505	0.694700
C106	C	-0.563586	0.854505	1.194700
H107	H	-0.494163	0.269105	0.269279
H108	H	0.005837	0.769105	0.769279
H109	H	-1.149043	0.923930	0.269284
H110	H	-0.649043	1.423930	0.769284
C111	C	-0.644584	0.255622	0.255865
C112	C	-0.144584	0.755622	0.755865
N113	N	-0.676424	0.216567	0.216945
N114	N	-0.176424	0.716567	0.716945
H115	H	-0.978156	0.439860	0.785145
H116	H	-0.478156	0.939860	1.285145
H117	H	-1.148980	0.784502	0.269242
H118	H	-0.648980	1.284502	0.769242
H119	H	-1.149026	0.269104	0.785213
H120	H	-0.649026	0.769104	1.285213
C121	C	-0.964725	0.453264	0.935562
C122	C	-0.464725	0.953264	1.435562
N123	N	-0.925712	0.492242	0.967389
N124	N	-0.425712	0.992242	1.467389
H125	H	-0.978164	0.923946	0.439906
H126	H	-0.478164	1.423946	0.939906
H127	H	-0.978101	0.784503	0.439877
H128	H	-0.478101	1.284503	0.939877
H129	H	-0.494175	0.440088	0.439782
H130	H	0.005825	0.940088	0.939782
C131	C	-1.162501	0.255618	0.935628
C132	C	-0.662501	0.755618	1.435628
N133	N	-1.201523	0.216617	0.967477
N134	N	-0.701523	0.716617	1.467477
H135	H	-0.633602	0.440080	0.439772
H136	H	-0.133602	0.940080	0.939772
