data_functionalizedCrystal
_audit_creation_method	'MofGen! by Chris Wilmer'
_symmetry_space_group_name_H-M	'P1'
_symmetry_Int_Tables_number	1
_symmetry_cell_setting	triclinic
loop_
_symmetry_equiv_pos_as_xyz
  x,y,z
_cell_length_a	16.992694
_cell_length_b	15.944551
_cell_length_c	16.053802
_cell_angle_alpha	92.564789
_cell_angle_beta	87.249047
_cell_angle_gamma	87.083481
loop_
_atom_site_label
_atom_site_type_symbol
_atom_site_fract_x
_atom_site_fract_y
_atom_site_fract_z
O1	O	1.043704	0.174798	-0.069327
O2	O	1.543704	0.674798	0.430673
O3	O	0.815419	0.172843	-0.069352
O4	O	1.315419	0.672843	0.430648
O5	O	0.935795	0.051964	-0.069332
O6	O	1.435795	0.551964	0.430668
O7	O	0.923328	0.295677	-0.069348
O8	O	1.423328	0.795677	0.430652
O9	O	0.929169	0.058588	0.069526
O10	O	1.429169	0.558588	0.569526
O11	O	0.808793	0.179467	0.069506
O12	O	1.308793	0.679467	0.569506
O13	O	1.037078	0.181422	0.069530
O14	O	1.537078	0.681422	0.569530
Zn15	Zn	0.921884	0.181497	0.091565
Zn16	Zn	1.421884	0.681497	0.591565
Zn17	Zn	0.930613	0.172769	-0.091386
Zn18	Zn	1.430613	0.672769	0.408614
O19	O	0.916702	0.302301	0.069510
O20	O	1.416702	0.802301	0.569510
C21	C	0.782894	0.173641	0.000074
C22	C	1.282894	0.673641	0.500074
C23	C	0.695850	0.166141	0.000065
C24	C	1.195850	0.666141	0.500065
C25	C	0.645613	0.238506	0.000061
C26	C	1.145613	0.738506	0.500061
C27	C	0.563826	0.231454	0.000073
C28	C	1.063826	0.731454	0.500073
C29	C	0.532276	0.152037	0.000083
C30	C	1.032276	0.652037	0.500083
C31	C	0.582519	0.079667	0.000089
C32	C	1.082519	0.579667	0.500089
C33	C	0.664305	0.086719	0.000083
C34	C	1.164305	0.586719	0.500083
C35	C	0.288676	0.122807	0.000107
C36	C	0.788676	0.622807	0.500107
C37	C	0.206884	0.115759	0.000111
C38	C	0.706884	0.615759	0.500111
C39	C	0.188196	0.267548	0.000095
C40	C	0.688196	0.767548	0.500095
C41	C	0.269984	0.274593	0.000084
C42	C	0.769984	0.774593	0.500084
C43	C	0.320220	0.202223	0.000095
C44	C	0.820220	0.702223	0.500095
N45	N	0.448677	0.144827	0.000092
N46	N	0.948677	0.644827	0.500092
N47	N	0.403818	0.209434	0.000092
N48	N	0.903818	0.709434	0.500092
C49	C	0.931964	0.023948	0.000097
C50	C	1.431964	0.523948	0.500097
C51	C	0.930413	-0.069402	0.000098
C52	C	1.430413	0.430598	0.500098
C53	C	0.852090	-0.289513	0.000078
C54	C	1.352090	0.210487	0.500078
C55	C	0.885194	-0.344825	0.068547
C56	C	1.385194	0.155175	0.568547
C57	C	0.927606	-0.240317	0.000091
C58	C	1.427606	0.259683	0.500091
C59	C	0.891744	-0.351338	-0.068356
C60	C	1.391744	0.148662	0.431644
C61	C	0.924889	-0.405412	0.000081
C62	C	1.424889	0.094588	0.500081
C63	C	0.960728	-0.294396	0.068617
C64	C	1.460728	0.205604	0.568617
C65	C	0.967271	-0.300907	-0.068348
C66	C	1.467271	0.199093	0.431652
C67	C	1.000429	-0.356196	0.000138
C68	C	1.500429	0.143804	0.500138
C69	C	0.929169	-0.145209	0.000098
C70	C	1.429169	0.354791	0.500098
C71	C	0.923332	-0.500518	0.000080
C72	C	1.423332	-0.000518	0.500080
C73	C	1.069603	0.180624	0.000103
C74	C	1.569603	0.680624	0.500103
C75	C	1.156648	0.188124	0.000106
C76	C	1.656648	0.688124	0.500106
C77	C	0.920533	0.330318	0.000079
C78	C	1.420533	0.830318	0.500079
C79	C	0.922085	0.423667	0.000073
C80	C	1.422085	0.923667	0.500073
N81	N	0.915931	0.187453	0.216424
N82	N	1.415931	0.687453	0.716424
N83	N	0.936572	0.166806	-0.216246
N84	N	1.436572	0.666806	0.283754
C85	C	0.967170	0.136040	0.260127
C86	C	1.467170	0.636040	0.760127
C87	C	0.963014	0.140215	0.347533
C88	C	1.463014	0.640215	0.847533
C89	C	0.907622	0.195808	0.391235
C90	C	1.407622	0.695808	0.891235
C91	C	0.856378	0.247223	0.347526
C92	C	1.356378	0.747223	0.847526
C93	C	0.860531	0.243043	0.260121
C94	C	1.360531	0.743043	0.760121
C95	C	0.889481	0.214042	0.652641
C96	C	1.389481	0.714042	1.152641
C97	C	0.885333	0.218220	0.740052
C98	C	1.385333	0.718220	1.240052
C99	C	0.991968	0.111209	0.740053
C100	C	1.491968	0.611209	1.240053
C101	C	0.996120	0.107038	0.652646
C102	C	1.496120	0.607038	1.152646
C103	C	0.944873	0.158450	0.608945
C104	C	1.444873	0.658450	1.108945
N105	N	0.903374	0.200078	0.480578
N106	N	1.403374	0.700078	0.980578
N107	N	0.949118	0.154175	0.519604
N108	N	1.449118	0.654175	1.019604
H109	H	0.295666	0.339262	0.000066
H110	H	0.795666	0.839262	0.500066
H111	H	0.862556	-0.376319	-0.126245
H112	H	1.362556	0.123681	0.373755
C113	C	0.465448	0.001458	0.000098
C114	C	0.965448	0.501458	0.500098
C115	C	0.547842	-0.007631	0.000099
C116	C	1.047842	0.492369	0.500099
H117	H	0.444043	-0.052439	0.000096
H118	H	0.944043	0.447561	0.500096
H119	H	0.445905	0.033789	0.048516
H120	H	0.945905	0.533789	0.548516
H121	H	0.450517	0.029176	-0.048330
H122	H	0.950517	0.529176	0.451670
H123	H	0.562773	-0.035344	0.048530
H124	H	1.062773	0.464656	0.548530
H125	H	0.567393	-0.039975	-0.048324
H126	H	1.067393	0.460025	0.451676
C127	C	0.430156	0.288042	0.000070
C128	C	0.930156	0.788042	0.500070
C129	C	0.508605	0.310999	0.000058
C130	C	1.008605	0.810999	0.500058
H131	H	0.396067	0.337153	0.000064
H132	H	0.896067	0.837153	0.500064
H133	H	0.422900	0.253392	-0.048342
H134	H	0.922900	0.753392	0.451658
H135	H	0.418296	0.258023	0.048504
H136	H	0.918296	0.758023	0.548504
H137	H	0.520467	0.341013	-0.048380
H138	H	1.020467	0.841013	0.451620
H139	H	0.515864	0.345663	0.048474
H140	H	1.015864	0.845663	0.548474
C141	C	0.770526	0.003192	-0.071296
C142	C	1.270526	0.503192	0.428704
C143	C	0.719532	0.007176	0.000085
C144	C	1.219532	0.507176	0.500085
H145	H	0.804623	-0.045914	-0.071288
H146	H	1.304623	0.454086	0.428712
H147	H	0.740536	0.001279	-0.119709
H148	H	1.240536	0.501279	0.380291
H149	H	0.801013	0.051505	-0.071293
H150	H	1.301013	0.551505	0.428707
H151	H	0.689041	-0.041134	0.000079
H152	H	1.189041	0.458866	0.500079
H153	H	0.749525	0.009082	0.048510
H154	H	1.249525	0.509082	0.548510
H155	H	0.789404	-0.260406	0.000139
H156	H	1.289404	0.239594	0.500139
C157	C	0.054526	0.324138	0.000105
C158	C	0.554526	0.824138	0.500105
C159	C	0.132975	0.347093	0.000094
C160	C	0.632975	0.847093	0.500094
H161	H	0.020436	0.373250	0.000112
H162	H	0.520436	0.873250	0.500112
H163	H	0.047268	0.289498	-0.048313
H164	H	0.547268	0.789498	0.451687
H165	H	0.042668	0.294108	0.048533
H166	H	0.542668	0.794108	0.548533
H167	H	0.144835	0.377118	-0.048337
H168	H	0.644835	0.877118	0.451663
H169	H	0.140237	0.381747	0.048517
H170	H	0.640237	0.881747	0.548517
H171	H	0.850491	-0.364314	0.126426
H172	H	1.350491	0.135686	0.626426
H173	H	0.989876	-0.269501	0.126566
H174	H	1.489876	0.230499	0.626566
H175	H	1.063164	-0.385145	0.000184
H176	H	1.563164	0.114855	0.500184
C177	C	0.977838	-0.303257	-0.218116
C178	C	1.477838	0.196743	0.281884
C179	C	1.014079	-0.274558	-0.146483
C180	C	1.514079	0.225442	0.353517
H181	H	1.006730	-0.286983	-0.266357
H182	H	1.506730	0.213017	0.233643
H183	H	0.976794	-0.362791	-0.218955
H184	H	1.476794	0.137209	0.281045
H185	H	0.925414	-0.279447	-0.217621
H186	H	1.425414	0.220553	0.282379
H187	H	1.066502	-0.298373	-0.146975
H188	H	1.566502	0.201627	0.353025
H189	H	1.015132	-0.215012	-0.145644
H190	H	1.515132	0.284988	0.354356
H191	H	0.847755	0.255905	0.617067
H192	H	1.347755	0.755905	1.117067
H193	H	0.811273	0.292485	0.383113
H194	H	1.311273	0.792485	0.883113
H195	H	0.329568	0.063878	0.000117
H196	H	0.829568	0.563878	0.500117
C197	C	1.097780	0.005008	0.731273
C198	C	1.597780	0.505008	1.231273
C199	C	1.048287	0.054688	0.788090
C200	C	1.548287	0.554688	1.288090
H201	H	1.132550	-0.029886	0.760930
H202	H	1.632550	0.470114	1.260930
H203	H	1.066759	-0.029039	0.697191
H204	H	1.566759	0.470961	1.197191
H205	H	1.127607	0.040261	0.697173
H206	H	1.627607	0.540261	1.197173
H207	H	1.018456	0.019435	0.822186
H208	H	1.518456	0.519435	1.322186
H209	H	1.079312	0.088738	0.822186
H210	H	1.579312	0.588738	1.322186
C211	C	0.233567	-0.033576	0.000134
C212	C	0.733567	0.466424	0.500134
C213	C	0.172204	0.028457	0.000123
C214	C	0.672204	0.528457	0.500123
H215	H	0.212155	-0.087468	0.000145
H216	H	0.712155	0.412532	0.500145
H217	H	0.267383	-0.029983	-0.048285
H218	H	0.767383	0.470017	0.451715
H219	H	0.262772	-0.025352	0.048561
H220	H	0.762772	0.474648	0.548561
H221	H	0.143003	0.020238	-0.048306
H222	H	0.643003	0.520238	0.451694
H223	H	0.138374	0.024862	0.048548
H224	H	0.638374	0.524862	0.548548
C225	C	1.072150	0.030679	0.268916
C226	C	1.572150	0.530679	0.768916
C227	C	1.028058	0.074927	0.212094
C228	C	1.528058	0.574927	0.712094
H229	H	1.109735	-0.007055	0.239262
H230	H	1.609735	0.492945	0.739262
H231	H	1.098734	0.069184	0.302994
H232	H	1.598734	0.569184	0.802994
H233	H	1.037882	-0.000112	0.303019
H234	H	1.537882	0.499888	0.803019
H235	H	1.062325	0.105724	0.177995
H236	H	1.562325	0.605724	0.677995
H237	H	1.001473	0.036417	0.178002
H238	H	1.501473	0.536417	0.678002
H239	H	1.004736	0.098349	0.383115
H240	H	1.504736	0.598349	0.883115
H241	H	0.840224	0.263494	0.775630
H242	H	1.340224	0.763494	1.275630
C243	C	1.049283	0.052498	0.518666
C244	C	1.549283	0.552498	1.018666
C245	C	1.056627	0.045498	0.604612
C246	C	1.556627	0.545498	1.104612
H247	H	1.086531	0.014382	0.489014
H248	H	1.586531	0.514382	0.989014
H249	H	0.997474	0.039560	0.504580
H250	H	1.497474	0.539560	1.004580
H251	H	1.058878	0.108297	0.504116
H252	H	1.558878	0.608297	1.004116
H253	H	1.047026	-0.010300	0.619164
H254	H	1.547026	0.489700	1.119164
H255	H	1.108448	0.058430	0.618704
H256	H	1.608448	0.558430	1.118704
C257	C	0.618917	0.387831	0.000055
C258	C	1.118917	0.887831	0.500055
C259	C	0.680288	0.325805	0.000051
C260	C	1.180288	0.825805	0.500051
H261	H	0.640323	0.441727	0.000057
H262	H	1.140323	0.941727	0.500057
H263	H	0.589712	0.379615	-0.048362
H264	H	1.089712	0.879615	0.451638
H265	H	0.585103	0.384225	0.048484
H266	H	1.085103	0.884225	0.548484
H267	H	0.714099	0.329407	-0.048381
H268	H	1.214099	0.829407	0.451619
H269	H	0.709506	0.334025	0.048474
H270	H	1.209506	0.834025	0.548474
C271	C	0.754718	0.349245	0.268894
C272	C	1.254718	0.849245	0.768894
C273	C	0.804212	0.299563	0.212080
C274	C	1.304212	0.799563	0.712080
H275	H	0.719950	0.384140	0.239234
H276	H	1.219950	0.884140	0.739234
H277	H	0.724896	0.314001	0.302994
H278	H	1.224896	0.814001	0.802994
H279	H	0.785744	0.383300	0.302976
H280	H	1.285744	0.883300	0.802976
H281	H	0.773185	0.265503	0.178002
H282	H	1.273185	0.765503	0.678002
H283	H	0.834036	0.334811	0.177966
H284	H	1.334036	0.834811	0.677966
