data_functionalizedCrystal
_audit_creation_method	'MofGen! by Chris Wilmer'
_symmetry_space_group_name_H-M	'P1'
_symmetry_Int_Tables_number	1
_symmetry_cell_setting	triclinic
loop_
_symmetry_equiv_pos_as_xyz
  x,y,z
_cell_length_a	34.490303
_cell_length_b	34.489386
_cell_length_c	34.485816
_cell_angle_alpha	60.004462
_cell_angle_beta	60.008900
_cell_angle_gamma	59.994399
loop_
_atom_site_label
_atom_site_type_symbol
_atom_site_fract_x
_atom_site_fract_y
_atom_site_fract_z
O1	O	0.053846	-0.566517	0.473678
O2	O	0.020329	-0.441078	0.381663
O3	O	0.099768	-0.520436	0.381578
O4	O	-0.025592	-0.487159	0.473762
O5	O	0.126127	-0.494082	0.407849
O6	O	0.046689	-0.414724	0.407933
O7	O	0.080206	-0.540163	0.499949
Zn8	Zn	0.067632	-0.473259	0.458112
Zn9	Zn	0.032903	-0.507982	0.423499
O10	O	0.000767	-0.460805	0.500033
N11	N	0.091336	-0.449565	0.481736
N12	N	0.009203	-0.531680	0.399875
C13	C	0.142510	-0.268211	0.532817
C14	C	0.142641	-0.398441	0.662987
C15	C	0.142524	-0.398421	0.532817
C16	C	0.272762	-0.398394	0.532723
C17	C	0.156853	-0.311177	0.547124
C18	C	0.156928	-0.384109	0.620020
C19	C	0.229794	-0.384081	0.547073
C20	C	0.156863	-0.384097	0.547124
C21	C	0.124253	-0.213522	0.514606
C22	C	0.124277	-0.416652	0.514606
C23	C	0.175110	-0.365866	0.565335
C24	C	0.352285	-0.384669	0.490824
C25	C	0.401998	-0.401229	0.474223
C26	C	0.402027	-0.481671	0.504898
C27	C	0.352316	-0.465109	0.521500
C28	C	0.136220	-0.188652	0.465734
C29	C	0.119621	-0.138936	0.449181
C30	C	0.079092	-0.138961	0.530374
C31	C	0.095691	-0.188678	0.546927
C32	C	0.075398	-0.404656	0.526651
C33	C	0.058814	-0.421229	0.510091
C34	C	0.139984	-0.461794	0.469452
C35	C	0.156570	-0.445221	0.486007
C36	C	0.075593	-0.404694	0.742565
C37	C	0.059066	-0.421281	0.792280
C38	C	0.140274	-0.461856	0.792215
C39	C	0.156800	-0.445269	0.742499
C40	C	0.124458	-0.416687	0.717675
C41	C	0.327446	-0.416608	0.514460
C42	C	-0.023585	-0.564792	0.161919
C43	C	-0.023910	-0.769260	0.366530
C44	C	-0.023880	-0.564780	0.366623
C45	C	-0.228325	-0.564561	0.366222
C46	C	-0.129610	-0.597564	0.333467
C47	C	-0.056729	-0.597644	0.333613
C48	C	-0.074925	-0.615849	0.315324
C49	C	-0.088689	-0.695351	0.357144
C50	C	-0.072155	-0.745068	0.373736
C51	C	0.008283	-0.745150	0.343188
C52	C	-0.008252	-0.695435	0.326596
C53	C	-0.154529	-0.609541	0.382326
C54	C	-0.204241	-0.592916	0.398818
C55	C	-0.204114	-0.552341	0.317588
C56	C	-0.154401	-0.568966	0.301096
C57	C	-0.068707	-0.548770	0.321590
C58	C	-0.052166	-0.532225	0.338221
C59	C	-0.011669	-0.613425	0.378886
C60	C	-0.028210	-0.629972	0.362261
C61	C	-0.068581	-0.548777	0.235758
C62	C	-0.051939	-0.532234	0.186043
C63	C	-0.011379	-0.613438	0.186090
C64	C	-0.028020	-0.629981	0.235806
C65	C	-0.056622	-0.597649	0.260639
C66	C	-0.056739	-0.670537	0.333576
C67	C	-0.005614	-0.545951	0.107238
C68	C	-0.006360	-0.823943	0.385033
C69	C	-0.005995	-0.545937	0.384582
C70	C	-0.283006	-0.545971	0.383725
N71	N	0.426163	-0.449489	0.481488
O72	O	0.588601	-0.457377	0.364497
O73	O	0.588789	-0.549696	0.489801
O74	O	0.588709	-0.549485	0.410335
O75	O	0.588681	-0.457588	0.443963
O76	O	0.509731	-0.523223	0.436741
O77	O	0.509811	-0.523434	0.516207
O78	O	0.509624	-0.431115	0.390903
Zn79	Zn	0.497178	-0.473105	0.457747
Zn80	Zn	0.601234	-0.507706	0.422956
O81	O	0.509704	-0.431326	0.470368
N82	N	0.672250	-0.531322	0.399211
N83	N	0.091303	-0.114798	0.481730
O84	O	-0.025603	0.047729	0.473733
O85	O	0.099703	0.047764	0.381394
O86	O	0.020199	0.047731	0.381655
O87	O	0.053901	0.047761	0.473472
O88	O	0.046564	-0.031252	0.407974
O89	O	0.126068	-0.031219	0.407713
O90	O	0.000762	-0.031254	0.500052
Zn91	Zn	0.067601	-0.043777	0.458061
Zn92	Zn	0.032864	0.060287	0.423385
O93	O	0.080266	-0.031222	0.499791
N94	N	0.009156	0.131307	0.399717
N95	N	0.091635	-0.449614	0.816396
O96	O	0.083664	-0.566502	0.978913
O97	O	-0.008637	-0.441152	0.978954
O98	O	-0.008421	-0.520640	0.978930
O99	O	0.083448	-0.487013	0.978936
O100	O	0.017877	-0.494296	0.899950
O101	O	0.017661	-0.414807	0.899974
O102	O	0.109961	-0.540157	0.899933
Zn103	Zn	0.067986	-0.473299	0.887414
Zn104	Zn	0.033338	-0.508010	0.991473
O105	O	0.109746	-0.460669	0.899956
N106	N	0.009689	-0.531700	1.062491
C107	C	0.030367	-0.412095	0.382120
C108	C	0.128741	-0.510370	0.382016
C109	C	0.070168	-0.569147	0.499490
C110	C	-0.028207	-0.470871	0.499595
C111	C	0.549323	-0.549278	0.518791
C112	C	0.549225	-0.549017	0.420381
C113	C	0.549087	-0.431532	0.361914
C114	C	0.549188	-0.431794	0.460322
C115	C	0.128638	0.008374	0.381806
C116	C	0.030215	0.008236	0.382161
C117	C	-0.028206	0.008233	0.499608
C118	C	0.070250	0.008272	0.499285
C119	C	-0.008199	-0.412187	0.939469
C120	C	-0.007927	-0.510619	0.939425
C121	C	0.109523	-0.569121	0.939417
C122	C	0.109257	-0.470684	0.939444
H123	H	0.049253	-0.381417	0.722357
O124	O	-0.071140	-0.462502	0.534176
C125	C	-0.119834	-0.493767	0.614251
C126	C	-0.071196	-0.503312	0.575127
H127	H	-0.119893	-0.526752	0.647373
H128	H	-0.148845	-0.484782	0.601213
H129	H	-0.126764	-0.462681	0.623141
H130	H	-0.064221	-0.534403	0.566220
H131	H	-0.042212	-0.512269	0.588186
H132	H	0.077330	-0.605181	0.528391
O133	O	-0.042713	-0.369201	0.939420
C134	C	-0.065676	-0.284717	0.898510
C135	C	-0.026545	-0.333367	0.898512
H136	H	-0.052623	-0.255734	0.865435
H137	H	-0.074631	-0.277728	0.931545
H138	H	-0.098761	-0.284678	0.898535
H139	H	0.006565	-0.333442	0.898471
H140	H	-0.017631	-0.340337	0.865480
O141	O	0.549115	-0.397294	0.468866
C142	C	0.508140	-0.318237	0.473382
C143	C	0.508168	-0.357263	0.463685
H144	H	0.475033	-0.285866	0.469208
H145	H	0.541141	-0.307787	0.447057
H146	H	0.508213	-0.332182	0.511099
H147	H	0.508079	-0.343351	0.425983
H148	H	0.475170	-0.367707	0.490040
H149	H	0.166612	-0.485121	0.812425
O150	O	0.549405	-0.583811	0.561742
C151	C	0.549462	-0.605881	0.639962
C152	C	0.549380	-0.566735	0.591338
H153	H	0.549431	-0.592087	0.663907
H154	H	0.582541	-0.638255	0.634971
H155	H	0.516437	-0.616275	0.657017
H156	H	0.582382	-0.556302	0.574257
H157	H	0.516279	-0.534388	0.596360
O158	O	0.171657	-0.518832	0.347436
C159	C	0.214073	-0.523065	0.268273
C160	C	0.165442	-0.513481	0.307398
H161	H	0.209064	-0.518733	0.235889
H162	H	0.238002	-0.560790	0.282050
H163	H	0.231154	-0.496733	0.257906
H164	H	0.148320	-0.539784	0.317782
H165	H	0.141546	-0.475744	0.293600
H166	H	0.077468	0.008281	0.528131
H167	H	0.138119	-0.463487	0.939440
O168	O	-0.096434	-0.517382	0.259896
C169	C	-0.172143	-0.488904	0.315946
C170	C	-0.140657	-0.524476	0.288633
H171	H	-0.207900	-0.494634	0.339194
H172	H	-0.177870	-0.451124	0.289640
H173	H	-0.153951	-0.494643	0.339250
H174	H	-0.158822	-0.518782	0.265329
H175	H	-0.134929	-0.562244	0.314966
H176	H	0.549027	-0.402547	0.325928
O177	O	0.171462	0.008620	0.347091
C178	C	0.219937	0.009025	0.266893
C179	C	0.171419	0.008741	0.306166
H180	H	0.219914	0.009133	0.233793
H181	H	0.249095	-0.023960	0.279764
H182	H	0.226708	0.042148	0.258040
H183	H	0.164603	-0.024360	0.315037
H184	H	0.142287	0.041748	0.293275
O185	O	0.016329	-0.644828	0.161951
C186	C	0.025266	-0.673226	0.105768
C187	C	-0.006164	-0.637657	0.133084
H188	H	0.007097	-0.667433	0.082415
H189	H	0.030941	-0.711007	0.132073
H190	H	0.061051	-0.667548	0.082569
H191	H	-0.041966	-0.643291	0.156284
H192	H	-0.011800	-0.599888	0.106754
H193	H	0.549237	-0.577886	0.413185
O194	O	-0.042286	-0.519256	0.939361
C195	C	-0.063992	-0.575665	0.939315
C196	C	-0.025035	-0.565943	0.939375
H197	H	-0.050062	-0.613414	0.939336
H198	H	-0.074358	-0.549391	0.906248
H199	H	-0.096415	-0.571395	0.972354
H200	H	0.007413	-0.570220	0.906359
H201	H	-0.014710	-0.592216	0.972464
H202	H	0.022995	0.008233	0.353314
O203	O	-0.071172	0.008251	0.534130
C204	C	-0.149400	0.008213	0.556252
C205	C	-0.100765	0.008198	0.517112
H206	H	-0.173336	0.008160	0.542510
H207	H	-0.166478	0.041280	0.566595
H208	H	-0.144376	-0.024828	0.588643
H209	H	-0.105747	0.041217	0.484695
H210	H	-0.083704	-0.024891	0.506809
O211	O	0.144038	-0.612101	0.939421
C212	C	0.166131	-0.690321	0.939361
C213	C	0.126998	-0.641673	0.939370
H214	H	0.152373	-0.714240	0.939309
H215	H	0.176498	-0.707415	0.972419
H216	H	0.198511	-0.685308	0.906313
H217	H	0.094594	-0.646644	0.972396
H218	H	0.116672	-0.624596	0.906290
H219	H	0.196592	-0.455039	0.722237
O220	O	0.011585	-0.409642	0.816401
C221	C	-0.062876	-0.413463	0.831682
C222	C	-0.009112	-0.426662	0.804328
H223	H	-0.079624	-0.427226	0.821939
H224	H	-0.079675	-0.373208	0.821913
H225	H	-0.069125	-0.430212	0.871477
H226	H	-0.002821	-0.409944	0.764527
H227	H	0.007660	-0.466921	0.814136
O228	O	0.044009	-0.376833	0.554357
C229	C	-0.020344	-0.303684	0.560759
C230	C	0.015187	-0.335142	0.529328
H231	H	-0.043663	-0.269974	0.540539
H232	H	-0.000121	-0.293858	0.570518
H233	H	-0.043575	-0.323951	0.594509
H234	H	0.038426	-0.314903	0.495559
H235	H	-0.005066	-0.344970	0.519608
O236	O	0.011329	-0.409639	0.521871
C237	C	-0.063089	-0.413449	0.584944
C238	C	-0.009319	-0.426612	0.571668
H239	H	-0.079801	-0.427157	0.625204
H240	H	-0.069420	-0.430215	0.568229
H241	H	-0.079860	-0.373193	0.571221
H242	H	0.007487	-0.466861	0.585388
H243	H	-0.003022	-0.409812	0.588376
H244	H	0.166284	-0.485062	0.446169
H245	H	0.196371	-0.454985	0.476195
H246	H	0.332093	-0.491119	0.540748
H247	H	0.422274	-0.521162	0.510626
O248	O	0.021912	-0.369128	0.347594
C249	C	0.053029	-0.320304	0.267537
C250	C	0.062672	-0.368981	0.306599
H251	H	0.085973	-0.320173	0.234380
H252	H	0.044031	-0.291319	0.280615
H253	H	0.021926	-0.313396	0.258688
H254	H	0.093781	-0.375935	0.315465
H255	H	0.071642	-0.397940	0.293501
O256	O	0.426057	-0.370137	0.451251
C257	C	0.420788	-0.288606	0.422593
C258	C	0.393481	-0.323764	0.448611
H259	H	0.394462	-0.251108	0.420459
H260	H	0.444021	-0.290085	0.385196
H261	H	0.444102	-0.298608	0.442895
H262	H	0.370142	-0.313787	0.428349
H263	H	0.370278	-0.322279	0.486010
H264	H	0.332037	-0.345175	0.485091
H265	H	0.159477	-0.208876	0.439413
H266	H	0.055841	-0.118733	0.556693
O267	O	0.131304	-0.114848	0.401690
C268	C	0.173227	-0.120068	0.322903
C269	C	0.160043	-0.147404	0.376674
H270	H	0.196455	-0.146378	0.302662
H271	H	0.193487	-0.096794	0.313074
H272	H	0.139464	-0.096788	0.313167
H273	H	0.193781	-0.170709	0.386449
H274	H	0.139764	-0.170648	0.386474
H275	H	0.085944	-0.208923	0.586721
H276	H	-0.061683	-0.492436	0.165791
H277	H	-0.018278	-0.669778	0.256062
H278	H	-0.061921	-0.492427	0.328433
O279	O	0.016085	-0.644875	0.406656
C280	C	0.089217	-0.709235	0.413118
C281	C	0.057828	-0.673650	0.381621
H282	H	0.122977	-0.732502	0.392887
H283	H	0.068966	-0.732514	0.446824
H284	H	0.098958	-0.689006	0.422953
H285	H	0.048077	-0.693840	0.371750
H286	H	0.078096	-0.650371	0.347938
O287	O	-0.016595	-0.677457	0.374003
C288	C	-0.020505	-0.751899	0.437006
C289	C	-0.033681	-0.698134	0.423787
H290	H	-0.034321	-0.768632	0.477255
H291	H	0.019748	-0.768724	0.423376
H292	H	-0.037217	-0.758140	0.420164
H293	H	-0.017001	-0.691851	0.440624
H294	H	-0.073938	-0.681336	0.437407
H295	H	0.017768	-0.675232	0.307405
O296	O	0.055399	-0.769319	0.336327
C297	C	0.134493	-0.784592	0.279561
C298	C	0.081149	-0.757200	0.287265
H299	H	0.155328	-0.774796	0.239897
H300	H	0.140852	-0.824393	0.295434
H301	H	0.146791	-0.774840	0.297656
H302	H	0.068814	-0.766912	0.269170
H303	H	0.074820	-0.717405	0.271404
O304	O	-0.103266	-0.769100	0.396695
C305	C	-0.184810	-0.763774	0.425349
C306	C	-0.149624	-0.736497	0.399314
H307	H	-0.222297	-0.737426	0.427466
H308	H	-0.183340	-0.786996	0.462753
H309	H	-0.174833	-0.787099	0.405071
H310	H	-0.159578	-0.713146	0.419552
H311	H	-0.151100	-0.713304	0.361908
H312	H	-0.128170	-0.675084	0.362831
O313	O	-0.130497	-0.637368	0.413814
C314	C	-0.115379	-0.710542	0.478163
C315	C	-0.142632	-0.679069	0.442536
H316	H	-0.125172	-0.744268	0.501387
H317	H	-0.125187	-0.690327	0.501478
H318	H	-0.075570	-0.720342	0.457972
H319	H	-0.182447	-0.669260	0.462688
H320	H	-0.132784	-0.699302	0.419221
O321	O	-0.228505	-0.604569	0.446271
C322	C	-0.284693	-0.642772	0.512017
C323	C	-0.257253	-0.629595	0.458270
H324	H	-0.307936	-0.663016	0.521736
H325	H	-0.308000	-0.609036	0.521799
H326	H	-0.258428	-0.666049	0.532312
H327	H	-0.283484	-0.606330	0.437938
H328	H	-0.233940	-0.663350	0.448524
H329	H	-0.224299	-0.529059	0.291228
O330	O	-0.130212	-0.557391	0.253627
C331	C	-0.114915	-0.561175	0.179132
C332	C	-0.142330	-0.574322	0.232885
H333	H	-0.124710	-0.574849	0.162345
H334	H	-0.075121	-0.577984	0.172879
H335	H	-0.124644	-0.520922	0.162374
H336	H	-0.132641	-0.614568	0.249679
H337	H	-0.182118	-0.557480	0.239104
H338	H	-0.091926	-0.522444	0.298262
