data_functionalizedCrystal
_audit_creation_method	'MofGen! by Chris Wilmer'
_symmetry_space_group_name_H-M	'P1'
_symmetry_Int_Tables_number	1
_symmetry_cell_setting	triclinic
loop_
_symmetry_equiv_pos_as_xyz
  x,y,z
_cell_length_a	14.971486
_cell_length_b	14.971486
_cell_length_c	14.048226
_cell_angle_alpha	89.998499
_cell_angle_beta	89.993360
_cell_angle_gamma	83.614129
loop_
_atom_site_label
_atom_site_type_symbol
_atom_site_fract_x
_atom_site_fract_y
_atom_site_fract_z
O1	O	0.116565	1.186947	-0.079052
O2	O	0.130523	0.926547	-0.079078
O3	O	-0.006656	1.063726	-0.079057
O4	O	0.253744	1.049768	-0.079072
O5	O	-0.006664	1.063710	0.079264
O6	O	0.130515	0.926530	0.079244
O7	O	0.116556	1.186930	0.079270
Zn8	Zn	0.123535	1.056728	0.104394
Zn9	Zn	0.123545	1.056750	-0.104202
O10	O	0.253736	1.049751	0.079249
C11	C	0.129895	0.893214	0.000080
C12	C	0.128024	0.793917	0.000070
C13	C	-0.039985	1.063094	0.000103
C14	C	-0.139282	1.061223	0.000102
C15	C	0.208614	0.736692	0.000067
C16	C	0.206850	0.643392	0.000081
C17	C	0.124497	0.607320	0.000092
C18	C	0.043902	0.664552	0.000098
C19	C	0.045666	0.757850	0.000090
C20	C	0.040231	0.470090	0.000111
C21	C	0.038466	0.376786	0.000117
C22	C	0.201415	0.355632	0.000102
C23	C	0.203179	0.448930	0.000094
C24	C	0.122584	0.506156	0.000099
C25	C	-0.196507	1.141812	0.000111
C26	C	-0.289807	1.140049	0.000101
C27	C	-0.325879	1.057696	0.000089
C28	C	-0.268646	0.977101	0.000078
C29	C	-0.175349	0.978865	0.000081
C30	C	-0.463109	0.973430	0.000074
C31	C	-0.556413	0.971665	0.000073
C32	C	-0.577567	1.134614	0.000094
C33	C	-0.484269	1.136378	0.000097
C34	C	-0.427043	1.055782	0.000088
C35	C	0.287065	1.050384	0.000087
C36	C	0.386362	1.052254	0.000082
C37	C	0.117185	1.220263	0.000110
C38	C	0.119056	1.319561	0.000114
N39	N	0.123527	1.056719	0.246754
N40	N	0.123546	1.056765	-0.246562
C41	C	0.062809	1.117482	0.296581
C42	C	0.062808	1.117488	0.396239
C43	C	0.123531	1.056735	0.446068
C44	C	0.184252	0.995966	0.396234
C45	C	0.184247	0.995957	0.296578
C46	C	0.184258	0.995992	0.603948
C47	C	0.184264	0.996003	0.703611
C48	C	0.062819	1.117523	0.703609
C49	C	0.062815	1.117514	0.603953
C50	C	0.123537	1.056746	0.554126
H51	H	0.275675	0.766054	0.000057
F52	F	-0.001815	1.182156	0.449269
F53	F	0.290829	0.487318	0.000073
F54	F	-0.402206	0.887650	0.000062
H55	H	0.013377	1.167002	0.744184
F56	F	-0.350707	1.225824	0.000112
H57	H	-0.028593	0.347419	0.000127
F58	F	-0.158125	1.229465	0.000133
F59	F	0.248869	0.931283	0.243550
F60	F	-0.445880	1.224028	0.000108
F61	F	-0.114445	0.893090	0.000069
H62	H	-0.019958	0.804443	0.000093
F63	F	0.292625	0.582492	0.000073
H64	H	0.013365	1.166957	0.256017
F65	F	0.248892	0.931340	0.756635
F66	F	0.248884	0.931312	0.550922
H67	H	0.267039	0.309033	0.000103
H68	H	-0.624165	1.200238	0.000099
H69	H	-0.025399	0.516682	0.000116
F70	F	0.248874	0.931304	0.449266
F71	F	-0.001807	1.182177	0.550921
H72	H	-0.585780	0.904606	0.000079
F73	F	-0.043745	0.626159	0.000116
F74	F	-0.307040	0.889454	0.000055
