data_functionalizedCrystal
_audit_creation_method	'MofGen! by Chris Wilmer'
_symmetry_space_group_name_H-M	'P1'
_symmetry_Int_Tables_number	1
_symmetry_cell_setting	triclinic
loop_
_symmetry_equiv_pos_as_xyz
  x,y,z
_cell_length_a	10.489746
_cell_length_b	10.489746
_cell_length_c	9.730223
_cell_angle_alpha	90.002894
_cell_angle_beta	89.996704
_cell_angle_gamma	84.541301
loop_
_atom_site_label
_atom_site_type_symbol
_atom_site_fract_x
_atom_site_fract_y
_atom_site_fract_z
O1	O	1.694045	0.179996	0.114199
O2	O	1.322850	0.196882	0.114222
O3	O	1.516890	0.002842	0.114199
O4	O	1.500004	0.374036	0.114221
O5	O	1.516891	0.002842	-0.114380
O6	O	1.322850	0.196882	-0.114358
O7	O	1.694045	0.179996	-0.114381
Zn8	Zn	1.508448	0.188439	-0.150662
Zn9	Zn	1.508447	0.188439	0.150502
O10	O	1.500005	0.374036	-0.114359
C11	C	1.275319	0.195605	-0.000065
C12	C	1.133689	0.191785	-0.000057
C13	C	0.980829	0.066062	-0.000083
C14	C	1.058225	0.128919	-0.112778
C15	C	1.058180	0.128948	0.112584
C16	C	0.958735	0.247900	-0.112878
C17	C	0.958685	0.247912	0.112585
C18	C	1.036031	0.310856	-0.000137
C19	C	1.515614	-0.044690	-0.000090
C20	C	1.511794	-0.186319	-0.000089
C21	C	1.386071	-0.339179	-0.000064
C22	C	1.448927	-0.261786	0.112631
C23	C	1.448957	-0.261827	-0.112731
C24	C	1.567908	-0.361275	0.112730
C25	C	1.567921	-0.361322	-0.112733
C26	C	1.630864	-0.283978	-0.000011
C27	C	1.741576	0.181273	-0.000091
C28	C	1.883206	0.185093	-0.000091
C29	C	1.501281	0.421568	-0.000066
C30	C	1.505101	0.563197	-0.000058
N31	N	1.508457	0.188438	-0.356198
C32	C	1.586521	0.266552	-0.572033
C33	C	1.586523	0.266561	-0.428150
C34	C	1.430375	0.110312	-0.428137
C35	C	1.430367	0.110312	-0.572017
C36	C	1.676676	0.356757	-0.572039
C37	C	1.676678	0.356766	-0.428156
N38	N	1.508448	0.188429	0.356039
H39	H	0.915185	0.298115	0.207872
Cl40	Cl	0.942652	-0.093732	-0.000263
H41	H	1.366781	0.046708	-0.630576
H42	H	1.636596	0.452801	-0.383524
Cl43	Cl	1.073824	0.470773	-0.000213
H44	H	1.366803	0.046713	-0.369542
H45	H	1.645313	0.457333	-0.611076
Cl46	Cl	1.125252	0.051337	0.259684
Cl47	Cl	1.790779	-0.246176	0.000071
H48	H	1.618122	-0.404555	0.208114
H49	H	1.101700	0.078670	-0.208061
H50	H	1.772716	0.316710	-0.616680
Cl51	Cl	1.226276	-0.377356	0.000115
Cl52	Cl	1.831975	0.308429	-0.367876
Cl53	Cl	1.371352	-0.194668	0.259746
H54	H	1.398686	-0.218383	-0.208007
Cl55	Cl	0.891925	0.325426	-0.260148
Cl56	Cl	1.645432	-0.428486	-0.259851
