data_functionalizedCrystal
_audit_creation_method	'MofGen! by Chris Wilmer'
_symmetry_space_group_name_H-M	'P1'
_symmetry_Int_Tables_number	1
_symmetry_cell_setting	triclinic
loop_
_symmetry_equiv_pos_as_xyz
  x,y,z
_cell_length_a	8.559649
_cell_length_b	15.944551
_cell_length_c	7.088929
_cell_angle_alpha	83.774879
_cell_angle_beta	95.325015
_cell_angle_gamma	76.638701
loop_
_atom_site_label
_atom_site_type_symbol
_atom_site_fract_x
_atom_site_fract_y
_atom_site_fract_z
O1	O	2.103727	-0.018804	-0.158956
O2	O	1.638526	0.024575	-0.158968
O3	O	1.883832	-0.120210	-0.158944
O4	O	1.858421	0.125981	-0.158979
O5	O	1.916614	-0.139599	0.159034
O6	O	1.671309	0.005187	0.159010
O7	O	2.136509	-0.038193	0.159023
Cu8	Cu	1.906902	-0.018273	0.188050
Cu9	Cu	1.868133	0.004656	-0.187996
O10	O	1.891203	0.106593	0.158999
C11	C	1.595388	0.018169	0.000020
C12	C	1.418008	0.027954	0.000015
C13	C	1.899168	-0.161130	0.000045
C14	C	1.896006	-0.254172	0.000046
C15	C	1.736394	-0.458727	0.000015
C16	C	1.826675	-0.534087	0.156800
C17	C	1.890284	-0.424528	0.000031
C18	C	1.794391	-0.514957	-0.156702
C19	C	1.884745	-0.589082	0.000009
C20	C	1.980621	-0.498671	0.156945
C21	C	1.948300	-0.479525	-0.156697
C22	C	2.038697	-0.554877	0.000126
C23	C	1.893471	-0.329732	0.000046
C24	C	1.881571	-0.683878	0.000008
C25	C	2.179647	-0.031786	0.000031
C26	C	2.357025	-0.041571	0.000022
C27	C	1.875866	0.147513	0.000005
C28	C	1.879027	0.240556	-0.000008
N29	N	1.934182	-0.034401	0.452541
N30	N	1.840866	0.020776	-0.452487
H31	H	1.608676	-0.417185	0.000169
H32	H	2.030912	-0.091580	0.534206
O33	O	1.700419	-0.524415	-0.314689
C34	C	1.593490	-0.623420	-0.492650
C35	C	1.699940	-0.612835	-0.313641
H36	H	1.593095	-0.694906	-0.491882
H37	H	1.464610	-0.583368	-0.492446
H38	H	1.644053	-0.599822	-0.626229
H39	H	1.649520	-0.636443	-0.179967
H40	H	1.828805	-0.652871	-0.314014
O41	O	1.725284	0.088958	0.450321
C42	C	1.441235	0.159905	0.388647
C43	C	1.571971	0.082656	0.498886
H44	H	1.317249	0.154826	0.427841
H45	H	1.466127	0.223458	0.427915
H46	H	1.443545	0.158586	0.228449
H47	H	1.569735	0.083892	0.659109
H48	H	1.547033	0.019136	0.459459
H49	H	1.334507	0.094969	-0.000005
O50	O	1.456754	-0.121455	-0.000220
C51	C	1.650143	-0.211935	-0.164999
C52	C	1.537284	-0.121420	-0.164939
H53	H	1.715256	-0.211942	-0.298180
H54	H	1.742940	-0.228202	-0.032014
H55	H	1.575683	-0.262696	-0.164901
H56	H	1.611610	-0.070600	-0.165104
H57	H	1.444482	-0.105228	-0.297911
O58	O	2.074413	-0.489331	0.315196
C59	C	2.182690	-0.390619	0.492684
C60	C	2.076407	-0.401073	0.313410
H61	H	2.184365	-0.319269	0.491279
H62	H	2.131299	-0.413565	0.626194
H63	H	2.311197	-0.431304	0.493232
H64	H	1.947878	-0.360390	0.312677
H65	H	2.127931	-0.378155	0.179981
H66	H	1.775252	-0.558076	0.289345
H67	H	2.166552	-0.596292	0.000218
H68	H	1.999667	-0.455510	-0.289250
