data_functionalizedCrystal
_audit_creation_method	'MofGen! by Chris Wilmer'
_symmetry_space_group_name_H-M	'P1'
_symmetry_Int_Tables_number	1
_symmetry_cell_setting	triclinic
loop_
_symmetry_equiv_pos_as_xyz
  x,y,z
_cell_length_a	14.044220
_cell_length_b	14.044220
_cell_length_c	13.101039
_cell_angle_alpha	93.667477
_cell_angle_beta	86.340132
_cell_angle_gamma	93.188878
loop_
_atom_site_label
_atom_site_type_symbol
_atom_site_fract_x
_atom_site_fract_y
_atom_site_fract_z
O1	O	-1.281968	-0.225348	0.085109
O2	O	-0.781968	0.274652	0.585109
O3	O	-1.005298	-0.217041	0.085135
O4	O	-0.505298	0.282959	0.585135
O5	O	-1.139480	-0.082860	0.085112
O6	O	-0.639480	0.417140	0.585112
O7	O	-1.147787	-0.359530	0.085132
O8	O	-0.647787	0.140470	0.585132
O9	O	-1.129854	-0.092504	-0.085316
O10	O	-0.629854	0.407496	0.414684
O11	O	-0.995673	-0.226686	-0.085293
O12	O	-0.495673	0.273314	0.414707
O13	O	-1.272343	-0.234993	-0.085319
O14	O	-0.772343	0.265007	0.414681
Zn15	Zn	-1.132479	-0.232371	-0.112365
Zn16	Zn	-0.632479	0.267629	0.387635
Zn17	Zn	-1.145162	-0.219663	0.112181
Zn18	Zn	-0.645162	0.280337	0.612181
O19	O	-1.138161	-0.369175	-0.085296
O20	O	-0.638161	0.130825	0.414704
C21	C	-0.964864	-0.218228	-0.000076
C22	C	-0.464864	0.281772	0.499924
C23	C	-0.858722	-0.207383	-0.000066
C24	C	-0.358722	0.292617	0.499934
C25	C	-1.131031	-0.052060	-0.000102
C26	C	-0.631031	0.447940	0.499898
C27	C	-1.120187	0.054083	-0.000102
C28	C	-0.620187	0.554083	0.499898
C29	C	-1.312777	-0.233806	-0.000106
C30	C	-0.812777	0.266194	0.499894
C31	C	-1.418920	-0.244651	-0.000109
C32	C	-0.918920	0.255349	0.499891
C33	C	-0.664383	-0.187558	-0.000088
C34	C	-0.164383	0.312442	0.499912
C35	C	-0.613253	-0.264472	-0.000087
C36	C	-0.113253	0.235528	0.499913
C37	C	-0.505116	-0.253441	-0.000099
C38	C	-0.005116	0.246559	0.499901
C39	C	-0.772529	-0.198587	-0.000076
C40	C	-0.272529	0.301413	0.499924
N41	N	-1.123831	-0.241043	-0.265612
N42	N	-0.623831	0.258957	0.234388
C43	C	-1.146610	-0.399974	-0.000080
C44	C	-0.646610	0.100026	0.499920
C45	C	-1.157455	-0.506116	-0.000073
C46	C	-0.657455	-0.006116	0.499927
C47	C	-1.100362	0.248421	-0.000086
C48	C	-0.600362	0.748421	0.499914
C49	C	-1.177276	0.299551	-0.000090
C50	C	-0.677276	0.799551	0.499910
C51	C	-1.166245	0.407688	-0.000080
C52	C	-0.666245	0.907688	0.499920
C53	C	-1.111391	0.140275	-0.000095
C54	C	-0.611391	0.640275	0.499905
C55	C	-1.112065	-0.252851	-0.474653
C56	C	-0.612065	0.247149	0.025347
C57	C	-1.165580	-0.199179	-0.525538
C58	C	-0.665580	0.300821	-0.025538
C59	C	-1.159034	-0.205749	-0.641855
C60	C	-0.659034	0.294251	-0.141855
C61	C	-1.118610	-0.246282	-0.358325
C62	C	-0.618610	0.253718	0.141675
N63	N	-1.153817	-0.210984	0.265428
N64	N	-0.653817	0.289016	0.765428
H65	H	-0.650693	-0.338605	-0.000077
H66	H	-0.150693	0.161395	0.499923
C67	C	-1.234148	-0.130469	-0.466384
C68	C	-0.734148	0.369531	0.033616
H69	H	-1.229630	-0.135028	-0.394832
H70	H	-0.729630	0.364972	0.105168
H71	H	-1.217349	-0.066854	-0.483893
H72	H	-0.717349	0.433146	0.016107
H73	H	-1.297785	-0.147165	-0.483919
H74	H	-0.797785	0.352835	0.016081
C75	C	-1.277422	0.248979	-0.000122
C76	C	-0.777422	0.748979	0.499878
H77	H	-1.271796	0.181878	-0.000138
H78	H	-0.771796	0.681878	0.499862
H79	H	-1.314494	0.270273	0.059301
H80	H	-0.814494	0.770273	0.559301
H81	H	-1.307751	0.263571	-0.059571
H82	H	-0.807751	0.763571	0.440429
C83	C	-1.043542	-0.321596	-0.533806
C84	C	-0.543542	0.178404	-0.033806
H85	H	-1.048086	-0.317055	-0.605357
H86	H	-0.548086	0.182945	-0.105357
H87	H	-0.979895	-0.304951	-0.516295
H88	H	-0.479895	0.195049	-0.016295
H89	H	-1.060389	-0.385204	-0.516281
H90	H	-0.560389	0.114796	-0.016281
H91	H	-0.626945	-0.113431	-0.000099
H92	H	-0.126945	0.386569	0.499901
H93	H	-1.026235	0.285859	-0.000076
H94	H	-0.526235	0.785859	0.499924
