data_functionalizedCrystal
_audit_creation_method	'MofGen! by Chris Wilmer'
_symmetry_space_group_name_H-M	'P1'
_symmetry_Int_Tables_number	1
_symmetry_cell_setting	triclinic
loop_
_symmetry_equiv_pos_as_xyz
  x,y,z
_cell_length_a	16.625547
_cell_length_b	19.121111
_cell_length_c	16.625539
_cell_angle_alpha	87.587585
_cell_angle_beta	89.978691
_cell_angle_gamma	87.529553
loop_
_atom_site_label
_atom_site_type_symbol
_atom_site_fract_x
_atom_site_fract_y
_atom_site_fract_z
Zn1	Zn	1.218921	0.279627	-0.469681
Zn2	Zn	1.718921	0.779627	0.030319
Zn3	Zn	1.213065	0.397081	-0.340594
Zn4	Zn	1.713065	0.897081	0.159406
Zn5	Zn	1.084090	0.279648	-0.334852
Zn6	Zn	1.584090	0.779648	0.165148
Zn7	Zn	1.078287	0.397042	-0.475372
Zn8	Zn	1.578287	0.897042	0.024628
O9	O	1.148591	0.338349	-0.405125
O10	O	1.648591	0.838349	0.094875
O11	O	1.330976	0.295215	-0.452578
O12	O	1.830976	0.795215	0.047422
O13	O	1.195933	0.381528	-0.227001
O14	O	1.695933	0.881528	0.272999
O15	O	1.106855	0.181360	-0.347953
O16	O	1.606855	0.681360	0.152047
O17	O	1.326673	0.381508	-0.357739
O18	O	1.826673	0.881508	0.142261
O19	O	1.205915	0.181345	-0.447011
O20	O	1.705915	0.681345	0.052989
O21	O	1.101176	0.295250	-0.222783
O22	O	1.601176	0.795250	0.277217
O23	O	0.970488	0.295213	-0.353471
O24	O	1.470488	0.795213	0.146529
O25	O	1.096965	0.381442	-0.587448
O26	O	1.596965	0.881442	-0.087448
O27	O	0.966225	0.381462	-0.456711
O28	O	1.466225	0.881462	0.043289
O29	O	1.200288	0.295177	-0.583267
O30	O	1.700288	0.795177	-0.083267
O31	O	1.190307	0.495360	-0.363257
O32	O	1.690307	0.995360	0.136743
O33	O	1.091286	0.495332	-0.462278
O34	O	1.591286	0.995332	0.037722
C35	C	0.939100	0.338336	-0.405086
C36	C	1.439100	0.838336	0.094914
C37	C	0.849479	0.338347	-0.405089
C38	C	1.349479	0.838347	0.094911
C39	C	0.776696	0.338348	-0.405099
C40	C	1.276696	0.838348	0.094901
C41	C	0.685388	0.338352	-0.405120
C42	C	1.185388	0.838352	0.094880
C43	C	0.612611	0.338358	-0.405141
C44	C	1.112611	0.838358	0.094859
C45	C	0.521296	0.338363	-0.405160
C46	C	1.021296	0.838363	0.094840
C47	C	1.139553	0.520830	-0.414026
C48	C	1.639553	1.020830	0.085974
C49	C	1.135761	0.598896	-0.417861
C50	C	1.635761	1.098896	0.082139
C51	C	1.185574	0.635563	-0.368150
C52	C	1.685574	1.135563	0.131850
C53	C	1.182012	0.708915	-0.371762
C54	C	1.682012	1.208915	0.128238
C55	C	1.128632	0.745598	-0.425080
C56	C	1.628632	1.245598	0.074920
C57	C	1.078817	0.708925	-0.474796
C58	C	1.578817	1.208925	0.025204
C59	C	1.082384	0.635575	-0.471188
C60	C	1.582384	1.135575	0.028812
C61	C	1.115286	0.967068	-0.438555
C62	C	1.615286	1.467068	0.061445
C63	C	1.111721	1.040423	-0.442157
C64	C	1.611721	1.540423	0.057843
C65	C	1.214917	1.040407	-0.339124
C66	C	1.714917	1.540407	0.160876
C67	C	1.218476	0.967056	-0.335517
C68	C	1.718476	1.467056	0.164483
C69	C	1.168664	0.930390	-0.385236
C70	C	1.668664	1.430390	0.114764
C71	C	1.124988	0.820574	-0.428771
C72	C	1.624988	1.320574	0.071229
C73	C	1.172312	0.855414	-0.381548
C74	C	1.672312	1.355414	0.118452
C75	C	1.358899	0.338364	-0.405164
C76	C	1.858899	0.838364	0.094836
C77	C	1.448520	0.338370	-0.405181
C78	C	1.948520	0.838370	0.094819
C79	C	1.157679	1.155156	-0.396217
C80	C	1.657679	1.655156	0.103783
C81	C	1.161534	1.077090	-0.392447
C82	C	1.661534	1.577090	0.107553
C83	C	1.148632	0.338303	-0.615431
C84	C	1.648632	0.838303	-0.115431
C85	C	1.148650	0.338283	-0.705052
C86	C	1.648650	0.838283	-0.205052
C87	C	1.148664	0.338268	-0.777833
C88	C	1.648664	0.838268	-0.277833
C89	C	1.148684	0.338242	-0.869141
C90	C	1.648684	0.838242	-0.369141
C91	C	1.148704	0.338217	-0.941916
C92	C	1.648704	0.838217	-0.441916
C93	C	1.148726	0.338191	-1.033229
C94	C	1.648726	0.838191	-0.533229
C95	C	1.148598	0.338345	-0.195634
C96	C	1.648598	0.838345	0.304366
C97	C	1.148746	0.338167	-0.106004
C98	C	1.648746	0.838167	0.393996
H99	H	1.229038	0.605701	-0.324729
H100	H	1.729038	1.105701	0.175271
H101	H	1.068263	1.070288	-0.485590
H102	H	1.568263	1.570288	0.014410
H103	H	1.215777	0.825545	-0.338140
H104	H	1.715777	1.325545	0.161860
O105	O	1.073240	0.856288	-0.480601
O106	O	1.573240	1.356288	0.019399
C107	C	1.117056	0.898639	-0.534820
C108	C	1.617056	1.398639	-0.034820
H109	H	1.177650	0.909592	-0.506986
H110	H	1.677650	1.409592	-0.006986
H111	H	1.127245	0.870333	-0.593194
H112	H	1.627245	1.370333	-0.093194
C113	C	0.994881	0.954890	-0.586978
C114	C	1.494881	1.454890	-0.086978
C115	C	1.069301	0.968348	-0.552789
C116	C	1.569301	1.468348	-0.052789
H117	H	0.965423	0.997889	-0.598065
H118	H	1.465423	1.497889	-0.098065
H119	H	0.965360	0.926356	-0.550452
H120	H	1.465360	1.426356	-0.050452
H121	H	1.003382	0.931300	-0.635619
H122	H	1.503382	1.431300	-0.135619
H123	H	1.060798	0.991930	-0.504144
H124	H	1.560798	1.491930	-0.004144
H125	H	1.098819	0.996888	-0.589307
H126	H	1.598819	1.496888	-0.089307
H127	H	1.035358	0.738798	-0.518213
H128	H	1.535358	1.238798	-0.018213
H129	H	1.074725	0.937220	-0.479037
H130	H	1.574725	1.437220	0.020963
O131	O	1.230429	0.744424	-0.323389
O132	O	1.730429	1.244424	0.176611
C133	C	1.278317	0.696318	-0.275566
C134	C	1.778317	1.196318	0.224434
H135	H	1.247831	0.644058	-0.270173
H136	H	1.747831	1.144058	0.229827
H137	H	1.339920	0.688454	-0.304762
H138	H	1.839920	1.188454	0.195238
C139	C	1.326036	0.789176	-0.197796
C140	C	1.826036	1.289176	0.302204
C141	C	1.288589	0.724990	-0.191166
C142	C	1.788589	1.224990	0.308834
H143	H	1.332376	0.806862	-0.145735
H144	H	1.832376	1.306862	0.354265
H145	H	1.293775	0.821586	-0.230017
H146	H	1.793775	1.321586	0.269983
H147	H	1.377368	0.782613	-0.222129
H148	H	1.877368	1.282613	0.277871
H149	H	1.237254	0.731555	-0.166843
H150	H	1.737254	1.231555	0.333157
H151	H	1.320842	0.692581	-0.158939
H152	H	1.820842	1.192581	0.341061
O153	O	1.033916	0.600063	-0.519510
O154	O	1.533916	1.100063	-0.019510
C155	C	0.986053	0.648167	-0.567361
C156	C	1.486053	1.148167	-0.067361
H157	H	0.980730	0.700474	-0.536902
H158	H	1.480730	1.200474	-0.036902
H159	H	1.015172	0.655915	-0.629004
H160	H	1.515172	1.155915	-0.129004
C161	C	0.908161	0.555346	-0.614913
C162	C	1.408161	1.055346	-0.114913
C163	C	0.901618	0.619588	-0.577500
C164	C	1.401618	1.119588	-0.077500
H165	H	0.856078	0.537716	-0.621171
H166	H	1.356078	1.037716	-0.121171
H167	H	0.940409	0.522936	-0.582678
H168	H	1.440409	1.022936	-0.082678
H169	H	0.932430	0.561811	-0.666279
H170	H	1.432430	1.061811	-0.166279
H171	H	0.877358	0.613121	-0.526131
H172	H	1.377358	1.113121	-0.026131
H173	H	0.869363	0.651996	-0.609727
H174	H	1.369363	1.151996	-0.109727
H175	H	1.255472	1.070268	-0.298647
H176	H	1.755472	1.570268	0.201353
O177	O	1.270407	0.931533	-0.283710
O178	O	1.770407	1.431533	0.216290
C179	C	1.313599	0.979626	-0.240595
C180	C	1.813599	1.479626	0.259405
H181	H	1.313825	1.031892	-0.276192
H182	H	1.813825	1.531892	0.223808
H183	H	1.283734	0.987481	-0.179711
H184	H	1.783734	1.487481	0.320289
C185	C	1.400540	0.886751	-0.183938
C186	C	1.900540	1.386751	0.316062
C187	C	1.400823	0.950944	-0.227662
C188	C	1.900823	1.450944	0.272338
H189	H	1.454343	0.869059	-0.175957
H190	H	1.954343	1.369059	0.324043
H191	H	1.371439	0.854349	-0.212983
H192	H	1.871439	1.354349	0.287017
H193	H	1.375648	0.893306	-0.133207
H194	H	1.875648	1.393306	0.366793
H195	H	1.425705	0.944387	-0.278396
H196	H	1.925705	1.444387	0.221604
H197	H	1.429930	0.983345	-0.198625
H198	H	1.929930	1.483345	0.301375
