data_functionalizedCrystal
_audit_creation_method	'MofGen! by Chris Wilmer'
_symmetry_space_group_name_H-M	'P1'
_symmetry_Int_Tables_number	1
_symmetry_cell_setting	triclinic
loop_
_symmetry_equiv_pos_as_xyz
  x,y,z
_cell_length_a	18.215407
_cell_length_b	10.686285
_cell_length_c	18.215399
_cell_angle_alpha	85.606976
_cell_angle_beta	89.983176
_cell_angle_gamma	85.632014
loop_
_atom_site_label
_atom_site_type_symbol
_atom_site_fract_x
_atom_site_fract_y
_atom_site_fract_z
Zn1	Zn	1.147617	-0.502315	-0.393705
Zn2	Zn	1.647617	-0.002315	0.106295
Zn3	Zn	1.157013	-0.713340	-0.261224
Zn4	Zn	1.657013	-0.213340	0.238776
Zn5	Zn	1.024558	-0.502365	-0.270650
Zn6	Zn	1.524558	-0.002365	0.229350
Zn7	Zn	1.033993	-0.713261	-0.384253
Zn8	Zn	1.533993	-0.213261	0.115747
O9	O	1.090795	-0.607821	-0.327458
O10	O	1.590795	-0.107821	0.172542
O11	O	1.251848	-0.530320	-0.376142
O12	O	1.751848	-0.030320	0.123858
O13	O	1.139426	-0.685408	-0.159488
O14	O	1.639426	-0.185408	0.340512
O15	O	1.033002	-0.325783	-0.294875
O16	O	1.533002	0.174217	0.205125
O17	O	1.258751	-0.685360	-0.278809
O18	O	1.758751	-0.185360	0.221191
O19	O	1.123413	-0.325746	-0.385283
O20	O	1.623413	0.174254	0.114717
O21	O	1.042113	-0.530406	-0.166413
O22	O	1.542113	-0.030406	0.333587
O23	O	0.922825	-0.530329	-0.285709
O24	O	1.422825	-0.030329	0.214291
O25	O	1.049081	-0.685225	-0.488493
O26	O	1.549081	-0.185225	0.011507
O27	O	0.929756	-0.685273	-0.369172
O28	O	1.429756	-0.185273	0.130828
O29	O	1.132561	-0.530244	-0.495438
O30	O	1.632561	-0.030244	0.004562
O31	O	1.148574	-0.889906	-0.269643
O32	O	1.648574	-0.389906	0.230357
O33	O	1.058192	-0.889847	-0.360032
O34	O	1.558192	-0.389847	0.139968
C35	C	0.899588	-0.607799	-0.327438
C36	C	1.399588	-0.107799	0.172562
C37	C	0.817790	-0.607820	-0.327445
C38	C	1.317790	-0.107820	0.172555
C39	C	0.633230	-0.688627	-0.370840
C40	C	1.133230	-0.188627	0.129160
C41	C	0.556372	-0.688631	-0.370849
C42	C	1.056372	-0.188631	0.129151
C43	C	0.549113	-0.527037	-0.284091
C44	C	1.049113	-0.027037	0.215909
C45	C	0.625970	-0.527028	-0.284087
C46	C	1.125970	-0.027028	0.215913
C47	C	0.668027	-0.607830	-0.327460
C48	C	1.168027	-0.107830	0.172540
C49	C	0.514311	-0.607843	-0.327473
C50	C	1.014311	-0.107843	0.172527
C51	C	0.430978	-0.607847	-0.327483
C52	C	0.930978	-0.107847	0.172517
C53	C	0.751366	-0.607825	-0.327451
C54	C	1.251366	-0.107825	0.172549
C55	C	1.105446	-0.935661	-0.312805
C56	C	1.605446	-0.435661	0.187195
C57	C	1.111781	-1.075912	-0.306561
C58	C	1.611781	-0.575912	0.193439
C59	C	1.282749	-0.607843	-0.327479
C60	C	1.782749	-0.107843	0.172521
C61	C	1.364548	-0.607853	-0.327487
C62	C	1.864548	-0.107853	0.172513
C63	C	1.090825	-0.607720	-0.519416
C64	C	1.590825	-0.107720	-0.019416
C65	C	1.090838	-0.607677	-0.601216
C66	C	1.590838	-0.107677	-0.101216
C67	C	1.076107	-0.278700	-0.342185
C68	C	1.576107	0.221300	0.157815
C69	C	1.069848	-0.138449	-0.348460
C70	C	1.569848	0.361551	0.151540
C71	C	1.040205	-0.526913	-0.793020
C72	C	1.540205	-0.026913	-0.293020
C73	C	1.040216	-0.526887	-0.869880
C74	C	1.540216	-0.026887	-0.369880
C75	C	1.141553	-0.688291	-0.862658
C76	C	1.641553	-0.188291	-0.362658
C77	C	1.141538	-0.688321	-0.785799
C78	C	1.641538	-0.188321	-0.285799
C79	C	1.090864	-0.607625	-0.750982
C80	C	1.590864	-0.107625	-0.250982
C81	C	1.090891	-0.607569	-0.904701
C82	C	1.590891	-0.107569	-0.404701
C83	C	1.090904	-0.607542	-0.988036
C84	C	1.590904	-0.107542	-0.488036
C85	C	1.090850	-0.607654	-0.667642
C86	C	1.590850	-0.107654	-0.167642
C87	C	1.090803	-0.607830	-0.136251
C88	C	1.590803	-0.107830	0.363749
C89	C	1.090917	-0.607517	-0.054467
C90	C	1.590917	-0.107517	0.445533
H91	H	0.654302	-0.461226	-0.248762
H92	H	1.154302	0.038774	0.251238
H93	H	0.998943	-0.461205	-0.764675
H94	H	1.498943	0.038795	-0.264675
H95	H	1.029101	-1.084694	-0.389110
H96	H	1.529101	-0.584694	0.110890
C97	C	1.197142	-0.777328	-0.900951
C98	C	1.697142	-0.277328	-0.400951
N99	N	1.238959	-0.844492	-0.929788
N100	N	1.738959	-0.344492	-0.429788
H101	H	1.152525	-1.129674	-0.265904
H102	H	1.652525	-0.629674	0.234096
C103	C	0.984490	-0.438089	-0.916118
C104	C	1.484490	0.061911	-0.416118
N105	N	0.942516	-0.371201	-0.950945
N106	N	1.442516	0.128799	-0.450945
H107	H	1.182793	-0.754052	-0.751570
H108	H	1.682793	-0.254052	-0.251570
H109	H	0.528044	-0.754422	-0.406175
H110	H	1.028044	-0.254422	0.093825
C111	C	0.679490	-0.777501	-0.418557
C112	C	1.179490	-0.277501	0.081443
N113	N	0.714330	-0.844441	-0.454502
N114	N	1.214330	-0.344441	0.045498
H115	H	0.514862	-0.461254	-0.248777
H116	H	1.014862	0.038746	0.251223
