data_functionalizedCrystal
_audit_creation_method	'MofGen! by Chris Wilmer'
_symmetry_space_group_name_H-M	'P1'
_symmetry_Int_Tables_number	1
_symmetry_cell_setting	triclinic
loop_
_symmetry_equiv_pos_as_xyz
  x,y,z
_cell_length_a	18.050591
_cell_length_b	18.050589
_cell_length_c	18.050582
_cell_angle_alpha	90.018205
_cell_angle_beta	90.020922
_cell_angle_gamma	90.024227
loop_
_atom_site_label
_atom_site_type_symbol
_atom_site_fract_x
_atom_site_fract_y
_atom_site_fract_z
Zn1	Zn	1.135293	-0.295786	0.420054
Zn2	Zn	1.468626	0.037548	0.753387
Zn3	Zn	1.801959	0.370881	1.086721
Zn4	Zn	1.135203	-0.419969	0.295873
Zn5	Zn	1.468537	-0.086636	0.629207
Zn6	Zn	1.801870	0.246698	0.962540
Zn7	Zn	1.011112	-0.295789	0.295865
Zn8	Zn	1.344445	0.037545	0.629198
Zn9	Zn	1.677778	0.370878	0.962532
Zn10	Zn	1.011060	-0.419930	0.420009
Zn11	Zn	1.344393	-0.086596	0.753342
Zn12	Zn	1.677726	0.246737	1.086676
O13	O	1.073167	-0.357868	0.357950
O14	O	1.406500	-0.024535	0.691284
O15	O	1.739833	0.308798	1.024617
O16	O	1.239205	-0.312274	0.403603
O17	O	1.572539	0.021059	0.736937
O18	O	1.905872	0.354393	1.070270
O19	O	1.118727	-0.403514	0.191948
O20	O	1.452060	-0.070181	0.525281
O21	O	1.785393	0.263153	0.858614
O22	O	1.027644	-0.191864	0.312354
O23	O	1.360977	0.141470	0.645688
O24	O	1.694310	0.474803	0.979021
O25	O	1.239140	-0.403511	0.312369
O26	O	1.572473	-0.070178	0.645702
O27	O	1.905806	0.263156	0.979035
O28	O	1.118879	-0.191862	0.403595
O29	O	1.452212	0.141472	0.736929
O30	O	1.785545	0.474805	1.070262
O31	O	1.027557	-0.312279	0.191942
O32	O	1.360890	0.021054	0.525275
O33	O	1.694224	0.354387	0.858608
O34	O	0.907180	-0.312241	0.312311
O35	O	1.240514	0.021092	0.645644
O36	O	1.573847	0.354426	0.978977
O37	O	1.027555	-0.403444	0.523940
O38	O	1.360888	-0.070111	0.857273
O39	O	1.694222	0.263223	1.190606
O40	O	0.907142	-0.403447	0.403519
O41	O	1.240475	-0.070114	0.736852
O42	O	1.573809	0.263220	1.070185
O43	O	1.118828	-0.312236	0.523973
O44	O	1.452162	0.021097	0.857306
O45	O	1.785495	0.354431	1.190639
O46	O	1.118676	-0.523888	0.312325
O47	O	1.452010	-0.190555	0.645658
O48	O	1.785343	0.142778	0.978992
O49	O	1.027468	-0.523860	0.403527
O50	O	1.360802	-0.190526	0.736860
O51	O	1.694135	0.142807	1.070193
C52	C	0.880215	-0.357841	0.357909
C53	C	1.213548	-0.024507	0.691243
C54	C	1.546881	0.308826	1.024576
C55	C	0.797669	-0.357847	0.357909
C56	C	1.131002	-0.024513	0.691243
C57	C	1.464336	0.308820	1.024576
C58	C	0.598217	-0.308191	0.308425
C59	C	0.931551	0.025142	0.641758
C60	C	1.264884	0.358475	0.975091
C61	C	0.548798	-0.375927	0.290154
C62	C	0.882131	-0.042594	0.623487
C63	C	1.215464	0.290739	0.956820
C64	C	0.646539	-0.357869	0.357943
C65	C	0.979872	-0.024536	0.691276
C66	C	1.313205	0.308797	1.024610
C67	C	0.548877	-0.290157	0.376212
C68	C	0.882210	0.043176	0.709545
C69	C	1.215543	0.376510	1.042879
C70	C	0.500553	-0.357885	0.357974
C71	C	0.833887	-0.024552	0.691307
C72	C	1.167220	0.308782	1.024641
C73	C	0.598206	-0.425641	0.339637
C74	C	0.931539	-0.092307	0.672970
C75	C	1.264873	0.241026	1.006303
C76	C	0.598289	-0.339825	0.425726
C77	C	0.931622	-0.006491	0.759060
C78	C	1.264956	0.326842	1.092393
C79	C	0.548892	-0.407607	0.407481
C80	C	0.882225	-0.074274	0.740814
C81	C	1.215558	0.259059	1.074148
C82	C	0.730637	-0.357859	0.357923
C83	C	1.063970	-0.024526	0.691256
C84	C	1.397303	0.308808	1.024590
C85	C	0.416457	-0.357903	0.357994
C86	C	0.749790	-0.024569	0.691327
C87	C	1.083124	0.308764	1.024660
C88	C	1.073077	-0.550820	0.357938
C89	C	1.406410	-0.217487	0.691271
C90	C	1.739744	0.115846	1.024605
C91	C	1.073107	-0.633366	0.357958
C92	C	1.406440	-0.300033	0.691291
C93	C	1.739773	0.033300	1.024624
C94	C	1.023557	-0.832828	0.407536
C95	C	1.356890	-0.499495	0.740869
C96	C	1.690223	-0.166161	1.074202
C97	C	1.005459	-0.882261	0.339767
C98	C	1.338792	-0.548928	0.673100
C99	C	1.672126	-0.215594	1.006433
C100	C	1.073180	-0.784497	0.357967
C101	C	1.406513	-0.451163	0.691301
C102	C	1.739846	-0.117830	1.024634
C103	C	1.091314	-0.882146	0.425744
C104	C	1.424647	-0.548812	0.759078
C105	C	1.757981	-0.215479	1.092411
C106	C	1.073249	-0.930482	0.357983
C107	C	1.406582	-0.597148	0.691316
C108	C	1.739915	-0.263815	1.024649
C109	C	1.055046	-0.832842	0.290162
C110	C	1.388380	-0.499509	0.623495
C111	C	1.721713	-0.166175	0.956829
C112	C	1.140933	-0.832722	0.376186
C113	C	1.474266	-0.499389	0.709519
C114	C	1.807600	-0.166056	1.042852
C115	C	1.122861	-0.882133	0.308370
C116	C	1.456194	-0.548799	0.641703
C117	C	1.789527	-0.215466	0.975036
C118	C	1.073138	-0.700398	0.357959
C119	C	1.406471	-0.367065	0.691293
C120	C	1.739805	-0.033732	1.024626
C121	C	1.073291	-1.014578	0.357983
C122	C	1.406624	-0.681245	0.691316
C123	C	1.739957	-0.347911	1.024649
C124	C	1.266872	-0.357897	0.357992
C125	C	1.600206	-0.024563	0.691325
C126	C	1.933539	0.308770	1.024659
C127	C	1.349418	-0.357909	0.358010
C128	C	1.682751	-0.024575	0.691343
C129	C	2.016085	0.308758	1.024676
C130	C	1.073196	-0.357835	0.551656
C131	C	1.406529	-0.024502	0.884989
C132	C	1.739863	0.308831	1.218323
C133	C	1.073208	-0.357821	0.634202
C134	C	1.406542	-0.024488	0.967535
C135	C	1.739875	0.308845	1.300868
C136	C	1.073277	-0.164163	0.357979
C137	C	1.406610	0.169171	0.691312
C138	C	1.739944	0.502504	1.024646
C139	C	1.073324	-0.081617	0.357991
C140	C	1.406657	0.251716	0.691325
C141	C	1.739991	0.585050	1.024658
C142	C	1.073181	-0.357848	0.164998
C143	C	1.406514	-0.024514	0.498332
C144	C	1.739847	0.308819	0.831665
C145	C	1.073312	-0.357652	0.082453
C146	C	1.406645	-0.024319	0.415786
C147	C	1.739979	0.309014	0.749120
C148	C	1.023612	-0.407353	0.833635
C149	C	1.356945	-0.074019	1.166968
C150	C	1.690278	0.259314	1.500301
C151	C	1.091367	-0.425511	0.883034
C152	C	1.424700	-0.092177	1.216368
C153	C	1.758034	0.241156	1.549701
C154	C	1.073245	-0.357765	0.785332
C155	C	1.406578	-0.024431	1.118666
C156	C	1.739912	0.308902	1.451999
C157	C	1.005527	-0.339586	0.883014
C158	C	1.338860	-0.006253	1.216348
C159	C	1.672194	0.327081	1.549681
C160	C	1.073274	-0.357711	0.931317
C161	C	1.406608	-0.024378	1.264651
C162	C	1.739941	0.308955	1.597984
C163	C	1.141036	-0.375958	0.833645
C164	C	1.474369	-0.042625	1.166978
C165	C	1.807702	0.290708	1.500312
C166	C	1.055150	-0.290002	0.833620
C167	C	1.388483	0.043331	1.166954
C168	C	1.721816	0.376665	1.500287
C169	C	1.122952	-0.308134	0.882998
C170	C	1.456285	0.025199	1.216331
C171	C	1.789619	0.358532	1.549665
C172	C	1.073227	-0.357797	0.701234
C173	C	1.406560	-0.024464	1.034567
C174	C	1.739894	0.308869	1.367901
C175	C	1.073300	-0.357679	1.015414
C176	C	1.406633	-0.024345	1.348747
C177	C	1.739967	0.308988	1.682081
H178	H	0.527169	-0.232894	0.391625
H179	H	0.860502	0.100439	0.724959
H180	H	1.193835	0.433772	1.058292
H181	H	0.981678	-0.449342	0.811961
H182	H	1.315012	-0.116009	1.145294
H183	H	1.648345	0.217324	1.478628
H184	H	0.981531	-0.811178	0.449395
H185	H	1.314864	-0.477845	0.782728
H186	H	1.648197	-0.144512	1.116062
H187	H	1.106690	-0.482794	0.904739
H188	H	1.440023	-0.149460	1.238073
H189	H	1.773357	0.183873	1.571406
H190	H	0.619875	-0.266226	0.266503
H191	H	0.953209	0.067108	0.599837
H192	H	1.286542	0.400441	0.933170
H193	H	1.164986	-0.266177	0.904535
H194	H	1.498319	0.067157	1.237869
H195	H	1.831653	0.400490	1.571202
H196	H	0.527060	-0.391202	0.232844
H197	H	0.860393	-0.057868	0.566177
H198	H	1.193727	0.275465	0.899511
H199	H	1.198333	-0.391377	0.812050
H200	H	1.531666	-0.058043	1.145383
H201	H	1.865000	0.275290	1.478716
H202	H	1.039807	-0.232736	0.811899
H203	H	1.373141	0.100598	1.145232
H204	H	1.706474	0.433931	1.478566
H205	H	0.948246	-0.324232	0.904701
H206	H	1.281580	0.009101	1.238034
H207	H	1.614913	0.342434	1.571368
H208	H	0.619785	-0.482928	0.324134
H209	H	0.953118	-0.149595	0.657467
H210	H	1.286451	0.183739	0.990801
H211	H	1.039669	-0.811275	0.232834
H212	H	1.373003	-0.477941	0.566168
H213	H	1.706336	-0.144608	0.899501
H214	H	0.527370	-0.449673	0.449370
H215	H	0.860704	-0.116340	0.782704
H216	H	1.194037	0.216993	1.116037
H217	H	1.164855	-0.903645	0.266409
H218	H	1.498188	-0.570312	0.599743
H219	H	1.831522	-0.236979	0.933076
H220	H	0.620045	-0.324530	0.483019
H221	H	0.953378	0.008804	0.816352
H222	H	1.286711	0.342137	1.149686
H223	H	0.948195	-0.904037	0.324371
H224	H	1.281528	-0.570704	0.657705
H225	H	1.614861	-0.237370	0.991038
H226	H	1.198184	-0.810948	0.391613
H227	H	1.531518	-0.477615	0.724947
H228	H	1.864851	-0.144282	1.058280
H229	H	1.106625	-0.903802	0.483056
H230	H	1.439958	-0.570469	0.816390
H231	H	1.773291	-0.237136	1.149723
