data_functionalizedCrystal
_audit_creation_method	'MofGen! by Chris Wilmer'
_symmetry_space_group_name_H-M	'P1'
_symmetry_Int_Tables_number	1
_symmetry_cell_setting	triclinic
loop_
_symmetry_equiv_pos_as_xyz
  x,y,z
_cell_length_a	10.654553
_cell_length_b	27.731996
_cell_length_c	9.130313
_cell_angle_alpha	90.010153
_cell_angle_beta	90.002414
_cell_angle_gamma	83.553783
loop_
_atom_site_label
_atom_site_type_symbol
_atom_site_fract_x
_atom_site_fract_y
_atom_site_fract_z
O1	O	1.664947	0.067894	0.121837
O2	O	1.299194	0.074361	0.121839
O3	O	1.493464	0.000800	0.121806
O4	O	1.470677	0.141455	0.121870
O5	O	1.493457	0.000798	-0.121793
O6	O	1.299187	0.074359	-0.121760
O7	O	1.664940	0.067892	-0.121762
Cu8	Cu	1.482063	0.071125	-0.144003
Cu9	Cu	1.482071	0.071128	0.144080
O10	O	1.470670	0.141453	-0.121729
C11	C	1.252413	0.073885	0.000039
C12	C	1.113030	0.072463	0.000038
C13	C	0.916571	0.070456	-0.132739
C14	C	1.047535	0.071794	-0.132746
C15	C	1.047553	0.071799	0.132839
C16	C	0.916590	0.070464	0.132845
C17	C	0.916563	0.070451	-0.286072
C18	C	1.047527	0.071789	-0.286080
C19	C	1.492993	-0.017211	0.000002
C20	C	1.491583	-0.070876	-0.000013
C21	C	1.482716	-0.403647	0.132844
C22	C	1.477362	-0.605338	0.132870
O23	O	1.476619	-0.631413	0.245800
N24	N	1.476693	-0.630561	0.000085
C25	C	1.477354	-0.605357	-0.132715
O26	O	1.476649	-0.631437	-0.245656
C27	C	1.482699	-0.403666	-0.132739
C28	C	1.483381	-0.378447	0.000054
C29	C	1.483396	-0.378428	0.265626
C30	C	1.484742	-0.328008	0.265619
C31	C	1.485407	-0.302808	0.132829
C32	C	1.484726	-0.328027	0.000046
C33	C	1.483351	-0.378462	-0.265538
C34	C	1.484685	-0.328036	-0.265532
C35	C	1.485366	-0.302817	-0.132739
C36	C	1.486737	-0.252407	-0.132752
N37	N	1.487406	-0.227185	0.000033
C38	C	1.486741	-0.252385	0.132823
C39	C	1.474550	-0.711248	-0.132693
C40	C	1.473216	-0.761670	-0.132687
C41	C	1.473222	-0.761648	0.132898
C42	C	1.474565	-0.711225	0.132891
C43	C	1.475219	-0.686025	0.000092
C44	C	1.489567	-0.146500	0.132797
C45	C	1.490918	-0.096077	0.132777
C46	C	1.490905	-0.096103	-0.132808
C47	C	1.489562	-0.146522	-0.132789
C48	C	1.488888	-0.171720	0.000025
O49	O	1.487466	-0.226301	-0.245623
O50	O	1.487418	-0.226295	0.245747
C51	C	1.481371	-0.454066	0.132852
C52	C	1.480690	-0.479286	0.000070
C53	C	1.481355	-0.454085	-0.132721
C54	C	1.479356	-0.529708	0.000075
C55	C	1.478691	-0.554909	0.132865
C56	C	1.479360	-0.529686	0.265650
C57	C	1.480706	-0.479267	0.265642
C58	C	1.480686	-0.479308	-0.265505
C59	C	1.479342	-0.529727	-0.265486
C60	C	1.478677	-0.554928	-0.132696
C61	C	1.711721	0.068368	0.000041
C62	C	1.851104	0.069790	0.000052
C63	C	1.471142	0.159464	0.000078
C64	C	1.472552	0.213129	0.000103
N65	N	1.482066	0.071123	-0.346626
C66	C	1.406505	0.041534	-0.423315
C67	C	1.406508	0.041537	-0.576652
C68	C	1.557642	0.100718	-0.576597
C69	C	1.557632	0.100718	-0.423263
C70	C	1.319253	0.007365	-0.423348
C71	C	1.319255	0.007367	-0.576685
N72	N	1.482079	0.071126	0.346703
H73	H	1.491476	-0.075546	0.240918
H74	H	0.868857	0.103851	-0.344932
H75	H	1.485199	-0.307520	-0.373676
Br76	Br	1.127046	0.016117	-0.384222
Br77	Br	1.160538	0.032683	-0.655971
Br78	Br	1.472321	-0.795891	-0.312914
Br79	Br	1.491811	-0.061893	-0.313014
H80	H	1.619163	0.124814	-0.639013
H81	H	1.489018	-0.167057	-0.240920
Br82	Br	1.387717	-0.053289	-0.344088
Br83	Br	1.094317	0.130543	-0.365354
H84	H	1.475089	-0.690735	-0.240840
H85	H	0.888487	0.035199	-0.333660
H86	H	1.351804	-0.030749	-0.618319
H87	H	0.863290	0.069928	0.240975
H88	H	1.489012	-0.167010	0.240946
Br89	Br	1.481632	-0.445049	0.445871
H90	H	1.472682	-0.782175	0.241021
Br91	Br	1.136435	0.072714	0.313049
Br92	Br	1.485658	-0.293789	0.445848
H93	H	1.482850	-0.398940	0.373766
H94	H	1.475118	-0.690695	0.241023
Br95	Br	1.482421	-0.412675	-0.445769
H96	H	1.478825	-0.550213	0.373772
Br97	Br	1.478427	-0.563947	-0.445724
Br98	Br	1.660128	0.140897	-0.319188
H99	H	1.481230	-0.458795	-0.373641
H100	H	1.219692	0.019244	-0.381744
