data_functionalizedCrystal
_audit_creation_method	'MofGen! by Chris Wilmer'
_symmetry_space_group_name_H-M	'P1'
_symmetry_Int_Tables_number	1
_symmetry_cell_setting	triclinic
loop_
_symmetry_equiv_pos_as_xyz
  x,y,z
_cell_length_a	27.440280
_cell_length_b	27.440279
_cell_length_c	21.606444
_cell_angle_alpha	60.004834
_cell_angle_beta	89.996802
_cell_angle_gamma	60.007051
loop_
_atom_site_label
_atom_site_type_symbol
_atom_site_fract_x
_atom_site_fract_y
_atom_site_fract_z
Zr1	Zr	0.469673	0.533236	-0.081096
O2	O	0.391885	0.634888	-0.179891
O3	O	0.493496	0.431592	-0.050830
O4	O	0.493525	0.533237	-0.179924
O5	O	0.391860	0.533239	0.051057
O6	O	0.573727	0.533229	-0.179928
O7	O	0.391856	0.533243	-0.050797
O8	O	0.573675	0.351405	0.050998
O9	O	0.391912	0.715063	-0.179869
O10	O	0.563538	0.473391	-0.037901
O11	O	0.503687	0.473395	0.038115
O12	O	0.503721	0.593068	-0.113877
O13	O	0.443871	0.593072	-0.037862
Zr14	Zr	0.597592	0.533218	0.081343
Zr15	Zr	0.597586	0.533224	-0.081102
Zr16	Zr	0.469680	0.533231	0.081349
Zr17	Zr	0.469716	0.661107	-0.081061
Zr18	Zr	0.597549	0.405347	0.081308
O19	O	0.573770	0.634862	0.051077
O20	O	0.573761	0.634870	-0.179900
O21	O	0.391894	0.634880	0.051085
O22	O	0.675380	0.431567	0.180138
O23	O	0.675371	0.431575	-0.050838
O24	O	0.493505	0.431584	0.180147
O25	O	0.675405	0.533215	-0.050810
O26	O	0.573741	0.533217	0.180171
O27	O	0.493539	0.533225	0.180175
O28	O	0.675410	0.533212	0.051044
O29	O	0.493586	0.715054	-0.179874
O30	O	0.573680	0.351401	0.180121
O31	O	0.675353	0.351391	0.180116
O32	O	0.675348	0.351395	0.050994
O33	O	0.391917	0.715059	-0.050746
O34	O	0.493591	0.715049	-0.050751
O35	O	0.563544	0.473386	0.114124
O36	O	0.623395	0.473383	0.038109
O37	O	0.563578	0.593060	-0.037868
O38	O	0.503728	0.593063	0.038148
C39	C	0.533579	0.373280	0.000079
C40	C	0.533561	0.318995	0.000064
C41	C	0.502384	0.084238	0.039807
C42	C	0.502372	0.135268	0.039797
O43	O	0.475814	0.161646	0.073558
N44	N	0.533605	0.160792	0.000109
C45	C	0.564857	0.135277	-0.039567
O46	O	0.591423	0.161672	-0.073325
C47	C	0.564872	0.084245	-0.039552
C48	C	0.533632	0.058729	0.000133
C49	C	0.471147	0.058722	0.079490
C50	C	0.471157	0.007696	0.079499
C51	C	0.502405	-0.017813	0.039825
C52	C	0.533643	0.007703	0.000142
C53	C	0.596127	0.058728	-0.079222
C54	C	0.596139	0.007691	-0.079203
C55	C	0.564899	-0.017825	-0.039518
C56	C	0.564902	-0.068832	-0.039523
N57	N	0.533668	-0.094355	0.000166
C58	C	0.502420	-0.068846	0.039840
C59	C	0.564824	0.242449	-0.039594
C60	C	0.564806	0.293484	-0.039614
C61	C	0.502322	0.293471	0.039752
C62	C	0.502337	0.242438	0.039767
C63	C	0.533591	0.216925	0.000095
C64	C	0.502445	-0.176003	0.039854
C65	C	0.502457	-0.227031	0.039857
C66	C	0.564944	-0.227016	-0.039505
C67	C	0.564930	-0.175990	-0.039511
C68	C	0.533679	-0.150486	0.000174
O69	O	0.591448	-0.095244	-0.073264
O70	O	0.475866	-0.095253	0.073601
C71	C	0.373633	0.533243	0.000131
C72	C	0.319331	0.533248	0.000133
C73	C	-0.017369	0.533214	-0.055990
C74	C	-0.068387	0.533209	-0.055990
O75	O	-0.094764	0.533185	-0.103696
N76	N	-0.093903	0.533208	0.000121
C77	C	-0.068394	0.533205	0.056241
O78	O	-0.094781	0.533204	0.103968
C79	C	-0.017375	0.533205	0.056244
C80	C	0.008135	0.533213	0.000124
C81	C	0.008141	0.533221	-0.112104
C82	C	0.059155	0.533227	-0.112105
C83	C	0.084658	0.533226	-0.055990
C84	C	0.059149	0.533219	0.000124
C85	C	0.008135	0.533198	0.112366
C86	C	0.059159	0.533197	0.112365
C87	C	0.084668	0.533205	0.056245
C88	C	0.135666	0.533225	0.056238
N89	N	0.161182	0.533225	0.000127
C90	C	0.135678	0.533226	-0.055987
C91	C	-0.175538	0.533204	0.056231
C92	C	-0.226559	0.533209	0.056226
C93	C	-0.226547	0.533211	-0.056005
C94	C	-0.175528	0.533211	-0.056002
C95	C	-0.150022	0.533205	0.000120
C96	C	0.242810	0.533240	-0.055984
C97	C	0.293827	0.533249	-0.055981
C98	C	0.293813	0.533243	0.056252
C99	C	0.242799	0.533238	0.056247
C100	C	0.217300	0.533234	0.000126
O101	O	0.162077	0.533246	0.103921
O102	O	0.162076	0.533219	-0.103701
C103	C	0.693632	0.533212	0.000116
C104	C	0.747935	0.533206	0.000114
C105	C	0.533625	0.533234	-0.203071
C106	C	0.533622	0.533236	-0.272033
C107	C	0.533687	0.693175	0.000168
C108	C	0.533705	0.747459	0.000183
C109	C	0.502398	0.595706	-0.344091
C110	C	0.502403	0.595704	-0.408886
C111	C	0.533629	0.533232	-0.401622
C112	C	0.564857	0.470757	-0.329556
C113	C	0.564855	0.470760	-0.264763
C114	C	0.564866	0.470745	-0.590859
C115	C	0.564864	0.470748	-0.655660
C116	C	0.502415	0.595690	-0.734982
C117	C	0.502413	0.595692	-0.670189
C118	C	0.533643	0.533218	-0.598130
C119	C	0.533638	0.533221	-0.527872
C120	C	0.533631	0.533228	-0.471877
C121	C	0.533641	0.533220	0.203318
C122	C	0.533644	0.533218	0.272281
C123	C	0.693578	0.373264	0.000072
C124	C	0.747863	0.318974	0.000054
C125	C	0.533587	0.373273	0.203274
C126	C	0.533572	0.318986	0.272221
C127	C	0.693587	0.373257	0.203266
C128	C	0.747873	0.318965	0.272211
C129	C	0.373679	0.693197	-0.203019
C130	C	0.319392	0.747489	-0.271964
C131	C	0.373687	0.693190	0.000175
C132	C	0.319403	0.747480	0.000193
C133	C	0.533679	0.693181	-0.203027
C134	C	0.533694	0.747468	-0.271974
C135	C	0.742110	0.293484	-0.039637
C136	C	0.793111	0.242479	-0.039669
C137	C	0.849864	0.216964	-0.000004
C138	C	0.855615	0.242459	0.039688
C139	C	0.804615	0.293466	0.039715
C140	C	0.564809	0.293488	0.344283
C141	C	0.564792	0.242487	0.409072
C142	C	0.533541	0.216981	0.401798
C143	C	0.502300	0.242484	0.329729
C144	C	0.502313	0.293488	0.264941
C145	C	0.804614	0.293467	0.264909
C146	C	0.855627	0.242461	0.329684
C147	C	0.849898	0.216950	0.401760
C148	C	0.793152	0.242453	0.409060
C149	C	0.742140	0.293462	0.344286
C150	C	0.262652	0.772993	-0.264662
C151	C	0.211638	0.824016	-0.329437
C152	C	0.217367	0.849529	-0.401513
C153	C	0.274114	0.824023	-0.408813
C154	C	0.325126	0.773005	-0.344039
C155	C	0.325155	0.772976	0.039878
C156	C	0.274154	0.823994	0.039891
C157	C	0.217402	0.849512	0.000225
C158	C	0.211651	0.824014	-0.039465
C159	C	0.262651	0.773000	-0.039483
C160	C	0.564951	0.772958	-0.264676
C161	C	0.564977	0.823960	-0.329453
C162	C	0.533743	0.849474	-0.401527
C163	C	0.502485	0.823980	-0.408824
C164	C	0.502462	0.772975	-0.344048
H165	H	0.476997	-0.155243	0.072168
H166	H	0.476898	0.221666	0.072082
C167	C	0.280411	0.852083	-0.488097
H168	H	0.321509	0.829592	-0.483177
H169	H	0.261793	0.843726	-0.515016
H170	H	0.261821	0.900244	-0.515009
C171	C	-0.019908	0.533178	0.174106
H172	H	0.002600	0.533167	0.207527
H173	H	-0.059790	0.573137	0.151084
H174	H	-0.019824	0.493203	0.201811
C175	C	0.387537	0.744948	-0.352081
H176	H	0.383637	0.767447	-0.404285
H177	H	0.408756	0.753295	-0.328454
H178	H	0.408718	0.696789	-0.328477
H179	H	0.901829	0.221677	0.071981
C180	C	0.786774	0.214436	-0.083323
H181	H	0.745669	0.236931	-0.106928
H182	H	0.805371	0.222798	-0.120880
H183	H	0.805365	0.166275	-0.049085
H184	H	0.477006	0.752228	-0.350000
C185	C	0.161253	0.905644	-0.472760
H186	H	0.172787	0.917193	-0.516735
H187	H	0.138166	0.888926	-0.472759
H188	H	0.138189	0.945441	-0.472742
C189	C	0.810949	0.321492	0.083389
H190	H	0.852054	0.298982	0.107011
H191	H	0.792362	0.369651	0.049169
H192	H	0.792350	0.313119	0.120944
H193	H	0.257976	0.752223	-0.205980
H194	H	0.477015	-0.247803	0.072173
H195	H	0.445701	0.079485	0.111801
H196	H	0.901828	0.221702	0.323726
C197	C	0.387576	0.744915	0.083515
H198	H	0.383689	0.767417	0.107143
H199	H	0.408764	0.696758	0.121052
H200	H	0.408781	0.753276	0.049265
C201	C	0.905958	0.160851	-0.000032
H202	H	0.894399	0.149323	-0.029347
H203	H	0.929051	0.177559	-0.021271
H204	H	0.929027	0.121045	0.050511
C205	C	0.599166	0.321550	-0.083272
H206	H	0.617780	0.299041	-0.106892
H207	H	0.572206	0.369705	-0.120816
H208	H	0.628725	0.313201	-0.049032
H209	H	0.278849	0.844746	0.072214
C210	C	0.161307	0.905624	0.000253
H211	H	0.172866	0.917146	0.029576
H212	H	0.138234	0.945428	-0.050284
H213	H	0.138220	0.888906	0.021502
C214	C	0.599161	0.214437	0.488340
H215	H	0.594675	0.180413	0.525889
H216	H	0.640258	0.194533	0.494011
H217	H	0.583743	0.251064	0.494024
H218	H	0.165436	0.844798	-0.071761
C219	C	0.467929	0.214422	0.321734
H220	H	0.449321	0.236913	0.269538
H221	H	0.494887	0.166264	0.345357
H222	H	0.438366	0.222790	0.345367
C223	C	0.679729	0.321496	0.352328
H224	H	0.683629	0.298989	0.404532
H225	H	0.658530	0.369654	0.328718
H226	H	0.658528	0.313126	0.328707
H227	H	-0.154776	0.533205	0.101931
H228	H	0.891441	0.175415	0.454497
C229	C	0.599184	0.321540	0.352294
H230	H	0.594727	0.355565	0.303393
H231	H	0.583759	0.341441	0.379220
H232	H	0.640280	0.284915	0.379209
C233	C	0.149225	0.852057	-0.321393
H234	H	0.153124	0.829544	-0.269189
H235	H	0.128034	0.900213	-0.344993
H236	H	0.128017	0.843700	-0.345024
H237	H	0.257959	0.752243	-0.071797
H238	H	0.590383	-0.247792	-0.071810
C239	C	0.533534	0.160874	0.473069
H240	H	0.556621	0.149339	0.517026
H241	H	0.493737	0.177589	0.473090
H242	H	0.550256	0.121069	0.473069
C243	C	0.599315	0.744899	-0.185403
H244	H	0.617937	0.767384	-0.190345
H245	H	0.572354	0.753261	-0.158469
H246	H	0.628866	0.696737	-0.158494
H247	H	0.476878	0.314242	0.206268
C248	C	0.599197	0.214399	-0.083247
H249	H	0.617789	0.236916	-0.106890
H250	H	0.628763	0.166245	-0.049011
H251	H	0.572237	0.222745	-0.120786
C252	C	0.468124	0.852056	-0.488108
H253	H	0.472611	0.886089	-0.525635
H254	H	0.483531	0.815449	-0.493819
H255	H	0.427022	0.871970	-0.493787
H256	H	0.809290	0.314231	0.206227
C257	C	0.436790	-0.020362	0.123150
H258	H	0.418183	0.002143	0.146776
H259	H	0.407236	-0.012019	0.088915
H260	H	0.463753	-0.068520	0.160701
H261	H	0.788496	0.221674	0.467753
H262	H	0.590294	0.419872	-0.649737
H263	H	0.476966	0.646578	-0.350015
H264	H	0.590431	0.844712	-0.323497
H265	H	0.476879	0.314249	0.072057
H266	H	0.533766	0.891005	-0.454266
H267	H	0.621566	0.079495	-0.111537
H268	H	0.222055	0.533235	-0.101682
C269	C	0.630519	-0.020372	-0.122842
H270	H	0.626059	-0.054423	-0.117150
H271	H	0.615099	0.016239	-0.175036
H272	H	0.671615	-0.040259	-0.103248
C273	C	0.321887	0.533252	-0.117711
H274	H	0.299393	0.533243	-0.151124
H275	H	0.321812	0.573217	-0.145419
H276	H	0.361770	0.493283	-0.094667
C277	C	0.599294	-0.147923	-0.083162
H278	H	0.617908	-0.170429	-0.106784
H279	H	0.572337	-0.099767	-0.120703
H280	H	0.628852	-0.156278	-0.048914
H281	H	0.079923	0.533230	-0.157800
C282	C	0.214731	0.533242	0.117968
H283	H	0.237229	0.533242	0.151387
H284	H	0.174849	0.573203	0.094929
H285	H	0.214814	0.493268	0.145680
C286	C	-0.019909	0.533227	-0.173839
H287	H	0.002596	0.533236	-0.207256
H288	H	-0.019838	0.493265	-0.150815
H289	H	-0.059789	0.573200	-0.201550
H290	H	-0.154761	0.533217	-0.101699
H291	H	-0.247321	0.533211	-0.101695
C292	C	-0.254617	0.533208	0.117953
H293	H	-0.232115	0.533204	0.151372
H294	H	-0.294499	0.573170	0.094919
H295	H	-0.254536	0.493235	0.145663
H296	H	0.314585	0.533245	0.101938
C297	C	0.087208	0.533199	0.174095
H298	H	0.064702	0.533200	0.207509
H299	H	0.127089	0.493238	0.201802
H300	H	0.087124	0.573172	0.151051
C301	C	0.468050	0.664419	-0.488149
H302	H	0.472527	0.655472	-0.525698
H303	H	0.426954	0.690084	-0.493822
H304	H	0.483485	0.690091	-0.493831
C305	C	0.468067	0.664411	-0.678183
H306	H	0.449476	0.701617	-0.730379
H307	H	0.438501	0.667015	-0.654556
H308	H	0.495041	0.667002	-0.654555
H309	H	0.590296	0.419875	-0.532194
C310	C	0.468068	0.664411	-0.814249
H311	H	0.472545	0.655466	-0.851800
H312	H	0.426971	0.690082	-0.819927
H313	H	0.483507	0.690077	-0.819924
H314	H	0.590285	0.419891	-0.323646
H315	H	0.695904	0.314258	-0.071946
C316	C	0.599196	0.402045	-0.185498
H317	H	0.594727	0.410994	-0.147950
H318	H	0.583760	0.376379	-0.179819
H319	H	0.640296	0.376374	-0.179819
