data_functionalizedCrystal
_audit_creation_method	'MofGen! by Chris Wilmer'
_symmetry_space_group_name_H-M	'P1'
_symmetry_Int_Tables_number	1
_symmetry_cell_setting	triclinic
loop_
_symmetry_equiv_pos_as_xyz
  x,y,z
_cell_length_a	14.519709
_cell_length_b	17.699083
_cell_length_c	16.776229
_cell_angle_alpha	89.999799
_cell_angle_beta	90.001522
_cell_angle_gamma	96.518421
loop_
_atom_site_label
_atom_site_type_symbol
_atom_site_fract_x
_atom_site_fract_y
_atom_site_fract_z
O1	O	-1.223449	0.099215	-0.066173
O2	O	-0.954923	0.110899	-0.066196
O3	O	-1.096772	-0.005110	-0.066191
O4	O	-1.081599	0.215225	-0.066177
O5	O	-1.096754	-0.005117	0.066385
O6	O	-0.954904	0.110892	0.066381
O7	O	-1.223430	0.099208	0.066404
Zn8	Zn	-1.089164	0.105049	0.087442
Zn9	Zn	-1.089189	0.105058	-0.087234
O10	O	-1.081580	0.215218	0.066400
C11	C	-1.096219	-0.033312	0.000093
C12	C	-1.094588	-0.117335	0.000082
C13	C	-0.920556	0.110351	0.000089
C14	C	-0.818181	0.108719	0.000080
C15	C	-1.257797	0.099756	0.000117
C16	C	-1.360171	0.101388	0.000121
C17	C	-0.443311	0.102712	0.000116
C18	C	-0.547612	0.104380	0.000106
C19	C	-0.630743	0.105716	0.000097
C20	C	-0.735050	0.107384	0.000089
C21	C	-1.082134	0.243420	0.000113
C22	C	-1.083765	0.327442	0.000119
N23	N	-1.089154	0.105042	0.206653
C24	C	-1.000502	0.375825	0.000112
C25	C	-1.002040	0.454773	0.000103
C26	C	-1.086842	0.485336	0.000106
C27	C	-1.170111	0.436948	0.000111
C28	C	-1.168572	0.358001	0.000115
C29	C	-1.176319	0.755328	0.000096
C30	C	-1.177852	0.834281	0.000095
C31	C	-1.009787	0.852100	0.000084
C32	C	-1.008248	0.773154	0.000088
C33	C	-1.091517	0.724772	0.000088
C34	C	-1.089848	0.639168	0.000097
C35	C	-1.088511	0.570939	0.000104
N36	N	-1.089206	0.105059	-0.206445
C37	C	-1.151984	0.053694	0.248372
C38	C	-1.151989	0.053694	0.331824
C39	C	-1.089168	0.105045	0.373556
C40	C	-1.026331	0.156395	0.331831
C41	C	-1.026322	0.156392	0.248380
C42	C	-1.026364	0.156410	0.668378
C43	C	-1.026380	0.156411	0.751835
C44	C	-1.152031	0.053712	0.751822
C45	C	-1.152022	0.053709	0.668371
C46	C	-1.089183	0.105056	0.626654
C47	C	-1.089177	0.105055	0.536165
C48	C	-1.089177	0.105050	0.464043
H49	H	-0.931446	0.350947	0.000118
H50	H	-1.244122	0.715945	0.000101
C51	C	-0.914967	0.739537	0.000080
H52	H	-0.865597	0.779660	0.000066
H53	H	-0.910863	0.709111	0.046311
H54	H	-0.910885	0.709111	-0.046159
H55	H	-0.934239	0.494163	0.000095
C56	C	-0.957200	0.212860	0.377730
H57	H	-0.919765	0.243429	0.340929
H58	H	-0.990274	0.244438	0.410291
H59	H	-0.918887	0.185536	0.410276
H60	H	-0.975220	0.198229	0.785811
H61	H	-1.203144	0.011881	0.214400
H62	H	-0.975158	0.198203	0.214413
H63	H	-1.246912	0.859162	0.000097
C64	C	-0.957252	0.212896	0.622499
H65	H	-0.919849	0.243484	0.659307
H66	H	-0.918920	0.185601	0.589951
H67	H	-0.990354	0.244465	0.589941
C68	C	-1.263391	0.470565	0.000117
H69	H	-1.252384	0.524513	0.000122
H70	H	-1.297676	0.453965	-0.046112
H71	H	-1.297657	0.453966	0.046359
H72	H	-1.203180	0.011896	0.634396
C73	C	-0.918192	0.905322	0.000071
H74	H	-0.931249	0.956717	0.000060
H75	H	-0.883405	0.896049	0.046301
H76	H	-0.883421	0.896039	-0.046169
H77	H	-1.203150	0.011882	0.365791
C78	C	-1.260161	0.304780	0.000125
H79	H	-1.310887	0.334288	0.000134
H80	H	-1.263060	0.273611	-0.046106
H81	H	-1.263048	0.273616	0.046365
H82	H	-1.203196	0.011900	0.785797
