data_functionalizedCrystal
_audit_creation_method	'MofGen! by Chris Wilmer'
_symmetry_space_group_name_H-M	'P1'
_symmetry_Int_Tables_number	1
_symmetry_cell_setting	triclinic
loop_
_symmetry_equiv_pos_as_xyz
  x,y,z
_cell_length_a	17.699083
_cell_length_b	12.837942
_cell_length_c	16.176319
_cell_angle_alpha	89.994101
_cell_angle_beta	89.998611
_cell_angle_gamma	89.055978
loop_
_atom_site_label
_atom_site_type_symbol
_atom_site_fract_x
_atom_site_fract_y
_atom_site_fract_z
O1	O	1.013708	0.131067	-0.068629
O2	O	0.794582	0.148119	-0.068656
O3	O	0.899286	-0.011297	-0.068638
O4	O	0.909004	0.290484	-0.068647
O5	O	0.899269	-0.011307	0.068855
O6	O	0.794565	0.148109	0.068837
O7	O	1.013691	0.131057	0.068864
Cu8	Cu	0.904126	0.139582	0.081405
Cu9	Cu	0.904146	0.139594	-0.081197
O10	O	0.908987	0.290474	0.068846
C11	C	0.766332	0.147503	0.000087
C12	C	0.682179	0.145670	0.000077
C13	C	0.640432	0.239245	0.000074
C14	C	0.561362	0.237516	0.000085
C15	C	0.524040	0.142212	0.000092
C16	C	0.565792	0.048631	0.000097
C17	C	0.644861	0.050360	0.000093
C18	C	0.246916	0.041653	0.000118
C19	C	0.167842	0.039931	0.000120
C20	C	0.163418	0.228809	0.000111
C21	C	0.242486	0.230539	0.000106
C22	C	0.284232	0.136958	0.000115
C23	C	0.369969	0.138833	0.000105
C24	C	0.438304	0.140336	0.000097
C25	C	0.895995	-0.049915	0.000108
C26	C	0.886204	-0.164967	0.000105
C27	C	1.003908	-0.406222	0.000102
C28	C	0.994712	-0.514324	0.000100
C29	C	0.858617	-0.489277	0.000092
C30	C	0.867813	-0.381174	0.000094
C31	C	0.940461	-0.339651	0.000101
C32	C	0.949656	-0.231546	0.000109
C33	C	0.813561	-0.206501	0.000095
C34	C	0.804365	-0.314604	0.000093
C35	C	1.041941	0.131673	0.000119
C36	C	1.126094	0.133506	0.000124
C37	C	0.912278	0.329091	0.000099
C38	C	0.922069	0.444144	0.000096
N39	N	0.904118	0.139573	0.195770
N40	N	0.904160	0.139595	-0.195562
C41	C	0.950499	0.069012	0.239042
C42	C	0.950502	0.069011	0.325589
C43	C	0.904129	0.139577	0.368863
C44	C	0.857743	0.210141	0.325584
C45	C	0.857736	0.210136	0.239039
C46	C	0.857771	0.210161	0.674613
C47	C	0.857783	0.210162	0.761164
C48	C	0.950537	0.069035	0.761163
C49	C	0.950530	0.069031	0.674617
C50	C	0.904141	0.139591	0.631347
C51	C	0.904137	0.139590	0.537503
C52	C	0.904137	0.139584	0.462705
H53	H	0.129419	0.305007	0.000107
C54	C	1.028590	-0.186661	0.000069
C55	C	1.082185	-0.268105	0.000043
C56	C	1.154909	-0.226800	-0.000009
H57	H	1.035115	-0.145033	0.048002
H58	H	1.035045	-0.145034	-0.047898
H59	H	1.075734	-0.309714	0.048005
H60	H	1.075685	-0.309739	-0.047887
H61	H	1.161363	-0.185173	-0.047976
H62	H	1.161426	-0.185173	0.047925
H63	H	1.191282	-0.282052	-0.000034
H64	H	0.988268	0.011555	0.360821
H65	H	0.761898	-0.152287	0.000100
C66	C	1.063693	-0.586430	0.000146
C67	C	1.129279	-0.526922	0.000172
C68	C	1.192841	-0.593311	0.000223
H69	H	1.063044	-0.629139	-0.047789
H70	H	1.062974	-0.629114	0.048111
H71	H	1.129998	-0.484257	-0.047789
H72	H	1.129952	-0.484217	0.048102
H73	H	1.192122	-0.635994	0.048189
H74	H	1.192184	-0.636015	-0.047712
H75	H	1.237348	-0.552944	0.000249
C76	C	0.292191	-0.059981	-0.000049
C77	C	0.274303	-0.117358	-0.070794
C78	C	0.316004	-0.210988	-0.070982
H79	H	0.280174	-0.099194	0.047843
H80	H	0.344636	-0.045357	-0.000094
H81	H	0.221869	-0.131984	-0.070741
H82	H	0.286323	-0.078177	-0.118698
H83	H	0.368449	-0.196365	-0.071027
H84	H	0.303983	-0.250192	-0.023087
H85	H	0.303878	-0.249926	-0.118985
H86	H	0.272870	0.308145	0.000096
C87	C	0.807476	0.286711	0.372714
C88	C	0.817424	0.271635	0.457769
C89	C	0.771138	0.342166	0.501208
H90	H	0.756130	0.275610	0.358640
H91	H	0.820687	0.355890	0.358566
H92	H	0.804208	0.202473	0.471911
H93	H	0.868760	0.282745	0.471867
H94	H	0.784350	0.411345	0.487060
H95	H	0.719796	0.331058	0.487127
H96	H	0.777887	0.331953	0.558922
C97	C	1.000874	-0.007720	0.192213
C98	C	1.041476	-0.069533	0.248638
C99	C	1.087881	-0.140244	0.205532
H100	H	1.035123	0.029384	0.158440
H101	H	0.970554	-0.050878	0.158479
H102	H	1.071794	-0.026382	0.282358
H103	H	1.007246	-0.106661	0.282413
H104	H	1.057561	-0.183402	0.171797
H105	H	1.122126	-0.103131	0.171760
H106	H	1.115430	-0.182199	0.243809
H107	H	0.988294	0.011573	0.639387
C108	C	0.779731	-0.534319	-0.000096
C109	C	0.740931	-0.500477	-0.070848
C110	C	0.668263	-0.541962	-0.071057
H111	H	0.753174	-0.511505	0.047792
H112	H	0.783317	-0.608239	-0.000147
H113	H	0.737342	-0.426573	-0.070789
H114	H	0.767465	-0.523289	-0.118747
H115	H	0.671849	-0.615882	-0.071108
H116	H	0.641714	-0.519145	-0.023166
H117	H	0.641931	-0.519014	-0.119064
H118	H	0.678850	-0.025837	0.000094
H119	H	0.527375	0.313714	0.000082
H120	H	0.988306	0.011578	0.796403
H121	H	0.819967	0.267593	0.203807
H122	H	0.820001	0.267615	0.639388
C123	C	0.807296	0.286654	0.808106
C124	C	0.731720	0.269941	0.787088
C125	C	0.685193	0.340371	0.830322
H126	H	0.820391	0.355861	0.793950
H127	H	0.813896	0.276545	0.865854
H128	H	0.725124	0.280058	0.729352
H129	H	0.718602	0.200748	0.801245
H130	H	0.691793	0.330262	0.888071
H131	H	0.698295	0.409574	0.816163
H132	H	0.633910	0.329035	0.816074
C133	C	0.725476	-0.359635	-0.000085
C134	C	0.686670	-0.325792	-0.070832
C135	C	0.613998	-0.367263	-0.071027
H136	H	0.698928	-0.336812	0.047806
H137	H	0.729055	-0.433556	-0.000132
H138	H	0.683088	-0.251887	-0.070777
H139	H	0.713195	-0.348614	-0.118734
H140	H	0.617576	-0.441184	-0.071075
H141	H	0.587457	-0.344437	-0.023133
H142	H	0.587661	-0.344315	-0.119032
H143	H	0.137457	-0.037681	0.000128
C144	C	0.525232	-0.054813	-0.000065
C145	C	0.479983	-0.061329	-0.070812
C146	C	0.442617	-0.156614	-0.070998
H147	H	0.494419	-0.059519	0.047826
H148	H	0.561397	-0.110327	-0.000108
H149	H	0.443822	-0.005831	-0.070761
H150	H	0.510777	-0.056642	-0.118714
H151	H	0.478782	-0.212128	-0.071040
H152	H	0.411808	-0.161311	-0.023103
H153	H	0.411917	-0.161052	-0.119002
H154	H	0.670814	0.316852	0.000068
H155	H	1.063061	-0.372413	0.000116
