data_functionalizedCrystal
_audit_creation_method	'MofGen! by Chris Wilmer'
_symmetry_space_group_name_H-M	'P1'
_symmetry_Int_Tables_number	1
_symmetry_cell_setting	triclinic
loop_
_symmetry_equiv_pos_as_xyz
  x,y,z
_cell_length_a	10.489741
_cell_length_b	8.559649
_cell_length_c	8.965430
_cell_angle_alpha	90.002064
_cell_angle_beta	89.998843
_cell_angle_gamma	77.158919
loop_
_atom_site_label
_atom_site_type_symbol
_atom_site_fract_x
_atom_site_fract_y
_atom_site_fract_z
O1	O	-1.670344	-0.225167	0.123941
O2	O	-1.296923	-0.246304	0.123963
O3	O	-1.516532	-0.003512	0.123948
O4	O	-1.450735	-0.467959	0.123955
O5	O	-1.516514	-0.003528	-0.124131
O6	O	-1.296905	-0.246320	-0.124116
O7	O	-1.670326	-0.225183	-0.124138
Cu8	Cu	-1.483614	-0.235753	-0.146779
Cu9	Cu	-1.483635	-0.235734	0.146603
O10	O	-1.450717	-0.467975	-0.124124
C11	C	-1.249550	-0.244715	-0.000073
C12	C	-1.108424	-0.239939	-0.000065
C13	C	-1.521509	0.055952	-0.000089
C14	C	-1.536352	0.233162	-0.000081
C15	C	-1.717699	-0.226772	-0.000099
C16	C	-1.858825	-0.231548	-0.000098
C17	C	-1.056550	-0.085458	-0.000081
C18	C	-0.956748	-0.158426	0.122233
C19	C	-0.956760	-0.158478	-0.122353
C20	C	-1.010480	-0.312970	0.122350
C21	C	-1.010504	-0.313002	-0.122346
C22	C	-0.910718	-0.386081	-0.000002
C23	C	-1.445739	-0.527439	-0.000083
C24	C	-1.430897	-0.704649	-0.000081
N25	N	-1.483608	-0.235766	-0.353128
C26	C	-1.382022	-0.348011	-0.450427
C27	C	-1.494118	-0.380306	-0.549847
C28	C	-1.371559	-0.203485	-0.549835
C29	C	-1.595755	-0.268133	-0.450359
C30	C	-1.473127	-0.091248	-0.450338
C31	C	-1.585312	-0.123483	-0.549714
N32	N	-1.483652	-0.235709	0.352952
H33	H	-0.932624	-0.093055	0.225640
N34	N	-1.303396	0.192059	-0.000050
N35	N	-1.269410	0.095187	0.104531
H36	H	-1.179361	0.022225	0.104555
N37	N	-1.663861	0.336460	-0.000115
N38	N	-1.676148	0.485098	-0.000136
H39	H	-1.766199	0.558055	-0.000162
N40	N	-1.461950	0.061998	-0.395449
N41	N	-1.546319	0.184600	-0.429039
H42	H	-1.538415	0.292832	-0.390270
H43	H	-1.119611	0.041535	0.000070
H44	H	-0.847908	-0.513209	0.000066
H45	H	-1.296175	-0.443022	-0.406832
H46	H	-1.034666	-0.378319	-0.225758
H47	H	-1.503014	-0.502497	-0.593555
H48	H	-1.690538	-0.295558	-0.406847
H49	H	-1.276784	-0.176207	-0.593534
H50	H	-1.034439	-0.378277	0.225874
N51	N	-0.926530	-0.076438	-0.252067
N52	N	-0.982715	0.066531	-0.273826
H53	H	-0.961370	0.124485	-0.365430
H54	H	-1.671323	-0.028531	-0.593035
