data_functionalizedCrystal
_audit_creation_method	'MofGen! by Chris Wilmer'
_symmetry_space_group_name_H-M	'P1'
_symmetry_Int_Tables_number	1
_symmetry_cell_setting	triclinic
loop_
_symmetry_equiv_pos_as_xyz
  x,y,z
_cell_length_a	13.339070
_cell_length_b	16.109301
_cell_length_c	14.586319
_cell_angle_alpha	90.000787
_cell_angle_beta	89.998714
_cell_angle_gamma	80.454612
loop_
_atom_site_label
_atom_site_type_symbol
_atom_site_fract_x
_atom_site_fract_y
_atom_site_fract_z
O1	O	0.130021	-1.133153	-0.076178
O2	O	0.463354	-0.799820	0.257156
O3	O	0.796687	-0.466486	0.590489
O4	O	0.146201	-0.894827	-0.076192
O5	O	0.479535	-0.561494	0.257142
O6	O	0.812868	-0.228161	0.590475
O7	O	-0.009144	-0.986638	-0.076184
O8	O	0.324190	-0.653305	0.257150
O9	O	0.657523	-0.319972	0.590483
O10	O	0.285365	-1.041342	-0.076186
O11	O	0.618699	-0.708009	0.257148
O12	O	0.952032	-0.374676	0.590481
O13	O	-0.009146	-0.986629	0.076297
O14	O	0.324188	-0.653295	0.409631
O15	O	0.657521	-0.319962	0.742964
O16	O	0.146199	-0.894818	0.076289
O17	O	0.479532	-0.561485	0.409622
O18	O	0.812866	-0.228151	0.742956
O19	O	0.130018	-1.133144	0.076303
O20	O	0.463352	-0.799810	0.409636
O21	O	0.796685	-0.466477	0.742970
Cu22	Cu	0.138108	-1.013980	0.090219
Cu23	Cu	0.471442	-0.680647	0.423552
Cu24	Cu	0.804775	-0.347313	0.756885
Cu25	Cu	0.138111	-1.013991	-0.090107
Cu26	Cu	0.471445	-0.680658	0.243226
Cu27	Cu	0.804778	-0.347324	0.576559
O28	O	0.285363	-1.041333	0.076295
O29	O	0.618697	-0.708000	0.409628
O30	O	0.952030	-0.374666	0.742962
C31	C	0.145545	-0.863697	0.000047
C32	C	0.478878	-0.530363	0.333380
C33	C	0.812212	-0.197030	0.666714
C34	C	0.143580	-0.770947	0.000041
C35	C	0.476913	-0.437614	0.333375
C36	C	0.810246	-0.104281	0.666708
C37	C	-0.046831	-0.977393	0.000055
C38	C	0.286503	-0.644060	0.333388
C39	C	0.619836	-0.310726	0.666722
C40	C	-0.159124	-0.949849	0.000050
C41	C	0.174210	-0.616515	0.333383
C42	C	0.507543	-0.283182	0.666716
C43	C	0.130675	-1.164275	0.000063
C44	C	0.464008	-0.830941	0.333396
C45	C	0.797341	-0.497608	0.666729
C46	C	0.132640	-1.257024	0.000062
C47	C	0.465973	-0.923690	0.333395
C48	C	0.799307	-0.590357	0.666729
C49	C	-0.523987	-1.164017	0.000063
C50	C	-0.190654	-0.830683	0.333396
C51	C	0.142680	-0.497350	0.666729
C52	C	-0.418483	-1.189898	0.000073
C53	C	-0.085150	-0.856565	0.333406
C54	C	0.248184	-0.523232	0.666740
C55	C	-0.353638	-1.129888	0.000067
C56	C	-0.020305	-0.796555	0.333400
C57	C	0.313029	-0.463222	0.666733
C58	C	-0.394307	-1.043992	0.000051
C59	C	-0.060974	-0.710659	0.333384
C60	C	0.272359	-0.377325	0.666718
C61	C	-0.499822	-1.018108	0.000048
C62	C	-0.166489	-0.684774	0.333382
C63	C	0.166845	-0.351441	0.666715
C64	C	-0.329473	-0.983979	0.000052
C65	C	0.003860	-0.650646	0.333386
C66	C	0.337194	-0.317313	0.666719
C67	C	-0.370142	-0.898083	0.000037
C68	C	-0.036809	-0.564750	0.333370
C69	C	0.296524	-0.231416	0.666703
C70	C	-0.475647	-0.872203	0.000033
C71	C	-0.142313	-0.538870	0.333366
C72	C	0.191020	-0.205536	0.666700
C73	C	-0.540492	-0.932213	0.000039
C74	C	-0.207158	-0.598880	0.333372
C75	C	0.126175	-0.265547	0.666706
C76	C	-0.223958	-1.009863	0.000055
C77	C	0.109375	-0.676530	0.333389
C78	C	0.442708	-0.343197	0.666722
C79	C	-0.199793	-0.863954	0.000041
C80	C	0.133540	-0.530621	0.333374
C81	C	0.466873	-0.197288	0.666707
C82	C	-0.305297	-0.838073	0.000030
C83	C	0.028036	-0.504739	0.333364
C84	C	0.361369	-0.171406	0.666697
C85	C	0.323050	-1.050578	0.000054
C86	C	0.656384	-0.717245	0.333388
C87	C	0.989717	-0.383912	0.666721
C88	C	0.435343	-1.078122	0.000054
C89	C	0.768677	-0.744789	0.333387
C90	C	1.102010	-0.411456	0.666720
N91	N	0.138106	-1.013978	0.217051
N92	N	0.471439	-0.680645	0.550384
N93	N	0.804773	-0.347311	0.883717
C94	C	0.231189	-0.568905	0.000051
C95	C	0.564523	-0.235571	0.333385
C96	C	0.897856	0.097762	0.666718
C97	C	0.229335	-0.481756	0.000057
C98	C	0.562668	-0.148423	0.333391
C99	C	0.896002	0.184911	0.666724
C100	C	0.045023	-0.459072	0.000055
C101	C	0.378357	-0.125739	0.333388
C102	C	0.711690	0.207595	0.666721
C103	C	0.046879	-0.546219	0.000055
C104	C	0.380212	-0.212886	0.333389
C105	C	0.713545	0.120448	0.666722
C106	C	0.139965	-0.601133	0.000049
C107	C	0.473298	-0.267800	0.333382
C108	C	0.806631	0.065533	0.666716
C109	C	0.136255	-0.426838	0.000054
C110	C	0.469588	-0.093504	0.333388
C111	C	0.802922	0.239829	0.666721
C112	C	0.134244	-0.332347	0.000061
C113	C	0.467577	0.000986	0.333394
C114	C	0.800911	0.334319	0.666727
C115	C	0.141976	-0.695630	0.000044
C116	C	0.475310	-0.362297	0.333378
C117	C	0.808643	-0.028963	0.666711
N118	N	0.138106	-1.013998	-0.216939
N119	N	0.471439	-0.680664	0.116394
N120	N	0.804772	-0.347331	0.449728
C121	C	0.069342	-1.054656	0.452061
C122	C	0.402676	-0.721323	0.785394
C123	C	0.736009	-0.387989	1.118727
C124	C	0.069340	-1.054658	0.548042
C125	C	0.402673	-0.721324	0.881375
C126	C	0.736006	-0.387991	1.214709
C127	C	0.206873	-0.973315	0.548044
C128	C	0.540206	-0.639981	0.881377
C129	C	0.873539	-0.306648	1.214711
C130	C	0.206870	-0.973308	0.452065
C131	C	0.540203	-0.639975	0.785398
C132	C	0.873536	-0.306642	1.118731
C133	C	0.138105	-1.013984	0.404075
C134	C	0.471439	-0.680650	0.737409
C135	C	0.804772	-0.347317	1.070742
C136	C	0.138106	-1.013992	0.596036
C137	C	0.471440	-0.680659	0.929369
C138	C	0.804773	-0.347325	1.262703
C139	C	0.138104	-1.013994	0.700103
C140	C	0.471437	-0.680660	1.033437
C141	C	0.804771	-0.347327	1.366770
C142	C	0.138106	-1.013981	0.300002
C143	C	0.471439	-0.680648	0.633335
C144	C	0.804773	-0.347314	0.966668
H145	H	-0.190856	-1.079800	0.000068
H146	H	0.142477	-0.746467	0.333402
H147	H	0.475811	-0.413134	0.666735
H148	H	-0.027412	-0.572459	0.000056
H149	H	0.305921	-0.239126	0.333390
H150	H	0.639255	0.094208	0.666723
F151	F	-0.130785	-0.800082	0.000040
F152	F	0.202548	-0.466749	0.333373
F153	F	0.535881	-0.133415	0.666706
F154	F	0.280056	-0.930013	0.400991
F155	F	0.613390	-0.596680	0.734324
F156	F	0.946723	-0.263346	1.067658
H157	H	0.303619	-0.455520	0.000061
H158	H	0.636953	-0.122187	0.333394
H159	H	0.970286	0.211147	0.666728
H160	H	-0.267732	-1.150966	0.000075
H161	H	0.065601	-0.817633	0.333409
H162	H	0.398934	-0.484300	0.666742
F163	F	-0.375207	-1.281311	0.000075
F164	F	-0.041874	-0.947978	0.333408
F165	F	0.291460	-0.614645	0.666741
H166	H	-0.030764	-0.414350	0.000066
H167	H	0.302569	-0.081017	0.333399
H168	H	0.635903	0.252316	0.666732
F169	F	-0.348594	-0.746657	0.000012
F170	F	-0.015260	-0.413324	0.333345
F171	F	0.318073	-0.079991	0.666679
F172	F	-0.003849	-1.097944	0.599108
F173	F	0.329484	-0.764611	0.932442
F174	F	0.662818	-0.431278	1.265775
F175	F	-0.593004	-1.227873	0.000084
F176	F	-0.259670	-0.894540	0.333417
F177	F	0.073663	-0.561207	0.666750
F178	F	-0.652784	-0.904672	-0.000058
F179	F	-0.319450	-0.571338	0.333275
F180	F	0.013883	-0.238005	0.666609
F181	F	0.330259	-0.627346	0.000048
F182	F	0.663593	-0.294012	0.333382
F183	F	0.996926	0.039321	0.666715
H184	H	0.013349	-1.087775	0.412990
H185	H	0.346682	-0.754442	0.746323
H186	H	0.680016	-0.421108	1.079657
F187	F	0.280055	-0.930029	0.599124
F188	F	0.613389	-0.596696	0.932457
F189	F	0.946722	-0.263363	1.265791
H190	H	-0.508756	-0.802261	0.000027
H191	H	-0.175423	-0.468928	0.333361
H192	H	0.157911	-0.135594	0.666694
