data_functionalizedCrystal
_audit_creation_method	'MofGen! by Chris Wilmer'
_symmetry_space_group_name_H-M	'P1'
_symmetry_Int_Tables_number	1
_symmetry_cell_setting	triclinic
loop_
_symmetry_equiv_pos_as_xyz
  x,y,z
_cell_length_a	19.288840
_cell_length_b	15.995350
_cell_length_c	14.472311
_cell_angle_alpha	89.993946
_cell_angle_beta	89.987663
_cell_angle_gamma	83.309196
loop_
_atom_site_label
_atom_site_type_symbol
_atom_site_fract_x
_atom_site_fract_y
_atom_site_fract_z
O1	O	0.921630	0.104355	-0.076991
O2	O	1.421630	0.604355	0.423009
O3	O	0.719404	0.118467	-0.076958
O4	O	1.219404	0.618467	0.423042
O5	O	0.826045	-0.010498	-0.076975
O6	O	1.326045	0.489502	0.423025
O7	O	0.814989	0.233320	-0.076975
O8	O	1.314989	0.733320	0.423025
O9	O	0.826036	-0.010511	0.076707
O10	O	1.326036	0.489489	0.576707
O11	O	0.719394	0.118454	0.076724
O12	O	1.219394	0.618454	0.576724
O13	O	0.921621	0.104342	0.076691
O14	O	1.421621	0.604342	0.576691
Cu15	Cu	0.820507	0.111397	0.090740
Cu16	Cu	1.320507	0.611397	0.590740
Cu17	Cu	0.820518	0.111412	-0.091007
Cu18	Cu	1.320518	0.611412	0.408993
O19	O	0.814980	0.233307	0.076708
O20	O	1.314980	0.733307	0.576708
C21	C	0.693521	0.118010	-0.000113
C22	C	1.193521	0.618010	0.499887
C23	C	0.616413	0.116657	-0.000101
C24	C	1.116413	0.616657	0.499899
C25	C	0.580213	0.116014	-0.083875
C26	C	1.080213	0.616014	0.416125
C27	C	0.507763	0.114734	-0.083887
C28	C	1.007763	0.614734	0.416113
C29	C	0.471517	0.114080	-0.000119
C30	C	0.971517	0.614080	0.499881
C31	C	0.507726	0.114728	0.083667
C32	C	1.007726	0.614728	0.583667
C33	C	0.580173	0.116017	0.083676
C34	C	1.080173	0.616017	0.583676
C35	C	0.362053	0.062990	0.064046
C36	C	0.862053	0.562990	0.564046
C37	C	0.289607	0.061696	0.064034
C38	C	0.789607	0.561696	0.564034
C39	C	0.248063	0.110109	-0.000143
C40	C	0.748063	0.610109	0.499857
C41	C	0.278976	0.159805	-0.064323
C42	C	0.778976	0.659805	0.435677
C43	C	0.351424	0.161094	-0.064314
C44	C	0.851424	0.661094	0.435686
C45	C	0.392960	0.112683	-0.000119
C46	C	0.892960	0.612683	0.499881
C47	C	0.133305	0.108079	-0.083935
C48	C	0.633305	0.608079	0.416065
C49	C	0.060852	0.106804	-0.083943
C50	C	0.560852	0.606804	0.416057
C51	C	0.060817	0.106789	0.083613
C52	C	0.560817	0.606789	0.583613
C53	C	0.133267	0.108073	0.083618
C54	C	0.633267	0.608073	0.583618
C55	C	0.169507	0.108714	-0.000158
C56	C	0.669507	0.608714	0.499842
C57	C	0.825583	-0.041698	-0.000135
C58	C	1.325583	0.458302	0.499865
C59	C	0.824213	-0.134643	-0.000140
C60	C	1.324213	0.365357	0.499860
C61	C	0.819292	-0.472371	-0.000136
C62	C	1.319292	0.027629	0.499864
C63	C	0.743344	-0.424642	-0.000469
C64	C	1.243344	0.075358	0.499531
C65	C	0.744715	-0.327957	-0.000123
C66	C	1.244715	0.172043	0.499877
C67	C	0.821733	-0.304820	-0.000139
C68	C	1.321733	0.195180	0.499861
C69	C	0.859188	-0.346050	0.087613
C70	C	1.359188	0.153950	0.587613
C71	C	0.857280	-0.442678	0.087687
C72	C	1.357280	0.057322	0.587687
C73	C	0.858860	-0.443028	-0.087078
C74	C	1.358860	0.056972	0.412922
C75	C	0.858842	-0.346083	-0.088238
C76	C	1.358842	0.153917	0.411762
C77	C	0.823116	-0.210128	-0.000137
C78	C	1.323116	0.289872	0.499863
C79	C	0.817911	-0.567064	-0.000132
C80	C	1.317911	-0.067064	0.499868
C81	C	0.947504	0.104799	-0.000156
C82	C	1.447504	0.604799	0.499844
C83	C	1.024612	0.106152	-0.000174
C84	C	1.524612	0.606152	0.499826
C85	C	0.815441	0.264507	-0.000134
C86	C	1.315441	0.764507	0.499866
C87	C	0.816812	0.357452	-0.000135
C88	C	1.316812	0.857452	0.499865
N89	N	0.820504	0.111386	0.218571
N90	N	1.320504	0.611386	0.718571
N91	N	0.820527	0.111416	-0.218838
N92	N	1.320527	0.611416	0.281162
C93	C	0.820511	0.111397	0.407071
C94	C	1.320511	0.611397	0.907071
C95	C	0.877586	0.042413	0.446264
C96	C	1.377586	0.542413	0.946264
C97	C	0.877793	0.042595	0.553352
C98	C	1.377793	0.542595	1.053352
C99	C	0.820519	0.111406	0.592662
C100	C	1.320519	0.611406	1.092662
C101	C	0.836048	0.198818	0.553765
C102	C	1.336048	0.698818	1.053765
C103	C	0.836454	0.198408	0.446644
C104	C	1.336454	0.698408	0.946644
C105	C	0.747736	0.093756	0.446574
C106	C	1.247736	0.593756	0.946574
C107	C	0.748228	0.091774	0.553702
C108	C	1.248228	0.591774	1.053702
C109	C	0.820522	0.111416	0.697550
C110	C	1.320522	0.611416	1.197550
C111	C	0.820510	0.111392	0.302183
C112	C	1.320510	0.611392	0.802183
H113	H	0.609647	0.116541	0.151897
H114	H	1.109647	0.616541	0.651897
F115	F	0.469149	0.114036	0.172818
F116	F	0.969149	0.614036	0.672818
H117	H	0.712992	-0.443051	-0.063397
H118	H	1.212992	0.056949	0.436603
F119	F	0.783142	0.267538	0.587042
F120	F	1.283142	0.767538	1.087042
H121	H	0.715272	-0.299416	-0.063026
H122	H	1.215272	0.200584	0.436974
H123	H	0.888507	0.214736	0.580579
H124	H	1.388507	0.714736	1.080579
F125	F	0.826404	-0.469733	-0.174015
F126	F	1.326404	0.030267	0.325985
F127	F	0.732807	0.007733	0.586950
F128	F	1.232807	0.507733	1.086950
F129	F	0.703736	-0.450387	0.081113
F130	F	1.203736	0.049613	0.581113
F131	F	0.705960	-0.291388	0.082248
F132	F	1.205960	0.208612	0.582248
H133	H	0.031306	0.106262	0.151818
H134	H	0.531306	0.606262	0.651818
F135	F	0.933146	-0.327876	0.091867
F136	F	1.433146	0.172124	0.591867
H137	H	0.732739	0.031373	0.419569
H138	H	1.232739	0.531373	0.919569
F139	F	0.690141	0.153192	0.588670
F140	F	1.190141	0.653192	1.088670
F141	F	0.932253	-0.326284	-0.095185
F142	F	1.432253	0.173716	0.404815
H143	H	0.162742	0.108591	0.151836
H144	H	0.662742	0.608591	0.651836
H145	H	0.831457	-0.318723	-0.153155
H146	H	1.331457	0.181277	0.346845
F147	F	0.825176	-0.308831	0.172985
F148	F	1.325176	0.191169	0.672985
F149	F	0.406260	0.011460	0.132358
F150	F	0.906260	0.511460	0.632358
H151	H	0.705266	0.144062	0.421228
H152	H	1.205266	0.644062	0.921228
H153	H	0.914856	-0.475006	-0.087680
H154	H	1.414856	0.024994	0.412320
F155	F	0.256713	0.008822	0.132353
F156	F	0.756713	0.508822	0.632353
H157	H	0.829960	-0.460879	0.153295
H158	H	1.329960	0.039121	0.653295
F159	F	0.930159	-0.485115	0.092886
F160	F	1.430159	0.014885	0.592886
F161	F	0.865758	-0.042330	0.587730
F162	F	1.365758	0.457670	1.087730
H163	H	0.868546	-0.022778	0.420495
H164	H	1.368546	0.477222	0.920495
F165	F	0.947787	0.056940	0.411062
F166	F	1.447787	0.556940	0.911062
H167	H	0.931806	0.053874	0.578963
H168	H	1.431806	0.553874	1.078963
F169	F	0.784570	0.267952	0.412753
F170	F	1.284570	0.767952	0.912753
F171	F	0.618778	0.116699	-0.173038
F172	F	1.118778	0.616699	0.326962
F173	F	0.469228	0.114050	-0.173054
F174	F	0.969228	0.614050	0.326946
H175	H	0.031379	0.106286	-0.152165
H176	H	0.531379	0.606286	0.347835
H177	H	0.376589	0.201560	-0.116569
H178	H	0.876589	0.701560	0.383431
F179	F	0.234768	0.211337	-0.132627
F180	F	0.734768	0.711337	0.367373
F181	F	0.905814	0.218717	0.413963
F182	F	1.405814	0.718717	0.913963
H183	H	0.162812	0.108610	-0.152151
H184	H	0.662812	0.608610	0.347849
