data_functionalizedCrystal
_audit_creation_method	'MofGen! by Chris Wilmer'
_symmetry_space_group_name_H-M	'P1'
_symmetry_Int_Tables_number	1
_symmetry_cell_setting	triclinic
loop_
_symmetry_equiv_pos_as_xyz
  x,y,z
_cell_length_a	12.759401
_cell_length_b	12.759400
_cell_length_c	12.759401
_cell_angle_alpha	89.988710
_cell_angle_beta	89.995172
_cell_angle_gamma	90.018214
loop_
_atom_site_label
_atom_site_type_symbol
_atom_site_fract_x
_atom_site_fract_y
_atom_site_fract_z
Zn1	Zn	-1.606038	0.418508	0.594049
Zn2	Zn	-1.605963	0.594162	0.418367
Zn3	Zn	-1.430390	0.418489	0.418381
Zn4	Zn	-1.430309	0.594136	0.594000
O5	O	-1.518175	0.506324	0.506199
O6	O	-1.753049	0.441828	0.570759
O7	O	-1.582675	0.570862	0.271348
O8	O	-1.453756	0.271470	0.441710
O9	O	-1.752994	0.570880	0.441686
O10	O	-1.582804	0.271484	0.570773
O11	O	-1.453683	0.441795	0.271358
O12	O	-1.283358	0.441770	0.441662
O13	O	-1.453617	0.570836	0.741028
O14	O	-1.283299	0.570817	0.570689
O15	O	-1.582725	0.441803	0.741064
O16	O	-1.582596	0.741180	0.441639
O17	O	-1.453544	0.741161	0.570676
C18	C	-1.245208	0.506289	0.506172
C19	C	-1.128431	0.506300	0.506186
C20	C	-0.963844	0.439028	0.439128
C21	C	-1.073568	0.439013	0.439119
C22	C	-1.073564	0.573598	0.573273
C23	C	-0.963842	0.573606	0.573287
C24	C	-0.963848	0.361330	0.361672
C25	C	-1.073572	0.361315	0.361663
C26	C	-1.518081	0.779291	0.506174
C27	C	-1.518137	0.896068	0.506198
C28	C	-0.792208	0.506346	0.506219
C29	C	-0.908985	0.506323	0.506208
C30	C	-1.585291	0.950858	0.573454
C31	C	-1.585325	1.060582	0.573476
C32	C	-1.451047	1.060716	0.438976
C33	C	-1.451010	0.950994	0.438960
C34	C	-1.662818	0.950781	0.651103
C35	C	-1.662852	1.060505	0.651125
C36	C	-1.518170	0.506319	0.780233
C37	C	-1.518169	0.506316	0.897009
C38	C	-1.518262	1.232291	0.506240
C39	C	-1.518209	1.115514	0.506235
C40	C	-1.585389	0.439143	0.951892
C41	C	-1.585382	0.439145	1.061616
C42	C	-1.450933	0.573504	1.061565
C43	C	-1.450935	0.573496	0.951843
C44	C	-1.663015	0.361575	0.951922
C45	C	-1.663009	0.361577	1.061646
C46	C	-1.518168	0.506346	1.233232
C47	C	-1.518160	0.506327	1.116455
H48	H	-1.118242	0.628376	0.627888
H49	H	-1.633635	1.094527	0.728394
H50	H	-1.640952	0.920991	0.732450
H51	H	-1.396393	1.105451	0.384235
C52	C	-1.436264	0.714835	1.184914
C53	C	-1.377039	0.647355	1.121839
H54	H	-1.390643	0.760433	1.222117
H55	H	-1.476283	0.674828	1.233303
H56	H	-1.482019	0.755021	1.142094
H57	H	-1.331288	0.607162	1.164660
H58	H	-1.337002	0.687366	1.073445
C59	C	-0.840489	0.588415	0.714608
C60	C	-0.903544	0.647572	0.647034
H61	H	-0.803270	0.634083	0.760143
H62	H	-0.792114	0.548361	0.674666
H63	H	-0.883324	0.542696	0.754858
H64	H	-0.860707	0.693286	0.606779
H65	H	-0.951924	0.687644	0.686981
C66	C	-1.762081	0.398947	0.796368
C67	C	-1.767335	0.400934	0.905966
H68	H	-1.826481	0.423256	0.767999
H69	H	-1.749587	0.329256	0.773405
H70	H	-1.706622	0.442999	0.773374
H71	H	-1.822790	0.356876	0.928961
H72	H	-1.779842	0.470636	0.928939
H73	H	-1.744251	1.090238	0.629413
C74	C	-0.960280	0.224918	0.491276
C75	C	-0.923672	0.251539	0.391292
H76	H	-0.935471	0.157143	0.509563
H77	H	-1.034720	0.224912	0.491260
H78	H	-0.935458	0.274639	0.540815
H79	H	-0.948501	0.201821	0.341751
H80	H	-0.849216	0.251536	0.391300
H81	H	-1.740123	0.916707	0.622019
C82	C	-0.999574	0.426237	0.188688
C83	C	-0.917863	0.400511	0.257268
H84	H	-0.971181	0.450421	0.124232
H85	H	-1.041459	0.479777	0.218997
H86	H	-1.041485	0.365951	0.176310
H87	H	-0.875956	0.460799	0.269652
H88	H	-0.875960	0.346967	0.226952
H89	H	-1.396194	0.628191	0.907162
C90	C	-1.615817	0.185111	0.997118
C91	C	-1.633641	0.251728	0.911742
H92	H	-1.597675	0.117302	0.972309
H93	H	-1.677558	0.180697	1.038477
H94	H	-1.560114	0.212152	1.038458
H95	H	-1.689350	0.224691	0.870405
H96	H	-1.571892	0.256138	0.870365
H97	H	-1.633894	0.284279	1.095693
C98	C	-1.181332	0.212112	0.322361
C99	C	-1.119567	0.257027	0.401167
H100	H	-1.209734	0.147736	0.346754
H101	H	-1.139415	0.199540	0.262143
H102	H	-1.236745	0.258595	0.304753
H103	H	-1.064148	0.210547	0.418770
H104	H	-1.161485	0.269595	0.461403
C105	C	-1.318287	0.962154	0.306018
C106	C	-1.377190	0.890768	0.365033
H107	H	-1.272717	0.924970	0.260372
H108	H	-1.278080	1.004956	0.351767
H109	H	-1.364118	1.004936	0.265879
H110	H	-1.331359	0.847991	0.405178
H111	H	-1.417399	0.847948	0.319279
C112	C	-1.766245	0.482016	1.162831
C113	C	-1.772833	0.391010	1.101872
H114	H	-1.834043	0.500177	1.187671
H115	H	-1.739204	0.537697	1.121455
H116	H	-1.721031	0.469885	1.220718
H117	H	-1.818041	0.403144	1.043980
H118	H	-1.799888	0.335317	1.143250
H119	H	-1.103330	0.382985	0.280252
