data_functionalizedCrystal
_audit_creation_method	'MofGen! by Chris Wilmer'
_symmetry_space_group_name_H-M	'P1'
_symmetry_Int_Tables_number	1
_symmetry_cell_setting	triclinic
loop_
_symmetry_equiv_pos_as_xyz
  x,y,z
_cell_length_a	18.050591
_cell_length_b	18.050588
_cell_length_c	18.050582
_cell_angle_alpha	89.978848
_cell_angle_beta	89.979078
_cell_angle_gamma	90.025567
loop_
_atom_site_label
_atom_site_type_symbol
_atom_site_fract_x
_atom_site_fract_y
_atom_site_fract_z
Zn1	Zn	1.135286	-0.295786	-0.420039
Zn2	Zn	1.635286	0.204214	0.079961
Zn3	Zn	1.135193	-0.419969	-0.295852
Zn4	Zn	1.635193	0.080031	0.204148
Zn5	Zn	1.011105	-0.295789	-0.295850
Zn6	Zn	1.511105	0.204211	0.204150
Zn7	Zn	1.011050	-0.419930	-0.419987
Zn8	Zn	1.511050	0.080070	0.080013
O9	O	1.073158	-0.357868	-0.357932
O10	O	1.573158	0.142132	0.142068
O11	O	1.239198	-0.312274	-0.403587
O12	O	1.739198	0.187726	0.096413
O13	O	1.118717	-0.403514	-0.191927
O14	O	1.618717	0.096486	0.308073
O15	O	1.027639	-0.191864	-0.312344
O16	O	1.527639	0.308136	0.187656
O17	O	1.239130	-0.403511	-0.312348
O18	O	1.739130	0.096489	0.187652
O19	O	1.118874	-0.191862	-0.403586
O20	O	1.618874	0.308138	0.096414
O21	O	1.027550	-0.312279	-0.191925
O22	O	1.527550	0.187721	0.308075
O23	O	0.907173	-0.312241	-0.312295
O24	O	1.407173	0.187759	0.187705
O25	O	1.027546	-0.403444	-0.523919
O26	O	1.527546	0.096556	-0.023919
O27	O	0.907133	-0.403447	-0.403498
O28	O	1.407133	0.096553	0.096502
O29	O	1.118821	-0.312236	-0.523957
O30	O	1.618821	0.187764	-0.023957
O31	O	1.118664	-0.523888	-0.312298
O32	O	1.618664	-0.023888	0.187702
O33	O	1.027456	-0.523860	-0.403500
O34	O	1.527456	-0.023860	0.096500
C35	C	0.880206	-0.357841	-0.357891
C36	C	1.380206	0.142159	0.142109
C37	C	0.797661	-0.357847	-0.357891
C38	C	1.297661	0.142153	0.142109
C39	C	1.073064	-0.550821	-0.357910
C40	C	1.573064	-0.050821	0.142090
C41	C	1.073092	-0.633366	-0.357925
C42	C	1.573092	-0.133366	0.142075
C43	C	1.023571	-0.882203	-0.407521
C44	C	1.523571	-0.382203	0.092479
C45	C	1.091288	-0.832739	-0.425752
C46	C	1.591288	-0.332739	0.074248
C47	C	1.073246	-0.930487	-0.357966
C48	C	1.573246	-0.430487	0.142034
C49	C	1.005457	-0.832869	-0.339750
C50	C	1.505457	-0.332869	0.160250
C51	C	1.073167	-0.784502	-0.357948
C52	C	1.573167	-0.284502	0.142052
C53	C	1.140999	-0.882110	-0.376233
C54	C	1.640999	-0.382110	0.123767
C55	C	1.055123	-0.882244	-0.290199
C56	C	1.555123	-0.382244	0.209801
C57	C	1.122886	-0.832802	-0.308404
C58	C	1.622886	-0.332802	0.191596
C59	C	1.073291	-1.014585	-0.357979
C60	C	1.573291	-0.514585	0.142021
C61	C	1.073130	-0.700405	-0.357935
C62	C	1.573130	-0.200405	0.142065
C63	C	0.598210	-0.308191	-0.308409
C64	C	1.098210	0.191809	0.191591
C65	C	0.548789	-0.375927	-0.290134
C66	C	1.048789	0.124073	0.209866
C67	C	0.646530	-0.357869	-0.357924
C68	C	1.146530	0.142131	0.142076
C69	C	0.548870	-0.290157	-0.376197
C70	C	1.048870	0.209843	0.123803
C71	C	0.500545	-0.357885	-0.357955
C72	C	1.000545	0.142115	0.142045
C73	C	0.598196	-0.425641	-0.339615
C74	C	1.098196	0.074359	0.160385
C75	C	0.598281	-0.339825	-0.425709
C76	C	1.098281	0.160175	0.074291
C77	C	0.548882	-0.407607	-0.407460
C78	C	1.048882	0.092393	0.092540
C79	C	0.730628	-0.357859	-0.357905
C80	C	1.230628	0.142141	0.142095
C81	C	0.416449	-0.357903	-0.357975
C82	C	0.916449	0.142097	0.142025
C83	C	1.266864	-0.357897	-0.357974
C84	C	1.766864	0.142103	0.142026
C85	C	1.349410	-0.357909	-0.357991
C86	C	1.849410	0.142091	0.142009
C87	C	1.073188	-0.357835	-0.551638
C88	C	1.573188	0.142165	-0.051638
C89	C	1.073200	-0.357821	-0.634183
C90	C	1.573200	0.142179	-0.134183
C91	C	1.073273	-0.164163	-0.357971
C92	C	1.573273	0.335837	0.142029
C93	C	1.073322	-0.081617	-0.357987
C94	C	1.573322	0.418383	0.142013
C95	C	1.023602	-0.407353	-0.833614
C96	C	1.523602	0.092647	-0.333614
C97	C	1.091357	-0.425511	-0.883013
C98	C	1.591357	0.074489	-0.383013
C99	C	1.073237	-0.357765	-0.785314
C100	C	1.573237	0.142235	-0.285314
C101	C	1.005519	-0.339586	-0.882997
C102	C	1.505519	0.160414	-0.382997
C103	C	1.073266	-0.357711	-0.931299
C104	C	1.573266	0.142289	-0.431299
C105	C	1.141027	-0.375958	-0.833626
C106	C	1.641027	0.124042	-0.333626
C107	C	1.055143	-0.290002	-0.833605
C108	C	1.555143	0.209998	-0.333605
C109	C	1.122945	-0.308134	-0.882982
C110	C	1.622945	0.191866	-0.382982
C111	C	1.073219	-0.357797	-0.701216
C112	C	1.573219	0.142203	-0.201216
C113	C	1.073292	-0.357679	-1.015396
C114	C	1.573292	0.142321	-0.515396
C115	C	1.073172	-0.357848	-0.164980
C116	C	1.573172	0.142152	0.335020
C117	C	1.073304	-0.357652	-0.082434
C118	C	1.573304	0.142348	0.417566
H119	H	0.981648	-0.903892	-0.449467
H120	H	1.481648	-0.403892	0.050533
Cl121	Cl	0.958859	-0.472178	-0.800143
Cl122	Cl	1.458859	0.027822	-0.300143
Cl123	Cl	1.115013	-0.513949	-0.916521
Cl124	Cl	1.615013	-0.013949	-0.416521
H125	H	1.198324	-0.391377	-0.812029
H126	H	1.698324	0.108623	-0.312029
H127	H	0.620037	-0.324530	-0.483002
H128	H	1.120037	0.175470	0.016998
Cl129	Cl	1.187841	-0.243356	-0.916244
Cl130	Cl	1.687841	0.256644	-0.416244
H131	H	1.039803	-0.904004	-0.232914
H132	H	1.539803	-0.404004	0.267086
Cl133	Cl	0.917000	-0.799469	-0.315972
Cl134	Cl	1.417000	-0.299469	0.184028
Cl135	Cl	0.515411	-0.201738	-0.400037
Cl136	Cl	1.015411	0.298262	0.099963
Cl137	Cl	0.917084	-0.315880	-0.916481
Cl138	Cl	1.417084	0.184120	-0.416481
Cl139	Cl	1.114911	-0.799168	-0.514220
Cl140	Cl	1.614911	-0.299168	-0.014220
Cl141	Cl	1.229484	-0.915363	-0.400112
Cl142	Cl	1.729484	-0.415363	0.099888
Cl143	Cl	1.187763	-0.799520	-0.243692
Cl144	Cl	1.687763	-0.299520	0.256308
H145	H	1.039802	-0.232736	-0.811887
H146	H	1.539802	0.267264	-0.311887
Cl147	Cl	0.631654	-0.243399	-0.243693
Cl148	Cl	1.131654	0.256601	0.256307
H149	H	0.527051	-0.391202	-0.232824
H150	H	1.027051	0.108798	0.267176
Cl151	Cl	0.631505	-0.514087	-0.315670
Cl152	Cl	1.131505	-0.014087	0.184330
H153	H	0.527360	-0.449673	-0.449347
H154	H	1.027360	0.050327	0.050653
