data_functionalizedCrystal
_audit_creation_method	'MofGen! by Chris Wilmer'
_symmetry_space_group_name_H-M	'P1'
_symmetry_Int_Tables_number	1
_symmetry_cell_setting	triclinic
loop_
_symmetry_equiv_pos_as_xyz
  x,y,z
_cell_length_a	14.971486
_cell_length_b	16.109301
_cell_length_c	14.048226
_cell_angle_alpha	89.992144
_cell_angle_beta	89.998499
_cell_angle_gamma	83.537805
loop_
_atom_site_label
_atom_site_type_symbol
_atom_site_fract_x
_atom_site_fract_y
_atom_site_fract_z
O1	O	1.186791	0.108348	-0.079054
O2	O	0.926372	0.121323	-0.079081
O3	O	1.063735	-0.006187	-0.079057
O4	O	1.049427	0.235857	-0.079078
O5	O	1.063719	-0.006194	0.079264
O6	O	0.926355	0.121315	0.079241
O7	O	1.186774	0.108340	0.079267
Zn8	Zn	1.056562	0.114826	0.104391
Zn9	Zn	1.056584	0.114836	-0.104204
O10	O	1.049411	0.235850	0.079244
C11	C	0.893040	0.120739	0.000077
C12	C	0.793745	0.119000	0.000067
C13	C	0.736412	0.193908	0.000062
C14	C	0.643115	0.192269	0.000076
C15	C	0.607153	0.115721	0.000089
C16	C	0.664494	0.040807	0.000097
C17	C	0.757789	0.042447	0.000089
C18	C	0.470036	0.037395	0.000110
C19	C	0.376734	0.035755	0.000116
C20	C	0.355362	0.187217	0.000097
C21	C	0.448657	0.188857	0.000090
C22	C	0.505991	0.113942	0.000096
C23	C	1.063147	-0.037166	0.000104
C24	C	1.061410	-0.129464	0.000105
C25	C	1.138878	-0.351640	0.000098
C26	C	1.137239	-0.438362	0.000090
C27	C	0.974262	-0.418691	0.000077
C28	C	0.975902	-0.331970	0.000078
C29	C	1.058213	-0.298447	0.000094
C30	C	1.054933	-0.471890	0.000085
C31	C	1.053155	-0.565918	0.000076
C32	C	1.059992	-0.204413	0.000101
C33	C	1.220106	0.108924	0.000108
C34	C	1.319401	0.110663	0.000111
C35	C	1.049999	0.266829	0.000080
C36	C	1.051736	0.359127	0.000073
N37	N	1.056554	0.114819	0.246752
N38	N	1.056599	0.114837	-0.246565
C39	C	1.117397	0.058381	0.296580
C40	C	1.117403	0.058381	0.396238
C41	C	1.056570	0.114823	0.446065
C42	C	0.995719	0.171263	0.396230
C43	C	0.995710	0.171259	0.296574
C44	C	0.995745	0.171269	0.603944
C45	C	0.995756	0.171275	0.703607
C46	C	1.117439	0.058391	0.703608
C47	C	1.117429	0.058387	0.603952
C48	C	1.056580	0.114829	0.554123
H49	H	0.765684	0.256242	0.000051
O50	O	0.587549	0.265113	0.000028
C51	C	0.576196	0.415515	0.000063
C52	C	0.639226	0.333079	0.000093
H53	H	0.617952	0.470487	0.000136
H54	H	0.531993	0.418594	-0.066204
H55	H	0.531972	0.418488	0.066311
H56	H	0.683507	0.330051	-0.066110
H57	H	0.683368	0.330035	0.066403
O58	O	0.299584	0.259937	-0.000034
C59	C	0.181883	0.346015	-0.082093
C60	C	0.244988	0.263624	-0.082043
H61	H	0.137740	0.349030	-0.148400
H62	H	0.137612	0.349052	-0.015877
H63	H	0.223634	0.400991	-0.082064
H64	H	0.203308	0.208602	-0.082105
H65	H	0.289262	0.260660	-0.148253
H66	H	0.910211	-0.288658	0.000072
H67	H	1.166939	0.012423	0.256017
H68	H	1.166946	0.012424	0.436808
O69	O	1.215537	-0.490118	0.000222
C70	C	1.308289	-0.599423	0.082271
C71	C	1.219570	-0.540871	0.082232
H72	H	1.311587	-0.640459	0.148579
H73	H	1.311613	-0.640562	0.016056
H74	H	1.367382	-0.560547	0.082234
H75	H	1.160427	-0.579681	0.082303
H76	H	1.216325	-0.499730	0.148442
H77	H	0.477934	0.251189	0.000070
H78	H	1.166969	0.012432	0.563383
H79	H	0.347458	-0.026577	0.000128
O80	O	0.936605	0.226179	0.555686
C81	C	0.815887	0.338119	0.566196
C82	C	0.882820	0.275992	0.620966
H83	H	0.772372	0.378397	0.618951
H84	H	0.854440	0.379767	0.519553
H85	H	0.771252	0.302140	0.519526
H86	H	0.927471	0.311903	0.667688
H87	H	0.844211	0.234344	0.667549
H88	H	0.516716	-0.023609	0.000117
H89	H	0.907247	-0.445996	0.000067
O90	O	0.813449	-0.030341	-0.000079
C91	C	0.860230	-0.159312	-0.082061
C92	C	0.797158	-0.076901	-0.082004
H93	H	0.847068	-0.196986	-0.148280
H94	H	0.933104	-0.145040	-0.082127
H95	H	0.847166	-0.196947	-0.015768
H96	H	0.810141	-0.039225	-0.148285
H97	H	0.724305	-0.091231	-0.081888
H98	H	1.166984	0.012434	0.744184
O99	O	0.629519	-0.033531	-0.000059
C100	C	0.536546	-0.123258	-0.082038
C101	C	0.576109	-0.039048	-0.081987
H102	H	0.493340	-0.127738	-0.148259
H103	H	0.593516	-0.176550	-0.082095
H104	H	0.493441	-0.127802	-0.015748
H105	H	0.619204	-0.034423	-0.148265
H106	H	0.519097	0.014204	-0.081880
O107	O	1.218909	-0.319212	0.000059
C108	C	1.380387	-0.347881	0.000113
C109	C	1.289813	-0.384712	0.000141
H110	H	1.437736	-0.400819	0.000199
H111	H	1.385291	-0.307795	-0.066161
H112	H	1.385182	-0.307751	0.066354
H113	H	1.284956	-0.424879	-0.066056
H114	H	1.284947	-0.424750	0.066458
H115	H	0.946218	0.217235	0.744171
O116	O	0.936575	0.226166	0.248315
C117	C	0.815848	0.338098	0.258824
C118	C	0.882788	0.275977	0.313594
H119	H	0.772331	0.378374	0.311579
H120	H	0.854396	0.379748	0.212178
H121	H	0.771216	0.302113	0.212158
H122	H	0.927437	0.311893	0.360313
H123	H	0.844184	0.234327	0.360181
H124	H	0.946183	0.217217	0.436805
