data_functionalizedCrystal
_audit_creation_method	'MofGen! by Chris Wilmer'
_symmetry_space_group_name_H-M	'P1'
_symmetry_Int_Tables_number	1
_symmetry_cell_setting	triclinic
loop_
_symmetry_equiv_pos_as_xyz
  x,y,z
_cell_length_a	14.519731
_cell_length_b	15.995350
_cell_length_c	13.596369
_cell_angle_alpha	89.996243
_cell_angle_beta	89.994584
_cell_angle_gamma	83.590614
loop_
_atom_site_label
_atom_site_type_symbol
_atom_site_fract_x
_atom_site_fract_y
_atom_site_fract_z
O1	O	1.223657	0.109845	-0.081788
O2	O	0.955159	0.122752	-0.081789
O3	O	1.096748	-0.005578	-0.081788
O4	O	1.082068	0.238174	-0.081790
O5	O	1.096733	-0.005585	0.081795
O6	O	0.955145	0.122745	0.081794
O7	O	1.223643	0.109838	0.081794
Zn8	Zn	1.089392	0.116290	0.107766
Zn9	Zn	1.089410	0.116299	-0.107761
O10	O	1.082054	0.238168	0.081793
C11	C	0.920794	0.122144	0.000002
C12	C	0.818417	0.120331	0.000001
C13	C	0.735275	0.118859	-0.000003
C14	C	0.630970	0.117019	-0.000003
C15	C	0.547834	0.115559	-0.000003
C16	C	0.443521	0.113719	-0.000005
C17	C	1.096134	-0.036777	0.000002
C18	C	1.094314	-0.129730	-0.000004
C19	C	1.087781	-0.467488	-0.000001
C20	C	0.986944	-0.420212	-0.000368
C21	C	0.988764	-0.323519	0.000001
C22	C	1.091021	-0.299922	-0.000003
C23	C	1.140750	-0.340926	0.093409
C24	C	1.138216	-0.437565	0.093488
C25	C	1.140316	-0.437913	-0.092537
C26	C	1.140292	-0.340967	-0.093771
C27	C	1.092858	-0.205222	-0.000001
C28	C	1.085947	-0.562189	0.000004
C29	C	1.258008	0.110446	0.000001
C30	C	1.360385	0.112258	-0.000005
C31	C	1.082668	0.269367	0.000001
C32	C	1.084488	0.362320	0.000000
N33	N	1.089386	0.116284	0.254858
N34	N	1.089423	0.116299	-0.254853
C35	C	1.089409	0.116300	0.656149
C36	C	1.089400	0.116299	0.544498
C37	C	1.089398	0.116293	0.455507
C38	C	1.089388	0.116290	0.343849
H39	H	0.946646	-0.438804	-0.067356
H40	H	1.101943	-0.455927	0.163317
H41	H	1.212249	-0.469698	0.097723
N42	N	1.097423	-0.305406	0.180631
N43	N	1.143327	-0.268204	0.241074
H44	H	1.112724	-0.243119	0.302674
N45	N	0.939717	-0.287915	-0.083986
N46	N	0.932668	-0.210239	-0.098078
H47	H	0.898025	-0.185095	-0.157394
N48	N	1.234990	-0.323051	0.097801
N49	N	1.285703	-0.350690	0.167475
H50	H	1.352260	-0.338063	0.170580
H51	H	1.107353	-0.458501	-0.163338
H52	H	1.214863	-0.325488	-0.099414
N53	N	1.094733	-0.306787	-0.180459
N54	N	1.026231	-0.252398	-0.173284
H55	H	0.994052	-0.228253	-0.234506
N56	N	0.936606	-0.444881	0.083199
N57	N	0.974673	-0.497128	0.143025
H58	H	0.939125	-0.514553	0.202047
N59	N	1.233584	-0.477602	-0.093310
N60	N	1.261352	-0.527465	-0.026078
H61	H	1.327222	-0.555496	-0.026613
H62	H	0.949399	-0.295718	0.067076
