data_functionalizedCrystal
_audit_creation_method	'MofGen! by Chris Wilmer'
_symmetry_space_group_name_H-M	'P1'
_symmetry_Int_Tables_number	1
_symmetry_cell_setting	triclinic
loop_
_symmetry_equiv_pos_as_xyz
  x,y,z
_cell_length_a	18.215407
_cell_length_b	16.120484
_cell_length_c	18.215399
_cell_angle_alpha	92.869789
_cell_angle_beta	89.980167
_cell_angle_gamma	92.926015
loop_
_atom_site_label
_atom_site_type_symbol
_atom_site_fract_x
_atom_site_fract_y
_atom_site_fract_z
Zn1	Zn	1.110213	-0.331906	-0.430960
Zn2	Zn	1.103879	-0.471328	-0.314129
Zn3	Zn	0.987144	-0.331934	-0.307908
Zn4	Zn	0.980871	-0.471282	-0.437152
O5	O	1.045527	-0.401612	-0.372537
O6	O	1.212356	-0.350409	-0.415474
O7	O	1.088368	-0.452868	-0.210321
O8	O	1.008745	-0.215264	-0.319037
O9	O	1.207703	-0.452841	-0.329639
O10	O	1.099163	-0.215244	-0.409442
O11	O	1.002604	-0.350456	-0.205751
O12	O	0.883328	-0.350411	-0.325041
O13	O	0.998054	-0.452762	-0.539313
O14	O	0.878719	-0.452789	-0.419995
O15	O	1.093081	-0.350364	-0.534764
O16	O	1.082286	-0.587988	-0.335643
O17	O	0.991913	-0.587954	-0.426027
C18	C	0.854321	-0.401598	-0.372516
C19	C	0.772522	-0.401612	-0.372525
C20	C	0.581943	-0.455004	-0.421912
C21	C	0.505085	-0.455007	-0.421921
C22	C	0.509861	-0.348236	-0.323179
C23	C	0.586719	-0.348229	-0.323174
C24	C	0.622758	-0.401619	-0.372540
C25	C	0.469041	-0.401627	-0.372554
C26	C	0.385708	-0.401630	-0.372564
C27	C	0.706097	-0.401615	-0.372531
C28	C	1.035751	-0.618221	-0.382198
C29	C	1.031637	-0.710887	-0.386356
C30	C	1.024129	-0.880549	-0.393961
C31	C	1.067056	-0.921836	-0.351125
C32	C	1.062879	-1.016241	-0.355357
C33	C	1.028305	-0.786135	-0.389730
C34	C	1.237479	-0.401627	-0.372560
C35	C	1.319277	-0.401634	-0.372569
C36	C	1.045574	-0.401555	-0.564488
C37	C	1.045594	-0.401530	-0.646286
C38	C	1.055360	-0.184158	-0.362855
C39	C	1.059551	-0.091492	-0.358729
C40	C	1.095094	-0.348162	-0.832110
C41	C	1.095104	-0.348138	-0.908967
C42	C	0.996153	-0.454770	-0.913694
C43	C	0.996140	-0.454790	-0.836837
C44	C	1.045615	-0.401487	-0.796047
C45	C	1.045637	-0.401443	-0.949761
C46	C	1.045648	-0.401417	-1.033094
C47	C	1.045603	-0.401511	-0.712709
C48	C	1.045524	-0.401610	-0.181331
C49	C	1.045657	-0.401399	-0.099523
H50	H	0.480509	-0.304769	-0.282986
C51	C	0.942482	-0.512781	-0.957895
C52	C	0.954764	-0.595272	-0.942857
C53	C	0.905331	-0.648736	-0.983552
H54	H	0.949525	-0.505247	-1.008849
H55	H	0.893569	-0.500632	-0.944735
H56	H	1.003665	-0.607417	-0.956021
H57	H	0.947715	-0.602832	-0.891910
H58	H	0.856418	-0.636587	-0.970392
H59	H	0.912379	-0.641196	-1.034504
H60	H	0.913653	-0.704712	-0.973349
C61	C	0.630906	-0.290233	-0.269483
C62	C	0.582896	-0.243499	-0.226235
C63	C	0.623574	-0.190073	-0.176765
H64	H	0.662542	-0.253873	-0.295982
H65	H	0.659425	-0.322060	-0.238752
H66	H	0.554390	-0.211675	-0.256962
H67	H	0.551259	-0.279838	-0.199720
H68	H	0.652093	-0.221900	-0.146034
H69	H	0.655209	-0.153718	-0.203271
H70	H	0.591005	-0.158364	-0.147411
C71	C	1.120164	-0.874285	-0.298001
C72	C	1.113781	-0.788744	-0.304290
C73	C	1.162680	-0.744912	-0.255356
H74	H	1.169028	-0.888341	-0.309381
H75	H	1.108791	-0.888512	-0.249156
H76	H	1.125159	-0.774523	-0.353124
H77	H	1.064928	-0.774663	-0.292904
H78	H	1.151306	-0.759139	-0.206511
H79	H	1.211540	-0.758975	-0.266740
H80	H	1.158350	-0.686868	-0.259611
C81	C	0.970960	-0.928099	-0.447017
C82	C	0.977319	-1.013638	-0.440694
C83	C	0.928343	-1.057478	-0.489546
H84	H	0.982262	-0.913934	-0.495884
H85	H	0.922117	-0.913988	-0.435568
H86	H	1.026151	-1.027744	-0.452148
H87	H	0.966010	-1.027829	-0.391837
H88	H	0.879500	-1.043366	-0.478097
H89	H	0.939649	-1.043306	-0.538410
H90	H	0.932646	-1.115520	-0.485258
C91	C	1.148834	-0.290194	-0.787951
C92	C	1.192153	-0.243473	-0.835987
C93	C	1.241660	-0.190054	-0.795337
H94	H	1.179525	-0.321999	-0.759387
H95	H	1.122335	-0.253831	-0.756362
H96	H	1.218650	-0.279832	-0.867563
H97	H	1.161483	-0.211651	-0.864552
H98	H	1.215161	-0.153691	-0.763748
H99	H	1.272345	-0.221865	-0.766775
H100	H	1.271053	-0.158342	-0.827922
C101	C	1.148741	-0.290270	-0.948255
C102	C	1.138150	-0.301638	-1.024293
C103	C	1.187540	-0.248332	-1.060507
H104	H	1.197668	-0.302421	-0.936302
H105	H	1.140491	-0.234241	-0.933202
H106	H	1.146406	-0.357655	-1.039340
H107	H	1.089233	-0.289481	-1.036268
H108	H	1.179290	-0.192302	-1.045453
H109	H	1.236464	-0.260487	-1.048548
H110	H	1.180356	-0.256032	-1.112102
C111	C	0.620939	-0.512992	-0.475595
C112	C	0.568741	-0.559728	-0.518849
C113	C	0.604634	-0.613146	-0.568320
H114	H	0.649273	-0.549352	-0.449097
H115	H	0.652353	-0.481159	-0.506323
H116	H	0.537340	-0.591558	-0.488126
H117	H	0.540405	-0.523390	-0.545363
H118	H	0.636048	-0.581313	-0.599047
H119	H	0.632967	-0.649500	-0.541816
H120	H	0.569224	-0.644857	-0.597678
C121	C	0.460739	-0.512833	-0.475610
C122	C	0.418778	-0.465698	-0.520763
C123	C	0.377926	-0.518940	-0.570240
H124	H	0.429046	-0.549136	-0.449115
H125	H	0.493191	-0.544611	-0.505050
H126	H	0.386330	-0.433934	-0.491327
H127	H	0.450453	-0.429397	-0.547275
H128	H	0.410377	-0.550718	-0.599680
H129	H	0.346238	-0.555240	-0.543738
H130	H	0.349456	-0.486967	-0.600886
H131	H	0.955843	-0.498213	-0.807474
