data_functionalizedCrystal
_audit_creation_method	'MofGen! by Chris Wilmer'
_symmetry_space_group_name_H-M	'P1'
_symmetry_Int_Tables_number	1
_symmetry_cell_setting	triclinic
loop_
_symmetry_equiv_pos_as_xyz
  x,y,z
_cell_length_a	17.019386
_cell_length_b	16.992695
_cell_length_c	16.053770
_cell_angle_alpha	87.264060
_cell_angle_beta	96.751283
_cell_angle_gamma	92.973293
loop_
_atom_site_label
_atom_site_type_symbol
_atom_site_fract_x
_atom_site_fract_y
_atom_site_fract_z
O1	O	-1.059543	0.106173	-0.145533
O2	O	-0.559543	0.606173	0.354467
O3	O	-0.829938	0.118190	-0.129044
O4	O	-0.329938	0.618190	0.370956
O5	O	-0.943820	-0.001963	-0.137216
O6	O	-0.443820	0.498037	0.362784
O7	O	-0.945662	0.226326	-0.137361
O8	O	-0.445662	0.726326	0.362639
O9	O	-0.937513	-0.007911	0.002097
O10	O	-0.437513	0.492089	0.502097
O11	O	-0.823631	0.112243	0.010269
O12	O	-0.323631	0.612243	0.510269
O13	O	-1.053236	0.100225	-0.006220
O14	O	-0.553236	0.600225	0.493780
Zn15	Zn	-0.937432	0.105290	0.024143
Zn16	Zn	-0.437432	0.605290	0.524143
Zn17	Zn	-0.945742	0.113126	-0.159408
Zn18	Zn	-0.445742	0.613126	0.340592
O19	O	-0.939354	0.220379	0.001952
O20	O	-0.439354	0.720379	0.501952
C21	C	-0.797270	0.114641	-0.057267
C22	C	-0.297270	0.614641	0.442733
C23	C	-0.709323	0.112917	-0.050951
C24	C	-0.209323	0.612917	0.449049
C25	C	-0.671437	0.115350	-0.123917
C26	C	-0.171437	0.615350	0.376083
C27	C	-0.588801	0.113742	-0.117970
C28	C	-0.088801	0.613742	0.382030
C29	C	-0.544053	0.109695	-0.039056
C30	C	-0.044053	0.609695	0.460944
C31	C	-0.581945	0.107263	0.033915
C32	C	-0.081945	0.607263	0.533915
C33	C	-0.664579	0.108877	0.027967
C34	C	-0.164579	0.608877	0.527967
C35	C	-0.294379	0.104665	-0.017298
C36	C	0.205621	0.604665	0.482702
C37	C	-0.211739	0.103049	-0.011355
C38	C	0.288261	0.603049	0.488645
C39	C	-0.218600	0.109529	-0.163241
C40	C	0.281400	0.609529	0.336759
C41	C	-0.301236	0.111138	-0.169182
C42	C	0.198764	0.611138	0.330818
C43	C	-0.339121	0.108711	-0.096211
C44	C	0.160879	0.608711	0.403789
C45	C	-0.459586	0.108048	-0.032975
C46	C	0.040414	0.608048	0.467025
C47	C	-0.423586	0.110363	-0.102293
C48	C	0.076414	0.610363	0.397707
C49	C	-0.938298	-0.034154	-0.067389
C50	C	-0.438298	0.465846	0.432611
C51	C	-0.931232	-0.121213	-0.066882
C52	C	-0.431232	0.378787	0.433118
C53	C	-0.999408	-0.171316	-0.071777
C54	C	-0.499408	0.328684	0.428223
C55	C	-0.992765	-0.253115	-0.071308
C56	C	-0.492765	0.246885	0.428692
C57	C	-0.917945	-0.284811	-0.065938
C58	C	-0.417945	0.215189	0.434062
C59	C	-0.849764	-0.234701	-0.061044
C60	C	-0.349764	0.265299	0.438956
C61	C	-0.856408	-0.152903	-0.061520
C62	C	-0.356408	0.347097	0.438480
C63	C	-0.890406	-0.528464	-0.063971
C64	C	-0.390406	-0.028464	0.436029
C65	C	-0.883767	-0.610268	-0.063494
C66	C	-0.383767	-0.110268	0.436506
C67	C	-1.026768	-0.628677	-0.073759
C68	C	-0.526768	-0.128677	0.426241
C69	C	-1.033406	-0.546876	-0.074229
C70	C	-0.533406	-0.046876	0.425771
C71	C	-0.965225	-0.496774	-0.069340
C72	C	-0.465225	0.003226	0.430660
N73	N	-0.911152	-0.368423	-0.065455
N74	N	-0.411152	0.131577	0.434545
N75	N	-0.972019	-0.413163	-0.069829
N76	N	-0.472019	0.086837	0.430171
C77	C	-0.085905	0.103771	-0.077999
C78	C	0.414095	0.603771	0.422001
C79	C	-0.173852	0.105482	-0.084321
C80	C	0.326148	0.605482	0.415679
C81	C	-0.944876	0.252570	-0.067877
C82	C	-0.444876	0.752570	0.432123
C83	C	-0.951942	0.339629	-0.068389
C84	C	-0.451942	0.839629	0.431611
N85	N	-0.951414	0.118468	-0.284676
N86	N	-0.451414	0.618468	0.215324
C87	C	-0.902495	0.072541	-0.324848
C88	C	-0.402495	0.572541	0.175152
C89	C	-0.906473	0.076257	-0.412541
C90	C	-0.406473	0.576257	0.087459
C91	C	-0.959366	0.125904	-0.460061
C92	C	-0.459366	0.625904	0.039939
C93	C	-1.008290	0.171832	-0.419884
C94	C	-0.508290	0.671832	0.080116
C95	C	-1.004316	0.168112	-0.332192
C96	C	-0.504316	0.668112	0.167808
C97	C	-0.976716	0.142150	-0.722720
C98	C	-0.476716	0.642150	-0.222720
C99	C	-0.980685	0.145868	-0.810417
C100	C	-0.480685	0.645868	-0.310417
C101	C	-0.878869	0.050291	-0.803068
C102	C	-0.378869	0.550291	-0.303068
C103	C	-0.874895	0.046579	-0.715375
C104	C	-0.374895	0.546579	-0.215375
C105	C	-0.923822	0.092504	-0.675206
C106	C	-0.423822	0.592504	-0.175206
N107	N	-0.963432	0.129704	-0.549697
N108	N	-0.463432	0.629704	-0.049697
N109	N	-0.919760	0.088699	-0.585571
N110	N	-0.419760	0.588699	-0.085571
N111	N	-0.931766	0.099941	0.149412
N112	N	-0.431766	0.599941	0.649412
H113	H	-0.325215	0.102683	0.042121
H114	H	0.174785	0.602683	0.542121
H115	H	-0.831825	0.006150	-0.676690
H116	H	-0.331825	0.506150	-0.176690
H117	H	-0.822835	-0.636072	-0.059107
H118	H	-0.322835	-0.136072	0.440893
Cl119	Cl	-1.078476	-0.316099	-0.077460
Cl120	Cl	-0.578476	0.183901	0.422540
Cl121	Cl	-0.727683	0.120433	-0.223128
Cl122	Cl	-0.227683	0.620433	0.276872
Cl123	Cl	-0.541175	0.116802	-0.209703
Cl124	Cl	-0.041175	0.616802	0.290297
H125	H	-0.337665	0.114428	-0.233442
H126	H	0.162335	0.614428	0.266558
Cl127	Cl	-1.093472	-0.131479	-0.078521
Cl128	Cl	-0.593472	0.368521	0.421479
H129	H	-1.016555	0.179546	-0.690025
H130	H	-0.516555	0.679546	-0.190025
Cl131	Cl	-0.479841	0.115453	-0.201495
Cl132	Cl	0.020159	0.615453	0.298505
Cl133	Cl	-0.835994	0.010128	-0.265116
Cl134	Cl	-0.335994	0.510128	0.234884
Cl135	Cl	-0.170970	0.112572	-0.254971
Cl136	Cl	0.329030	0.612572	0.245029
H137	H	-0.423143	0.104750	0.031277
H138	H	0.076857	0.604750	0.531277
H139	H	-0.175306	0.099775	0.052909
H140	H	0.324694	0.599775	0.552909
Cl141	Cl	-1.127471	-0.507036	-0.081008
Cl142	Cl	-0.627471	-0.007036	0.418992
H143	H	-1.051360	0.212252	-0.458582
H144	H	-0.551360	0.712252	0.041418
Cl145	Cl	-0.525690	0.102181	0.133122
Cl146	Cl	-0.025690	0.602181	0.633122
Cl147	Cl	-0.770698	-0.089916	-0.055368
Cl148	Cl	-0.270698	0.410084	0.444632
H149	H	-0.695425	0.106899	0.087384
H150	H	-0.195425	0.606899	0.587384
Cl151	Cl	-1.112475	-0.691666	-0.079907
Cl152	Cl	-0.612475	-0.191666	0.420093
Cl153	Cl	-0.804692	-0.465488	-0.057827
Cl154	Cl	-0.304692	0.034512	0.442173
Cl155	Cl	-1.065819	0.225848	-0.281691
Cl156	Cl	-0.565819	0.725848	0.218309
Cl157	Cl	-0.755704	-0.274547	-0.054303
Cl158	Cl	-0.255704	0.225453	0.445697
Cl159	Cl	-0.844949	0.018542	-0.463037
Cl160	Cl	-0.344949	0.518542	0.036963
H161	H	-1.023755	0.186302	-0.849106
H162	H	-0.523755	0.686302	-0.349106
Cl163	Cl	-0.817368	-0.007443	-0.853572
Cl164	Cl	-0.317368	0.492557	-0.353572
