data_functionalizedCrystal
_audit_creation_method	'MofGen! by Chris Wilmer'
_symmetry_space_group_name_H-M	'P1'
_symmetry_Int_Tables_number	1
_symmetry_cell_setting	triclinic
loop_
_symmetry_equiv_pos_as_xyz
  x,y,z
_cell_length_a	6.817900
_cell_length_b	16.255661
_cell_length_c	16.256208
_cell_angle_alpha	95.350611
_cell_angle_beta	103.499088
_cell_angle_gamma	103.488922
loop_
_atom_site_label
_atom_site_type_symbol
_atom_site_fract_x
_atom_site_fract_y
_atom_site_fract_z
V1	V	-4.026770	-0.264174	-0.117778
O2	O	-4.014188	-0.258835	0.004956
O3	O	-3.978378	-0.262666	-0.232858
O4	O	-3.978331	-0.379254	-0.116275
O5	O	-4.014235	-0.141440	-0.112433
V6	V	-4.510402	-0.249458	-0.103061
O7	O	-4.287789	-0.296455	-0.150061
O8	O	-4.699579	-0.217177	-0.070778
O9	O	-4.335587	-0.250966	0.012018
O10	O	-4.640380	-0.254797	-0.225796
O11	O	-4.640333	-0.372192	-0.108406
O12	O	-4.335634	-0.134379	-0.104564
C13	C	-3.823382	-0.258575	-0.260902
C14	C	-3.865103	-0.258109	-0.354983
C15	C	-4.180993	-0.261101	-0.643087
C16	C	-4.024588	-0.189040	-0.573415
C17	C	-4.015127	-0.256396	-0.693616
C18	C	-4.097310	-0.329275	-0.595653
C19	C	-3.941426	-0.257239	-0.527235
C20	C	-3.859240	-0.184270	-0.625174
C21	C	-3.932023	-0.324568	-0.647427
C22	C	-3.775481	-0.252486	-0.577774
C23	C	-4.057590	-0.255909	-0.789464
C24	C	-3.898947	-0.257719	-0.431387
C25	C	-3.823321	-0.407294	-0.112188
C26	C	-3.865001	-0.501374	-0.111721
C27	C	-3.775555	-0.724178	-0.106138
C28	C	-3.932006	-0.793840	-0.178197
C29	C	-3.941385	-0.673620	-0.110845
C30	C	-3.859223	-0.771594	-0.037961
C31	C	-4.015152	-0.840001	-0.109994
C32	C	-4.097318	-0.742052	-0.182968
C33	C	-4.024473	-0.719790	-0.042668
C34	C	-4.181062	-0.789432	-0.114748
C35	C	-3.898884	-0.577772	-0.111335
C36	C	-4.057670	-0.935849	-0.109510
C37	C	-4.153925	-0.255055	0.040058
C38	C	-4.091442	-0.255526	0.134138
C39	C	-4.153986	-0.106334	-0.108654
C40	C	-4.091545	-0.012253	-0.109117
H41	H	-3.603605	-0.248826	-0.549394
H42	H	-3.603799	-0.695688	-0.102591
H43	H	-4.063276	-0.131743	-0.541196
H44	H	-4.197565	-0.728743	-0.244317
H45	H	-4.352936	-0.817788	-0.118407
C46	C	-3.951072	-0.690598	0.110524
C47	C	-4.076530	-0.676234	0.034684
H48	H	-3.983189	-0.663701	0.158282
H49	H	-3.976946	-0.750422	0.111693
H50	H	-3.807993	-0.667399	0.113036
H51	H	-4.219610	-0.699439	0.032170
H52	H	-4.050671	-0.616399	0.033515
C53	C	-3.512187	-0.756620	0.049118
C54	C	-3.723884	-0.789707	0.044775
H55	H	-3.428630	-0.767796	0.100197
H56	H	-3.480728	-0.783063	0.000966
H57	H	-3.483630	-0.696555	0.049152
H58	H	-3.752446	-0.849773	0.044735
H59	H	-3.755356	-0.763266	0.092940
H60	H	-3.893361	-0.826073	-0.235496
C61	C	-4.538014	-0.341077	-0.665871
C62	C	-4.412854	-0.265894	-0.681591
H63	H	-4.681148	-0.344028	-0.689639
H64	H	-4.505142	-0.389289	-0.691461
H65	H	-4.512655	-0.340894	-0.605850
H66	H	-4.438203	-0.266080	-0.741614
H67	H	-4.445740	-0.217669	-0.656005
C68	C	-3.771936	-0.030587	-0.604723
C69	C	-3.723920	-0.101446	-0.643114
H70	H	-3.688391	0.020544	-0.615795
H71	H	-3.915526	-0.033827	-0.627677
H72	H	-3.744419	-0.030416	-0.544656
H73	H	-3.751452	-0.101621	-0.703181
H74	H	-3.580296	-0.098205	-0.620163
H75	H	-3.893415	-0.381870	-0.679666
C76	C	-4.190498	-0.411927	-0.489003
C77	C	-4.232631	-0.412006	-0.577543
H78	H	-4.274059	-0.462997	-0.477826
H79	H	-4.046888	-0.408973	-0.466551
H80	H	-4.222012	-0.363764	-0.462587
H81	H	-4.201103	-0.460167	-0.603959
H82	H	-4.376274	-0.414969	-0.600005
