data_functionalizedCrystal
_audit_creation_method	'MofGen! by Chris Wilmer'
_symmetry_space_group_name_H-M	'P1'
_symmetry_Int_Tables_number	1
_symmetry_cell_setting	triclinic
loop_
_symmetry_equiv_pos_as_xyz
  x,y,z
_cell_length_a	30.700809
_cell_length_b	30.711276
_cell_length_c	30.700862
_cell_angle_alpha	59.998386
_cell_angle_beta	89.999414
_cell_angle_gamma	60.000191
loop_
_atom_site_label
_atom_site_type_symbol
_atom_site_fract_x
_atom_site_fract_y
_atom_site_fract_z
O1	O	-0.371254	-0.311651	0.012944
O2	O	-0.307913	-0.222487	-0.012907
O3	O	-0.307911	-0.311650	0.076286
O4	O	-0.371257	-0.222488	-0.076249
O5	O	-0.235466	-0.384070	0.076286
O6	O	-0.235468	-0.294907	-0.012907
O7	O	-0.298809	-0.384071	0.012944
Zn8	Zn	-0.255636	-0.350987	0.000018
Zn9	Zn	-0.351086	-0.255571	0.000019
O10	O	-0.298812	-0.294908	-0.076249
C11	C	-0.234796	-0.137097	-0.018777
C12	C	-0.261674	-0.083360	-0.015076
C13	C	-0.182374	-0.163176	-0.019143
C14	C	-0.234798	-0.215942	-0.018783
C15	C	-0.261678	-0.246507	-0.015089
C16	C	-0.182376	-0.241901	-0.019150
C17	C	-0.155920	-0.215947	-0.018777
C18	C	-0.098463	-0.246515	-0.015075
C19	C	-0.261132	-0.163172	-0.019150
C20	C	-0.574961	-0.535511	0.039265
C21	C	-0.548506	-0.588283	0.039634
C22	C	-0.496086	-0.535509	0.039262
C23	C	-0.469751	-0.588281	0.039632
C24	C	-0.496085	-0.614360	0.039265
C25	C	-0.548507	-0.509552	0.039632
C26	C	-0.765169	-0.393516	0.024987
C27	C	-0.819034	-0.364488	0.020950
C28	C	-0.846055	-0.389406	0.018925
C29	C	-0.904462	-0.357927	0.014538
C30	C	-0.819206	-0.443357	0.020941
C31	C	-0.765344	-0.472385	0.024984
C32	C	-0.738325	-0.447463	0.027007
C33	C	-0.447920	-0.790230	0.024988
C34	C	-0.423094	-0.840041	0.020951
C35	C	-0.371150	-0.865027	0.018921
C36	C	-0.344230	-0.919028	0.014536
C37	C	-0.344030	-0.840201	0.020935
C38	C	-0.368852	-0.790399	0.024981
C39	C	-0.420803	-0.765414	0.027004
C40	C	-0.447922	-0.393510	0.024977
C41	C	-0.423099	-0.364475	0.020931
C42	C	-0.371152	-0.389391	0.018903
C43	C	-0.344235	-0.357911	0.014513
C44	C	-0.344034	-0.443338	0.020916
C45	C	-0.368860	-0.472368	0.024960
C46	C	-0.420804	-0.447452	0.026995
C47	C	-0.679920	-0.478941	0.031387
C48	C	-0.633366	-0.504032	0.034880
C49	C	-0.469171	-0.504029	0.034875
C50	C	-0.447717	-0.478936	0.031380
C51	C	-0.469170	-0.668361	0.034880
C52	C	-0.447716	-0.711408	0.031386
C53	C	-0.496432	-0.071057	-0.503890
C54	C	-0.548853	-0.018285	-0.530226
C55	C	-0.496432	-0.071056	-0.425015
C56	C	-0.548854	-0.018284	-0.451470
C57	C	-0.575308	0.007793	-0.503892
C58	C	-0.470097	-0.097014	-0.451469
C59	C	-0.368666	-0.213054	-0.552051
C60	C	-0.343664	-0.242084	-0.576877
C61	C	-0.370616	-0.217167	-0.628824
C62	C	-0.343513	-0.248647	-0.655741
C63	C	-0.422570	-0.163216	-0.655945
C64	C	-0.447565	-0.134187	-0.631122
C65	C	-0.420611	-0.159108	-0.579173
C66	C	-0.765518	0.183662	-0.631659
C67	C	-0.819384	0.233473	-0.656662
C68	C	-0.846408	0.258459	-0.629712
C69	C	-0.904813	0.312461	-0.656813
C70	C	-0.819559	0.233635	-0.577758
C71	C	-0.765694	0.183833	-0.552761
C72	C	-0.738677	0.158847	-0.579717
C73	C	-0.368668	-0.213052	-0.234803
C74	C	-0.343669	-0.242086	-0.180935
C75	C	-0.370621	-0.217169	-0.153914
C76	C	-0.343519	-0.248648	-0.095506
C77	C	-0.422573	-0.163222	-0.180762
C78	C	-0.447570	-0.134193	-0.234627
C79	C	-0.420610	-0.159111	-0.261646
C80	C	-0.447720	-0.127629	-0.552258
C81	C	-0.469327	-0.102536	-0.530805
C82	C	-0.469328	-0.102535	-0.366609
C83	C	-0.447721	-0.127627	-0.320054
C84	C	-0.633714	0.061794	-0.530997
C85	C	-0.680269	0.104841	-0.552605
O86	O	0.076277	-0.384081	0.012960
O87	O	-0.076257	-0.294916	-0.012894
O88	O	0.012931	-0.384083	0.076300
O89	O	-0.012910	-0.294914	-0.076234
O90	O	0.012933	-0.311666	0.076306
O91	O	-0.076254	-0.222499	-0.012888
O92	O	0.076280	-0.311664	0.012966
Zn93	Zn	0.000013	-0.255584	0.000040
Zn94	Zn	0.000010	-0.350996	0.000032
O95	O	-0.012908	-0.222497	-0.076228
O96	O	-0.298805	0.063292	0.012964
O97	O	-0.235462	-0.063346	-0.012888
O98	O	-0.235465	-0.063353	0.076305
O99	O	-0.298803	0.063300	-0.076229
O100	O	-0.307912	-0.063350	0.076299
O101	O	-0.307909	-0.063342	-0.012895
O102	O	-0.371252	0.063295	0.012958
Zn103	Zn	-0.351083	-0.000023	0.000031
Zn104	Zn	-0.255631	-0.000027	0.000039
O105	O	-0.371250	0.063303	-0.076236
O106	O	-1.076607	0.456783	-0.692421
O107	O	-0.924074	0.330140	-0.629074
O108	O	-1.013262	0.330138	-0.629073
O109	O	-0.987418	0.456785	-0.692422
O110	O	-1.013261	0.330136	-0.701518
O111	O	-0.924072	0.330138	-0.701518
O112	O	-1.076605	0.456781	-0.764865
Zn113	Zn	-1.000338	0.393459	-0.744694
Zn114	Zn	-1.000340	0.393461	-0.649245
O115	O	-0.987417	0.456783	-0.764866
O116	O	-0.307911	-0.311650	-0.764507
O117	O	-0.371254	-0.222491	-0.701165
O118	O	-0.371252	-0.311652	-0.701162
O119	O	-0.307912	-0.222489	-0.764510
O120	O	-0.298806	-0.384074	-0.628716
O121	O	-0.298807	-0.294912	-0.628719
O122	O	-0.235464	-0.384072	-0.692061
Zn123	Zn	-0.255634	-0.350991	-0.648887
Zn124	Zn	-0.351085	-0.255572	-0.744338
O125	O	-0.235466	-0.294910	-0.692064
C126	C	-0.155920	-0.469469	0.234827
C127	C	-0.098464	-0.523208	0.261706
C128	C	-0.182375	-0.443392	0.261162
C129	C	-0.234797	-0.390619	0.155950
C130	C	-0.261676	-0.360052	0.098494
C131	C	-0.261132	-0.364662	0.182405
C132	C	-0.234797	-0.390620	0.234826
C133	C	-0.261675	-0.360052	0.261704
C134	C	-0.182375	-0.443391	0.182406
C135	C	0.018810	-0.390643	0.234846
C136	C	0.015111	-0.360079	0.261727
C137	C	0.019176	-0.443414	0.261179
C138	C	0.018812	-0.390637	0.155967
C139	C	0.015115	-0.360067	0.098511
C140	C	0.019178	-0.443408	0.182420
C141	C	0.018807	-0.469488	0.234841
C142	C	0.015106	-0.523226	0.261717
C143	C	0.019180	-0.364683	0.182425
C144	C	-0.234799	-0.215977	0.234834
C145	C	-0.261678	-0.246545	0.261708
C146	C	-0.182376	-0.241940	0.261172
C147	C	-0.234798	-0.137119	0.155964
C148	C	-0.261676	-0.083372	0.098509
C149	C	-0.182375	-0.163202	0.182421
C150	C	-0.155921	-0.215981	0.234841
C151	C	-0.098464	-0.246554	0.261721
C152	C	-0.261134	-0.163198	0.182415
C153	C	-0.039199	0.007461	-0.503869
C154	C	-0.039568	-0.018614	-0.530207
C155	C	-0.039203	-0.071390	-0.424995
C156	C	-0.039572	-0.097344	-0.451452
C157	C	-0.039201	-0.071385	-0.503874
C158	C	-0.039570	-0.018618	-0.451448
C159	C	-0.024912	0.183325	-0.552025
C160	C	-0.020873	0.233135	-0.576849
C161	C	-0.018844	0.258123	-0.628796
C162	C	-0.014454	0.312124	-0.655711
C163	C	-0.020859	0.233301	-0.655918
C164	C	-0.024906	0.183500	-0.631097
C165	C	-0.026932	0.158512	-0.579148
C166	C	-0.024920	-0.133799	-0.631644
C167	C	-0.020882	-0.162650	-0.656647
C168	C	-0.018855	-0.216605	-0.629699
C169	C	-0.014470	-0.247897	-0.656801
C170	C	-0.020872	-0.241704	-0.577746
C171	C	-0.024919	-0.212847	-0.552747
C172	C	-0.026939	-0.158893	-0.579702
C173	C	-0.024929	-0.133823	-0.234783
C174	C	-0.020887	-0.162684	-0.180915
C175	C	-0.018862	-0.216639	-0.153896
C176	C	-0.014477	-0.247936	-0.095488
C177	C	-0.020875	-0.241733	-0.180745
C178	C	-0.024915	-0.212872	-0.234610
C179	C	-0.026947	-0.158912	-0.261627
C180	C	-0.031316	0.104507	-0.552235
C181	C	-0.034811	0.061462	-0.530782
C182	C	-0.034820	-0.102682	-0.366590
C183	C	-0.031328	-0.127624	-0.320035
C184	C	-0.034816	-0.102672	-0.530980
C185	C	-0.031322	-0.127610	-0.552588
O186	O	-0.012940	-0.294936	0.371303
O187	O	0.012923	-0.384099	0.307961
O188	O	-0.076273	-0.294935	0.307950
O189	O	0.076257	-0.384100	0.371315
O190	O	-0.076265	-0.222515	0.235508
O191	O	0.012932	-0.311679	0.235520
O192	O	-0.012931	-0.222517	0.298862
Zn193	Zn	0.000002	-0.255600	0.255689
Zn194	Zn	-0.000010	-0.351016	0.351134
O195	O	0.076266	-0.311681	0.298873
C196	C	-0.574962	0.464558	-0.503864
C197	C	-0.548506	0.490518	-0.530195
C198	C	-0.496085	0.385697	-0.424987
C199	C	-0.469749	0.411776	-0.451438
C200	C	-0.496084	0.464555	-0.503857
C201	C	-0.548507	0.411779	-0.451444
C202	C	-0.765173	0.526994	-0.552039
C203	C	-0.819039	0.555852	-0.576867
C204	C	-0.846061	0.609814	-0.628812
C205	C	-0.904469	0.641114	-0.655732
C206	C	-0.819211	0.634913	-0.655928
C207	C	-0.765348	0.606050	-0.631102
C208	C	-0.738329	0.552088	-0.579155
C209	C	-0.447916	0.606561	-0.631604
C210	C	-0.423088	0.635592	-0.656601
C211	C	-0.371143	0.610674	-0.629648
C212	C	-0.344222	0.642150	-0.656742
C213	C	-0.344023	0.556716	-0.577696
C214	C	-0.368845	0.527681	-0.552704
C215	C	-0.420798	0.552613	-0.579664
C216	C	-0.447920	0.209802	-0.234786
C217	C	-0.423096	0.159988	-0.180919
C218	C	-0.371148	0.134996	-0.153895
C219	C	-0.344230	0.080987	-0.095489
C220	C	-0.344029	0.159823	-0.180737
C221	C	-0.368856	0.209637	-0.234602
C222	C	-0.420801	0.234620	-0.261624
C223	C	-0.679923	0.520797	-0.552238
C224	C	-0.633367	0.495853	-0.530781
C225	C	-0.469169	0.331687	-0.366583
C226	C	-0.447714	0.288634	-0.320030
C227	C	-0.469167	0.496035	-0.530956
C228	C	-0.447712	0.521128	-0.552558
H229	H	-0.426680	-0.610102	0.040221
O230	O	-0.845756	0.257953	-0.551590
C231	C	-0.850221	0.306988	-0.508626
C232	C	-0.820511	0.279482	-0.538267
H233	H	-0.829816	0.324390	-0.497836
H234	H	-0.893328	0.346880	-0.535404
H235	H	-0.849493	0.270013	-0.470657
H236	H	-0.821197	0.316413	-0.576235
H237	H	-0.777418	0.239577	-0.511452
O238	O	-0.157115	-0.292556	0.312577
C239	C	-0.156932	-0.336196	0.403247
C240	C	-0.185602	-0.278838	0.345053
H241	H	-0.179946	-0.325121	0.429522
H242	H	-0.154760	-0.375567	0.405723
H243	H	-0.114838	-0.350352	0.417584
H244	H	-0.227709	-0.264627	0.330679
H245	H	-0.187732	-0.239503	0.342610
H246	H	-0.161134	-0.465220	0.304234
O247	O	-0.448830	-0.139001	-0.706379
C248	C	-0.525454	-0.109499	-0.764693
C249	C	-0.495772	-0.136922	-0.707555
H250	H	-0.563407	-0.107822	-0.765661
H251	H	-0.536255	-0.060911	-0.792936
H252	H	-0.498647	-0.139506	-0.777776
H253	H	-0.522549	-0.106962	-0.694423
H254	H	-0.484963	-0.185517	-0.679346
H255	H	-0.304205	-0.141373	0.161175
O256	O	-0.293172	-0.294436	-0.550512
C257	C	-0.201228	-0.341717	-0.507428
C258	C	-0.258388	-0.282392	-0.537265
H259	H	-0.173088	-0.331997	-0.496719
H260	H	-0.200254	-0.378888	-0.469413
H261	H	-0.188018	-0.358180	-0.534101
H262	H	-0.271633	-0.265874	-0.510635
H263	H	-0.259330	-0.245260	-0.575285
O264	O	-0.018840	-0.138381	-0.707080
C265	C	0.031595	-0.154078	-0.764220
C266	C	0.029342	-0.181640	-0.707084
H267	H	0.070551	-0.189035	-0.764241
H268	H	-0.003518	-0.142223	-0.791527
H269	H	0.029431	-0.110548	-0.779188
H270	H	0.031522	-0.225187	-0.692067
H271	H	0.064450	-0.193452	-0.679812
O272	O	-0.040320	-0.147976	-0.426054
C273	C	-0.041366	-0.222819	-0.345290
C274	C	-0.040521	-0.165481	-0.373988
H275	H	-0.041517	-0.236997	-0.303186
H276	H	-0.078712	-0.211771	-0.368291
H277	H	-0.004453	-0.262167	-0.343139
H278	H	-0.077408	-0.126108	-0.376147
H279	H	-0.003151	-0.176580	-0.350977
H280	H	0.019779	-0.465234	0.161179
O281	O	-0.157102	-0.469425	0.157045
C282	C	-0.156875	-0.516642	0.113596
C283	C	-0.185566	-0.487157	0.142289
H284	H	-0.179870	-0.530998	0.101667
H285	H	-0.154708	-0.481914	0.076380
H286	H	-0.114778	-0.558886	0.141536
H287	H	-0.227676	-0.444918	0.114392
H288	H	-0.187691	-0.521925	0.179511
O289	O	0.019782	-0.469370	0.312530
C290	C	-0.025136	-0.455817	0.373678
C291	C	-0.025892	-0.426352	0.315504
H292	H	-0.062054	-0.421047	0.376103
H293	H	-0.024972	-0.498073	0.388046
H294	H	0.012203	-0.470137	0.399961
H295	H	-0.063225	-0.411994	0.289179
H296	H	-0.026028	-0.384122	0.301179
O297	O	-0.739566	0.159767	-0.502333
C298	C	-0.666682	0.137278	-0.445166
C299	C	-0.696230	0.164566	-0.502303
H300	H	-0.631632	0.141137	-0.445121
H301	H	-0.695211	0.163691	-0.430178
H302	H	-0.651307	0.086758	-0.417890
H303	H	-0.711607	0.215083	-0.529620
H304	H	-0.667680	0.138107	-0.517247
O305	O	0.019817	-0.313975	0.157116
C306	C	-0.025124	-0.207926	0.125706
C307	C	-0.025903	-0.265309	0.154390
H308	H	-0.062090	-0.168561	0.123483
H309	H	0.012174	-0.218919	0.148732
H310	H	-0.024895	-0.193806	0.083629
H311	H	-0.026152	-0.279460	0.196466
H312	H	-0.063198	-0.254285	0.131323
H313	H	-0.161139	-0.284365	-0.019743
H314	H	-0.489870	-0.090268	-0.256484
H315	H	-0.841210	-0.463642	0.019294
O316	O	-0.312548	-0.137051	-0.019959
C317	C	-0.403203	-0.046565	-0.066959
C318	C	-0.345001	-0.076073	-0.066113
H319	H	-0.429456	0.002745	-0.104266
H320	H	-0.417599	-0.074238	-0.067203
H321	H	-0.405634	-0.046346	-0.030009
H322	H	-0.342525	-0.076297	-0.103057
H323	H	-0.330631	-0.048390	-0.065843
O324	O	-0.157088	-0.137082	0.157103
C325	C	-0.156940	-0.046601	0.113597
C326	C	-0.185626	-0.076108	0.142267
H327	H	-0.180008	0.002705	0.101585
H328	H	-0.114859	-0.074282	0.141523
H329	H	-0.154735	-0.046371	0.076422
H330	H	-0.187871	-0.076343	0.179441
H331	H	-0.227691	-0.048418	0.114305
H332	H	-0.161137	-0.141349	-0.019737
O333	O	-0.342493	-0.237155	-0.501626
C334	C	-0.308020	-0.221159	-0.444600
C335	C	-0.337684	-0.193790	-0.501724
H336	H	-0.304112	-0.186117	-0.444663
H337	H	-0.331341	-0.232940	-0.417352
H338	H	-0.266607	-0.264708	-0.429500
H339	H	-0.379097	-0.150225	-0.516874
H340	H	-0.314322	-0.182053	-0.528936
H341	H	-0.490220	-0.373215	0.026628
O342	O	-0.040194	0.007302	-0.581564
C343	C	0.004761	-0.006295	-0.642678
C344	C	0.005524	-0.035709	-0.584501
H345	H	0.041725	-0.041051	-0.645069
H346	H	-0.032539	0.007974	-0.668978
H347	H	0.004547	0.035991	-0.657051
H348	H	0.005757	-0.078014	-0.570079
H349	H	0.042820	-0.049933	-0.558236
H350	H	-0.040120	0.003178	-0.430195
H351	H	-0.490215	0.626864	-0.653559
O352	O	-0.018962	-0.138211	-0.154922
C353	C	-0.019380	-0.056774	-0.160770
C354	C	-0.021572	-0.084419	-0.190272
H355	H	-0.021478	-0.013286	-0.189334
H356	H	-0.054535	-0.044853	-0.145387
H357	H	0.019537	-0.091748	-0.125731
H358	H	-0.060467	-0.049475	-0.225333
H359	H	0.013609	-0.096354	-0.205617
H360	H	-0.445183	0.139782	-0.159066
O361	O	-0.026993	-0.081351	-0.261075
C362	C	-0.077390	0.026087	-0.334157
C363	C	-0.075130	-0.033287	-0.304422
H364	H	-0.116301	0.064959	-0.369216
H365	H	-0.075289	0.039115	-0.305749
H366	H	-0.042229	0.018127	-0.349541
H367	H	-0.110285	-0.025374	-0.289035
H368	H	-0.077207	-0.046297	-0.332850
O369	O	-0.449489	0.688067	-0.707023
C370	C	-0.526330	0.793337	-0.765238
C371	C	-0.496479	0.733951	-0.708111
H372	H	-0.564333	0.830446	-0.766138
H373	H	-0.499696	0.809854	-0.778480
H374	H	-0.537077	0.783660	-0.793398
H375	H	-0.485728	0.743579	-0.679911
H376	H	-0.523130	0.717451	-0.694912
H377	H	-0.743175	-0.373219	0.026636
O378	O	-0.026903	0.159148	-0.501572
C379	C	-0.026461	0.164217	-0.425757
C380	C	-0.024216	0.191669	-0.482896
H381	H	-0.024278	0.190490	-0.410636
H382	H	-0.065396	0.168129	-0.425751
H383	H	0.008672	0.113673	-0.398565
H384	H	-0.059321	0.242220	-0.510120
H385	H	0.014741	0.187709	-0.482860
O386	O	-0.019009	-0.294048	-0.551583
C387	C	-0.063608	-0.341451	-0.508633
C388	C	-0.065793	-0.282125	-0.538265
H389	H	-0.101423	-0.331836	-0.497847
H390	H	-0.060407	-0.357769	-0.535415
H391	H	-0.027351	-0.378687	-0.470663
H392	H	-0.102047	-0.244849	-0.576235
H393	H	-0.068966	-0.265860	-0.511445
H394	H	-0.019230	0.253339	-0.554762
O395	O	-0.573922	-0.614240	0.040336
C396	C	-0.654663	-0.609431	0.041449
C397	C	-0.625954	-0.579957	0.040631
H398	H	-0.696732	-0.581734	0.041699
H399	H	-0.656891	-0.609687	0.004518
H400	H	-0.631601	-0.658726	0.078777
H401	H	-0.648992	-0.530651	0.003328
H402	H	-0.623721	-0.579749	0.077586
H403	H	-0.444519	-0.142934	-0.158758
O404	O	-0.018856	0.257627	-0.706364
C405	C	-0.012642	0.334445	-0.779656
C406	C	-0.014897	0.306950	-0.722520
H407	H	-0.009452	0.374336	-0.792740
H408	H	0.023613	0.297504	-0.780674
H409	H	-0.050461	0.351877	-0.807869
H410	H	0.022896	0.289522	-0.694274
H411	H	-0.051177	0.343911	-0.721545
H412	H	-0.026547	0.163294	-0.653183
O413	O	-0.312487	-0.313943	0.156992
C414	C	-0.373605	-0.207881	0.082326
C415	C	-0.315434	-0.265284	0.111041
H416	H	-0.376004	-0.168521	0.045176
H417	H	-0.399928	-0.218846	0.070288
H418	H	-0.387944	-0.193767	0.110284
H419	H	-0.301046	-0.279427	0.083112
H420	H	-0.289146	-0.254287	0.123088
O421	O	-0.498387	-0.765873	0.026941
C422	C	-0.571663	-0.689092	0.033199
C423	C	-0.514513	-0.716612	0.030983
H424	H	-0.584715	-0.649268	0.036479
H425	H	-0.599914	-0.671590	-0.004633
H426	H	-0.572654	-0.726081	0.069433
H427	H	-0.513471	-0.679657	-0.005227
H428	H	-0.486288	-0.734130	0.068840
O429	O	-0.845040	-0.312070	0.018968
C430	C	-0.839179	-0.236922	0.019424
C431	C	-0.809667	-0.296281	0.021663
H432	H	-0.810589	-0.224146	0.021613
H433	H	-0.874191	-0.197921	-0.019512
H434	H	-0.854599	-0.244781	0.054556
H435	H	-0.794211	-0.288483	-0.013442
H436	H	-0.774680	-0.335262	0.060621
O437	O	-0.449521	-0.864063	0.018977
C438	C	-0.530550	-0.858672	0.019449
C439	C	-0.500687	-0.831399	0.021676
H440	H	-0.571918	-0.832283	0.021642
H441	H	-0.534554	-0.854752	-0.019485
H442	H	-0.507263	-0.909207	0.054584
H443	H	-0.523947	-0.780856	-0.013431
H444	H	-0.496676	-0.835367	0.060633
O445	O	-0.026906	-0.081375	-0.657912
C446	C	-0.026460	-0.006029	-0.738799
C447	C	-0.024218	-0.065391	-0.709120
H448	H	-0.024276	0.006904	-0.780201
H449	H	-0.065394	0.032900	-0.742719
H450	H	0.008674	-0.013972	-0.715428
H451	H	-0.059325	-0.057509	-0.732466
H452	H	0.014738	-0.104301	-0.705194
O453	O	-0.845372	0.687310	-0.706395
C454	C	-0.839868	0.762699	-0.782178
C455	C	-0.810175	0.703348	-0.725030
H456	H	-0.811427	0.775692	-0.797258
H457	H	-0.855266	0.754797	-0.809422
H458	H	-0.874912	0.801576	-0.782146
H459	H	-0.775110	0.664443	-0.725011
H460	H	-0.794816	0.711302	-0.697811
H461	H	-0.569749	-0.467085	0.040220
H462	H	-0.445184	-0.320548	0.019287
O463	O	-0.026975	-0.237142	-0.502320
C464	C	-0.077365	-0.221437	-0.445152
C465	C	-0.075112	-0.193852	-0.502289
H466	H	-0.116274	-0.186445	-0.445106
H467	H	-0.075259	-0.264939	-0.430168
H468	H	-0.042203	-0.233339	-0.417873
H469	H	-0.110268	-0.181913	-0.529608
H470	H	-0.077191	-0.150374	-0.517229
O471	O	-0.739351	-0.524769	0.026913
C472	C	-0.745196	-0.599951	0.026508
C473	C	-0.774700	-0.540616	0.024309
H474	H	-0.773760	-0.612789	0.024415
H475	H	-0.729813	-0.592111	-0.008646
H476	H	-0.710158	-0.638906	0.065427
H477	H	-0.809759	-0.501633	-0.014587
H478	H	-0.790044	-0.548507	0.059490
O479	O	-0.293581	-0.864527	0.018939
C480	C	-0.220284	-0.941351	0.012738
C481	C	-0.277422	-0.913853	0.014984
H482	H	-0.207197	-0.981244	0.009552
H483	H	-0.219262	-0.904412	-0.023518
H484	H	-0.192076	-0.958779	0.050559
H485	H	-0.305663	-0.896429	-0.022810
H486	H	-0.278401	-0.950813	0.051264
O487	O	-0.026886	-0.237316	-0.260615
C488	C	-0.026404	-0.318793	-0.254751
C489	C	-0.024186	-0.291164	-0.225242
H490	H	-0.024211	-0.362341	-0.226162
H491	H	-0.065335	-0.283877	-0.289769
H492	H	0.008733	-0.330636	-0.270164
H493	H	-0.059296	-0.279323	-0.209794
H494	H	0.014767	-0.326097	-0.190250
O495	O	-0.342443	-0.766342	0.026907
C496	C	-0.261393	-0.771776	0.026496
C497	C	-0.291243	-0.799073	0.024300
H498	H	-0.219988	-0.798235	0.024401
H499	H	-0.284620	-0.721254	-0.008659
H500	H	-0.257462	-0.775655	0.065415
H501	H	-0.295181	-0.795237	-0.014595
H502	H	-0.268004	-0.849582	0.059482
H503	H	-0.019226	-0.285667	-0.158742
H504	H	-0.426677	0.389946	-0.430194
H505	H	-0.301369	-0.286012	-0.159078
O506	O	-0.573935	0.541214	-0.581562
C507	C	-0.654709	0.616082	-0.657465
C508	C	-0.625976	0.558670	-0.599296
H509	H	-0.696785	0.630205	-0.671824
H510	H	-0.656920	0.655451	-0.659896
H511	H	-0.631674	0.605065	-0.683751
H512	H	-0.648987	0.569627	-0.572974
H513	H	-0.623759	0.519319	-0.596907
O514	O	-0.573915	0.385805	-0.426193
C515	C	-0.654699	0.390697	-0.432082
C516	C	-0.625985	0.420165	-0.460747
H517	H	-0.696806	0.418472	-0.460003
H518	H	-0.631716	0.341417	-0.420126
H519	H	-0.656841	0.390408	-0.394875
H520	H	-0.623836	0.420498	-0.497973
H521	H	-0.648978	0.469429	-0.472664
H522	H	-0.490217	0.230142	-0.256784
O523	O	-0.342601	-0.524762	0.026905
C524	C	-0.345793	-0.604459	0.033167
C525	C	-0.375598	-0.545118	0.030957
H526	H	-0.372454	-0.620941	0.036454
H527	H	-0.335042	-0.594806	-0.004671
H528	H	-0.307795	-0.641588	0.069395
H529	H	-0.413614	-0.507961	-0.005247
H530	H	-0.386308	-0.554820	0.068819
O531	O	-0.739002	0.474562	-0.501588
C532	C	-0.744521	0.399209	-0.425783
C533	C	-0.774223	0.458580	-0.482920
H534	H	-0.772987	0.386276	-0.410668
H535	H	-0.709500	0.360284	-0.425781
H536	H	-0.729092	0.407139	-0.398585
H537	H	-0.789686	0.450710	-0.510150
H538	H	-0.809218	0.497484	-0.482879
O539	O	-0.845195	0.531581	-0.550554
C540	C	-0.918035	0.547263	-0.515818
C541	C	-0.888471	0.574830	-0.545637
H542	H	-0.953023	0.582213	-0.511824
H543	H	-0.933484	0.535417	-0.539079
H544	H	-0.889455	0.503726	-0.474440
H545	H	-0.917019	0.618384	-0.587016
H546	H	-0.873014	0.586633	-0.522336
H547	H	-0.301736	-0.463624	0.019263
H548	H	-0.743490	0.626486	-0.653184
H549	H	-0.346770	0.229846	-0.256454
H550	H	-0.301723	0.536422	-0.555753
O551	O	-0.574108	0.007693	-0.426066
C552	C	-0.568222	0.002814	-0.345288
C553	C	-0.539554	-0.026659	-0.373997
H554	H	-0.540301	-0.024954	-0.303182
H555	H	-0.580181	0.052096	-0.368278
H556	H	-0.605426	0.003098	-0.343142
H557	H	-0.502332	-0.026987	-0.376150
H558	H	-0.527635	-0.075925	-0.350997
H559	H	-0.346761	0.483749	-0.510407
O560	O	-0.293560	0.135459	-0.154416
C561	C	-0.220283	0.058673	-0.071349
C562	C	-0.277432	0.086193	-0.101095
H563	H	-0.207229	0.018845	-0.028231
H564	H	-0.192032	0.041176	-0.091675
H565	H	-0.219293	0.095659	-0.072112
H566	H	-0.278473	0.049240	-0.100341
H567	H	-0.305657	0.103705	-0.080760
H568	H	-0.570087	0.003544	-0.573301
H569	H	-0.427024	-0.139478	-0.430231
H570	H	-0.489864	-0.090259	-0.653209
O571	O	-0.342410	-0.237348	-0.260965
C572	C	-0.261490	-0.318596	-0.255469
C573	C	-0.291169	-0.291164	-0.225769
H574	H	-0.220052	-0.362104	-0.227029
H575	H	-0.284792	-0.330435	-0.270873
H576	H	-0.257646	-0.283526	-0.290509
H577	H	-0.295020	-0.326204	-0.190708
H578	H	-0.267855	-0.279310	-0.210404
H579	H	-0.743523	0.163324	-0.653612
H580	H	-0.841239	0.253681	-0.698962
