data_functionalizedCrystal
_audit_creation_method	'MofGen! by Chris Wilmer'
_symmetry_space_group_name_H-M	'P1'
_symmetry_Int_Tables_number	1
_symmetry_cell_setting	triclinic
loop_
_symmetry_equiv_pos_as_xyz
  x,y,z
_cell_length_a	12.811445
_cell_length_b	14.519709
_cell_length_c	11.892095
_cell_angle_alpha	93.895429
_cell_angle_beta	80.666316
_cell_angle_gamma	83.863608
loop_
_atom_site_label
_atom_site_type_symbol
_atom_site_fract_x
_atom_site_fract_y
_atom_site_fract_z
O1	O	1.409908	0.109352	-0.238530
O2	O	1.743242	0.442685	0.094803
O3	O	2.076575	0.776018	0.428136
O4	O	1.102101	0.124822	-0.206981
O5	O	1.435434	0.458156	0.126353
O6	O	1.768768	0.791489	0.459686
O7	O	1.264165	-0.017183	-0.223582
O8	O	1.597498	0.316150	0.109752
O9	O	1.930832	0.649483	0.443085
O10	O	1.247844	0.251358	-0.221929
O11	O	1.581178	0.584691	0.111404
O12	O	1.914511	0.918024	0.444737
O13	O	1.250652	-0.005361	-0.034190
O14	O	1.583986	0.327972	0.299143
O15	O	1.917319	0.661305	0.632477
O16	O	1.088588	0.136644	-0.017589
O17	O	1.421922	0.469978	0.315744
O18	O	1.755255	0.803311	0.649078
O19	O	1.396396	0.121174	-0.049139
O20	O	1.729729	0.454507	0.284195
O21	O	2.063062	0.787840	0.617528
Zn22	Zn	1.240347	0.130786	-0.003294
Zn23	Zn	1.573680	0.464119	0.330039
Zn24	Zn	1.907013	0.797453	0.663373
Zn25	Zn	1.258150	0.115210	-0.252826
Zn26	Zn	1.591483	0.448543	0.080508
Zn27	Zn	1.924817	0.781877	0.413841
O28	O	1.234332	0.263180	-0.032538
O29	O	1.567665	0.596513	0.300796
O30	O	1.900998	0.929846	0.634129
C31	C	1.055951	0.130228	-0.108247
C32	C	1.389285	0.463561	0.225086
C33	C	1.722618	0.796894	0.558420
C34	C	0.938572	0.128710	-0.096216
C35	C	1.271905	0.462044	0.237118
C36	C	1.605238	0.795377	0.570451
C37	C	1.256648	-0.045629	-0.128808
C38	C	1.589981	0.287704	0.204526
C39	C	1.923315	0.621038	0.537859
C40	C	1.254368	-0.148001	-0.128574
C41	C	1.587702	0.185332	0.204760
C42	C	1.921035	0.518665	0.538093
C43	C	0.732731	0.112986	-0.280103
C44	C	1.066064	0.446320	0.053231
C45	C	1.399398	0.779653	0.386564
C46	C	0.622443	0.111561	-0.268803
C47	C	0.955776	0.444894	0.064530
C48	C	1.289109	0.778227	0.397864
C49	C	0.607704	0.124439	-0.062317
C50	C	0.941037	0.457773	0.271016
C51	C	1.274370	0.791106	0.604349
C52	C	0.717992	0.125865	-0.073617
C53	C	1.051325	0.459198	0.259716
C54	C	1.384659	0.792532	0.593050
C55	C	0.780502	0.120137	-0.182513
C56	C	1.113836	0.453470	0.150820
C57	C	1.447169	0.786804	0.484153
C58	C	0.890794	0.121556	-0.193812
C59	C	1.224127	0.454890	0.139521
C60	C	1.557460	0.788223	0.472854
C61	C	0.876052	0.134442	0.012673
C62	C	1.209385	0.467775	0.346006
C63	C	1.542718	0.801108	0.679339
C64	C	0.765763	0.133016	0.023973
C65	C	1.099097	0.466349	0.357306
C66	C	1.432430	0.799682	0.690639
C67	C	1.245979	-0.522865	-0.127743
C68	C	1.579312	-0.189532	0.205590
C69	C	1.912646	0.143801	0.538924
C70	C	1.248309	-0.418566	-0.127973
C71	C	1.581642	-0.085233	0.205360
C72	C	1.914975	0.248101	0.538693
C73	C	1.250173	-0.335436	-0.128157
C74	C	1.583507	-0.002103	0.205176
C75	C	1.916840	0.331230	0.538510
C76	C	1.252504	-0.231131	-0.128390
C77	C	1.585837	0.102202	0.204944
C78	C	1.919170	0.435536	0.538277
C79	C	1.442546	0.115768	-0.147875
C80	C	1.775879	0.449102	0.185458
C81	C	2.109212	0.782435	0.518792
C82	C	1.559926	0.117285	-0.159914
C83	C	1.893259	0.450619	0.173419
C84	C	2.226592	0.783952	0.506753
C85	C	1.241849	0.291625	-0.127314
C86	C	1.575182	0.624958	0.206019
C87	C	1.908516	0.958292	0.539353
C88	C	1.244129	0.393997	-0.127556
C89	C	1.577462	0.727330	0.205777
C90	C	1.910796	1.060663	0.539111
N91	N	1.228204	0.141416	0.167004
N92	N	1.561537	0.474749	0.500337
N93	N	1.894871	0.808082	0.833671
N94	N	1.270301	0.104573	-0.423124
N95	N	1.603634	0.437906	-0.089791
N96	N	1.936968	0.771240	0.243542
C97	C	1.354795	0.030555	0.390684
C98	C	1.688129	0.363888	0.724018
C99	C	2.021462	0.697221	1.057351
C100	C	1.346315	0.037991	0.509895
C101	C	1.679649	0.371325	0.843228
C102	C	2.012982	0.704658	1.176562
C103	C	1.202760	0.163721	0.524638
C104	C	1.536093	0.497054	0.857972
C105	C	1.869426	0.830387	1.191305
C106	C	1.211240	0.156284	0.405428
C107	C	1.544573	0.489617	0.738761
C108	C	1.877906	0.822951	1.072094
C109	C	1.287261	0.089700	0.338455
C110	C	1.620594	0.423033	0.671788
C111	C	1.953928	0.756366	1.005121
C112	C	1.295745	0.082268	0.219241
C113	C	1.629079	0.415601	0.552575
C114	C	1.962412	0.748935	0.885908
C115	C	1.152185	0.207993	0.233987
C116	C	1.485519	0.541326	0.567321
C117	C	1.818852	0.874659	0.900654
C118	C	1.143705	0.215429	0.353198
C119	C	1.477039	0.548763	0.686531
C120	C	1.810372	0.882096	1.019865
H121	H	0.941688	0.116892	-0.282481
H122	H	1.275022	0.450225	0.050852
H123	H	1.608355	0.783558	0.384185
H124	H	0.583552	0.105740	-0.348271
H125	H	0.916885	0.439073	-0.014937
H126	H	1.250218	0.772407	0.318396
C127	C	1.119080	0.236901	0.598322
C128	C	1.452413	0.570234	0.931655
C129	C	1.785746	0.903567	1.264989
H130	H	1.080046	0.271044	0.550147
H131	H	1.413380	0.604377	0.883480
H132	H	1.746713	0.937710	1.216814
H133	H	1.153811	0.278132	0.640959
H134	H	1.487144	0.611465	0.974292
H135	H	1.820477	0.944799	1.307626
H136	H	1.071722	0.206651	0.649310
H137	H	1.405055	0.539985	0.982643
H138	H	1.738389	0.873318	1.315977
H139	H	0.556788	0.129111	0.026341
H140	H	0.890121	0.462445	0.359674
H141	H	1.223455	0.795778	0.693008
H142	H	0.783629	0.108318	-0.368771
H143	H	1.116962	0.441651	-0.035437
H144	H	1.450295	0.774984	0.297896
H145	H	0.714852	0.137683	0.112633
H146	H	1.048186	0.471016	0.445966
H147	H	1.381519	0.804349	0.779300
H148	H	1.416702	-0.023655	0.336153
H149	H	1.750035	0.309678	0.669486
H150	H	2.083369	0.643012	1.002820
H151	H	0.914959	0.140263	0.092137
H152	H	1.248292	0.473596	0.425471
H153	H	1.581625	0.806929	0.758804
C154	C	1.379360	0.009026	0.145573
C155	C	1.712693	0.342360	0.478906
C156	C	2.046027	0.675693	0.812240
H157	H	1.418358	-0.025139	0.193758
H158	H	1.751691	0.308194	0.527092
H159	H	2.085025	0.641527	0.860425
H160	H	1.426747	0.039201	0.094537
H161	H	1.760080	0.372534	0.427870
H162	H	2.093414	0.705868	0.761203
H163	H	1.344551	-0.032185	0.102990
H164	H	1.677884	0.301148	0.436324
H165	H	2.011218	0.634481	0.769657
C166	C	1.077894	0.273059	0.176538
C167	C	1.411227	0.606392	0.509871
C168	C	1.744560	0.939725	0.843205
H169	H	1.031413	0.313781	0.233501
H170	H	1.364746	0.647115	0.566835
H171	H	1.698079	0.980448	0.900168
H172	H	1.037126	0.237081	0.134558
H173	H	1.370460	0.570415	0.467891
H174	H	1.703793	0.903748	0.801224
H175	H	1.119319	0.308471	0.126123
H176	H	1.452653	0.641804	0.459457
H177	H	1.785986	0.975137	0.792790
C178	C	1.420606	-0.027066	0.567344
C179	C	1.753939	0.306267	0.900678
C180	C	2.087272	0.639601	1.234011
H181	H	1.467097	-0.067780	0.510380
H182	H	1.800431	0.265554	0.843713
H183	H	2.133764	0.598887	1.177046
H184	H	1.379192	-0.062473	0.617767
H185	H	1.712526	0.270860	0.951101
H186	H	2.045859	0.604193	1.284434
H187	H	1.461378	0.008922	0.609315
H188	H	1.794711	0.342256	0.942648
H189	H	2.128045	0.675589	1.275981
H190	H	1.081807	0.269639	0.407741
H191	H	1.415141	0.602972	0.741074
H192	H	1.748474	0.936306	1.074408
