data_functionalizedCrystal
_audit_creation_method	'MofGen! by Chris Wilmer'
_symmetry_space_group_name_H-M	'P1'
_symmetry_Int_Tables_number	1
_symmetry_cell_setting	triclinic
loop_
_symmetry_equiv_pos_as_xyz
  x,y,z
_cell_length_a	10.723023
_cell_length_b	15.995350
_cell_length_c	9.798715
_cell_angle_alpha	90.001151
_cell_angle_beta	90.002993
_cell_angle_gamma	83.979961
loop_
_atom_site_label
_atom_site_type_symbol
_atom_site_fract_x
_atom_site_fract_y
_atom_site_fract_z
O1	O	1.655689	0.117432	0.113470
O2	O	1.292393	0.128673	0.113475
O3	O	1.483972	0.001222	0.113471
O4	O	1.464110	0.244883	0.113474
O5	O	1.483959	0.001221	-0.113511
O6	O	1.292380	0.128672	-0.113507
O7	O	1.655676	0.117431	-0.113512
Zn8	Zn	1.474026	0.123051	-0.149548
Zn9	Zn	1.474043	0.123053	0.149511
O10	O	1.464097	0.244882	-0.113509
C11	C	1.245898	0.127855	-0.000016
C12	C	1.107374	0.125408	-0.000013
C13	C	0.902460	0.121788	0.117570
C14	C	1.045631	0.124317	0.117571
C15	C	1.483144	-0.029978	-0.000018
C16	C	1.480683	-0.122942	-0.000010
C17	C	1.471842	-0.460741	-0.000014
C18	C	1.335403	-0.414090	0.000497
C19	C	1.337865	-0.317386	-0.000015
C20	C	1.476227	-0.293155	-0.000011
C21	C	1.543516	-0.333847	-0.129628
C22	C	1.540089	-0.430502	-0.129736
C23	C	1.542922	-0.430843	0.128385
C24	C	1.542890	-0.333898	0.130098
C25	C	1.478713	-0.198443	-0.000014
C26	C	1.469361	-0.555453	-0.000021
C27	C	1.702172	0.118249	-0.000019
C28	C	1.840695	0.120696	-0.000012
C29	C	1.464925	0.276082	-0.000017
C30	C	1.467387	0.369047	-0.000016
N31	N	1.474023	0.123050	-0.353648
C32	C	1.554661	0.069421	-0.578581
C33	C	1.554644	0.069422	-0.421419
N34	N	1.474056	0.123048	0.353610
H35	H	1.284971	-0.289267	0.092899
Br36	Br	1.712944	-0.309335	-0.137666
Br37	Br	1.244511	-0.445494	0.155424
H38	H	1.623688	0.023511	-0.636877
Br39	Br	0.813954	0.120186	0.285365
Br40	Br	1.465607	-0.286995	-0.290404
Br41	Br	1.358983	0.199573	-0.450822
H42	H	0.893810	0.121631	-0.100679
Br43	Br	1.468570	-0.465490	0.292130
Br44	Br	1.461580	-0.288409	0.289944
Br45	Br	1.710587	-0.482816	0.129845
H46	H	1.405039	0.168963	-0.588092
H47	H	1.623648	0.023507	-0.363106
Br48	Br	1.134151	0.125892	0.285366
H49	H	1.054265	0.124474	-0.100685
Br50	Br	1.244642	-0.447668	-0.153090
H51	H	1.491010	-0.449086	-0.226629
Br52	Br	1.249086	-0.271444	-0.155135
H53	H	1.640260	-0.462175	-0.135615
H54	H	1.643790	-0.317956	0.137927
