data_functionalizedCrystal
_audit_creation_method	'MofGen! by Chris Wilmer'
_symmetry_space_group_name_H-M	'P1'
_symmetry_Int_Tables_number	1
_symmetry_cell_setting	triclinic
loop_
_symmetry_equiv_pos_as_xyz
  x,y,z
_cell_length_a	15.538191
_cell_length_b	14.586319
_cell_length_c	16.109301
_cell_angle_alpha	89.994786
_cell_angle_beta	65.366787
_cell_angle_gamma	89.995179
loop_
_atom_site_label
_atom_site_type_symbol
_atom_site_fract_x
_atom_site_fract_y
_atom_site_fract_z
O1	O	1.249994	-0.076243	-0.270055
O2	O	0.975705	-0.076245	-0.174048
O3	O	1.120384	-0.076234	-0.345355
O4	O	1.105315	-0.076253	-0.098748
O5	O	1.120374	0.076246	-0.345353
O6	O	0.975695	0.076236	-0.174046
O7	O	1.249984	0.076238	-0.270054
Cu8	Cu	1.112839	0.090160	-0.222050
Cu9	Cu	1.112850	-0.090167	-0.222052
O10	O	1.105305	0.076227	-0.098747
C11	C	0.940602	-0.000005	-0.164002
C12	C	0.836019	-0.000005	-0.134081
N13	N	1.112837	0.216991	-0.222052
N14	N	1.112859	-0.216998	-0.222059
C15	C	0.548320	0.000003	-0.431335
C16	C	0.450045	0.000000	-0.403199
C17	C	0.427554	-0.000012	-0.244941
C18	C	0.525828	-0.000004	-0.273063
C19	C	0.586204	0.000002	-0.366262
C20	C	0.563712	-0.000005	-0.207990
C21	C	0.661978	-0.000003	-0.236111
C22	C	0.722360	0.000001	-0.329305
C23	C	0.684470	0.000004	-0.394382
C24	C	0.503335	-0.000018	-0.114793
C25	C	0.541219	-0.000019	-0.049719
C26	C	0.639487	-0.000010	-0.077840
C27	C	0.699869	-0.000007	-0.171034
C28	C	0.677377	-0.000014	-0.012763
C29	C	0.775643	-0.000012	-0.040883
C30	C	0.798135	-0.000004	-0.199155
C31	C	1.285087	-0.000004	-0.280100
C32	C	1.389670	-0.000010	-0.310020
C33	C	1.119769	0.000006	-0.376145
C34	C	1.117939	0.000008	-0.467888
C35	C	1.176922	0.452002	-0.297894
C36	C	1.176925	0.547984	-0.297897
C37	C	1.048767	0.547984	-0.146212
C38	C	1.048761	0.452004	-0.146212
C39	C	1.112844	0.404016	-0.222054
C40	C	1.112853	0.595977	-0.222056
C41	C	1.112855	0.700044	-0.222059
C42	C	1.112840	0.299942	-0.222053
C43	C	1.199533	-0.000006	-0.714764
C44	C	1.197806	-0.000014	-0.800964
C45	C	1.026149	-0.000012	-0.729329
C46	C	1.027877	-0.000011	-0.643131
C47	C	1.114572	-0.000003	-0.635852
C48	C	1.111117	-0.000012	-0.808250
C49	C	1.109244	-0.000020	-0.901711
C50	C	1.116446	0.000003	-0.542385
C51	C	1.105920	-0.000015	-0.067957
C52	C	1.107750	-0.000023	0.023786
H53	H	0.802374	-0.000010	-0.352199
H54	H	1.229102	0.587052	-0.359653
C55	C	0.368697	-0.078400	-0.117598
C56	C	0.395318	-0.000023	-0.083878
H57	H	0.302013	-0.078399	-0.098515
H58	H	0.386778	-0.131567	-0.094734
H59	H	0.399237	-0.078381	-0.182415
H60	H	0.364784	-0.000045	-0.019060
H61	H	0.377227	0.053158	-0.106737
H62	H	0.492048	-0.000028	0.026163
C63	C	0.352581	0.078387	-0.463401
C64	C	0.408403	0.000006	-0.474736
H65	H	0.326870	0.078384	-0.507561
H66	H	0.390445	0.131551	-0.471086
H67	H	0.302559	0.078374	-0.403872
H68	H	0.458429	0.000022	-0.534263
H69	H	0.370537	-0.053172	-0.467059
H70	H	0.996594	0.587065	-0.084462
H71	H	0.996576	0.412931	-0.084453
C72	C	0.671869	0.078405	-0.554778
C73	C	0.614691	0.000017	-0.533782
H74	H	0.712838	0.078414	-0.618022
H75	H	0.708492	0.078392	-0.520051
H76	H	0.633052	0.131571	-0.540511
H77	H	0.653508	-0.053149	-0.548042
H78	H	0.578064	0.000022	-0.568520
C79	C	0.947280	-0.000001	-0.829656
C80	C	0.930858	-0.000006	-0.737334
H81	H	0.888449	0.000011	-0.834594
H82	H	0.982254	-0.053173	-0.858489
H83	H	0.982264	0.053175	-0.858494
H84	H	0.895880	-0.053185	-0.708497
H85	H	0.895870	0.053171	-0.708490
C86	C	1.305095	0.344003	-0.354613
C87	C	1.247310	0.399229	-0.381268
H88	H	1.348539	0.311423	-0.406092
H89	H	1.266931	0.301708	-0.309434
H90	H	1.339016	0.381430	-0.330251
H91	H	1.213383	0.361801	-0.405625
H92	H	1.285479	0.441529	-0.426464
C93	C	1.369034	-0.000026	-0.794234
C94	C	1.294826	-0.000015	-0.706762
H95	H	1.427864	-0.000041	-0.789294
H96	H	1.364794	0.053145	-0.826367
H97	H	1.364777	-0.053202	-0.826357
H98	H	1.299079	0.053165	-0.674641
H99	H	1.299068	-0.053192	-0.674616
H100	H	1.266990	-0.000018	-0.865214
H101	H	0.958687	-0.000011	-0.578874
H102	H	0.378383	-0.000021	-0.169059
C103	C	0.553827	-0.078416	0.110671
C104	C	0.611002	-0.000027	0.089677
H105	H	0.512848	-0.078420	0.173913
H106	H	0.592639	-0.131575	0.096415
H107	H	0.517207	-0.078408	0.075932
H108	H	0.647628	-0.000039	0.124412
H109	H	0.572186	0.053146	0.103943
H110	H	0.847297	0.000006	-0.275046
C111	C	0.808019	0.078406	-0.517825
C112	C	0.750841	0.000019	-0.496830
H113	H	0.848988	0.078415	-0.581070
H114	H	0.844643	0.078393	-0.483099
H115	H	0.769202	0.131572	-0.503559
H116	H	0.789658	-0.053147	-0.511090
H117	H	0.714214	0.000023	-0.531568
H118	H	0.806488	-0.000004	0.012106
