data_functionalizedCrystal
_audit_creation_method	'MofGen! by Chris Wilmer'
_symmetry_space_group_name_H-M	'P1'
_symmetry_Int_Tables_number	1
_symmetry_cell_setting	triclinic
loop_
_symmetry_equiv_pos_as_xyz
  x,y,z
_cell_length_a	19.188930
_cell_length_b	27.732048
_cell_length_c	17.666332
_cell_angle_alpha	89.988553
_cell_angle_beta	89.976766
_cell_angle_gamma	82.893716
loop_
_atom_site_label
_atom_site_type_symbol
_atom_site_fract_x
_atom_site_fract_y
_atom_site_fract_z
O1	O	0.925765	0.060348	-0.063200
O2	O	1.425765	0.560348	0.436800
O3	O	0.722402	0.068472	-0.063149
O4	O	1.222402	0.568472	0.436851
O5	O	0.830399	-0.005968	-0.063161
O6	O	1.330399	0.494032	0.436839
O7	O	0.817767	0.134787	-0.063187
O8	O	1.317767	0.634787	0.436813
O9	O	0.830380	-0.005971	0.062735
O10	O	1.330380	0.494029	0.562735
O11	O	0.722383	0.068468	0.062748
O12	O	1.222383	0.568468	0.562748
O13	O	0.925746	0.060344	0.062697
O14	O	1.425746	0.560344	0.562697
Cu15	Cu	0.824063	0.064406	0.074218
Cu16	Cu	1.324063	0.564406	0.574218
Cu17	Cu	0.824085	0.064410	-0.074670
Cu18	Cu	1.324085	0.564410	0.425330
O19	O	0.817748	0.134783	0.062710
O20	O	1.317748	0.634783	0.562710
C21	C	0.696383	0.068207	-0.000194
C22	C	1.196383	0.568207	0.499806
C23	C	0.618883	0.067417	-0.000174
C24	C	1.118883	0.567417	0.499826
C25	C	0.573681	0.111096	-0.000194
C26	C	1.073681	0.611096	0.499806
C27	C	0.500862	0.110354	-0.000202
C28	C	1.000862	0.610354	0.499798
C29	C	0.473249	0.065931	-0.000205
C30	C	0.973249	0.565931	0.499795
C31	C	0.518461	0.022246	-0.000181
C32	C	1.018461	0.522246	0.499819
C33	C	0.591278	0.022990	-0.000165
C34	C	1.091278	0.522990	0.499835
N35	N	0.365491	0.031976	-0.043078
N36	N	0.865491	0.531976	0.456922
N37	N	0.296317	0.031273	-0.043094
N38	N	0.796317	0.531273	0.456906
C39	C	0.253854	0.063689	-0.000251
C40	C	0.753854	0.563689	0.499749
N41	N	0.283177	0.096841	0.042600
N42	N	0.783177	0.596841	0.542600
N43	N	0.352357	0.097546	0.042613
N44	N	0.852357	0.597546	0.542613
C45	C	0.394291	0.065120	-0.000222
C46	C	0.894291	0.565120	0.499778
C47	C	0.129692	0.106566	-0.000279
C48	C	0.629692	0.606566	0.499721
C49	C	0.056872	0.105822	-0.000282
C50	C	0.556872	0.605822	0.499718
C51	C	0.074473	0.017714	-0.000269
C52	C	0.574473	0.517714	0.499731
C53	C	0.147292	0.018459	-0.000258
C54	C	0.647292	0.518459	0.499742
C55	C	0.174897	0.062886	-0.000267
C56	C	0.674897	0.562886	0.499733
C57	C	0.830125	-0.023977	-0.000211
C58	C	1.330125	0.476023	0.499789
C59	C	0.829326	-0.077635	-0.000204
C60	C	1.329326	0.422365	0.499796
C61	C	0.888119	-0.416270	-0.000258
C62	C	1.388119	0.083730	0.499742
C63	C	0.885157	-0.617939	-0.000268
C64	C	1.385157	-0.117939	0.499732
O65	O	0.938918	-0.649030	-0.000314
O66	O	1.438918	-0.149030	0.499686
N67	N	0.821118	-0.637258	-0.000251
N68	N	1.321118	-0.137258	0.499749
C69	C	0.757816	-0.606157	-0.000237
C70	C	1.257816	-0.106157	0.499763
O71	O	0.703280	-0.627217	-0.000231
O72	O	1.203280	-0.127217	0.499769
C73	C	0.760780	-0.404489	-0.000233
C74	C	1.260780	0.095511	0.499767
C75	C	0.824822	-0.385173	-0.000242
C76	C	1.324822	0.114827	0.499758
C77	C	0.952156	-0.396953	-0.000268
C78	C	1.452156	0.103047	0.499732
C79	C	0.952896	-0.346539	-0.000261
C80	C	1.452896	0.153461	0.499739
C81	C	0.889599	-0.315441	-0.000245
C82	C	1.389599	0.184559	0.499755
C83	C	0.825562	-0.334759	-0.000235
C84	C	1.325562	0.165241	0.499765
C85	C	0.697478	-0.373389	-0.000224
C86	C	1.197478	0.126611	0.499776
C87	C	0.698225	-0.322969	-0.000225
C88	C	1.198225	0.177031	0.499775
C89	C	0.762267	-0.303653	-0.000234
C90	C	1.262267	0.196347	0.499766
C91	C	0.763005	-0.253247	-0.000212
C92	C	1.263005	0.246753	0.499788
N93	N	0.827043	-0.233928	-0.000229
N94	N	1.327043	0.266072	0.499771
C95	C	0.890340	-0.265025	-0.000245
C96	C	1.390340	0.234975	0.499755
C97	C	0.756265	-0.712036	-0.000238
C98	C	1.256265	-0.212036	0.499762
C99	C	0.755524	-0.762452	-0.000238
C100	C	1.255524	-0.262452	0.499762
C101	C	0.882865	-0.774231	-0.000270
C102	C	1.382865	-0.274231	0.499730
C103	C	0.883605	-0.723813	-0.000265
C104	C	1.383605	-0.223813	0.499735
C105	C	0.820303	-0.692716	-0.000254
C106	C	1.320303	-0.192716	0.499746
C107	C	0.891889	-0.159151	-0.000231
C108	C	1.391889	0.340849	0.499769
C109	C	0.892623	-0.108732	-0.000221
C110	C	1.392623	0.391268	0.499779
C111	C	0.765283	-0.096958	-0.000193
C112	C	1.265283	0.403042	0.499807
C113	C	0.764549	-0.147373	-0.000198
C114	C	1.264549	0.352627	0.499802
C115	C	0.827857	-0.178468	-0.000220
C116	C	1.327857	0.321532	0.499780
O117	O	0.709272	-0.222127	-0.000174
O118	O	1.209272	0.277873	0.499826
O119	O	0.944868	-0.243956	-0.000268
O120	O	1.444868	0.256044	0.499732
C121	C	0.887379	-0.466684	-0.000265
C122	C	1.387379	0.033316	0.499735
C123	C	0.823342	-0.486001	-0.000255
C124	C	1.323342	0.013999	0.499745
C125	C	0.760045	-0.454904	-0.000238
C126	C	1.260045	0.045096	0.499762
C127	C	0.822601	-0.536418	-0.000254
C128	C	1.322601	-0.036418	0.499746
C129	C	0.885898	-0.567515	-0.000271
C130	C	1.385898	-0.067515	0.499729
C131	C	0.949936	-0.548195	-0.000288
C132	C	1.449936	-0.048195	0.499712
C133	C	0.950676	-0.497781	-0.000281
C134	C	1.450676	0.002219	0.499719
C135	C	0.696007	-0.474223	-0.000222
C136	C	1.196007	0.025777	0.499778
C137	C	0.695272	-0.524638	-0.000227
C138	C	1.195272	-0.024638	0.499773
C139	C	0.758569	-0.555735	-0.000244
C140	C	1.258569	-0.055735	0.499756
C141	C	0.951765	0.060609	-0.000260
C142	C	1.451765	0.560609	0.499740
C143	C	1.029264	0.061399	-0.000285
C144	C	1.529264	0.561399	0.499715
C145	C	0.818023	0.152793	-0.000243
C146	C	1.318023	0.652793	0.499757
C147	C	0.818821	0.206450	-0.000254
C148	C	1.318821	0.706450	0.499746
N149	N	0.824052	0.064402	0.178937
N150	N	1.324052	0.564402	0.678937
N151	N	0.824101	0.064410	-0.179389
N152	N	1.324101	0.564410	0.320611
C153	C	0.871889	0.031456	0.218541
C154	C	1.371889	0.531456	0.718541
C155	C	0.871893	0.031454	0.297789
C156	C	1.371893	0.531454	0.797789
C157	C	0.824067	0.064406	0.337429
C158	C	1.324067	0.564406	0.837429
C159	C	0.776221	0.097354	0.297816
C160	C	1.276221	0.597354	0.797816
C161	C	0.776214	0.097352	0.218570
C162	C	1.276214	0.597352	0.718570
N163	N	0.814718	0.107196	0.461842
N164	N	1.314718	0.607196	0.961842
N165	N	0.814729	0.107196	0.537122
N166	N	1.314729	0.607196	1.037122
C167	C	0.824085	0.064412	0.576193
C168	C	1.324085	0.564412	1.076193
N169	N	0.833444	0.021627	0.537140
N170	N	1.333444	0.521627	1.037140
N171	N	0.833436	0.021628	0.461853
N172	N	1.333436	0.521628	0.961853
C173	C	0.824069	0.064411	0.423359
C174	C	1.324069	0.564411	0.923359
C175	C	0.871929	0.031462	0.701727
C176	C	1.371929	0.531462	1.201727
C177	C	0.871928	0.031459	0.780976
C178	C	1.371928	0.531459	1.280976
C179	C	0.776260	0.097363	0.781001
C180	C	1.276260	0.597363	1.281001
C181	C	0.776257	0.097361	0.701754
C182	C	1.276257	0.597361	1.201754
C183	C	0.824096	0.064411	0.662121
C184	C	1.324096	0.564411	1.162121
H185	H	0.051991	-0.018456	-0.000319
H186	H	0.551991	0.481544	0.499681
O187	O	0.191106	-0.024016	-0.000281
O188	O	0.691106	0.475984	0.499719
C189	C	0.151123	-0.063385	-0.000266
C190	C	0.651123	0.436615	0.499734
H191	H	0.096649	-0.051000	-0.024114
H192	H	0.596649	0.449000	0.475886
H193	H	0.178336	-0.093979	-0.036808
H194	H	0.678336	0.406021	0.463192
H195	H	0.146051	-0.077011	0.060133
H196	H	0.646051	0.422989	0.560133
O197	O	0.012990	0.148268	-0.000435
O198	O	0.512990	0.648268	0.499565
C199	C	0.025477	0.175252	-0.065634
C200	C	0.525477	0.675252	0.434366
H201	H	0.050665	0.149678	-0.111196
H202	H	0.550665	0.649678	0.388804
H203	H	-0.026390	0.194746	-0.087534
H204	H	0.473610	0.694746	0.412466
H205	H	0.062252	0.203151	-0.050895
H206	H	0.562252	0.703151	0.449105
O207	O	0.954899	-0.090049	-0.000266
O208	O	1.454899	0.409951	0.499734
C209	C	1.010605	-0.128311	-0.000266
C210	C	1.510605	0.371689	0.499734
H211	H	0.991411	-0.162518	-0.024100
H212	H	1.491411	0.337482	0.475900
H213	H	1.055355	-0.117860	-0.036828
H214	H	1.555355	0.382140	0.463172
H215	H	1.030095	-0.135495	0.060127
H216	H	1.530095	0.364505	0.560127
O217	O	1.015126	-0.327803	-0.000412
O218	O	1.515126	0.172197	0.499588
C219	C	1.053687	-0.343713	-0.065617
C220	C	1.553687	0.156287	0.434383
H221	H	1.016230	-0.354115	-0.111179
H222	H	1.516230	0.145885	0.388821
H223	H	1.083067	-0.313232	-0.087513
H224	H	1.583067	0.186768	0.412487
H225	H	1.092946	-0.376658	-0.050888
H226	H	1.592946	0.123342	0.449112
O227	O	0.600521	0.154241	-0.000342
O228	O	1.100521	0.654241	0.499658
C229	C	0.642159	0.157300	-0.065533
C230	C	1.142159	0.657300	0.434467
H231	H	0.625239	0.132068	-0.111094
H232	H	1.125239	0.632068	0.388906
H233	H	0.635202	0.196268	-0.087440
H234	H	1.135202	0.696268	0.412560
H235	H	0.699705	0.146038	-0.050779
H236	H	1.199705	0.646038	0.449221
H237	H	1.003703	-0.422268	-0.000284
H238	H	1.503703	0.077732	0.499716
H239	H	0.910840	0.004625	0.186275
H240	H	1.410840	0.504625	0.686275
O241	O	0.634534	-0.444000	-0.000337
O242	O	1.134534	0.056000	0.499663
C243	C	0.631158	-0.414464	-0.065524
C244	C	1.131158	0.085536	0.434476
H245	H	0.667073	-0.432987	-0.111111
H246	H	1.167073	0.067013	0.388889
H247	H	0.574856	-0.408685	-0.087393
H248	H	1.074856	0.091315	0.412607
H249	H	0.648812	-0.377836	-0.050781
H250	H	1.148812	0.122164	0.449219
O251	O	0.635163	-0.019455	-0.000286
O252	O	1.135163	0.480545	0.499714
C253	C	0.622743	-0.046439	-0.065478
C254	C	1.122743	0.453561	0.434522
H255	H	0.597599	-0.020867	-0.111058
H256	H	1.097599	0.479133	0.388942
H257	H	0.674633	-0.065931	-0.087354
H258	H	1.174633	0.434069	0.412646
H259	H	0.585956	-0.074340	-0.050738
H260	H	1.085956	0.425660	0.449262
O261	O	0.156549	0.149707	-0.000409
O262	O	0.656549	0.649707	0.499591
C263	C	0.198191	0.152774	-0.065594
C264	C	0.698191	0.652774	0.434406
H265	H	0.181262	0.127556	-0.111172
H266	H	0.681262	0.627556	0.388828
H267	H	0.191249	0.191747	-0.087480
H268	H	0.691249	0.691747	0.412520
H269	H	0.255734	0.141498	-0.050841
H270	H	0.755734	0.641498	0.449159
O271	O	0.729734	0.129391	0.819381
O272	O	1.229734	0.629391	1.319381
C273	C	0.687524	0.158481	0.767426
C274	C	1.187524	0.658481	1.267426
H275	H	0.686947	0.138663	0.710944
H276	H	1.186947	0.638663	1.210944
H277	H	0.631689	0.165951	0.790350
H278	H	1.131689	0.665951	1.290350
H279	H	0.709803	0.194351	0.758973
H280	H	1.209803	0.694351	1.258973
H281	H	0.910880	0.004630	0.669457
H282	H	1.410880	0.504630	1.169457
H283	H	0.943441	-0.184464	-0.000251
H284	H	1.443441	0.315536	0.499749
O285	O	0.636668	-0.292832	-0.000181
O286	O	1.136668	0.207168	0.499819
C287	C	0.579990	-0.320697	-0.000194
C288	C	1.079990	0.179303	0.499806
H289	H	0.598127	-0.358366	0.023635
H290	H	1.098127	0.141634	0.523635
H291	H	0.535665	-0.302018	0.036365
H292	H	1.035665	0.197982	0.536365
H293	H	0.560349	-0.324240	-0.060591
H294	H	1.060349	0.175760	0.439409
O295	O	0.729891	0.129391	0.663196
O296	O	1.229891	0.629391	1.163196
C297	C	0.766957	0.159155	0.617343
C298	C	1.266957	0.659155	1.117343
H299	H	0.821796	0.139807	0.605447
H300	H	1.321796	0.639807	1.105447
H301	H	0.737728	0.166855	0.561630
H302	H	1.237728	0.666855	1.061630
H303	H	0.771319	0.194872	0.647871
H304	H	1.271319	0.694872	1.147871
H305	H	0.935754	-0.708089	-0.000273
H306	H	1.435754	-0.208089	0.499727
O307	O	0.944289	-0.804512	-0.000326
O308	O	1.444289	-0.304512	0.499674
C309	C	0.929893	-0.853151	-0.000306
C310	C	1.429893	-0.353151	0.499694
H311	H	0.875072	-0.854965	-0.024117
H312	H	1.375072	-0.354965	0.475883
H313	H	0.970268	-0.876072	-0.036878
H314	H	1.470268	-0.376072	0.463122
H315	H	0.932700	-0.867748	0.060090
H316	H	1.432700	-0.367748	0.560090
O317	O	0.456870	0.152753	-0.000327
O318	O	0.956870	0.652753	0.499673
C319	C	0.414275	0.154958	-0.065551
C320	C	0.914275	0.654958	0.434449
H321	H	0.411025	0.116597	-0.087278
H322	H	0.911025	0.616597	0.412722
H323	H	0.359335	0.173077	-0.050908
H324	H	0.859335	0.673077	0.449092
H325	H	0.438021	0.176983	-0.111210
H326	H	0.938021	0.676983	0.388790
O327	O	1.011406	-0.578428	-0.000440
O328	O	1.511406	-0.078428	0.499560
C329	C	1.014778	-0.607940	-0.065638
C330	C	1.514778	-0.107940	0.434362
H331	H	0.978878	-0.589392	-0.111198
H332	H	1.478878	-0.089392	0.388802
H333	H	1.071083	-0.613724	-0.087543
H334	H	1.571083	-0.113724	0.412457
H335	H	0.997101	-0.644567	-0.050897
H336	H	1.497101	-0.144567	0.449103
O337	O	0.491607	-0.020894	-0.000321
O338	O	0.991607	0.479106	0.499679
C339	C	0.450038	-0.023953	-0.065525
C340	C	0.950038	0.476047	0.434475
H341	H	0.467016	0.001271	-0.111097
H342	H	0.967016	0.501271	0.388903
H343	H	0.457006	-0.062923	-0.087405
H344	H	0.957006	0.437077	0.412595
H345	H	0.392478	-0.012681	-0.050800
H346	H	0.892478	0.487319	0.449200
H347	H	0.910848	0.004625	0.330041
H348	H	1.410848	0.504625	0.830041
H349	H	0.703375	-0.778175	-0.000217
H350	H	1.203375	-0.278175	0.499783
H351	H	0.737259	0.124181	0.186323
H352	H	1.237259	0.624181	0.686323
O353	O	0.694706	-0.681900	-0.000187
O354	O	1.194706	-0.181900	0.499813
C355	C	0.638033	-0.709770	-0.000189
C356	C	1.138033	-0.209770	0.499811
H357	H	0.656178	-0.747438	0.023638
H358	H	1.156178	-0.247438	0.523638
H359	H	0.593711	-0.691094	0.036378
H360	H	1.093711	-0.191094	0.536378
H361	H	0.618383	-0.713315	-0.060582
H362	H	1.118383	-0.213315	0.439418
H363	H	0.712400	-0.163101	-0.000170
H364	H	1.212400	0.336899	0.499830
O365	O	0.729736	0.129297	0.336403
O366	O	1.229736	0.629297	0.836403
C367	C	0.686941	0.103483	0.382264
C368	C	1.186941	0.603483	0.882264
H369	H	0.715162	0.065612	0.394134
H370	H	1.215162	0.565612	0.894134
H371	H	0.675683	0.123679	0.437989
H372	H	1.175683	0.623679	0.937989
H373	H	0.635373	0.100286	0.351755
H374	H	1.135373	0.600286	0.851755
H375	H	0.713749	-0.071630	-0.000177
H376	H	1.213749	0.428370	0.499823
O377	O	0.635286	-0.392170	-0.000089
O378	O	1.135286	0.107830	0.499911
C379	C	0.631025	-0.421000	0.065099
C380	C	1.131025	0.079000	0.565099
H381	H	0.667366	-0.409162	0.110674
H382	H	1.167366	0.090838	0.610674
H383	H	0.574697	-0.416360	0.086986
H384	H	1.074697	0.083640	0.586986
H385	H	0.647565	-0.460791	0.050350
H386	H	1.147565	0.039209	0.550350
H387	H	1.002826	-0.482059	-0.000289
H388	H	1.502826	0.017941	0.499711
H389	H	0.643117	-0.540360	-0.000213
H390	H	1.143117	-0.040360	0.499787
O391	O	0.918468	-0.000564	0.819333
O392	O	1.418468	0.499436	1.319333
C393	C	0.960676	-0.029652	0.767355
C394	C	1.460676	0.470348	1.267355
H395	H	0.961241	-0.009835	0.710858
H396	H	1.461241	0.490165	1.210858
H397	H	1.016515	-0.037116	0.790225
H398	H	1.516515	0.462884	1.290225
H399	H	0.938404	-0.065525	0.758951
H400	H	1.438404	0.434475	1.258951
