data_functionalizedCrystal
_audit_creation_method	'MofGen! by Chris Wilmer'
_symmetry_space_group_name_H-M	'P1'
_symmetry_Int_Tables_number	1
_symmetry_cell_setting	triclinic
loop_
_symmetry_equiv_pos_as_xyz
  x,y,z
_cell_length_a	15.944545
_cell_length_b	9.130307
_cell_length_c	10.654541
_cell_angle_alpha	90.000178
_cell_angle_beta	96.009950
_cell_angle_gamma	89.994605
loop_
_atom_site_label
_atom_site_type_symbol
_atom_site_fract_x
_atom_site_fract_y
_atom_site_fract_z
O1	O	0.117966	-0.121762	-1.666308
O2	O	0.129208	-0.121776	-1.300683
O3	O	0.001369	-0.121751	-1.493484
O4	O	0.245804	-0.121787	-1.473507
O5	O	0.001368	0.121848	-1.493478
O6	O	0.129207	0.121823	-1.300677
O7	O	0.117965	0.121837	-1.666302
Cu8	Cu	0.123586	0.144073	-1.483489
Cu9	Cu	0.123587	-0.144011	-1.483497
O10	O	0.245803	0.121812	-1.473501
C11	C	0.128382	0.000022	-1.253893
C12	C	0.125914	0.000018	-1.114482
C13	C	-0.029930	0.000050	-1.492653
C14	C	-0.123191	0.000054	-1.490171
N15	N	0.123584	0.346695	-1.483493
C16	C	-0.394557	0.000019	-1.363247
C17	C	-0.343617	-0.120086	-1.424443
C18	C	-0.458886	0.000012	-1.481319
C19	C	-0.343646	0.120083	-1.424468
C20	C	-0.293947	0.000035	-1.485662
C21	C	-0.409174	-0.120193	-1.542483
C22	C	-0.409206	0.120085	-1.542491
C23	C	-0.358298	-0.000050	-1.603774
C24	C	-0.553902	-0.000003	-1.478814
C25	C	-0.198933	0.000039	-1.488177
C26	C	0.277103	0.000008	-1.474332
C27	C	0.370363	-0.000005	-1.476814
N28	N	0.123582	-0.346634	-1.483503
C29	C	0.010416	0.346707	-1.654288
C30	C	-0.046165	0.423380	-1.739693
C31	C	-0.046166	0.576713	-1.739706
C32	C	0.010420	0.653378	-1.654301
C33	C	0.067001	0.576705	-1.568895
C34	C	0.066997	0.423368	-1.568895
C35	C	0.180163	0.576693	-1.398097
C36	C	0.180169	0.423360	-1.398088
C37	C	0.236749	0.653358	-1.312692
C38	C	0.293336	0.576685	-1.227291
C39	C	0.293334	0.423342	-1.227283
C40	C	0.236751	0.346687	-1.312683
C41	C	0.118790	0.000036	-1.713093
C42	C	0.121259	0.000030	-1.852504
C43	C	0.278780	-0.000023	-1.084528
C44	C	0.354049	-0.000049	-1.004057
C45	C	0.351725	-0.000050	-0.873069
C46	C	0.274122	-0.000021	-0.822551
C47	C	0.198853	0.000006	-0.903021
C48	C	0.201185	0.000002	-1.034010
C49	C	0.045989	0.000057	-0.932975
C50	C	0.048311	0.000047	-1.063963
C51	C	-0.031614	0.000086	-0.882456
C52	C	-0.106885	0.000102	-0.962927
C53	C	-0.104557	0.000101	-1.093923
C54	C	-0.026958	0.000073	-1.144434
H55	H	-0.314971	-0.221630	-1.374581
H56	H	-0.025056	0.000056	-1.251089
H57	H	0.236748	0.221835	-1.312688
N58	N	-0.185744	0.000120	-1.180709
H59	H	-0.172500	0.000113	-1.271357
H60	H	-0.219521	0.090439	-1.164351
N61	N	0.236758	0.818737	-1.312704
H62	H	0.224002	0.855687	-1.227392
H63	H	0.192337	0.855563	-1.379825
H64	H	-0.092242	0.639140	-1.809246
H65	H	0.413016	-0.000061	-0.807549
H66	H	-0.092238	0.360946	-1.809227
H67	H	0.010409	0.778230	-1.654306
N68	N	0.354354	0.659367	-1.135175
H69	H	0.345763	0.768137	-1.148136
H70	H	0.414037	0.632566	-1.149669
N71	N	0.354356	0.340648	-1.135155
H72	H	0.390196	0.412487	-1.081058
H73	H	0.391797	0.277018	-1.183212
N74	N	-0.305738	0.254593	-1.358399
H75	H	-0.275884	0.314784	-1.419683
H76	H	-0.264050	0.223839	-1.285220
N77	N	-0.447184	0.254592	-1.608475
H78	H	-0.488091	0.223995	-1.682648
H79	H	-0.400868	0.316143	-1.639312
N80	N	0.281286	-0.000048	-1.225806
H81	H	0.341865	-0.000076	-1.245599
H82	H	0.251804	0.090266	-1.263153
H83	H	0.417232	-0.000069	-1.045204
N84	N	0.271612	0.000021	-0.681272
H85	H	0.331070	0.000014	-0.637961
H86	H	0.241002	-0.090268	-0.655688
N87	N	0.010430	0.181327	-1.654271
H88	H	0.023190	0.144384	-1.739583
H89	H	-0.046765	0.144511	-1.635961
H90	H	-0.170063	0.000124	-0.921784
N91	N	-0.416098	-0.000149	-1.228571
H92	H	-0.392123	-0.090972	-1.184122
H93	H	-0.479396	0.000826	-1.227991
N94	N	-0.446940	-0.254842	-1.608496
H95	H	-0.477225	-0.314584	-1.547414
H96	H	-0.400584	-0.315669	-1.640084
N97	N	-0.336999	-0.000115	-1.738569
H98	H	-0.361071	-0.090872	-1.783003
H99	H	-0.273720	0.000806	-1.739410
N100	N	-0.034126	0.000114	-0.741179
H101	H	0.025331	0.000095	-0.697864
H102	H	-0.064740	-0.090175	-0.715606
