data_functionalizedCrystal
_audit_creation_method	'MofGen! by Chris Wilmer'
_symmetry_space_group_name_H-M	'P1'
_symmetry_Int_Tables_number	1
_symmetry_cell_setting	triclinic
loop_
_symmetry_equiv_pos_as_xyz
  x,y,z
_cell_length_a	19.805407
_cell_length_b	16.959453
_cell_length_c	19.805399
_cell_angle_alpha	89.973285
_cell_angle_beta	89.979591
_cell_angle_gamma	90.021928
loop_
_atom_site_label
_atom_site_type_symbol
_atom_site_fract_x
_atom_site_fract_y
_atom_site_fract_z
Zn1	Zn	1.034766	-0.314659	-0.382739
Zn2	Zn	1.534766	0.185341	0.117261
Zn3	Zn	1.034693	-0.446841	-0.269552
Zn4	Zn	1.534693	0.053159	0.230448
Zn5	Zn	0.921581	-0.314685	-0.269562
Zn6	Zn	1.421581	0.185315	0.230438
Zn7	Zn	0.921557	-0.446804	-0.382697
Zn8	Zn	1.421557	0.053196	0.117303
O9	O	0.978149	-0.380747	-0.326138
O10	O	1.478149	0.119253	0.173862
O11	O	1.129473	-0.332198	-0.367738
O12	O	1.629473	0.167802	0.132262
O13	O	1.019668	-0.429337	-0.174837
O14	O	1.519668	0.070663	0.325163
O15	O	0.936635	-0.204071	-0.284596
O16	O	1.436635	0.295929	0.215404
O17	O	1.129420	-0.429312	-0.284580
O18	O	1.629420	0.070688	0.215420
O19	O	1.019792	-0.204052	-0.367747
O20	O	1.519792	0.295948	0.132253
O21	O	0.936565	-0.332243	-0.174844
O22	O	1.436565	0.167757	0.325156
O23	O	0.826861	-0.332206	-0.284556
O24	O	1.326861	0.167794	0.215444
O25	O	0.936595	-0.429248	-0.477420
O26	O	1.436595	0.070752	0.022580
O27	O	0.826843	-0.429273	-0.367676
O28	O	1.326843	0.070727	0.132324
O29	O	1.019769	-0.332162	-0.477450
O30	O	1.519769	0.167838	0.022550
O31	O	1.019645	-0.557447	-0.284540
O32	O	1.519645	-0.057447	0.215460
O33	O	0.936524	-0.557420	-0.367667
O34	O	1.436524	-0.057420	0.132333
C35	C	0.802293	-0.380739	-0.326113
C36	C	1.302293	0.119261	0.173887
C37	C	0.727061	-0.380755	-0.326119
C38	C	1.227061	0.119245	0.173881
C39	C	0.265301	-0.330275	-0.369530
C40	C	0.765301	0.169725	0.130470
C41	C	0.335990	-0.330276	-0.369525
C42	C	0.835990	0.169724	0.130475
C43	C	0.371299	-0.380759	-0.326159
C44	C	0.871299	0.119241	0.173841
C45	C	0.335917	-0.431250	-0.282800
C46	C	0.835917	0.068750	0.217200
C47	C	0.265230	-0.431252	-0.282809
C48	C	0.765230	0.068748	0.217191
C49	C	0.620990	-0.431244	-0.282765
C50	C	1.120990	0.068756	0.217235
C51	C	0.691682	-0.431236	-0.282758
C52	C	1.191682	0.068764	0.217242
C53	C	0.691750	-0.330268	-0.369481
C54	C	1.191750	0.169732	0.130519
C55	C	0.621063	-0.330270	-0.369490
C56	C	1.121063	0.169730	0.130510
C57	C	0.585687	-0.380763	-0.326133
C58	C	1.085687	0.119237	0.173867
C59	C	0.509038	-0.380762	-0.326140
C60	C	1.009038	0.119238	0.173860
C61	C	0.447947	-0.380757	-0.326149
C62	C	0.947947	0.119243	0.173851
C63	C	0.978093	-0.586114	-0.326113
C64	C	1.478093	-0.086114	0.173887
C65	C	0.978130	-0.673970	-0.326125
C66	C	1.478130	-0.173970	0.173875
C67	C	1.021504	-1.045377	-0.369516
C68	C	1.521504	-0.545377	0.130484
C69	C	0.934983	-1.045514	-0.282860
C70	C	1.434983	-0.545514	0.217140
C71	C	0.934958	-0.962968	-0.282844
C72	C	1.434958	-0.462968	0.217156
C73	C	0.978206	-0.921623	-0.326166
C74	C	1.478206	-0.421623	0.173834
C75	C	1.021479	-0.962824	-0.369503
C76	C	1.521479	-0.462824	0.130497
C77	C	0.891681	-0.921762	-0.239513
C78	C	1.391681	-0.421762	0.260487
C79	C	0.891653	-0.839211	-0.239496
C80	C	1.391653	-0.339211	0.260504
C81	C	0.934905	-0.797864	-0.282815
C82	C	1.434905	-0.297864	0.217185
C83	C	0.978181	-0.839070	-0.326153
C84	C	1.478181	-0.339070	0.173847
C85	C	1.021429	-0.797724	-0.369475
C86	C	1.521429	-0.297724	0.130525
C87	C	1.064708	-0.838928	-0.412810
C88	C	1.564708	-0.338928	0.087190
C89	C	1.064731	-0.921477	-0.412822
C90	C	1.564731	-0.421477	0.087178
C91	C	0.934882	-0.715315	-0.282803
C92	C	1.434882	-0.215315	0.217197
C93	C	1.021404	-0.715171	-0.369462
C94	C	1.521404	-0.215171	0.130538
C95	C	1.154692	-0.380756	-0.326163
C96	C	1.654692	0.119244	0.173837
C97	C	1.229924	-0.380760	-0.326173
C98	C	1.729924	0.119240	0.173827
C99	C	0.978187	-0.380698	-0.502680
C100	C	1.478187	0.119302	-0.002680
C101	C	0.978203	-0.380676	-0.577912
C102	C	1.478203	0.119324	-0.077912
C103	C	0.978224	-0.174579	-0.326177
C104	C	1.478224	0.325421	0.173823
C105	C	0.978256	-0.086722	-0.326194
C106	C	1.478256	0.413278	0.173806
C107	C	1.021513	-0.330121	-0.613274
C108	C	1.521513	0.169879	-0.113274
C109	C	1.021520	-0.330098	-0.683962
C110	C	1.521520	0.169902	-0.183962
C111	C	0.978220	-0.380635	-0.719288
C112	C	1.478220	0.119365	-0.219288
C113	C	0.934906	-0.431193	-0.683922
C114	C	1.434906	0.068807	-0.183922
C115	C	0.934896	-0.431211	-0.613235
C116	C	1.434896	0.068789	-0.113235
C117	C	0.934944	-0.431119	-0.968995
C118	C	1.434944	0.068881	-0.468995
C119	C	0.934958	-0.431098	-1.039688
C120	C	1.434958	0.068902	-0.539688
C121	C	1.021568	-0.330006	-1.039723
C122	C	1.521568	0.169994	-0.539723
C123	C	1.021558	-0.330024	-0.969035
C124	C	1.521558	0.169976	-0.469035
C125	C	0.978241	-0.380579	-0.933676
C126	C	1.478241	0.119421	-0.433676
C127	C	0.978234	-0.380602	-0.857027
C128	C	1.478234	0.119398	-0.357027
C129	C	0.978231	-0.380616	-0.795935
C130	C	1.478231	0.119384	-0.295935
C131	C	0.978150	-0.380740	-0.150282
C132	C	1.478150	0.119260	0.349718
C133	C	0.978265	-0.380538	-0.075050
C134	C	1.478265	0.119462	0.424950
H135	H	0.364672	-0.472357	-0.247494
H136	H	0.864672	0.027643	0.252506
N137	N	0.374157	-0.275812	-0.416271
N138	N	0.874157	0.224188	0.083729
H139	H	0.403494	-0.307972	-0.447589
H140	H	0.903494	0.192028	0.052411
H141	H	0.341027	-0.243830	-0.443697
H142	H	0.841027	0.256170	0.056303
H143	H	1.056743	-1.078929	-0.404797
H144	H	1.556743	-0.578929	0.095203
H145	H	0.899770	-1.079183	-0.247592
H146	H	1.399770	-0.579183	0.252408
H147	H	0.236426	-0.472364	-0.247505
H148	H	0.736426	0.027636	0.252495
N149	N	0.582987	-0.275810	-0.416259
N150	N	1.082987	0.224190	0.083741
H151	H	0.595307	-0.288157	-0.464600
H152	H	1.095307	0.211843	0.035400
H153	H	0.532850	-0.283490	-0.409630
H154	H	1.032850	0.216510	0.090370
H155	H	0.856469	-0.955431	-0.204245
H156	H	1.356469	-0.455431	0.295755
H157	H	1.056789	-0.288933	-0.712750
H158	H	1.556789	0.211067	-0.212750
H159	H	0.720562	-0.289156	-0.404785
H160	H	1.220562	0.210844	0.095215
N161	N	0.888182	-0.485744	-0.575100
N162	N	1.388182	0.014256	-0.075100
H163	H	0.915667	-0.522384	-0.545768
H164	H	1.415667	-0.022384	-0.045768
H165	H	0.856830	-0.453571	-0.545813
H166	H	1.356830	0.046429	-0.045813
H167	H	0.899682	-0.472295	-0.940214
H168	H	1.399682	0.027705	-0.440214
H169	H	1.056836	-0.288839	-1.068521
H170	H	1.556836	0.211161	-0.568521
H171	H	1.056820	-0.288875	-0.940276
H172	H	1.556820	0.211125	-0.440276
H173	H	0.592195	-0.472356	-0.247459
H174	H	1.092195	0.027644	0.252541
N175	N	0.729769	-0.485687	-0.235981
N176	N	1.229769	0.014313	0.264019
H177	H	0.696633	-0.517676	-0.208517
H178	H	1.196633	-0.017676	0.291483
H179	H	0.759103	-0.522302	-0.263476
H180	H	1.259103	-0.022302	0.236524
H181	H	0.899647	-0.472338	-0.712690
H182	H	1.399647	0.027662	-0.212690
N183	N	0.844980	-0.794772	-0.192755
N184	N	1.344980	-0.294772	0.307245
H185	H	0.817588	-0.833491	-0.165313
H186	H	1.317588	-0.333491	0.334687
H187	H	0.872545	-0.760527	-0.161453
H188	H	1.372545	-0.260527	0.338547
H189	H	0.236557	-0.289161	-0.404840
H190	H	0.736557	0.210839	0.095160
N191	N	0.888245	-0.485593	-1.077797
N192	N	1.388245	0.014407	-0.577797
H193	H	0.915739	-0.522220	-1.107125
H194	H	1.415739	-0.022220	-0.607125
H195	H	0.860806	-0.517568	-1.044633
H196	H	1.360806	-0.017568	-0.544633
N197	N	1.068054	-0.670579	-0.416185
N198	N	1.568054	-0.170579	0.083815
H199	H	1.095472	-0.709209	-0.443637
H200	H	1.595472	-0.209209	0.056363
H201	H	1.040473	-0.636331	-0.447479
H202	H	1.540473	-0.136331	0.052521
N203	N	0.888205	-0.670873	-0.236074
N204	N	1.388205	-0.170873	0.263926
H205	H	0.860808	-0.709591	-0.208635
H206	H	1.360808	-0.209591	0.291365
H207	H	0.915762	-0.636624	-0.204769
H208	H	1.415762	-0.136624	0.295231
N209	N	1.068220	-0.275618	-0.575174
N210	N	1.568220	0.224382	-0.075174
H211	H	1.095657	-0.243587	-0.608304
H212	H	1.595657	0.256413	-0.108304
H213	H	1.040679	-0.239044	-0.545846
H214	H	1.540679	0.260956	-0.045846
H215	H	1.099966	-0.955033	-0.448104
H216	H	1.599966	-0.455033	0.051896
N217	N	1.111346	-0.794325	-0.459538
N218	N	1.611346	-0.294325	0.040462
H219	H	1.142713	-0.760063	-0.432055
H220	H	1.642713	-0.260063	0.067945
H221	H	1.138723	-0.832995	-0.486986
H222	H	1.638723	-0.332995	0.013014
