data_functionalizedCrystal
_audit_creation_method	'MofGen! by Chris Wilmer'
_symmetry_space_group_name_H-M	'P1'
_symmetry_Int_Tables_number	1
_symmetry_cell_setting	triclinic
loop_
_symmetry_equiv_pos_as_xyz
  x,y,z
_cell_length_a	14.908783
_cell_length_b	21.295417
_cell_length_c	14.908308
_cell_angle_alpha	93.261727
_cell_angle_beta	89.788727
_cell_angle_gamma	93.320338
loop_
_atom_site_label
_atom_site_type_symbol
_atom_site_fract_x
_atom_site_fract_y
_atom_site_fract_z
Zn1	Zn	1.345265	-0.220173	-0.587804
Zn2	Zn	1.845265	0.279827	-0.087804
Zn3	Zn	1.353823	-0.319050	-0.437432
Zn4	Zn	1.853823	0.180950	0.062568
Zn5	Zn	1.203578	-0.219492	-0.428775
Zn6	Zn	1.703578	0.280508	0.071225
Zn7	Zn	1.194846	-0.331104	-0.579053
Zn8	Zn	1.694846	0.168896	-0.079053
O9	O	1.274378	-0.272455	-0.508266
O10	O	1.774378	0.227545	-0.008266
O11	O	1.472229	-0.228530	-0.575142
O12	O	1.972229	0.271470	-0.075142
O13	O	1.341129	-0.300514	-0.310461
O14	O	1.841129	0.199486	0.189539
O15	O	1.222446	-0.131491	-0.449910
O16	O	1.722446	0.368509	0.050090
O17	O	1.478517	-0.301174	-0.464665
O18	O	1.978517	0.198826	0.035335
O19	O	1.326543	-0.131992	-0.566748
O20	O	1.826543	0.368008	-0.066748
O21	O	1.230745	-0.227369	-0.304101
O22	O	1.730745	0.272631	0.195899
O23	O	1.076591	-0.239057	-0.441424
O24	O	1.576591	0.260943	0.058576
O25	O	1.207563	-0.321719	-0.706036
O26	O	1.707563	0.178281	-0.206036
O27	O	1.070176	-0.321058	-0.551833
O28	O	1.570176	0.178942	-0.051833
O29	O	1.318075	-0.240218	-0.712466
O30	O	1.818075	0.259782	-0.212466
O31	O	1.332662	-0.408740	-0.456179
O32	O	1.832662	0.091260	0.043821
O33	O	1.215862	-0.417596	-0.560227
O34	O	1.715862	0.082404	-0.060227
C35	C	1.040757	-0.281292	-0.494740
C36	C	1.540757	0.218708	0.005260
C37	C	0.940812	-0.285089	-0.488975
C38	C	1.440812	0.214911	0.011025
C39	C	0.746445	-0.216696	-0.593357
C40	C	1.246445	0.283304	-0.093357
C41	C	0.652537	-0.220261	-0.587943
C42	C	1.152537	0.279739	-0.087943
C43	C	0.659088	-0.295781	-0.472729
C44	C	1.159088	0.204219	0.027271
C45	C	0.752995	-0.292216	-0.478143
C46	C	1.252995	0.207784	0.021857
C47	C	0.796670	-0.252673	-0.538460
C48	C	1.296670	0.247327	-0.038460
C49	C	0.890580	-0.249111	-0.543878
C50	C	1.390580	0.250889	-0.043878
C51	C	0.897129	-0.324627	-0.428660
C52	C	1.397129	0.175373	0.071340
C53	C	0.803221	-0.328192	-0.423246
C54	C	1.303221	0.171808	0.076754
C55	C	1.274266	-0.436009	-0.508214
C56	C	1.774266	0.063991	-0.008214
C57	C	1.274299	-0.505976	-0.508226
C58	C	1.774299	-0.005976	-0.008226
C59	C	1.328467	-0.539049	-0.569103
C60	C	1.828467	-0.039049	-0.069103
C61	C	1.328497	-0.604791	-0.569127
C62	C	1.828497	-0.104791	-0.069127
C63	C	1.274370	-0.637457	-0.508259
C64	C	1.774370	-0.137457	-0.008259
C65	C	1.220191	-0.604376	-0.447378
C66	C	1.720191	-0.104376	0.052622
C67	C	1.220156	-0.538636	-0.447361
C68	C	1.720156	-0.038636	0.052639
N69	N	1.272122	-0.737628	-0.429178
N70	N	1.772122	-0.237628	0.070822
N71	N	1.272161	-0.800079	-0.429197
N72	N	1.772161	-0.300079	0.070803
C73	C	1.274473	-0.835530	-0.508306
C74	C	1.774473	-0.335530	-0.008306
N75	N	1.276762	-0.806170	-0.587398
N76	N	1.776762	-0.306170	-0.087398
N77	N	1.276727	-0.743713	-0.587379
N78	N	1.776727	-0.243713	-0.087379
C79	C	1.274402	-0.708742	-0.508270
C80	C	1.774402	-0.208742	-0.008270
C81	C	1.328676	-0.939888	-0.569213
C82	C	1.828676	-0.439888	-0.069213
C83	C	1.328700	-1.005632	-0.569238
C84	C	1.828700	-0.505632	-0.069238
C85	C	1.220400	-1.005215	-0.447481
C86	C	1.720400	-0.505215	0.052519
C87	C	1.220371	-0.939473	-0.447464
C88	C	1.720371	-0.439473	0.052536
C89	C	1.274514	-0.906813	-0.508329
C90	C	1.774514	-0.406813	-0.008329
C91	C	1.508911	-0.263583	-0.521845
C92	C	2.008911	0.236417	-0.021845
C93	C	1.608855	-0.259803	-0.527632
C94	C	2.108855	0.240197	-0.027632
C95	C	1.260891	-0.282389	-0.742787
C96	C	1.760891	0.217611	-0.242787
C97	C	1.255143	-0.286622	-0.842726
C98	C	1.755143	0.213378	-0.342726
C99	C	1.274514	-0.108262	-0.508339
C100	C	1.774514	0.391738	-0.008339
C101	C	1.274572	-0.038293	-0.508371
C102	C	1.774572	0.461707	-0.008371
C103	C	1.359416	-0.209696	-1.037219
C104	C	1.859416	0.290304	-0.537219
C105	C	1.354019	-0.213671	-1.131121
C106	C	1.854019	0.286329	-0.631121
C107	C	1.238946	-0.298545	-1.124433
C108	C	1.738946	0.201455	-0.624433
C109	C	1.244344	-0.294569	-1.030532
C110	C	1.744344	0.205431	-0.530532
C111	C	1.304582	-0.250144	-0.986928
C112	C	1.804582	0.249856	-0.486928
C113	C	1.309983	-0.246172	-0.893025
C114	C	1.809983	0.253828	-0.393025
C115	C	1.194907	-0.331042	-0.886339
C116	C	1.694907	0.168958	-0.386339
C117	C	1.189510	-0.335018	-0.980240
C118	C	1.689510	0.164982	-0.480240
C119	C	1.287865	-0.262512	-0.274660
C120	C	1.787865	0.237488	0.225340
C121	C	1.293787	-0.258095	-0.174732
C122	C	1.793787	0.241905	0.325268
H123	H	0.611647	-0.190964	-0.632644
H124	H	1.111647	0.309036	-0.132644
N125	N	1.413160	-0.170039	-1.185356
N126	N	1.913160	0.329961	-0.685356
H127	H	1.478339	-0.176689	-1.172729
H128	H	1.978339	0.323311	-0.672729
H129	H	1.400529	-0.179315	-1.251440
H130	H	1.900529	0.320685	-0.751440
H131	H	1.372599	-0.631726	-0.618710
H132	H	1.872599	-0.131726	-0.118710
H133	H	1.189903	-0.334713	-1.159952
H134	H	1.689903	0.165287	-0.659952
N135	N	1.387067	-0.904656	-0.634858
N136	N	1.887067	-0.404656	-0.134858
H137	H	1.421383	-0.935587	-0.673433
H138	H	1.921383	-0.435587	-0.173433
H139	H	1.348027	-0.880537	-0.674308
H140	H	1.848027	-0.380537	-0.174308
N141	N	1.387091	-1.041310	-0.634933
N142	N	1.887091	-0.541310	-0.134933
H143	H	1.421373	-1.010642	-0.673493
H144	H	1.921373	-0.510642	-0.173493
H145	H	1.430854	-1.065459	-0.600813
H146	H	1.930854	-0.565459	-0.100813
H147	H	1.140464	-0.371186	-1.015755
H148	H	1.640464	0.128814	-0.515755
N149	N	1.135765	-0.374677	-0.832097
N150	N	1.635765	0.125323	-0.332097
H151	H	1.148325	-0.365421	-0.765994
H152	H	1.648325	0.134579	-0.265994
H153	H	1.070609	-0.368008	-0.844794
H154	H	1.570609	0.131992	-0.344794
N155	N	1.162021	-1.040434	-0.381824
N156	N	1.662021	-0.540434	0.118176
H157	H	1.096957	-1.032052	-0.392012
H158	H	1.596957	-0.532052	0.107988
H159	H	1.170333	-1.087087	-0.391101
H160	H	1.670333	-0.587087	0.108899
N161	N	1.161959	-0.903793	-0.381796
N162	N	1.661959	-0.403793	0.118204
H163	H	1.096906	-0.918292	-0.391985
H164	H	1.596906	-0.418292	0.108015
H165	H	1.179755	-0.912005	-0.318409
H166	H	1.679755	-0.412005	0.181591
N167	N	0.937690	-0.206466	-0.608934
N168	N	1.437690	0.293534	-0.108934
H169	H	0.891619	-0.184215	-0.642887
H170	H	1.391619	0.315785	-0.142887
H171	H	0.978763	-0.174271	-0.574655
H172	H	1.478763	0.325729	-0.074655
N173	N	1.374954	-0.198262	-0.845991
N174	N	1.874954	0.301738	-0.345991
H175	H	1.408870	-0.173240	-0.892103
H176	H	1.908870	0.326760	-0.392103
H177	H	1.340614	-0.168867	-0.804923
H178	H	1.840614	0.331133	-0.304923
H179	H	1.408469	-0.173526	-1.001717
H180	H	1.908469	0.326474	-0.501717
N181	N	0.793551	-0.174059	-0.658426
N182	N	1.293551	0.325941	-0.158426
H183	H	0.830107	-0.199978	-0.702269
H184	H	1.330107	0.300022	-0.202269
H185	H	0.747423	-0.151825	-0.692322
H186	H	1.247423	0.348175	-0.192322
N187	N	0.611974	-0.338416	-0.407662
N188	N	1.111974	0.161584	0.092338
H189	H	0.544864	-0.335209	-0.412560
H190	H	1.044864	0.164791	0.087440
H191	H	0.627556	-0.383357	-0.422476
H192	H	1.127556	0.116643	0.077524
H193	H	0.767648	-0.360385	-0.374135
H194	H	1.267648	0.139615	0.125865
H195	H	1.372551	-0.512460	-0.618665
H196	H	1.872551	-0.012460	-0.118665
N197	N	0.951293	-0.363437	-0.369442
N198	N	1.451293	0.136563	0.130558
H199	H	0.988146	-0.392714	-0.408156
H200	H	1.488146	0.107286	0.091844
H201	H	0.992603	-0.334533	-0.330092
H202	H	1.492603	0.165467	0.169908
N203	N	1.161812	-0.639604	-0.381725
N204	N	1.661812	-0.139604	0.118275
H205	H	1.170057	-0.686269	-0.390969
H206	H	1.670057	-0.186269	0.109031
H207	H	1.179547	-0.624868	-0.318334
H208	H	1.679547	-0.124868	0.181666
H209	H	1.176045	-0.511707	-0.397788
H210	H	1.676045	-0.011707	0.102212
