data_functionalizedCrystal
_audit_creation_method	'MofGen! by Chris Wilmer'
_symmetry_space_group_name_H-M	'P1'
_symmetry_Int_Tables_number	1
_symmetry_cell_setting	triclinic
loop_
_symmetry_equiv_pos_as_xyz
  x,y,z
_cell_length_a	10.654550
_cell_length_b	15.186229
_cell_length_c	10.654550
_cell_angle_alpha	90.000822
_cell_angle_beta	84.484929
_cell_angle_gamma	90.000116
loop_
_atom_site_label
_atom_site_type_symbol
_atom_site_fract_x
_atom_site_fract_y
_atom_site_fract_z
O1	O	1.667839	0.073157	0.176397
O2	O	1.302361	0.073172	0.193203
O3	O	1.493503	0.073165	0.002061
O4	O	1.476697	0.073164	0.367540
O5	O	1.493490	-0.073293	0.002058
O6	O	1.302348	-0.073285	0.193201
O7	O	1.667826	-0.073301	0.176395
Zn8	Zn	1.485085	-0.096546	0.184797
Zn9	Zn	1.485102	0.096418	0.184801
O10	O	1.476684	-0.073293	0.367537
C11	C	1.255556	-0.000054	0.191968
C12	C	1.116113	-0.000048	0.188276
N13	N	1.485083	-0.228239	0.184794
C14	C	1.036628	-0.000051	0.300818
C15	C	0.905607	-0.000066	0.297341
C16	C	0.933570	-0.000072	0.068772
C17	C	1.064588	-0.000063	0.072250
C18	C	1.569750	-0.453965	0.100185
C19	C	1.569754	-0.546155	0.100182
C20	C	1.400438	-0.546157	0.269407
C21	C	1.400429	-0.453969	0.269403
C22	C	1.485092	-0.407875	0.184793
C23	C	1.485105	-0.592253	0.184795
C24	C	1.485109	-0.692209	0.184792
C25	C	1.485087	-0.307913	0.184794
C26	C	1.714631	-0.000072	0.177630
C27	C	1.854074	-0.000073	0.181322
C28	C	1.492263	-0.000062	-0.044738
C29	C	1.488571	-0.000056	-0.184181
N30	N	1.485114	0.228110	0.184794
C31	C	1.483361	0.079772	-0.380720
C32	C	1.486843	0.079777	-0.249700
C33	C	1.486830	-0.079899	-0.249691
C34	C	1.483357	-0.079903	-0.380710
C35	C	1.477925	-0.000065	0.414336
C36	C	1.481616	-0.000065	0.553779
H37	H	1.078574	-0.000045	0.395294
H38	H	1.331509	-0.583696	0.338296
H39	H	1.481940	-0.144920	-0.434042
Cl40	Cl	0.805687	-0.000071	0.438829
H41	H	1.481942	0.144781	-0.434055
H42	H	1.129309	-0.000064	-0.019401
H43	H	1.331485	-0.416440	0.338302
H44	H	1.488265	0.144788	-0.196376
Cl45	Cl	1.676182	-0.604093	-0.006190
H46	H	0.891602	-0.000090	-0.025693
Cl47	Cl	1.676178	-0.396022	-0.006186
Cl48	Cl	1.489010	-0.180261	-0.167325
