data_functionalizedCrystal
_audit_creation_method	'MofGen! by Chris Wilmer'
_symmetry_space_group_name_H-M	'P1'
_symmetry_Int_Tables_number	1
_symmetry_cell_setting	triclinic
loop_
_symmetry_equiv_pos_as_xyz
  x,y,z
_cell_length_a	23.532407
_cell_length_b	23.532407
_cell_length_c	22.010155
_cell_angle_alpha	89.983144
_cell_angle_beta	90.012768
_cell_angle_gamma	82.848674
loop_
_atom_site_label
_atom_site_type_symbol
_atom_site_fract_x
_atom_site_fract_y
_atom_site_fract_z
O1	O	-0.755249	-0.069141	0.050457
O2	O	-0.255249	0.430859	0.550457
O3	O	-0.589386	-0.079144	0.050476
O4	O	-0.089386	0.420856	0.550476
O5	O	-0.677319	0.008789	0.050453
O6	O	-0.177319	0.508789	0.550453
O7	O	-0.667316	-0.157074	0.050480
O8	O	-0.167316	0.342926	0.550480
O9	O	-0.677333	0.008804	-0.050597
O10	O	-0.177333	0.508804	0.449403
O11	O	-0.589399	-0.079129	-0.050574
O12	O	-0.089399	0.420871	0.449426
O13	O	-0.755263	-0.069126	-0.050593
O14	O	-0.255263	0.430874	0.449407
Cu15	Cu	-0.672332	-0.074126	-0.059810
Cu16	Cu	-0.172332	0.425874	0.440190
Cu17	Cu	-0.672316	-0.074144	0.059693
Cu18	Cu	-0.172316	0.425856	0.559693
O19	O	-0.667329	-0.157059	-0.050570
O20	O	-0.167329	0.342941	0.449430
C21	C	-0.677071	0.030013	-0.000074
C22	C	-0.177071	0.530013	0.499926
C23	C	-0.676305	0.093230	-0.000081
C24	C	-0.176305	0.593230	0.499919
C25	C	-0.776472	-0.069388	-0.000069
C26	C	-0.276472	0.430612	0.499931
C27	C	-0.839689	-0.070154	-0.000072
C28	C	-0.339689	0.429846	0.499928
C29	C	-0.568176	-0.078882	-0.000047
C30	C	-0.068176	0.421118	0.499953
C31	C	-0.504959	-0.078116	-0.000040
C32	C	-0.004959	0.421884	0.499960
C33	C	-0.723539	0.492333	-0.000063
C34	C	-0.223539	0.992333	0.499937
C35	C	-0.722827	0.551733	-0.000059
C36	C	-0.222827	1.051733	0.499941
O37	O	-0.766613	0.588478	-0.000043
O38	O	-0.266613	1.088478	0.499957
N39	N	-0.670551	0.574359	-0.000054
N40	N	-0.170551	1.074359	0.499946
C41	C	-0.618983	0.537582	-0.000047
C42	C	-0.118983	1.037582	0.499953
O43	O	-0.574452	0.562281	-0.000042
O44	O	-0.074452	1.062281	0.499958
C45	C	-0.619695	0.478183	-0.000045
C46	C	-0.119695	0.978183	0.499955
C47	C	-0.671974	0.455560	-0.000057
C48	C	-0.171974	0.955560	0.499943
C49	C	-0.775814	0.469710	-0.000073
C50	C	-0.275814	0.969710	0.499927
C51	C	-0.776525	0.410313	-0.000077
C52	C	-0.276525	0.910313	0.499923
C53	C	-0.724961	0.373540	-0.000071
C54	C	-0.224961	0.873540	0.499929
C55	C	-0.672686	0.396164	-0.000061
C56	C	-0.172686	0.896164	0.499939
C57	C	-0.568127	0.441406	-0.000033
C58	C	-0.068127	0.941406	0.499967
C59	C	-0.568844	0.382004	-0.000032
C60	C	-0.068844	0.882004	0.499968
C61	C	-0.621123	0.359381	-0.000043
C62	C	-0.121123	0.859381	0.499957
C63	C	-0.621832	0.299995	-0.000059
C64	C	-0.121832	0.799995	0.499941
N65	N	-0.674109	0.277369	-0.000064
N66	N	-0.174109	0.777369	0.499936
C67	C	-0.725673	0.314141	-0.000070
C68	C	-0.225673	0.814141	0.499930
C69	C	-0.617491	0.662324	-0.000048
C70	C	-0.117491	1.162324	0.499952
C71	C	-0.616779	0.721722	-0.000053
C72	C	-0.116779	1.221722	0.499947
C73	C	-0.720623	0.735869	-0.000065
C74	C	-0.220623	1.235869	0.499935
C75	C	-0.721335	0.676470	-0.000064
C76	C	-0.221335	1.176470	0.499936
C77	C	-0.669767	0.639698	-0.000053
C78	C	-0.169767	1.139698	0.499947
C79	C	-0.727163	0.189405	-0.000080
C80	C	-0.227163	0.689405	0.499920
C81	C	-0.727869	0.130003	-0.000087
C82	C	-0.227869	0.630003	0.499913
C83	C	-0.624025	0.115860	-0.000072
C84	C	-0.124025	0.615860	0.499928
C85	C	-0.623318	0.175257	-0.000068
C86	C	-0.123318	0.675257	0.499932
C87	C	-0.674891	0.212029	-0.000070
C88	C	-0.174891	0.712029	0.499930
O89	O	-0.578070	0.263215	-0.000073
O90	O	-0.078070	0.763215	0.499927
O91	O	-0.770196	0.289434	-0.000067
O92	O	-0.270196	0.789434	0.499933
C93	C	-0.105856	-0.125350	-0.000060
C94	C	0.394144	0.374650	0.499940
C95	C	-0.046456	-0.124638	-0.000064
C96	C	0.453544	0.375362	0.499936
O97	O	-0.009711	-0.168424	-0.000079
O98	O	0.490289	0.331576	0.499921
N99	N	-0.023830	-0.072362	-0.000071
N100	N	0.476170	0.427638	0.499929
C101	C	-0.060607	-0.020794	-0.000081
C102	C	0.439393	0.479206	0.499919
O103	O	-0.035908	0.023737	-0.000089
O104	O	0.464092	0.523737	0.499911
C105	C	-0.120006	-0.021506	-0.000082
C106	C	0.379994	0.478494	0.499918
C107	C	-0.142629	-0.073785	-0.000068
C108	C	0.357371	0.426215	0.499932
C109	C	-0.128479	-0.177625	-0.000047
C110	C	0.371521	0.322375	0.499953
C111	C	-0.187876	-0.178336	-0.000042
C112	C	0.312124	0.321664	0.499958
C113	C	-0.224649	-0.126772	-0.000050
C114	C	0.275351	0.373228	0.499950
C115	C	-0.202025	-0.074496	-0.000063
C116	C	0.297975	0.425504	0.499937
C117	C	-0.156783	0.030062	-0.000096
C118	C	0.343217	0.530062	0.499904
C119	C	-0.216185	0.029345	-0.000097
C120	C	0.283815	0.529345	0.499903
C121	C	-0.238808	-0.022934	-0.000083
C122	C	0.261192	0.477066	0.499917
C123	C	-0.298194	-0.023643	-0.000066
C124	C	0.201806	0.476357	0.499934
N125	N	-0.320820	-0.075920	-0.000059
N126	N	0.179180	0.424080	0.499941
C127	C	-0.284048	-0.127484	-0.000050
C128	C	0.215952	0.372516	0.499950
C129	C	0.064135	-0.019302	-0.000081
C130	C	0.564135	0.480698	0.499919
C131	C	0.123533	-0.018589	-0.000077
C132	C	0.623533	0.481411	0.499923
C133	C	0.137680	-0.122434	-0.000060
C134	C	0.637680	0.377566	0.499940
C135	C	0.078281	-0.123146	-0.000060
C136	C	0.578281	0.376854	0.499940
C137	C	0.041509	-0.071578	-0.000074
C138	C	0.541509	0.428422	0.499926
C139	C	-0.408784	-0.128974	-0.000039
C140	C	0.091216	0.371026	0.499961
C141	C	-0.468186	-0.129680	-0.000032
C142	C	0.031814	0.370320	0.499968
C143	C	-0.482329	-0.025836	-0.000052
C144	C	0.017671	0.474164	0.499948
C145	C	-0.422932	-0.025129	-0.000056
C146	C	0.077068	0.474871	0.499944
C147	C	-0.386160	-0.076702	-0.000052
C148	C	0.113840	0.423298	0.499948
O149	O	-0.334974	0.020119	-0.000054
O150	O	0.165026	0.520119	0.499946
O151	O	-0.308755	-0.172007	-0.000051
O152	O	0.191245	0.327993	0.499949
C153	C	-0.667577	0.821717	-0.000048
C154	C	-0.167577	1.321717	0.499952
C155	C	-0.668343	0.758500	-0.000056
C156	C	-0.168343	1.258500	0.499944
N157	N	-0.672305	-0.074153	0.143746
N158	N	-0.172305	0.425847	0.643746
N159	N	-0.672348	-0.074113	-0.143863
N160	N	-0.172348	0.425887	0.356137
C161	C	-0.711350	-0.035273	0.563515
C162	C	-0.211350	0.464727	1.063515
C163	C	-0.711354	-0.035271	0.627123
C164	C	-0.211354	0.464729	1.127123
O165	O	-0.744543	-0.002237	0.660005
O166	O	-0.244543	0.497763	1.160005
N167	N	-0.672344	-0.074126	0.658953
N168	N	-0.172344	0.425874	1.158953
C169	C	-0.633331	-0.112991	0.627172
C170	C	-0.133331	0.387009	1.127172
O171	O	-0.600151	-0.146040	0.660087
O172	O	-0.100151	0.353960	1.160087
C173	C	-0.633331	-0.112995	0.563566
C174	C	-0.133331	0.387005	1.063566
C175	C	-0.672339	-0.074134	0.531739
C176	C	-0.172339	0.425866	1.031739
C177	C	-0.750356	0.003585	0.531688
C178	C	-0.250356	0.503585	1.031688
C179	C	-0.750351	0.003583	0.468085
C180	C	-0.250351	0.503583	0.968085
C181	C	-0.711340	-0.035277	0.436308
C182	C	-0.211340	0.464723	0.936308
C183	C	-0.672334	-0.074136	0.468136
C184	C	-0.172334	0.425864	0.968136
C185	C	-0.594321	-0.151862	0.531787
C186	C	-0.094321	0.348138	1.031787
C187	C	-0.594324	-0.151864	0.468176
C188	C	-0.094324	0.348136	0.968176
C189	C	-0.633332	-0.113002	0.436349
C190	C	-0.133332	0.386998	0.936349
C191	C	-0.633319	-0.112998	0.372756
C192	C	-0.133319	0.387002	0.872756
N193	N	-0.672328	-0.074142	0.340926
N194	N	-0.172328	0.425858	0.840926
C195	C	-0.711339	-0.035282	0.372702
C196	C	-0.211339	0.464718	0.872702
C197	C	-0.633337	-0.112978	0.760750
C198	C	-0.133337	0.387022	1.260750
C199	C	-0.633335	-0.112971	0.824355
C200	C	-0.133335	0.387029	1.324355
C201	C	-0.711358	-0.035252	0.824301
C202	C	-0.211358	0.464748	1.324301
C203	C	-0.711357	-0.035257	0.760695
C204	C	-0.211357	0.464743	1.260695
C205	C	-0.672347	-0.074123	0.728920
C206	C	-0.172347	0.425877	1.228920
C207	C	-0.711326	-0.035289	0.239131
C208	C	-0.211326	0.464711	0.739131
C209	C	-0.711316	-0.035293	0.175522
C210	C	-0.211316	0.464707	0.675522
C211	C	-0.633295	-0.113013	0.175582
C212	C	-0.133295	0.386987	0.675582
C213	C	-0.633302	-0.113008	0.239185
C214	C	-0.133302	0.386992	0.739185
C215	C	-0.672323	-0.074143	0.270958
C216	C	-0.172323	0.425857	0.770958
O217	O	-0.600148	-0.146017	0.339833
O218	O	-0.100148	0.353983	0.839833
O219	O	-0.744519	-0.002243	0.339779
O220	O	-0.244519	0.497757	0.839779
H221	H	-0.770444	0.111587	-0.000097
H222	H	-0.270444	0.611587	0.499903
Br223	Br	-0.554048	0.065943	-0.000064
Br224	Br	-0.054048	0.565943	0.499936
H225	H	0.167632	-0.164421	-0.000056
H226	H	0.667632	0.335579	0.499944
Br227	Br	-0.845804	0.519606	-0.000081
Br228	Br	-0.345804	1.019606	0.499919
H229	H	-0.404512	0.017441	-0.000058
H230	H	0.095488	0.517441	0.499942
Br231	Br	-0.792289	0.645775	-0.000080
Br232	Br	-0.292289	1.145775	0.499920
H233	H	-0.246123	0.071339	-0.000108
H234	H	0.253877	0.571339	0.499892
Br235	Br	-0.218568	-0.249291	-0.000026
Br236	Br	0.281432	0.250709	0.499974
H237	H	-0.762610	0.765821	-0.000068
H238	H	-0.262610	1.265821	0.499932
Br239	Br	-0.764257	0.017454	0.132331
Br240	Br	-0.264257	0.517454	0.632331
H241	H	-0.574207	0.740136	-0.000055
H242	H	-0.074207	1.240136	0.499945
Br243	Br	-0.078583	-0.247615	-0.000036
Br244	Br	0.421417	0.252385	0.499964
H245	H	-0.575496	0.632387	-0.000044
H246	H	-0.075496	1.132387	0.499956
H247	H	-0.782116	0.035226	0.442175
H248	H	-0.282116	0.535226	0.942175
H249	H	-0.743122	-0.003613	0.734785
H250	H	-0.243122	0.496387	1.234785
H251	H	-0.769159	0.219337	-0.000079
H252	H	-0.269159	0.719337	0.499921
H253	H	-0.601531	-0.144651	0.149700
H254	H	-0.101531	0.355349	0.649700
H255	H	-0.378851	-0.170970	-0.000038
H256	H	0.121149	0.329030	0.499962
H257	H	0.034197	0.022693	-0.000087
H258	H	0.534197	0.522693	0.499913
H259	H	-0.601532	-0.144647	0.265099
H260	H	-0.101532	0.355353	0.765099
Br261	Br	-0.580386	-0.165726	0.717633
Br262	Br	-0.080386	0.334274	1.217633
Br263	Br	0.047586	-0.194099	-0.000042
Br264	Br	0.547586	0.305901	0.499958
H265	H	-0.743100	-0.003642	0.264993
H266	H	-0.243100	0.496358	0.764993
H267	H	-0.819097	0.391900	-0.000084
H268	H	-0.319097	0.891900	0.499916
Br269	Br	-0.497171	0.472092	-0.000016
Br270	Br	0.002829	0.972092	0.499984
H271	H	-0.512280	0.016146	-0.000056
H272	H	-0.012280	0.516146	0.499944
Br273	Br	-0.498854	0.332101	-0.000014
Br274	Br	0.001146	0.832101	0.499986
Br275	Br	-0.552367	0.205961	-0.000067
Br276	Br	-0.052367	0.705961	0.499933
H277	H	-0.486602	-0.172255	-0.000020
H278	H	0.013398	0.327745	0.499980
H279	H	0.141947	0.023982	-0.000078
H280	H	0.641947	0.523982	0.499922
H281	H	-0.138375	0.072634	-0.000108
H282	H	0.361625	0.572634	0.499892
Br283	Br	-0.803307	0.056329	0.574802
Br284	Br	-0.303307	0.556329	1.074802
H285	H	-0.743124	-0.003611	0.850185
H286	H	-0.243124	0.496389	1.350185
Br287	Br	-0.580383	-0.165705	0.867542
Br288	Br	-0.080383	0.334295	1.367542
Br289	Br	-0.541379	-0.204605	0.574968
Br290	Br	-0.041379	0.295395	1.074968
H291	H	-0.562557	-0.183515	0.442308
H292	H	-0.062557	0.316485	0.942308
