data_functionalizedCrystal
_audit_creation_method	'MofGen! by Chris Wilmer'
_symmetry_space_group_name_H-M	'P1'
_symmetry_Int_Tables_number	1
_symmetry_cell_setting	triclinic
loop_
_symmetry_equiv_pos_as_xyz
  x,y,z
_cell_length_a	12.827893
_cell_length_b	12.759400
_cell_length_c	12.827885
_cell_angle_alpha	89.969506
_cell_angle_beta	89.980728
_cell_angle_gamma	90.014655
loop_
_atom_site_label
_atom_site_type_symbol
_atom_site_fract_x
_atom_site_fract_y
_atom_site_fract_z
Zn1	Zn	1.597675	-0.418216	-0.590844
Zn2	Zn	1.597571	-0.593932	-0.416102
Zn3	Zn	1.422916	-0.418267	-0.416117
Zn4	Zn	1.422904	-0.593854	-0.590802
O5	O	1.510266	-0.506067	-0.503466
O6	O	1.743897	-0.441537	-0.567675
O7	O	1.574365	-0.570684	-0.269868
O8	O	1.446147	-0.271240	-0.439319
O9	O	1.743821	-0.570634	-0.439293
O10	O	1.574541	-0.271202	-0.567690
O11	O	1.446046	-0.441624	-0.269879
O12	O	1.276678	-0.441548	-0.439278
O13	O	1.446125	-0.570501	-0.737043
O14	O	1.276669	-0.570550	-0.567618
O15	O	1.574529	-0.441461	-0.737074
O16	O	1.574352	-0.740942	-0.439252
O17	O	1.446025	-0.740885	-0.567603
C18	C	1.238756	-0.506047	-0.503446
C19	C	1.122603	-0.506064	-0.503462
C20	C	1.070842	-0.569998	-0.566871
C21	C	0.950791	-0.570017	-0.566889
C22	C	1.510204	-0.779035	-0.503444
C23	C	1.510273	-0.895811	-0.503470
C24	C	1.577168	-0.950668	-0.436711
C25	C	1.577232	-1.060392	-0.436743
C26	C	1.443499	-1.060393	-0.570296
C27	C	1.443440	-0.950671	-0.570268
C28	C	1.644001	-0.895809	-0.369913
C29	C	1.710899	-0.950666	-0.303148
C30	C	1.710964	-1.060390	-0.303180
C31	C	1.644129	-1.115257	-0.369977
C32	C	1.782836	-0.506088	-0.503487
C33	C	1.898990	-0.506097	-0.503495
C34	C	1.510337	-0.505966	-0.776036
C35	C	1.510368	-0.505923	-0.892190
C36	C	1.510357	-0.232034	-0.503511
C37	C	1.510396	-0.115257	-0.503530
C38	C	1.573913	-0.442058	-0.943989
C39	C	1.573946	-0.442012	-1.064040
C40	C	1.510256	-0.506092	-0.231956
C41	C	1.510428	-0.505839	-0.115803
H42	H	0.943497	-0.451362	-0.449202
O43	O	1.378368	-0.897538	-0.635155
C44	C	1.319408	-0.969484	-0.694136
H45	H	1.315838	-1.047732	-0.651347
H46	H	1.357653	-0.981067	-0.773531
C47	C	1.212551	-0.830618	-0.761664
C48	C	1.208158	-0.926723	-0.709106
H49	H	1.143927	-0.804241	-0.770904
H50	H	1.252275	-0.782146	-0.721931
H51	H	1.244426	-0.840284	-0.827822
H52	H	1.176295	-0.917054	-0.642946
H53	H	1.168425	-0.975192	-0.748828
H54	H	1.628352	-0.387338	-1.108587
H55	H	0.906277	-0.624756	-0.621173
H56	H	1.455982	-0.560560	-0.936718
H57	H	1.389084	-1.105074	-0.624678
O58	O	1.638679	-0.376716	-0.890921
C59	C	1.615928	-0.271968	-0.917549
H60	H	1.532483	-0.266614	-0.947619
H61	H	1.672042	-0.244428	-0.980827
C62	C	1.730486	-0.208554	-0.783602
C63	C	1.627994	-0.201978	-0.820527
H64	H	1.737932	-0.165379	-0.723756
H65	H	1.745817	-0.279125	-0.765664
H66	H	1.777236	-0.185606	-0.836343
H67	H	1.581247	-0.224938	-0.767791
H68	H	1.612655	-0.131409	-0.838453
O69	O	1.069572	-0.440828	-0.438561
C70	C	1.096100	-0.463662	-0.334343
H71	H	1.175367	-0.503967	-0.332032
H72	H	1.034670	-0.517699	-0.299117
C73	C	1.003626	-0.311658	-0.274044
C74	C	1.100988	-0.361155	-0.271206
H75	H	1.006637	-0.248429	-0.235096
H76	H	0.985750	-0.296276	-0.344257
H77	H	0.952445	-0.356700	-0.244691
H78	H	1.152164	-0.316119	-0.300570
H79	H	1.118872	-0.376527	-0.200996
O80	O	1.775723	-0.897211	-0.238301
C81	C	1.761343	-0.788604	-0.252603
H82	H	1.680669	-0.773656	-0.286754
H83	H	1.823281	-0.757368	-0.308297
C84	C	1.870027	-0.750710	-0.104915
C85	C	1.770939	-0.732351	-0.146852
H86	H	1.875951	-0.716009	-0.039684
H87	H	1.879719	-0.823881	-0.095281
H88	H	1.921631	-0.724681	-0.151337
H89	H	1.719338	-0.758393	-0.100437
H90	H	1.761238	-0.659183	-0.156475
H91	H	1.643953	-0.806466	-0.369876
O92	O	1.775982	-1.113517	-0.238234
C93	C	1.834973	-1.041564	-0.179295
H94	H	1.792126	-0.963389	-0.175621
H95	H	1.914314	-1.029797	-0.217625
C96	C	1.902739	-1.180478	-0.072611
C97	C	1.850109	-1.084465	-0.068091
H98	H	1.912080	-1.206942	-0.004016
H99	H	1.862998	-1.228956	-0.112321
H100	H	1.968851	-1.170660	-0.104557
H101	H	1.783993	-1.094288	-0.036157
H102	H	1.889839	-1.035990	-0.028372
H103	H	1.456025	-0.560523	-1.071264
H104	H	1.644195	-1.204602	-0.370006
H105	H	1.115403	-0.624717	-0.621148
