data_functionalizedCrystal
_audit_creation_method	'MofGen! by Chris Wilmer'
_symmetry_space_group_name_H-M	'P1'
_symmetry_Int_Tables_number	1
_symmetry_cell_setting	triclinic
loop_
_symmetry_equiv_pos_as_xyz
  x,y,z
_cell_length_a	13.897449
_cell_length_b	13.897448
_cell_length_c	11.169409
_cell_angle_alpha	89.964482
_cell_angle_beta	89.974584
_cell_angle_gamma	90.018519
loop_
_atom_site_label
_atom_site_type_symbol
_atom_site_fract_x
_atom_site_fract_y
_atom_site_fract_z
Zn1	Zn	1.474722	-0.383916	-0.678671
Zn2	Zn	1.808055	-0.050583	-0.345338
Zn3	Zn	2.141389	0.282751	-0.012004
Zn4	Zn	1.474610	-0.545252	-0.477977
Zn5	Zn	1.807944	-0.211918	-0.144643
Zn6	Zn	2.141277	0.121415	0.188690
Zn7	Zn	1.313405	-0.383974	-0.477988
Zn8	Zn	1.646739	-0.050641	-0.144655
Zn9	Zn	1.980072	0.282692	0.188678
Zn10	Zn	1.313393	-0.545173	-0.678605
Zn11	Zn	1.646726	-0.211840	-0.345271
Zn12	Zn	1.980059	0.121494	-0.011938
O13	O	1.394033	-0.464579	-0.578310
O14	O	1.727366	-0.131245	-0.244977
O15	O	2.060699	0.202088	0.088356
O16	O	1.609689	-0.405326	-0.652071
O17	O	1.943022	-0.071993	-0.318738
O18	O	2.276355	0.261341	0.014595
O19	O	1.453185	-0.523915	-0.310028
O20	O	1.786518	-0.190582	0.023305
O21	O	2.119851	0.142752	0.356638
O22	O	1.334856	-0.248985	-0.504642
O23	O	1.668190	0.084348	-0.171309
O24	O	2.001523	0.417682	0.162024
O25	O	1.609607	-0.523858	-0.504622
O26	O	1.942940	-0.190525	-0.171289
O27	O	2.276273	0.142808	0.162045
O28	O	1.453375	-0.248942	-0.652083
O29	O	1.786708	0.084391	-0.318750
O30	O	2.120042	0.417725	0.014584
O31	O	1.334748	-0.405426	-0.310037
O32	O	1.668081	-0.072092	0.023296
O33	O	2.001415	0.261241	0.356630
O34	O	1.178422	-0.405349	-0.504578
O35	O	1.511755	-0.072016	-0.171244
O36	O	1.845089	0.261317	0.162089
O37	O	1.334835	-0.523725	-0.846563
O38	O	1.668168	-0.190391	-0.513230
O39	O	2.001502	0.142942	-0.179897
O40	O	1.178413	-0.523781	-0.651969
O41	O	1.511746	-0.190448	-0.318636
O42	O	1.845079	0.142885	0.014697
O43	O	1.453363	-0.405250	-0.846612
O44	O	1.786696	-0.071916	-0.513279
O45	O	2.120029	0.261417	-0.179945
O46	O	1.453172	-0.680223	-0.504558
O47	O	1.786506	-0.346889	-0.171224
O48	O	2.119839	-0.013556	0.162109
O49	O	1.334727	-0.680165	-0.651958
O50	O	1.668060	-0.346832	-0.318625
O51	O	2.001393	-0.013498	0.014709
C52	C	1.143418	-0.464564	-0.578268
C53	C	1.476752	-0.131231	-0.244935
C54	C	1.810085	0.202103	0.088398
C55	C	1.036204	-0.464581	-0.578279
C56	C	1.369538	-0.131247	-0.244946
C57	C	1.702871	0.202086	0.088388
C58	C	1.393962	-0.715193	-0.578275
C59	C	1.727295	-0.381860	-0.244942
C60	C	2.060629	-0.048526	0.088391
C61	C	1.394020	-0.822407	-0.578301
C62	C	1.727354	-0.489074	-0.244967
C63	C	2.060687	-0.155740	0.088366
C64	C	0.949135	-0.464584	-0.578299
C65	C	1.282468	-0.131251	-0.244966
C66	C	1.615801	0.202083	0.088368
C67	C	0.839902	-0.464591	-0.578335
C68	C	1.173235	-0.131257	-0.245002
C69	C	1.506569	0.202076	0.088331
C70	C	1.394122	-1.018702	-0.578376
C71	C	1.727455	-0.685369	-0.245043
C72	C	2.060788	-0.352035	0.088291
C73	C	1.394063	-0.909470	-0.578338
C74	C	1.727396	-0.576136	-0.245004
C75	C	2.060729	-0.242803	0.088329
C76	C	1.645625	-0.464594	-0.578353
C77	C	1.978959	-0.131261	-0.245020
C78	C	2.312292	0.202072	0.088314
C79	C	1.752839	-0.464601	-0.578371
C80	C	2.086173	-0.131268	-0.245038
C81	C	2.419506	0.202066	0.088296
C82	C	1.394110	-0.464472	-0.891353
C83	C	1.727443	-0.131139	-0.558019
C84	C	2.060777	0.202195	-0.224686
C85	C	1.394143	-0.464426	-1.024753
C86	C	1.727476	-0.131093	-0.691420
C87	C	2.060809	0.202240	-0.358086
C88	C	1.394130	-0.212986	-0.578371
C89	C	1.727463	0.120348	-0.245038
C90	C	2.060796	0.453681	0.088295
C91	C	1.394171	-0.105772	-0.578397
C92	C	1.727504	0.227562	-0.245064
C93	C	2.060837	0.560895	0.088269
C94	C	1.394011	-0.464616	-0.266485
C95	C	1.727344	-0.131282	0.066848
C96	C	2.060678	0.202051	0.400181
C97	C	1.394165	-0.464389	-0.133086
C98	C	1.727498	-0.131056	0.200247
C99	C	2.060832	0.202277	0.533581
