data_functionalizedCrystal
_audit_creation_method	'MofGen! by Chris Wilmer'
_symmetry_space_group_name_H-M	'P1'
_symmetry_Int_Tables_number	1
_symmetry_cell_setting	triclinic
loop_
_symmetry_equiv_pos_as_xyz
  x,y,z
_cell_length_a	9.065218
_cell_length_b	12.811415
_cell_length_c	7.540329
_cell_angle_alpha	84.565547
_cell_angle_beta	89.996962
_cell_angle_gamma	84.527407
loop_
_atom_site_label
_atom_site_type_symbol
_atom_site_fract_x
_atom_site_fract_y
_atom_site_fract_z
O1	O	1.958452	0.153908	-0.172237
O2	O	1.529008	0.166532	-0.174269
O3	O	1.754534	0.007530	-0.148688
O4	O	1.732926	0.312910	-0.197818
O5	O	1.754521	0.007528	0.146278
O6	O	1.528995	0.166530	0.120696
O7	O	1.958439	0.153906	0.122729
Cu8	Cu	1.743716	0.160218	0.148645
Cu9	Cu	1.743732	0.160220	-0.200186
O10	O	1.732913	0.312908	0.097147
C11	C	1.474030	0.165318	-0.026592
C12	C	1.310233	0.161690	-0.026009
C13	C	1.753316	-0.031587	0.005084
C14	C	1.749690	-0.148139	0.023824
C15	C	1.742865	-0.367140	-0.262569
C16	C	1.739458	-0.476652	-0.244970
C17	C	1.739459	-0.476675	0.076621
C18	C	1.742866	-0.367163	0.059022
C19	C	1.744571	-0.312400	-0.110579
C20	C	1.747988	-0.202887	-0.128177
C21	C	1.747979	-0.202912	0.193412
C22	C	1.744572	-0.312423	0.211012
C23	C	2.013417	0.155120	-0.024953
C24	C	2.177214	0.158748	-0.025547
C25	C	1.734131	0.352024	-0.056629
C26	C	1.737757	0.468577	-0.075380
N27	N	1.743715	0.160215	0.393994
N28	N	1.743744	0.160214	-0.445533
H29	H	1.749381	-0.158301	-0.266274
C30	C	1.737608	-0.536865	-0.412158
H31	H	1.739128	-0.488563	-0.515680
H32	H	1.650354	-0.572407	-0.413145
H33	H	1.822231	-0.586765	-0.410810
H34	H	1.738058	-0.521281	0.214702
H35	H	1.743178	-0.357026	0.349096
C36	C	1.744753	-0.306894	-0.449112
H37	H	1.747038	-0.233834	-0.437823
H38	H	1.658269	-0.317648	-0.513460
H39	H	1.830145	-0.332024	-0.511129
H40	H	1.749374	-0.158331	0.317174
