data_functionalizedCrystal
_audit_creation_method	'MofGen! by Chris Wilmer'
_symmetry_space_group_name_H-M	'P1'
_symmetry_Int_Tables_number	1
_symmetry_cell_setting	triclinic
loop_
_symmetry_equiv_pos_as_xyz
  x,y,z
_cell_length_a	19.188905
_cell_length_b	19.188930
_cell_length_c	7.540329
_cell_angle_alpha	89.991297
_cell_angle_beta	89.989921
_cell_angle_gamma	83.139668
loop_
_atom_site_label
_atom_site_type_symbol
_atom_site_fract_x
_atom_site_fract_y
_atom_site_fract_z
O1	O	0.926154	0.087083	-0.147794
O2	O	0.722841	0.098836	-0.147736
O3	O	0.830365	-0.008697	-0.147732
O4	O	0.818630	0.194616	-0.147798
O5	O	0.830358	-0.008698	0.147233
O6	O	0.722834	0.098835	0.147229
O7	O	0.926148	0.087082	0.147171
Cu8	Cu	0.824491	0.092958	0.174132
Cu9	Cu	0.824498	0.092960	-0.174698
O10	O	0.818624	0.194615	0.147167
C11	C	0.696826	0.098458	-0.000246
C12	C	0.619321	0.097324	-0.000222
C13	C	0.582932	0.096780	-0.161012
C14	C	0.510109	0.095707	-0.161034
C15	C	0.473678	0.095164	-0.000257
C16	C	0.510075	0.095712	0.160555
C17	C	0.582896	0.096792	0.160572
N18	N	0.364655	0.053735	0.119408
N19	N	0.295478	0.052707	0.119381
C20	C	0.254272	0.091911	-0.000298
N21	N	0.284856	0.132173	-0.119976
N22	N	0.354040	0.133197	-0.119954
C23	C	0.394716	0.093993	-0.000257
C24	C	0.138919	0.090205	-0.161123
C25	C	0.066094	0.089136	-0.161138
C26	C	0.066062	0.089134	0.160455
C27	C	0.138885	0.090210	0.160466
C28	C	0.175310	0.090742	-0.000328
C29	C	0.829982	-0.034708	-0.000245
C30	C	0.828841	-0.112213	-0.000229
C31	C	0.891933	-0.157142	-0.000239
C32	C	0.890861	-0.229966	-0.000267
C33	C	0.826694	-0.257857	-0.000250
C34	C	0.763594	-0.212917	-0.000250
C35	C	0.764668	-0.140095	-0.000240
N36	N	0.777644	-0.365858	0.100146
N37	N	0.776628	-0.435036	0.100140
C38	C	0.823456	-0.477265	-0.000285
N39	N	0.871348	-0.447703	-0.100681
N40	N	0.872365	-0.378519	-0.100667
C41	C	0.825523	-0.336819	-0.000262
C42	C	0.885390	-0.601159	-0.000327
C43	C	0.884315	-0.673984	-0.000366
C44	C	0.757047	-0.656933	-0.000332
C45	C	0.758123	-0.584110	-0.000311
C46	C	0.822296	-0.556228	-0.000300
C47	C	0.952163	0.087460	-0.000324
C48	C	1.029668	0.088594	-0.000359
C49	C	0.819007	0.220626	-0.000325
C50	C	0.820148	0.298131	-0.000352
N51	N	0.824490	0.092957	0.419481
N52	N	0.824504	0.092956	-0.420047
H53	H	0.036400	0.088696	0.291363
H54	H	0.168577	0.090645	-0.292051
F55	F	0.951470	-0.721802	-0.000388
F56	F	0.958014	-0.277792	-0.000280
F57	F	0.027366	0.088563	-0.332282
H58	H	0.168514	0.090648	0.291398
H59	H	0.480476	0.095265	-0.291973
H60	H	0.480408	0.095271	0.291461
F61	F	0.621694	0.097349	-0.332145
F62	F	0.697514	-0.092276	-0.000231
F63	F	0.690971	-0.536291	-0.000293
F64	F	0.960232	-0.127472	-0.000265
F65	F	0.695303	-0.242601	-0.000244
F66	F	0.953688	-0.571482	-0.000307
H67	H	0.704801	-0.679641	-0.000327
F68	F	0.621624	0.097371	0.331714
