data_functionalizedCrystal
_audit_creation_method	'MofGen! by Chris Wilmer'
_symmetry_space_group_name_H-M	'P1'
_symmetry_Int_Tables_number	1
_symmetry_cell_setting	triclinic
loop_
_symmetry_equiv_pos_as_xyz
  x,y,z
_cell_length_a	18.215405
_cell_length_b	18.215407
_cell_length_c	18.215399
_cell_angle_alpha	90.017813
_cell_angle_beta	90.030551
_cell_angle_gamma	90.019398
loop_
_atom_site_label
_atom_site_type_symbol
_atom_site_fract_x
_atom_site_fract_y
_atom_site_fract_z
Zn1	Zn	-0.293100	1.125072	0.416063
Zn2	Zn	0.040234	1.458405	0.749396
Zn3	Zn	0.373567	1.791739	1.082730
Zn4	Zn	-0.416171	1.124980	0.292991
Zn5	Zn	-0.082838	1.458314	0.626324
Zn6	Zn	0.250496	1.791647	0.959658
Zn7	Zn	-0.293111	1.002004	0.293015
Zn8	Zn	0.040222	1.335338	0.626348
Zn9	Zn	0.373556	1.668671	0.959681
Zn10	Zn	-0.416117	1.001970	0.416020
Zn11	Zn	-0.082784	1.335304	0.749354
Zn12	Zn	0.250550	1.668637	1.082687
O13	O	-0.354625	1.063507	0.354522
O14	O	-0.021291	1.396840	0.687855
O15	O	0.312042	1.730173	1.021189
O16	O	-0.309443	1.228044	0.399745
O17	O	0.023890	1.561377	0.733078
O18	O	0.357224	1.894711	1.066412
O19	O	-0.399874	1.108643	0.190010
O20	O	-0.066541	1.441977	0.523343
O21	O	0.266793	1.775310	0.856676
O22	O	-0.190125	1.018382	0.309365
O23	O	0.143208	1.351716	0.642698
O24	O	0.476542	1.685049	0.976032
O25	O	-0.399863	1.227977	0.309325
O26	O	-0.066530	1.561310	0.642658
O27	O	0.266804	1.894643	0.975991
O28	O	-0.190117	1.108799	0.399768
O29	O	0.143217	1.442133	0.733101
O30	O	0.476550	1.775466	1.066435
O31	O	-0.309462	1.018293	0.190027
O32	O	0.023871	1.351627	0.523360
O33	O	0.357204	1.684960	0.856694
O34	O	-0.309410	0.899016	0.309324
O35	O	0.023923	1.232349	0.642657
O36	O	0.357256	1.565682	0.975990
O37	O	-0.399771	1.018324	0.519010
O38	O	-0.066438	1.351657	0.852344
O39	O	0.266895	1.684991	1.185677
O40	O	-0.399782	0.898991	0.399695
O41	O	-0.066449	1.232324	0.733029
O42	O	0.266884	1.565657	1.066362
O43	O	-0.309391	1.108766	0.519042
O44	O	0.023942	1.442100	0.852375
O45	O	0.357276	1.775433	1.185708
O46	O	-0.519148	1.108610	0.309283
O47	O	-0.185815	1.441943	0.642617
O48	O	0.147519	1.775277	0.975950
O49	O	-0.519109	1.018235	0.399672
O50	O	-0.185775	1.351569	0.733006
O51	O	0.147558	1.684902	1.066339
C52	C	-0.354592	0.872300	0.354508
C53	C	-0.021259	1.205634	0.687841
C54	C	0.312074	1.538967	1.021174
C55	C	-0.354596	0.790502	0.354519
C56	C	-0.021263	1.123835	0.687852
C57	C	0.312071	1.457168	1.021186
C58	C	-0.307634	0.525473	0.401679
C59	C	0.025700	0.858807	0.735012
C60	C	0.359033	1.192140	1.068346
C61	C	-0.307622	0.602332	0.401677
C62	C	0.025712	0.935666	0.735010
C63	C	0.359045	1.268999	1.068343
C64	C	-0.401639	0.602281	0.307381
C65	C	-0.068306	0.935615	0.640715
C66	C	0.265027	1.268948	0.974048
C67	C	-0.401654	0.525424	0.307388
C68	C	-0.068321	0.858757	0.640721
C69	C	0.265012	1.192091	0.974055
C70	C	-0.354647	0.487022	0.354536
C71	C	-0.021314	0.820355	0.687869
C72	C	0.312019	1.153689	1.021202
C73	C	-0.354620	0.640738	0.354527
C74	C	-0.021287	0.974071	0.687860
C75	C	0.312046	1.307405	1.021193
C76	C	-0.354608	0.724072	0.354524
C77	C	-0.021275	1.057405	0.687857
C78	C	0.312059	1.390738	1.021191
C79	C	-0.354661	0.403683	0.354540
C80	C	-0.021327	0.737016	0.687873
C81	C	0.312006	1.070350	1.021206
C82	C	-0.545831	1.063429	0.354487
C83	C	-0.212498	1.396762	0.687820
C84	C	0.120836	1.730096	1.021153
C85	C	-0.627630	1.063463	0.354496
C86	C	-0.294296	1.396796	0.687830
C87	C	0.039037	1.730130	1.021163
C88	C	-0.815820	1.110632	0.307517
C89	C	-0.482486	1.443965	0.640851
C90	C	-0.149153	1.777298	0.974184
C91	C	-0.892679	1.110665	0.307535
C92	C	-0.559345	1.443998	0.640868
C93	C	-0.226012	1.777331	0.974202
C94	C	-0.892677	1.016476	0.401580
C95	C	-0.559344	1.349809	0.734913
C96	C	-0.226011	1.683143	1.068247
C97	C	-0.815820	1.016447	0.401565
C98	C	-0.482487	1.349781	0.734899
C99	C	-0.149153	1.683114	1.068232
C100	C	-0.777393	1.063524	0.354530
C101	C	-0.444060	1.396857	0.687863
C102	C	-0.110727	1.730191	1.021196
C103	C	-0.931109	1.063586	0.354562
C104	C	-0.597776	1.396919	0.687896
C105	C	-0.264443	1.730252	1.021229
C106	C	-1.014443	1.063621	0.354582
C107	C	-0.681110	1.396954	0.687915
C108	C	-0.347776	1.730288	1.021249
C109	C	-0.694054	1.063490	0.354511
C110	C	-0.360721	1.396823	0.687844
C111	C	-0.027388	1.730157	1.021178
C112	C	-0.162672	1.063605	0.354574
C113	C	0.170662	1.396938	0.687907
C114	C	0.503995	1.730271	1.021240
C115	C	-0.080873	1.063647	0.354596
C116	C	0.252461	1.396980	0.687929
C117	C	0.585794	1.730313	1.021262
C118	C	-0.354574	1.063552	0.546475
C119	C	-0.021241	1.396885	0.879808
C120	C	0.312093	1.730218	1.213142
C121	C	-0.354552	1.063571	0.628274
C122	C	-0.021219	1.396904	0.961607
C123	C	0.312114	1.730237	1.294941
C124	C	-0.354658	1.255460	0.354537
C125	C	-0.021324	1.588793	0.687870
C126	C	0.312009	1.922126	1.021204
C127	C	-0.354672	1.337259	0.354543
C128	C	-0.021338	1.670592	0.687877
C129	C	0.311995	2.003925	1.021210
C130	C	-0.354622	1.063504	0.163316
C131	C	-0.021289	1.396838	0.496649
C132	C	0.312045	1.730171	0.829983
C133	C	-0.354436	1.063628	0.081517
C134	C	-0.021103	1.396961	0.414851
C135	C	0.312230	1.730295	0.748184
C136	C	-0.307447	1.110681	0.816486
C137	C	0.025886	1.444014	1.149819
C138	C	0.359220	1.777348	1.483152
C139	C	-0.307426	1.110690	0.893344
C140	C	0.025908	1.444023	1.226678
C141	C	0.359241	1.777356	1.560011
C142	C	-0.401544	1.016513	0.893301
C143	C	-0.068210	1.349846	1.226634
C144	C	0.265123	1.683179	1.559967
C145	C	-0.401561	1.016501	0.816443
C146	C	-0.068227	1.349834	1.149776
C147	C	0.265106	1.683167	1.483110
C148	C	-0.354514	1.063589	0.778038
C149	C	-0.021180	1.396922	1.111371
C150	C	0.312153	1.730256	1.444704
C151	C	-0.354475	1.063610	0.931754
C152	C	-0.021142	1.396943	1.265087
C153	C	0.312192	1.730276	1.598421
C154	C	-0.354452	1.063619	1.015088
C155	C	-0.021119	1.396952	1.348421
C156	C	0.312215	1.730286	1.681754
C157	C	-0.354535	1.063579	0.694699
C158	C	-0.021202	1.396912	1.028032
C159	C	0.312131	1.730246	1.361365
H160	H	-0.269357	0.494209	0.440070
H161	H	0.063976	0.827542	0.773403
H162	H	0.397309	1.160875	1.106736
O163	O	-0.452360	0.483947	0.256530
O164	O	-0.119026	0.817280	0.589864
O165	O	0.214307	1.150613	0.923197
H166	H	-0.510132	0.498698	0.269042
H167	H	-0.176799	0.832031	0.602376
H168	H	0.156535	1.165364	0.935709
O169	O	-0.452285	0.965726	0.934725
O170	O	-0.118951	1.299059	1.268058
O171	O	0.214382	1.632392	1.601391
H172	H	-0.489729	0.998649	0.969731
H173	H	-0.156396	1.331982	1.303064
H174	H	0.176937	1.665316	1.636397
H175	H	-0.923962	1.149026	0.269254
H176	H	-0.590629	1.482359	0.602587
H177	H	-0.257295	1.815692	0.935920
H178	H	-0.923974	0.978146	0.439873
H179	H	-0.590641	1.311480	0.773207
H180	H	-0.257307	1.644813	1.106540
H181	H	-0.784535	1.148966	0.269219
H182	H	-0.451201	1.482299	0.602552
H183	H	-0.117868	1.815632	0.935886
H184	H	-0.439887	0.978148	0.785138
H185	H	-0.106554	1.311481	1.118471
H186	H	0.226779	1.644814	1.451805
O187	O	-0.256704	1.161463	0.775058
O188	O	0.076629	1.494797	1.108391
O189	O	0.409962	1.828130	1.441725
H190	H	-0.198940	1.148866	0.789819
H191	H	0.134393	1.482200	1.123152
H192	H	0.467727	1.815533	1.456486
O193	O	-0.256666	1.161485	0.934816
O194	O	0.076667	1.494819	1.268150
O195	O	0.410001	1.828152	1.601483
H196	H	-0.223961	1.194228	0.895196
H197	H	0.109373	1.527562	1.228529
H198	H	0.442706	1.860895	1.561862
H199	H	-0.269339	0.633636	0.440066
H200	H	0.063994	0.966969	0.773400
H201	H	0.397328	1.300303	1.106733
H202	H	-0.439909	0.633558	0.268994
H203	H	-0.106576	0.966891	0.602327
H204	H	0.226757	1.300224	0.935661
O205	O	-0.774365	0.965625	0.452263
O206	O	-0.441032	1.298959	0.785596
O207	O	-0.107699	1.632292	1.118930
H208	H	-0.813997	0.932883	0.484961
H209	H	-0.480663	1.266216	0.818294
H210	H	-0.147330	1.599550	1.151627
