data_functionalizedCrystal
_audit_creation_method	'MofGen! by Chris Wilmer'
_symmetry_space_group_name_H-M	'P1'
_symmetry_Int_Tables_number	1
_symmetry_cell_setting	triclinic
loop_
_symmetry_equiv_pos_as_xyz
  x,y,z
_cell_length_a	16.109301
_cell_length_b	10.654536
_cell_length_c	14.586319
_cell_angle_alpha	89.976967
_cell_angle_beta	89.994467
_cell_angle_gamma	83.971732
loop_
_atom_site_label
_atom_site_type_symbol
_atom_site_fract_x
_atom_site_fract_y
_atom_site_fract_z
O1	O	-1.104092	-0.161434	0.076204
O2	O	-0.862150	-0.181523	0.076222
O3	O	-0.988687	0.011337	0.076182
O4	O	-0.977555	-0.354294	0.076244
O5	O	-0.988669	0.011369	-0.076299
O6	O	-0.862131	-0.181490	-0.076259
O7	O	-1.104074	-0.161402	-0.076276
Cu8	Cu	-0.983101	-0.171443	-0.090190
Cu9	Cu	-0.983123	-0.171482	0.090136
O10	O	-0.977537	-0.354262	-0.076236
C11	C	-0.831161	-0.180693	-0.000017
C12	C	-0.738851	-0.178253	-0.000012
C13	C	-0.987862	0.058140	-0.000065
C14	C	-0.985420	0.197551	-0.000082
N15	N	-0.983092	-0.171415	-0.217022
C16	C	-1.135063	-0.162232	-0.000036
C17	C	-1.227373	-0.164671	-0.000035
C18	C	-0.517223	-0.287020	-0.000004
C19	C	-0.430489	-0.284718	-0.000010
C20	C	-0.449007	-0.055896	-0.000046
C21	C	-0.535740	-0.058200	-0.000046
C22	C	-0.569845	-0.173765	-0.000020
C23	C	-0.396379	-0.169160	-0.000026
C24	C	-0.302338	-0.166663	-0.000033
C25	C	-0.663892	-0.176263	-0.000015
C26	C	-1.136727	0.227574	-0.000107
C27	C	-1.211231	0.308080	-0.000131
C28	C	-1.208931	0.439067	-0.000146
C29	C	-1.132121	0.489550	-0.000135
C30	C	-1.057617	0.409045	-0.000112
C31	C	-1.059925	0.278056	-0.000099
C32	C	-0.906312	0.379022	-0.000080
C33	C	-0.908609	0.248034	-0.000072
C34	C	-0.829501	0.429505	-0.000069
C35	C	-0.754996	0.348999	-0.000053
C36	C	-0.757299	0.218005	-0.000038
C37	C	-0.834106	0.167529	-0.000048
C38	C	-0.978365	0.598936	-0.000023
C39	C	-0.980815	0.459527	-0.000104
C40	C	-0.932258	-0.095280	-0.548061
C41	C	-0.932251	-0.095262	-0.452080
C42	C	-1.033978	-0.247638	-0.452000
C43	C	-1.033989	-0.247648	-0.547980
C44	C	-0.983124	-0.171471	-0.596008
C45	C	-0.983107	-0.171444	-0.404047
C46	C	-0.983100	-0.171425	-0.299980
C47	C	-0.983132	-0.171487	-0.700081
N48	N	-0.983138	-0.171499	0.216968
H49	H	-0.544989	-0.381121	0.000010
C50	C	-0.876279	-0.011487	-0.399338
H51	H	-0.883556	-0.022387	-0.335297
H52	H	-0.819538	-0.034828	-0.415082
H53	H	-0.891220	0.074444	-0.415088
C54	C	-0.876317	-0.011483	-0.600893
H55	H	-0.883600	-0.022408	-0.664923
H56	H	-0.891267	0.074438	-0.585191
H57	H	-0.819563	-0.034802	-0.585168
H58	H	-1.075414	-0.309693	-0.587019
H59	H	-0.421227	0.038193	-0.000072
H60	H	-0.578587	0.034032	-0.000062
H61	H	-1.075389	-0.309660	-0.412884
H62	H	-1.138607	0.120919	-0.000107
C63	C	-0.372609	-0.409298	0.000015
H64	H	-0.405346	-0.478449	0.000037
H65	H	-0.338385	-0.413150	-0.053158
H66	H	-0.338395	-0.413164	0.053196
H67	H	-1.273768	0.266961	-0.000148
H68	H	-1.269598	0.504615	-0.000158
H69	H	-1.130255	0.596208	-0.000136
H70	H	-0.827634	0.536163	-0.000076
C71	C	-0.675346	0.129453	-0.000009
H72	H	-0.687713	0.044210	0.000004
H73	H	-0.643868	0.144771	-0.053174
H74	H	-0.643902	0.144739	0.053179
C75	C	-0.670514	0.404526	-0.000034
H76	H	-0.626471	0.337824	-0.000015
H77	H	-0.666459	0.455028	-0.053206
H78	H	-0.666488	0.454973	0.053148
C79	C	-0.836642	0.023448	-0.000027
H80	H	-0.893056	0.004917	-0.000028
H81	H	-0.809210	-0.011724	-0.053187
H82	H	-0.809238	-0.011735	0.053167
