data_functionalizedCrystal
_audit_creation_method	'MofGen! by Chris Wilmer'
_symmetry_space_group_name_H-M	'P1'
_symmetry_Int_Tables_number	1
_symmetry_cell_setting	triclinic
loop_
_symmetry_equiv_pos_as_xyz
  x,y,z
_cell_length_a	8.559649
_cell_length_b	14.519731
_cell_length_c	7.681481
_cell_angle_alpha	84.245782
_cell_angle_beta	94.912730
_cell_angle_gamma	76.733759
loop_
_atom_site_label
_atom_site_type_symbol
_atom_site_fract_x
_atom_site_fract_y
_atom_site_fract_z
O1	O	2.104957	-0.021481	-0.146421
O2	O	1.639894	0.026137	-0.146428
O3	O	1.884740	-0.132794	-0.146408
O4	O	1.860111	0.137450	-0.146440
O5	O	1.914876	-0.152395	0.146452
O6	O	1.670031	0.006536	0.146433
O7	O	2.135093	-0.041082	0.146440
Zn8	Zn	1.907347	-0.020385	0.192934
Zn9	Zn	1.867641	0.005440	-0.192922
O10	O	1.890248	0.117849	0.146420
C11	C	1.595443	0.019945	0.000002
C12	C	1.418095	0.030686	-0.000000
C13	C	1.898654	-0.176871	0.000023
C14	C	1.895197	-0.279003	0.000024
C15	C	1.892387	-0.361945	0.000019
C16	C	1.888875	-0.466001	0.000006
C17	C	1.886088	-0.548940	-0.000005
C18	C	1.882576	-0.653002	-0.000016
C19	C	2.179544	-0.034890	0.000006
C20	C	2.356891	-0.045630	-0.000003
C21	C	1.876333	0.161926	-0.000014
C22	C	1.879789	0.264059	-0.000027
N23	N	1.934457	-0.038012	0.456270
N24	N	1.840544	0.023059	-0.456258
H25	H	1.440177	-0.119191	0.000005
H26	H	1.744677	0.085393	0.468537
O27	O	2.061477	-0.120580	0.555878
H28	H	2.037148	-0.188644	0.520601
O29	O	1.307801	0.128126	-0.000010
H30	H	1.181141	0.121557	-0.000012
