data_functionalizedCrystal
_audit_creation_method	'MofGen! by Chris Wilmer'
_symmetry_space_group_name_H-M	'P1'
_symmetry_Int_Tables_number	1
_symmetry_cell_setting	triclinic
loop_
_symmetry_equiv_pos_as_xyz
  x,y,z
_cell_length_a	10.654550
_cell_length_b	10.065875
_cell_length_c	10.654550
_cell_angle_alpha	98.874771
_cell_angle_beta	95.515069
_cell_angle_gamma	98.829657
loop_
_atom_site_label
_atom_site_type_symbol
_atom_site_fract_x
_atom_site_fract_y
_atom_site_fract_z
O1	O	1.686040	0.113390	-0.158115
O2	O	1.320565	0.113415	-0.174917
O3	O	1.511704	0.113393	0.016222
O4	O	1.494901	0.113412	-0.349254
O5	O	1.475258	-0.113591	-0.020373
O6	O	1.284119	-0.113570	-0.211512
O7	O	1.649593	-0.113595	-0.194710
Zn8	Zn	1.461069	-0.149621	-0.208921
Zn9	Zn	1.509089	0.149441	-0.160706
O10	O	1.458454	-0.113573	-0.385849
C11	C	1.255544	-0.000074	-0.191980
C12	C	1.116103	-0.000065	-0.188287
C13	C	1.036617	-0.000063	-0.300828
C14	C	0.905593	-0.000087	-0.297355
C15	C	0.933552	-0.000109	-0.068789
C16	C	1.064573	-0.000095	-0.072265
N17	N	1.428306	-0.353723	-0.241827
C18	C	1.497682	-0.421509	-0.172146
C19	C	1.472476	-0.578674	-0.197481
C20	C	1.714614	-0.000102	-0.177646
C21	C	1.854058	-0.000103	-0.181338
C22	C	1.492247	-0.000098	0.044722
C23	C	1.488555	-0.000096	0.184166
N24	N	1.541862	0.353543	-0.127791
C25	C	1.477912	-0.000078	-0.414349
C26	C	1.481605	-0.000072	-0.553791
C27	C	1.601096	-0.000103	0.263650
C28	C	1.597622	-0.000086	0.394674
C29	C	1.369057	-0.000061	0.366715
C30	C	1.372533	-0.000068	0.235695
H31	H	0.840880	-0.000088	-0.388998
H32	H	1.619918	-0.588145	-0.049369
N33	N	1.324902	-0.430954	-0.345687
H34	H	1.321551	-0.532280	-0.349060
H35	H	1.344406	-0.406047	-0.430860
H36	H	1.078567	-0.000049	-0.395302
H37	H	1.695569	-0.000123	0.221700
N38	N	0.877972	-0.000148	0.056342
H39	H	0.782910	-0.000156	0.041469
H40	H	0.920476	0.083992	0.119214
N41	N	1.719004	-0.000093	0.480405
H42	H	1.793026	-0.000113	0.427876
H43	H	1.709023	-0.084235	0.521818
H44	H	1.274595	-0.000040	0.408686
N45	N	1.251147	-0.000050	0.149955
H46	H	1.177118	-0.000041	0.202476
H47	H	1.234098	-0.084196	0.081423
H48	H	1.394411	-0.636986	-0.275893
N49	N	1.150313	-0.000112	0.049122
H50	H	1.097792	-0.000126	0.123150
H51	H	1.218788	0.084035	0.066229
H52	H	1.575733	-0.363194	-0.093730
