data_functionalizedCrystal
_audit_creation_method	'MofGen! by Chris Wilmer'
_symmetry_space_group_name_H-M	'P1'
_symmetry_Int_Tables_number	1
_symmetry_cell_setting	triclinic
loop_
_symmetry_equiv_pos_as_xyz
  x,y,z
_cell_length_a	10.967926
_cell_length_b	10.967829
_cell_length_c	15.186229
_cell_angle_alpha	77.868373
_cell_angle_beta	102.125883
_cell_angle_gamma	87.248880
loop_
_atom_site_label
_atom_site_type_symbol
_atom_site_fract_x
_atom_site_fract_y
_atom_site_fract_z
O1	O	1.657160	0.175018	0.151693
O2	O	1.990493	0.508351	0.485027
O3	O	2.323827	0.841685	0.818360
O4	O	1.294014	0.191774	0.094041
O5	O	1.627347	0.525107	0.427374
O6	O	1.960681	0.858440	0.760707
O7	O	1.483961	0.001817	0.151696
O8	O	1.817295	0.335151	0.485029
O9	O	2.150628	0.668484	0.818362
O10	O	1.467212	0.364974	0.094039
O11	O	1.800546	0.698307	0.427372
O12	O	2.133879	1.031641	0.760705
O13	O	1.483949	0.001815	0.298151
O14	O	1.817282	0.335148	0.631485
O15	O	2.150615	0.668481	0.964818
O16	O	1.294001	0.191771	0.240497
O17	O	1.627334	0.525104	0.573830
O18	O	1.960668	0.858437	0.907163
O19	O	1.657147	0.175015	0.298149
O20	O	1.990480	0.508348	0.631482
O21	O	2.323814	0.841682	0.964816
Zn22	Zn	1.475572	0.183392	0.292576
Zn23	Zn	1.808905	0.516726	0.625909
Zn24	Zn	2.142239	0.850059	0.959243
Zn25	Zn	1.475589	0.183396	0.099614
Zn26	Zn	1.808922	0.516730	0.432947
Zn27	Zn	2.142256	0.850063	0.766281
O28	O	1.467200	0.364971	0.240494
O29	O	1.800533	0.698305	0.573828
O30	O	2.133866	1.031638	0.907161
C31	C	1.247509	0.190553	0.160397
C32	C	1.580842	0.523887	0.493730
C33	C	1.914175	0.857220	0.827064
C34	C	1.108957	0.186906	0.139924
C35	C	1.442290	0.520240	0.473258
C36	C	1.775623	0.853573	0.806591
C37	C	1.047179	0.185279	0.206665
C38	C	1.380513	0.518612	0.539999
C39	C	1.713846	0.851946	0.873332
C40	C	0.903979	0.181510	0.185507
C41	C	1.237312	0.514843	0.518841
C42	C	1.570645	0.848176	0.852174
C43	C	1.482735	-0.044684	0.231794
C44	C	1.816069	0.288649	0.565127
C45	C	2.149402	0.621983	0.898460
C46	C	1.479086	-0.183240	0.252263
C47	C	1.812420	0.150093	0.585596
C48	C	2.145753	0.483427	0.918929
C49	C	1.477466	-0.245005	0.185519
C50	C	1.810800	0.088328	0.518852
C51	C	2.144133	0.421662	0.852186
C52	C	1.473695	-0.388210	0.206673
C53	C	1.807028	-0.054876	0.540006
C54	C	2.140361	0.278457	0.873339
C55	C	1.703652	0.176235	0.231791
C56	C	2.036986	0.509569	0.565124
C57	C	2.370319	0.842902	0.898458
C58	C	1.842204	0.179882	0.252258
C59	C	2.175538	0.513216	0.585591
C60	C	2.508871	0.846549	0.918925
C61	C	1.468426	0.411473	0.160394
C62	C	1.801759	0.744806	0.493728
C63	C	2.135092	1.078139	0.827061
C64	C	1.472075	0.550029	0.139920
C65	C	1.805408	0.883362	0.473253
C66	C	2.138741	1.216695	0.806586
N67	N	1.475570	0.183389	0.424269
N68	N	1.808903	0.516723	0.757602
N69	N	2.142236	0.850056	1.090935
N70	N	1.475601	0.183390	-0.032076
N71	N	1.808935	0.516723	0.301258
N72	N	2.142268	0.850056	0.634591
C73	C	1.559708	0.099306	0.675521
C74	C	1.893041	0.432639	1.008854
C75	C	2.226374	0.765972	1.342188
C76	C	1.559711	0.099303	0.767712
C77	C	1.893045	0.432636	1.101045
C78	C	2.226378	0.765969	1.434378
C79	C	1.391454	0.267477	0.716663
C80	C	1.724788	0.600811	1.049997
C81	C	2.058121	0.934144	1.383330
C82	C	1.391445	0.267473	0.624475
C83	C	1.724779	0.600807	0.957808
C84	C	2.058112	0.934140	1.291141
C85	C	1.475579	0.183389	0.603907
C86	C	1.808912	0.516722	0.937240
C87	C	2.142246	0.850056	1.270573
C88	C	1.475592	0.183390	0.788286
C89	C	1.808925	0.516723	1.121619
C90	C	2.142259	0.850057	1.454953
C91	C	1.475595	0.183388	0.888243
C92	C	1.808929	0.516721	1.221577
C93	C	2.142262	0.850054	1.554910
C94	C	1.475574	0.183389	0.503943
C95	C	1.808907	0.516723	0.837277
C96	C	2.142241	0.850056	1.170610
H97	H	1.100306	0.186669	0.279470
H98	H	1.433639	0.520002	0.612803
H99	H	1.766972	0.853336	0.946136
Cl100	Cl	1.026947	0.184740	0.027520
Cl101	Cl	1.360280	0.518073	0.360853
Cl102	Cl	1.693614	0.851406	0.694186
H103	H	1.322932	0.335945	0.566160
H104	H	1.656265	0.669278	0.899493
H105	H	1.989598	1.002611	1.232826
H106	H	1.322956	0.335939	0.733420
H107	H	1.656289	0.669272	1.066753
H108	H	1.989623	1.002605	1.400086
H109	H	1.628215	0.030833	0.826020
H110	H	1.961548	0.364166	1.159353
H111	H	2.294882	0.697500	1.492687
H112	H	1.478866	-0.191865	0.112716
H113	H	1.812199	0.141468	0.446049
H114	H	2.145532	0.474802	0.779382
Cl115	Cl	1.471516	-0.470236	0.319081
Cl116	Cl	1.804849	-0.136903	0.652415
Cl117	Cl	2.138183	0.196431	0.985748
Cl118	Cl	1.476907	-0.265271	0.364666
Cl119	Cl	1.810241	0.068062	0.698000
Cl120	Cl	2.143574	0.401396	1.031333
Cl121	Cl	0.821974	0.179343	0.073098
Cl122	Cl	1.155307	0.512676	0.406431
Cl123	Cl	1.488640	0.846010	0.739764
H124	H	1.473465	-0.396837	0.067109
H125	H	1.806798	-0.063503	0.400443
H126	H	2.140132	0.269830	0.733776
H127	H	0.895324	0.181275	0.325067
H128	H	1.228657	0.514609	0.658400
H129	H	1.561990	0.847942	0.991734
Cl130	Cl	1.665471	-0.006405	0.649668
Cl131	Cl	1.998804	0.326928	0.983001
Cl132	Cl	2.332137	0.660261	1.316335
