data_functionalizedCrystal
_audit_creation_method	'MofGen! by Chris Wilmer'
_symmetry_space_group_name_H-M	'P1'
_symmetry_Int_Tables_number	1
_symmetry_cell_setting	triclinic
loop_
_symmetry_equiv_pos_as_xyz
  x,y,z
_cell_length_a	23.196402
_cell_length_b	23.196402
_cell_length_c	23.196402
_cell_angle_alpha	119.997551
_cell_angle_beta	89.999331
_cell_angle_gamma	59.998254
loop_
_atom_site_label
_atom_site_type_symbol
_atom_site_fract_x
_atom_site_fract_y
_atom_site_fract_z
Zr1	Zr	0.555346	0.631029	0.075660
O2	O	0.463289	0.751298	0.167706
O3	O	0.583568	0.510760	0.047445
O4	O	0.583560	0.631030	0.167712
O5	O	0.463301	0.631027	-0.047433
O6	O	0.678430	0.631031	0.167716
O7	O	0.463297	0.631027	0.047438
O8	O	0.678444	0.415890	-0.047421
O9	O	0.463287	0.846168	0.167704
O10	O	0.666402	0.560230	0.035412
O11	O	0.595605	0.560228	-0.035392
O12	O	0.595596	0.701831	0.106208
O13	O	0.524799	0.701829	0.035404
Zr14	Zr	0.706659	0.631030	-0.075643
Zr15	Zr	0.706652	0.631031	0.075666
Zr16	Zr	0.555352	0.631028	-0.075648
Zr17	Zr	0.555343	0.782337	0.075657
Zr18	Zr	0.706662	0.479723	-0.075640
O19	O	0.678437	0.751300	-0.047428
O20	O	0.678428	0.751301	0.167713
O21	O	0.463298	0.751296	-0.047435
O22	O	0.798715	0.510762	-0.167688
O23	O	0.798706	0.510763	0.047453
O24	O	0.583577	0.510758	-0.167696
O25	O	0.798704	0.631033	0.047450
O26	O	0.678444	0.631029	-0.167695
O27	O	0.583574	0.631028	-0.167698
O28	O	0.798708	0.631032	-0.047421
O29	O	0.583556	0.846170	0.167708
O30	O	0.678449	0.415889	-0.167690
O31	O	0.798717	0.415891	-0.167686
O32	O	0.798712	0.415892	-0.047416
O33	O	0.463292	0.846167	0.047434
O34	O	0.583561	0.846169	0.047438
O35	O	0.666408	0.560229	-0.106190
O36	O	0.737206	0.560230	-0.035387
O37	O	0.666399	0.701831	0.035409
O38	O	0.595602	0.701830	-0.035394
C39	C	0.631006	0.441767	0.000013
C40	C	0.631007	0.377533	0.000014
C41	C	0.667959	-0.085310	0.036955
C42	C	0.667957	-0.024951	0.036961
C43	C	0.631003	0.005230	0.000003
C44	C	0.594033	-0.024937	-0.036951
C45	C	0.594030	-0.085289	-0.036950
C46	C	0.636286	0.067257	-0.061902
C47	C	0.636294	0.127605	-0.061905
C48	C	0.631008	0.191379	0.000002
C49	C	0.625728	0.194790	0.061911
C50	C	0.625725	0.134438	0.061911
C51	C	0.631002	0.070672	-0.000002
C52	C	0.667970	0.286991	0.036964
C53	C	0.667963	0.347355	0.036972
C54	C	0.594043	0.347361	-0.036947
C55	C	0.594045	0.287005	-0.036948
C56	C	0.631013	0.256820	0.000006
C57	C	0.441741	0.631027	0.000002
C58	C	0.377507	0.631026	-0.000000
C59	C	0.384292	0.557114	-0.036948
C60	C	0.323938	0.557113	-0.036951
C61	C	0.256799	0.631028	0.000008
C62	C	0.250016	0.704950	0.036957
C63	C	0.310370	0.704949	0.036953
C64	C	0.132866	0.687657	0.061917
C65	C	0.072514	0.687655	0.061923
C66	C	0.070645	0.631034	0.000019
C67	C	0.129141	0.574401	-0.061891
C68	C	0.189495	0.574400	-0.061895
C69	C	0.191351	0.631037	0.000016
C70	C	0.011989	0.557116	-0.036935
C71	C	-0.048368	0.557118	-0.036940
C72	C	-0.122289	0.704957	0.036975
C73	C	-0.061932	0.704953	0.036973
C74	C	0.005205	0.631030	0.000019
C75	C	0.820264	0.631033	0.000015
C76	C	0.884497	0.631034	0.000018
C77	C	0.630994	0.631031	0.189272
C78	C	0.630992	0.631031	0.253507
C79	C	0.630998	0.820293	0.000005
C80	C	0.630997	0.884527	0.000004
C81	C	0.578727	0.631042	0.716346
C82	C	0.578728	0.631036	0.655989
C83	C	0.630993	0.631038	0.625809
C84	C	0.683271	0.631024	0.655981
C85	C	0.683273	0.631022	0.716333
C86	C	0.647279	0.678545	0.553942
C87	C	0.647273	0.678552	0.493593
C88	C	0.630991	0.631041	0.439659
C89	C	0.614701	0.583533	0.446087
C90	C	0.614703	0.583531	0.506439
C91	C	0.630997	0.631040	0.560366
C92	C	0.578720	0.631042	0.344045
C93	C	0.578726	0.631031	0.283683
C94	C	0.683266	0.631027	0.283681
C95	C	0.683263	0.631030	0.344037
C96	C	0.630987	0.631041	0.374217
C97	C	0.631006	0.631030	0.810746
C98	C	0.630996	0.631033	0.746514
C99	C	0.820268	0.441770	0.000019
C100	C	0.884502	0.377537	0.000023
C101	C	0.631014	0.441766	-0.189251
C102	C	0.631018	0.377531	-0.253484
C103	C	0.820275	0.441769	-0.189244
C104	C	0.884513	0.377535	-0.253475
C105	C	0.441729	0.820291	0.189262
C106	C	0.377491	0.884524	0.253493
C107	C	0.441737	0.820290	-0.000002
C108	C	0.377502	0.884523	-0.000005
C109	C	0.630990	0.820294	0.189268
C110	C	0.630986	0.884528	0.253501
C111	C	0.877709	0.347372	0.036987
C112	C	0.938059	0.287026	0.037005
C113	C	1.005201	0.256843	0.000053
C114	C	1.011993	0.287014	-0.036912
C115	C	0.951644	0.347362	-0.036925
C116	C	0.667978	0.347366	-0.320611
C117	C	0.667980	0.287020	-0.380970
C118	C	0.631024	0.256835	-0.374201
C119	C	0.594059	0.287006	-0.307067
C120	C	0.594054	0.347355	-0.246709
C121	C	0.951642	0.347371	-0.246680
C122	C	1.012005	0.287025	-0.307025
C123	C	1.005239	0.256840	-0.374166
C124	C	0.938104	0.287010	-0.380960
C125	C	0.877741	0.347359	-0.320615
C126	C	0.310363	0.914696	0.246697
C127	C	0.249999	0.975060	0.307043
C128	C	0.256765	1.005248	0.374183
C129	C	0.323901	0.975074	0.380977
C130	C	0.384263	0.914715	0.320632
C131	C	0.384295	0.914694	-0.036963
C132	C	0.323945	0.975056	-0.036964
C133	C	0.256803	1.005242	-0.000011
C134	C	0.250011	0.975068	0.036952
C135	C	0.310360	0.914711	0.036956
C136	C	0.667949	0.914694	0.246710
C137	C	0.667959	0.975041	0.307058
C138	C	0.631002	1.005225	0.374196
C139	C	0.594038	0.975054	0.380987
C140	C	0.594032	0.914704	0.320640
H141	H	0.640587	0.015334	-0.112317
H142	H	0.932605	0.262425	-0.435634
O143	O	0.554182	0.254457	-0.076801
H144	H	0.513335	0.266054	-0.039475
O145	O	0.554153	0.882179	0.327968
H146	H	0.528451	0.913319	0.384794
O147	O	0.805338	0.379875	-0.327947
H148	H	0.810781	0.348732	-0.384774
H149	H	0.127629	0.528282	-0.112295
O150	O	0.084405	0.477391	-0.076799
H151	H	0.078982	0.425992	-0.102503
O152	O	0.554175	1.007600	0.453396
H153	H	0.513323	1.074176	0.482657
O154	O	0.554223	0.254424	-0.299770
H155	H	0.560455	0.207378	-0.353022
H156	H	1.066665	0.262467	-0.301481
O157	O	0.707825	0.007592	0.076821
H158	H	0.701611	0.054634	0.070616
O159	O	0.631045	0.191729	-0.439304
H160	H	0.662966	0.175820	-0.487117
O161	O	0.303027	0.882171	0.076819
H162	H	0.328755	0.815594	0.039510
O163	O	0.009427	0.748738	0.128695
H164	H	-0.001659	0.715930	0.143846
O165	O	0.191653	1.070349	0.439265
H166	H	0.207630	1.086281	0.487098
O167	O	0.958950	0.379923	-0.174268
H168	H	0.933209	0.446502	-0.145006
H169	H	0.438960	0.890121	-0.067060
H170	H	0.698044	0.890127	0.192047
H171	H	0.438954	0.496920	-0.067034
H172	H	0.725823	0.631024	0.259106
H173	H	1.054396	0.207700	-0.423297
H174	H	0.195348	0.765132	0.067049
O175	O	0.739638	0.631029	0.376580
H176	H	0.730862	0.631021	0.423614
O177	O	0.739645	0.631015	0.623420
H178	H	0.737089	0.686272	0.662629
H179	H	0.631012	1.054367	0.423329
H180	H	0.823044	0.371947	0.067086
O181	O	0.177589	1.007633	0.076807
H182	H	0.171444	0.956976	0.055452
O183	O	0.252585	0.513323	-0.128664
H184	H	0.263675	0.546140	-0.143799
O185	O	0.707829	1.007576	0.299725
H186	H	0.686461	1.035080	0.270425
O187	O	0.707817	-0.117855	0.076823
H188	H	0.733512	-0.086728	0.102526
O189	O	0.303056	0.882146	0.174285
H190	H	0.246232	0.913283	0.179709
O191	O	0.456671	0.882181	0.327955
H192	H	0.485950	0.815602	0.302229
O193	O	0.707824	0.254442	0.076833
H194	H	0.764628	0.226951	0.055486
O195	O	0.134870	0.748741	0.128690
H196	H	0.186660	0.739236	0.118285
H197	H	0.698083	0.262462	-0.435628
O198	O	0.620019	0.138119	0.128680
H199	H	0.616338	0.192605	0.171733
O200	O	0.331283	1.007578	-0.076846
H201	H	0.305571	1.074152	-0.039546
O202	O	0.620021	0.263572	0.128692
H203	H	0.620899	0.304974	0.118297
O204	O	0.554260	0.379758	-0.174332
H205	H	0.497452	0.407224	-0.168156
H206	H	0.304840	0.765139	0.067039
O207	O	0.177593	1.007584	0.299708
H208	H	0.183036	0.976434	0.242882
H209	H	-0.042837	0.496927	-0.067033
H210	H	0.932515	0.262468	0.067106
O211	O	0.522325	0.631095	0.748920
H212	H	0.485973	0.631112	0.717804
O213	O	0.191714	1.070318	-0.000041
H214	H	0.207724	1.086209	-0.031964
O215	O	0.707828	0.379896	0.076832
H216	H	0.733536	0.348761	0.102522
H217	H	0.329463	0.496923	-0.067039
H218	H	1.054336	0.207702	0.000069
O219	O	0.331195	1.007631	0.453395
H220	H	0.277940	1.054663	0.494208
H221	H	0.563950	0.371938	-0.067035
O222	O	-0.194695	0.784684	0.076842
H223	H	-0.235525	0.772269	0.070642
O224	O	-0.069236	0.784668	0.076839
H225	H	-0.098547	0.820128	0.055494
O226	O	0.641987	0.123927	-0.128672
H227	H	0.645647	0.069453	-0.171716
H228	H	0.563943	-0.000358	-0.067041
H229	H	0.563929	-0.109848	-0.067041
H230	H	0.536163	0.631043	0.631422
O231	O	0.597355	0.532095	0.513277
H232	H	0.586114	0.498980	0.465600
O233	O	0.522351	0.631036	0.251137
H234	H	0.469654	0.686312	0.290350
H235	H	0.536155	0.631048	0.368616
O236	O	0.597142	0.532278	0.387921
H237	H	0.599887	0.540250	0.344869
H238	H	0.660534	0.717239	0.488368
O239	O	0.664837	0.729796	0.612117
H240	H	0.676151	0.762842	0.597515
H241	H	1.066668	0.262429	-0.066996
O242	O	0.739642	0.631030	0.748886
H243	H	0.775983	0.631037	0.717766
O244	O	0.958974	0.379883	-0.076808
H245	H	1.015803	0.348744	-0.102505
H246	H	0.698072	0.371936	-0.326136
