data_functionalizedCrystal
_audit_creation_method	'MofGen! by Chris Wilmer'
_symmetry_space_group_name_H-M	'P1'
_symmetry_Int_Tables_number	1
_symmetry_cell_setting	triclinic
loop_
_symmetry_equiv_pos_as_xyz
  x,y,z
_cell_length_a	14.971506
_cell_length_b	23.532357
_cell_length_c	13.448316
_cell_angle_alpha	89.987857
_cell_angle_beta	89.992937
_cell_angle_gamma	83.225340
loop_
_atom_site_label
_atom_site_type_symbol
_atom_site_fract_x
_atom_site_fract_y
_atom_site_fract_z
O1	O	1.186131	0.074273	-0.082711
O2	O	1.686131	0.574273	0.417289
O3	O	0.925637	0.083149	-0.082713
O4	O	1.425637	0.583149	0.417287
O5	O	1.063762	-0.004189	-0.082692
O6	O	1.563762	0.495811	0.417308
O7	O	1.048005	0.161610	-0.082733
O8	O	1.548005	0.661610	0.417267
O9	O	1.063745	-0.004194	0.082692
O10	O	1.563745	0.495806	0.582692
O11	O	0.925619	0.083143	0.082671
O12	O	1.425619	0.583143	0.582671
O13	O	1.186113	0.074268	0.082672
O14	O	1.686113	0.574268	0.582672
Cu15	Cu	1.055865	0.078705	0.097772
Cu16	Cu	1.555865	0.578705	0.597772
Cu17	Cu	1.055885	0.078711	-0.097813
Cu18	Cu	1.555885	0.578711	0.402187
O19	O	1.047988	0.161605	0.082651
O20	O	1.547988	0.661605	0.582651
C21	C	0.892308	0.082747	-0.000021
C22	C	1.392308	0.582747	0.499979
C23	C	0.793025	0.081551	-0.000021
C24	C	1.293025	0.581551	0.499979
C25	C	0.354235	0.128297	-0.000043
C26	C	0.854235	0.628297	0.499957
C27	C	0.447523	0.129416	-0.000047
C28	C	0.947523	0.629416	0.499953
C29	C	0.505300	0.078102	-0.000030
C30	C	1.005300	0.578102	0.499970
C31	C	0.469784	0.025666	-0.000019
C32	C	0.969784	0.525666	0.499981
C33	C	0.376498	0.024547	-0.000021
C34	C	0.876498	0.524547	0.499979
C35	C	0.664222	0.028001	-0.000011
C36	C	1.164222	0.528001	0.499989
C37	C	0.757515	0.029119	-0.000007
C38	C	1.257515	0.529119	0.499993
C39	C	0.735248	0.132870	-0.000037
C40	C	1.235248	0.632870	0.499963
C41	C	0.641961	0.131751	-0.000040
C42	C	1.141961	0.631751	0.499960
C43	C	0.606452	0.079315	-0.000026
C44	C	1.106452	0.579315	0.499974
C45	C	1.063359	-0.025410	0.000003
C46	C	1.563359	0.474590	0.500003
C47	C	1.062174	-0.088633	0.000013
C48	C	1.562174	0.411367	0.500013
C49	C	1.054745	-0.480674	-0.090192
C50	C	1.554745	0.019326	0.409808
C51	C	1.053618	-0.540078	-0.090198
C52	C	1.553618	-0.040078	0.409802
O53	O	1.053013	-0.570795	-0.166867
O54	O	1.553013	-0.070795	0.333133
N55	N	1.053050	-0.569795	-0.000048
N56	N	1.553050	-0.069795	0.499952
C57	C	1.053600	-0.540103	0.090113
C58	C	1.553600	-0.040103	0.590113
O59	O	1.053012	-0.570834	0.166792
O60	O	1.553012	-0.070834	0.666792
C61	C	1.054720	-0.480699	0.090118
C62	C	1.554720	0.019301	0.590118
C63	C	1.055297	-0.450987	-0.000038
C64	C	1.555297	0.049013	0.499962
C65	C	1.055321	-0.450961	-0.180340
C66	C	1.555321	0.049039	0.319660
C67	C	1.056449	-0.391561	-0.180334
C68	C	1.556449	0.108439	0.319666
C69	C	1.057001	-0.361874	-0.090180
C70	C	1.557001	0.138126	0.409820
C71	C	1.056425	-0.391587	-0.000032
C72	C	1.556425	0.108413	0.499968
C73	C	1.055263	-0.451008	0.180278
C74	C	1.555263	0.048992	0.680278
C75	C	1.056382	-0.391601	0.180274
C76	C	1.556382	0.108399	0.680274
C77	C	1.056959	-0.361888	0.090119
C78	C	1.556959	0.138112	0.590119
C79	C	1.058105	-0.302499	0.090128
C80	C	1.558105	0.197501	0.590128
N81	N	1.058673	-0.272783	-0.000021
N82	N	1.558673	0.227217	0.499979
C83	C	1.058121	-0.302470	-0.090175
C84	C	1.558121	0.197530	0.409825
C85	C	1.051246	-0.664855	0.090096
C86	C	1.551246	-0.164855	0.590096
C87	C	1.050133	-0.724258	0.090093
C88	C	1.550133	-0.224258	0.590093
C89	C	1.050149	-0.724229	-0.090218
C90	C	1.550149	-0.224229	0.409782
C91	C	1.051269	-0.664825	-0.090214
C92	C	1.551269	-0.164825	0.409786
C93	C	1.051814	-0.635138	-0.000053
C94	C	1.551814	-0.135138	0.499947
C95	C	1.060491	-0.177726	-0.090156
C96	C	1.560491	0.322274	0.409844
C97	C	1.061622	-0.118321	-0.090142
C98	C	1.561622	0.381679	0.409858
C99	C	1.061601	-0.118355	0.090169
C100	C	1.561601	0.381645	0.590169
C101	C	1.060474	-0.177755	0.090155
C102	C	1.560474	0.322245	0.590155
C103	C	1.059916	-0.207439	-0.000015
C104	C	1.559916	0.292561	0.499985
O105	O	1.058707	-0.271745	0.166759
O106	O	1.558707	0.228255	0.666759
O107	O	1.058696	-0.271731	-0.166841
O108	O	1.558696	0.228269	0.333159
C109	C	1.219442	0.074669	-0.000022
C110	C	1.719442	0.574669	0.499978
C111	C	1.318725	0.075865	-0.000028
C112	C	1.818725	0.575865	0.499972
C113	C	1.048391	0.182826	-0.000046
C114	C	1.548391	0.682826	0.499954
C115	C	1.049576	0.246050	-0.000062
C116	C	1.549576	0.746050	0.499938
N117	N	1.055857	0.078700	0.235337
N118	N	1.555857	0.578700	0.735337
N119	N	1.055900	0.078712	-0.235377
N120	N	1.555900	0.578712	0.264623
C121	C	1.117038	0.040043	0.287387
C122	C	1.617038	0.540043	0.787387
C123	C	1.117043	0.040043	0.391490
C124	C	1.617043	0.540043	0.891490
C125	C	1.055872	0.078702	0.443541
C126	C	1.555872	0.578702	0.943541
C127	C	0.994685	0.117361	0.391484
C128	C	1.494685	0.617361	0.891484
C129	C	0.994676	0.117359	0.287383
C130	C	1.494676	0.617359	0.787383
C131	C	0.994709	0.117365	0.608464
C132	C	1.494709	0.617365	1.108464
C133	C	0.994719	0.117369	0.712573
C134	C	1.494719	0.617369	1.212573
C135	C	1.117077	0.040049	0.712571
C136	C	1.617077	0.540049	1.212571
C137	C	1.117068	0.040046	0.608470
C138	C	1.617068	0.540046	1.108470
C139	C	1.055882	0.078706	0.556420
C140	C	1.555882	0.578706	1.056420
H141	H	0.594921	0.173536	-0.000047
H142	H	1.094921	0.673536	0.499953
Br143	Br	0.783437	0.204034	-0.000039
Br144	Br	1.283437	0.704034	0.499961
Br145	Br	1.059732	-0.218002	-0.212530
Br146	Br	1.559732	0.281998	0.287470
Br147	Br	1.200072	-0.012423	0.462132
Br148	Br	1.700072	0.487577	0.962132
Br149	Br	0.911697	0.169838	0.783207
Br150	Br	1.411697	0.669838	1.283207
Br151	Br	0.275833	0.197942	-0.000054
Br152	Br	0.775833	0.697942	0.499946
H153	H	0.804555	-0.012666	-0.000001
H154	H	1.304555	0.487334	0.499999
Br155	Br	1.200094	-0.012415	0.537825
Br156	Br	1.700094	0.487585	1.037825
Br157	Br	0.616031	-0.043164	0.000012
Br158	Br	1.116031	0.456836	0.500012
Br159	Br	0.495712	0.200578	-0.000077
Br160	Br	0.995712	0.700578	0.499923
H161	H	1.056812	-0.367432	0.253696
H162	H	1.556812	0.132568	0.753696
Br163	Br	1.059711	-0.218082	0.212509
Br164	Br	1.559711	0.281918	0.712509
Br165	Br	0.328305	-0.046614	-0.000005
Br166	Br	0.828305	0.453386	0.499995
H167	H	0.944855	0.148836	0.245005
H168	H	1.444855	0.648836	0.745005
H169	H	0.516833	-0.016115	-0.000011
H170	H	1.016833	0.483885	0.499989
Br171	Br	1.200118	-0.012414	0.783213
Br172	Br	1.700118	0.487586	1.283213
H173	H	1.062094	-0.094131	-0.163560
H174	H	1.562094	0.405869	0.336440
Br175	Br	1.057225	-0.351245	-0.302694
Br176	Br	1.557225	0.148755	0.197306
Br177	Br	1.054571	-0.491240	-0.302709
Br178	Br	1.554571	0.008760	0.197291
Br179	Br	1.052052	-0.624507	-0.212571
Br180	Br	1.552052	-0.124507	0.287429
Br181	Br	1.049395	-0.764530	-0.212572
Br182	Br	1.549395	-0.264530	0.287428
H183	H	1.166854	0.008564	0.245013
H184	H	1.666854	0.508564	0.745013
Br185	Br	0.911665	0.169831	0.537828
Br186	Br	1.411665	0.669831	1.037828
Br187	Br	1.049371	-0.764577	0.212451
Br188	Br	1.549371	-0.264577	0.712451
Br189	Br	0.911657	0.169826	0.462121
Br190	Br	1.411657	0.669826	0.962121
Br191	Br	1.051991	-0.624572	0.212469
Br192	Br	1.551991	-0.124572	0.712469
H193	H	1.054794	-0.475190	0.253692
H194	H	1.554794	0.024810	0.753692
H195	H	1.062054	-0.094173	0.163570
H196	H	1.562054	0.405827	0.663570
