data_functionalizedCrystal
_audit_creation_method	'MofGen! by Chris Wilmer'
_symmetry_space_group_name_H-M	'P1'
_symmetry_Int_Tables_number	1
_symmetry_cell_setting	triclinic
loop_
_symmetry_equiv_pos_as_xyz
  x,y,z
_cell_length_a	14.044220
_cell_length_b	23.532407
_cell_length_c	13.101039
_cell_angle_alpha	93.336507
_cell_angle_beta	86.340132
_cell_angle_gamma	88.018778
loop_
_atom_site_label
_atom_site_type_symbol
_atom_site_fract_x
_atom_site_fract_y
_atom_site_fract_z
O1	O	1.261651	0.134360	-0.085125
O2	O	1.511651	0.384360	0.164875
O3	O	1.761651	0.634360	0.414875
O4	O	2.011651	0.884360	0.664875
O5	O	0.985730	0.129407	-0.085150
O6	O	1.235730	0.379407	0.164850
O7	O	1.485730	0.629407	0.414850
O8	O	1.735730	0.879407	0.664850
O9	O	1.132009	0.049404	-0.085118
O10	O	1.382009	0.299404	0.164882
O11	O	1.632009	0.549404	0.414882
O12	O	1.882009	0.799404	0.664882
O13	O	1.115371	0.214364	-0.085157
O14	O	1.365371	0.464364	0.164843
O15	O	1.615371	0.714364	0.414843
O16	O	1.865371	0.964364	0.664843
O17	O	1.121514	0.055154	0.085309
O18	O	1.371514	0.305154	0.335309
O19	O	1.621514	0.555154	0.585309
O20	O	1.871514	0.805154	0.835309
O21	O	0.975234	0.135158	0.085277
O22	O	1.225234	0.385158	0.335277
O23	O	1.475234	0.635158	0.585277
O24	O	1.725234	0.885158	0.835277
O25	O	1.251155	0.140111	0.085302
O26	O	1.501155	0.390111	0.335302
O27	O	1.751155	0.640111	0.585302
O28	O	2.001155	0.890111	0.835302
Zn29	Zn	1.111528	0.138547	0.112349
Zn30	Zn	1.361528	0.388547	0.362349
Zn31	Zn	1.611528	0.638547	0.612349
Zn32	Zn	1.861528	0.888547	0.862349
Zn33	Zn	1.125356	0.130971	-0.112197
Zn34	Zn	1.375356	0.380971	0.137803
Zn35	Zn	1.625356	0.630971	0.387803
Zn36	Zn	1.875356	0.880971	0.637803
O37	O	1.104875	0.220114	0.085270
O38	O	1.354875	0.470114	0.335270
O39	O	1.604875	0.720114	0.585270
O40	O	1.854875	0.970114	0.835270
C41	C	0.945188	0.130115	0.000061
C42	C	1.195188	0.380115	0.250061
C43	C	1.445188	0.630115	0.500061
C44	C	1.695188	0.880115	0.750061
C45	C	0.840024	0.123648	0.000052
C46	C	1.090024	0.373648	0.250052
C47	C	1.340024	0.623648	0.500052
C48	C	1.590024	0.873648	0.750052
C49	C	1.126338	0.031040	0.000098
C50	C	1.376338	0.281040	0.250098
C51	C	1.626338	0.531040	0.500098
C52	C	1.876338	0.781040	0.750098
C53	C	1.125063	-0.032246	0.000106
C54	C	1.375063	0.217754	0.250106
C55	C	1.625063	0.467754	0.500106
C56	C	1.875063	0.717754	0.750106
C57	C	0.647472	0.111828	0.000075
C58	C	0.897472	0.361828	0.250075
C59	C	1.147472	0.611828	0.500075
C60	C	1.397472	0.861828	0.750075
C61	C	0.589407	0.157687	0.000068
C62	C	0.839407	0.407687	0.250068
C63	C	1.089407	0.657687	0.500068
C64	C	1.339407	0.907687	0.750068
C65	C	0.482265	0.151110	0.000081
C66	C	0.732265	0.401110	0.250081
C67	C	0.982265	0.651110	0.500081
C68	C	1.232265	0.901110	0.750081
C69	C	0.754624	0.118404	0.000062
C70	C	1.004624	0.368404	0.250062
C71	C	1.254624	0.618404	0.500062
C72	C	1.504624	0.868404	0.750062
C73	C	1.203641	-0.427092	0.000057
C74	C	1.453641	-0.177092	0.250057
C75	C	1.703641	0.072908	0.500057
C76	C	1.953641	0.322908	0.750057
C77	C	1.202458	-0.486556	0.000049
C78	C	1.452458	-0.236556	0.250049
C79	C	1.702458	0.013444	0.500049
C80	C	1.952458	0.263444	0.750049
O81	O	1.275300	-0.519354	0.000018
O82	O	1.525300	-0.269354	0.250018
O83	O	1.775300	-0.019354	0.500018
O84	O	2.025300	0.230646	0.750018
N85	N	1.115494	-0.513896	0.000042
N86	N	1.365494	-0.263896	0.250042
N87	N	1.615494	-0.013896	0.500042
N88	N	1.865494	0.236104	0.750042
C89	C	1.029708	-0.481769	0.000032
C90	C	1.279708	-0.231769	0.250032
C91	C	1.529708	0.018231	0.500032
C92	C	1.779708	0.268231	0.750032
O93	O	0.955630	-0.510484	0.000024
O94	O	1.205630	-0.260484	0.250024
O95	O	1.455630	-0.010484	0.500024
O96	O	1.705630	0.239516	0.750024
C97	C	1.030893	-0.422306	0.000033
C98	C	1.280893	-0.172306	0.250033
C99	C	1.530893	0.077694	0.500033
C100	C	1.780893	0.327694	0.750033
C101	C	1.117862	-0.394968	0.000050
C102	C	1.367862	-0.144968	0.250050
C103	C	1.617862	0.105032	0.500050
C104	C	1.867862	0.355032	0.750050
C105	C	1.290603	-0.399754	0.000073
C106	C	1.540603	-0.149754	0.250073
C107	C	1.790603	0.100246	0.500073
C108	C	2.040603	0.350246	0.750073
C109	C	1.291786	-0.340294	0.000083
C110	C	1.541786	-0.090294	0.250083
C111	C	1.791786	0.159706	0.500083
C112	C	2.041786	0.409706	0.750083
C113	C	1.206007	-0.308170	0.000077
C114	C	1.456007	-0.058170	0.250077
C115	C	1.706007	0.191830	0.500077
C116	C	1.956007	0.441830	0.750077
C117	C	1.119045	-0.335508	0.000060
C118	C	1.369045	-0.085508	0.250060
C119	C	1.619045	0.164492	0.500060
C120	C	1.869045	0.414492	0.750060
C121	C	0.945109	-0.390179	0.000016
C122	C	1.195109	-0.140179	0.250016
C123	C	1.445109	0.109821	0.500016
C124	C	1.695109	0.359821	0.750016
C125	C	0.946301	-0.330712	0.000015
C126	C	1.196301	-0.080712	0.250015
C127	C	1.446301	0.169288	0.500015
C128	C	1.696301	0.419288	0.750015
C129	C	1.033270	-0.303375	0.000033
C130	C	1.283270	-0.053375	0.250033
C131	C	1.533270	0.196625	0.500033
C132	C	1.783270	0.446625	0.750033
C133	C	1.034448	-0.243924	0.000063
C134	C	1.284448	0.006076	0.250063
C135	C	1.534448	0.256076	0.500063
C136	C	1.784448	0.506076	0.750063
N137	N	1.121412	-0.216584	0.000070
N138	N	1.371412	0.033416	0.250070
N139	N	1.621412	0.283416	0.500070
N140	N	1.871412	0.533416	0.750070
C141	C	1.207191	-0.248707	0.000077
C142	C	1.457191	0.001293	0.250077
C143	C	1.707191	0.251293	0.500077
C144	C	1.957191	0.501293	0.750077
C145	C	1.027228	-0.606646	0.000029
C146	C	1.277228	-0.356646	0.250029
C147	C	1.527228	-0.106646	0.500029
C148	C	1.777228	0.143354	0.750029
C149	C	1.026042	-0.666108	0.000036
C150	C	1.276042	-0.416108	0.250036
C151	C	1.526042	-0.166108	0.500036
C152	C	1.776042	0.083892	0.750036
C153	C	1.198792	-0.670891	0.000051
C154	C	1.448792	-0.420891	0.250051
C155	C	1.698792	-0.170891	0.500051
C156	C	1.948792	0.079109	0.750051
C157	C	1.199977	-0.611428	0.000052
C158	C	1.449977	-0.361428	0.250052
C159	C	1.699977	-0.111428	0.500052
C160	C	1.949977	0.138572	0.750052
C161	C	1.114192	-0.579306	0.000036
C162	C	1.364192	-0.329306	0.250036
C163	C	1.614192	-0.079306	0.500036
C164	C	1.864192	0.170694	0.750036
C165	C	1.209668	-0.123835	0.000099
C166	C	1.459668	0.126165	0.250099
C167	C	1.709668	0.376165	0.500099
C168	C	1.959668	0.626165	0.750099
C169	C	1.210843	-0.064369	0.000113
C170	C	1.460843	0.185631	0.250113
C171	C	1.710843	0.435631	0.500113
C172	C	1.960843	0.685631	0.750113
C173	C	1.038093	-0.059591	0.000092
C174	C	1.288093	0.190409	0.250092
C175	C	1.538093	0.440409	0.500092
C176	C	1.788093	0.690409	0.750092
C177	C	1.036917	-0.119052	0.000084
C178	C	1.286917	0.130948	0.250084
C179	C	1.536917	0.380948	0.500084
C180	C	1.786917	0.630948	0.750084
C181	C	1.122713	-0.151173	0.000083
C182	C	1.372713	0.098827	0.250083
C183	C	1.622713	0.348827	0.500083
C184	C	1.872713	0.598827	0.750083
O185	O	0.961644	-0.211090	0.000090
O186	O	1.211644	0.038910	0.250090
O187	O	1.461644	0.288910	0.500090
O188	O	1.711644	0.538910	0.750090
O189	O	1.281258	-0.219985	0.000071
O190	O	1.531258	0.030015	0.250071
O191	O	1.781258	0.280015	0.500071
O192	O	2.031258	0.530015	0.750071
C193	C	1.291697	0.139403	0.000089
C194	C	1.541697	0.389403	0.250089
C195	C	1.791697	0.639403	0.500089
C196	C	2.041697	0.889403	0.750089
C197	C	1.396862	0.145869	0.000091
C198	C	1.646862	0.395869	0.250091
C199	C	1.896862	0.645869	0.500091
C200	C	2.146862	0.895869	0.750091
C201	C	1.110547	0.238478	0.000052
C202	C	1.360547	0.488478	0.250052
C203	C	1.610547	0.738478	0.500052
C204	C	1.860547	0.988478	0.750052
C205	C	1.111822	0.301763	0.000037
C206	C	1.361822	0.551763	0.250037
C207	C	1.611822	0.801763	0.500037
C208	C	1.861822	1.051763	0.750037
N209	N	1.102098	0.143718	0.265595
N210	N	1.352098	0.393718	0.515595
N211	N	1.602098	0.643718	0.765595
N212	N	1.852098	0.893718	1.015595
N213	N	1.134794	0.125796	-0.265443
N214	N	1.384794	0.375796	-0.015443
N215	N	1.634794	0.625796	0.234557
N216	N	1.884794	0.875796	0.484557
C217	C	1.089267	0.150758	0.474635
C218	C	1.339267	0.400758	0.724635
C219	C	1.589267	0.650758	0.974635
C220	C	1.839267	0.900758	1.224635
C221	C	1.147622	0.118757	0.525524
C222	C	1.397622	0.368757	0.775524
C223	C	1.647622	0.618757	1.025524
C224	C	1.897622	0.868757	1.275524
C225	C	1.140483	0.122674	0.641841
C226	C	1.390483	0.372674	0.891841
C227	C	1.640483	0.622674	1.141841
C228	C	1.890483	0.872674	1.391841
C229	C	1.096405	0.146842	0.358308
C230	C	1.346405	0.396842	0.608308
C231	C	1.596405	0.646842	0.858308
C232	C	1.846405	0.896842	1.108308
H233	H	0.620163	0.201887	0.000053
H234	H	0.870163	0.451887	0.250053
H235	H	1.120163	0.701887	0.500053
H236	H	1.370163	0.951887	0.750053
H237	H	1.202943	0.088418	0.481734
H238	H	1.452943	0.338418	0.731734
H239	H	1.702943	0.588418	0.981734
H240	H	1.952943	0.838418	1.231734
Cl241	Cl	0.835769	-0.424531	-0.000013
Cl242	Cl	1.085769	-0.174531	0.249987
Cl243	Cl	1.335769	0.075469	0.499987
Cl244	Cl	1.585769	0.325469	0.749987
Cl245	Cl	0.916703	-0.700466	0.000034
Cl246	Cl	1.166703	-0.450466	0.250034
Cl247	Cl	1.416703	-0.200466	0.500034
Cl248	Cl	1.666703	0.049534	0.750034
H249	H	1.033950	0.181096	0.518420
H250	H	1.283950	0.431096	0.768420
H251	H	1.533950	0.681096	1.018420
H252	H	1.783950	0.931096	1.268420
H253	H	0.968254	-0.033425	0.000090
H254	H	1.218254	0.216575	0.250090
H255	H	1.468254	0.466575	0.500090
H256	H	1.718254	0.716575	0.750090
H257	H	1.362605	-0.318042	0.000093
H258	H	1.612605	-0.068042	0.250093
H259	H	1.862605	0.181958	0.500093
H260	H	2.112605	0.431958	0.750093
H261	H	0.616718	0.067631	0.000091
H262	H	0.866718	0.317631	0.250091
H263	H	1.116718	0.567631	0.500091
H264	H	1.366718	0.817631	0.750091
H265	H	1.279531	-0.149982	0.000094
H266	H	1.529531	0.100018	0.250094
H267	H	1.779531	0.350018	0.500094
H268	H	2.029531	0.600018	0.750094
H269	H	1.270794	-0.589174	0.000065
H270	H	1.520794	-0.339174	0.250065
H271	H	1.770794	-0.089174	0.500065
H272	H	2.020794	0.160826	0.750065
H273	H	1.281666	-0.042114	0.000130
H274	H	1.531666	0.207886	0.250130
H275	H	1.781666	0.457886	0.500130
H276	H	2.031666	0.707886	0.750130
H277	H	1.360460	-0.425903	0.000075
H278	H	1.610460	-0.175903	0.250075
H279	H	1.860460	0.074097	0.500075
H280	H	2.110460	0.324097	0.750075
Cl281	Cl	1.306631	-0.711286	0.000052
Cl282	Cl	1.556631	-0.461286	0.250052
Cl283	Cl	1.806631	-0.211286	0.500052
Cl284	Cl	2.056631	0.038714	0.750052
Cl285	Cl	0.838449	-0.290334	-0.000005
Cl286	Cl	1.088449	-0.040334	0.249995
Cl287	Cl	1.338449	0.209666	0.499995
Cl288	Cl	1.588449	0.459666	0.749995
Cl289	Cl	0.919371	-0.566269	0.000022
Cl290	Cl	1.169371	-0.316269	0.250022
Cl291	Cl	1.419371	-0.066269	0.500022
Cl292	Cl	1.669371	0.183731	0.750022
H293	H	0.966099	-0.141310	0.000098
H294	H	1.216099	0.108690	0.250098
H295	H	1.466099	0.358690	0.500098
H296	H	1.716099	0.608690	0.750098
