data_functionalizedCrystal
_audit_creation_method	'MofGen! by Chris Wilmer'
_symmetry_space_group_name_H-M	'P1'
_symmetry_Int_Tables_number	1
_symmetry_cell_setting	triclinic
loop_
_symmetry_equiv_pos_as_xyz
  x,y,z
_cell_length_a	14.446369
_cell_length_b	23.196402
_cell_length_c	23.196401
_cell_angle_alpha	59.999265
_cell_angle_beta	90.006207
_cell_angle_gamma	59.999147
loop_
_atom_site_label
_atom_site_type_symbol
_atom_site_fract_x
_atom_site_fract_y
_atom_site_fract_z
Zr1	Zr	0.891776	0.630980	-0.075613
O2	O	0.743945	0.751266	-0.167670
O3	O	0.937091	0.510709	-0.047396
O4	O	0.937060	0.630995	-0.167671
O5	O	0.744003	0.630964	0.047484
O6	O	1.089397	0.630989	-0.167667
O7	O	0.743975	0.630981	-0.047395
O8	O	1.089452	0.415820	0.047482
O9	O	0.743949	0.846134	-0.167666
O10	O	1.070109	0.560169	-0.035355
O11	O	0.956442	0.560161	0.035449
O12	O	0.956406	0.701782	-0.106158
O13	O	0.842740	0.701773	-0.035354
Zr14	Zr	1.134781	0.630946	0.075713
Zr15	Zr	1.134736	0.630972	-0.075607
Zr16	Zr	0.891821	0.630954	0.075708
Zr17	Zr	0.891783	0.782283	-0.075606
Zr18	Zr	1.134774	0.479644	0.075707
O19	O	1.089467	0.751218	0.047497
O20	O	1.089403	0.751255	-0.167662
O21	O	0.744009	0.751229	0.047489
O22	O	1.282613	0.510660	0.167771
O23	O	1.282549	0.510697	-0.047388
O24	O	0.937155	0.510672	0.167763
O25	O	1.282554	0.630962	-0.047383
O26	O	1.089497	0.630932	0.167771
O27	O	0.937160	0.630937	0.167768
O28	O	1.282582	0.630946	0.047496
O29	O	0.937070	0.846127	-0.167661
O30	O	1.089488	0.415799	0.167762
O31	O	1.282608	0.415793	0.167766
O32	O	1.282573	0.415813	0.047487
O33	O	0.743985	0.846113	-0.047386
O34	O	0.937105	0.846106	-0.047382
O35	O	1.070151	0.560145	0.106259
O36	O	1.183817	0.560153	0.035455
O37	O	1.070115	0.701766	-0.035349
O38	O	0.956449	0.701757	0.035456
C39	C	1.013270	0.441707	0.000042
C40	C	1.013267	0.377475	0.000039
C41	C	0.709373	0.630974	0.000043
C42	C	0.606230	0.630977	0.000041
C43	C	1.072592	0.347309	-0.036922
C44	C	1.072603	0.286948	-0.036917
C45	C	1.013267	0.256767	0.000041
C46	C	0.953940	0.286937	0.037011
C47	C	0.953940	0.347291	0.037010
C48	C	0.913863	0.194742	-0.005236
C49	C	0.913860	0.134392	-0.005240
C50	C	1.013269	0.070612	0.000048
C51	C	1.112680	0.067196	0.005327
C52	C	1.112680	0.127550	0.005326
C53	C	1.013261	0.191323	0.000047
C54	C	1.072611	-0.025005	-0.036909
C55	C	1.072625	-0.085371	-0.036898
C56	C	0.953950	-0.085375	0.037025
C57	C	0.953947	-0.025016	0.037019
C58	C	1.013275	0.005168	0.000048
C59	C	0.387851	0.720283	-0.044390
C60	C	0.495083	0.720343	-0.044640
C61	C	0.602894	0.586623	-0.032535
C62	C	0.495125	0.587190	-0.032861
C63	C	0.496522	0.585332	0.077104
C64	C	0.602491	0.587015	0.076983
C65	C	1.317185	0.630953	0.000057
C66	C	1.420328	0.630949	0.000060
C67	C	1.013222	0.630996	-0.189229
C68	C	1.013203	0.631007	-0.253469
C69	C	1.013287	0.820219	0.000058
C70	C	1.013290	0.884451	0.000061
C71	C	1.097130	0.631005	-0.283630
C72	C	1.097155	0.630989	-0.343976
C73	C	1.013236	0.630990	-0.374168
C74	C	0.929302	0.630987	-0.343997
C75	C	0.929286	0.630995	-0.283647
C76	C	0.910820	0.678489	-0.493550
C77	C	0.910836	0.678485	-0.553901
C78	C	1.013286	0.630961	-0.560304
C79	C	1.115728	0.583451	-0.506354
C80	C	1.115712	0.583459	-0.446005
C81	C	1.013245	0.630981	-0.439606
C82	C	1.097247	0.630941	-0.655899
C83	C	1.097273	0.630920	-0.716244
C84	C	0.929411	0.630926	-0.716268
C85	C	0.929394	0.630939	-0.655920
C86	C	1.013311	0.630951	-0.625741
C87	C	1.013335	0.630931	0.189329
C88	C	1.013354	0.630920	0.253569
C89	C	1.317176	0.441697	0.000049
C90	C	1.420316	0.377461	0.000049
C91	C	1.013326	0.441674	0.189321
C92	C	1.013343	0.377431	0.253558
C93	C	1.317233	0.441664	0.189328
C94	C	1.420392	0.377418	0.253568
C95	C	0.709325	0.820262	-0.189228
C96	C	0.606166	0.884509	-0.253467
C97	C	0.709381	0.820230	0.000051
C98	C	0.606241	0.884465	0.000052
C99	C	1.013231	0.820252	-0.189221
C100	C	1.013215	0.884495	-0.253458
C101	C	1.409397	0.347304	-0.036920
C102	C	1.506299	0.286956	-0.036934
C103	C	1.614119	0.256763	0.000024
C104	C	1.625036	0.286926	0.036994
C105	C	1.528135	0.347277	0.037004
C106	C	1.072705	0.347254	0.320693
C107	C	1.072716	0.286899	0.381056
C108	C	1.013371	0.256719	0.374283
C109	C	0.954001	0.286903	0.307141
C110	C	0.953984	0.347260	0.246780
C111	C	1.528179	0.347251	0.246776
C112	C	1.625118	0.286893	0.307130
C113	C	1.614266	0.256699	0.374274
C114	C	1.506467	0.286871	0.381065
C115	C	1.409531	0.347232	0.320712
C116	C	0.498378	0.914683	-0.246675
C117	C	0.401440	0.975059	-0.307029
C118	C	0.412291	1.005257	-0.374174
C119	C	0.520090	0.975081	-0.380964
C120	C	0.617026	0.914709	-0.320611
C121	C	0.617160	0.914629	0.037014
C122	C	0.520258	0.974993	0.037012
C123	C	0.412438	1.005188	0.000051
C124	C	0.401522	0.975022	-0.036915
C125	C	0.498422	0.914663	-0.036917
C126	C	1.072571	0.914656	-0.246662
C127	C	1.072578	0.975011	-0.307014
C128	C	1.013221	1.005208	-0.374160
C129	C	0.953862	0.975041	-0.380954
C130	C	0.953863	0.914683	-0.320603
H131	H	1.120904	0.371881	-0.067024
Br132	Br	0.280940	1.087105	0.000061
H133	H	0.444766	0.618724	-0.089556
H134	H	1.165621	0.630913	-0.740800
H135	H	0.704789	0.890142	-0.326149
Br136	Br	0.873300	1.016038	-0.472087
H137	H	0.333903	0.755336	-0.022649
H138	H	0.529169	0.999544	0.067117
Br139	Br	0.734419	0.478333	0.136824
Br140	Br	0.815486	0.630945	-0.614984
Br141	Br	1.771401	0.245956	0.297897
H142	H	1.199153	0.544752	-0.511564
Br143	Br	1.211066	0.630985	-0.384916
H144	H	0.313675	0.999619	-0.301486
Br145	Br	1.013230	1.087125	-0.456059
H146	H	0.489516	0.890106	-0.067014
Br147	Br	0.296182	0.778452	-0.138546
H148	H	1.120907	0.890079	-0.191993
H149	H	1.537041	0.371823	0.067112
Br150	Br	0.873288	0.873764	-0.329839
Br151	Br	1.153132	0.015958	-0.087078
H152	H	0.905648	0.371823	0.192118
H153	H	1.165581	0.630947	-0.631325
H154	H	1.120915	0.262382	-0.067016
H155	H	1.121031	0.371820	0.326221
H156	H	0.905638	-0.109948	0.067117
Br157	Br	1.153142	-0.126310	-0.087067
Br158	Br	0.255186	1.016009	-0.087071
H159	H	1.120913	0.999566	-0.301468
Br160	Br	0.778940	0.281298	-0.012412
Br161	Br	1.491759	0.245884	0.472196
H162	H	1.712835	0.262334	0.067084
H163	H	1.121066	0.262331	0.435720
Br164	Br	0.815418	0.630980	-0.384964
H165	H	1.013394	0.207572	0.423439
H166	H	1.193624	0.124764	0.009625
Br167	Br	0.490976	0.778740	-0.139367
Br168	Br	1.745835	0.174779	0.456177
Br169	Br	0.601670	0.640902	0.117556
Br170	Br	0.483619	0.873711	-0.155558
Br171	Br	1.247599	-0.019354	0.012498
H172	H	1.693013	0.207621	0.000011
Br173	Br	0.873466	0.245935	0.297962
Br174	Br	1.542938	0.388220	0.155658
Br175	Br	0.815530	0.630915	-0.757230
Br176	Br	0.763474	0.873665	0.087178
H177	H	0.832913	0.137183	-0.009541
Br178	Br	0.873430	0.015927	0.087184
Br179	Br	1.263251	0.388162	0.329942
Br180	Br	0.280723	1.087191	-0.456076
Br181	Br	0.534798	1.016070	-0.472095
H182	H	0.681169	0.520915	-0.001719
Br183	Br	0.873426	0.245970	0.087178
H184	H	0.493331	0.755321	-0.022958
Br185	Br	0.873424	0.388232	0.087178
H186	H	0.521785	0.521648	-0.002580
H187	H	0.605014	0.617444	-0.088692
H188	H	0.446507	0.613908	0.104318
H189	H	1.165462	0.631012	-0.259059
Br190	Br	1.254730	0.518979	-0.372787
Br191	Br	0.771812	0.742969	-0.627115
Br192	Br	0.542292	0.475643	0.132561
H193	H	0.827385	0.717181	-0.488340
H194	H	0.860942	0.630996	-0.259089
H195	H	1.321614	0.371887	-0.067024
H196	H	1.497388	0.262405	-0.067039
