data_functionalizedCrystal
_audit_creation_method	'MofGen! by Chris Wilmer'
_symmetry_space_group_name_H-M	'P1'
_symmetry_Int_Tables_number	1
_symmetry_cell_setting	triclinic
loop_
_symmetry_equiv_pos_as_xyz
  x,y,z
_cell_length_a	19.188930
_cell_length_b	19.188924
_cell_length_c	18.266242
_cell_angle_alpha	89.991576
_cell_angle_beta	89.977082
_cell_angle_gamma	83.143372
loop_
_atom_site_label
_atom_site_type_symbol
_atom_site_fract_x
_atom_site_fract_y
_atom_site_fract_z
O1	O	0.926147	0.087169	-0.061120
O2	O	0.722836	0.098903	-0.061070
O3	O	0.830361	-0.008620	-0.061088
O4	O	0.818622	0.194692	-0.061102
O5	O	0.830343	-0.008625	0.060674
O6	O	0.722817	0.098898	0.060692
O7	O	0.926129	0.087164	0.060642
Zn8	Zn	0.824470	0.093030	0.080000
Zn9	Zn	0.824494	0.093037	-0.080427
O10	O	0.818604	0.194687	0.060660
C11	C	0.696815	0.098521	-0.000182
C12	C	0.619311	0.097380	-0.000163
C13	C	0.574386	0.160471	-0.000179
C14	C	0.501562	0.159399	-0.000187
C15	C	0.473667	0.095233	-0.000194
C16	C	0.518602	0.032134	-0.000174
C17	C	0.591424	0.033207	-0.000158
N18	N	0.365694	0.046188	-0.041661
N19	N	0.296515	0.045172	-0.041677
C20	C	0.254258	0.091995	-0.000238
N21	N	0.283792	0.139882	0.041208
N22	N	0.352976	0.140899	0.041221
C23	C	0.394704	0.094062	-0.000210
C24	C	0.130368	0.153928	-0.000262
C25	C	0.057543	0.152854	-0.000265
C26	C	0.074585	0.025586	-0.000259
C27	C	0.147409	0.026663	-0.000248
C28	C	0.175295	0.090835	-0.000253
C29	C	0.829973	-0.034634	-0.000206
C30	C	0.828834	-0.112138	-0.000204
C31	C	0.828312	-0.148534	-0.066576
C32	C	0.827232	-0.221357	-0.066581
C33	C	0.826688	-0.257783	-0.000210
C34	C	0.827206	-0.221378	0.066171
C35	C	0.828279	-0.148555	0.066174
N36	N	0.864728	-0.377448	0.049179
N37	N	0.863711	-0.446627	0.049171
C38	C	0.823454	-0.477192	-0.000217
N39	N	0.784262	-0.435967	-0.049607
N40	N	0.785283	-0.366783	-0.049602
C41	C	0.825524	-0.336746	-0.000207
C42	C	0.821760	-0.592551	-0.066599
C43	C	0.820676	-0.665374	-0.066602
C44	C	0.820657	-0.665394	0.066152
C45	C	0.821734	-0.592571	0.066153
C46	C	0.822289	-0.556154	-0.000225
C47	C	0.952149	0.087546	-0.000247
C48	C	1.029654	0.088687	-0.000271
C49	C	0.818992	0.220700	-0.000223
C50	C	0.820131	0.298205	-0.000230
N51	N	0.824459	0.093024	0.189487
N52	N	0.824511	0.093037	-0.189914
C53	C	0.872087	0.045436	0.227788
C54	C	0.872091	0.045433	0.304432
C55	C	0.824475	0.093030	0.342773
C56	C	0.776838	0.140622	0.304463
C57	C	0.776830	0.140619	0.227820
N58	N	0.815397	0.154838	0.463103
N59	N	0.815409	0.154838	0.535911
C60	C	0.824494	0.093040	0.573696
N61	N	0.833581	0.031240	0.535922
N62	N	0.833573	0.031240	0.463107
C63	C	0.824477	0.093038	0.425880
C64	C	0.872129	0.045445	0.695104
C65	C	0.872129	0.045440	0.771750
C66	C	0.776879	0.140635	0.771780
C67	C	0.776876	0.140633	0.695135
C68	C	0.824505	0.093039	0.656802
H69	H	0.153075	0.206181	-0.000255
C70	C	0.924470	-0.006921	0.185619
C71	C	0.923550	-0.086427	0.196174
C72	C	0.975931	-0.138785	0.154003
C73	C	1.029232	-0.111638	0.101276
C74	C	1.030155	-0.032128	0.090718
C75	C	0.977774	0.020231	0.132890
H76	H	0.884091	-0.106527	0.235208
H77	H	0.975247	-0.197644	0.161818
H78	H	1.068008	-0.150396	0.070058
H79	H	1.069614	-0.012028	0.051684
H80	H	0.978457	0.079089	0.125074
H81	H	0.910910	0.006688	0.663892
C82	C	0.724498	0.192991	0.813946
C83	C	0.724550	0.193041	0.898251
C84	C	0.672166	0.245396	0.940423
C85	C	0.619730	0.297702	0.898290
C86	C	0.619676	0.297654	0.813980
C87	C	0.672060	0.245299	0.771809
H88	H	0.763369	0.154319	0.929445
H89	H	0.672207	0.245431	1.002834
H90	H	0.580952	0.336459	0.929508
H91	H	0.580858	0.336376	0.782786
H92	H	0.672020	0.245264	0.709397
H93	H	0.597086	0.212725	-0.000184
C94	C	0.826660	-0.261402	-0.139596
C95	C	0.765312	-0.303348	-0.157845
C96	C	0.764740	-0.343389	-0.230860
C97	C	0.825515	-0.341485	-0.285627
C98	C	0.886867	-0.299537	-0.267380
C99	C	0.887440	-0.259496	-0.194365
H100	H	0.720319	-0.304759	-0.117302
H101	H	0.719322	-0.374441	-0.244367
H102	H	0.825091	-0.371126	-0.339677
H103	H	0.931861	-0.298126	-0.307923
H104	H	0.932857	-0.228444	-0.180857
C105	C	0.196832	-0.042740	-0.000239
C106	C	0.276934	-0.041562	-0.000221
C107	C	0.326357	-0.110968	-0.000208
C108	C	0.295679	-0.181551	-0.000214
C109	C	0.215573	-0.182732	-0.000233
C110	C	0.166149	-0.113326	-0.000245
H111	H	0.299647	0.010691	-0.000217
H112	H	0.385657	-0.110093	-0.000195
H113	H	0.332265	-0.232930	-0.000205
H114	H	0.192859	-0.234984	-0.000237
H115	H	0.106849	-0.114200	-0.000259
H116	H	0.020965	0.204232	-0.000274
C117	C	0.828910	-0.108477	-0.139592
C118	C	0.889382	-0.126597	-0.194369
C119	C	0.889976	-0.086539	-0.267385
C120	C	0.830097	-0.028362	-0.285624
C121	C	0.769621	-0.010239	-0.230845
C122	C	0.769027	-0.050297	-0.157829
H123	H	0.933712	-0.169666	-0.180868
H124	H	0.934745	-0.099955	-0.307935
H125	H	0.830537	0.001292	-0.339675
H126	H	0.725291	0.032830	-0.244346
H127	H	0.724258	-0.036881	-0.117279
H128	H	0.820208	-0.695051	0.120193
H129	H	0.051874	-0.026659	-0.000310
H130	H	0.738096	0.179386	0.663948
C131	C	0.924522	-0.006910	0.813887
C132	C	0.976925	-0.059245	0.771720
C133	C	1.029319	-0.111595	0.813858
C134	C	1.029310	-0.111611	0.898163
C135	C	0.976905	-0.059274	0.940334
C136	C	0.924511	-0.006924	0.898196
H137	H	0.976933	-0.059235	0.709308
H138	H	1.068112	-0.150338	0.782640
H139	H	1.068095	-0.150364	0.929356
H140	H	0.976896	-0.059284	1.002746
H141	H	0.885718	0.031820	0.929415
H142	H	0.464976	0.210777	-0.000198
H143	H	0.828700	-0.118922	0.120224
C144	C	0.487921	-0.038450	-0.000183
C145	C	0.440160	-0.056690	0.063033
C146	C	0.409480	-0.127276	0.063028
C147	C	0.426560	-0.179623	-0.000192
C148	C	0.474323	-0.161385	-0.063413
C149	C	0.505003	-0.090798	-0.063408
H150	H	0.427515	-0.017938	0.109837
H151	H	0.374123	-0.140777	0.109828
H152	H	0.403849	-0.231875	-0.000196
H153	H	0.486968	-0.200136	-0.110216
H154	H	0.540360	-0.077297	-0.110208
C155	C	0.822365	-0.552485	-0.139612
C156	C	0.821782	-0.592523	-0.212624
C157	C	0.822388	-0.552460	-0.285636
C158	C	0.823577	-0.472359	-0.285636
C159	C	0.824160	-0.432317	-0.212621
C160	C	0.823554	-0.472380	-0.139609
H161	H	0.820902	-0.651822	-0.212626
H162	H	0.821956	-0.582102	-0.339687
H163	H	0.824026	-0.442703	-0.339684
H164	H	0.825040	-0.373018	-0.212619
H165	H	0.823986	-0.442738	-0.085558
C166	C	0.826609	-0.261443	0.139180
C167	C	0.825433	-0.341545	0.139180
C168	C	0.824833	-0.381609	0.212192
C169	C	0.825407	-0.341570	0.285205
C170	C	0.826582	-0.261463	0.285208
C171	C	0.827183	-0.221400	0.212195
H172	H	0.825008	-0.371188	0.085130
H173	H	0.823963	-0.440909	0.212190
H174	H	0.824962	-0.371228	0.339253
H175	H	0.827008	-0.231820	0.339258
H176	H	0.828053	-0.162099	0.212198
H177	H	0.628003	-0.018171	-0.000146
H178	H	0.738045	0.179371	0.196634
C179	C	0.820106	-0.705411	-0.139618
C180	C	0.879986	-0.763589	-0.157882
C181	C	0.879418	-0.803626	-0.230900
C182	C	0.818969	-0.785485	-0.285655
C183	C	0.759084	-0.727304	-0.267392
C184	C	0.759652	-0.687267	-0.194374
H185	H	0.924738	-0.777020	-0.117348
H186	H	0.923749	-0.846695	-0.244419
H187	H	0.818549	-0.815123	-0.339707
H188	H	0.714332	-0.713873	-0.307926
H189	H	0.715321	-0.644198	-0.180856
C190	C	0.822320	-0.552534	0.139166
C191	C	0.761554	-0.554441	0.193943
C192	C	0.762139	-0.514405	0.266960
C193	C	0.823491	-0.472462	0.285200
C194	C	0.884262	-0.470553	0.230422
C195	C	0.883677	-0.510589	0.157405
H196	H	0.716133	-0.585491	0.180442
H197	H	0.717152	-0.515818	0.307511
H198	H	0.823924	-0.442825	0.339252
H199	H	0.929682	-0.439503	0.243923
H200	H	0.928664	-0.509176	0.116854
H201	H	0.738066	0.179374	0.335684
C202	C	0.924489	-0.006914	0.346574
C203	C	0.976897	-0.059243	0.304407
C204	C	1.029296	-0.111588	0.346545
C205	C	1.029286	-0.111605	0.430850
C206	C	0.976876	-0.059274	0.473021
C207	C	0.924477	-0.006928	0.430883
H208	H	0.976906	-0.059232	0.241995
H209	H	1.068094	-0.150327	0.315326
H210	H	1.068075	-0.150354	0.462043
H211	H	0.976867	-0.059285	0.535433
H212	H	0.885680	0.031810	0.462102
