data_functionalizedCrystal
_audit_creation_method	'MofGen! by Chris Wilmer'
_symmetry_space_group_name_H-M	'P1'
_symmetry_Int_Tables_number	1
_symmetry_cell_setting	triclinic
loop_
_symmetry_equiv_pos_as_xyz
  x,y,z
_cell_length_a	17.699083
_cell_length_b	15.995350
_cell_length_c	16.776229
_cell_angle_alpha	89.995580
_cell_angle_beta	89.998886
_cell_angle_gamma	83.387695
loop_
_atom_site_label
_atom_site_type_symbol
_atom_site_fract_x
_atom_site_fract_y
_atom_site_fract_z
O1	O	1.004255	0.105885	-0.066173
O2	O	1.504255	0.605885	0.433827
O3	O	0.783899	0.119661	-0.066198
O4	O	1.283899	0.619661	0.433802
O5	O	0.900100	-0.009127	-0.066184
O6	O	1.400100	0.490873	0.433816
O7	O	0.888053	0.234673	-0.066187
O8	O	1.388053	0.734673	0.433813
O9	O	0.900085	-0.009135	0.066393
O10	O	1.400085	0.490865	0.566393
O11	O	0.783884	0.119653	0.066378
O12	O	1.283884	0.619653	0.566378
O13	O	1.004239	0.105877	0.066404
O14	O	1.504239	0.605877	0.566404
Zn15	Zn	0.894059	0.112764	0.087441
Zn16	Zn	1.394059	0.612764	0.587441
Zn17	Zn	0.894079	0.112774	-0.087235
Zn18	Zn	1.394079	0.612774	0.412765
O19	O	0.888038	0.234665	0.066390
O20	O	1.388038	0.734665	0.566390
C21	C	0.755694	0.119163	0.000087
C22	C	1.255694	0.619163	0.500087
C23	C	0.671673	0.117683	0.000077
C24	C	1.171673	0.617683	0.500077
C25	C	0.899595	-0.040324	0.000103
C26	C	1.399595	0.459676	0.500103
C27	C	0.898101	-0.133272	0.000098
C28	C	1.398101	0.366728	0.500098
C29	C	0.623178	0.193278	0.000076
C30	C	1.123178	0.693278	0.500076
C31	C	0.544232	0.191882	0.000087
C32	C	1.044232	0.691882	0.500087
C33	C	0.513783	0.114889	0.000092
C34	C	1.013783	0.614889	0.500092
C35	C	0.562285	0.039287	0.000095
C36	C	1.062285	0.539287	0.500095
C37	C	0.641229	0.040685	0.000090
C38	C	1.141229	0.540685	0.500090
C39	C	0.243912	0.033651	0.000115
C40	C	0.743912	0.533651	0.500115
C41	C	0.164962	0.032259	0.000117
C42	C	0.664962	0.532259	0.500117
C43	C	0.146916	0.184848	0.000111
C44	C	0.646916	0.684848	0.500111
C45	C	0.225860	0.186245	0.000106
C46	C	0.725860	0.686245	0.500106
C47	C	0.274354	0.110644	0.000114
C48	C	0.774354	0.610644	0.500114
C49	C	0.359956	0.112159	0.000104
C50	C	0.859956	0.612159	0.500104
C51	C	0.428183	0.113373	0.000096
C52	C	0.928183	0.613373	0.500096
C53	C	0.892739	-0.471008	0.000100
C54	C	1.392739	0.028992	0.500100
C55	C	0.809983	-0.423406	-0.000207
C56	C	1.309983	0.076594	0.499793
C57	C	0.811476	-0.326719	0.000092
C58	C	1.311476	0.173281	0.500092
C59	C	0.895399	-0.303453	0.000099
C60	C	1.395399	0.196547	0.500099
C61	C	0.936209	-0.344618	0.075810
C62	C	1.436209	0.155382	0.575810
C63	C	0.934130	-0.441250	0.075873
C64	C	1.434130	0.058750	0.575873
C65	C	0.935857	-0.441602	-0.074891
C66	C	1.435857	0.058398	0.425109
C67	C	0.935837	-0.344657	-0.075892
C68	C	1.435837	0.155343	0.424108
C69	C	0.896907	-0.208759	0.000101
C70	C	1.396907	0.291241	0.500101
C71	C	0.891234	-0.565703	0.000104
C72	C	1.391234	-0.065703	0.500104
C73	C	1.032445	0.106375	0.000117
C74	C	1.532445	0.606375	0.500117
C75	C	1.116465	0.107856	0.000122
C76	C	1.616465	0.607856	0.500122
C77	C	0.888544	0.265863	0.000101
C78	C	1.388544	0.765863	0.500101
C79	C	0.890037	0.358810	0.000101
C80	C	1.390037	0.858810	0.500101
N81	N	0.894051	0.112756	0.206652
N82	N	1.394051	0.612756	0.706652
N83	N	0.894094	0.112775	-0.206446
N84	N	1.394094	0.612775	0.293554
C85	C	0.945520	0.055752	0.248375
C86	C	1.445520	0.555752	0.748375
C87	C	0.945524	0.055752	0.331827
C88	C	1.445524	0.555752	0.831827
C89	C	0.894062	0.112760	0.373555
C90	C	1.394062	0.612760	0.873555
C91	C	0.842587	0.169766	0.331825
C92	C	1.342587	0.669766	0.831825
C93	C	0.842580	0.169762	0.248375
C94	C	1.342580	0.669762	0.748375
C95	C	0.842614	0.169783	0.668373
C96	C	1.342614	0.669783	1.168373
C97	C	0.842627	0.169784	0.751829
C98	C	1.342627	0.669784	1.251829
C99	C	0.945559	0.055772	0.751825
C100	C	1.445559	0.555772	1.251825
C101	C	0.945552	0.055768	0.668375
C102	C	1.445552	0.555768	1.168375
C103	C	0.894074	0.112771	0.626653
C104	C	1.394074	0.612771	1.126653
C105	C	0.894069	0.112770	0.536164
C106	C	1.394069	0.612770	1.036164
C107	C	0.894070	0.112765	0.464041
C108	C	1.394070	0.612765	0.964041
H109	H	0.647962	0.255975	0.000071
H110	H	1.147962	0.755975	0.500071
Cl111	Cl	0.126685	-0.064540	0.000124
Cl112	Cl	0.626685	0.435460	0.500124
Cl113	Cl	0.892429	-0.300721	0.162792
Cl114	Cl	1.392429	0.199279	0.662792
Cl115	Cl	1.010229	-0.015912	0.384281
Cl116	Cl	1.510229	0.484088	0.884281
Cl117	Cl	0.777925	0.241455	0.804286
Cl118	Cl	1.277925	0.741455	1.304286
H119	H	0.504750	0.253440	0.000085
H120	H	1.004750	0.753440	0.500085
Cl121	Cl	0.264133	0.283040	0.000095
Cl122	Cl	0.764133	0.783040	0.500095
Cl123	Cl	0.761946	-0.282728	-0.083700
Cl124	Cl	1.261946	0.217272	0.416300
H125	H	0.107421	0.246406	0.000109
H126	H	0.607421	0.746406	0.500109
Cl127	Cl	0.304867	-0.061391	0.000123
Cl128	Cl	0.804867	0.438609	0.500123
Cl129	Cl	0.777905	0.241445	0.615928
Cl130	Cl	1.277905	0.741445	1.115928
Cl131	Cl	0.888161	-0.469421	0.163241
Cl132	Cl	1.388161	0.030579	0.663241
Cl133	Cl	0.777886	0.241431	0.384281
Cl134	Cl	1.277886	0.741431	0.884281
H135	H	0.800667	0.216180	0.214404
H136	H	1.300667	0.716180	0.714404
H137	H	0.537487	-0.023402	0.000111
H138	H	1.037487	0.476598	0.500111
H139	H	0.776912	-0.441867	-0.054501
H140	H	1.276912	0.058133	0.445499
H141	H	0.908806	-0.462084	-0.132275
H142	H	1.408806	0.037916	0.367725
H143	H	0.680714	-0.020873	0.000090
H144	H	1.180714	0.479127	0.500090
H145	H	0.777046	-0.442936	0.053777
H146	H	1.277046	0.057064	0.553777
H147	H	0.994888	-0.473622	0.079313
H148	H	1.494888	0.026378	0.579313
Cl149	Cl	0.761593	-0.283595	0.084016
Cl150	Cl	1.261593	0.216405	0.584016
Cl151	Cl	1.031401	-0.323005	0.080169
Cl152	Cl	1.531401	0.176995	0.580169
H153	H	0.906000	-0.317344	-0.131901
H154	H	1.406000	0.182656	0.368099
H155	H	0.997038	-0.329419	-0.080458
H156	H	1.497038	0.170581	0.419542
H157	H	0.987460	0.009350	0.634403
H158	H	1.487460	0.509350	1.134403
Cl159	Cl	1.010272	-0.015894	0.804280
Cl160	Cl	1.510272	0.484106	1.304280
H161	H	0.996873	-0.473487	-0.075395
H162	H	1.496873	0.026513	0.424605
Cl163	Cl	1.010224	-0.015915	0.195927
Cl164	Cl	1.510224	0.484085	0.695927
