data_functionalizedCrystal
_audit_creation_method	'MofGen! by Chris Wilmer'
_symmetry_space_group_name_H-M	'P1'
_symmetry_Int_Tables_number	1
_symmetry_cell_setting	triclinic
loop_
_symmetry_equiv_pos_as_xyz
  x,y,z
_cell_length_a	17.699104
_cell_length_b	17.699103
_cell_length_c	16.776229
_cell_angle_alpha	89.988386
_cell_angle_beta	89.991971
_cell_angle_gamma	83.291289
loop_
_atom_site_label
_atom_site_type_symbol
_atom_site_fract_x
_atom_site_fract_y
_atom_site_fract_z
O1	O	1.004075	0.095787	-0.066313
O2	O	1.337409	0.429120	0.267020
O3	O	1.670742	0.762454	0.600354
O4	O	0.783700	0.108223	-0.066312
O5	O	1.117033	0.441556	0.267021
O6	O	1.450367	0.774890	0.600354
O7	O	0.900106	-0.008183	-0.066297
O8	O	1.233439	0.325151	0.267036
O9	O	1.566773	0.658484	0.600369
O10	O	0.887669	0.212193	-0.066328
O11	O	1.221003	0.545526	0.267005
O12	O	1.554336	0.878859	0.600339
O13	O	0.900091	-0.008190	0.066279
O14	O	1.233424	0.325144	0.399612
O15	O	1.566757	0.658477	0.732946
O16	O	0.783685	0.108216	0.066264
O17	O	1.117018	0.441549	0.399598
O18	O	1.450351	0.774883	0.732931
O19	O	1.004060	0.095780	0.066263
O20	O	1.337393	0.429113	0.399597
O21	O	1.670727	0.762447	0.732930
Zn22	Zn	0.893870	0.101997	0.087313
Zn23	Zn	1.227203	0.435330	0.420647
Zn24	Zn	1.560536	0.768663	0.753980
Zn25	Zn	0.893890	0.102006	-0.087362
Zn26	Zn	1.227223	0.435340	0.245971
Zn27	Zn	1.560557	0.768673	0.579305
O28	O	0.887654	0.212186	0.066249
O29	O	1.220987	0.545519	0.399582
O30	O	1.554321	0.878852	0.732915
C31	C	0.755496	0.107771	-0.000024
C32	C	1.088829	0.441104	0.333310
C33	C	1.422162	0.774438	0.666643
C34	C	0.671478	0.106426	-0.000023
C35	C	1.004812	0.439760	0.333311
C36	C	1.338145	0.773093	0.666644
C37	C	0.899650	-0.036383	-0.000007
C38	C	1.232983	0.296950	0.333326
C39	C	1.566317	0.630284	0.666660
C40	C	0.898306	-0.120400	-0.000000
C41	C	1.231639	0.212933	0.333333
C42	C	1.564972	0.546266	0.666666
C43	C	0.146612	0.167170	-0.000039
C44	C	0.479945	0.500503	0.333294
C45	C	0.813278	0.833836	0.666627
C46	C	0.225555	0.168429	-0.000042
C47	C	0.558889	0.501762	0.333291
C48	C	0.892222	0.835095	0.666625
C49	C	0.274168	0.100094	-0.000032
C50	C	0.607501	0.433427	0.333301
C51	C	0.940835	0.766761	0.666634
C52	C	0.243833	0.030496	-0.000028
C53	C	0.577167	0.363829	0.333305
C54	C	0.910500	0.697163	0.666638
C55	C	0.164891	0.029238	-0.000032
C56	C	0.498224	0.362571	0.333302
C57	C	0.831558	0.695904	0.666635
C58	C	0.562200	0.035569	-0.000016
C59	C	0.895533	0.368902	0.333317
C60	C	1.228866	0.702236	0.666650
C61	C	0.641147	0.036833	-0.000011
C62	C	0.974480	0.370166	0.333323
C63	C	1.307814	0.703499	0.666656
C64	C	0.622864	0.174760	-0.000027
C65	C	0.956198	0.508093	0.333307
C66	C	1.289531	0.841427	0.666640
C67	C	0.543922	0.173502	-0.000030
C68	C	0.877255	0.506835	0.333303
C69	C	1.210588	0.840168	0.666637
C70	C	0.513594	0.103904	-0.000030
C71	C	0.846927	0.437237	0.333303
C72	C	1.180261	0.770571	0.666637
C73	C	0.427994	0.102540	-0.000029
C74	C	0.761327	0.435873	0.333304
C75	C	1.094661	0.769206	0.666638
C76	C	0.359767	0.101458	-0.000028
C77	C	0.693100	0.434791	0.333306
C78	C	1.026433	0.768124	0.666639
C79	C	0.890090	-0.636109	-0.072320
C80	C	1.223423	-0.302775	0.261013
C81	C	1.556757	0.030558	0.594347
C82	C	0.891352	-0.557165	-0.072313
C83	C	1.224686	-0.223832	0.261020
C84	C	1.558019	0.109502	0.594354
C85	C	0.891973	-0.517711	-0.000041
C86	C	1.225307	-0.184377	0.333293
C87	C	1.558640	0.148956	0.666626
C88	C	0.891340	-0.557205	0.072229
C89	C	1.224673	-0.223871	0.405563
C90	C	1.558007	0.109462	0.738896
C91	C	0.890083	-0.636147	0.072221
C92	C	1.223416	-0.302814	0.405555
C93	C	1.556750	0.030519	0.738888
C94	C	0.896410	-0.238838	0.072263
C95	C	1.229743	0.094496	0.405596
C96	C	1.563077	0.427829	0.738929
C97	C	0.897665	-0.159889	0.072265
C98	C	1.230998	0.173444	0.405598
C99	C	1.564331	0.506777	0.738932
C100	C	0.897679	-0.159856	-0.072272
C101	C	1.231012	0.173478	0.261062
C102	C	1.564346	0.506811	0.594395
C103	C	0.896422	-0.238798	-0.072280
C104	C	1.229755	0.094535	0.261054
C105	C	1.563089	0.427868	0.594387
C106	C	0.895793	-0.278286	-0.000010
C107	C	1.229126	0.055047	0.333323
C108	C	1.562459	0.388381	0.666656
C109	C	0.894425	-0.363886	-0.000019
C110	C	1.227759	-0.030552	0.333315
C111	C	1.561092	0.302781	0.666648
C112	C	0.893335	-0.432112	-0.000031
C113	C	1.226669	-0.098778	0.333302
C114	C	1.560002	0.234555	0.666635
C115	C	1.032264	0.096232	-0.000027
C116	C	1.365598	0.429565	0.333306
C117	C	1.698931	0.762899	0.666640
C118	C	1.116282	0.097577	-0.000033
C119	C	1.449615	0.430910	0.333300
C120	C	1.782948	0.764243	0.666634
C121	C	0.888110	0.240386	-0.000044
C122	C	1.221443	0.573719	0.333290
C123	C	1.554776	0.907053	0.666623
C124	C	0.889454	0.324403	-0.000055
C125	C	1.222788	0.657737	0.333278
C126	C	1.556121	0.991070	0.666611
N127	N	0.893861	0.101990	0.206524
N128	N	1.227195	0.435323	0.539858
N129	N	1.560528	0.768657	0.873191
N130	N	0.893904	0.102007	-0.206573
N131	N	1.227238	0.435340	0.126760
N132	N	1.560571	0.768674	0.460093
C133	C	0.945422	0.050467	0.248248
C134	C	1.278755	0.383800	0.581581
C135	C	1.612088	0.717133	0.914915
C136	C	0.945426	0.050466	0.331700
C137	C	1.278759	0.383799	0.665034
C138	C	1.612093	0.717133	0.998367
C139	C	0.893873	0.101993	0.373427
C140	C	1.227206	0.435326	0.706761
C141	C	1.560540	0.768660	1.040094
C142	C	0.842307	0.153519	0.331698
C143	C	1.175640	0.486852	0.665031
C144	C	1.508974	0.820185	0.998365
C145	C	0.842300	0.153515	0.248247
C146	C	1.175633	0.486848	0.581580
C147	C	1.508967	0.820182	0.914914
C148	C	0.842334	0.153533	0.668245
C149	C	1.175668	0.486867	1.001578
C150	C	1.509001	0.820200	1.334912
C151	C	0.842347	0.153535	0.751702
C152	C	1.175681	0.486868	1.085035
C153	C	1.509014	0.820201	1.418368
C154	C	0.945460	0.050484	0.751698
C155	C	1.278794	0.383818	1.085031
C156	C	1.612127	0.717151	1.418365
C157	C	0.945453	0.050481	0.668247
C158	C	1.278787	0.383814	1.001581
C159	C	1.612120	0.717147	1.334914
C160	C	0.893885	0.102004	0.626525
C161	C	1.227219	0.435337	0.959859
C162	C	1.560552	0.768670	1.293192
C163	C	0.893880	0.102003	0.536037
C164	C	1.227214	0.435336	0.869370
C165	C	1.560547	0.768669	1.202704
C166	C	0.893881	0.101998	0.463914
C167	C	1.227214	0.435331	0.797247
C168	C	1.560547	0.768665	1.130581
H169	H	0.250246	0.225098	-0.000055
H170	H	0.583579	0.558431	0.333279
H171	H	0.916912	0.891765	0.666612
H172	H	0.889565	-0.668297	0.131067
H173	H	1.222898	-0.334964	0.464400
H174	H	1.556232	-0.001631	0.797733
H175	H	0.647566	0.231430	-0.000030
H176	H	0.980900	0.564763	0.333303
H177	H	1.314233	0.898097	0.666637
H178	H	0.895898	-0.270979	0.131109
H179	H	1.229232	0.062354	0.464442
H180	H	1.562565	0.395688	0.797776
H181	H	0.987410	0.008511	0.365671
H182	H	1.320743	0.341845	0.699005
H183	H	1.654076	0.675178	1.032338
O184	O	0.786753	0.209124	0.796712
O185	O	1.120086	0.542457	1.130046
O186	O	1.453420	0.875790	1.463379
H187	H	0.750893	0.244951	0.753681
H188	H	1.084226	0.578284	1.087015
H189	H	1.417560	0.911618	1.420348
O190	O	0.889407	-0.678661	-0.150271
O191	O	1.222741	-0.345328	0.183062
O192	O	1.556074	-0.011994	0.516396
H193	H	0.890064	-0.637937	-0.200519
H194	H	1.223398	-0.304603	0.132814
H195	H	1.556731	0.028730	0.466147
O196	O	0.132175	-0.045824	-0.000023
O197	O	0.465509	0.287509	0.333310
O198	O	0.798842	0.620842	0.666644
H199	H	0.096632	-0.049696	0.054009
H200	H	0.429965	0.283637	0.387342
H201	H	0.763299	0.616970	0.720675
H202	H	0.891851	-0.525075	0.131075
H203	H	1.225184	-0.191742	0.464408
H204	H	1.558517	0.141592	0.797741
O205	O	0.491487	0.247204	-0.000041
O206	O	0.824821	0.580537	0.333293
O207	O	1.158154	0.913871	0.666626
H208	H	0.525841	0.295810	-0.000053
H209	H	0.859174	0.629143	0.333280
H210	H	1.192508	0.962476	0.666614
O211	O	0.693585	-0.036874	-0.000006
O212	O	1.026918	0.296460	0.333328
O213	O	1.360251	0.629793	0.666661
H214	H	0.659234	-0.085482	-0.000014
H215	H	0.992568	0.247852	0.333319
H216	H	1.325901	0.581185	0.666653
H217	H	0.537517	-0.021102	-0.000014
H218	H	0.870850	0.312232	0.333319
H219	H	1.204183	0.645565	0.666652
O220	O	0.296260	-0.043211	-0.000010
O221	O	0.629594	0.290122	0.333323
O222	O	0.962927	0.623455	0.666656
H223	H	0.356250	-0.030646	0.000002
H224	H	0.689584	0.302687	0.333336
H225	H	1.022917	0.636020	0.666669
O226	O	0.892023	-0.514569	-0.150254
O227	O	1.225357	-0.181236	0.183079
O228	O	1.558690	0.152097	0.516412
H229	H	0.891366	-0.555265	-0.200510
H230	H	1.224699	-0.221932	0.132823
H231	H	1.558032	0.111402	0.466156
O232	O	0.786704	0.209100	0.376697
O233	O	1.120037	0.542433	0.710031
O234	O	1.453371	0.875766	1.043364
H235	H	0.795377	0.200454	0.441736
H236	H	1.128710	0.533787	0.775069
H237	H	1.462043	0.867121	1.108403
H238	H	0.107036	0.222816	-0.000041
H239	H	0.440369	0.556149	0.333292
H240	H	0.773702	0.889482	0.666625
O241	O	0.895730	-0.281352	-0.150229
O242	O	1.229064	0.051981	0.183104
O243	O	1.562397	0.385314	0.516438
H244	H	0.896383	-0.240630	-0.200480
H245	H	1.229716	0.092703	0.132854
H246	H	1.563050	0.426036	0.466187
H247	H	0.800313	0.195470	0.214277
H248	H	1.133647	0.528803	0.547610
H249	H	1.466980	0.862136	0.880943
H250	H	0.987405	0.008511	0.214279
H251	H	1.320739	0.341844	0.547613
H252	H	1.654072	0.675177	0.880946
H253	H	0.987435	0.008525	0.634276
H254	H	1.320768	0.341859	0.967609
H255	H	1.654102	0.675192	1.300943
O256	O	1.001077	-0.005097	0.796697
O257	O	1.334410	0.328236	1.130030
O258	O	1.667744	0.661569	1.463363
H259	H	0.992418	0.003552	0.861736
H260	H	1.325752	0.336885	1.195069
H261	H	1.659085	0.670219	1.528402
H262	H	0.800347	0.195486	0.634281
H263	H	1.133681	0.528820	0.967615
H264	H	1.467014	0.862153	1.300948
H265	H	0.898167	-0.127767	0.131121
H266	H	1.231500	0.205566	0.464455
H267	H	1.564833	0.538900	0.797788
O268	O	0.898366	-0.117268	-0.150225
O269	O	1.231699	0.216065	0.183109
O270	O	1.565033	0.549398	0.516442
H271	H	0.899353	-0.055747	-0.138082
H272	H	1.232686	0.277586	0.195251
H273	H	1.566020	0.610920	0.528584
