data_functionalizedCrystal
_audit_creation_method	'MofGen! by Chris Wilmer'
_symmetry_space_group_name_H-M	'P1'
_symmetry_Int_Tables_number	1
_symmetry_cell_setting	triclinic
loop_
_symmetry_equiv_pos_as_xyz
  x,y,z
_cell_length_a	23.096457
_cell_length_b	21.606444
_cell_length_c	21.606444
_cell_angle_alpha	60.001331
_cell_angle_beta	90.000061
_cell_angle_gamma	59.998565
loop_
_atom_site_label
_atom_site_type_symbol
_atom_site_fract_x
_atom_site_fract_y
_atom_site_fract_z
Zr1	Zr	0.557754	0.677461	-0.081223
O2	O	0.465300	0.806582	-0.180042
O3	O	0.586097	0.548342	-0.050932
O4	O	0.586090	0.677466	-0.180051
O5	O	0.465312	0.677454	0.050931
O6	O	0.681370	0.677468	-0.180054
O7	O	0.465307	0.677458	-0.050923
O8	O	0.681383	0.446488	0.050915
O9	O	0.465299	0.908433	-0.180038
O10	O	0.669291	0.601451	-0.038013
O11	O	0.598188	0.601447	0.038002
O12	O	0.598179	0.753473	-0.114018
O13	O	0.527076	0.753469	-0.038002
Zr14	Zr	0.709723	0.677457	0.081217
Zr15	Zr	0.709715	0.677464	-0.081229
Zr16	Zr	0.557762	0.677454	0.081223
Zr17	Zr	0.557753	0.839901	-0.081217
Zr18	Zr	0.709725	0.515017	0.081212
O19	O	0.681380	0.806576	0.050927
O20	O	0.681369	0.806586	-0.180050
O21	O	0.465311	0.806572	0.050935
O22	O	0.802177	0.548336	0.180036
O23	O	0.802167	0.548346	-0.050941
O24	O	0.586108	0.548332	0.180044
O25	O	0.802165	0.677464	-0.050936
O26	O	0.681387	0.677452	0.180045
O27	O	0.586107	0.677450	0.180049
O28	O	0.802170	0.677460	0.050918
O29	O	0.586088	0.908435	-0.180043
O30	O	0.681390	0.446483	0.180037
O31	O	0.802178	0.446485	0.180033
O32	O	0.802172	0.446491	0.050910
O33	O	0.465305	0.908427	-0.050916
O34	O	0.586094	0.908429	-0.050921
O35	O	0.669298	0.601445	0.114012
O36	O	0.740401	0.601449	0.037997
O37	O	0.669289	0.753471	-0.038008
O38	O	0.598186	0.753467	0.038007
C39	C	0.633741	0.474271	-0.000009
C40	C	0.633741	0.405311	-0.000012
C41	C	0.670855	0.372916	-0.039692
C42	C	0.670857	0.308116	-0.039687
C43	C	0.633742	0.275716	-0.000005
C44	C	0.596627	0.308114	0.039680
C45	C	0.596629	0.372909	0.039679
C46	C	0.596619	0.046805	0.039686
C47	C	0.596618	-0.017992	0.039682
C48	C	0.670847	-0.017988	-0.039679
C49	C	0.670849	0.046806	-0.039681
C50	C	0.633738	0.079195	0.000008
C51	C	0.633736	0.149458	0.000003
C52	C	0.633738	0.205460	-0.000005
C53	C	0.443658	0.677456	0.000005
C54	C	0.379147	0.677454	0.000007
C55	C	0.385961	0.598103	0.039674
C56	C	0.325345	0.598101	0.039677
C57	C	0.257916	0.677456	-0.000001
C58	C	0.251105	0.756819	-0.039669
C59	C	0.311720	0.756818	-0.039665
N60	N	0.135117	0.736526	-0.064577
N61	N	0.077537	0.736522	-0.064580
C62	C	0.075283	0.677464	-0.000015
N63	N	0.132790	0.618398	0.064552
N64	N	0.190376	0.618400	0.064553
C65	C	0.192185	0.677466	-0.000010
C66	C	0.016374	0.598106	0.039659
C67	C	-0.044244	0.598108	0.039665
C68	C	-0.118485	0.756827	-0.039689
C69	C	-0.057867	0.756823	-0.039687
C70	C	0.009560	0.677460	-0.000015
C71	C	0.823819	0.677462	-0.000010
C72	C	0.888330	0.677464	-0.000013
C73	C	0.633729	0.677468	-0.203197
C74	C	0.633726	0.677471	-0.272160
C75	C	0.633737	0.880647	0.000004
C76	C	0.633736	0.949607	0.000006
C77	C	0.596606	0.756824	-0.344232
C78	C	0.596612	0.756822	-0.409027
C79	C	0.633734	0.677465	-0.401748
C80	C	0.670859	0.598105	-0.329668
C81	C	0.670856	0.598109	-0.264875
C82	C	0.670870	0.598090	-0.590971
C83	C	0.670868	0.598093	-0.655772
C84	C	0.596625	0.756803	-0.735123
C85	C	0.596623	0.756806	-0.670330
C86	C	0.633750	0.677447	-0.598256
C87	C	0.633744	0.677451	-0.527999
C88	C	0.633736	0.677460	-0.472004
C89	C	0.633748	0.677450	0.203192
C90	C	0.633751	0.677447	0.272154
C91	C	0.823821	0.474274	-0.000017
C92	C	0.888333	0.405315	-0.000022
C93	C	0.633750	0.474262	0.203185
C94	C	0.633754	0.405299	0.272145
C95	C	0.823831	0.474266	0.203178
C96	C	0.888346	0.405304	0.272135
C97	C	0.443647	0.880652	-0.203183
C98	C	0.379131	0.949614	-0.272141
C99	C	0.443656	0.880644	0.000011
C100	C	0.379144	0.949603	0.000016
C101	C	0.633727	0.880656	-0.203191
C102	C	0.633723	0.949619	-0.272151
C103	C	0.881510	0.372933	-0.039707
C104	C	0.942120	0.308147	-0.039727
C105	C	1.009553	0.275741	-0.000056
C106	C	1.016375	0.308131	0.039631
C107	C	0.955765	0.372919	0.039645
C108	C	0.670875	0.372912	0.344213
C109	C	0.670876	0.308123	0.409015
C110	C	0.633760	0.275718	0.401747
C111	C	0.596635	0.308111	0.329672
C112	C	0.596630	0.372903	0.264872
C113	C	0.955765	0.372921	0.264839
C114	C	1.016390	0.308133	0.329626
C115	C	1.009594	0.275724	0.401708
C116	C	0.942169	0.308114	0.409003
C117	C	0.881545	0.372905	0.344217
C118	C	0.311713	0.982005	-0.264845
C119	C	0.251088	1.046813	-0.329632
C120	C	0.257883	1.079225	-0.401714
C121	C	0.325308	1.046832	-0.409008
C122	C	0.385932	0.982029	-0.344222
C123	C	0.385967	0.981992	0.039695
C124	C	0.325357	1.046795	0.039696
C125	C	0.257924	1.079203	0.000023
C126	C	0.251102	1.046811	-0.039660
C127	C	0.311712	0.982013	-0.039666
C128	C	0.670846	0.982004	-0.264859
C129	C	0.670856	1.046793	-0.329648
C130	C	0.633739	1.079201	-0.401729
C131	C	0.596614	1.046810	-0.409019
C132	C	0.596609	0.982017	-0.344231
H133	H	0.701075	0.399295	-0.072009
C134	C	0.176923	1.082455	-0.083288
C135	C	0.110261	1.153719	-0.083264
C136	C	0.036080	1.189357	-0.126884
C137	C	0.028561	1.153732	-0.170528
C138	C	0.095225	1.082464	-0.170553
C139	C	0.169406	1.046826	-0.126933
H140	H	0.115825	1.180095	-0.050955
H141	H	-0.013269	1.242115	-0.126865
H142	H	-0.026352	1.180114	-0.202818
H143	H	0.089661	1.056088	-0.202862
H144	H	0.218755	0.994068	-0.126952
H145	H	0.701086	1.073160	-0.323697
C146	C	0.332776	1.082487	-0.488302
C147	C	0.266087	1.153761	-0.559558
C148	C	0.273552	1.189414	-0.638853
C149	C	0.347707	1.153793	-0.646894
C150	C	0.414402	1.082514	-0.575636
C151	C	0.406936	1.046861	-0.496340
H152	H	0.211188	1.180134	-0.553608
H153	H	0.224180	1.242180	-0.691603
H154	H	0.353233	1.180185	-0.705593
H155	H	0.469300	1.056142	-0.581585
H156	H	0.456309	0.994096	-0.443590
H157	H	0.633749	1.131960	-0.454477
H158	H	0.566396	0.821421	-0.793816
C159	C	0.176934	0.844109	-0.083319
C160	C	0.154650	0.909580	-0.169504
C161	C	0.080478	0.996874	-0.213153
C162	C	0.028591	1.018697	-0.170617
C163	C	0.050875	0.953225	-0.084428
C164	C	0.125046	0.865931	-0.040778
H165	H	0.193060	0.893427	-0.200996
H166	H	0.063983	1.045340	-0.276957
H167	H	-0.026315	1.083317	-0.202929
H168	H	0.012464	0.969378	-0.052936
H169	H	0.141542	0.817464	0.023025
C170	C	0.460139	0.946357	0.083334
C171	C	0.467629	0.982005	0.126968
C172	C	0.541798	0.946380	0.170605
C173	C	0.608476	0.875107	0.170608
C174	C	0.600988	0.839455	0.126973
C175	C	0.526819	0.875080	0.083335
H176	H	0.418267	1.034770	0.126967
H177	H	0.547341	0.972773	0.202907
H178	H	0.663381	0.848736	0.202911
H179	H	0.650350	0.786691	0.126973
H180	H	0.521277	0.848688	0.051033
C181	C	0.711686	0.946357	-0.185576
C182	C	0.752526	0.981983	-0.177571
C183	C	0.793373	0.946336	-0.098290
C184	C	0.793380	0.875063	-0.027014
C185	C	0.752539	0.839434	-0.035017
C186	C	0.711692	0.875081	-0.114298
H187	H	0.752522	1.034747	-0.230336
H188	H	0.823607	0.972712	-0.092367
H189	H	0.823618	0.848675	0.031674
H190	H	0.752543	0.786670	0.017748
H191	H	0.681458	0.848705	-0.120221
H192	H	0.701069	0.073187	-0.071996
H193	H	0.936552	0.281784	-0.072044
C194	C	0.711710	0.510795	-0.647764
C195	C	0.752552	0.423502	-0.568486
C196	C	0.793391	0.336210	-0.560481
C197	C	0.793388	0.336210	-0.631753
C198	C	0.752544	0.423506	-0.711036
C199	C	0.711706	0.510799	-0.719041
H200	H	0.752556	0.423499	-0.515721
H201	H	0.823626	0.271587	-0.501790
H202	H	0.823619	0.271591	-0.625827
H203	H	0.752541	0.423509	-0.763801
H204	H	0.681470	0.575421	-0.777732
C205	C	0.176926	1.082429	-0.321596
C206	C	0.154653	1.126942	-0.279925
C207	C	0.080494	1.162553	-0.271886
C208	C	0.028608	1.153652	-0.305518
C209	C	0.050880	1.109137	-0.347192
C210	C	0.125039	1.073525	-0.355230
H211	H	0.193063	1.133533	-0.255026
H212	H	0.064007	1.195506	-0.241036
H213	H	-0.026289	1.180014	-0.299568
H214	H	0.012470	1.102546	-0.372091
H215	H	0.141526	1.040572	-0.386080
H216	H	0.566394	1.073206	-0.467716
C217	C	1.090555	0.272470	0.083272
C218	C	1.112867	0.334808	0.062569
C219	C	1.187049	0.299139	0.106215
C220	C	1.238921	0.201132	0.170565
C221	C	1.216610	0.138789	0.191271
C222	C	1.142427	0.174458	0.147625
H223	H	1.074468	0.407363	0.014930
H224	H	1.203565	0.345290	0.090886
H225	H	1.293835	0.174728	0.202874
H226	H	1.255009	0.066234	0.238910
H227	H	1.125912	0.128307	0.162954
C228	C	0.332873	1.082409	0.083359
C229	C	0.371849	1.126927	0.062654
C230	C	0.379367	1.162537	0.106318
C231	C	0.347909	1.153628	0.170687
C232	C	0.308930	1.109107	0.191395
C233	C	0.301412	1.073498	0.147731
H234	H	0.395139	1.133524	0.015002
H235	H	0.408222	1.195494	0.090989
H236	H	0.353474	1.179988	0.203010
H237	H	0.285640	1.102510	0.239047
H238	H	0.272557	1.040541	0.163061
C239	C	0.934705	0.272444	0.488298
C240	C	0.966182	0.281331	0.543765
C241	C	0.958723	0.245650	0.623063
C242	C	0.919786	0.201082	0.646895
C243	C	0.888306	0.192192	0.591427
C244	C	0.895766	0.227874	0.512129
H245	H	0.995008	0.314325	0.526124
H246	H	0.982027	0.252231	0.664124
H247	H	0.914264	0.174669	0.705596
H248	H	0.859481	0.159198	0.609068
H249	H	0.872462	0.221293	0.471069
H250	H	0.701078	0.281739	-0.071997
C251	C	0.332838	0.510807	0.083307
C252	C	0.301380	0.488962	0.147673
C253	C	0.308877	0.401666	0.191301
C254	C	0.347833	0.336215	0.170563
C255	C	0.379294	0.358058	0.106193
C256	C	0.371797	0.445354	0.062565
H257	H	0.272540	0.537415	0.163028
H258	H	0.285588	0.385497	0.238952
H259	H	0.353383	0.271594	0.202859
H260	H	0.408134	0.309605	0.090839
H261	H	0.395087	0.461523	0.014915
C262	C	0.555791	0.082425	0.083341
C263	C	0.575179	0.020049	0.169526
C264	C	0.534349	0.055668	0.213185
C265	C	0.474130	0.153664	0.170658
C266	C	0.454739	0.216046	0.084469
C267	C	0.495570	0.180426	0.040810
H268	H	0.619759	-0.052499	0.201011
H269	H	0.548704	0.009488	0.276988
H270	H	0.443905	0.180031	0.202977
H271	H	0.410160	0.288593	0.052984
H272	H	0.481215	0.226606	-0.022994
H273	H	0.701068	-0.044369	-0.071993
H274	H	0.566372	0.821446	-0.350168
H275	H	0.566391	0.821427	-0.676264
H276	H	0.566376	0.955656	-0.350178
H277	H	0.566393	-0.044370	0.071998
C278	C	0.963278	0.408525	0.083314
C279	C	1.037455	0.372866	0.126955
C280	C	1.044974	0.408467	0.170627
C281	C	0.978315	0.479727	0.170659
C282	C	0.904133	0.515389	0.127016
C283	C	0.896614	0.479789	0.083344
H284	H	1.086805	0.320112	0.126933
H285	H	1.099889	0.382066	0.202934
H286	H	0.983881	0.506080	0.202987
H287	H	0.854783	0.568144	0.127038
H288	H	0.841699	0.506189	0.051037
C289	C	0.711700	0.510795	-0.511698
C290	C	0.792327	0.445319	-0.487875
C291	C	0.833156	0.358018	-0.408597
C292	C	0.793358	0.336192	-0.353143
C293	C	0.712726	0.401670	-0.376965
C294	C	0.671897	0.488971	-0.456242
H295	H	0.821792	0.461474	-0.528926
H296	H	0.892845	0.309547	-0.390963
H297	H	0.823582	0.271567	-0.294457
H298	H	0.683261	0.385515	-0.335913
H299	H	0.612208	0.537442	-0.473877
H300	H	0.566411	0.281725	0.071993
H301	H	0.566406	0.399286	0.071988
H302	H	0.826652	0.399263	0.350168
H303	H	0.633770	0.222960	0.454517
H304	H	0.566416	0.281717	0.323766
H305	H	0.701088	0.533492	-0.323746
H306	H	0.306166	0.821437	-0.071965
C307	C	0.460128	0.510805	0.083322
C308	C	0.467619	0.423517	0.126962
C309	C	0.541788	0.336220	0.170613
C310	C	0.608467	0.336211	0.170624
C311	C	0.600978	0.423502	0.126983
C312	C	0.526809	0.510799	0.083332
H313	H	0.418258	0.423521	0.126955
H314	H	0.547332	0.271601	0.202919
H315	H	0.663371	0.271588	0.202938
H316	H	0.650339	0.423498	0.126990
H317	H	0.521265	0.575418	0.051026
H318	H	0.071276	0.533484	0.071979
H319	H	-0.038690	0.533488	0.071971
C320	C	-0.065361	0.844113	-0.083333
C321	C	-0.033896	0.865938	-0.147696
C322	C	-0.041394	0.953233	-0.191343
C323	C	-0.080355	1.018704	-0.170626
C324	C	-0.111822	0.996882	-0.106259
C325	C	-0.104325	0.909586	-0.062613
H326	H	-0.005052	0.817471	-0.163035
H327	H	-0.018099	0.969387	-0.238991
H328	H	-0.085905	1.083326	-0.202936
H329	H	-0.140666	1.045349	-0.090921
H330	H	-0.127619	0.893432	-0.014964
C331	C	0.711723	0.272494	0.488290
C332	C	0.771940	0.174496	0.543748
C333	C	0.812787	0.138868	0.623020
C334	C	0.793418	0.201238	0.646835
C335	C	0.733198	0.299241	0.591377
C336	C	0.692350	0.334869	0.512104
H337	H	0.786281	0.128321	0.526119
H338	H	0.857366	0.066319	0.664074
H339	H	0.823656	0.174864	0.705518
H340	H	0.718857	0.345416	0.609005
H341	H	0.647772	0.407418	0.471050
H342	H	0.306146	0.955644	-0.071975
H343	H	0.701083	0.533491	-0.206190
H344	H	0.440826	0.955657	-0.350172
H345	H	0.826608	0.399317	-0.072021
C346	C	0.555777	0.844119	-0.488303
C347	C	0.575157	0.909587	-0.512111
C348	C	0.534322	0.996892	-0.591386
C349	C	0.474107	1.018729	-0.646852
C350	C	0.454725	0.953259	-0.623045
C351	C	0.495560	0.865955	-0.543770
H352	H	0.619734	0.893423	-0.471050
H353	H	0.548670	1.045356	-0.609009
H354	H	0.443878	1.083357	-0.705536
H355	H	0.410148	0.969423	-0.664106
H356	H	0.481211	0.817490	-0.526147
H357	H	-0.173386	0.821440	-0.071996
H358	H	0.306166	0.955619	-0.206158
H359	H	1.058899	0.222986	-0.000074
H360	H	0.701099	0.399290	0.350145
H361	H	0.208514	1.131991	-0.454461
H362	H	0.566404	0.399264	0.206194
H363	H	0.208578	1.131966	0.000034
H364	H	0.961311	0.399298	0.206152
H365	H	1.071285	0.281768	0.323673
H366	H	1.058964	0.222967	0.454455
