data_functionalizedCrystal
_audit_creation_method	'MofGen! by Chris Wilmer'
_symmetry_space_group_name_H-M	'P1'
_symmetry_Int_Tables_number	1
_symmetry_cell_setting	triclinic
loop_
_symmetry_equiv_pos_as_xyz
  x,y,z
_cell_length_a	18.215407
_cell_length_b	13.032721
_cell_length_c	13.032268
_cell_angle_alpha	103.289627
_cell_angle_beta	97.164932
_cell_angle_gamma	97.201717
loop_
_atom_site_label
_atom_site_type_symbol
_atom_site_fract_x
_atom_site_fract_y
_atom_site_fract_z
Zn1	Zn	1.021915	-0.499143	-0.654168
Zn2	Zn	1.021834	-0.654228	-0.499116
Zn3	Zn	0.916750	-0.476632	-0.476591
Zn4	Zn	0.880928	-0.676693	-0.676662
O5	O	0.960357	-0.576674	-0.576634
O6	O	1.124885	-0.519735	-0.633612
O7	O	1.022852	-0.611846	-0.347507
O8	O	0.945725	-0.330988	-0.481306
O9	O	1.124826	-0.633675	-0.519696
O10	O	1.022989	-0.347528	-0.611771
O11	O	0.945647	-0.481367	-0.330959
O12	O	0.809017	-0.503151	-0.503118
O13	O	0.884673	-0.671964	-0.822299
O14	O	0.782699	-0.650135	-0.650110
O15	O	0.988255	-0.541519	-0.805772
O16	O	0.988118	-0.805837	-0.541508
O17	O	0.884595	-0.822342	-0.671951
C18	C	0.769156	-0.576639	-0.576611
C19	C	0.687354	-0.576653	-0.576630
C20	C	0.499165	-0.517478	-0.636071
C21	C	0.422305	-0.517487	-0.636076
C22	C	0.422296	-0.635902	-0.517219
C23	C	0.499156	-0.635886	-0.517209
C24	C	0.537587	-0.576676	-0.576642
C25	C	0.383868	-0.576702	-0.576656
C26	C	0.300532	-0.576713	-0.576661
C27	C	0.620928	-0.576663	-0.576636
C28	C	0.932478	-0.852631	-0.611638
C29	C	0.920615	-0.970691	-0.626648
C30	C	0.966582	-1.015131	-0.568848
C31	C	0.954323	-1.137152	-0.584360
C32	C	1.152304	-0.576710	-0.576658
C33	C	1.234101	-0.576725	-0.576668
C34	C	0.932477	-0.611758	-0.853649
C35	C	0.920596	-0.626709	-0.971696
C36	C	0.988362	-0.299642	-0.541517
C37	C	1.000296	-0.181588	-0.526552
C38	C	0.966550	-0.568833	-1.016148
C39	C	0.954272	-0.584284	-1.138155
C40	C	0.988178	-0.541650	-0.300688
C41	C	1.000231	-0.526400	-0.182603
H42	H	0.530441	-0.684093	-0.468809
Cl43	Cl	1.041362	-0.934410	-0.474720
Cl44	Cl	1.041313	-0.474641	-0.935454
Cl45	Cl	0.547477	-0.443037	-0.710780
Cl46	Cl	0.374006	-0.443062	-0.710790
Cl47	Cl	0.879547	-1.217871	-0.678506
Cl48	Cl	0.879486	-0.678447	-1.218841
Cl49	Cl	1.075023	-0.432244	-1.101921
H50	H	1.048732	-1.129304	-0.465583
H51	H	0.390995	-0.684110	-0.468833
H52	H	0.872188	-1.022980	-0.687622
H53	H	0.872160	-0.687690	-1.023963
