data_functionalizedCrystal
_audit_creation_method	'MofGen! by Chris Wilmer'
_symmetry_space_group_name_H-M	'P1'
_symmetry_Int_Tables_number	1
_symmetry_cell_setting	triclinic
loop_
_symmetry_equiv_pos_as_xyz
  x,y,z
_cell_length_a	16.109301
_cell_length_b	10.654545
_cell_length_c	9.730223
_cell_angle_alpha	89.999987
_cell_angle_beta	90.006472
_cell_angle_gamma	83.972280
loop_
_atom_site_label
_atom_site_type_symbol
_atom_site_fract_x
_atom_site_fract_y
_atom_site_fract_z
O1	O	0.116757	1.666253	0.114281
O2	O	0.127886	1.300623	0.114287
O3	O	0.001350	1.493482	0.114270
O4	O	0.243293	1.473394	0.114298
O5	O	0.001345	1.493481	-0.114310
O6	O	0.127881	1.300621	-0.114293
O7	O	0.116751	1.666251	-0.114299
Zn8	Zn	0.122315	1.483436	-0.150588
Zn9	Zn	0.122323	1.483438	0.150576
O10	O	0.243287	1.473392	-0.114282
C11	C	0.127067	1.253835	-0.000002
C12	C	0.124625	1.114425	-0.000000
C13	C	-0.029632	1.492668	-0.000021
C14	C	-0.121942	1.490228	-0.000023
C15	C	0.123472	1.048935	-0.124600
C16	C	0.121163	0.917947	-0.124600
C17	C	0.121164	0.917949	0.124610
C18	C	0.123466	1.048936	0.124609
C19	C	-0.343569	1.598994	-0.000003
C20	C	-0.430303	1.596692	0.000009
C21	C	-0.411787	1.367871	0.000007
C22	C	-0.325054	1.370175	0.000006
C23	C	-0.290948	1.485740	-0.000006
C24	C	-0.464414	1.481134	0.000007
C25	C	-0.558455	1.478638	0.000019
C26	C	-0.196901	1.488237	-0.000016
C27	C	0.274270	1.474207	0.000012
C28	C	0.366580	1.476646	0.000023
C29	C	0.117571	1.713039	-0.000007
C30	C	0.120013	1.852450	0.000001
N31	N	0.122322	1.483440	0.356113
N32	N	0.122309	1.483444	-0.356124
C33	C	0.066403	1.568997	0.428031
C34	C	0.066398	1.569003	0.571914
C35	C	0.178234	1.397883	0.571947
C36	C	0.178242	1.397884	0.428067
H37	H	0.120224	0.864631	-0.226062
H38	H	-0.439567	1.273782	0.000014
H39	H	0.124415	1.102252	-0.226065
O40	O	-0.268293	1.248012	-0.000015
H41	H	-0.280496	1.192696	0.093140
H42	H	0.223782	1.328213	0.369507
H43	H	0.120222	0.864612	0.226062
O44	O	0.124713	1.119586	0.259004
H45	H	0.123534	1.052042	0.345653
O46	O	0.238524	1.305572	0.649553
H47	H	0.229113	1.319924	0.761686
O48	O	-0.306778	1.723632	0.000013
H49	H	-0.357944	1.801997	0.000035
H50	H	-0.473144	1.688916	0.000015
O51	O	0.006104	1.661289	0.350416
H52	H	-0.032772	1.720793	0.424604
H53	H	0.020865	1.638672	0.630466
