data_functionalizedCrystal
_audit_creation_method	'MofGen! by Chris Wilmer'
_symmetry_space_group_name_H-M	'P1'
_symmetry_Int_Tables_number	1
_symmetry_cell_setting	triclinic
loop_
_symmetry_equiv_pos_as_xyz
  x,y,z
_cell_length_a	14.908993
_cell_length_b	14.908520
_cell_length_c	14.908308
_cell_angle_alpha	83.639235
_cell_angle_beta	83.629285
_cell_angle_gamma	96.420918
loop_
_atom_site_label
_atom_site_type_symbol
_atom_site_fract_x
_atom_site_fract_y
_atom_site_fract_z
Zn1	Zn	1.335364	-0.308039	0.450896
Zn2	Zn	1.835364	0.191961	0.950896
Zn3	Zn	1.335261	-0.450690	0.308273
Zn4	Zn	1.835261	0.049310	0.808273
Zn5	Zn	1.192735	-0.308082	0.308277
Zn6	Zn	1.692735	0.191918	0.808277
Zn7	Zn	1.174095	-0.469240	0.469439
Zn8	Zn	1.674095	0.030760	0.969439
O9	O	1.259364	-0.384013	0.384221
O10	O	1.759364	0.115987	0.884221
O11	O	1.462490	-0.319180	0.424215
O12	O	1.962490	0.180820	0.924215
O13	O	1.324112	-0.424028	0.181139
O14	O	1.824112	0.075972	0.681139
O15	O	1.219499	-0.180931	0.319438
O16	O	1.719499	0.319069	0.819438
O17	O	1.462414	-0.423986	0.319430
O18	O	1.962414	0.076014	0.819430
O19	O	1.324288	-0.180899	0.424219
O20	O	1.824288	0.319101	0.924219
O21	O	1.219399	-0.319254	0.181142
O22	O	1.719399	0.180746	0.681142
O23	O	1.063123	-0.337241	0.337418
O24	O	1.563123	0.162759	0.837418
O25	O	1.187731	-0.455601	0.594114
O26	O	1.687731	0.044399	1.094114
O27	O	1.049429	-0.455643	0.455822
O28	O	1.549429	0.044357	0.955822
O29	O	1.306214	-0.337167	0.580491
O30	O	1.806214	0.162833	1.080491
O31	O	1.306038	-0.580296	0.337410
O32	O	1.806038	-0.080296	0.837410
O33	O	1.187631	-0.593925	0.455818
O34	O	1.687631	-0.093925	0.955818
C35	C	1.023310	-0.398460	0.398633
C36	C	1.523310	0.101540	0.898633
C37	C	0.922323	-0.404664	0.404822
C38	C	1.422323	0.095336	0.904822
C39	C	0.746765	-0.292865	0.293307
C40	C	1.246765	0.207135	0.793307
C41	C	0.651879	-0.298691	0.299118
C42	C	1.151879	0.201309	0.799118
C43	C	0.637662	-0.422146	0.422251
C44	C	1.137662	0.077854	0.922251
C45	C	0.732548	-0.416320	0.416439
C46	C	1.232548	0.083680	0.916439
C47	C	0.787097	-0.351677	0.351966
C48	C	1.287097	0.148323	0.851966
C49	C	0.881985	-0.345847	0.346160
C50	C	1.381985	0.154153	0.846160
C51	C	0.867766	-0.469305	0.469287
C52	C	1.367766	0.030695	0.969287
C53	C	0.772880	-0.475131	0.475098
C54	C	1.272880	0.024869	0.975098
C55	C	1.244824	-0.620077	0.398644
C56	C	1.744824	-0.120077	0.898644
C57	C	1.238685	-0.721064	0.404840
C58	C	1.738685	-0.221064	0.904840
C59	C	1.350561	-0.896574	0.293270
C60	C	1.850561	-0.396574	0.793270
C61	C	1.344796	-0.991459	0.299088
C62	C	1.844796	-0.491459	0.799088
C63	C	1.221395	-1.005721	0.422297
C64	C	1.721395	-0.505721	0.922297
C65	C	1.227160	-0.910836	0.416479
C66	C	1.727160	-0.410836	0.916479
C67	C	1.291744	-0.856265	0.351962
C68	C	1.791744	-0.356265	0.851962
C69	C	1.297504	-0.761378	0.346141
C70	C	1.797504	-0.261378	0.846141
C71	C	1.174108	-0.775642	0.469354
C72	C	1.674108	-0.275642	0.969354
C73	C	1.168344	-0.870527	0.475172
C74	C	1.668344	-0.370527	0.975172
C75	C	1.496339	-0.369509	0.369754
C76	C	1.996339	0.130491	0.869754
C77	C	1.597324	-0.363329	0.363589
C78	C	2.097324	0.136671	0.863589
C79	C	1.244905	-0.398449	0.621189
C80	C	1.744905	0.101551	1.121189
C81	C	1.238743	-0.404600	0.722171
C82	C	1.738743	0.095400	1.222171
C83	C	1.273984	-0.147026	0.369761
C84	C	1.773984	0.352974	0.869761
C85	C	1.280215	-0.046036	0.363598
C86	C	1.780215	0.453964	0.863598
C87	C	1.273823	-0.369564	0.148169
C88	C	1.773823	0.130436	0.648169
C89	C	1.280177	-0.363145	0.047161
C90	C	1.780177	0.136855	0.547161
C91	C	1.350540	-0.292814	0.897740
C92	C	1.850540	0.207186	1.397740
C93	C	1.344754	-0.298591	0.992621
C94	C	1.844754	0.201409	1.492621
C95	C	1.221380	-0.421926	1.006814
C96	C	1.721380	0.078074	1.506814
C97	C	1.227166	-0.416149	0.911934
C98	C	1.727166	0.083851	1.411934
C99	C	1.291750	-0.351592	0.857400
C100	C	1.791750	0.148408	1.357400
C101	C	1.297540	-0.345820	0.762517
C102	C	1.797540	0.154180	1.262517
C103	C	1.174162	-0.469150	0.776712
C104	C	1.674162	0.030850	1.276712
C105	C	1.168376	-0.474927	0.871593
C106	C	1.668376	0.025073	1.371593
H107	H	0.900614	-0.517189	0.517057
H108	H	1.400614	-0.017189	1.017057
H109	H	1.403130	-0.240253	0.853338
H110	H	1.903130	0.259747	1.353338
Cl111	Cl	0.601179	-0.224755	0.225370
Cl112	Cl	1.101179	0.275245	0.725370
H113	H	1.403142	-0.852141	0.240732
H114	H	1.903142	-0.352141	0.740732
Cl115	Cl	0.815344	-0.211595	0.212265
Cl116	Cl	1.315344	0.288405	0.712265
H117	H	1.350089	-0.716947	0.293606
H118	H	1.850089	-0.216947	0.793606
H119	H	1.392692	-1.024274	0.251296
H120	H	1.892692	-0.524274	0.751296
H121	H	1.168820	-1.050169	0.474829
H122	H	1.668820	-0.550169	0.974829
H123	H	1.126293	-0.517014	0.743857
H124	H	1.626293	-0.017014	1.243857
H125	H	1.392625	-0.250725	1.025462
H126	H	1.892625	0.249275	1.525462
H127	H	1.168800	-0.474485	1.051232
H128	H	1.668800	0.025515	1.551232
H129	H	1.115763	-0.914971	0.527702
H130	H	1.615763	-0.414971	1.027702
H131	H	1.115793	-0.527486	0.916007
H132	H	1.615793	-0.027486	1.416007
Cl133	Cl	1.100152	-0.724964	0.543132
Cl134	Cl	1.600152	-0.224964	1.043132
Cl135	Cl	0.704296	-0.556403	0.556135
Cl136	Cl	1.204296	-0.056403	1.056135
Cl137	Cl	0.950559	-0.264581	0.265111
Cl138	Cl	1.450559	0.235419	0.765111
Cl139	Cl	1.378730	-0.264666	0.693961
Cl140	Cl	1.878730	0.235334	1.193961
H141	H	0.593232	-0.474783	0.474733
H142	H	1.093232	0.025217	0.974733
