data_functionalizedCrystal
_audit_creation_method	'MofGen! by Chris Wilmer'
_symmetry_space_group_name_H-M	'P1'
_symmetry_Int_Tables_number	1
_symmetry_cell_setting	triclinic
loop_
_symmetry_equiv_pos_as_xyz
  x,y,z
_cell_length_a	18.101395
_cell_length_b	19.805407
_cell_length_c	19.805399
_cell_angle_alpha	89.983114
_cell_angle_beta	89.973474
_cell_angle_gamma	90.031104
loop_
_atom_site_label
_atom_site_type_symbol
_atom_site_fract_x
_atom_site_fract_y
_atom_site_fract_z
Zn1	Zn	-0.294836	1.034696	-0.382731
Zn2	Zn	-0.418683	1.034607	-0.269548
Zn3	Zn	-0.294860	0.921516	-0.269556
Zn4	Zn	-0.418641	0.921465	-0.382695
O5	O	-0.356755	0.978071	-0.326132
O6	O	-0.311273	1.129400	-0.367729
O7	O	-0.402285	1.019589	-0.174832
O8	O	-0.191224	0.936588	-0.284587
O9	O	-0.402263	1.129335	-0.284574
O10	O	-0.191207	1.019741	-0.367737
O11	O	-0.311313	0.936501	-0.174838
O12	O	-0.311272	0.826792	-0.284552
O13	O	-0.402190	0.936501	-0.477416
O14	O	-0.402213	0.826755	-0.367674
O15	O	-0.311232	1.019691	-0.477443
O16	O	-0.522310	1.019539	-0.284538
O17	O	-0.522279	0.936414	-0.367667
C18	C	-0.356741	0.802215	-0.326110
C19	C	-0.356753	0.726983	-0.326117
C20	C	-0.404177	0.691637	-0.369329
C21	C	-0.404178	0.620948	-0.369339
C22	C	-0.356758	0.585607	-0.326132
C23	C	-0.309329	0.620958	-0.282919
C24	C	-0.309324	0.691645	-0.282913
C25	C	-0.309345	0.335885	-0.282941
C26	C	-0.309355	0.265193	-0.282948
C27	C	-0.404199	0.265188	-0.369367
C28	C	-0.404195	0.335875	-0.369361
C29	C	-0.356763	0.371220	-0.326150
C30	C	-0.356761	0.447868	-0.326141
C31	C	-0.356763	0.508960	-0.326137
C32	C	-0.549166	0.977980	-0.326112
C33	C	-0.631480	0.978003	-0.326127
C34	C	-0.930571	0.978152	-0.326163
C35	C	-0.899257	0.925973	-0.378595
C36	C	-0.813639	0.925725	-0.378431
C37	C	-0.782188	0.978078	-0.326146
C38	C	-0.813338	0.958771	-0.254811
C39	C	-0.898984	0.958434	-0.255125
C40	C	-0.898915	1.049752	-0.344438
C41	C	-0.813264	1.049331	-0.346002
C42	C	-0.698329	0.978038	-0.326131
C43	C	-1.014430	0.978191	-0.326173
C44	C	-0.163593	0.978180	-0.326167
C45	C	-0.081279	0.978227	-0.326182
C46	C	-0.356704	0.978100	-0.502675
C47	C	-0.356682	0.978113	-0.577907
C48	C	-0.356770	1.154613	-0.326155
C49	C	-0.356776	1.229845	-0.326164
C50	C	-0.309308	0.934862	-0.613254
C51	C	-0.309294	0.934871	-0.683942
C52	C	-0.356650	0.978135	-0.719283
C53	C	-0.404029	1.021389	-0.683931
C54	C	-0.404046	1.021375	-0.613244
C55	C	-0.403959	1.021442	-0.969005
C56	C	-0.403937	1.021454	-1.039697
C57	C	-0.309207	0.934938	-1.039703
C58	C	-0.309224	0.934925	-0.969016
C59	C	-0.356606	0.978175	-0.933670
C60	C	-0.356622	0.978163	-0.857022
C61	C	-0.356631	0.978151	-0.795930
C62	C	-0.356753	0.978080	-0.150276
C63	C	-0.356566	0.978198	-0.075045
H64	H	-0.270716	0.592178	-0.247742
H65	H	-0.270720	0.899649	-0.712719
Cl66	Cl	-0.929931	0.877626	-0.231225
H67	H	-0.792575	0.937804	-0.431325
Cl68	Cl	-0.930985	0.944432	-0.460526
Cl69	Cl	-0.932600	0.844534	-0.360156
Cl70	Cl	-0.932182	1.076931	-0.423381
Cl71	Cl	-0.463519	1.075820	-0.924580
H72	H	-0.442591	1.056612	-0.712711
H73	H	-0.919164	1.088627	-0.306250
Cl74	Cl	-0.463476	1.075846	-1.084124
H75	H	-0.270735	0.236420	-0.247765
H76	H	-0.442617	1.056600	-0.584466
Cl77	Cl	-0.780199	1.112531	-0.291344
H78	H	-0.792901	1.063891	-0.398501
Cl79	Cl	-0.249701	0.736080	-0.228589
Cl80	Cl	-0.463798	0.736059	-0.423646
Cl81	Cl	-0.249714	0.380309	-0.228620
H82	H	-0.442811	0.364646	-0.404542
H83	H	-0.442797	0.592173	-0.404525
H84	H	-0.442818	0.236402	-0.404554
Cl85	Cl	-0.249767	0.880472	-0.568833
H86	H	-0.793215	0.872653	-0.366326
H87	H	-0.919700	0.994790	-0.214727
H88	H	-0.792968	0.995580	-0.214680
Cl89	Cl	-0.780328	0.878816	-0.230481
H90	H	-0.270659	0.899697	-0.940245
H91	H	-0.270629	0.899719	-1.068490
