data_functionalizedCrystal
_audit_creation_method	'MofGen! by Chris Wilmer'
_symmetry_space_group_name_H-M	'P1'
_symmetry_Int_Tables_number	1
_symmetry_cell_setting	triclinic
loop_
_symmetry_equiv_pos_as_xyz
  x,y,z
_cell_length_a	12.811439
_cell_length_b	12.837942
_cell_length_c	11.295483
_cell_angle_alpha	85.469583
_cell_angle_beta	88.711249
_cell_angle_gamma	89.411061
loop_
_atom_site_label
_atom_site_type_symbol
_atom_site_fract_x
_atom_site_fract_y
_atom_site_fract_z
O1	O	-1.403249	-0.143339	0.052498
O2	O	-1.101287	-0.156245	0.019890
O3	O	-1.245572	0.001190	0.035478
O4	O	-1.258964	-0.300774	0.036910
O5	O	-1.232897	-0.012616	0.232160
O6	O	-1.088612	-0.170051	0.216571
O7	O	-1.390574	-0.157145	0.249180
Cu8	Cu	-1.238436	-0.164859	0.250834
Cu9	Cu	-1.253425	-0.148531	0.018235
O10	O	-1.246289	-0.314580	0.233591
C11	C	-1.056031	-0.162002	0.114028
C12	C	-0.940066	-0.158577	0.101505
C13	C	-0.708334	-0.167174	0.292420
C14	C	-0.599374	-0.163956	0.280660
C15	C	-0.613184	-0.148915	0.066226
C16	C	-0.722144	-0.152133	0.077986
C17	C	-0.769715	-0.161264	0.191087
C18	C	-0.878677	-0.164490	0.202846
C19	C	-0.892485	-0.149442	-0.011587
C20	C	-0.783525	-0.146223	-0.023347
C21	C	-1.234710	0.032962	0.133330
C22	C	-1.221218	0.148200	0.131871
N23	N	-1.227900	-0.176342	0.414432
C24	C	-0.435830	-0.151391	0.155042
C25	C	-0.551794	-0.154828	0.167566
C26	C	-1.257150	-0.346351	0.135737
C27	C	-1.270643	-0.461588	0.137188
C28	C	-1.383420	0.387229	0.149362
C29	C	-1.370748	0.495506	0.147991
C30	C	-1.183204	0.473033	0.127751
C31	C	-1.195876	0.364756	0.129122
C32	C	-1.295987	0.321858	0.139929
C33	C	-1.308658	0.213579	0.141308
C34	C	-1.121115	0.191108	0.121059
C35	C	-1.108443	0.299385	0.119689
N36	N	-1.263968	-0.137039	-0.145362
C37	C	-1.339802	-0.054318	0.675811
C38	C	-1.331848	-0.063003	0.799616
C39	C	-1.204035	-0.202393	0.785847
C40	C	-1.211988	-0.193707	0.662043
C41	C	-1.279875	-0.119668	0.607029
C42	C	-1.287834	-0.110989	0.483223
C43	C	-1.160015	-0.250372	0.469456
C44	C	-1.152061	-0.259058	0.593261
H45	H	-0.744777	-0.138784	-0.115430
Cl46	Cl	-1.118684	-0.295454	0.855018
Cl47	Cl	-0.982596	0.353325	0.106093
H48	H	-1.343113	-0.050705	0.438433
Cl49	Cl	-1.011191	0.108920	0.109215
Cl50	Cl	-0.938479	-0.175973	0.345027
H51	H	-0.747066	-0.174623	0.384511
H52	H	-1.464934	0.352301	0.158173
H53	H	-1.380645	-0.009787	0.855615
H54	H	-1.111222	-0.303588	0.413440
H55	H	-1.395086	0.005961	0.631020
Cl56	Cl	-1.066719	-0.352129	0.662429
H57	H	-0.549401	-0.168774	0.363176
H58	H	-0.574433	-0.141462	-0.025855
Cl59	Cl	-0.969655	-0.142030	-0.138985
H60	H	-1.390173	0.178653	0.150112
Cl61	Cl	-1.480670	0.577684	0.159847
H62	H	-1.101698	0.507980	0.118940
