data_functionalizedCrystal
_audit_creation_method	'MofGen! by Chris Wilmer'
_symmetry_space_group_name_H-M	'P1'
_symmetry_Int_Tables_number	1
_symmetry_cell_setting	triclinic
loop_
_symmetry_equiv_pos_as_xyz
  x,y,z
_cell_length_a	13.635800
_cell_length_b	7.076093
_cell_length_c	11.891649
_cell_angle_alpha	62.548430
_cell_angle_beta	148.207557
_cell_angle_gamma	117.701465
loop_
_atom_site_label
_atom_site_type_symbol
_atom_site_fract_x
_atom_site_fract_y
_atom_site_fract_z
V1	V	-1.963305	0.663535	-0.291704
O2	O	-1.766124	0.652430	0.017518
O3	O	-2.123960	0.657529	-0.581767
O4	O	-1.833067	0.953595	-0.285681
O5	O	-2.059031	0.354314	-0.280618
V6	V	-2.194907	0.626728	-0.254899
O7	O	-2.116222	0.744274	-0.372439
O8	O	-2.267089	0.545989	-0.174164
O9	O	-1.922649	0.632734	0.035164
O10	O	-2.450786	0.637833	-0.564122
O11	O	-2.157879	0.935948	-0.265986
O12	O	-2.213542	0.336668	-0.260922
V13	V	-1.463305	0.663535	-0.291704
O14	O	-1.266124	0.652430	0.017518
O15	O	-1.623960	0.657529	-0.581767
O16	O	-1.333067	0.953595	-0.285681
O17	O	-1.559031	0.354314	-0.280618
V18	V	-1.694907	0.626728	-0.254899
O19	O	-1.616222	0.744274	-0.372439
O20	O	-1.767089	0.545989	-0.174164
O21	O	-1.422649	0.632734	0.035164
O22	O	-1.950786	0.637833	-0.564122
O23	O	-1.657879	0.935948	-0.265986
O24	O	-1.713542	0.336668	-0.260922
C25	C	-1.723798	1.024341	-0.274829
C26	C	-1.657962	1.265913	-0.271764
C27	C	-2.094867	0.646692	-0.652529
C28	C	-2.269376	0.643664	-0.894107
C29	C	-2.154481	0.265910	-0.271770
C30	C	-2.209740	0.024336	-0.274829
C31	C	-1.783433	0.643576	0.105912
C32	C	-1.598340	0.646654	0.347483
