data_functionalizedCrystal
_audit_creation_method	'MofGen! by Chris Wilmer'
_symmetry_space_group_name_H-M	'P1'
_symmetry_Int_Tables_number	1
_symmetry_cell_setting	triclinic
loop_
_symmetry_equiv_pos_as_xyz
  x,y,z
_cell_length_a	14.971486
_cell_length_b	15.944551
_cell_length_c	14.048226
_cell_angle_alpha	89.992615
_cell_angle_beta	89.998499
_cell_angle_gamma	83.556434
loop_
_atom_site_label
_atom_site_type_symbol
_atom_site_fract_x
_atom_site_fract_y
_atom_site_fract_z
O1	O	1.186829	0.109463	-0.079053
O2	O	1.686829	0.609463	0.420947
O3	O	0.926415	0.122572	-0.079079
O4	O	1.426415	0.622572	0.420921
O5	O	1.063733	-0.006251	-0.079057
O6	O	1.563733	0.493749	0.420943
O7	O	1.049510	0.238286	-0.079076
O8	O	1.549510	0.738286	0.420924
O9	O	1.063717	-0.006258	0.079264
O10	O	1.563717	0.493742	0.579264
O11	O	0.926398	0.122564	0.079242
O12	O	1.426398	0.622564	0.579242
O13	O	1.186812	0.109456	0.079268
O14	O	1.686812	0.609456	0.579268
Zn15	Zn	1.056603	0.116009	0.104392
Zn16	Zn	1.556603	0.616009	0.604392
Zn17	Zn	1.056624	0.116019	-0.104203
Zn18	Zn	1.556624	0.616019	0.395797
O19	O	1.049494	0.238278	0.079246
O20	O	1.549494	0.738278	0.579246
C21	C	0.893082	0.121982	0.000078
C22	C	1.393082	0.621982	0.500078
C23	C	0.793787	0.120225	0.000068
C24	C	1.293787	0.620225	0.500068
C25	C	0.736480	0.195904	0.000064
C26	C	1.236480	0.695904	0.500064
C27	C	0.643182	0.194249	0.000078
C28	C	1.143182	0.694249	0.500078
C29	C	0.607194	0.116913	0.000090
C30	C	1.107194	0.616913	0.500090
C31	C	0.664508	0.041227	0.000097
C32	C	1.164508	0.541227	0.500097
C33	C	0.757804	0.042884	0.000090
C34	C	1.257804	0.542884	0.500090
C35	C	0.470049	0.037780	0.000111
C36	C	0.970049	0.537780	0.500111
C37	C	0.376747	0.036123	0.000116
C38	C	0.876747	0.536123	0.500116
C39	C	0.355428	0.189145	0.000099
C40	C	0.855428	0.689145	0.500099
C41	C	0.448724	0.190801	0.000092
C42	C	0.948724	0.690801	0.500092
C43	C	0.506032	0.115116	0.000097
C44	C	1.006032	0.615116	0.500097
C45	C	1.063134	-0.037549	0.000104
C46	C	1.563134	0.462451	0.500104
C47	C	1.061364	-0.130797	0.000104
C48	C	1.561364	0.369203	0.500104
C49	C	0.972017	-0.345738	0.000082
C50	C	1.472017	0.154262	0.500082
C51	C	1.013499	-0.406720	0.078148
C52	C	1.513499	0.093280	0.578148
C53	C	1.058162	-0.301526	0.000096
C54	C	1.558162	0.198474	0.500096
C55	C	1.013535	-0.406696	-0.077944
C56	C	1.513535	0.093304	0.422056
C57	C	1.055062	-0.466441	0.000085
C58	C	1.555062	0.033559	0.500085
C59	C	1.099667	-0.361279	0.078227
C60	C	1.599667	0.138721	0.578227
C61	C	1.099692	-0.361248	-0.077935
C62	C	1.599692	0.138752	0.422065
C63	C	1.141236	-0.422212	0.000150
C64	C	1.641236	0.077788	0.500150
C65	C	1.059945	-0.206522	0.000104
C66	C	1.559945	0.293478	0.500104
C67	C	1.053286	-0.561444	0.000084
C68	C	1.553286	-0.061444	0.500084
C69	C	1.220145	0.110046	0.000109
C70	C	1.720145	0.610046	0.500109
C71	C	1.319440	0.111802	0.000112
C72	C	1.819440	0.611802	0.500112
C73	C	1.050093	0.269576	0.000083
C74	C	1.550093	0.769576	0.500083
C75	C	1.051863	0.362824	0.000076
C76	C	1.551863	0.862824	0.500076
N77	N	1.056594	0.116001	0.246753
N78	N	1.556594	0.616001	0.746753
N79	N	1.056640	0.116019	-0.246564
N80	N	1.556640	0.616019	0.253436
C81	C	1.117418	0.058982	0.296581
C82	C	1.617418	0.558982	0.796581
C83	C	1.117424	0.058982	0.396238
C84	C	1.617424	0.558982	0.896238
C85	C	1.056610	0.116005	0.446066
C86	C	1.556610	0.616005	0.946066
C87	C	0.995780	0.173027	0.396231
C88	C	1.495780	0.673027	0.896231
C89	C	0.995770	0.173022	0.296575
C90	C	1.495770	0.673022	0.796575
C91	C	0.995806	0.173033	0.603945
C92	C	1.495806	0.673033	1.103945
C93	C	0.995816	0.173038	0.703608
C94	C	1.495816	0.673038	1.203608
C95	C	1.117459	0.058992	0.703608
C96	C	1.617459	0.558992	1.203608
C97	C	1.117450	0.058988	0.603952
C98	C	1.617450	0.558988	1.103952
C99	C	1.056621	0.116011	0.554124
C100	C	1.556621	0.616011	1.054124
H101	H	0.765774	0.258881	0.000053
H102	H	1.265774	0.758881	0.500053
Br103	Br	0.913245	0.250419	0.536325
Br104	Br	1.413245	0.750419	1.036325
H105	H	1.166988	0.012562	0.744184
H106	H	1.666988	0.512562	1.244184
H107	H	1.166973	0.012560	0.563383
H108	H	1.666973	0.512560	1.063383
Br109	Br	0.565411	0.296962	0.000069
Br110	Br	1.065411	0.796962	0.500069
H111	H	1.136103	-0.341080	-0.143930
H112	H	1.636103	0.158920	0.356070
H113	H	1.166943	0.012551	0.256017
H114	H	1.666943	0.512551	0.756017
Br115	Br	0.913279	0.250430	0.771225
Br116	Br	1.413279	0.750430	1.271225
H117	H	0.804463	-0.018742	0.000093
H118	H	1.304463	0.481258	0.500093
Br119	Br	0.852839	-0.290338	0.000190
Br120	Br	1.352839	0.209662	0.500190
Br121	Br	1.260518	-0.477368	0.000228
Br122	Br	1.760518	0.022632	0.500228
H123	H	1.166951	0.012552	0.436808
H124	H	1.666951	0.512552	0.936808
Br125	Br	0.913214	0.250403	0.228951
Br126	Br	1.413214	0.750403	0.728951
Br127	Br	0.497566	0.295759	0.000061
Br128	Br	0.997566	0.795759	0.500061
Br129	Br	0.327905	-0.068834	0.000165
Br130	Br	0.827905	0.431166	0.500165
Br131	Br	0.952763	-0.440298	0.188141
Br132	Br	1.452763	0.059702	0.688141
Br133	Br	0.913237	0.250411	0.463851
Br134	Br	1.413237	0.750411	0.963851
H135	H	0.308763	0.250771	0.000099
H136	H	0.808763	0.750771	0.500099
H137	H	0.516708	-0.023852	0.000117
H138	H	1.016708	0.476148	0.500117
Br139	Br	0.615667	-0.063731	0.000123
Br140	Br	1.115667	0.436269	0.500123
Br141	Br	1.160340	-0.327915	0.188349
Br142	Br	1.660340	0.172085	0.688349
H143	H	0.977095	-0.426804	-0.143948
H144	H	1.477095	0.073196	0.356052
