data_functionalizedCrystal
_audit_creation_method	'MofGen! by Chris Wilmer'
_symmetry_space_group_name_H-M	'P1'
_symmetry_Int_Tables_number	1
_symmetry_cell_setting	triclinic
loop_
_symmetry_equiv_pos_as_xyz
  x,y,z
_cell_length_a	18.215407
_cell_length_b	25.639239
_cell_length_c	18.215399
_cell_angle_alpha	89.967555
_cell_angle_beta	89.983176
_cell_angle_gamma	90.039134
loop_
_atom_site_label
_atom_site_type_symbol
_atom_site_fract_x
_atom_site_fract_y
_atom_site_fract_z
Zn1	Zn	1.124980	-0.208137	-0.416105
Zn2	Zn	1.458313	0.125196	-0.082772
Zn3	Zn	1.791646	0.458529	0.250561
Zn4	Zn	1.124865	-0.295577	-0.293034
Zn5	Zn	1.458198	0.037756	0.040299
Zn6	Zn	1.791531	0.371089	0.373632
Zn7	Zn	1.001919	-0.208158	-0.293053
Zn8	Zn	1.335252	0.125175	0.040281
Zn9	Zn	1.668585	0.458508	0.373614
Zn10	Zn	1.001848	-0.295544	-0.416059
Zn11	Zn	1.335182	0.037789	-0.082726
Zn12	Zn	1.668515	0.371122	0.250607
O13	O	1.063403	-0.251854	-0.354563
O14	O	1.396736	0.081479	-0.021230
O15	O	1.730069	0.414812	0.312104
O16	O	1.227949	-0.219742	-0.399791
O17	O	1.561282	0.113592	-0.066458
O18	O	1.894615	0.446925	0.266875
O19	O	1.108537	-0.284003	-0.190052
O20	O	1.441870	0.049330	0.143281
O21	O	1.775204	0.382663	0.476614
O22	O	1.018320	-0.134990	-0.309403
O23	O	1.351654	0.198343	0.023931
O24	O	1.684987	0.531676	0.357264
O25	O	1.227864	-0.283983	-0.309372
O26	O	1.561198	0.049350	0.023962
O27	O	1.894531	0.382684	0.357295
O28	O	1.108733	-0.134975	-0.399809
O29	O	1.442066	0.198358	-0.066475
O30	O	1.775399	0.531692	0.266858
O31	O	1.018209	-0.219777	-0.190066
O32	O	1.351542	0.113556	0.143268
O33	O	1.684876	0.446890	0.476601
O34	O	0.898925	-0.219745	-0.309358
O35	O	1.232258	0.113588	0.023975
O36	O	1.565592	0.446921	0.357309
O37	O	1.018201	-0.283927	-0.519050
O38	O	1.351534	0.049406	-0.185716
O39	O	1.684867	0.382739	0.147617
O40	O	0.898873	-0.283947	-0.399731
O41	O	1.232207	0.049386	-0.066397
O42	O	1.565540	0.382719	0.266936
O43	O	1.108665	-0.219710	-0.519083
O44	O	1.441998	0.113624	-0.185750
O45	O	1.775331	0.446957	0.147583
O46	O	1.108469	-0.368738	-0.309327
O47	O	1.441802	-0.035405	0.024006
O48	O	1.775136	0.297929	0.357340
O49	O	1.018089	-0.368714	-0.399713
O50	O	1.351423	-0.035381	-0.066380
O51	O	1.684756	0.297953	0.266954
C52	C	0.872197	-0.251845	-0.354542
C53	C	1.205530	0.081488	-0.021208
C54	C	1.538863	0.414821	0.312125
C55	C	0.790398	-0.251854	-0.354550
C56	C	1.123731	0.081479	-0.021217
C57	C	1.457064	0.414813	0.312117
C58	C	0.602196	-0.285337	-0.401548
C59	C	0.935529	0.047997	-0.068215
C60	C	1.268863	0.381330	0.265119
C61	C	0.525337	-0.285338	-0.401557
C62	C	0.858671	0.047995	-0.068224
C63	C	1.192004	0.381328	0.265109
C64	C	0.525362	-0.218381	-0.307594
C65	C	0.858695	0.114952	0.025740
C66	C	1.192028	0.448285	0.359073
C67	C	0.602219	-0.218377	-0.307589
C68	C	0.935552	0.114956	0.025745
C69	C	1.268886	0.448289	0.359078
C70	C	0.640634	-0.251858	-0.354565
C71	C	0.973967	0.081475	-0.021232
C72	C	1.307301	0.414809	0.312102
C73	C	0.486918	-0.251864	-0.354579
C74	C	0.820251	0.081470	-0.021246
C75	C	1.153585	0.414803	0.312088
C76	C	0.403584	-0.251865	-0.354589
C77	C	0.736918	0.081468	-0.021255
C78	C	1.070251	0.414801	0.312078
C79	C	0.723973	-0.251856	-0.354556
C80	C	1.057306	0.081477	-0.021223
C81	C	1.390640	0.414811	0.312110
C82	C	1.063279	-0.387697	-0.354529
C83	C	1.396612	-0.054364	-0.021196
C84	C	1.729946	0.278970	0.312138
C85	C	1.063293	-0.445811	-0.354539
C86	C	1.396627	-0.112478	-0.021206
C87	C	1.729960	0.220856	0.312127
C88	C	1.110586	-0.806174	-0.307579
C89	C	1.443920	-0.472841	0.025754
C90	C	1.777253	-0.139507	0.359088
C91	C	1.110615	-0.860778	-0.307589
C92	C	1.443948	-0.527445	0.025744
C93	C	1.777281	-0.194112	0.359078
O94	O	1.150696	-0.889015	-0.267625
O95	O	1.484030	-0.555682	0.065709
O96	O	1.817363	-0.222348	0.399042
N97	N	1.063532	-0.888093	-0.354612
N98	N	1.396865	-0.554760	-0.021278
N99	N	1.730199	-0.221427	0.312055
C100	C	1.016423	-0.860801	-0.401633
C101	C	1.349757	-0.527468	-0.068299
C102	C	1.683090	-0.194135	0.265034
O103	O	0.976379	-0.889049	-0.441631
O104	O	1.309712	-0.555716	-0.108297
O105	O	1.643046	-0.222382	0.225036
C106	C	1.016399	-0.806198	-0.401626
C107	C	1.349732	-0.472865	-0.068293
C108	C	1.683066	-0.139531	0.265041
C109	C	1.063479	-0.778886	-0.354595
C110	C	1.396813	-0.445552	-0.021262
C111	C	1.730146	-0.112219	0.312072
C112	C	1.157663	-0.778862	-0.260553
C113	C	1.490997	-0.445528	0.072781
C114	C	1.824330	-0.112195	0.406114
C115	C	1.157634	-0.724261	-0.260542
C116	C	1.490967	-0.390928	0.072791
C117	C	1.824300	-0.057594	0.406125
C118	C	1.110527	-0.696973	-0.307558
C119	C	1.443860	-0.363640	0.025775
C120	C	1.777194	-0.030306	0.359109
C121	C	1.063450	-0.724285	-0.354584
C122	C	1.396783	-0.390952	-0.021251
C123	C	1.730116	-0.057619	0.312082
C124	C	0.969294	-0.778907	-0.448650
C125	C	1.302628	-0.445574	-0.115317
C126	C	1.635961	-0.112240	0.218016
C127	C	0.969274	-0.724300	-0.448640
C128	C	1.302608	-0.390967	-0.115307
C129	C	1.635941	-0.057633	0.218027
C130	C	1.016355	-0.696988	-0.401609
C131	C	1.349688	-0.363654	-0.068276
C132	C	1.683022	-0.030321	0.265058
C133	C	1.016313	-0.642396	-0.401590
C134	C	1.349646	-0.309063	-0.068256
C135	C	1.682980	0.024270	0.265077
N136	N	1.063396	-0.615081	-0.354567
N137	N	1.396729	-0.281748	-0.021234
N138	N	1.730062	0.051585	0.312100
C139	C	1.110503	-0.642370	-0.307551
C140	C	1.443836	-0.309036	0.025782
C141	C	1.777169	0.024297	0.359115
C142	C	1.016479	-0.975472	-0.401644
C143	C	1.349812	-0.642139	-0.068311
C144	C	1.683145	-0.308805	0.265023
C145	C	1.016499	-1.030074	-0.401648
C146	C	1.349832	-0.696741	-0.068314
C147	C	1.683165	-0.363408	0.265019
C148	C	1.110691	-1.030047	-0.307605
C149	C	1.444025	-0.696714	0.025729
C150	C	1.777358	-0.363381	0.359062
C151	C	1.110667	-0.975444	-0.307598
C152	C	1.444000	-0.642111	0.025735
C153	C	1.777334	-0.308777	0.359069
C154	C	1.063561	-0.948157	-0.354621
C155	C	1.396895	-0.614823	-0.021288
C156	C	1.730228	-0.281490	0.312045
C157	C	1.110436	-0.527704	-0.307532
C158	C	1.443770	-0.194371	0.025801
C159	C	1.777103	0.138962	0.359135
C160	C	1.110400	-0.473099	-0.307523
C161	C	1.443734	-0.139766	0.025810
C162	C	1.777067	0.193568	0.359143
C163	C	1.016211	-0.473131	-0.401569
C164	C	1.349544	-0.139797	-0.068235
C165	C	1.682877	0.193536	0.265098
C166	C	1.016244	-0.527731	-0.401575
C167	C	1.349577	-0.194398	-0.068242
C168	C	1.682910	0.138935	0.265092
C169	C	1.063362	-0.555017	-0.354554
C170	C	1.396696	-0.221684	-0.021221
C171	C	1.730029	0.111650	0.312113
O172	O	0.976254	-0.614125	-0.441536
O173	O	1.309587	-0.280792	-0.108202
O174	O	1.642921	0.052542	0.225131
O175	O	1.150547	-0.614115	-0.267567
O176	O	1.483880	-0.280782	0.065766
O177	O	1.817214	0.052551	0.399100
C178	C	1.255356	-0.251864	-0.354584
C179	C	1.588689	0.081470	-0.021251
C180	C	1.922022	0.414803	0.312082
C181	C	1.337155	-0.251868	-0.354594
C182	C	1.670488	0.081466	-0.021260
C183	C	2.003821	0.414799	0.312073
C184	C	1.063438	-0.251813	-0.546516
C185	C	1.396771	0.081521	-0.213183
C186	C	1.730104	0.414854	0.120151
C187	C	1.063452	-0.251795	-0.628315
C188	C	1.396786	0.081539	-0.294981
C189	C	1.730119	0.414872	0.038352
C190	C	1.063547	-0.115481	-0.354613
C191	C	1.396880	0.217852	-0.021279
C192	C	1.730214	0.551185	0.312054
C193	C	1.063609	-0.057367	-0.354634
C194	C	1.396942	0.275966	-0.021301
C195	C	1.730275	0.609299	0.312033
C196	C	1.016458	-0.218330	-0.816517
C197	C	1.349792	0.115004	-0.483183
C198	C	1.683125	0.448337	-0.149850
C199	C	1.016471	-0.218319	-0.893375
C200	C	1.349804	0.115014	-0.560042
C201	C	1.683138	0.448348	-0.226709
C202	C	1.110534	-0.285198	-0.893351
C203	C	1.443868	0.048136	-0.560018
C204	C	1.777201	0.381469	-0.226684
C205	C	1.110517	-0.285210	-0.816493
C206	C	1.443851	0.048123	-0.483160
C207	C	1.777184	0.381456	-0.149827
C208	C	1.063480	-0.251773	-0.778078
C209	C	1.396814	0.081560	-0.444745
C210	C	1.730147	0.414893	-0.111412
C211	C	1.063510	-0.251750	-0.931795
C212	C	1.396844	0.081583	-0.598461
C213	C	1.730177	0.414917	-0.265128
C214	C	1.063525	-0.251739	-1.015128
C215	C	1.396858	0.081594	-0.681795
C216	C	1.730191	0.414928	-0.348462
C217	C	1.063465	-0.251785	-0.694739
C218	C	1.396798	0.081548	-0.361406
C219	C	1.730132	0.414882	-0.028073
C220	C	1.063411	-0.251858	-0.163357
C221	C	1.396744	0.081475	0.169977
C222	C	1.730077	0.414808	0.503310
C223	C	1.063538	-0.251729	-0.081558
C224	C	1.396872	0.081605	0.251775
C225	C	1.730205	0.414938	0.585109
H226	H	0.633472	-0.312598	-0.439801
H227	H	0.966805	0.020736	-0.106468
H228	H	1.300138	0.354069	0.226866
Br229	Br	1.174368	-0.330574	-0.945490
Br230	Br	1.507701	0.002760	-0.612157
Br231	Br	1.841034	0.336093	-0.278824
H232	H	0.930953	-0.801135	-0.486945
H233	H	1.264286	-0.467802	-0.153611
H234	H	1.597619	-0.134469	0.179722
Br235	Br	0.952590	-1.067134	-0.465467
Br236	Br	1.285924	-0.733801	-0.132134
Br237	Br	1.619257	-0.400468	0.201200
H238	H	1.148810	-0.312446	-0.785196
H239	H	1.482144	0.020887	-0.451863
H240	H	1.815477	0.354220	-0.118530
Br241	Br	0.952538	-0.938445	-0.465463
Br242	Br	1.285872	-0.605111	-0.132130
Br243	Br	1.619205	-0.271778	0.201203
Br244	Br	0.473174	-0.330773	-0.465327
Br245	Br	0.806507	0.002560	-0.131993
Br246	Br	1.139841	0.335893	0.201340
H247	H	0.633516	-0.191112	-0.269329
H248	H	0.966849	0.142221	0.064004
H249	H	1.300183	0.475555	0.397337
H250	H	1.148739	-0.450863	-0.269223
H251	H	1.482072	-0.117530	0.064111
H252	H	1.815405	0.215804	0.397444
Br253	Br	0.473222	-0.172946	-0.243843
Br254	Br	0.806555	0.160388	0.089490
Br255	Br	1.139889	0.493721	0.422823
Br256	Br	0.952640	-0.172938	-0.945539
Br257	Br	1.285973	0.160395	-0.612206
Br258	Br	1.619307	0.493729	-0.278873
H259	H	1.195973	-0.702027	-0.222248
H260	H	1.529306	-0.368693	0.111086
H261	H	1.862639	-0.035360	0.444419
H262	H	1.148807	-0.549914	-0.269245
H263	H	1.482140	-0.216581	0.064089
H264	H	1.815473	0.116753	0.397422
H265	H	1.196028	-0.801074	-0.222266
H266	H	1.529361	-0.467740	0.111067
H267	H	1.862694	-0.134407	0.444400
H268	H	1.149004	-0.953210	-0.269302
H269	H	1.482338	-0.619876	0.064032
H270	H	1.815671	-0.286543	0.397365
H271	H	1.149051	-1.052275	-0.269324
H272	H	1.482384	-0.718942	0.064009
H273	H	1.815718	-0.385609	0.397343
H274	H	0.930916	-0.702085	-0.486935
H275	H	1.264249	-0.368752	-0.153601
H276	H	1.597583	-0.035419	0.179732
H277	H	0.977854	-0.450904	-0.439847
H278	H	1.311188	-0.117571	-0.106513
H279	H	1.644521	0.215762	0.226820
Br280	Br	0.952331	-0.564799	-0.465385
Br281	Br	1.285664	-0.231466	-0.132052
Br282	Br	1.618997	0.101867	0.201281
H283	H	0.978158	-0.191103	-0.785241
H284	H	1.311491	0.142230	-0.451908
H285	H	1.644824	0.475564	-0.118575
