data_functionalizedCrystal
_audit_creation_method	'MofGen! by Chris Wilmer'
_symmetry_space_group_name_H-M	'P1'
_symmetry_Int_Tables_number	1
_symmetry_cell_setting	triclinic
loop_
_symmetry_equiv_pos_as_xyz
  x,y,z
_cell_length_a	19.121321
_cell_length_b	19.121063
_cell_length_c	12.759393
_cell_angle_alpha	92.402917
_cell_angle_beta	92.419275
_cell_angle_gamma	89.929715
loop_
_atom_site_label
_atom_site_type_symbol
_atom_site_fract_x
_atom_site_fract_y
_atom_site_fract_z
Zn1	Zn	1.059825	-0.324716	-0.547052
Zn2	Zn	1.054727	-0.441968	-0.379158
Zn3	Zn	0.942587	-0.319759	-0.378553
Zn4	Zn	0.937555	-0.436922	-0.561952
O5	O	0.998674	-0.380841	-0.466679
O6	O	1.157250	-0.344456	-0.518798
O7	O	1.039823	-0.425793	-0.232061
O8	O	0.962379	-0.222313	-0.394416
O9	O	1.153504	-0.430601	-0.395448
O10	O	1.048513	-0.225955	-0.518211
O11	O	0.957435	-0.336007	-0.231616
O12	O	0.843819	-0.331115	-0.408863
O13	O	0.953803	-0.422001	-0.706992
O14	O	0.840122	-0.417194	-0.543606
O15	O	1.043634	-0.339564	-0.696045
O16	O	1.034944	-0.539402	-0.409895
O17	O	0.948859	-0.535695	-0.544193
C18	C	0.816534	-0.373069	-0.477786
C19	C	0.738613	-0.369761	-0.482564
C20	C	0.298007	-0.348750	-0.512859
C21	C	0.371222	-0.351871	-0.508365
C22	C	0.405873	-0.398209	-0.441782
C23	C	0.367305	-0.441433	-0.379697
C24	C	0.294092	-0.438315	-0.384198
C25	C	0.626832	-0.409867	-0.424980
C26	C	0.700050	-0.412981	-0.420482
C27	C	0.703962	-0.323420	-0.549152
C28	C	0.630747	-0.320303	-0.553641
C29	C	0.592186	-0.363529	-0.491561
C30	C	0.480710	-0.401399	-0.437184
C31	C	0.517350	-0.360342	-0.496165
C32	C	0.990821	-0.562987	-0.478748
C33	C	0.987526	-0.640912	-0.483943
C34	C	1.030832	-0.679430	-0.416515
C35	C	1.027737	-0.752649	-0.421407
C36	C	0.981332	-0.787349	-0.493721
C37	C	0.938023	-0.748826	-0.561156
C38	C	0.941122	-0.675608	-0.556269
C39	C	0.969734	-1.008323	-0.511977
C40	C	0.966637	-1.081546	-0.516857
C41	C	1.056352	-1.085364	-0.377109
C42	C	1.059444	-1.012144	-0.372224
C43	C	1.016138	-0.973628	-0.439662
C44	C	0.978165	-0.862190	-0.498721
C45	C	1.019309	-0.898788	-0.434667
C46	C	1.181525	-0.388644	-0.455529
C47	C	1.259445	-0.391969	-0.450777
C48	C	0.998726	-0.380773	-0.740705
C49	C	0.998748	-0.380744	-0.857478
C50	C	1.006576	-0.197986	-0.454584
C51	C	1.009943	-0.120063	-0.449430
C52	C	1.045529	-0.337814	-0.906641
C53	C	1.045547	-0.337790	-1.016363
C54	C	0.952000	-0.423629	-1.027749
C55	C	0.951979	-0.423650	-0.918029
C56	C	1.099540	-0.288258	-0.900068
C57	C	1.099558	-0.288233	-1.009790
C58	C	0.998664	-0.380861	-0.193713
C59	C	0.998786	-0.380698	-0.076919
H60	H	0.595444	-0.445064	-0.374426
H61	H	1.068618	-0.651182	-0.357625
H62	H	0.728261	-0.450717	-0.366260
N63	N	0.919224	-1.116995	-0.590714
N64	N	0.854881	-1.106122	-0.587072
H65	H	0.821395	-1.131160	-0.639226
H66	H	0.913883	-0.458604	-0.878005
N67	N	1.084228	-0.219382	-0.859305
N68	N	1.081620	-0.207742	-0.762416
H69	H	1.070804	-0.159100	-0.733625
H70	H	0.913921	-0.458560	-1.077062
N71	N	1.077965	-0.222478	-1.049689
N72	N	1.061781	-0.173255	-0.987817
H73	H	1.046528	-0.126817	-1.015996
H74	H	1.150266	-0.309918	-0.864176
N75	N	1.166892	-0.309368	-1.044190
N76	N	1.214315	-0.324284	-0.978449
H77	H	1.261870	-0.339207	-1.002742
H78	H	1.097231	-0.983893	-0.313340
H79	H	0.934471	-0.976969	-0.566887
H80	H	0.269800	-0.311013	-0.567072
N81	N	1.100580	-1.124718	-0.308233
N82	N	1.097808	-1.190090	-0.312601
H83	H	1.129046	-1.217885	-0.263956
N84	N	0.410601	-0.307726	-0.571799
N85	N	0.379654	-0.266357	-0.631244
H86	H	0.407465	-0.235179	-0.676052
H87	H	0.602539	-0.282572	-0.607864
N88	N	1.071990	-0.791983	-0.352538
N89	N	1.113423	-0.760993	-0.287981
H90	H	1.144683	-0.788772	-0.239344
H91	H	0.900242	-0.777084	-0.620041
H92	H	0.735366	-0.288228	-0.599695
H93	H	0.395524	-0.479165	-0.325488
H94	H	0.940380	-0.890451	-0.557598
N95	N	0.896885	-0.636272	-0.625159
N96	N	0.855456	-0.667260	-0.689724
H97	H	0.824214	-0.639480	-0.738384
N98	N	1.066699	-0.863335	-0.360798
N99	N	1.043774	-0.821485	-0.292610
H100	H	1.077240	-0.796440	-0.240435
N101	N	0.481965	-0.313019	-0.564196
N102	N	0.489974	-0.318100	-0.660938
H103	H	0.464977	-0.284679	-0.708987
H104	H	0.262695	-0.473510	-0.333646
H105	H	0.508931	-0.439125	-0.382968
