data_functionalizedCrystal
_audit_creation_method	'MofGen! by Chris Wilmer'
_symmetry_space_group_name_H-M	'P1'
_symmetry_Int_Tables_number	1
_symmetry_cell_setting	triclinic
loop_
_symmetry_equiv_pos_as_xyz
  x,y,z
_cell_length_a	16.109301
_cell_length_b	12.376897
_cell_length_c	16.109301
_cell_angle_alpha	77.330855
_cell_angle_beta	83.461481
_cell_angle_gamma	77.337599
loop_
_atom_site_label
_atom_site_type_symbol
_atom_site_fract_x
_atom_site_fract_y
_atom_site_fract_z
O1	O	1.088929	0.093931	0.092649
O2	O	1.588929	0.593931	0.592649
O3	O	0.846864	0.093949	0.105946
O4	O	1.346864	0.593949	0.605946
O5	O	0.974548	0.093928	-0.021732
O6	O	1.474548	0.593928	0.478268
O7	O	0.961245	0.093952	0.220326
O8	O	1.461245	0.593952	0.720326
O9	O	1.002963	-0.094070	0.006721
O10	O	1.502963	0.405930	0.506721
O11	O	0.875279	-0.094048	0.134398
O12	O	1.375279	0.405952	0.634398
O13	O	1.117344	-0.094067	0.121102
O14	O	1.617344	0.405933	0.621102
Zn15	Zn	1.000823	-0.123906	0.132268
Zn16	Zn	1.500823	0.376094	0.632268
Zn17	Zn	0.963385	0.123789	0.094780
Zn18	Zn	1.463385	0.623789	0.594780
O19	O	0.989660	-0.094046	0.248779
O20	O	1.489660	0.405954	0.748779
C21	C	0.830097	-0.000047	0.119633
C22	C	1.330097	0.499953	0.619633
C23	C	0.737800	-0.000041	0.118017
C24	C	1.237800	0.499959	0.618017
N25	N	1.026380	-0.292952	0.157851
N26	N	1.526380	0.207048	0.657851
C27	C	0.515529	-0.000047	0.190025
C28	C	1.015529	0.499953	0.690025
C29	C	0.428810	-0.000054	0.188502
C30	C	0.928810	0.499946	0.688502
C31	C	0.448686	-0.000064	0.037015
C32	C	0.948686	0.499936	0.537015
C33	C	0.535404	-0.000065	0.038540
C34	C	1.035404	0.499935	0.538540
C35	C	0.568823	-0.000050	0.115047
C36	C	1.068823	0.499950	0.615047
C37	C	0.395384	-0.000057	0.111999
C38	C	0.895384	0.499943	0.611999
C39	C	0.301360	-0.000065	0.110347
C40	C	0.801360	0.499935	0.610347
C41	C	0.662854	-0.000045	0.116699
C42	C	1.162854	0.499955	0.616699
C43	C	0.878480	-0.648011	0.009794
C44	C	1.378480	-0.148011	0.509794
C45	C	0.860580	-0.529680	-0.008114
C46	C	1.360580	-0.029680	0.491886
C47	C	0.902028	-0.470492	0.033376
C48	C	1.402028	0.029508	0.533376
C49	C	0.961380	-0.529647	0.092777
C50	C	1.461380	-0.029647	0.592777
C51	C	0.979287	-0.647989	0.110682
C52	C	1.479287	-0.147989	0.610682
C53	C	1.002835	-0.470471	0.134264
C54	C	1.502835	0.029529	0.634264
C55	C	1.062187	-0.529625	0.193665
C56	C	1.562187	-0.029625	0.693665
C57	C	1.080091	-0.647956	0.211567
C58	C	1.580091	-0.147956	0.711567
C59	C	1.038643	-0.707144	0.170077
C60	C	1.538643	-0.207144	0.670077
C61	C	0.984928	-0.352128	0.116359
C62	C	1.484928	0.147872	0.616359
C63	C	1.085735	-0.352106	0.217247
C64	C	1.585735	0.147894	0.717247
C65	C	1.103636	-0.470437	0.235155
C66	C	1.603636	0.029563	0.735155
C67	C	1.134111	-0.000068	0.107414
C68	C	1.634111	0.499932	0.607414
C69	C	1.226407	-0.000067	0.109029
C70	C	1.726407	0.499933	0.609029
C71	C	0.988217	-0.000071	-0.038480
C72	C	1.488217	0.499929	0.461520
C73	C	0.986602	-0.000073	-0.130775
C74	C	1.486602	0.499927	0.369225
N75	N	0.937835	0.292834	0.069189
N76	N	1.437835	0.792834	0.569189
C77	C	1.058608	-0.000060	-0.353050
C78	C	1.558608	0.499940	0.146950
C79	C	1.057083	-0.000051	-0.439771
C80	C	1.557083	0.499949	0.060229
C81	C	0.905593	-0.000044	-0.419898
C82	C	1.405593	0.499956	0.080102
C83	C	0.907118	-0.000045	-0.333179
C84	C	1.407118	0.499955	0.166821
C85	C	0.983629	-0.000059	-0.299757
C86	C	1.483629	0.499941	0.200243
C87	C	0.980578	-0.000048	-0.473197
C88	C	1.480578	0.499952	0.026803
C89	C	0.978924	-0.000038	-0.567225
C90	C	1.478924	0.499962	-0.067225
C91	C	0.985283	-0.000067	-0.205723
C92	C	1.485283	0.499933	0.294277
C93	C	0.975991	-0.000044	0.265527
C94	C	1.475991	0.499956	0.765527
C95	C	0.977605	-0.000035	0.357821
C96	C	1.477605	0.499965	0.857821
H97	H	0.542736	-0.000043	0.252323
H98	H	1.042736	0.499957	0.752323
H99	H	0.578799	-0.000071	-0.022520
H100	H	1.078799	0.499929	0.477480
Br101	Br	0.822242	-0.728341	-0.046513
Br102	Br	1.322242	-0.228341	0.453487
H103	H	0.936602	-0.303976	0.067995
H104	H	1.436602	0.196024	0.567995
Br105	Br	0.356485	-0.000054	0.290264
Br106	Br	0.856485	0.499946	0.790264
Br107	Br	1.184180	-0.550731	0.315771
Br108	Br	1.684180	-0.050731	0.815771
H109	H	0.812257	-0.481525	-0.056480
H110	H	1.312257	0.018475	0.443520
H111	H	1.120908	-0.000069	-0.325841
H112	H	1.620908	0.499931	0.174159
Br113	Br	0.877734	-0.309898	0.009071
Br114	Br	1.377734	0.190102	0.509071
H115	H	1.053211	-0.803499	0.184659
H116	H	1.553211	-0.303499	0.684659
H117	H	1.128427	-0.696116	0.259928
H118	H	1.628427	-0.196116	0.759928
H119	H	1.119487	-0.303916	0.251031
H120	H	1.619487	0.196084	0.751031
Br121	Br	1.158844	-0.000046	-0.512096
Br122	Br	1.658844	0.499954	-0.012096
Br123	Br	0.801761	-0.000021	-0.465264
Br124	Br	1.301761	0.499979	0.034736
H125	H	0.846056	-0.000041	-0.289786
H126	H	1.346056	0.499959	0.210214
H127	H	0.421466	-0.000083	-0.025273
H128	H	0.921466	0.499917	0.474727
