data_functionalizedCrystal
_audit_creation_method	'MofGen! by Chris Wilmer'
_symmetry_space_group_name_H-M	'P1'
_symmetry_Int_Tables_number	1
_symmetry_cell_setting	triclinic
loop_
_symmetry_equiv_pos_as_xyz
  x,y,z
_cell_length_a	10.654553
_cell_length_b	14.519731
_cell_length_c	12.996460
_cell_angle_alpha	89.988498
_cell_angle_beta	90.006029
_cell_angle_gamma	95.912484
loop_
_atom_site_label
_atom_site_type_symbol
_atom_site_fract_x
_atom_site_fract_y
_atom_site_fract_z
O1	O	1.666609	-0.129546	0.085592
O2	O	1.301013	-0.141884	0.085593
O3	O	1.493490	-0.001528	0.085572
O4	O	1.474132	-0.269902	0.085613
O5	O	1.493470	-0.001521	-0.085562
O6	O	1.300993	-0.141876	-0.085541
O7	O	1.666588	-0.129538	-0.085542
Cu8	Cu	1.483789	-0.135707	-0.101167
Cu9	Cu	1.483813	-0.135716	0.101218
O10	O	1.474111	-0.269894	-0.085521
C11	C	1.254214	-0.140974	0.000026
C12	C	1.114797	-0.138262	0.000025
C13	C	0.918282	-0.134429	-0.093253
C14	C	1.049278	-0.136983	-0.093259
C15	C	1.049310	-0.136996	0.093321
C16	C	0.918315	-0.134449	0.093325
C17	C	0.918265	-0.134417	-0.200974
C18	C	1.049262	-0.136971	-0.200979
C19	C	1.492573	0.032840	0.000002
C20	C	1.489855	0.135234	-0.000008
C21	C	1.487646	0.218390	-0.000012
C22	C	1.484887	0.322713	-0.000014
C23	C	1.482696	0.405863	-0.000014
C24	C	1.479937	0.510193	-0.000017
C25	C	1.713388	-0.130449	0.000028
C26	C	1.852805	-0.133161	0.000035
C27	C	1.475029	0.695738	0.000030
C28	C	1.477747	0.593343	-0.000017
N29	N	1.483781	-0.135700	-0.243514
C30	C	1.483811	-0.135717	-0.663329
C31	C	1.483799	-0.135715	-0.546524
C32	C	1.483797	-0.135709	-0.453425
C33	C	1.483784	-0.135706	-0.336613
N34	N	1.483830	-0.135716	0.243565
H35	H	1.096147	-0.073233	-0.242344
H36	H	0.889328	-0.067154	-0.234405
O37	O	0.854828	-0.133351	0.184012
C38	C	0.872791	-0.213722	0.240754
H39	H	0.963217	-0.242149	0.214223
H40	H	0.789235	-0.268117	0.227830
C41	C	0.772068	-0.154721	0.388621
C42	C	0.883137	-0.189632	0.356041
H43	H	0.778445	-0.139863	0.459736
H44	H	0.759961	-0.100575	0.350392
H45	H	0.702450	-0.200056	0.377842
H46	H	0.952751	-0.144293	0.366808
H47	H	0.895256	-0.243770	0.394275
O48	O	1.113068	-0.138370	0.183871
C49	C	1.174776	-0.219588	0.189472
H50	H	1.189704	-0.246546	0.108478
H51	H	1.114470	-0.274438	0.235517
C52	C	1.285148	-0.164688	0.342275
C53	C	1.303492	-0.197793	0.242797
H54	H	1.364543	-0.151246	0.375173
H55	H	1.243570	-0.109971	0.338505
H56	H	1.234888	-0.210401	0.380634
H57	H	1.353736	-0.152076	0.204437
H58	H	1.345081	-0.252502	0.246562
O59	O	0.862477	-0.210605	-0.250108
C60	C	0.892744	-0.290958	-0.198748
H61	H	0.919147	-0.273158	-0.115571
H62	H	0.975831	-0.319227	-0.238913
C63	C	0.745471	-0.386454	-0.302903
C64	C	0.777890	-0.364593	-0.200742
H65	H	0.674627	-0.431877	-0.304137
H66	H	0.725083	-0.332319	-0.337509
H67	H	0.814721	-0.410006	-0.336363
H68	H	0.708647	-0.341030	-0.167288
H69	H	0.798264	-0.418725	-0.166131
O70	O	1.083723	-0.217154	-0.241029
C71	C	1.040989	-0.226748	-0.343521
H72	H	1.026490	-0.155697	-0.376054
H73	H	0.947826	-0.273001	-0.345611
C74	C	1.157550	-0.357992	-0.368753
C75	C	1.139752	-0.270724	-0.408713
H76	H	1.218467	-0.385123	-0.408966
H77	H	1.186337	-0.351531	-0.299700
H78	H	1.079906	-0.396525	-0.370496
H79	H	1.217390	-0.232190	-0.406957
H80	H	1.110980	-0.277180	-0.477767
