data_functionalizedCrystal
_audit_creation_method	'MofGen! by Chris Wilmer'
_symmetry_space_group_name_H-M	'P1'
_symmetry_Int_Tables_number	1
_symmetry_cell_setting	triclinic
loop_
_symmetry_equiv_pos_as_xyz
  x,y,z
_cell_length_a	19.188929
_cell_length_b	10.967926
_cell_length_c	10.065875
_cell_angle_alpha	93.120479
_cell_angle_beta	81.262107
_cell_angle_gamma	96.049894
loop_
_atom_site_label
_atom_site_type_symbol
_atom_site_fract_x
_atom_site_fract_y
_atom_site_fract_z
O1	O	-0.121728	1.612264	0.265610
O2	O	-0.123721	1.262210	0.183276
O3	O	-0.021358	1.447325	0.226900
O4	O	-0.224092	1.427148	0.221986
O5	O	-0.040959	1.412026	0.445570
O6	O	-0.143323	1.226910	0.401946
O7	O	-0.141330	1.576964	0.484280
Zn8	Zn	-0.145438	1.396333	0.477832
Zn9	Zn	-0.119613	1.442841	0.189724
O10	O	-0.243694	1.391849	0.440656
C11	C	-0.131896	1.199775	0.282078
C12	C	-0.127042	1.066330	0.250696
C13	C	-0.135033	0.988549	0.349982
C14	C	-0.130016	0.850626	0.317549
C15	C	-0.259920	1.410156	0.331454
C16	C	-0.337474	1.412130	0.331853
C17	C	-0.379377	1.303498	0.306330
C18	C	-0.452255	1.305339	0.306793
C19	C	-0.483229	1.415813	0.332808
C20	C	-0.441315	1.524460	0.358328
C21	C	-0.368438	1.522619	0.357850
N22	N	-0.600225	1.488233	0.427172
N23	N	-0.669456	1.489975	0.427627
C24	C	-0.702804	1.421368	0.334246
N25	N	-0.664307	1.350933	0.240406
N26	N	-0.595070	1.349187	0.239956
C27	C	-0.562251	1.417822	0.333328
C28	C	-0.823730	1.314724	0.309222
C29	C	-0.896608	1.316570	0.309679
C30	C	-0.885668	1.535693	0.361227
C31	C	-0.812790	1.533846	0.360756
C32	C	-0.781826	1.423357	0.334759
C33	C	-0.005131	1.429019	0.336099
C34	C	0.072424	1.427046	0.335691
C35	C	-0.133155	1.639400	0.385475
C36	C	-0.138008	1.772846	0.416849
N37	N	-0.163064	1.364601	0.674459
N38	N	-0.101982	1.474583	-0.006901
C39	C	-0.125740	1.431793	0.758073
C40	C	-0.139311	1.407381	0.909487
H41	H	-0.148560	0.808357	0.525870
C42	C	-0.149073	1.035664	0.495434
C43	C	-0.155454	0.937181	0.580747
C44	C	-0.168377	0.980534	0.714750
H45	H	-0.191737	1.074398	0.509777
H46	H	-0.110835	1.093132	0.514125
H47	H	-0.193689	0.879734	0.562064
H48	H	-0.112797	0.898436	0.566447
H49	H	-0.130140	1.038002	0.733441
H50	H	-0.211041	1.019268	0.729079
H51	H	-0.172702	0.913723	0.772652
C52	C	-0.195415	1.306652	0.963326
C53	C	-0.261502	1.331462	0.934420
C54	C	-0.313198	1.238691	0.983980
H55	H	-0.197190	1.303549	1.057915
H56	H	-0.183883	1.229988	0.921939
H57	H	-0.273032	1.408105	0.975811
H58	H	-0.259750	1.334553	0.839840
H59	H	-0.301666	1.162027	0.942594
H60	H	-0.314967	1.235596	1.078568
H61	H	-0.358043	1.255506	0.964364
C62	C	-0.345632	1.183658	0.278176
C63	C	-0.272841	1.205286	0.283247
C64	C	-0.241732	1.094918	0.257330
H65	H	-0.352942	1.151165	0.191409
H66	H	-0.366589	1.126615	0.343946
H67	H	-0.251891	1.262309	0.217480
H68	H	-0.265511	1.237762	0.370004
H69	H	-0.262689	1.037875	0.323100
H70	H	-0.249047	1.062433	0.170564
H71	H	-0.192342	1.109575	0.260779
C72	C	-0.045782	1.575073	0.939023
C73	C	0.005537	1.523480	0.845084
C74	C	0.057376	1.615942	0.795286
H75	H	-0.024064	1.613963	1.011073
H76	H	-0.067149	1.633895	0.896888
H77	H	0.026902	1.464679	0.887219
H78	H	-0.016160	1.484598	0.773011
H79	H	0.036008	1.674764	0.753152
H80	H	0.079088	1.654826	0.867345
H81	H	0.092198	1.580951	0.731535
C82	C	-0.116088	0.803183	0.172196
C83	C	-0.172528	0.718491	0.145094
C84	C	-0.159727	0.674772	0.011208
H85	H	-0.073461	0.764341	0.157890
H86	H	-0.111759	0.869826	0.114060
H87	H	-0.176849	0.651859	0.203212
H88	H	-0.215162	0.757304	0.159369
H89	H	-0.155398	0.741415	-0.046928
H90	H	-0.117099	0.635936	-0.003086
H91	H	-0.198022	0.617312	-0.007202
C92	C	-0.113115	1.018881	0.105350
C93	C	-0.169555	0.934188	0.078248
C94	C	-0.156754	0.890469	-0.055638
H95	H	-0.070488	0.980039	0.091044
H96	H	-0.108786	1.085524	0.047214
H97	H	-0.173876	0.867556	0.136366
H98	H	-0.212189	0.973002	0.092523
H99	H	-0.152425	0.957112	-0.113774
H100	H	-0.114126	0.851633	-0.069931
H101	H	-0.195049	0.833009	-0.074047
C102	C	-0.497649	1.187249	0.279121
C103	C	-0.454936	1.090091	0.256280
C104	C	-0.496726	0.981287	0.230802
H105	H	-0.519514	1.195544	0.201962
H106	H	-0.533101	1.171041	0.354510
H107	H	-0.419496	1.106295	0.180898
H108	H	-0.433070	1.081756	0.333423
H109	H	-0.532179	0.965079	0.306191
H110	H	-0.518590	0.989595	0.153645
H111	H	-0.467753	0.915351	0.215313
C112	C	-0.475078	1.644271	0.386612
C113	C	-0.547874	1.622628	0.381606
C114	C	-0.578999	1.732971	0.407667
H115	H	-0.454165	1.701383	0.320909
H116	H	-0.467734	1.676682	0.473410
H117	H	-0.555213	1.590235	0.294820
H118	H	-0.568807	1.565536	0.447308
H119	H	-0.571655	1.765382	0.494465
H120	H	-0.558081	1.790075	0.341960
H121	H	-0.628395	1.718299	0.404286
C122	C	-0.323064	1.640686	0.385669
C123	C	-0.365785	1.737829	0.408579
C124	C	-0.324012	1.846608	0.434230
H125	H	-0.287589	1.656999	0.310363
H126	H	-0.301230	1.632271	0.462858
H127	H	-0.387608	1.746245	0.331397
H128	H	-0.401259	1.721558	0.483888
H129	H	-0.302179	1.838193	0.511420
H130	H	-0.288540	1.862908	0.358921
H131	H	-0.352994	1.912530	0.449790
C132	C	-0.919212	1.655693	0.389695
C133	C	-0.908213	1.703198	0.517614
C134	C	-0.939099	1.813752	0.543872
H135	H	-0.968625	1.641393	0.386428
H136	H	-0.898200	1.712775	0.324005
H137	H	-0.929228	1.646129	0.583286
H138	H	-0.858806	1.717527	0.520912
H139	H	-0.918086	1.870834	0.478182
H140	H	-0.988510	1.799441	0.540599
H141	H	-0.931634	1.846004	0.630661
C142	C	-0.219165	1.263877	0.728304
C143	C	-0.285252	1.288687	0.699399
C144	C	-0.336948	1.195916	0.748959
H145	H	-0.220940	1.260774	0.822894
H146	H	-0.207633	1.187213	0.686918
H147	H	-0.296782	1.365330	0.740790
H148	H	-0.283500	1.291777	0.604819
H149	H	-0.325416	1.119252	0.707572
H150	H	-0.338717	1.192821	0.843547
H151	H	-0.381793	1.212731	0.729343
C152	C	-0.790230	1.194662	0.280879
C153	C	-0.842526	1.099925	0.258573
C154	C	-0.811692	0.989312	0.232437
H155	H	-0.768839	1.176903	0.355813
H156	H	-0.755237	1.201647	0.203322
H157	H	-0.877506	1.092939	0.336121
H158	H	-0.863921	1.117643	0.183634
H159	H	-0.776699	0.996296	0.154881
H160	H	-0.790302	0.971565	0.307376
H161	H	-0.847169	0.925022	0.217287
C162	C	-0.942116	1.198699	0.281698
C163	C	-0.974214	1.211496	0.167938
C164	C	-1.016133	1.102932	0.142110
H165	H	-0.977636	1.182455	0.356948
H166	H	-0.913250	1.132616	0.266071
H167	H	-1.003078	1.277559	0.183573
H168	H	-0.938711	1.227723	0.092665
H169	H	-0.987268	1.036849	0.126483
H170	H	-1.051650	1.086697	0.217367
H171	H	-1.037912	1.111596	0.064915
C172	C	-0.767359	1.651916	0.388302
C173	C	-0.771761	1.736634	0.291488
C174	C	-0.729928	1.845426	0.316828
H175	H	-0.719495	1.635183	0.384266
H176	H	-0.783871	1.684993	0.475202
H177	H	-0.755246	1.703564	0.204611
H178	H	-0.819615	1.753403	0.295508
H179	H	-0.746440	1.878503	0.403727
H180	H	-0.682066	1.828680	0.312793
H181	H	-0.732914	1.902924	0.251152
H182	H	-0.083737	1.507389	0.717564
