data_functionalizedCrystal
_audit_creation_method	'MofGen! by Chris Wilmer'
_symmetry_space_group_name_H-M	'P1'
_symmetry_Int_Tables_number	1
_symmetry_cell_setting	triclinic
loop_
_symmetry_equiv_pos_as_xyz
  x,y,z
_cell_length_a	17.699097
_cell_length_b	17.000371
_cell_length_c	16.176319
_cell_angle_alpha	89.992539
_cell_angle_beta	89.988988
_cell_angle_gamma	79.443839
loop_
_atom_site_label
_atom_site_type_symbol
_atom_site_fract_x
_atom_site_fract_y
_atom_site_fract_z
O1	O	0.997546	0.100717	-0.068815
O2	O	1.330879	0.434051	0.264518
O3	O	1.664212	0.767384	0.597852
O4	O	0.776321	0.113803	-0.068802
O5	O	1.109654	0.447137	0.264532
O6	O	1.442987	0.780470	0.597865
O7	O	0.900670	-0.008632	-0.068803
O8	O	1.234003	0.324702	0.264530
O9	O	1.567336	0.658035	0.597863
O10	O	0.873197	0.223153	-0.068813
O11	O	1.206530	0.556486	0.264520
O12	O	1.539864	0.889819	0.597853
O13	O	0.900654	-0.008640	0.068690
O14	O	1.233987	0.324694	0.402023
O15	O	1.567321	0.658027	0.735356
O16	O	0.776305	0.113796	0.068691
O17	O	1.109639	0.447129	0.402025
O18	O	1.442972	0.780462	0.735358
O19	O	0.997530	0.100710	0.068678
O20	O	1.330864	0.434043	0.402011
O21	O	1.664197	0.767376	0.735345
Cu22	Cu	0.886916	0.107252	0.081239
Cu23	Cu	1.220250	0.440585	0.414572
Cu24	Cu	1.553583	0.773919	0.747906
Cu25	Cu	0.886935	0.107261	-0.081363
Cu26	Cu	1.220268	0.440594	0.251971
Cu27	Cu	1.553601	0.773928	0.585304
O28	O	0.873181	0.223145	0.068680
O29	O	1.206515	0.556478	0.402013
O30	O	1.539848	0.889812	0.735346
C31	C	0.748147	0.113329	-0.000053
C32	C	1.081480	0.446662	0.333280
C33	C	1.414813	0.779996	0.666613
C34	C	0.664221	0.111917	-0.000048
C35	C	0.997554	0.445250	0.333285
C36	C	1.330887	0.778583	0.666618
C37	C	0.149072	0.103266	-0.075029
C38	C	0.482405	0.436599	0.258305
C39	C	0.815738	0.769932	0.591638
C40	C	0.227930	0.104587	-0.075025
C41	C	0.561263	0.437920	0.258309
C42	C	0.894597	0.771254	0.591642
C43	C	0.267345	0.105245	-0.000074
C44	C	0.600678	0.438578	0.333260
C45	C	0.934011	0.771911	0.666593
C46	C	0.227898	0.104573	0.074878
C47	C	0.561232	0.437906	0.408211
C48	C	0.894565	0.771240	0.741545
C49	C	0.149042	0.103246	0.074873
C50	C	0.482376	0.436579	0.408206
C51	C	0.815709	0.769913	0.741540
C52	C	0.545916	0.109924	0.074900
C53	C	0.879249	0.443257	0.408233
C54	C	1.212582	0.776590	0.741566
C55	C	0.624777	0.111253	0.074899
C56	C	0.958110	0.444586	0.408232
C57	C	1.291443	0.777920	0.741565
C58	C	0.624803	0.111265	-0.074998
C59	C	0.958137	0.444598	0.258335
C60	C	1.291470	0.777931	0.591668
C61	C	0.545947	0.109938	-0.075003
C62	C	0.879281	0.443271	0.258330
C63	C	1.212614	0.776604	0.591664
C64	C	0.506509	0.109262	-0.000052
C65	C	0.839842	0.442595	0.333281
C66	C	1.173175	0.775928	0.666615
C67	C	0.421002	0.107828	-0.000057
C68	C	0.754335	0.441161	0.333276
C69	C	1.087668	0.774494	0.666609
C70	C	0.352849	0.106685	-0.000068
C71	C	0.686183	0.440018	0.333266
C72	C	1.019516	0.773351	0.666599
C73	C	0.902137	-0.038292	-0.000057
C74	C	1.235471	0.295041	0.333276
C75	C	1.568804	0.628374	0.666609
C76	C	0.906525	-0.126659	-0.000058
C77	C	1.239859	0.206674	0.333275
C78	C	1.573192	0.540008	0.666608
C79	C	0.839002	-0.158557	-0.000058
C80	C	1.172335	0.174776	0.333276
C81	C	1.505668	0.508109	0.666609
C82	C	0.843129	-0.241588	-0.000056
C83	C	1.176462	0.091745	0.333278
C84	C	1.509796	0.425079	0.666611
C85	C	0.914781	-0.292719	-0.000060
C86	C	1.248114	0.040614	0.333273
C87	C	1.581447	0.373948	0.666606
C88	C	0.982309	-0.260816	-0.000058
C89	C	1.315643	0.072518	0.333275
C90	C	1.648976	0.405851	0.666609
C91	C	0.978181	-0.177786	-0.000054
C92	C	1.311515	0.155547	0.333279
C93	C	1.644848	0.488880	0.666612
C94	C	0.930726	-0.543895	-0.000067
C95	C	1.264060	-0.210562	0.333267
C96	C	1.597393	0.122772	0.666600
C97	C	0.934849	-0.626929	-0.000073
C98	C	1.268183	-0.293596	0.333260
C99	C	1.601516	0.039737	0.666593
C100	C	0.795668	-0.607696	-0.000069
C101	C	1.129002	-0.274363	0.333264
C102	C	1.462335	0.058971	0.666597
C103	C	0.791547	-0.524666	-0.000070
C104	C	1.124880	-0.191333	0.333263
C105	C	1.458213	0.142001	0.666596
C106	C	0.859075	-0.492770	-0.000064
C107	C	1.192408	-0.159437	0.333269
C108	C	1.525742	0.173897	0.666603
C109	C	0.919001	-0.377590	-0.000061
C110	C	1.252335	-0.044257	0.333273
C111	C	1.585668	0.289077	0.666606
C112	C	0.854854	-0.407900	-0.000057
C113	C	1.188187	-0.074567	0.333276
C114	C	1.521520	0.258766	0.666609
C115	C	1.025704	0.101184	-0.000072
C116	C	1.359038	0.434518	0.333261
C117	C	1.692371	0.767851	0.666595
C118	C	1.109630	0.102596	-0.000083
C119	C	1.442964	0.435930	0.333251
C120	C	1.776297	0.769263	0.666584
C121	C	0.871714	0.252805	-0.000068
C122	C	1.205047	0.586139	0.333265
C123	C	1.538380	0.919472	0.666598
C124	C	0.867326	0.341172	-0.000073
C125	C	1.200659	0.674506	0.333261
C126	C	1.533992	1.007839	0.666594
N127	N	0.886909	0.107245	0.195604
N128	N	1.220242	0.440578	0.528938
N129	N	1.553576	0.773912	0.862271
N130	N	0.886948	0.107262	-0.195728
N131	N	1.220282	0.440595	0.137605
N132	N	1.553615	0.773928	0.470939
C133	C	0.941985	0.053053	0.238868
C134	C	1.275318	0.386386	0.572201
C135	C	1.608651	0.719719	0.905534
C136	C	0.941989	0.053052	0.325415
C137	C	1.275322	0.386385	0.658748
C138	C	1.608655	0.719719	0.992081
C139	C	0.886920	0.107248	0.368697
C140	C	1.220253	0.440581	0.702030
C141	C	1.553586	0.773914	1.035363
C142	C	0.831838	0.161443	0.325427
C143	C	1.165172	0.494776	0.658761
C144	C	1.498505	0.828109	0.992094
C145	C	0.831832	0.161439	0.238882
C146	C	1.165165	0.494772	0.572215
C147	C	1.498498	0.828106	0.905548
C148	C	0.831863	0.161457	0.674456
C149	C	1.165196	0.494791	1.007789
C150	C	1.498530	0.828124	1.341122
C151	C	0.831875	0.161458	0.761007
C152	C	1.165209	0.494792	1.094340
C153	C	1.498542	0.828125	1.427674
C154	C	0.942020	0.053070	0.760988
C155	C	1.275353	0.386404	1.094322
C156	C	1.608687	0.719737	1.427655
C157	C	0.942014	0.053067	0.674443
C158	C	1.275347	0.386400	1.007776
C159	C	1.608680	0.719734	1.341110
C160	C	0.886930	0.107258	0.631181
C161	C	1.220263	0.440592	0.964514
C162	C	1.553597	0.773925	1.297848
C163	C	0.886926	0.107258	0.537337
C164	C	1.220259	0.440591	0.870670
C165	C	1.553592	0.773924	1.204004
C166	C	0.886927	0.107253	0.462539
C167	C	1.220260	0.440586	0.795873
C168	C	1.553593	0.773920	1.129206
H169	H	0.513816	0.109362	0.135929
H170	H	0.847150	0.442695	0.469263
H171	H	1.180483	0.776028	0.802596
Br172	Br	1.016756	-0.020482	0.615705
Br173	Br	1.350089	0.312851	0.949039
Br174	Br	1.683422	0.646185	1.282372
Br175	Br	0.281389	0.105461	0.176599
Br176	Br	0.614723	0.438795	0.509932
Br177	Br	0.948056	0.772128	0.843265
H178	H	0.740690	-0.633675	-0.000073
H179	H	1.074024	-0.300342	0.333260
H180	H	1.407357	0.032991	0.666594
H181	H	0.733200	-0.483040	-0.000069
H182	H	1.066533	-0.149706	0.333264
H183	H	1.399867	0.183627	0.666597
H184	H	0.656866	0.111789	0.135936
H185	H	0.990199	0.445122	0.469270
H186	H	1.323533	0.778455	0.802603
Br187	Br	0.757615	-0.338508	-0.000045
Br188	Br	1.090948	-0.005174	0.333288
Br189	Br	1.424282	0.328159	0.666621
H190	H	0.985713	-0.517936	-0.000064
H191	H	1.319046	-0.184602	0.333270
H192	H	1.652380	0.148731	0.666603
H193	H	1.040650	-0.302453	-0.000056
H194	H	1.373983	0.030880	0.333277
H195	H	1.707317	0.364213	0.666610
Br196	Br	0.757078	0.234984	0.180167
Br197	Br	1.090411	0.568317	0.513500
Br198	Br	1.423745	0.901650	0.846834
H199	H	1.033166	-0.151817	-0.000053
H200	H	1.366500	0.181517	0.333280
H201	H	1.699833	0.514850	0.666614
H202	H	0.513859	0.109406	-0.136036
H203	H	0.847193	0.442740	0.197297
H204	H	1.180526	0.776073	0.530631
H205	H	0.116985	0.102736	-0.136063
H206	H	0.450318	0.436069	0.197271
H207	H	0.783652	0.769402	0.530604
Br208	Br	0.678332	0.112179	-0.176720
Br209	Br	1.011665	0.445512	0.156613
Br210	Br	1.344999	0.778845	0.489947
H211	H	0.986870	0.008942	0.796222
H212	H	1.320203	0.342275	1.129555
H213	H	1.653537	0.675609	1.462888
H214	H	0.116929	0.102709	0.135902
H215	H	0.450262	0.436043	0.469235
H216	H	0.783595	0.769376	0.802568
H217	H	0.780655	-0.116931	-0.000058
H218	H	1.113988	0.216402	0.333275
H219	H	1.447321	0.549735	0.666608
Br220	Br	1.032098	-0.696323	-0.000088
Br221	Br	1.365431	-0.362989	0.333245
Br222	Br	1.698764	-0.029656	0.666578
H223	H	0.977340	-0.419230	-0.000066
H224	H	1.310674	-0.085897	0.333268
H225	H	1.644007	0.247437	0.666601
Br226	Br	0.281456	0.105488	-0.176742
Br227	Br	0.614790	0.438821	0.156592
Br228	Br	0.948123	0.772155	0.489925
H229	H	0.786996	0.205567	0.360673
H230	H	1.120330	0.538900	0.694006
H231	H	1.453663	0.872234	1.027339
H232	H	0.787014	0.205583	0.639238
H233	H	1.120347	0.538917	0.972572
H234	H	1.453680	0.872250	1.305905
Br235	Br	1.016731	-0.020497	0.180137
Br236	Br	1.350064	0.312836	0.513470
Br237	Br	1.683398	0.646169	0.846803
H238	H	0.788144	-0.267555	-0.000062
H239	H	1.121477	0.065778	0.333272
H240	H	1.454811	0.399112	0.666605
H241	H	0.986835	0.008924	0.360639
H242	H	1.320168	0.342257	0.693973
H243	H	1.653501	0.675591	1.027306
H244	H	0.787029	0.205593	0.796246
H245	H	1.120362	0.538926	1.129579
H246	H	1.453695	0.872259	1.462913
