data_functionalizedCrystal
_audit_creation_method	'MofGen! by Chris Wilmer'
_symmetry_space_group_name_H-M	'P1'
_symmetry_Int_Tables_number	1
_symmetry_cell_setting	triclinic
loop_
_symmetry_equiv_pos_as_xyz
  x,y,z
_cell_length_a	29.839135
_cell_length_b	21.295417
_cell_length_c	21.295411
_cell_angle_alpha	90.021644
_cell_angle_beta	90.027776
_cell_angle_gamma	90.033036
loop_
_atom_site_label
_atom_site_type_symbol
_atom_site_fract_x
_atom_site_fract_y
_atom_site_fract_z
Zn1	Zn	0.686808	-0.250638	0.355965
Zn2	Zn	0.686739	-0.355890	0.250691
Zn3	Zn	0.611675	-0.250644	0.250705
Zn4	Zn	0.611653	-0.355878	0.355917
O5	O	0.649219	-0.303263	0.303319
O6	O	0.749666	-0.264603	0.342015
O7	O	0.676761	-0.341936	0.162603
O8	O	0.621680	-0.162553	0.264694
O9	O	0.749615	-0.341931	0.264670
O10	O	0.676880	-0.162550	0.342029
O11	O	0.621612	-0.264612	0.162613
O12	O	0.548805	-0.264600	0.264646
O13	O	0.621643	-0.341911	0.444013
O14	O	0.548789	-0.341916	0.341945
O15	O	0.676859	-0.264592	0.444048
O16	O	0.676740	-0.443978	0.264623
O17	O	0.621575	-0.443969	0.341932
C18	C	0.649160	-0.466814	0.303284
C19	C	0.649176	-0.536782	0.303291
C20	C	0.532496	-0.303258	0.303292
C21	C	0.482562	-0.303271	0.303296
C22	C	0.677926	-0.569633	0.263077
C23	C	0.677947	-0.635375	0.263091
C24	C	0.649210	-0.668265	0.303312
C25	C	0.620458	-0.635407	0.343534
C26	C	0.620441	-0.569665	0.343523
N27	N	0.609910	-0.771534	0.308102
N28	N	0.609927	-0.833985	0.308109
C29	C	0.649260	-0.866340	0.303348
N30	N	0.688576	-0.833883	0.298569
N31	N	0.688558	-0.771426	0.298559
C32	C	0.649225	-0.739550	0.303329
C33	C	0.678035	-0.970475	0.263148
C34	C	0.678057	-1.036219	0.263167
C35	C	0.620564	-1.036249	0.343606
C36	C	0.620546	-0.970507	0.343591
C37	C	0.649281	-0.937624	0.303358
C38	C	0.172942	-0.263059	0.343652
C39	C	-0.014731	-0.263063	0.343670
O40	O	-0.038976	-0.228859	0.377952
N41	N	-0.038223	-0.303263	0.303342
C42	C	-0.014795	-0.343462	0.263005
O43	O	-0.039083	-0.377650	0.228699
C44	C	0.172878	-0.343454	0.262984
C45	C	0.196367	-0.303256	0.303319
C46	C	0.196432	-0.222864	0.383983
C47	C	0.243347	-0.222865	0.383981
C48	C	0.266773	-0.263062	0.343647
C49	C	0.243283	-0.303258	0.303316
C50	C	0.196306	-0.383649	0.222643
C51	C	0.243227	-0.383643	0.222641
C52	C	0.266716	-0.343445	0.262975
C53	C	0.313624	-0.343457	0.262980
N54	N	0.337116	-0.303257	0.303308
C55	C	0.313691	-0.263060	0.343641
C56	C	-0.113325	-0.343464	0.263019
C57	C	-0.160243	-0.343467	0.263025
C58	C	-0.160176	-0.263067	0.343690
C59	C	-0.113258	-0.263068	0.343687
C60	C	-0.089833	-0.303264	0.303347
C61	C	0.412217	-0.263067	0.343634
C62	C	0.459136	-0.263074	0.343629
C63	C	0.459065	-0.343471	0.262963
C64	C	0.412150	-0.343467	0.262969
C65	C	0.388727	-0.303259	0.303306
O66	O	0.337898	-0.377638	0.228711
O67	O	0.337987	-0.228867	0.377932
C68	C	0.126026	-0.263057	0.343655
C69	C	0.102537	-0.303253	0.303324
C70	C	0.125962	-0.343450	0.262990
C71	C	0.055619	-0.303255	0.303329
C72	C	0.032193	-0.263058	0.343663
C73	C	0.055686	-0.222858	0.383990
C74	C	0.102601	-0.222860	0.383988
C75	C	0.102470	-0.383650	0.222663
C76	C	0.055554	-0.383645	0.222669
C77	C	0.032129	-0.343448	0.263002
C78	C	0.766397	-0.303268	0.303347
C79	C	0.816331	-0.303270	0.303358
C80	C	0.649256	-0.303249	0.467510
C81	C	0.649272	-0.303244	0.537478
C82	C	0.649290	-0.139072	0.303368
C83	C	0.649320	-0.069104	0.303389
C84	C	0.649207	-0.303230	0.139768
C85	C	0.649279	-0.303059	0.069800
C86	C	0.678022	-0.262982	0.570364
C87	C	0.678021	-0.262954	0.636107
C88	C	0.649275	-0.303200	0.668960
C89	C	0.620520	-0.343465	0.636066
C90	C	0.620518	-0.343487	0.570325
N91	N	0.645809	-0.358268	0.772175
N92	N	0.645813	-0.358246	0.834627
C93	C	0.649278	-0.303137	0.867035
N94	N	0.652747	-0.248049	0.834633
N95	N	0.652745	-0.248072	0.772176
C96	C	0.649274	-0.303181	0.740246
C97	C	0.678029	-0.262842	0.971207
C98	C	0.678025	-0.262813	1.036951
C99	C	0.620526	-0.343330	1.036909
C100	C	0.620528	-0.343352	0.971167
C101	C	0.649281	-0.303109	0.938320
H102	H	0.701324	-0.542861	0.230319
H103	H	0.701360	-0.662127	0.230345
C104	C	-0.185801	-0.387016	0.219203
C105	C	-0.212748	-0.351319	0.178933
C106	C	-0.236301	-0.391413	0.138558
H107	H	-0.165178	-0.410967	0.195122
H108	H	-0.204130	-0.414472	0.243216
H109	H	-0.194420	-0.323874	0.154922
H110	H	-0.233379	-0.327369	0.202996
H111	H	-0.254630	-0.418869	0.162571
H112	H	-0.215675	-0.415363	0.114481
H113	H	-0.254590	-0.367199	0.111234
H114	H	0.597029	-0.542918	0.376270
H115	H	-0.179257	-0.230338	0.376531
C116	C	0.709208	-0.934847	0.219372
C117	C	0.699460	-0.950901	0.157080
C118	C	0.728170	-0.918100	0.116737
H119	H	0.705106	-0.890980	0.225037
H120	H	0.739401	-0.945586	0.228590
H121	H	0.669274	-0.940158	0.147865
H122	H	0.703565	-0.994763	0.151395
H123	H	0.758363	-0.928839	0.125955
H124	H	0.724066	-0.874234	0.122407
H125	H	0.721563	-0.928992	0.074468
C126	C	0.170751	-0.427190	0.178813
C127	C	0.143807	-0.391489	0.138544
C128	C	0.120256	-0.431579	0.098162
H129	H	0.191376	-0.451139	0.154732
H130	H	0.152421	-0.454648	0.202821
H131	H	0.162136	-0.364041	0.114538
H132	H	0.123174	-0.367541	0.162608
H133	H	0.101925	-0.459037	0.122170
H134	H	0.140883	-0.455526	0.074085
H135	H	0.101968	-0.407362	0.070838
C136	C	0.589262	-0.386967	0.935422
C137	C	0.560474	-0.351334	0.897675
C138	C	0.531660	-0.391490	0.864745
H139	H	0.606383	-0.414415	0.909735
H140	H	0.572114	-0.410923	0.964382
H141	H	0.577620	-0.327389	0.868720
H142	H	0.543343	-0.323887	0.923347
H143	H	0.514513	-0.415446	0.893704
H144	H	0.548785	-0.418937	0.839061
H145	H	0.512122	-0.367319	0.839135
C146	C	0.709368	-1.071774	0.219542
C147	C	0.753796	-1.055661	0.233321
C148	C	0.782660	-1.088380	0.193142
H149	H	0.705347	-1.115653	0.225251
H150	H	0.702835	-1.061009	0.177227
H151	H	0.760327	-1.066429	0.275626
H152	H	0.757830	-1.011787	0.227608
H153	H	0.776127	-1.077616	0.150827
H154	H	0.778636	-1.132258	0.198854
H155	H	0.812808	-1.077448	0.202482
H156	H	0.597061	-0.662190	0.376283
C157	C	0.589382	-1.072063	0.387210
C158	C	0.595544	-1.136669	0.378605
C159	C	0.566824	-1.169683	0.418760
H160	H	0.595912	-1.061331	0.429537
H161	H	0.559187	-1.061372	0.377949
H162	H	0.625732	-1.147355	0.387870
H163	H	0.589011	-1.147420	0.336286
H164	H	0.536629	-1.158992	0.409500
H165	H	0.573356	-1.158946	0.461085
H166	H	0.570998	-1.213521	0.412923
H167	H	0.597134	-0.943758	0.376334
C168	C	0.589392	-0.387110	1.072600
C169	C	0.614816	-0.427456	1.110342
C170	C	0.586150	-0.467803	1.143224
H171	H	0.569817	-0.363099	1.098287
H172	H	0.572281	-0.411131	1.043612
H173	H	0.631920	-0.403438	1.139326
H174	H	0.634390	-0.451481	1.084670
H175	H	0.569038	-0.491824	1.114236
H176	H	0.566576	-0.443787	1.168908
H177	H	0.603395	-0.495186	1.168831
C178	C	-0.087732	-0.219526	0.387553
C179	C	-0.060802	-0.255224	0.427843
C180	C	-0.037289	-0.215132	0.468267
H181	H	-0.069393	-0.192047	0.363596
H182	H	-0.108393	-0.195601	0.411611
H183	H	-0.040143	-0.279139	0.403787
H184	H	-0.079129	-0.282702	0.451813
H185	H	-0.057949	-0.191207	0.492325
H186	H	-0.018952	-0.187655	0.444305
H187	H	-0.019017	-0.239348	0.495612
H188	H	0.478260	-0.230339	0.376477
H189	H	0.121538	-0.416383	0.189817
C190	C	0.128124	-0.179317	0.427856
C191	C	0.155052	-0.215013	0.468151
C192	C	0.178561	-0.174921	0.508577
H193	H	0.146464	-0.151838	0.403901
H194	H	0.107461	-0.155391	0.451910
H195	H	0.175712	-0.238929	0.444099
H196	H	0.136722	-0.242491	0.492120
H197	H	0.157899	-0.150995	0.532632
H198	H	0.196900	-0.147444	0.484618
H199	H	0.196832	-0.199135	0.535926
H200	H	0.393151	-0.230324	0.376478
H201	H	0.262469	-0.190131	0.416824
C202	C	0.709164	-0.219013	1.072689
C203	C	0.683744	-0.178636	1.110398
C204	C	0.712413	-0.138271	1.143321
H205	H	0.728737	-0.243009	1.098401
H206	H	0.726278	-0.195015	1.043725
H207	H	0.666638	-0.202632	1.139358
H208	H	0.664172	-0.154627	1.084701
H209	H	0.729527	-0.114273	1.114358
H210	H	0.731985	-0.162272	1.169030
H211	H	0.695170	-0.110867	1.168906
H212	H	0.177364	-0.190127	0.416827
H213	H	-0.094257	-0.376199	0.230168
C214	C	0.709258	-0.219076	0.935653
C215	C	0.734425	-0.183792	0.978528
C216	C	0.763194	-0.143463	0.945801
H217	H	0.728863	-0.243095	0.910018
H218	H	0.692094	-0.191624	0.910010
H219	H	0.751589	-0.211241	1.004161
H220	H	0.714833	-0.159761	1.004165
H221	H	0.746029	-0.116011	0.920158
H222	H	0.782795	-0.167487	0.920167
H223	H	0.780270	-0.119514	0.974887
C224	C	0.386588	-0.387011	0.219144
C225	C	0.359648	-0.351308	0.178871
C226	C	0.336093	-0.391396	0.138491
H227	H	0.407210	-0.410966	0.195065
H228	H	0.368254	-0.414464	0.243153
H229	H	0.377980	-0.323866	0.154864
H230	H	0.339017	-0.327354	0.202932
H231	H	0.317760	-0.418849	0.162500
H232	H	0.356719	-0.415349	0.114417
H233	H	0.317809	-0.367177	0.111165
C234	C	0.709155	-0.219230	0.534632
C235	C	0.683725	-0.178904	0.496878
C236	C	0.712386	-0.138588	0.463950
H237	H	0.726281	-0.195187	0.563574
H238	H	0.728718	-0.243283	0.508953
H239	H	0.664170	-0.154853	0.522555
H240	H	0.666601	-0.202929	0.467925
H241	H	0.731949	-0.162641	0.438271
H242	H	0.729510	-0.114549	0.492896
H243	H	0.695136	-0.111225	0.438326
H244	H	0.478147	-0.376200	0.230125
C245	C	0.268577	-0.427359	0.178821
C246	C	0.237960	-0.462570	0.143515
C247	C	0.261295	-0.502855	0.103150
H248	H	0.286882	-0.403311	0.151380
H249	H	0.286867	-0.454858	0.202834
H250	H	0.219678	-0.435074	0.119503
H251	H	0.219654	-0.486631	0.170939
H252	H	0.279585	-0.530354	0.127164
H253	H	0.279599	-0.478802	0.075713
H254	H	0.240525	-0.526755	0.079194
H255	H	0.036604	-0.190130	0.416833
H256	H	0.701432	-0.230165	0.662888
C257	C	0.030112	-0.427396	0.178909
C258	C	0.041513	-0.489698	0.192485
C259	C	0.018092	-0.530012	0.152179
H260	H	-0.001193	-0.421728	0.184640
H261	H	0.037803	-0.418153	0.136623
H262	H	0.033819	-0.498938	0.234762
H263	H	0.072815	-0.495386	0.186750
H264	H	0.025783	-0.520770	0.109892
H265	H	-0.013213	-0.524339	0.157913
H266	H	0.025827	-0.572289	0.161381
H267	H	0.597114	-0.376232	0.662820
H268	H	0.597105	-0.376272	0.543549
