data_functionalizedCrystal
_audit_creation_method	'MofGen! by Chris Wilmer'
_symmetry_space_group_name_H-M	'P1'
_symmetry_Int_Tables_number	1
_symmetry_cell_setting	triclinic
loop_
_symmetry_equiv_pos_as_xyz
  x,y,z
_cell_length_a	6.817900
_cell_length_b	7.190334
_cell_length_c	14.858565
_cell_angle_alpha	89.892565
_cell_angle_beta	104.523916
_cell_angle_gamma	60.611776
loop_
_atom_site_label
_atom_site_type_symbol
_atom_site_fract_x
_atom_site_fract_y
_atom_site_fract_z
V1	V	-4.228273	0.665589	-0.127185
V2	V	-3.728273	1.165589	0.372815
O3	O	-4.206410	0.652306	0.007638
O4	O	-3.706410	1.152306	0.507638
O5	O	-4.183740	0.661625	-0.253655
O6	O	-3.683740	1.161625	0.246345
O7	O	-4.265327	0.955606	-0.124559
O8	O	-3.765327	1.455606	0.375441
O9	O	-4.124258	0.356290	-0.122352
O10	O	-3.624258	0.856290	0.377648
V11	V	-4.700327	0.628522	-0.111138
V12	V	-4.200327	1.128522	0.388862
O13	O	-4.514690	0.746896	-0.162386
O14	O	-4.014690	1.246896	0.337614
O15	O	-4.864107	0.547215	-0.075937
O16	O	-4.364107	1.047215	0.424063
O17	O	-4.521653	0.632486	0.015332
O18	O	-4.021653	1.132486	0.515332
O19	O	-4.839586	0.641805	-0.245962
O20	O	-4.339586	1.141805	0.254038
O21	O	-4.921739	0.937821	-0.115972
O22	O	-4.421739	1.437821	0.384028
O23	O	-4.440066	0.338505	-0.113764
O24	O	-3.940066	0.838505	0.386236
C25	C	-4.026916	0.651277	-0.284507
C26	C	-3.526916	1.151277	0.215493
C27	C	-4.072362	0.649969	-0.387893
C28	C	-3.572362	1.149969	0.112107
C29	C	-4.131000	1.026276	-0.119828
C30	C	-3.631000	1.526276	0.380172
C31	C	-4.244702	1.267827	-0.118491
C32	C	-3.744702	1.767827	0.381509
C33	C	-4.238705	0.645211	-0.766475
C34	C	-3.738705	1.145211	-0.266475
C35	C	-4.192415	0.646534	-0.661142
C36	C	-3.692415	1.146534	-0.161142
C37	C	-4.155534	0.647588	-0.577187
C38	C	-3.655534	1.147588	-0.077187
C39	C	-4.109243	0.648915	-0.471848
C40	C	-3.609243	1.148915	0.028152
C41	C	-4.341817	0.642828	0.046178
C42	C	-3.841817	1.142828	0.546178
C43	C	-4.275614	0.644150	0.149564
C44	C	-3.775614	1.144150	0.649564
