data_functionalizedCrystal
_audit_creation_method	'MofGen! by Chris Wilmer'
_symmetry_space_group_name_H-M	'P1'
_symmetry_Int_Tables_number	1
_symmetry_cell_setting	triclinic
loop_
_symmetry_equiv_pos_as_xyz
  x,y,z
_cell_length_a	15.297327
_cell_length_b	15.297621
_cell_length_c	15.297738
_cell_angle_alpha	72.639334
_cell_angle_beta	69.242341
_cell_angle_gamma	88.375711
loop_
_atom_site_label
_atom_site_type_symbol
_atom_site_fract_x
_atom_site_fract_y
_atom_site_fract_z
Zn1	Zn	-0.754874	-1.401251	0.882767
Zn2	Zn	-0.874138	-1.356634	0.744827
Zn3	Zn	-0.691723	-1.228159	0.691094
Zn4	Zn	-0.874058	-1.228095	0.873413
O5	O	-0.798698	-1.303535	0.798025
O6	O	-0.797157	-1.521565	0.890871
O7	O	-0.823545	-1.320945	0.603670
O8	O	-0.573880	-1.269819	0.697947
O9	O	-0.884780	-1.488786	0.789527
O10	O	-0.620277	-1.396989	0.838768
O11	O	-0.689525	-1.226555	0.564193
O12	O	-0.689448	-1.101917	0.688877
O13	O	-0.884644	-1.269711	1.008683
O14	O	-0.823409	-1.101870	0.822826
O15	O	-0.797080	-1.396927	1.015555
O16	O	-1.000348	-1.320884	0.780457
O17	O	-1.000289	-1.226447	0.874929
C18	C	-0.749567	-1.069163	0.749007
C19	C	-0.728575	-0.968898	0.728062
C20	C	-0.948694	-0.686162	0.947673
C21	C	-0.968424	-0.780365	0.967350
C22	C	-0.908463	-0.827503	0.907530
C23	C	-0.828770	-0.780429	0.828029
C24	C	-0.809043	-0.686215	0.808346
C25	C	-0.768811	-0.827556	0.768203
C26	C	-0.689118	-0.780481	0.688702
C27	C	-0.669394	-0.686277	0.669023
C28	C	-0.729355	-0.639139	0.728843
C29	C	-0.788539	-0.921769	0.787886
C30	C	-0.648887	-0.921822	0.648559
C31	C	-0.629158	-0.827619	0.628882
C32	C	-1.033055	-1.268845	0.832534
C33	C	-1.133338	-1.254091	0.847347
C34	C	-1.416089	-1.409398	0.692563
C35	C	-1.321868	-1.423259	0.678641
C36	C	-1.274731	-1.380968	0.720816
C37	C	-1.321824	-1.324814	0.776916
C38	C	-1.416053	-1.310947	0.790833
C39	C	-1.274694	-1.282517	0.819086
C40	C	-1.321788	-1.226363	0.875186
C41	C	-1.416007	-1.212498	0.889101
C42	C	-1.463144	-1.254788	0.846925
C43	C	-1.180466	-1.296384	0.805169
C44	C	-1.180429	-1.197933	0.903439
C45	C	-1.274651	-1.184072	0.917361
C46	C	-0.563436	-1.338388	0.763407
C47	C	-0.463181	-1.353240	0.748655
C48	C	-0.847897	-1.338289	1.047843
C49	C	-0.868863	-1.353099	1.154301
C50	C	-0.848013	-0.538821	0.847227
C51	C	-0.869006	-0.639087	0.868170
C52	C	-0.749637	-1.268977	0.549180
C53	C	-0.728454	-1.254380	0.442722
C54	C	-0.948491	-1.409200	1.224870
C55	C	-0.968183	-1.423121	1.324892
C56	C	-0.908252	-1.380937	1.354355
C57	C	-0.828626	-1.324829	1.283785
C58	C	-0.808929	-1.310912	1.183753
C59	C	-0.768690	-1.282649	1.313238
C60	C	-0.689064	-1.226542	1.242668
C61	C	-0.669371	-1.212627	1.142647
C62	C	-0.729301	-1.254811	1.113184
C63	C	-0.788388	-1.296566	1.413270
C64	C	-0.648826	-1.198278	1.372153
C65	C	-0.629134	-1.184357	1.272131
H66	H	-0.853425	-0.960088	0.852617
O67	O	-1.554688	-1.241265	0.860590
C68	C	-1.586142	-1.182613	0.919123
H69	H	-1.540187	-1.185702	0.964388
H70	H	-1.661998	-1.205607	0.970494
H71	H	-1.581677	-1.109105	0.869822
H72	H	-0.564271	-0.789277	0.564152
H73	H	-1.454344	-1.166761	0.934768
O74	O	-1.275973	-1.477743	0.624144
C75	C	-1.182708	-1.480930	0.620921
H76	H	-1.161459	-1.417535	0.635776
H77	H	-1.134085	-1.482385	0.545187
H78	H	-1.177163	-1.545447	0.679192
O79	O	-1.045732	-0.826213	1.044626
C80	C	-1.018078	-0.896904	1.110427
H81	H	-0.945996	-0.916451	1.069638
H82	H	-1.071228	-0.959492	1.142458
H83	H	-1.014648	-0.871934	1.172392
O84	O	-1.006621	-1.450074	1.196079
C85	C	-0.972143	-1.425781	1.092662
H86	H	-0.925319	-1.358640	1.060097
H87	H	-1.033498	-1.416602	1.065863
H88	H	-0.929734	-1.482454	1.068402
O89	O	-1.320536	-1.129639	0.971937
C90	C	-1.397904	-1.181562	1.052624
H91	H	-1.419659	-1.243189	1.035281
H92	H	-1.459012	-1.136840	1.067530
H93	H	-1.377606	-1.206642	1.120306
O94	O	-0.590485	-1.157257	1.400594
C95	C	-0.515990	-1.104740	1.316860
H96	H	-0.506571	-1.132231	1.252826
H97	H	-0.448599	-1.109669	1.333293
H98	H	-0.532561	-1.029855	1.296753
H99	H	-0.924531	-0.904207	0.923556
O100	O	-1.134639	-1.350795	0.750548
C101	C	-1.057242	-1.298890	0.669884
H102	H	-1.069629	-1.222827	0.653254
H103	H	-1.048514	-1.321477	0.602880
H104	H	-0.990999	-1.310394	0.688291
H105	H	-1.198011	-1.392256	0.709476
O106	O	-1.462016	-1.450404	0.651668
C107	C	-1.555263	-1.426082	0.675939
H108	H	-1.576495	-1.404908	0.745564
H109	H	-1.603920	-1.487474	0.688862
H110	H	-1.560777	-1.366200	0.613020
H111	H	-0.713272	-1.243480	1.031740
H112	H	-0.997510	-0.647773	0.996365
O113	O	-0.710151	-0.547601	0.709537
C114	C	-0.708526	-0.499936	0.614522
H115	H	-0.693550	-0.548847	0.568451
H116	H	-0.651272	-0.440576	0.578394
H117	H	-0.779439	-0.471843	0.619889
O118	O	-1.134780	-1.156749	0.944450
C119	C	-1.196553	-1.104225	0.996961
H120	H	-1.255360	-1.085783	0.967003
H121	H	-1.156485	-1.038557	0.988241
H122	H	-1.227765	-1.145862	1.078100
H123	H	-0.604510	-0.647949	0.604280
H124	H	-0.924290	-1.392275	1.435799
O125	O	-0.590771	-0.967675	0.590436
C126	C	-0.641239	-1.005938	0.547401
H127	H	-0.719233	-1.014619	0.594086
H128	H	-0.615836	-1.075845	0.543058
H129	H	-0.629459	-0.958293	0.470261
O130	O	-0.865695	-1.351179	1.481726
C131	C	-0.860005	-1.440609	1.473198
H132	H	-0.811418	-1.437509	1.395862
H133	H	-0.932907	-1.470935	1.487809
H134	H	-0.831092	-1.485698	1.529027
H135	H	-1.033014	-1.468805	1.382343
H136	H	-0.604529	-1.166947	1.085191
O137	O	-0.551880	-1.129783	1.203479
C138	C	-0.579632	-1.055852	1.141009
H139	H	-0.651710	-1.075456	1.142748
H140	H	-0.526514	-1.039424	1.062733
H141	H	-0.583113	-0.992896	1.167031
