data_functionalizedCrystal
_audit_creation_method	'MofGen! by Chris Wilmer'
_symmetry_space_group_name_H-M	'P1'
_symmetry_Int_Tables_number	1
_symmetry_cell_setting	triclinic
loop_
_symmetry_equiv_pos_as_xyz
  x,y,z
_cell_length_a	18.215407
_cell_length_b	16.625545
_cell_length_c	16.625539
_cell_angle_alpha	89.973630
_cell_angle_beta	90.017219
_cell_angle_gamma	89.975515
loop_
_atom_site_label
_atom_site_type_symbol
_atom_site_fract_x
_atom_site_fract_y
_atom_site_fract_z
Zn1	Zn	1.125057	0.321005	0.455913
Zn2	Zn	1.458391	0.654339	0.789247
Zn3	Zn	1.791724	0.987672	1.122580
Zn4	Zn	1.124973	0.455844	0.321081
Zn5	Zn	1.458306	0.789177	0.654414
Zn6	Zn	1.791640	1.122511	0.987747
Zn7	Zn	1.001995	0.321030	0.321093
Zn8	Zn	1.335329	0.654364	0.654427
Zn9	Zn	1.668662	0.987697	0.987760
Zn10	Zn	1.001958	0.455801	0.455870
Zn11	Zn	1.335291	0.789134	0.789203
Zn12	Zn	1.668624	1.122467	1.122537
O13	O	1.063496	0.388420	0.388489
O14	O	1.396829	0.721753	0.721823
O15	O	1.730163	1.055087	1.055156
O16	O	1.228030	0.338900	0.438040
O17	O	1.561364	0.672233	0.771373
O18	O	1.894697	1.005566	1.104707
O19	O	1.108641	0.437989	0.208250
O20	O	1.441974	0.771323	0.541583
O21	O	1.775307	1.104656	0.874917
O22	O	1.018371	0.208195	0.339001
O23	O	1.351704	0.541528	0.672334
O24	O	1.685038	0.874861	1.005668
O25	O	1.227969	0.437965	0.338979
O26	O	1.561302	0.771299	0.672313
O27	O	1.894635	1.104632	1.005646
O28	O	1.108784	0.208176	0.438052
O29	O	1.442117	0.541510	0.771386
O30	O	1.775451	0.874843	1.104719
O31	O	1.018289	0.338942	0.208259
O32	O	1.351623	0.672275	0.541593
O33	O	1.684956	1.005609	0.874926
O34	O	0.899006	0.338900	0.338959
O35	O	1.232340	0.672233	0.672292
O36	O	1.565673	1.005567	1.005626
O37	O	1.018306	0.437891	0.568708
O38	O	1.351640	0.771225	0.902042
O39	O	1.684973	1.104558	1.235375
O40	O	0.898978	0.437915	0.437979
O41	O	1.232312	0.771249	0.771312
O42	O	1.565645	1.104582	1.104646
O43	O	1.108747	0.338858	0.568740
O44	O	1.442081	0.672191	0.902073
O45	O	1.775414	1.005524	1.235407
O46	O	1.108604	0.568671	0.338937
O47	O	1.441937	0.902004	0.672271
O48	O	1.775270	1.235337	1.005604
O49	O	1.018225	0.568639	0.437967
O50	O	1.351558	0.901972	0.771300
O51	O	1.684891	1.235306	1.104633
C52	C	0.872290	0.388406	0.388466
C53	C	1.205623	0.721740	0.721800
C54	C	1.538956	1.055073	1.055133
C55	C	0.790491	0.388420	0.388475
C56	C	1.123824	0.721753	0.721809
C57	C	1.457157	1.055087	1.055142
C58	C	0.602302	0.440058	0.439970
C59	C	0.935635	0.773392	0.773304
C60	C	1.268968	1.106725	1.106637
C61	C	0.525443	0.440061	0.439980
C62	C	0.858776	0.773394	0.773314
C63	C	1.192109	1.106727	1.106647
C64	C	0.525442	0.336797	0.337026
C65	C	0.858776	0.670130	0.670359
C66	C	1.192109	1.003463	1.003693
C67	C	0.602300	0.336791	0.337021
C68	C	0.935633	0.670124	0.670354
C69	C	1.268966	1.003457	1.003687
C70	C	0.640727	0.388426	0.388492
C71	C	0.974061	0.721759	0.721825
C72	C	1.307394	1.055093	1.055158
C73	C	0.487011	0.388435	0.388507
C74	C	0.820344	0.721768	0.721840
C75	C	1.153678	1.055101	1.055174
C76	C	0.403677	0.388437	0.388518
C77	C	0.737011	0.721770	0.721851
C78	C	1.070344	1.055104	1.055184
C79	C	0.724066	0.388423	0.388482
C80	C	1.057400	0.721756	0.721816
C81	C	1.390733	1.055089	1.055149
C82	C	1.063421	0.597911	0.388463
C83	C	1.396754	0.931244	0.721797
C84	C	1.730088	1.264578	1.055130
C85	C	1.063456	0.687532	0.388479
C86	C	1.396790	1.020865	0.721813
C87	C	1.730123	1.354199	1.055146
C88	C	1.063576	1.015708	0.388576
C89	C	1.396910	1.349041	0.721909
C90	C	1.730243	1.682374	1.055242
C91	C	1.063541	0.924399	0.388551
C92	C	1.396874	1.257733	0.721885
C93	C	1.730207	1.591066	1.055218
C94	C	1.063516	0.851623	0.388527
C95	C	1.396849	1.184956	0.721860
C96	C	1.730182	1.518289	1.055194
C97	C	1.063481	0.760309	0.388503
C98	C	1.396815	1.093642	0.721837
C99	C	1.730148	1.426975	1.055170
C100	C	1.255449	0.388435	0.388513
C101	C	1.588782	0.721768	0.721846
C102	C	1.922115	1.055101	1.055180
C103	C	1.337248	0.388441	0.388523
C104	C	1.670581	0.721774	0.721856
C105	C	2.003914	1.055107	1.055190
C106	C	1.063532	0.388367	0.598798
C107	C	1.396865	0.721700	0.932132
C108	C	1.730199	1.055034	1.265465
C109	C	1.063547	0.388344	0.688420
C110	C	1.396881	0.721678	1.021753
C111	C	1.730214	1.055011	1.355086
C112	C	1.063585	1.178111	0.388542
C113	C	1.396918	1.511445	0.721876
C114	C	1.730251	1.844778	1.055209
C115	C	1.063607	1.088490	0.388589
C116	C	1.396940	1.421823	0.721923
C117	C	1.730273	1.755157	1.055256
C118	C	1.063502	0.388415	0.178999
C119	C	1.396836	0.721748	0.512332
C120	C	1.730169	1.055082	0.845665
C121	C	1.063630	0.388210	0.089378
C122	C	1.396963	0.721544	0.422711
C123	C	1.730296	1.054877	0.756045
C124	C	1.063559	0.388326	0.761202
C125	C	1.396893	0.721660	1.094535
C126	C	1.730226	1.054993	1.427869
C127	C	1.063577	0.388296	0.852511
C128	C	1.396910	0.721630	1.185844
C129	C	1.730243	1.054963	1.519177
C130	C	1.063594	0.388268	0.925287
C131	C	1.396927	0.721601	1.258620
C132	C	1.730261	1.054935	1.591954
C133	C	1.063612	0.388239	1.016601
C134	C	1.396946	0.721572	1.349935
C135	C	1.730279	1.054906	1.683268
H136	H	0.494145	0.294758	0.295119
H137	H	0.827478	0.628092	0.628452
H138	H	1.160812	0.961425	0.961785
H139	H	0.633587	0.294741	0.295100
H140	H	0.966920	0.628074	0.628434
H141	H	1.300253	0.961407	0.961767
H142	H	0.633587	0.482101	0.481883
H143	H	0.966920	0.815434	0.815217
H144	H	1.300254	1.148768	1.148550
H145	H	0.494160	0.482104	0.481901
H146	H	0.827493	0.815437	0.815234
H147	H	1.160827	1.148770	1.148568
