data_functionalizedCrystal
_audit_creation_method	'MofGen! by Chris Wilmer'
_symmetry_space_group_name_H-M	'P1'
_symmetry_Int_Tables_number	1
_symmetry_cell_setting	triclinic
loop_
_symmetry_equiv_pos_as_xyz
  x,y,z
_cell_length_a	6.817900
_cell_length_b	15.300992
_cell_length_c	15.185107
_cell_angle_alpha	94.920616
_cell_angle_beta	104.257894
_cell_angle_gamma	104.175078
loop_
_atom_site_label
_atom_site_type_symbol
_atom_site_fract_x
_atom_site_fract_y
_atom_site_fract_z
V1	V	-4.038812	-0.125385	-0.283671
O2	O	-4.022528	0.005380	-0.277990
O3	O	-3.993679	-0.247998	-0.282002
O4	O	-3.994102	-0.123740	-0.407267
O5	O	-4.022102	-0.119738	-0.151858
V6	V	-4.521539	-0.109711	-0.267872
O7	O	-4.301818	-0.159769	-0.318327
O8	O	-4.708731	-0.075328	-0.233216
O9	O	-4.343466	0.012902	-0.269542
O10	O	-4.655220	-0.240477	-0.273554
O11	O	-4.655646	-0.115358	-0.399686
O12	O	-4.343043	-0.111357	-0.144277
C13	C	-3.839355	-0.277880	-0.277597
C14	C	-3.883765	-0.378119	-0.277056
C15	C	-3.861502	-0.412150	-0.193537
C16	C	-3.903250	-0.506336	-0.193032
C17	C	-3.967245	-0.566489	-0.276046
C18	C	-3.989514	-0.532453	-0.359572
C19	C	-3.947781	-0.438268	-0.360077
C20	C	-4.076491	-0.728762	-0.358515
C21	C	-4.118223	-0.822952	-0.358010
C22	C	-4.031959	-0.796829	-0.191470
C23	C	-3.990226	-0.702645	-0.191974
C24	C	-4.012495	-0.668615	-0.275500
C25	C	-3.839893	-0.119375	-0.437383
C26	C	-3.884642	-0.118840	-0.538425
C27	C	-4.116939	-0.199121	-0.978823
C28	C	-4.031140	-0.033906	-0.952462
C29	C	-3.989050	-0.034421	-0.857530
C30	C	-4.010906	-0.117288	-0.823240
C31	C	-4.074852	-0.199640	-0.883882
C32	C	-3.925122	0.047928	-0.796881
C33	C	-3.883030	0.047416	-0.701941
C34	C	-3.904871	-0.035452	-0.667649
C35	C	-3.968819	-0.117807	-0.728299
C36	C	-3.990675	-0.200674	-0.694008
C37	C	-4.054609	-0.283029	-0.754656
C38	C	-4.096693	-0.282507	-0.849590
C39	C	-3.862786	-0.035973	-0.572715
C40	C	-3.948588	-0.201192	-0.599067
C41	C	-4.161132	0.042778	-0.273944
C42	C	-4.095960	0.143017	-0.274491
C43	C	-4.160594	-0.115725	-0.114156
C44	C	-4.095083	-0.116254	-0.013114
H45	H	-3.885123	-0.534039	-0.125022
O46	O	-3.928157	-0.644339	-0.111254
C47	C	-3.917398	-0.694567	-0.037422
H48	H	-4.023136	-0.767131	-0.063045
H49	H	-3.748063	-0.696520	-0.007768
C50	C	-3.861689	-0.559648	0.069252
C51	C	-3.991572	-0.648771	0.037784
H52	H	-3.907432	-0.531398	0.115645
H53	H	-3.868929	-0.525807	0.019511
H54	H	-3.720585	-0.561288	0.093958
H55	H	-4.132666	-0.647129	0.013069
H56	H	-3.984357	-0.682610	0.087522
H57	H	-3.907346	0.115394	-0.824808
O58	O	-3.799231	-0.353592	-0.112975
C59	C	-3.767216	-0.263164	-0.131327
H60	H	-3.735230	-0.259923	-0.201378
H61	H	-3.913843	-0.239867	-0.131525
C62	C	-3.616668	-0.204217	0.029562
C63	C	-3.577365	-0.200234	-0.056473
H64	H	-3.499566	-0.165397	0.075736
H65	H	-3.638243	-0.265139	0.041926
H66	H	-3.738863	-0.184804	0.029383
H67	H	-3.455188	-0.219658	-0.056297
H68	H	-3.555764	-0.139313	-0.068836
O69	O	-3.821199	0.127466	-0.643135
C70	C	-3.978682	0.173550	-0.662690
H71	H	-4.079216	0.149002	-0.736827
H72	H	-4.082263	0.158812	-0.614153
C73	C	-3.751505	0.307109	-0.558411
C74	C	-3.874972	0.276965	-0.649471
H75	H	-3.687535	0.370900	-0.550254
H76	H	-3.645407	0.276060	-0.545233
H77	H	-3.837842	0.294819	-0.517974
H78	H	-3.788630	0.289244	-0.689905
H79	H	-3.981053	0.308018	-0.662655
H80	H	-4.013821	-0.824540	-0.123459
H81	H	-4.072410	-0.350500	-0.726725
O82	O	-3.800972	0.044067	-0.513901
C83	C	-3.958466	0.090146	-0.533454
H84	H	-4.058990	0.065604	-0.607593
H85	H	-4.062054	0.075397	-0.484921
C86	C	-3.731315	0.223700	-0.429161
C87	C	-3.854770	0.193563	-0.520223
H88	H	-3.667354	0.287493	-0.420996
H89	H	-3.625211	0.192655	-0.415985
H90	H	-3.817659	0.211401	-0.388727
H91	H	-3.768422	0.205852	-0.560654
H92	H	-3.960858	0.224612	-0.533406
H93	H	-4.041637	-0.581438	-0.427165
O94	O	-4.180331	-0.881511	-0.438564
C95	C	-4.212426	-0.971937	-0.420204
H96	H	-4.117701	-0.971974	-0.346996
H97	H	-4.386820	-1.003334	-0.427999
C98	C	-4.256205	-1.028208	-0.578429
C99	C	-4.139848	-1.028253	-0.488515
H100	H	-4.211446	-1.062948	-0.620568
H101	H	-4.234590	-0.967287	-0.590800
H102	H	-4.401526	-1.054370	-0.584912
H103	H	-3.994535	-1.002081	-0.482031
H104	H	-4.161437	-1.089171	-0.476145
O105	O	-4.098461	-0.695817	-0.439715
C106	C	-4.308183	-0.731127	-0.494563
H107	H	-4.383998	-0.797256	-0.471963
H108	H	-4.400053	-0.679368	-0.486329
C109	C	-4.217640	-0.669064	-0.623885
C110	C	-4.310751	-0.750289	-0.596132
H111	H	-4.219228	-0.680881	-0.686538
H112	H	-4.076347	-0.645272	-0.586933
H113	H	-4.294210	-0.625940	-0.617016
H114	H	-4.234165	-0.793407	-0.602991
H115	H	-4.452032	-0.774089	-0.633088
H116	H	-4.148754	-0.349557	-0.898977
O117	O	-3.969486	-0.281723	-0.565831
C118	C	-3.832458	-0.327499	-0.592633
H119	H	-3.793173	-0.302223	-0.656381
H120	H	-3.681439	-0.313262	-0.534317
C121	C	-3.988095	-0.461924	-0.536278
C122	C	-3.939859	-0.430885	-0.614578
H123	H	-4.054338	-0.525698	-0.549811
H124	H	-4.080408	-0.431083	-0.518217
H125	H	-3.862234	-0.450052	-0.487689
H126	H	-4.065721	-0.442747	-0.663162
H127	H	-3.847568	-0.461730	-0.632648
O128	O	-4.179302	-0.279183	-1.037647
C129	C	-4.368420	-0.333838	-1.026872
H130	H	-4.383438	-0.312151	-0.955660
H131	H	-4.507487	-0.325095	-1.081552
C132	C	-4.348414	-0.461280	-1.124899
C133	C	-4.366850	-0.434649	-1.037431
H134	H	-4.347453	-0.523466	-1.131416
H135	H	-4.221006	-0.424457	-1.132161
H136	H	-4.464307	-0.453987	-1.170456
H137	H	-4.250945	-0.441931	-0.991877
H138	H	-4.494239	-0.471475	-1.030162
H139	H	-3.965933	-0.410563	-0.428087
H140	H	-4.013364	0.033561	-0.980388
