data_functionalizedCrystal
_audit_creation_method	'MofGen! by Chris Wilmer'
_symmetry_space_group_name_H-M	'P1'
_symmetry_Int_Tables_number	1
_symmetry_cell_setting	triclinic
loop_
_symmetry_equiv_pos_as_xyz
  x,y,z
_cell_length_a	17.917603
_cell_length_b	27.440280
_cell_length_c	17.917595
_cell_angle_alpha	89.992754
_cell_angle_beta	119.861888
_cell_angle_gamma	63.032973
loop_
_atom_site_label
_atom_site_type_symbol
_atom_site_fract_x
_atom_site_fract_y
_atom_site_fract_z
Zr1	Zr	0.806778	0.497303	0.128966
O2	O	0.951823	0.427372	0.249515
O3	O	0.654546	0.515399	0.087310
O4	O	0.796398	0.524226	0.242718
O5	O	0.820664	0.415382	-0.023134
O6	O	0.796385	0.604428	0.242703
O7	O	0.809971	0.418544	0.094108
O8	O	0.542638	0.588637	-0.035293
O9	O	1.074411	0.431173	0.254862
O10	O	0.719813	0.587008	0.075212
O11	O	0.727803	0.524794	-0.012272
O12	O	0.894815	0.535188	0.170700
O13	O	0.902805	0.472974	0.083215
Zr14	Zr	0.823811	0.620173	-0.058046
Zr15	Zr	0.806757	0.625216	0.128941
Zr16	Zr	0.823832	0.492260	-0.058021
Zr17	Zr	1.002292	0.503366	0.137493
Zr18	Zr	0.628297	0.614110	-0.066573
O19	O	0.976042	0.602077	-0.016391
O20	O	0.951793	0.609247	0.249481
O21	O	0.976072	0.420201	-0.016356
O22	O	0.678766	0.690104	-0.178596
O23	O	0.654517	0.697274	0.087276
O24	O	0.678795	0.508228	-0.178561
O25	O	0.809925	0.702093	0.094054
O26	O	0.834190	0.593249	-0.171798
O27	O	0.834203	0.513047	-0.171783
O28	O	0.820618	0.698932	-0.023188
O29	O	1.074395	0.532847	0.254843
O30	O	0.556194	0.584629	-0.183923
O31	O	0.556177	0.686302	-0.183942
O32	O	0.542622	0.690311	-0.035312
O33	O	1.087967	0.427165	0.106232
O34	O	1.087950	0.528839	0.106213
O35	O	0.735773	0.582288	-0.099780
O36	O	0.727783	0.644502	-0.012295
O37	O	0.902786	0.592682	0.083192
O38	O	0.910775	0.530468	-0.004292
C39	C	0.570736	0.551154	0.024794
C40	C	0.487735	0.548580	0.021174
C41	C	0.335769	0.543878	0.014563
C42	C	0.294815	0.573597	0.056354
C43	C	0.210256	0.570980	0.052676
C44	C	0.420336	0.546494	0.018240
C45	C	0.815320	0.398738	0.035490
C46	C	0.815329	0.344436	0.035501
C47	C	0.723930	0.034784	-0.014408
C48	C	0.723925	-0.016234	-0.014416
O49	O	0.646238	-0.019618	-0.056833
N50	N	0.815273	-0.068801	0.035428
C51	C	0.906633	-0.070347	0.085276
O52	O	0.984331	-0.119744	0.127671
C53	C	0.906637	-0.019329	0.085279
C54	C	0.815282	0.033236	0.035438
C55	C	0.632582	0.087348	-0.064246
C56	C	0.632588	0.138363	-0.064236
C57	C	0.723940	0.136815	-0.014389
C58	C	0.815288	0.084252	0.035448
C59	C	0.997997	-0.020877	0.135121
C60	C	0.997993	0.030147	0.135119
C61	C	0.906639	0.082713	0.085278
C62	C	0.906646	0.133719	0.085304
N63	N	0.815298	0.186285	0.035460
C64	C	0.723945	0.187833	-0.014387
C65	C	0.906616	-0.177487	0.085266
C66	C	0.906613	-0.228504	0.085270
C67	C	0.723904	-0.174388	-0.014425
C68	C	0.723909	-0.123369	-0.014422
C69	C	0.815268	-0.124921	0.035422
C70	C	0.723963	0.294967	-0.014363
C71	C	0.723976	0.345984	-0.014346
C72	C	0.906684	0.291863	0.085344
C73	C	0.906672	0.240850	0.085332
C74	C	0.815303	0.242406	0.035471
O75	O	0.984293	0.137147	0.127696
O76	O	0.646260	0.237232	-0.056785
C77	C	1.059853	0.566322	0.046126
C78	C	1.142854	0.568895	0.049746
C79	C	0.793962	0.565046	0.269352
C80	C	0.786722	0.567187	0.348733
C81	C	0.815268	0.718737	0.035429
C82	C	0.815259	0.773040	0.035419
C83	C	0.773498	0.571110	0.494088
C84	C	0.857095	0.546357	0.576839
C85	C	0.849737	0.548540	0.657720
C86	C	0.780854	0.568927	0.413198
C87	C	0.836629	0.552427	0.801569
C88	C	0.843875	0.550279	0.722192
C89	C	0.570710	0.711154	0.024763
C90	C	0.487700	0.762882	0.021133
C91	C	0.592068	0.544846	-0.209098
C92	C	0.516307	0.540131	-0.292099
C93	C	0.592042	0.704846	-0.209129
C94	C	0.516272	0.754433	-0.292140
C95	C	1.038547	0.412630	0.280049
C96	C	1.114317	0.363042	0.363060
C97	C	1.059879	0.406322	0.046157
C98	C	1.142889	0.354594	0.049787
C99	C	1.038521	0.572630	0.280018
C100	C	1.114282	0.577344	0.363019
C101	C	0.444556	0.757163	0.065114
C102	C	0.366569	0.805764	0.061721
C103	C	0.331722	0.860082	0.014341
C104	C	0.374873	0.865800	-0.029641
C105	C	0.452864	0.817200	-0.026242
C106	C	0.484890	0.567928	-0.376763
C107	C	0.413716	0.563496	-0.454758
C108	C	0.373955	0.531270	-0.448087
C109	C	0.405379	0.503470	-0.363414
C110	C	0.476557	0.507899	-0.285421
C111	C	0.476519	0.810200	-0.285457
C112	C	0.405335	0.856799	-0.363447
C113	C	0.373901	0.847628	-0.448120
C114	C	0.413661	0.791856	-0.454801
C115	C	0.484849	0.745259	-0.376811
C116	C	1.154079	0.307276	0.356377
C117	C	1.225287	0.260678	0.434368
C118	C	1.256725	0.269848	0.519041
C119	C	1.216960	0.325621	0.525722
C120	C	1.145759	0.372218	0.447732
C121	C	1.186039	0.360313	0.005814
C122	C	1.264046	0.311714	0.009229
C123	C	1.298896	0.257396	0.056611
C124	C	1.255742	0.251678	0.100590
C125	C	1.177741	0.300276	0.097180
C126	C	1.154021	0.609575	0.356319
C127	C	1.225196	0.614016	0.434299
C128	C	1.256637	0.586223	0.518979
C129	C	1.216891	0.553991	0.525677
C130	C	1.145711	0.549554	0.447697
H131	H	0.307327	0.516471	-0.023974
H132	H	0.388057	0.784397	-0.523752
H133	H	0.934192	0.523525	0.586941
Cl134	Cl	1.396954	0.196305	0.060887
H135	H	0.315998	0.527669	-0.511601
H136	H	0.388139	0.586138	-0.523694
H137	H	0.649581	0.388785	-0.054935
Cl138	Cl	0.534809	0.675153	-0.385229
H139	H	1.242567	0.333081	0.594672
H140	H	0.268215	0.899650	0.011579
H141	H	0.502126	0.485265	-0.216487
H142	H	1.157672	0.404537	-0.032776
Cl143	Cl	0.355381	0.462961	-0.355043
Cl144	Cl	1.275155	0.654534	0.425859
Cl145	Cl	1.114571	0.295732	0.249941
Cl146	Cl	0.609098	0.296930	-0.077043
H147	H	1.314597	0.589840	0.582468
Cl148	Cl	1.256437	0.519048	0.632140
Cl149	Cl	0.654473	0.606352	0.478492
Cl150	Cl	1.123497	0.293076	0.152460
H151	H	0.558197	0.181160	-0.104818
H152	H	1.299171	0.316381	-0.026588
H153	H	1.284128	0.207445	0.139168
H154	H	0.502102	0.817678	-0.216519
Cl155	Cl	0.355361	0.926906	-0.355027
Cl156	Cl	0.517723	0.089308	-0.126921
Cl157	Cl	1.275259	0.190570	0.425949
Cl158	Cl	0.488351	0.688883	0.124688
Cl159	Cl	0.284404	0.906214	-0.546157
Cl160	Cl	0.609059	-0.057291	-0.077083
H161	H	0.331444	0.801097	0.097537
Cl162	Cl	1.114509	0.644522	0.249874
Cl163	Cl	0.331049	0.934090	-0.089206
H164	H	0.487982	0.821864	-0.062063
H165	H	1.113363	0.523306	0.453165
H166	H	1.314702	0.231902	0.582539
Cl167	Cl	1.095772	0.442323	0.456149
Cl168	Cl	0.609059	-0.172451	-0.077091
H169	H	0.323260	0.601004	0.094896
Cl170	Cl	0.534858	0.608446	-0.385173
H171	H	0.981017	-0.178757	0.125860
Cl172	Cl	1.021463	-0.294581	0.147942
H173	H	1.072392	0.028878	0.175698
Cl174	Cl	1.021517	0.174767	0.148006
Cl175	Cl	1.112852	-0.086949	0.197773
H176	H	0.981061	0.290613	0.125931
