data_functionalizedCrystal
_audit_creation_method	'MofGen! by Chris Wilmer'
_symmetry_space_group_name_H-M	'P1'
_symmetry_Int_Tables_number	1
_symmetry_cell_setting	triclinic
loop_
_symmetry_equiv_pos_as_xyz
  x,y,z
_cell_length_a	21.395364
_cell_length_b	12.827892
_cell_length_c	21.395355
_cell_angle_alpha	89.989759
_cell_angle_beta	90.024552
_cell_angle_gamma	89.967718
loop_
_atom_site_label
_atom_site_type_symbol
_atom_site_fract_x
_atom_site_fract_y
_atom_site_fract_z
Zn1	Zn	0.957917	0.415737	0.354298
Zn2	Zn	1.457917	0.915737	0.854298
Zn3	Zn	0.957844	0.590464	0.249535
Zn4	Zn	1.457844	1.090464	0.749535
Zn5	Zn	0.853132	0.415783	0.249534
Zn6	Zn	1.353132	0.915783	0.749534
Zn7	Zn	0.853126	0.590482	0.354275
Zn8	Zn	1.353126	1.090482	0.854275
O9	O	0.905505	0.503117	0.301911
O10	O	1.405505	1.003117	0.801911
O11	O	1.045586	0.438888	0.340410
O12	O	1.545586	0.938888	0.840410
O13	O	0.943926	0.567303	0.161857
O14	O	1.443926	1.067303	0.661857
O15	O	0.867066	0.269541	0.263440
O16	O	1.367066	0.769541	0.763440
O17	O	1.045532	0.567259	0.263442
O18	O	1.545532	1.067259	0.763442
O19	O	0.944051	0.269507	0.340409
O20	O	1.444051	0.769507	0.840409
O21	O	0.866995	0.438966	0.161856
O22	O	1.366995	0.938966	0.661856
O23	O	0.765454	0.438984	0.263419
O24	O	1.265454	0.938984	0.763419
O25	O	0.867055	0.567291	0.441956
O26	O	1.367055	1.067291	0.941956
O27	O	0.765449	0.567335	0.340372
O28	O	1.265449	1.067335	0.840372
O29	O	0.944045	0.438906	0.441972
O30	O	1.444045	0.938906	0.941972
O31	O	0.943920	0.736702	0.263420
O32	O	1.443920	1.236702	0.763420
O33	O	0.866984	0.736716	0.340372
O34	O	1.366984	1.236716	0.840372
C35	C	0.742717	0.503167	0.301893
C36	C	1.242717	1.003167	0.801893
C37	C	0.673076	0.503214	0.301900
C38	C	1.173076	1.003214	0.801900
C39	C	0.640413	0.436481	0.342040
C40	C	1.140413	0.936481	0.842040
C41	C	0.574978	0.436453	0.342042
C42	C	1.074978	0.936453	0.842042
C43	C	0.542208	0.503177	0.301912
C44	C	1.042208	1.003177	0.801912
C45	C	0.574879	0.569915	0.261764
C46	C	1.074879	1.069915	0.761764
C47	C	0.640313	0.569934	0.261759
C48	C	1.140313	1.069934	0.761759
C49	C	0.438497	0.597287	0.296882
C50	C	0.938497	1.097287	0.796882
C51	C	0.373064	0.597270	0.296892
C52	C	0.873064	1.097270	0.796892
C53	C	0.340387	0.503120	0.301926
C54	C	0.840387	1.003120	0.801926
C55	C	0.373152	0.408983	0.306962
C56	C	0.873152	0.908983	0.806962
C57	C	0.438586	0.409002	0.306956
C58	C	0.938586	0.909002	0.806956
C59	C	0.471256	0.503164	0.301913
C60	C	0.971256	1.003164	0.801913
C61	C	0.236772	0.436351	0.342070
C62	C	0.736772	0.936351	0.842070
C63	C	0.171335	0.436321	0.342068
C64	C	0.671335	0.936321	0.842068
C65	C	0.171237	0.569793	0.261793
C66	C	0.671237	1.069793	0.761793
C67	C	0.236672	0.569813	0.261792
C68	C	0.736672	1.069813	0.761792
C69	C	0.269436	0.503093	0.301934
C70	C	0.769436	1.003093	0.801934
C71	C	0.905460	0.774627	0.301908
C72	C	1.405460	1.274627	0.801908
C73	C	0.905499	0.890780	0.301927
C74	C	1.405499	1.390780	0.801927
C75	C	0.943613	0.942523	0.263893
C76	C	1.443613	1.442523	0.763893
C77	C	0.943654	1.062573	0.263912
C78	C	1.443654	1.562573	0.763912
C79	C	1.068928	0.503066	0.301929
C80	C	1.568928	1.003066	0.801929
C81	C	1.138570	0.503045	0.301936
C82	C	1.638570	1.003045	0.801936
C83	C	0.905562	1.230546	0.301935
C84	C	1.405562	1.730546	0.801935
C85	C	0.905573	1.114393	0.301964
C86	C	1.405573	1.614393	0.801964
C87	C	0.905557	0.503095	0.465334
C88	C	1.405557	1.003095	0.965334
C89	C	0.905579	0.503086	0.534975
C90	C	1.405579	1.003086	1.034975
C91	C	0.905489	0.503062	0.139123
C92	C	1.405489	1.003062	0.639123
C93	C	0.905589	0.502777	0.069482
C94	C	1.405589	1.002777	0.569482
C95	C	0.945666	0.436234	0.567698
C96	C	1.445666	0.936234	1.067698
C97	C	0.945665	0.436189	0.633133
C98	C	1.445665	0.936189	1.133133
C99	C	0.905584	0.503015	0.665844
C100	C	1.405584	1.003015	1.165844
C101	C	0.865489	0.569873	0.633113
C102	C	1.365489	1.069873	1.133113
C103	C	0.865487	0.569908	0.567679
C104	C	1.365487	1.069908	1.067679
C105	C	0.900621	0.597111	0.769517
C106	C	1.400621	1.097111	1.269517
C107	C	0.900628	0.597077	0.834950
C108	C	1.400628	1.097077	1.334950
C109	C	0.905588	0.502905	0.867664
C110	C	1.405588	1.002905	1.367664
C111	C	0.910554	0.408763	0.834938
C112	C	1.410554	0.908763	1.334938
C113	C	0.910552	0.408799	0.769503
C114	C	1.410552	0.908799	1.269503
C115	C	0.905582	0.502984	0.736796
C116	C	1.405582	1.002984	1.236796
C117	C	0.945676	0.435998	0.971340
C118	C	1.445676	0.935998	1.471340
C119	C	0.945671	0.435951	1.036776
C120	C	1.445671	0.935951	1.536776
C121	C	0.865498	0.569644	1.036755
C122	C	1.365498	1.069644	1.536755
C123	C	0.865500	0.569681	0.971319
C124	C	1.365500	1.069681	1.471319
C125	C	0.905592	0.502860	0.938616
C126	C	1.405592	1.002860	1.438616
H127	H	0.465260	0.332353	0.311055
H128	H	0.965260	0.832353	0.811055
H129	H	0.896588	0.673733	0.861591
H130	H	1.396588	1.173733	1.361591
H131	H	0.872900	0.935357	0.334507
H132	H	1.372900	1.435357	0.834507
H133	H	0.465097	0.673961	0.292783
H134	H	0.965097	1.173961	0.792783
H135	H	0.978312	0.381821	0.541074
H136	H	1.478312	0.881821	1.041074
H137	H	0.346392	0.673922	0.292794
H138	H	0.846392	1.173922	0.792794
H139	H	0.872937	1.069903	0.334527
H140	H	1.372937	1.569903	0.834527
H141	H	0.832853	0.624280	0.659750
H142	H	1.332853	1.124280	1.159750
H143	H	0.832861	0.624127	0.944676
H144	H	1.332861	1.124127	1.444676
H145	H	0.548193	0.624242	0.229090
H146	H	1.048193	1.124242	0.729090
H147	H	0.666906	0.624278	0.229071
H148	H	1.166906	1.124278	0.729071
H149	H	0.976217	0.897948	0.231318
H150	H	1.476217	1.397948	0.731318
H151	H	0.914594	0.332079	0.861572
H152	H	1.414594	0.832079	1.361572
H153	H	0.896415	0.673778	0.742887
H154	H	1.396415	1.173778	1.242887
H155	H	0.976283	1.107071	0.231348
H156	H	1.476283	1.607071	0.731348
H157	H	0.978307	0.381744	0.659781
H158	H	1.478307	0.881744	1.159781
H159	H	0.832841	0.624346	0.541036
H160	H	1.332841	1.124346	1.041036
H161	H	0.263267	0.624159	0.229109
H162	H	0.763267	1.124159	0.729109
H163	H	0.978318	0.381582	0.944711
H164	H	1.478318	0.881582	1.444711
H165	H	0.914594	0.332145	0.742860
H166	H	1.414594	0.832145	1.242860
H167	H	0.832857	0.624045	1.063387
H168	H	1.332857	1.124045	1.563387
H169	H	0.667085	0.382152	0.374726
H170	H	1.167085	0.882152	0.874726
H171	H	0.548379	0.382106	0.374727
H172	H	1.048379	0.882106	0.874727
H173	H	0.144556	0.624121	0.229118
H174	H	0.644556	1.124121	0.729118
H175	H	0.346548	0.332317	0.311061
H176	H	0.846548	0.832317	0.811061
H177	H	0.263449	0.382017	0.374751
H178	H	0.763449	0.882017	0.874751
H179	H	0.144742	0.381973	0.374753
H180	H	0.644742	0.881973	0.874753
H181	H	0.978313	0.381505	1.063418
H182	H	1.478313	0.881505	1.563418
