data_functionalizedCrystal
_audit_creation_method	'MofGen! by Chris Wilmer'
_symmetry_space_group_name_H-M	'P1'
_symmetry_Int_Tables_number	1
_symmetry_cell_setting	triclinic
loop_
_symmetry_equiv_pos_as_xyz
  x,y,z
_cell_length_a	13.897449
_cell_length_b	11.169416
_cell_length_c	13.897449
_cell_angle_alpha	90.004562
_cell_angle_beta	90.003875
_cell_angle_gamma	90.011620
loop_
_atom_site_label
_atom_site_type_symbol
_atom_site_fract_x
_atom_site_fract_y
_atom_site_fract_z
Zn1	Zn	1.474591	-0.477981	0.545412
Zn2	Zn	1.974591	0.022019	1.045412
Zn3	Zn	1.474554	-0.678629	0.384127
Zn4	Zn	1.974554	-0.178629	0.884127
Zn5	Zn	1.313328	-0.477963	0.384131
Zn6	Zn	1.813328	0.022037	0.884131
Zn7	Zn	1.313283	-0.678625	0.545380
Zn8	Zn	1.813283	-0.178625	1.045380
O9	O	1.393939	-0.578299	0.464762
O10	O	1.893939	-0.078299	0.964762
O11	O	1.609568	-0.504606	0.524030
O12	O	2.109568	-0.004606	1.024030
O13	O	1.453170	-0.652005	0.249146
O14	O	1.953170	-0.152005	0.749146
O15	O	1.334755	-0.310016	0.405540
O16	O	1.834755	0.189984	0.905540
O17	O	1.609540	-0.652022	0.405534
O18	O	2.109540	-0.152022	0.905534
O19	O	1.453234	-0.310029	0.524033
O20	O	1.953234	0.189971	1.024033
O21	O	1.334718	-0.504576	0.249149
O22	O	1.834718	-0.004576	0.749149
O23	O	1.178340	-0.504572	0.405509
O24	O	1.678340	-0.004572	0.905509
O25	O	1.334678	-0.652015	0.680365
O26	O	1.834678	-0.152015	1.180365
O27	O	1.178307	-0.651998	0.523977
O28	O	1.678307	-0.151998	1.023977
O29	O	1.453190	-0.504602	0.680390
O30	O	1.953190	-0.004602	1.180390
O31	O	1.453126	-0.846578	0.405502
O32	O	1.953126	-0.346578	0.905502
O33	O	1.334641	-0.846575	0.523974
O34	O	1.834641	-0.346575	1.023974
C35	C	1.393901	-0.890124	0.464755
C36	C	1.893901	-0.390124	0.964755
C37	C	1.393973	-1.023524	0.464784
C38	C	1.893973	-0.523524	0.964784
C39	C	1.143325	-0.578283	0.464740
C40	C	1.643325	-0.078283	0.964740
C41	C	1.036111	-0.578305	0.464754
C42	C	1.536111	-0.078305	0.964754
C43	C	0.839816	-0.578310	0.464779
C44	C	1.339816	-0.078310	0.964779
C45	C	0.949048	-0.578304	0.464762
C46	C	1.449048	-0.078304	0.964762
C47	C	1.645532	-0.578316	0.464785
C48	C	2.145532	-0.078316	0.964785
C49	C	1.752746	-0.578324	0.464795
C50	C	2.252746	-0.078324	0.964795
C51	C	1.393933	-0.578310	0.716355
C52	C	1.893933	-0.078310	1.216355
C53	C	1.393931	-0.578314	0.823569
C54	C	1.893931	-0.078314	1.323569
C55	C	1.394004	-0.265257	0.464791
C56	C	1.894004	0.234743	0.964791
C57	C	1.394031	-0.131857	0.464803
C58	C	1.894031	0.368143	0.964803
C59	C	1.393928	-0.578319	0.910639
C60	C	1.893928	-0.078319	1.410639
C61	C	1.393928	-0.578313	1.019872
C62	C	1.893928	-0.078313	1.519872
C63	C	1.393935	-0.578313	1.214148
C64	C	1.893935	-0.078313	1.714148
C65	C	1.393932	-0.578302	1.106934
C66	C	1.893932	-0.078302	1.606934
