data_functionalizedCrystal
_audit_creation_method	'MofGen! by Chris Wilmer'
_symmetry_space_group_name_H-M	'P1'
_symmetry_Int_Tables_number	1
_symmetry_cell_setting	triclinic
loop_
_symmetry_equiv_pos_as_xyz
  x,y,z
_cell_length_a	18.101398
_cell_length_b	29.839125
_cell_length_c	18.101395
_cell_angle_alpha	90.013262
_cell_angle_beta	89.973339
_cell_angle_gamma	89.997005
loop_
_atom_site_label
_atom_site_type_symbol
_atom_site_fract_x
_atom_site_fract_y
_atom_site_fract_z
Zn1	Zn	1.132072	-0.253911	0.295021
Zn2	Zn	1.632072	0.246089	0.795021
Zn3	Zn	1.131982	-0.178787	0.418839
Zn4	Zn	1.631982	0.321213	0.918839
Zn5	Zn	1.008245	-0.178806	0.295006
Zn6	Zn	1.508245	0.321194	0.795006
Zn7	Zn	1.008181	-0.253900	0.418816
Zn8	Zn	1.508181	0.246100	0.918816
O9	O	1.070120	-0.216351	0.356921
O10	O	1.570120	0.283649	0.856921
O11	O	1.235693	-0.243943	0.311462
O12	O	1.735693	0.256057	0.811462
O13	O	1.115557	-0.115923	0.402416
O14	O	1.615557	0.384077	0.902416
O15	O	1.024735	-0.188781	0.191376
O16	O	1.524735	0.311219	0.691376
O17	O	1.235627	-0.188749	0.402430
O18	O	1.735627	0.311251	0.902430
O19	O	1.115710	-0.243961	0.191386
O20	O	1.615710	0.256039	0.691386
O21	O	1.024648	-0.115936	0.311437
O22	O	1.524648	0.384064	0.811437
O23	O	0.904604	-0.188771	0.311414
O24	O	1.404604	0.311229	0.811414
O25	O	1.024626	-0.316769	0.402391
O26	O	1.524626	0.183231	0.902391
O27	O	0.904557	-0.243942	0.402376
O28	O	1.404557	0.256058	0.902376
O29	O	1.115648	-0.316777	0.311439
O30	O	1.615648	0.183223	0.811439
O31	O	1.115495	-0.188739	0.522469
O32	O	1.615495	0.311261	1.022469
O33	O	1.024540	-0.243924	0.522452
O34	O	1.524540	0.256076	1.022452
C35	C	0.877709	-0.216357	0.356892
C36	C	1.377709	0.283643	0.856892
C37	C	0.795395	-0.216371	0.356897
C38	C	1.295395	0.283629	0.856897
C39	C	0.496304	-0.216352	0.356941
C40	C	0.996304	0.283648	0.856941
C41	C	0.527625	-0.250893	0.414448
C42	C	1.027625	0.249107	0.914448
C43	C	0.613243	-0.251035	0.414268
C44	C	1.113243	0.248965	0.914268
C45	C	0.644687	-0.216361	0.356920
C46	C	1.144687	0.283639	0.856920
C47	C	0.613630	-0.229298	0.278922
C48	C	1.113630	0.270702	0.778922
C49	C	0.527985	-0.229544	0.279268
C50	C	1.027985	0.270456	0.779268
C51	C	0.527861	-0.168791	0.376743
C52	C	1.027861	0.331209	0.876743
C53	C	0.613511	-0.169045	0.378454
C54	C	1.113511	0.330955	0.878454
C55	C	0.728546	-0.216366	0.356903
C56	C	1.228546	0.283634	0.856903
C57	C	0.412445	-0.216349	0.356952
C58	C	0.912445	0.283651	0.856952
C59	C	1.070140	-0.333530	0.356914
C60	C	1.570140	0.166470	0.856914
C61	C	1.070149	-0.383464	0.356911
C62	C	1.570149	0.116536	0.856911
C63	C	1.117593	-0.693115	0.309429
C64	C	1.617593	-0.193115	0.809429
C65	C	1.117630	-0.880788	0.309366
C66	C	1.617630	-0.380788	0.809366
O67	O	1.157914	-0.905059	0.269065
O68	O	1.657914	-0.405059	0.769065
N69	N	1.070247	-0.904249	0.356713
N70	N	1.570247	-0.404249	0.856713
C71	C	1.022847	-0.880790	0.404076
C72	C	1.522847	-0.380790	0.904076
O73	O	0.982540	-0.905051	0.444341
O74	O	1.482540	-0.405051	0.944341
C75	C	1.022807	-0.693117	0.404135
C76	C	1.522807	-0.193117	0.904135
C77	C	1.070199	-0.669658	0.356790
C78	C	1.570199	-0.169658	0.856790
C79	C	1.164981	-0.669656	0.262087
C80	C	1.664981	-0.169656	0.762087
C81	C	1.164974	-0.622740	0.262106
C82	C	1.664974	-0.122740	0.762106
C83	C	1.117580	-0.599284	0.309467
C84	C	1.617580	-0.099284	0.809467
C85	C	1.070192	-0.622743	0.356809
C86	C	1.570192	-0.122743	0.856809
C87	C	0.975405	-0.669659	0.451493
C88	C	1.475405	-0.169659	0.951493
C89	C	0.975398	-0.622737	0.451503
C90	C	1.475398	-0.122737	0.951503
C91	C	1.022790	-0.599278	0.404158
C92	C	1.522790	-0.099278	0.904158
C93	C	1.022791	-0.552371	0.404189
C94	C	1.522791	-0.052371	0.904189
N95	N	1.070175	-0.528910	0.356842
N96	N	1.570175	-0.028910	0.856842
C97	C	1.117569	-0.552366	0.309481
C98	C	1.617569	-0.052366	0.809481
C99	C	1.022873	-0.979320	0.404043
C100	C	1.522873	-0.479320	0.904043
C101	C	1.022884	-1.026238	0.404029
C102	C	1.522884	-0.526238	0.904029
C103	C	1.117665	-1.026233	0.309318
C104	C	1.617665	-0.526233	0.809318
C105	C	1.117658	-0.979314	0.309336
C106	C	1.617658	-0.479314	0.809336
C107	C	1.070256	-0.955859	0.356695
C108	C	1.570256	-0.455859	0.856695
C109	C	1.117552	-0.453840	0.309525
C110	C	1.617552	0.046160	0.809525
C111	C	1.117543	-0.406920	0.309550
C112	C	1.617543	0.093080	0.809550
C113	C	1.022758	-0.406930	0.404259
C114	C	1.522758	0.093070	0.904259
C115	C	1.022770	-0.453845	0.404236
C116	C	1.522770	0.046155	0.904236
C117	C	1.070169	-0.477299	0.356863
C118	C	1.570169	0.022701	0.856863
O119	O	0.982523	-0.528071	0.444463
O120	O	1.482523	-0.028071	0.944463
O121	O	1.157858	-0.528096	0.269210
O122	O	1.657858	-0.028096	0.769210
C123	C	1.117600	-0.740030	0.309410
C124	C	1.617600	-0.240030	0.809410
C125	C	1.070213	-0.763489	0.356751
C126	C	1.570213	-0.263489	0.856751
C127	C	1.022819	-0.740033	0.404112
C128	C	1.522819	-0.240033	0.904112
C129	C	1.070224	-0.810407	0.356738
C130	C	1.570224	-0.310407	0.856738
C131	C	1.117618	-0.833864	0.309377
C132	C	1.617618	-0.333864	0.809377
C133	C	1.165001	-0.810402	0.262030
C134	C	1.665001	-0.310402	0.762030
C135	C	1.164994	-0.763487	0.262049
C136	C	1.664994	-0.263487	0.762049
C137	C	0.975435	-0.763494	0.451460
C138	C	1.475435	-0.263494	0.951460
C139	C	0.975447	-0.810410	0.451437
C140	C	1.475447	-0.310410	0.951437
C141	C	1.022841	-0.833866	0.404076
C142	C	1.522841	-0.333866	0.904076
C143	C	1.263282	-0.216345	0.356950
C144	C	1.763282	0.283655	0.856950
C145	C	1.345596	-0.216343	0.356963
C146	C	1.845596	0.283657	0.856963
C147	C	1.070021	-0.216338	0.549331
C148	C	1.570021	0.283662	1.049331
C149	C	1.070046	-0.216347	0.631645
C150	C	1.570046	0.283653	1.131645
C151	C	1.070143	-0.099629	0.356874
C152	C	1.570143	0.400371	0.856874
C153	C	1.070278	-0.049695	0.356668
C154	C	1.570278	0.450305	0.856668
C155	C	1.070240	-0.216374	0.163759
C156	C	1.570240	0.283626	0.663759
C157	C	1.070291	-0.216384	0.081445
C158	C	1.570291	0.283616	0.581445
C159	C	1.070209	-0.216372	0.930736
C160	C	1.570209	0.283628	1.430736
C161	C	1.013114	-0.251179	0.899431
C162	C	1.513114	0.248821	1.399431
C163	C	1.012843	-0.251070	0.813813
C164	C	1.512843	0.248930	1.313813
C165	C	1.070128	-0.216360	0.782354
C166	C	1.570128	0.283640	1.282354
C167	C	1.049008	-0.169015	0.813484
C168	C	1.549008	0.330985	1.313484
C169	C	1.048640	-0.169223	0.899130
C170	C	1.548640	0.330777	1.399130
C171	C	1.148548	-0.228493	0.899091
C172	C	1.648548	0.271507	1.399091
C173	C	1.148087	-0.229531	0.813440
C174	C	1.648087	0.270469	1.313440
C175	C	1.070084	-0.216350	0.698494
C176	C	1.570084	0.283650	1.198494
C177	C	1.070251	-0.216378	1.014596
C178	C	1.570251	0.283622	1.514596
H179	H	1.156137	-0.387822	0.270996
H180	H	1.656137	0.112178	0.770996
F181	F	0.500677	-0.240417	0.490297
F182	F	1.000677	0.259583	0.990297
F183	F	0.925007	-0.835372	0.501837
F184	F	1.425007	-0.335372	1.001837
F185	F	0.936944	-0.240578	0.787105
F186	F	1.436944	0.259422	1.287105
H187	H	0.955400	-0.243252	0.921010
H188	H	1.455400	0.256748	1.421010
H189	H	0.936841	-0.744401	0.490028
H190	H	1.436841	-0.244401	0.990028
H191	H	0.506250	-0.157034	0.432644
H192	H	1.006250	0.342966	0.932644
F193	F	0.972453	-1.051200	0.454430
F194	F	1.472453	-0.551200	0.954430
F195	F	1.167996	-0.478795	0.259102
F196	F	1.667996	0.021205	0.759102
H197	H	0.633999	-0.204925	0.234914
H198	H	1.133999	0.295075	0.734914
H199	H	0.507268	-0.205539	0.234886
H200	H	1.007268	0.294461	0.734886
F201	F	0.973791	-0.155801	0.925318
F202	F	1.473791	0.344199	1.425318
F203	F	1.215435	-0.738526	0.211657
F204	F	1.715435	-0.238526	0.711657
H205	H	0.635088	-0.263690	0.261821
H206	H	1.135088	0.236310	0.761821
F207	F	1.173719	-0.272849	0.927275
F208	F	1.673719	0.227151	1.427275
H209	H	0.992349	-0.158562	0.792091
H210	H	1.492349	0.341438	1.292091
F211	F	1.215411	-0.597779	0.211711
F212	F	1.715411	-0.097779	0.711711
F213	F	1.100631	-0.134167	0.926201
F214	F	1.600631	0.365833	1.426201
F215	F	1.204150	-0.195362	0.925561
F216	F	1.704150	0.304638	1.425561
H217	H	0.633817	-0.159288	0.435849
H218	H	1.133817	0.340712	0.935849
H219	H	1.026056	-0.286176	0.792764
H220	H	1.526056	0.213824	1.292764
F221	F	0.641484	-0.133599	0.327677
F222	F	1.141484	0.366401	0.827677
H223	H	1.089285	-0.142374	0.793106
H224	H	1.589285	0.357626	1.293106
F225	F	0.501387	-0.135151	0.321994
F226	F	1.001387	0.364849	0.821994
H227	H	0.984273	-0.960227	0.442614
H228	H	1.484273	-0.460227	0.942614
F229	F	1.215435	-0.694613	0.211681
F230	F	1.715435	-0.194613	0.711681
F231	F	1.168097	-0.954352	0.258944
F232	F	1.668097	-0.454352	0.758944
F233	F	1.168106	-1.051205	0.258912
F234	F	1.668106	-0.551205	0.758912
F235	F	0.924944	-0.597777	0.501910
F236	F	1.424944	-0.097777	1.001910
H237	H	0.936813	-0.688751	0.490047
H238	H	1.436813	-0.188751	0.990047
F239	F	1.206631	-0.198812	0.785440
F240	F	1.706631	0.301188	1.285440
F241	F	1.030209	-0.297215	0.926310
F242	F	1.530209	0.202785	1.426310
F243	F	1.168907	-0.275074	0.786845
F244	F	1.668907	0.224926	1.286845
F245	F	0.972320	-0.381957	0.454660
F246	F	1.472320	0.118043	0.954660
F247	F	0.640690	-0.240452	0.489875
F248	F	1.140690	0.259548	0.989875
H249	H	0.506108	-0.285929	0.401514
H250	H	1.006108	0.214071	0.901514
H251	H	0.508017	-0.264313	0.262470
H252	H	1.008017	0.235687	0.762470
F253	F	0.640036	-0.297096	0.397144
F254	F	1.140036	0.202904	0.897144
H255	H	0.984186	-0.472946	0.442795
H256	H	1.484186	0.027054	0.942795
F257	F	1.215444	-0.835374	0.211627
F258	F	1.715444	-0.335374	0.711627
