data_functionalizedCrystal
_audit_creation_method	'MofGen! by Chris Wilmer'
_symmetry_space_group_name_H-M	'P1'
_symmetry_Int_Tables_number	1
_symmetry_cell_setting	triclinic
loop_
_symmetry_equiv_pos_as_xyz
  x,y,z
_cell_length_a	21.395362
_cell_length_b	19.805405
_cell_length_c	21.395355
_cell_angle_alpha	89.981337
_cell_angle_beta	90.043940
_cell_angle_gamma	89.950948
loop_
_atom_site_label
_atom_site_type_symbol
_atom_site_fract_x
_atom_site_fract_y
_atom_site_fract_z
Zn1	Zn	0.957849	0.269255	0.354585
Zn2	Zn	1.207849	0.519255	0.604585
Zn3	Zn	1.457849	0.769255	0.854585
Zn4	Zn	1.707849	1.019255	1.104585
Zn5	Zn	0.957747	0.382425	0.249807
Zn6	Zn	1.207747	0.632425	0.499807
Zn7	Zn	1.457747	0.882425	0.749807
Zn8	Zn	1.707747	1.132425	0.999807
Zn9	Zn	0.853064	0.269286	0.249786
Zn10	Zn	1.103064	0.519286	0.499786
Zn11	Zn	1.353064	0.769286	0.749786
Zn12	Zn	1.603064	1.019286	0.999786
Zn13	Zn	0.853028	0.382439	0.354512
Zn14	Zn	1.103028	0.632439	0.604512
Zn15	Zn	1.353028	0.882439	0.854512
Zn16	Zn	1.603028	1.132439	1.104512
O17	O	0.905422	0.325851	0.302173
O18	O	1.155422	0.575851	0.552173
O19	O	1.405422	0.825851	0.802173
O20	O	1.655422	1.075851	1.052173
O21	O	1.045513	0.284248	0.340725
O22	O	1.295513	0.534248	0.590725
O23	O	1.545513	0.784248	0.840725
O24	O	1.795513	1.034248	1.090725
O25	O	0.943832	0.367424	0.162126
O26	O	1.193832	0.617424	0.412126
O27	O	1.443832	0.867424	0.662126
O28	O	1.693832	1.117424	0.912126
O29	O	0.867021	0.174565	0.263710
O30	O	1.117021	0.424565	0.513710
O31	O	1.367021	0.674565	0.763710
O32	O	1.617021	0.924565	1.013710
O33	O	1.045438	0.367393	0.263746
O34	O	1.295438	0.617393	0.513746
O35	O	1.545438	0.867393	0.763746
O36	O	1.795438	1.117393	1.013746
O37	O	0.944006	0.174542	0.340705
O38	O	1.194006	0.424542	0.590705
O39	O	1.444006	0.674542	0.840705
O40	O	1.694006	0.924542	1.090705
O41	O	0.866922	0.284302	0.162111
O42	O	1.116922	0.534302	0.412111
O43	O	1.366922	0.784302	0.662111
O44	O	1.616922	1.034302	0.912111
O45	O	0.765381	0.284315	0.263639
O46	O	1.015381	0.534315	0.513639
O47	O	1.265381	0.784315	0.763639
O48	O	1.515381	1.034315	1.013639
O49	O	0.866961	0.367417	0.442200
O50	O	1.116961	0.617417	0.692200
O51	O	1.366961	0.867417	0.942200
O52	O	1.616961	1.117417	1.192200
O53	O	0.765355	0.367448	0.340580
O54	O	1.015355	0.617448	0.590580
O55	O	1.265355	0.867448	0.840580
O56	O	1.515355	1.117448	1.090580
O57	O	0.943972	0.284261	0.442253
O58	O	1.193972	0.534261	0.692253
O59	O	1.443972	0.784261	0.942253
O60	O	1.693972	1.034261	1.192253
O61	O	0.943798	0.477143	0.263675
O62	O	1.193798	0.727143	0.513675
O63	O	1.443798	0.977143	0.763675
O64	O	1.693798	1.227143	1.013675
O65	O	0.866862	0.477153	0.340601
O66	O	1.116862	0.727153	0.590601
O67	O	1.366862	0.977153	0.840601
O68	O	1.616862	1.227153	1.090601
C69	C	0.742634	0.325887	0.302100
C70	C	0.992634	0.575887	0.552100
C71	C	1.242634	0.825887	0.802100
C72	C	1.492634	1.075887	1.052100
C73	C	0.672993	0.325918	0.302084
C74	C	0.922993	0.575918	0.552084
C75	C	1.172993	0.825918	0.802084
C76	C	1.422993	1.075918	1.052084
C77	C	0.640283	0.369263	0.342087
C78	C	0.890283	0.619263	0.592087
C79	C	1.140283	0.869263	0.842087
C80	C	1.390283	1.119263	1.092087
C81	C	0.574847	0.369246	0.342115
C82	C	0.824847	0.619246	0.592115
C83	C	1.074847	0.869246	0.842115
C84	C	1.324847	1.119246	1.092115
C85	C	0.542125	0.325892	0.302128
C86	C	0.792125	0.575892	0.552128
C87	C	1.042125	0.825892	0.802128
C88	C	1.292125	1.075892	1.052128
C89	C	0.574843	0.282539	0.262122
C90	C	0.824843	0.532539	0.512122
C91	C	1.074843	0.782539	0.762122
C92	C	1.324843	1.032539	1.012122
C93	C	0.640277	0.282553	0.262100
C94	C	0.890277	0.532553	0.512100
C95	C	1.140277	0.782553	0.762100
C96	C	1.390277	1.032553	1.012100
C97	C	0.438400	0.320440	0.245723
C98	C	0.688400	0.570440	0.495723
C99	C	0.938400	0.820440	0.745723
C100	C	1.188400	1.070440	0.995723
C101	C	0.372967	0.320431	0.245744
C102	C	0.622967	0.570431	0.495744
C103	C	0.872967	0.820431	0.745744
C104	C	1.122967	1.070431	0.995744
C105	C	0.340304	0.325848	0.302197
C106	C	0.590304	0.575848	0.552197
C107	C	0.840304	0.825848	0.802197
C108	C	1.090304	1.075848	1.052197
C109	C	0.373082	0.331288	0.358631
C110	C	0.623082	0.581288	0.608631
C111	C	0.873082	0.831288	0.858631
C112	C	1.123082	1.081288	1.108631
C113	C	0.438516	0.331301	0.358609
C114	C	0.688516	0.581301	0.608609
C115	C	0.938516	0.831301	0.858609
C116	C	1.188516	1.081301	1.108609
C117	C	0.471172	0.325873	0.302148
C118	C	0.721172	0.575873	0.552148
C119	C	0.971172	0.825873	0.802148
C120	C	1.221172	1.075873	1.052148
C121	C	0.236641	0.369177	0.342235
C122	C	0.486641	0.619177	0.592235
C123	C	0.736641	0.869177	0.842235
C124	C	0.986641	1.119177	1.092235
C125	C	0.171205	0.369156	0.342264
C126	C	0.421205	0.619156	0.592264
C127	C	0.671205	0.869156	0.842264
C128	C	0.921205	1.119156	1.092264
C129	C	0.171201	0.282452	0.262265
C130	C	0.421201	0.532452	0.512265
C131	C	0.671201	0.782452	0.762265
C132	C	0.921201	1.032452	1.012265
C133	C	0.236637	0.282470	0.262242
C134	C	0.486637	0.532470	0.512242
C135	C	0.736637	0.782470	0.762242
C136	C	0.986637	1.032470	1.012242
C137	C	0.269353	0.325836	0.302226
C138	C	0.519353	0.575836	0.552226
C139	C	0.769353	0.825836	0.802226
C140	C	1.019353	1.075836	1.052226
C141	C	0.905332	0.501707	0.302146
C142	C	1.155332	0.751707	0.552146
C143	C	1.405332	1.001707	0.802146
C144	C	1.655332	1.251707	1.052146
C145	C	0.905351	0.576939	0.302155
C146	C	1.155351	0.826939	0.552155
C147	C	1.405351	1.076939	0.802155
C148	C	1.655351	1.326939	1.052155
C149	C	0.945410	0.612213	0.342277
C150	C	1.195410	0.862213	0.592277
C151	C	1.445410	1.112213	0.842277
C152	C	1.695410	1.362213	1.092277
C153	C	0.945425	0.682901	0.342287
C154	C	1.195425	0.932901	0.592287
C155	C	1.445425	1.182901	0.842287
C156	C	1.695425	1.432901	1.092287
C157	C	0.905384	0.718315	0.302172
C158	C	1.155384	0.968315	0.552172
C159	C	1.405384	1.218315	0.802172
C160	C	1.655384	1.468315	1.052172
C161	C	0.865321	0.683036	0.262048
C162	C	1.115321	0.933036	0.512048
C163	C	1.365321	1.183036	0.762048
C164	C	1.615321	1.433036	1.012048
C165	C	0.865303	0.612349	0.262042
C166	C	1.115303	0.862349	0.512042
C167	C	1.365303	1.112349	0.762042
C168	C	1.615303	1.362349	1.012042
C169	C	0.865392	0.968109	0.262073
C170	C	1.115392	1.218109	0.512073
C171	C	1.365392	1.468109	0.762073
C172	C	1.615392	1.718109	1.012073
C173	C	0.865414	1.038801	0.262082
C174	C	1.115414	1.288801	0.512082
C175	C	1.365414	1.538801	0.762082
C176	C	1.615414	1.788801	1.012082
C177	C	0.945514	1.038662	0.342319
C178	C	1.195514	1.288662	0.592319
C179	C	1.445514	1.538662	0.842319
C180	C	1.695514	1.788662	1.092319
C181	C	0.945496	0.967975	0.342313
C182	C	1.195496	1.217975	0.592313
C183	C	1.445496	1.467975	0.842313
C184	C	1.695496	1.717975	1.092313
C185	C	0.905431	0.932702	0.302192
C186	C	1.155431	1.182702	0.552192
C187	C	1.405431	1.432702	0.802192
C188	C	1.655431	1.682702	1.052192
C189	C	0.905414	0.856054	0.302182
C190	C	1.155414	1.106054	0.552182
C191	C	1.405414	1.356054	0.802182
C192	C	1.655414	1.606054	1.052182
C193	C	0.905404	0.794962	0.302178
C194	C	1.155404	1.044962	0.552178
C195	C	1.405404	1.294962	0.802178
C196	C	1.655404	1.544962	1.052178
C197	C	1.068845	0.325816	0.302246
C198	C	1.318845	0.575816	0.552246
C199	C	1.568845	0.825816	0.802246
C200	C	1.818845	1.075816	1.052246
C201	C	1.138487	0.325800	0.302277
C202	C	1.388487	0.575800	0.552277
C203	C	1.638487	0.825800	0.802277
C204	C	1.888487	1.075800	1.052277
C205	C	0.905474	0.325837	0.465596
C206	C	1.155474	0.575837	0.715596
C207	C	1.405474	0.825837	0.965596
C208	C	1.655474	1.075837	1.215596
C209	C	0.905496	0.325831	0.535237
C210	C	1.155496	0.575831	0.785237
C211	C	1.405496	0.825831	1.035237
C212	C	1.655496	1.075831	1.285237
C213	C	0.905503	1.149308	0.302207
C214	C	1.155503	1.399308	0.552207
C215	C	1.405503	1.649308	0.802207
C216	C	1.655503	1.899308	1.052207
C217	C	0.905471	1.074076	0.302207
C218	C	1.155471	1.324076	0.552207
C219	C	1.405471	1.574076	0.802207
C220	C	1.655471	1.824076	1.052207
C221	C	0.905406	0.325816	0.139385
C222	C	1.155406	0.575816	0.389385
C223	C	1.405406	0.825816	0.639385
C224	C	1.655406	1.075816	0.889385
C225	C	0.905505	0.325631	0.069744
C226	C	1.155505	0.575631	0.319744
C227	C	1.405505	0.825631	0.569744
C228	C	1.655505	1.075631	0.819744
C229	C	0.945594	0.282530	0.567979
C230	C	1.195594	0.532530	0.817979
C231	C	1.445594	0.782530	1.067979
C232	C	1.695594	1.032530	1.317979
C233	C	0.945593	0.282501	0.633415
C234	C	1.195593	0.532501	0.883415
C235	C	1.445593	0.782501	1.133415
C236	C	1.695593	1.032501	1.383415
C237	C	0.905501	0.325785	0.666106
C238	C	1.155501	0.575785	0.916106
C239	C	1.405501	0.825785	1.166106
C240	C	1.655501	1.075785	1.416106
C241	C	0.865395	0.369089	0.633356
C242	C	1.115395	0.619089	0.883356
C243	C	1.365395	0.869089	1.133356
C244	C	1.615395	1.119089	1.383356
C245	C	0.865393	0.369112	0.567921
C246	C	1.115393	0.619112	0.817921
C247	C	1.365393	0.869112	1.067921
C248	C	1.615393	1.119112	1.317921
C249	C	0.900523	0.386731	0.769769
C250	C	1.150523	0.636731	1.019769
C251	C	1.400523	0.886731	1.269769
C252	C	1.650523	1.136731	1.519769
C253	C	0.900529	0.386709	0.835202
C254	C	1.150529	0.636709	1.085202
C255	C	1.400529	0.886709	1.335202
C256	C	1.650529	1.136709	1.585202
C257	C	0.905505	0.325714	0.867926
C258	C	1.155505	0.575714	1.117926
C259	C	1.405505	0.825714	1.367926
C260	C	1.655505	1.075714	1.617926
C261	C	0.910487	0.264738	0.835210
C262	C	1.160487	0.514738	1.085210
C263	C	1.410487	0.764738	1.335210
C264	C	1.660487	1.014738	1.585210
C265	C	0.910484	0.264762	0.769775
C266	C	1.160484	0.514762	1.019775
C267	C	1.410484	0.764762	1.269775
C268	C	1.660484	1.014762	1.519775
C269	C	0.905499	0.325765	0.737058
C270	C	1.155499	0.575765	0.987058
C271	C	1.405499	0.825765	1.237058
C272	C	1.655499	1.075765	1.487058
C273	C	0.945604	0.282378	0.971621
C274	C	1.195604	0.532378	1.221621
C275	C	1.445604	0.782378	1.471621
C276	C	1.695604	1.032378	1.721621
C277	C	0.945599	0.282347	1.037058
C278	C	1.195599	0.532347	1.287058
C279	C	1.445599	0.782347	1.537058
C280	C	1.695599	1.032347	1.787058
C281	C	0.865404	0.368941	1.036997
C282	C	1.115404	0.618941	1.286997
C283	C	1.365404	0.868941	1.536997
C284	C	1.615404	1.118941	1.786997
C285	C	0.865406	0.368966	0.971562
C286	C	1.115406	0.618966	1.221562
C287	C	1.365406	0.868966	1.471562
C288	C	1.615406	1.118966	1.721562
C289	C	0.905509	0.325685	0.938878
C290	C	1.155509	0.575685	1.188878
C291	C	1.405509	0.825685	1.438878
C292	C	1.655509	1.075685	1.688878
H293	H	0.346285	0.316007	0.199793
H294	H	0.596285	0.566007	0.449793
H295	H	0.846285	0.816007	0.699793
H296	H	1.096285	1.066007	0.949793
H297	H	0.832805	1.067633	0.229414
H298	H	1.082805	1.317633	0.479414
H299	H	1.332805	1.567633	0.729414
H300	H	1.582805	1.817633	0.979414
H301	H	0.978103	0.939143	0.374976
H302	H	1.228103	1.189143	0.624976
H303	H	1.478103	1.439143	0.874976
H304	H	1.728103	1.689143	1.124976
H305	H	0.832737	0.404372	0.541263
H306	H	1.082737	0.654372	0.791263
H307	H	1.332737	0.904372	1.041263
H308	H	1.582737	1.154372	1.291263
H309	H	0.896303	0.436388	0.743131
H310	H	1.146303	0.686388	0.993131
H311	H	1.396303	0.936388	1.243131
H312	H	1.646303	1.186388	1.493131
H313	H	0.914539	0.215070	0.861852
H314	H	1.164539	0.465070	1.111852
H315	H	1.414539	0.715070	1.361852
H316	H	1.664539	0.965070	1.611852
O317	O	0.135910	0.235695	0.219136
O318	O	0.385910	0.485695	0.469136
O319	O	0.635910	0.735695	0.719136
O320	O	0.885910	0.985695	0.969136
H321	H	0.148527	0.182591	0.229969
H322	H	0.398527	0.432591	0.479969
H323	H	0.648527	0.682591	0.729969
H324	H	0.898527	0.932591	0.979969
H325	H	0.978135	1.067389	0.374990
H326	H	1.228135	1.317389	0.624990
H327	H	1.478135	1.567389	0.874990
H328	H	1.728135	1.817389	1.124990
O329	O	0.675570	0.416031	0.385214
O330	O	0.925570	0.666031	0.635214
O331	O	1.175570	0.916031	0.885214
O332	O	1.425570	1.166031	1.135214
H333	H	0.705449	0.385794	0.417129
H334	H	0.955449	0.635794	0.667129
H335	H	1.205449	0.885794	0.917129
H336	H	1.455449	1.135794	1.167129
O337	O	0.822194	0.930068	0.218790
O338	O	1.072194	1.180068	0.468790
O339	O	1.322194	1.430068	0.718790
O340	O	1.572194	1.680068	0.968790
H341	H	0.794364	0.966571	0.190889
H342	H	1.044364	1.216571	0.440889
H343	H	1.294364	1.466571	0.690889
H344	H	1.544364	1.716571	0.940889
O345	O	0.822140	0.721226	0.218770
O346	O	1.072140	0.971226	0.468770
O347	O	1.322140	1.221226	0.718770
O348	O	1.572140	1.471226	0.968770
H349	H	0.828890	0.776306	0.225506
H350	H	1.078890	1.026306	0.475506
H351	H	1.328890	1.276306	0.725506
H352	H	1.578890	1.526306	0.975506
O353	O	0.473872	0.337153	0.419471
O354	O	0.723872	0.587153	0.669471
O355	O	0.973872	0.837153	0.919471
O356	O	1.223872	1.087153	1.169471
H357	H	0.440172	0.340911	0.458734
H358	H	0.690172	0.590911	0.708734
H359	H	0.940172	0.840911	0.958734
H360	H	1.190172	1.090911	1.208734
H361	H	0.978244	0.247237	0.660079
H362	H	1.228244	0.497237	0.910079
H363	H	1.478244	0.747237	1.160079
H364	H	1.728244	0.997237	1.410079
H365	H	0.978249	0.247287	0.541372
H366	H	1.228249	0.497287	0.791372
H367	H	1.478249	0.747287	1.041372
H368	H	1.728249	0.997287	1.291372
H369	H	0.832682	0.583629	0.229371
H370	H	1.082682	0.833629	0.479371
H371	H	1.332682	1.083629	0.729371
H372	H	1.582682	1.333629	0.979371
O373	O	0.135924	0.415907	0.385417
O374	O	0.385924	0.665907	0.635417
O375	O	0.635924	0.915907	0.885417
O376	O	0.885924	1.165907	1.135417
H377	H	0.084927	0.408607	0.378723
H378	H	0.334927	0.658607	0.628723
H379	H	0.584927	0.908607	0.878723
H380	H	0.834927	1.158607	1.128723
H381	H	0.914539	0.215113	0.743140
H382	H	1.164539	0.465113	0.993140
H383	H	1.414539	0.715113	1.243140
H384	H	1.664539	0.965113	1.493140
O385	O	0.337864	0.337125	0.419528
O386	O	0.587864	0.587125	0.669528
O387	O	0.837864	0.837125	0.919528
O388	O	1.087864	1.087125	1.169528
H389	H	0.286857	0.336192	0.410066
H390	H	0.536857	0.586192	0.660066
H391	H	0.786857	0.836192	0.910066
H392	H	1.036857	1.086192	1.160066
O393	O	0.539568	0.416026	0.385248
O394	O	0.789568	0.666026	0.635248
O395	O	1.039568	0.916026	0.885248
O396	O	1.289568	1.166026	1.135248
H397	H	0.552190	0.404525	0.434443
H398	H	0.802190	0.654525	0.684443
H399	H	1.052190	0.904525	0.934443
H400	H	1.302190	1.154525	1.184443
H401	H	0.263270	0.247178	0.229663
H402	H	0.513270	0.497178	0.479663
H403	H	0.763270	0.747178	0.729663
H404	H	1.013270	0.997178	0.979663
H405	H	0.548196	0.247239	0.229566
H406	H	0.798196	0.497239	0.479566
H407	H	1.048196	0.747239	0.729566
H408	H	1.298196	0.997239	0.979566
H409	H	0.978255	0.247132	0.945008
H410	H	1.228255	0.497132	1.195008
H411	H	1.478255	0.747132	1.445008
H412	H	1.728255	0.997132	1.695008
O413	O	0.988850	0.235643	1.072378
O414	O	1.238850	0.485643	1.322378
O415	O	1.488850	0.735643	1.572378
O416	O	1.738850	0.985643	1.822378
H417	H	1.016739	0.205559	1.038654
H418	H	1.266739	0.455559	1.288654
H419	H	1.516739	0.705559	1.538654
H420	H	1.766739	0.955559	1.788654
O421	O	0.822159	0.415628	1.072246
O422	O	1.072159	0.665628	1.322246
O423	O	1.322159	0.915628	1.572246
O424	O	1.572159	1.165628	1.822246
H425	H	0.828898	0.408340	1.123248
H426	H	1.078898	0.658340	1.373248
H427	H	1.328898	0.908340	1.623248
H428	H	1.578898	1.158340	1.873248
H429	H	0.832758	0.404230	0.944903
H430	H	1.082758	0.654230	1.194903
H431	H	1.332758	0.904230	1.444903
H432	H	1.582758	1.154230	1.694903
O433	O	0.675564	0.235814	0.218940
O434	O	0.925564	0.485814	0.468940
O435	O	1.175564	0.735814	0.718940
O436	O	1.425564	0.985814	0.968940
H437	H	0.641819	0.205668	0.191133
H438	H	0.891819	0.455668	0.441133
H439	H	1.141819	0.705668	0.691133
H440	H	1.391819	0.955668	0.941133
O441	O	0.895150	0.452470	0.870489
O442	O	1.145150	0.702470	1.120489
O443	O	1.395150	0.952470	1.370489
O444	O	1.645150	1.202470	1.620489
H445	H	0.891674	0.494886	0.836743
H446	H	1.141674	0.744886	1.086743
H447	H	1.391674	0.994886	1.336743
H448	H	1.641674	1.244886	1.586743
O449	O	0.988603	0.574018	0.385539
O450	O	1.238603	0.824018	0.635539
O451	O	1.488603	1.074018	0.885539
O452	O	1.738603	1.324018	1.135539
H453	H	1.016458	0.610425	0.413442
H454	H	1.266458	0.860425	0.663442
H455	H	1.516458	1.110425	0.913442
H456	H	1.766458	1.360425	1.163442
O457	O	0.822150	0.415774	0.668609
O458	O	1.072150	0.665774	0.918609
O459	O	1.322150	0.915774	1.168609
O460	O	1.572150	1.165774	1.418609
H461	H	0.828891	0.408488	0.719611
H462	H	1.078891	0.658488	0.969611
H463	H	1.328891	0.908488	1.219611
H464	H	1.578891	1.158488	1.469611
H465	H	0.263280	0.404485	0.374795
H466	H	0.513280	0.654485	0.624795
H467	H	0.763280	0.904485	0.874795
H468	H	1.013280	1.154485	1.124795
H469	H	0.464989	0.316026	0.199749
H470	H	0.714989	0.566026	0.449749
H471	H	0.964989	0.816026	0.699749
H472	H	1.214989	1.066026	0.949749
O473	O	0.988632	0.720950	0.385561
O474	O	1.238632	0.970950	0.635561
O475	O	1.488632	1.220950	0.885561
O476	O	1.738632	1.470950	1.135561
H477	H	1.016477	0.684449	0.413448
H478	H	1.266477	0.934449	0.663448
H479	H	1.516477	1.184449	0.913448
H480	H	1.766477	1.434449	1.163448
