data_functionalizedCrystal
_audit_creation_method	'MofGen! by Chris Wilmer'
_symmetry_space_group_name_H-M	'P1'
_symmetry_Int_Tables_number	1
_symmetry_cell_setting	triclinic
loop_
_symmetry_equiv_pos_as_xyz
  x,y,z
_cell_length_a	15.538191
_cell_length_b	14.853567
_cell_length_c	13.930277
_cell_angle_alpha	89.996364
_cell_angle_beta	89.993797
_cell_angle_gamma	114.546488
loop_
_atom_site_label
_atom_site_type_symbol
_atom_site_fract_x
_atom_site_fract_y
_atom_site_fract_z
O1	O	0.122921	-1.155997	0.079757
O2	O	0.137566	-0.888728	0.079773
O3	O	-0.006818	-1.074389	0.079767
O4	O	0.267305	-0.970337	0.079764
O5	O	-0.006796	-1.074361	-0.079895
O6	O	0.137588	-0.888701	-0.079889
O7	O	0.122944	-1.155970	-0.079905
Zn8	Zn	0.130269	-1.022331	-0.105247
Zn9	Zn	0.130240	-1.022367	0.105115
O10	O	0.267327	-0.970309	-0.079898
C11	C	0.136913	-0.855344	-0.000056
C12	C	0.134925	-0.755913	-0.000050
C13	C	-0.041888	-1.085262	-0.000062
C14	C	-0.146419	-1.117689	-0.000054
N15	N	0.130289	-1.022313	-0.248813
C16	C	-0.434631	-0.795529	-0.000056
C17	C	-0.532857	-0.826023	-0.000060
C18	C	-0.555076	-0.997541	-0.000069
C19	C	-0.456850	-0.967062	-0.000061
C20	C	-0.396635	-0.866055	-0.000055
C21	C	-0.418853	-1.037588	-0.000060
C22	C	-0.320636	-1.007111	-0.000056
C23	C	-0.260415	-0.906108	-0.000054
C24	C	-0.298417	-0.835578	-0.000052
C25	C	-0.479070	-1.138594	-0.000073
C26	C	-0.441073	-1.209120	-0.000072
C27	C	-0.342854	-1.178644	-0.000061
C28	C	-0.282633	-1.077641	-0.000059
C29	C	-0.304852	-1.249174	-0.000063
C30	C	-0.206634	-1.218697	-0.000060
C31	C	-0.184416	-1.047164	-0.000055
C32	C	0.302397	-0.959436	-0.000068
C33	C	0.406929	-0.927009	-0.000069
C34	C	0.123596	-1.189354	-0.000074
C35	C	0.125584	-1.288785	-0.000074
C36	C	0.040753	-0.374309	-0.000070
C37	C	0.212284	-0.296691	-0.000071
C38	C	0.214153	-0.390111	-0.000068
C39	C	0.129321	-0.475634	-0.000065
C40	C	0.042620	-0.467738	-0.000064
C41	C	0.300853	-0.398015	-0.000059
C42	C	0.302726	-0.491439	-0.000055
C43	C	0.217893	-0.576964	-0.000058
C44	C	0.131188	-0.569064	-0.000059
C45	C	0.046356	-0.654587	-0.000055
C46	C	-0.040350	-0.646689	-0.000063
C47	C	-0.042213	-0.553264	-0.000068
C48	C	0.219757	-0.670390	-0.000053
C49	C	0.048223	-0.748017	-0.000049
C50	C	0.187437	-1.058338	-0.701076
C51	C	0.073005	-0.986437	-0.701057
C52	C	0.073020	-0.986418	-0.600562
C53	C	0.130244	-1.022361	-0.550318
C54	C	0.187452	-1.058323	-0.600571
C55	C	0.015806	-0.950467	-0.550302
C56	C	0.015818	-0.950448	-0.449800
C57	C	0.073047	-0.986384	-0.399555
C58	C	0.130258	-1.022346	-0.449813
C59	C	0.187482	-1.058289	-0.399570
C60	C	0.244699	-1.094245	-0.449827
C61	C	0.244681	-1.094260	-0.550326
C62	C	0.073065	-0.986370	-0.299056
C63	C	0.187497	-1.058274	-0.299065
N64	N	0.130213	-1.022395	0.248681
H65	H	-0.135385	-0.964914	-0.000043
H66	H	-0.030790	-0.921214	-0.591217
C67	C	0.010064	-0.946901	-0.756328
N68	N	-0.037342	-0.917116	-0.797962
C69	C	-0.574648	-0.748430	-0.000055
N70	N	-0.606125	-0.689989	-0.000052
H71	H	-0.604116	-1.079781	-0.000078
H72	H	-0.109420	-0.716334	-0.000054
H73	H	-0.030770	-0.921169	-0.408889
H74	H	0.026478	-0.957099	-0.258141
C75	C	0.394162	-0.303937	-0.000063
N76	N	0.464445	-0.233071	-0.000071
H77	H	-0.559044	-1.163405	-0.000067
C78	C	-0.507320	-1.320225	-0.000077
N79	N	-0.557216	-1.403911	-0.000077
C80	C	-0.232175	-0.724464	-0.000044
N81	N	-0.182281	-0.640777	-0.000043
H82	H	-0.180440	-0.881296	-0.000056
C83	C	0.250447	-1.097816	-0.243806
N84	N	0.297861	-1.127601	-0.202185
H85	H	0.290352	-0.676817	-0.000049
H86	H	-0.112805	-0.546823	-0.000097
C87	C	-0.371100	-1.360278	-0.000078
N88	N	-0.420999	-1.443964	-0.000089
C89	C	-0.368389	-0.684416	-0.000049
N90	N	-0.318495	-0.600729	-0.000047
H91	H	-0.175697	-1.276126	-0.000060
C92	C	0.250371	-1.097889	-0.756358
N93	N	0.297772	-1.127681	-0.797999
H94	H	-0.020858	-0.817649	-0.000050
C95	C	-0.054620	-0.365619	-0.000078
N96	N	-0.126455	-0.359072	-0.000083
C97	C	0.398104	-0.500118	-0.000061
N98	N	0.469943	-0.506655	-0.000072
H99	H	0.281350	-0.227054	-0.000066
H100	H	0.291285	-1.123515	-0.408906
C101	C	0.307606	-1.133817	-0.605616
N102	N	0.354998	-1.163615	-0.647264
