data_functionalizedCrystal
_audit_creation_method	'MofGen! by Chris Wilmer'
_symmetry_space_group_name_H-M	'P1'
_symmetry_Int_Tables_number	1
_symmetry_cell_setting	triclinic
loop_
_symmetry_equiv_pos_as_xyz
  x,y,z
_cell_length_a	14.971486
_cell_length_b	14.519709
_cell_length_c	13.448316
_cell_angle_alpha	89.992453
_cell_angle_beta	89.998199
_cell_angle_gamma	83.647137
loop_
_atom_site_label
_atom_site_type_symbol
_atom_site_fract_x
_atom_site_fract_y
_atom_site_fract_z
O1	O	1.187015	0.120184	-0.082580
O2	O	1.687015	0.620184	0.417420
O3	O	0.926623	0.134576	-0.082607
O4	O	1.426623	0.634576	0.417393
O5	O	1.063723	-0.006863	-0.082584
O6	O	1.563723	0.493137	0.417416
O7	O	1.049915	0.261623	-0.082603
O8	O	1.549915	0.761623	0.417397
O9	O	1.063706	-0.006871	0.082800
O10	O	1.563706	0.493129	0.582800
O11	O	0.926606	0.134567	0.082777
O12	O	1.426606	0.634567	0.582777
O13	O	1.186998	0.120175	0.082804
O14	O	1.686998	0.620175	0.582804
Cu15	Cu	1.056800	0.127371	0.097891
Cu16	Cu	1.556800	0.627371	0.597891
Cu17	Cu	1.056820	0.127381	-0.097694
Cu18	Cu	1.556820	0.627381	0.402306
O19	O	1.049898	0.261614	0.082781
O20	O	1.549898	0.761614	0.582781
C21	C	0.893289	0.133928	0.000082
C22	C	1.393289	0.633928	0.500082
C23	C	0.793991	0.131999	0.000071
C24	C	1.293991	0.631999	0.500071
C25	C	0.736812	0.215091	0.000067
C26	C	1.236812	0.715091	0.500067
C27	C	0.643512	0.213273	0.000082
C28	C	1.143512	0.713273	0.500082
C29	C	0.607392	0.128363	0.000094
C30	C	1.107392	0.628363	0.500094
C31	C	0.664578	0.045265	0.000102
C32	C	1.164578	0.545265	0.500102
C33	C	0.757876	0.047084	0.000094
C34	C	1.257876	0.547084	0.500094
C35	C	0.470113	0.041480	0.000116
C36	C	0.970113	0.541480	0.500116
C37	C	0.376808	0.039661	0.000122
C38	C	0.876808	0.539661	0.500122
C39	C	0.355749	0.207669	0.000104
C40	C	0.855749	0.707669	0.500104
C41	C	0.449047	0.209488	0.000096
C42	C	0.949047	0.709488	0.500096
C43	C	0.506227	0.126390	0.000101
C44	C	1.006227	0.626390	0.500101
C45	C	1.063071	-0.041226	0.000108
C46	C	1.563071	0.458774	0.500108
C47	C	1.061142	-0.143606	0.000109
C48	C	1.561142	0.356394	0.500109
C49	C	1.054043	-0.518498	0.000082
C50	C	1.554043	-0.018498	0.500082
C51	C	1.056015	-0.414191	0.000090
C52	C	1.556015	0.085809	0.500090
C53	C	1.057593	-0.331055	0.000096
C54	C	1.557593	0.168945	0.500096
C55	C	1.059564	-0.226742	0.000102
C56	C	1.559564	0.273258	0.500102
C57	C	1.220331	0.120823	0.000113
C58	C	1.720331	0.620823	0.500113
C59	C	1.319630	0.122752	0.000117
C60	C	1.819630	0.622752	0.500117
C61	C	1.050550	0.295978	0.000087
C62	C	1.550550	0.795978	0.500087
C63	C	1.052478	0.398358	0.000080
C64	C	1.552478	0.898358	0.500080
N65	N	1.056792	0.127363	0.235456
N66	N	1.556792	0.627363	0.735456
N67	N	1.056835	0.127381	-0.235258
N68	N	1.556835	0.627381	0.264742
C69	C	1.117519	0.064759	0.287506
C70	C	1.617519	0.564759	0.787506
C71	C	1.117525	0.064759	0.391610
C72	C	1.617525	0.564759	0.891610
C73	C	1.056807	0.127366	0.443660
C74	C	1.556807	0.627366	0.943660
C75	C	0.996074	0.189973	0.391602
C76	C	1.496074	0.689973	0.891602
C77	C	0.996065	0.189968	0.287501
C78	C	1.496065	0.689968	0.787501
C79	C	0.996099	0.189979	0.608582
C80	C	1.496099	0.689979	1.108582
C81	C	0.996109	0.189985	0.712691
C82	C	1.496109	0.689985	1.212691
C83	C	1.117559	0.064769	0.712691
C84	C	1.617559	0.564769	1.212691
C85	C	1.117549	0.064765	0.608590
C86	C	1.617549	0.564765	1.108590
C87	C	1.056817	0.127373	0.556539
C88	C	1.556817	0.627373	1.056539
H89	H	0.309188	0.275331	0.000103
H90	H	0.809188	0.775331	0.500103
H91	H	0.347403	-0.029481	0.000133
H92	H	0.847403	0.470519	0.500133
H93	H	1.166972	0.013782	0.433989
H94	H	1.666972	0.513782	0.933989
H95	H	0.596960	0.280934	0.000077
H96	H	1.096960	0.780934	0.500077
H97	H	0.635162	-0.023871	0.000126
H98	H	1.135162	0.476129	0.500126
H99	H	1.166994	0.013790	0.566210
H100	H	1.666994	0.513790	1.066210
H101	H	1.167009	0.013792	0.755077
H102	H	1.667009	0.513792	1.255077
H103	H	1.166966	0.013781	0.245134
H104	H	1.666966	0.513781	0.745134
H105	H	0.516667	-0.026188	0.000122
H106	H	1.016667	0.473812	0.500122
H107	H	0.804431	-0.020578	0.000097
H108	H	1.304431	0.479422	0.500097
N109	N	0.930631	0.257518	0.768835
N110	N	1.430631	0.757518	1.268835
H111	H	0.892154	0.297177	0.720067
H112	H	1.392154	0.797177	1.220067
H113	H	0.891044	0.222148	0.812049
H114	H	1.391044	0.722148	1.312049
N115	N	0.488009	0.301067	0.000063
N116	N	0.988009	0.801067	0.500063
H117	H	0.437631	0.353433	0.000060
H118	H	0.937631	0.853433	0.500060
H119	H	0.526267	0.305482	0.061366
H120	H	1.026267	0.805482	0.561366
N121	N	0.930592	0.257500	0.552438
N122	N	1.430592	0.757500	1.052438
H123	H	0.892130	0.297165	0.601207
H124	H	1.392130	0.797165	1.101207
H125	H	0.964894	0.298327	0.509232
H126	H	1.464894	0.798327	1.009232
H127	H	0.946632	0.240946	0.433988
H128	H	1.446632	0.740946	0.933988
N129	N	0.930562	0.257485	0.231355
N130	N	1.430562	0.757485	0.731355
H131	H	0.892099	0.297148	0.280123
H132	H	1.392099	0.797148	0.780123
H133	H	0.964858	0.298314	0.188146
H134	H	1.464858	0.798314	0.688146
H135	H	0.766213	0.284234	0.000056
H136	H	1.266213	0.784234	0.500056
