data_functionalizedCrystal
_audit_creation_method	'MofGen! by Chris Wilmer'
_symmetry_space_group_name_H-M	'P1'
_symmetry_Int_Tables_number	1
_symmetry_cell_setting	triclinic
loop_
_symmetry_equiv_pos_as_xyz
  x,y,z
_cell_length_a	17.052863
_cell_length_b	27.440280
_cell_length_c	17.052862
_cell_angle_alpha	90.004253
_cell_angle_beta	61.492812
_cell_angle_gamma	70.263102
loop_
_atom_site_label
_atom_site_type_symbol
_atom_site_fract_x
_atom_site_fract_y
_atom_site_fract_z
Zr1	Zr	0.816617	0.564816	-0.200363
O2	O	0.944520	0.510995	-0.328503
O3	O	0.665894	0.569466	-0.146169
O4	O	0.783694	0.595580	-0.306978
O5	O	0.860647	0.477761	-0.057808
O6	O	0.783684	0.675780	-0.306963
O7	O	0.826719	0.484881	-0.167694
O8	O	0.572960	0.629067	-0.019304
O9	O	1.071371	0.524474	-0.345466
O10	O	0.736333	0.645617	-0.141061
O11	O	0.761661	0.580451	-0.059066
O12	O	0.900356	0.611196	-0.248398
O13	O	0.925684	0.546030	-0.166403
Zr14	Zr	0.870712	0.681370	-0.025082
Zr15	Zr	0.816600	0.692726	-0.200338
Zr16	Zr	0.870729	0.553459	-0.025108
Zr17	Zr	1.018930	0.586313	-0.227417
Zr18	Zr	0.668399	0.659873	0.001972
O19	O	1.021435	0.676720	-0.079276
O20	O	0.944496	0.692867	-0.328467
O21	O	1.021459	0.494848	-0.079312
O22	O	0.742809	0.735190	0.103057
O23	O	0.665870	0.751338	-0.146133
O24	O	0.742833	0.553318	0.103022
O25	O	0.826682	0.768425	-0.167638
O26	O	0.903635	0.650606	0.081533
O27	O	0.903645	0.570405	0.081517
O28	O	0.860610	0.761304	-0.057752
O29	O	1.071358	0.626145	-0.345446
O30	O	0.615971	0.620040	0.120000
O31	O	0.615958	0.721712	0.120020
O32	O	0.572947	0.730739	-0.019284
O33	O	1.114383	0.515447	-0.206161
O34	O	1.114369	0.617118	-0.206141
O35	O	0.786973	0.634989	0.022953
O36	O	0.761645	0.700156	-0.059042
O37	O	0.925668	0.665735	-0.166380
O38	O	0.950996	0.600568	-0.084385
C39	C	0.590602	0.596204	-0.078882
C40	C	0.504714	0.587078	-0.067397
C41	C	0.477588	0.548773	-0.019198
C42	C	0.396899	0.540194	-0.008413
C43	C	0.343324	0.569922	-0.045821
C44	C	0.370446	0.608230	-0.094015
C45	C	0.451147	0.616807	-0.104807
C46	C	0.316883	0.637956	-0.131430
C47	C	0.344005	0.676264	-0.179625
C48	C	0.424699	0.684840	-0.190414
C49	C	0.478274	0.655112	-0.153006
C50	C	0.236182	0.629379	-0.120638
C51	C	0.209741	0.697413	-0.206248
C52	C	0.290430	0.705992	-0.217032
C53	C	0.843686	0.463097	-0.112754
C54	C	0.843693	0.408795	-0.112765
C55	C	0.758035	0.090055	-0.056669
C56	C	0.758031	0.039035	-0.056661
O57	O	0.685224	0.027926	-0.008986
N58	N	0.843648	-0.004449	-0.112690
C59	C	0.929277	0.003088	-0.168725
O60	O	1.002101	-0.038584	-0.216381
C61	C	0.929281	0.054106	-0.168727
C62	C	0.843656	0.097589	-0.112701
C63	C	0.672418	0.133536	-0.000646
C64	C	0.672421	0.184553	-0.000656
C65	C	0.758043	0.192087	-0.056688
C66	C	0.843660	0.148605	-0.112711
C67	C	1.014910	0.061642	-0.224756
C68	C	1.014907	0.112665	-0.224754
C69	C	0.929282	0.156148	-0.168727
C70	C	0.929285	0.207156	-0.168752
N71	N	0.843668	0.250640	-0.112723
C72	C	0.758047	0.243106	-0.056691
C73	C	0.929262	-0.104053	-0.168714
C74	C	0.929257	-0.155071	-0.168717
C75	C	0.758011	-0.119120	-0.056651
C76	C	0.758016	-0.068101	-0.056654
C77	C	0.843645	-0.060569	-0.112684
C78	C	0.758061	0.350242	-0.056715
C79	C	0.758072	0.401261	-0.056733
C80	C	0.929318	0.365305	-0.168794
C81	C	0.929307	0.314291	-0.168781
C82	C	0.843671	0.306762	-0.112734
O83	O	1.002056	0.218305	-0.216400
O84	O	0.685238	0.284780	-0.009034
C85	C	1.096727	0.649982	-0.146563
C86	C	1.182615	0.659108	-0.158048
C87	C	0.775979	0.637298	-0.331941
C88	C	0.753008	0.642119	-0.406341
C89	C	0.843643	0.783089	-0.112691
C90	C	0.843636	0.837390	-0.112681
C91	C	1.030736	0.583832	-0.840185
C92	C	1.052322	0.579299	-0.770284
C93	C	0.977496	0.595004	-0.679295
C94	C	0.881079	0.615242	-0.658214
C95	C	0.859491	0.619772	-0.728121
C96	C	0.806250	0.630943	-0.567232
C97	C	0.709833	0.651182	-0.546150
C98	C	0.688249	0.655711	-0.616052
C99	C	0.763076	0.640006	-0.707041
C100	C	0.827838	0.626414	-0.497324
C101	C	0.656593	0.662354	-0.385261
C102	C	0.635007	0.666886	-0.455162
C103	C	0.911350	0.608887	0.106495
C104	C	0.934321	0.604066	0.180896
C105	C	0.590580	0.756200	-0.078851
C106	C	0.504686	0.801375	-0.067355
C107	C	0.658287	0.581998	0.140336
C108	C	0.595371	0.568051	0.226221
C109	C	0.658266	0.741995	0.140367
C110	C	0.595343	0.782349	0.226264
C111	C	1.029064	0.504191	-0.365813
C112	C	1.091986	0.463837	-0.451709
C113	C	1.096749	0.489986	-0.146595
C114	C	1.182643	0.444810	-0.158091
C115	C	1.029042	0.664187	-0.365781
C116	C	1.091958	0.678134	-0.451667
C117	C	0.451134	0.794122	-0.104776
C118	C	0.370433	0.836566	-0.093993
C119	C	0.343282	0.886263	-0.045782
C120	C	0.396842	0.893516	-0.008360
C121	C	0.477545	0.851072	-0.019149
C122	C	0.579040	0.589970	0.309374
C123	C	0.519938	0.576863	0.390078
C124	C	0.477162	0.541842	0.387628
C125	C	0.493498	0.519921	0.304466
C126	C	0.552605	0.533024	0.223763
C127	C	0.552573	0.835321	0.223801
C128	C	0.493459	0.873245	0.304501
C129	C	0.477112	0.858194	0.387664
C130	C	0.519889	0.805217	0.390124
C131	C	0.579007	0.767295	0.309424
C132	C	1.134766	0.410865	-0.449248
C133	C	1.193905	0.372945	-0.529952
C134	C	1.210256	0.387996	-0.613115
C135	C	1.167474	0.440973	-0.615574
C136	C	1.108342	0.478893	-0.534872
C137	C	1.236201	0.452065	-0.120677
C138	C	1.316918	0.409624	-0.131483
C139	C	1.344072	0.359928	-0.179697
C140	C	1.290509	0.352675	-0.217115
C141	C	1.209797	0.395116	-0.206315
C142	C	1.134717	0.713158	-0.449187
C143	C	1.193824	0.726273	-0.529878
C144	C	1.210176	0.704361	-0.613048
C145	C	1.167410	0.669335	-0.615525
C146	C	1.108299	0.656224	-0.534835
H147	H	0.543972	0.662099	-0.161776
H148	H	0.565891	0.515175	0.156060
H149	H	1.166191	0.389201	-0.236779
H150	H	1.228730	0.329811	-0.527931
H151	H	1.084635	0.026245	-0.270378
H152	H	0.374723	0.933984	0.030893
H153	H	1.121414	0.731004	-0.381474
O154	O	0.931823	0.604587	-0.520060
H155	H	0.968734	0.629878	-0.560336
O156	O	0.570210	0.851562	0.134107
H157	H	0.530544	0.894771	0.145966
H158	H	0.609740	0.672185	-0.598881
H159	H	1.228641	0.754791	-0.527843
H160	H	1.258407	0.357113	-0.678821
H161	H	1.258311	0.715041	-0.678745
O162	O	1.185062	0.645697	-0.705234
H163	H	1.233361	0.660696	-0.760920
H164	H	0.458633	0.916379	0.302483
H165	H	1.180795	0.453222	-0.683296
O166	O	1.156307	0.557475	-0.793020
H167	H	1.170238	0.521512	-0.763863
O168	O	1.021654	0.267387	-0.229209
H169	H	1.081193	0.281200	-0.268170
O170	O	0.665667	-0.021202	0.003775
H171	H	0.638588	-0.025307	0.075908
H172	H	0.428972	0.889078	0.453369
O173	O	0.312676	0.828733	-0.134358
H174	H	0.252002	0.866594	-0.118773
O175	O	1.107236	0.120815	-0.285201
H176	H	1.162301	0.099485	-0.266834
O177	O	1.000720	0.590114	-0.603864
H178	H	0.969422	0.563640	-0.561277
O179	O	1.021601	-0.095914	-0.229171
H180	H	1.076660	-0.117252	-0.210803
O181	O	1.062187	0.536026	-0.537529
H182	H	1.083487	0.540114	-0.608917
H183	H	0.166122	0.721619	-0.236710
H184	H	1.091650	0.571044	-0.914269
O185	O	0.535292	0.858899	0.021229
H186	H	0.534407	0.832439	0.070613
O187	O	1.021606	-0.201968	-0.229152
H188	H	1.081140	-0.188152	-0.268108
H189	H	0.613865	0.618486	0.311386
H190	H	0.214108	0.598187	-0.081398
H191	H	1.073490	0.627703	-0.536867
O192	O	0.502239	0.788984	0.479826
H193	H	0.453932	0.824256	0.535522
H194	H	0.277624	0.562934	-0.037037
H195	H	0.999027	0.371450	-0.214417
O196	O	0.580066	0.231447	0.059778
H197	H	0.589944	0.252624	0.107722
O198	O	0.531016	0.688708	-0.432426
H199	H	0.528581	0.689215	-0.496322
H200	H	0.473235	0.753662	-0.144045
O201	O	0.367682	0.498854	0.043511
H202	H	0.418501	0.479617	0.067696
H203	H	0.506645	0.594718	0.457784
H204	H	0.458661	0.491405	0.302484
H205	H	1.409794	0.325374	-0.188485
H206	H	0.521219	0.524570	0.011249
H207	H	1.214102	0.492526	-0.081412
O208	O	0.739788	0.644894	-0.782434
H209	H	0.808019	0.630572	-0.849242
H210	H	0.446787	0.716029	-0.229666
H211	H	0.429035	0.531176	0.453348
O212	O	1.374672	0.417450	-0.091109
H213	H	1.342213	0.459135	-0.055754
H214	H	1.312630	0.312207	-0.256371
O215	O	0.319695	0.747303	-0.269026
H216	H	0.384814	0.748267	-0.270251
O217	O	0.665716	0.448162	0.003695
H218	H	0.638637	0.444063	0.075831
O219	O	0.665698	0.342124	0.003722
H220	H	0.606168	0.380936	0.042664
H221	H	0.602691	0.127410	0.044987
O222	O	0.665659	-0.127250	0.003795
H223	H	0.680052	-0.170032	-0.005613
H224	H	0.613824	0.724162	0.311442
H225	H	0.595663	0.675139	-0.311174
H226	H	0.277565	0.920818	-0.037002
O227	O	1.117143	0.394626	-0.359556
H228	H	1.156842	0.351421	-0.371419
