data_functionalizedCrystal
_audit_creation_method	'MofGen! by Chris Wilmer'
_symmetry_space_group_name_H-M	'P1'
_symmetry_Int_Tables_number	1
_symmetry_cell_setting	triclinic
loop_
_symmetry_equiv_pos_as_xyz
  x,y,z
_cell_length_a	12.759401
_cell_length_b	12.759400
_cell_length_c	21.395355
_cell_angle_alpha	90.013847
_cell_angle_beta	90.022473
_cell_angle_gamma	90.014916
loop_
_atom_site_label
_atom_site_type_symbol
_atom_site_fract_x
_atom_site_fract_y
_atom_site_fract_z
Zn1	Zn	1.606285	-0.418382	0.354247
Zn2	Zn	1.606171	-0.594046	0.249478
Zn3	Zn	1.430578	-0.418382	0.249488
Zn4	Zn	1.430576	-0.594020	0.354222
O5	O	1.518402	-0.506207	0.301859
O6	O	1.753291	-0.441694	0.340356
O7	O	1.582831	-0.570755	0.161801
O8	O	1.453935	-0.271361	0.263398
O9	O	1.753207	-0.570754	0.263382
O10	O	1.583026	-0.271361	0.340365
O11	O	1.453824	-0.441696	0.161808
O12	O	1.283557	-0.441670	0.263374
O13	O	1.453931	-0.570710	0.441903
O14	O	1.283555	-0.570710	0.340322
O15	O	1.583024	-0.441669	0.441922
O16	O	1.582829	-0.741064	0.263358
O17	O	1.453820	-0.741044	0.340313
C18	C	1.245435	-0.506188	0.301847
C19	C	1.128658	-0.506206	0.301857
C20	C	1.518340	-0.779175	0.301846
C21	C	1.518410	-0.895951	0.301861
C22	C	1.073756	-0.573299	0.261722
C23	C	0.964032	-0.573317	0.261733
C24	C	0.964122	-0.439139	0.342015
C25	C	1.073844	-0.439127	0.342007
C26	C	1.073703	-0.650763	0.215370
C27	C	0.963979	-0.650781	0.215381
C28	C	1.585659	-0.950789	0.261835
C29	C	1.585724	-1.060513	0.261854
C30	C	1.451280	-1.060553	0.341927
C31	C	1.451222	-0.950831	0.341911
C32	C	1.663276	-0.950767	0.215603
C33	C	1.663340	-1.060491	0.215622
C34	C	1.792436	-0.506227	0.301871
C35	C	1.909212	-0.506236	0.301876
C36	C	1.518490	-0.506186	0.465282
C37	C	1.518527	-0.506177	0.534923
C38	C	1.518494	-0.232174	0.301885
C39	C	1.518533	-0.115397	0.301897
C40	C	1.518376	-0.506153	0.139071
C41	C	1.518542	-0.505866	0.069430
C42	C	1.585743	-0.438983	0.567647
C43	C	1.585741	-0.438938	0.633082
C44	C	1.518535	-0.506106	0.665792
C45	C	1.451306	-0.573305	0.633060
C46	C	1.451302	-0.573340	0.567626
C47	C	1.510218	-0.600705	0.769462
C48	C	1.510229	-0.600670	0.834895
C49	C	1.518542	-0.505994	0.867613
C50	C	1.526864	-0.411350	0.834889
C51	C	1.526860	-0.411385	0.769455
C52	C	1.518531	-0.506074	0.736744
C53	C	1.585759	-0.438746	0.971289
C54	C	1.585751	-0.438699	1.036725
C55	C	1.451321	-0.573075	1.036702
C56	C	1.451324	-0.573112	0.971266
C57	C	1.518549	-0.505949	0.938564
H58	H	0.919479	-0.384526	0.374704
N59	N	1.113153	-0.758578	0.232475
H60	H	1.192310	-0.758612	0.232474
H61	H	1.086679	-0.811245	0.200953
H62	H	1.740646	-1.094444	0.233044
H63	H	1.396590	-0.627754	1.063333
N64	N	1.634551	-1.100022	0.151338
H65	H	1.634597	-1.179179	0.151324
H66	H	1.687337	-1.073561	0.119912
H67	H	1.107700	-0.621496	0.169303
H68	H	1.396579	-1.105249	0.374535
N69	N	1.378788	-0.645802	0.532326
H70	H	1.336203	-0.688341	0.562974
H71	H	1.421522	-0.694448	0.505186
H72	H	0.929953	-0.728128	0.232682
H73	H	1.744620	-0.920915	0.228635
N74	N	0.924469	-0.621758	0.151140
H75	H	0.985978	-0.608786	0.122465
H76	H	0.880473	-0.556150	0.154050
H77	H	1.640481	-0.384292	0.541025
N78	N	1.501261	-0.702827	0.734178
H79	H	1.565262	-0.712688	0.707044
H80	H	1.436483	-0.701363	0.707049
N81	N	1.378698	-0.891682	0.385087
H82	H	1.336144	-0.943100	0.410458
H83	H	1.330070	-0.846219	0.359552
N84	N	1.624699	-0.905755	0.154521
H85	H	1.606104	-0.964709	0.125020
H86	H	1.681587	-0.861152	0.135299
N87	N	1.658253	-0.366471	0.668386
H88	H	1.648055	-0.376643	0.714800
H89	H	1.641937	-0.291438	0.656945
N90	N	1.535840	-0.309315	0.734159
H91	H	1.541110	-0.249328	0.764810
H92	H	1.471829	-0.299570	0.706995
N93	N	1.535841	-0.309225	0.870166
H94	H	1.534577	-0.323559	0.916584
H95	H	1.475103	-0.262254	0.858711
N96	N	1.658271	-0.366326	0.936006
H97	H	1.615606	-0.317654	0.908835
H98	H	1.706917	-0.409147	0.908917
N99	N	1.658232	-0.366202	1.072024
H100	H	1.700812	-0.323661	1.041375
H101	H	1.706838	-0.408946	1.099192
H102	H	1.396596	-0.627836	0.944623
H103	H	1.396583	-0.627990	0.659696
N104	N	1.133048	-0.366757	0.385298
H105	H	1.178555	-0.317996	0.359885
H106	H	1.178532	-0.409592	0.414279
H107	H	1.503458	-0.677736	0.861533
