data_functionalizedCrystal
_audit_creation_method	'MofGen! by Chris Wilmer'
_symmetry_space_group_name_H-M	'P1'
_symmetry_Int_Tables_number	1
_symmetry_cell_setting	triclinic
loop_
_symmetry_equiv_pos_as_xyz
  x,y,z
_cell_length_a	13.033293
_cell_length_b	21.295417
_cell_length_c	13.033429
_cell_angle_alpha	82.776125
_cell_angle_beta	90.866667
_cell_angle_gamma	97.198682
loop_
_atom_site_label
_atom_site_type_symbol
_atom_site_fract_x
_atom_site_fract_y
_atom_site_fract_z
Zn1	Zn	1.498510	-0.076237	-0.781517
Zn2	Zn	1.998510	0.423763	-0.281517
Zn3	Zn	1.520199	-0.193025	-0.609510
Zn4	Zn	2.020199	0.306975	-0.109510
Zn5	Zn	1.348344	-0.102580	-0.587675
Zn6	Zn	1.848344	0.397420	-0.087675
Zn7	Zn	1.326462	-0.196302	-0.759559
Zn8	Zn	1.826462	0.303698	-0.259559
O9	O	1.423379	-0.142036	-0.684565
O10	O	1.923379	0.357964	-0.184565
O11	O	1.645311	-0.079333	-0.777027
O12	O	2.145311	0.420667	-0.277027
O13	O	1.515636	-0.190680	-0.462695
O14	O	2.015636	0.309320	0.037305
O15	O	1.368344	-0.010986	-0.613440
O16	O	1.868344	0.489014	-0.113440
O17	O	1.661246	-0.165137	-0.650655
O18	O	2.161246	0.334863	-0.150655
O19	O	1.478671	0.008368	-0.755854
O20	O	1.978671	0.508368	-0.255854
O21	O	1.389375	-0.124230	-0.446652
O22	O	1.889375	0.375770	0.053348
O23	O	1.201517	-0.127408	-0.592148
O24	O	1.701517	0.372592	-0.092148
O25	O	1.331051	-0.170722	-0.906391
O26	O	1.831051	0.329278	-0.406391
O27	O	1.185440	-0.196266	-0.718431
O28	O	1.685440	0.303734	-0.218431
O29	O	1.457453	-0.082510	-0.922523
O30	O	1.957453	0.417490	-0.422523
O31	O	1.494419	-0.281559	-0.629364
O32	O	1.994419	0.218441	-0.129364
O33	O	1.352081	-0.283967	-0.739604
O34	O	1.852081	0.216033	-0.239604
C35	C	1.156160	-0.165051	-0.650538
C36	C	1.656160	0.334949	-0.150538
C37	C	1.041840	-0.174911	-0.636006
C38	C	1.541840	0.325089	-0.136006
C39	C	0.982976	-0.136906	-0.692150
C40	C	1.482976	0.363094	-0.192150
C41	C	0.864820	-0.147095	-0.677131
C42	C	1.364820	0.352905	-0.177131
C43	C	1.423254	-0.305602	-0.684497
C44	C	1.923254	0.194398	-0.184497
C45	C	1.423291	-0.375566	-0.684514
C46	C	1.923291	0.124434	-0.184514
C47	C	1.480694	-0.398298	-0.758711
C48	C	1.980694	0.101702	-0.258711
C49	C	1.480727	-0.464036	-0.758741
C50	C	1.980727	0.035964	-0.258741
C51	C	1.423370	-0.507039	-0.684557
C52	C	1.923370	-0.007039	-0.184557
C53	C	1.365954	-0.484301	-0.610353
C54	C	1.865954	0.015699	-0.110353
C55	C	1.365915	-0.418564	-0.610331
C56	C	1.865915	0.081436	-0.110331
N57	N	1.427026	-0.616992	-0.593564
N58	N	1.927026	-0.116992	-0.093564
N59	N	1.427069	-0.679438	-0.593588
N60	N	1.927069	-0.179438	-0.093588
C61	C	1.423484	-0.705101	-0.684618
C62	C	1.923484	-0.205101	-0.184618
N63	N	1.419874	-0.665956	-0.775628
N64	N	1.919874	-0.165956	-0.275628
N65	N	1.419836	-0.603503	-0.775603
N66	N	1.919836	-0.103503	-0.275603
C67	C	1.423406	-0.578321	-0.684572
C68	C	1.923406	-0.078321	-0.184572
C69	C	1.480926	-0.799112	-0.758854
C70	C	1.980926	-0.299112	-0.258854
C71	C	1.480952	-0.864851	-0.758885
C72	C	1.980952	-0.364851	-0.258885
C73	C	1.366186	-0.885115	-0.610488
C74	C	1.866186	-0.385115	-0.110488
C75	C	1.366153	-0.819377	-0.610466
C76	C	1.866153	-0.319377	-0.110466
C77	C	1.423529	-0.776379	-0.684648
C78	C	1.923529	-0.276379	-0.184648
C79	C	1.691640	-0.118931	-0.718726
C80	C	2.191640	0.381069	-0.218726
C81	C	1.805957	-0.109085	-0.733283
C82	C	2.305957	0.390915	-0.233283
C83	C	1.389392	-0.124043	-0.952817
C84	C	1.889392	0.375957	-0.452817
C85	C	1.374909	-0.116376	-1.067130
C86	C	1.874909	0.383624	-0.567130
C87	C	1.423529	0.022173	-0.684660
C88	C	1.923529	0.522173	-0.184660
C89	C	1.423593	0.092149	-0.684701
C90	C	1.923593	0.592149	-0.184701
C91	C	1.415961	-0.137920	-1.244177
C92	C	1.915961	0.362080	-0.744177
C93	C	1.430930	-0.145841	-1.126029
C94	C	1.930930	0.354159	-0.626029
C95	C	1.457292	-0.159908	-0.417365
C96	C	1.957292	0.340092	0.082635
C97	C	1.471975	-0.167381	-0.303078
C98	C	1.971975	0.332619	0.196922
H99	H	1.004762	-0.214991	-0.576818
H100	H	1.504762	0.285009	-0.076818
H101	H	1.319251	-0.519319	-0.549953
H102	H	1.819251	-0.019319	-0.049953
Br103	Br	1.558555	-0.339946	-0.859391
Br104	Br	2.058555	0.160054	-0.359391
H105	H	1.531017	-0.198465	-1.266036
H106	H	2.031017	0.301535	-0.766036
H107	H	1.319477	-0.920129	-0.550092
H108	H	1.819477	-0.420129	-0.050092
Br109	Br	1.558845	-0.895703	-0.859605
Br110	Br	2.058845	-0.395703	-0.359605
Br111	Br	1.558788	-0.740754	-0.859529
Br112	Br	2.058788	-0.240754	-0.359529
H113	H	1.315871	-0.085283	-1.104167
H114	H	1.815871	0.414717	-0.604167
H115	H	0.843031	-0.068997	-0.792468
H116	H	1.343031	0.431003	-0.292468
Br117	Br	1.529348	-0.197653	-1.064307
Br118	Br	2.029348	0.302347	-0.564307
Br119	Br	1.044765	-0.070095	-0.790795
Br120	Br	1.544765	0.429905	-0.290795
Br121	Br	1.558643	-0.494895	-0.859440
Br122	Br	2.058643	0.005105	-0.359440
H123	H	1.319415	-0.800868	-0.550044
H124	H	1.819415	-0.300868	-0.050044
H125	H	0.827746	-0.187178	-0.617939
H126	H	1.327746	0.312822	-0.117939
Br127	Br	1.288000	-0.387712	-0.509630
Br128	Br	1.788000	0.112288	-0.009630
H129	H	1.356927	-0.106830	-1.281220
H130	H	1.856927	0.393170	-0.781220
