data_functionalizedCrystal
_audit_creation_method	'MofGen! by Chris Wilmer'
_symmetry_space_group_name_H-M	'P1'
_symmetry_Int_Tables_number	1
_symmetry_cell_setting	triclinic
loop_
_symmetry_equiv_pos_as_xyz
  x,y,z
_cell_length_a	14.044190
_cell_length_b	14.044220
_cell_length_c	12.503572
_cell_angle_alpha	86.164750
_cell_angle_beta	93.839403
_cell_angle_gamma	93.190328
loop_
_atom_site_label
_atom_site_type_symbol
_atom_site_fract_x
_atom_site_fract_y
_atom_site_fract_z
O1	O	0.225116	1.282207	-0.089227
O2	O	0.558449	1.615540	0.244106
O3	O	0.891783	1.948873	0.577439
O4	O	0.216809	1.005537	-0.089254
O5	O	0.550142	1.338870	0.244080
O6	O	0.883475	1.672203	0.577413
O7	O	0.082627	1.139714	-0.089220
O8	O	0.415961	1.473047	0.244114
O9	O	0.749294	1.806381	0.577447
O10	O	0.359297	1.148029	-0.089261
O11	O	0.692631	1.481363	0.244072
O12	O	1.025964	1.814696	0.577406
O13	O	0.092737	1.129625	0.089420
O14	O	0.426070	1.462958	0.422753
O15	O	0.759404	1.796291	0.756086
O16	O	0.226918	0.995447	0.089386
O17	O	0.560252	1.328780	0.422719
O18	O	0.893585	1.662114	0.756052
O19	O	0.235226	1.272117	0.089412
O20	O	0.568559	1.605451	0.422746
O21	O	0.901892	1.938784	0.756079
Cu22	Cu	0.231995	1.132861	0.105710
Cu23	Cu	0.565328	1.466194	0.439044
Cu24	Cu	0.898662	1.799528	0.772377
Cu25	Cu	0.220039	1.144793	-0.105552
Cu26	Cu	0.553373	1.478126	0.227782
Cu27	Cu	0.886706	1.811460	0.561115
O28	O	0.369407	1.137940	0.089378
O29	O	0.702740	1.471273	0.422712
O30	O	1.036074	1.804606	0.756045
C31	C	0.218228	0.964870	0.000063
C32	C	0.551561	1.298203	0.333396
C33	C	0.884894	1.631537	0.666730
C34	C	0.207383	0.858728	0.000054
C35	C	0.540716	1.192061	0.333387
C36	C	0.874049	1.525394	0.666721
C37	C	0.187558	0.664388	0.000078
C38	C	0.520891	0.997721	0.333411
C39	C	0.854224	1.331055	0.666745
C40	C	0.264472	0.613260	0.000071
C41	C	0.597805	0.946594	0.333404
C42	C	0.931139	1.279927	0.666738
C43	C	0.253441	0.505123	0.000085
C44	C	0.586774	0.838457	0.333418
C45	C	0.920108	1.171790	0.666751
C46	C	0.198587	0.772535	0.000065
C47	C	0.531920	1.105868	0.333398
C48	C	0.865254	1.439202	0.666731
C49	C	0.052060	1.131033	0.000103
C50	C	0.385394	1.464366	0.333436
C51	C	0.718727	1.797699	0.666770
C52	C	-0.054082	1.120185	0.000111
C53	C	0.279251	1.453518	0.333445
C54	C	0.612584	1.786852	0.666778
C55	C	-0.299543	1.177287	0.000075
C56	C	0.033790	1.510621	0.333408
C57	C	0.367124	1.843954	0.666741
C58	C	-0.248417	1.100371	0.000075
C59	C	0.084916	1.433705	0.333408
C60	C	0.418249	1.767038	0.666741
C61	C	-0.140279	1.111398	0.000095
C62	C	0.193054	1.444732	0.333428
C63	C	0.526387	1.778065	0.666762
C64	C	-0.407691	1.166262	0.000054
C65	C	-0.074357	1.499595	0.333388
C66	C	0.258976	1.832929	0.666721
C67	C	0.399974	1.146621	0.000053
C68	C	0.733307	1.479955	0.333387
C69	C	1.066641	1.813288	0.666720
C70	C	0.506116	1.157469	0.000038
C71	C	0.839449	1.490803	0.333371
C72	C	1.172783	1.824136	0.666705
C73	C	0.233806	1.312784	0.000093
C74	C	0.567140	1.646117	0.333427
C75	C	0.900473	1.979451	0.666760
C76	C	0.244651	1.418927	0.000095
C77	C	0.577985	1.752260	0.333429
C78	C	0.911318	2.085594	0.666762
N79	N	0.240404	1.124476	0.254300
N80	N	0.573737	1.457809	0.587634
N81	N	0.907071	1.791142	0.920967
N82	N	0.211623	1.153185	-0.254142
N83	N	0.544957	1.486519	0.079192
N84	N	0.878290	1.819852	0.412525
C85	C	0.252782	1.112141	0.473412
C86	C	0.586115	1.445474	0.806746
C87	C	0.919449	1.778808	1.140079
C88	C	0.199248	1.165517	0.526753
C89	C	0.532582	1.498850	0.860086
C90	C	0.865915	1.832184	1.193420
C91	C	0.206136	1.158654	0.648675
C92	C	0.539469	1.491987	0.982008
C93	C	0.872802	1.825320	1.315341
C94	C	0.245896	1.119003	0.351480
C95	C	0.579229	1.452336	0.684813
C96	C	0.912562	1.785670	1.018147
H97	H	0.338605	0.650703	0.000055
H98	H	0.671938	0.984036	0.333388
H99	H	1.005271	1.317369	0.666721
H100	H	0.113431	0.626948	0.000095
H101	H	0.446764	0.960282	0.333428
H102	H	0.780097	1.293615	0.666762
Cl103	Cl	-0.306224	0.985916	0.000062
Cl104	Cl	0.027110	1.319249	0.333396
Cl105	Cl	0.360443	1.652583	0.666729
Cl106	Cl	0.120898	1.244423	0.455893
Cl107	Cl	0.454231	1.577756	0.789226
Cl108	Cl	0.787564	1.911089	1.122560
Cl109	Cl	0.331528	1.033638	0.544272
Cl110	Cl	0.664861	1.366972	0.877605
Cl111	Cl	0.998194	1.700305	1.210939
H112	H	-0.262101	1.251413	0.000093
H113	H	0.071233	1.584746	0.333426
H114	H	0.404566	1.918080	0.666759
