data_functionalizedCrystal
_audit_creation_method	'MofGen! by Chris Wilmer'
_symmetry_space_group_name_H-M	'P1'
_symmetry_Int_Tables_number	1
_symmetry_cell_setting	triclinic
loop_
_symmetry_equiv_pos_as_xyz
  x,y,z
_cell_length_a	10.654549
_cell_length_b	10.654551
_cell_length_c	9.730223
_cell_angle_alpha	89.998425
_cell_angle_beta	89.997731
_cell_angle_gamma	84.485069
loop_
_atom_site_label
_atom_site_type_symbol
_atom_site_fract_x
_atom_site_fract_y
_atom_site_fract_z
O1	O	1.667840	0.176396	-0.114249
O2	O	1.302362	0.193203	-0.114258
O3	O	1.493503	0.002060	-0.114254
O4	O	1.476698	0.367539	-0.114253
O5	O	1.493491	0.002055	0.114326
O6	O	1.302349	0.193198	0.114322
O7	O	1.667828	0.176391	0.114331
Zn8	Zn	1.485086	0.184793	0.150619
Zn9	Zn	1.485103	0.184800	-0.150545
O10	O	1.476686	0.367533	0.114327
C11	C	1.255557	0.191966	0.000031
C12	C	1.116114	0.188275	0.000027
C13	C	0.905600	0.297338	0.000033
C14	C	1.036620	0.300816	0.000025
C15	C	1.064581	0.072247	0.000024
C16	C	0.933563	0.068770	0.000022
C17	C	1.492263	-0.044740	0.000033
C18	C	1.488570	-0.184183	0.000024
C19	C	1.486845	-0.249692	-0.124573
C20	C	1.483365	-0.380713	-0.124567
C21	C	1.483341	-0.380704	0.124644
C22	C	1.486812	-0.249685	0.124636
C23	C	1.486864	-0.249699	-0.268453
C24	C	1.483384	-0.380720	-0.268446
C25	C	1.714632	0.177628	0.000039
C26	C	1.854075	0.181319	0.000034
C27	C	1.477926	0.414334	0.000037
C28	C	1.481619	0.553777	0.000038
N29	N	1.485084	0.184788	0.356155
N30	N	1.485115	0.184796	-0.356082
C31	C	1.569751	0.100186	0.428083
C32	C	1.569764	0.100187	0.571966
C33	C	1.400439	0.269402	0.571981
C34	C	1.400421	0.269394	0.428100
H35	H	0.840884	0.388983	0.000042
C36	C	1.093290	0.428446	0.000035
N37	N	1.135973	0.524582	0.000045
C38	C	1.600644	-0.443262	-0.343057
N39	N	1.688962	-0.490368	-0.399249
C40	C	1.359643	-0.420669	-0.328768
N41	N	1.266442	-0.450760	-0.374197
H42	H	1.400078	-0.203417	-0.323704
C43	C	1.610611	-0.209749	-0.328761
N44	N	1.703818	-0.179658	-0.374184
H45	H	1.129316	-0.019386	0.000018
H46	H	1.638687	0.031293	0.369508
H47	H	1.331510	0.338288	0.630573
C48	C	1.662894	0.007108	0.651080
N49	N	1.733039	-0.063008	0.710667
C50	C	0.876883	-0.058866	0.000032
N51	N	0.834192	-0.154998	0.000039
C52	C	1.481409	-0.452768	0.261710
N53	N	1.479955	-0.507046	0.364951
C54	C	1.307334	0.362526	0.348975
N55	N	1.237243	0.432688	0.289378
C56	C	1.488691	-0.177627	0.261702
N57	N	1.490105	-0.123353	0.364945
