data_functionalizedCrystal
_audit_creation_method	'MofGen! by Chris Wilmer'
_symmetry_space_group_name_H-M	'P1'
_symmetry_Int_Tables_number	1
_symmetry_cell_setting	triclinic
loop_
_symmetry_equiv_pos_as_xyz
  x,y,z
_cell_length_a	13.033409
_cell_length_b	16.959453
_cell_length_c	13.032268
_cell_angle_alpha	97.146068
_cell_angle_beta	105.162573
_cell_angle_gamma	82.850960
loop_
_atom_site_label
_atom_site_type_symbol
_atom_site_fract_x
_atom_site_fract_y
_atom_site_fract_z
Zn1	Zn	1.547420	-0.500981	-0.393901
Zn2	Zn	1.569868	-0.618271	-0.216300
Zn3	Zn	1.392374	-0.471250	-0.238910
Zn4	Zn	1.369785	-0.618241	-0.416451
O5	O	1.469861	-0.552186	-0.316390
O6	O	1.699020	-0.528994	-0.351442
O7	O	1.565171	-0.586338	-0.070671
O8	O	1.413000	-0.364591	-0.259495
O9	O	1.715512	-0.615167	-0.220959
O10	O	1.526912	-0.386434	-0.373367
O11	O	1.434767	-0.478322	-0.087282
O12	O	1.240755	-0.478294	-0.281361
O13	O	1.374501	-0.615117	-0.562088
O14	O	1.224159	-0.586288	-0.411799
O15	O	1.505008	-0.528966	-0.545521
O16	O	1.543267	-0.728870	-0.242825
O17	O	1.396267	-0.728848	-0.389875
C18	C	1.193920	-0.529062	-0.351481
C19	C	1.075868	-0.519191	-0.366518
C20	C	0.909394	-0.547142	-0.324104
C21	C	1.031407	-0.557347	-0.308557
C22	C	1.469778	-0.757541	-0.316363
C23	C	1.469835	-0.845404	-0.316374
C24	C	1.529246	-1.228217	-0.375800
C25	C	1.410754	-1.205589	-0.257100
C26	C	1.410717	-1.123038	-0.257081
C27	C	1.469945	-1.093073	-0.316423
C28	C	1.529209	-1.145659	-0.375785
C29	C	1.351446	-1.070446	-0.197729
C30	C	1.351406	-0.987889	-0.197708
C31	C	1.410641	-0.957922	-0.257045
C32	C	1.469908	-1.010514	-0.316408
C33	C	1.529136	-0.980549	-0.375751
C34	C	1.588410	-1.033139	-0.435109
C35	C	1.588443	-1.115692	-0.435123
C36	C	1.410607	-0.875370	-0.257032
C37	C	1.529099	-0.897991	-0.375736
C38	C	1.746880	-0.575400	-0.281163
C39	C	1.864929	-0.585293	-0.266152
C40	C	1.434731	-0.575354	-0.593419
C41	C	1.419760	-0.585227	-0.711473
C42	C	1.469971	-0.346033	-0.316438
C43	C	1.470018	-0.258182	-0.316458
C44	C	1.477658	-0.547003	-0.755907
C45	C	1.462187	-0.557206	-0.877922
C46	C	1.504917	-0.529055	-0.040431
C47	C	1.520093	-0.518977	0.077647
H48	H	1.577334	-0.873599	-0.424056
O49	O	1.093681	-0.605450	-0.235749
C50	C	1.063695	-0.683931	-0.262180
H51	H	1.022394	-0.692578	-0.350883
H52	H	1.006602	-0.694418	-0.213324
C53	C	1.214583	-0.733193	-0.128277
C54	C	1.163864	-0.743815	-0.237227
H55	H	1.276370	-0.770133	-0.112881
H56	H	1.234783	-0.680318	-0.110467
H57	H	1.166994	-0.741931	-0.087577
H58	H	1.211448	-0.735068	-0.277924
H59	H	1.143674	-0.796690	-0.255043
O60	O	1.013565	-0.471308	-0.439594
C61	C	1.027220	-0.499789	-0.541981
H62	H	1.057099	-0.565913	-0.543329
H63	H	1.088011	-0.465116	-0.561702
C64	C	0.882957	-0.407198	-0.623709
C65	C	0.919646	-0.488415	-0.625367
H66	H	0.816602	-0.400179	-0.675147
H67	H	0.873759	-0.388007	-0.554729
H68	H	0.933626	-0.378313	-0.640140
H69	H	0.868984	-0.517297	-0.608923
H70	H	0.928833	-0.507610	-0.694347
O71	O	1.293984	-1.099454	-0.139933
C72	C	1.330707	-1.072412	-0.031127
H73	H	1.371781	-1.015688	-0.023759
H74	H	1.389893	-1.120441	0.011546
C75	C	1.184937	-1.124286	0.011080
C76	C	1.235378	-1.054614	0.020130
H77	H	1.126136	-1.113311	0.042700
H78	H	1.160198	-1.142508	-0.062224
H79	H	1.234270	-1.164304	0.046640
H80	H	1.186050	-1.014601	-0.015441
H81	H	1.260107	-1.036385	0.093429
H82	H	1.538677	-0.506721	-0.703620
O83	O	0.927206	-0.633393	-0.193347
C84	C	0.897220	-0.711874	-0.219778
H85	H	0.855919	-0.720521	-0.308482
H86	H	0.840127	-0.722361	-0.170922
C87	C	1.048108	-0.761136	-0.085876
C88	C	0.997389	-0.771758	-0.194825
H89	H	1.109894	-0.798076	-0.070480
H90	H	1.068308	-0.708262	-0.068066
H91	H	1.000519	-0.769874	-0.045176
H92	H	1.044972	-0.763011	-0.235523
H93	H	0.977199	-0.824633	-0.212642
H94	H	1.636628	-1.008732	-0.483431
H95	H	0.857131	-0.506929	-0.385234
O96	O	1.586649	-1.279334	-0.433593
C97	C	1.517455	-1.327777	-0.509825
H98	H	1.432967	-1.296477	-0.526949
H99	H	1.518017	-1.387302	-0.477451
C100	C	1.659009	-1.381008	-0.592664
C101	C	1.555242	-1.342562	-0.613703
H102	H	1.682320	-1.390131	-0.656740
H103	H	1.705628	-1.348373	-0.541303
H104	H	1.659464	-1.430608	-0.565683
H105	H	1.554791	-1.292958	-0.640670
H106	H	1.508623	-1.375188	-0.665071
H107	H	1.636700	-1.158518	-0.483449
O108	O	1.592779	-0.470796	-0.860060
C109	C	1.566211	-0.392330	-0.890091
H110	H	1.477517	-0.383774	-0.931437
H111	H	1.615059	-0.381788	-0.947166
C112	C	1.699952	-0.342926	-0.739164
C113	C	1.591014	-0.332415	-0.789937
H114	H	1.715256	-0.305967	-0.677386
H115	H	1.717855	-0.395790	-0.718933
H116	H	1.740645	-0.334142	-0.786737
H117	H	1.550324	-0.341210	-0.742369
H118	H	1.573105	-0.279551	-0.810158
O119	O	1.353154	-1.234791	-0.199613
C120	C	1.276848	-1.281847	-0.268768
H121	H	1.304029	-1.304031	-0.344540
H122	H	1.196645	-1.244448	-0.290369
C123	C	1.231735	-1.326556	-0.119709
C124	C	1.265124	-1.353808	-0.212770
H125	H	1.224499	-1.370943	-0.085166
H126	H	1.283141	-1.294851	-0.073117
H127	H	1.164903	-1.295389	-0.137723
H128	H	1.331961	-1.384965	-0.194753
H129	H	1.213729	-1.385520	-0.259357
O130	O	1.347106	-0.633385	-0.773868
C131	C	1.399467	-0.694816	-0.830347
H132	H	1.487330	-0.703922	-0.786216
H133	H	1.392556	-0.677663	-0.913911
C134	C	1.239394	-0.761604	-0.892978
C135	C	1.347308	-0.772793	-0.838770
H136	H	1.207218	-0.809703	-0.898178
H137	H	1.204116	-0.720215	-0.854930
H138	H	1.233649	-0.747307	-0.962609
H139	H	1.353051	-0.787079	-0.769137
H140	H	1.382586	-0.814186	-0.876806
H141	H	1.303144	-0.945074	-0.149375
H142	H	1.362341	-0.832554	-0.208709
H143	H	1.401153	-0.597482	-0.930207
