data_functionalizedCrystal
_audit_creation_method	'MofGen! by Chris Wilmer'
_symmetry_space_group_name_H-M	'P1'
_symmetry_Int_Tables_number	1
_symmetry_cell_setting	triclinic
loop_
_symmetry_equiv_pos_as_xyz
  x,y,z
_cell_length_a	11.169417
_cell_length_b	25.639240
_cell_length_c	11.169409
_cell_angle_alpha	90.041349
_cell_angle_beta	89.980487
_cell_angle_gamma	89.955588
loop_
_atom_site_label
_atom_site_type_symbol
_atom_site_fract_x
_atom_site_fract_y
_atom_site_fract_z
Zn1	Zn	1.834689	0.208091	-0.678458
Zn2	Zn	1.834463	0.295541	-0.477743
Zn3	Zn	1.633974	0.208123	-0.477793
Zn4	Zn	1.633867	0.295499	-0.678389
O5	O	1.734248	0.251814	-0.578096
O6	O	2.002608	0.219696	-0.651840
O7	O	1.807818	0.283976	-0.309800
O8	O	1.660739	0.134954	-0.504461
O9	O	2.002443	0.283945	-0.504376
O10	O	1.808203	0.134930	-0.651889
O11	O	1.660520	0.219751	-0.309837
O12	O	1.466011	0.219710	-0.504395
O13	O	1.660556	0.283873	-0.846348
O14	O	1.465932	0.283905	-0.651772
O15	O	1.808099	0.219655	-0.846398
O16	O	1.807714	0.368701	-0.504309
O17	O	1.660337	0.368670	-0.651723
C18	C	1.422424	0.251807	-0.578082
C19	C	1.289024	0.251816	-0.578104
C20	C	1.734022	0.387656	-0.578029
C21	C	1.734035	0.445770	-0.578041
C22	C	1.811088	0.806137	-0.501422
C23	C	1.811125	0.860741	-0.501434
O24	O	1.876479	0.888981	-0.436252
N25	N	1.734345	0.888053	-0.578122
C26	C	1.657532	0.860757	-0.654813
O27	O	1.592229	0.889002	-0.720045
C28	C	1.657502	0.806154	-0.654807
C29	C	1.734279	0.778845	-0.578104
C30	C	1.887859	0.778828	-0.424727
C31	C	1.887821	0.724228	-0.424714
C32	C	1.811011	0.696936	-0.501396
C33	C	1.734240	0.724245	-0.578092
C34	C	1.580696	0.778859	-0.731503
C35	C	1.580674	0.724252	-0.731491
C36	C	1.657450	0.696944	-0.654788
C37	C	1.657392	0.642352	-0.654761
N38	N	1.734172	0.615041	-0.578072
C39	C	1.810981	0.642333	-0.501390
C40	C	1.657602	0.975428	-0.654822
C41	C	1.657625	1.030030	-0.654823
C42	C	1.811220	1.030010	-0.501445
C43	C	1.811190	0.975407	-0.501439
C44	C	1.734382	0.948116	-0.578133
C45	C	1.810894	0.527667	-0.501368
C46	C	1.810845	0.473062	-0.501359
C47	C	1.657255	0.473087	-0.654741
C48	C	1.657299	0.527687	-0.654747
C49	C	1.734128	0.554976	-0.578056
O50	O	1.592075	0.614078	-0.719913
O51	O	1.876285	0.614081	-0.436181
C52	C	2.047291	0.251821	-0.578110
C53	C	2.180691	0.251824	-0.578116
C54	C	1.734341	0.251756	-0.891138
C55	C	1.734380	0.251731	-1.024538
C56	C	1.734463	1.115441	-0.578167
C57	C	1.734439	1.057327	-0.578145
C58	C	1.734226	0.251834	-0.266271
C59	C	1.734419	0.251711	-0.132871
H60	H	1.873458	0.549880	-0.438922
N61	N	1.970650	0.694777	-0.342005
H62	H	1.952075	0.704319	-0.256236
H63	H	2.056356	0.704254	-0.360844
N64	N	1.574489	0.557146	-0.737467
H65	H	1.518912	0.579847	-0.688654
H66	H	1.525902	0.531536	-0.786022
H67	H	1.950414	0.801043	-0.362283
N68	N	1.574802	1.059476	-0.737548
H69	H	1.623556	1.082089	-0.793219
H70	H	1.519234	1.082144	-0.688652
H71	H	1.873708	0.953175	-0.438982
H72	H	1.873365	0.450829	-0.438894
N73	N	1.574744	0.945994	-0.737538
H74	H	1.526113	0.971586	-0.786113
H75	H	1.519212	0.923382	-0.688633
H76	H	1.873766	1.052241	-0.439010
N77	N	1.497903	0.808309	-0.814242
H78	H	1.442312	0.831007	-0.765441
H79	H	1.449331	0.782697	-0.862805
N80	N	1.497832	0.694818	-0.814216
H81	H	1.449205	0.720407	-0.862802
H82	H	1.442295	0.672206	-0.765315
N83	N	1.574405	0.443645	-0.737438
H84	H	1.586041	0.404911	-0.725787
H85	H	1.593048	0.453148	-0.823173
