data_functionalizedCrystal
_audit_creation_method	'MofGen! by Chris Wilmer'
_symmetry_space_group_name_H-M	'P1'
_symmetry_Int_Tables_number	1
_symmetry_cell_setting	triclinic
loop_
_symmetry_equiv_pos_as_xyz
  x,y,z
_cell_length_a	16.109302
_cell_length_b	19.188924
_cell_length_c	14.586319
_cell_angle_alpha	89.994146
_cell_angle_beta	89.994552
_cell_angle_gamma	83.301872
loop_
_atom_site_label
_atom_site_type_symbol
_atom_site_fract_x
_atom_site_fract_y
_atom_site_fract_z
O1	O	1.102830	0.089747	-0.076286
O2	O	0.860731	0.100915	-0.076279
O3	O	0.988770	-0.006309	-0.076272
O4	O	0.974791	0.196970	-0.076293
O5	O	0.988761	-0.006311	0.076209
O6	O	0.860722	0.100913	0.076202
O7	O	1.102822	0.089745	0.076195
Cu8	Cu	0.981771	0.095329	0.090121
Cu9	Cu	0.981782	0.095331	-0.090205
O10	O	0.974782	0.196969	0.076188
C11	C	0.829753	0.100461	-0.000038
C12	C	0.737463	0.099105	-0.000035
C13	C	0.525127	0.095967	0.083074
C14	C	0.438412	0.094685	0.083071
C15	C	0.438432	0.094690	-0.083172
C16	C	0.525147	0.095968	-0.083168
C17	C	0.568492	0.096609	-0.000042
C18	C	0.395061	0.094050	-0.000050
C19	C	0.301040	0.092660	-0.000053
C20	C	0.662519	0.097998	-0.000038
C21	C	0.988314	-0.032322	-0.000031
C22	C	0.986958	-0.109830	-0.000028
C23	C	0.986330	-0.146229	-0.083145
C24	C	0.985044	-0.219055	-0.083152
C25	C	0.984403	-0.255480	-0.000037
C26	C	0.985026	-0.219072	0.083091
C27	C	0.986304	-0.146246	0.083096
N28	N	1.029706	-0.375038	0.061822
N29	N	1.028494	-0.444219	0.061812
C30	C	0.980552	-0.474898	-0.000046
N31	N	0.933878	-0.433784	-0.061908
N32	N	0.935094	-0.364597	-0.061900
C33	C	0.983017	-0.334447	-0.000033
C34	C	0.978528	-0.590264	-0.083177
C35	C	0.977237	-0.663090	-0.083180
C36	C	0.977228	-0.663106	0.083066
C37	C	0.978511	-0.590280	0.083067
C38	C	0.979165	-0.553864	-0.000057
C39	C	1.133799	0.090198	-0.000048
C40	C	1.226090	0.091555	-0.000057
C41	C	0.975239	0.222982	-0.000055
C42	C	0.976595	0.300490	-0.000064
N43	N	0.981770	0.095327	0.216953
N44	N	0.981789	0.095327	-0.217037
C45	C	1.038484	0.047864	0.451963
C46	C	1.038487	0.047863	0.547944
C47	C	0.925069	0.142792	0.547947
C48	C	0.925063	0.142790	0.451967
C49	C	0.981776	0.095327	0.403978
C50	C	0.981784	0.095327	0.595938
C51	C	0.981786	0.095326	0.700006
C52	C	0.981773	0.095327	0.299904
H53	H	0.986860	-0.116583	-0.150832
H54	H	0.984527	-0.248697	-0.150839
H55	H	0.560416	0.096490	0.150760
H56	H	1.084661	0.009216	0.412892
O57	O	1.093655	0.001733	0.594414
C58	C	1.143691	-0.040169	0.531471
H59	H	1.144520	-0.011542	0.463050
H60	H	1.116889	-0.092044	0.521274
C61	C	1.232413	-0.089698	0.652953
C62	C	1.233437	-0.054535	0.568919
H63	H	1.287771	-0.098563	0.676053
H64	H	1.198701	-0.061470	0.695360
H65	H	1.210074	-0.132923	0.644444
H66	H	1.255765	-0.011307	0.577432
H67	H	1.267154	-0.082756	0.526515
H68	H	0.560455	0.096489	-0.150856
H69	H	0.979056	-0.560611	-0.150861
H70	H	0.403108	0.094162	0.150752
O71	O	0.869903	0.188923	0.594424
C72	C	0.819861	0.230824	0.531486
H73	H	0.819026	0.202196	0.463073
H74	H	0.846660	0.282699	0.521265
C75	C	0.731150	0.280351	0.652982
C76	C	0.730118	0.245188	0.568959
H77	H	0.675793	0.289215	0.676098
H78	H	0.764866	0.252124	0.695386
H79	H	0.753486	0.323577	0.644453
H80	H	0.707792	0.201960	0.577491
H81	H	0.696396	0.273408	0.526558
H82	H	0.878880	0.181440	0.412895
H83	H	0.984502	-0.248733	0.150764
O84	O	0.396190	0.094102	-0.163834
C85	C	0.310357	0.092822	-0.146017
H86	H	0.294981	0.114735	-0.074584
H87	H	0.294676	0.036480	-0.149957
C88	C	0.277431	0.111016	-0.305464
C89	C	0.258546	0.137936	-0.217731
H90	H	0.245471	0.138842	-0.349702
H91	H	0.335259	0.111876	-0.317469
H92	H	0.264364	0.064065	-0.308734
H93	H	0.271623	0.184883	-0.214459
H94	H	0.200718	0.137085	-0.205727
H95	H	0.986812	-0.116610	0.150782
O96	O	0.976674	-0.698348	-0.164007
C97	C	0.977511	-0.650584	-0.237367
H98	H	1.004728	-0.601570	-0.212990
H99	H	0.910968	-0.635497	-0.262941
C100	C	0.998117	-0.745200	-0.345826
C101	C	1.031552	-0.685002	-0.315888
H102	H	1.031449	-0.766431	-0.394264
H103	H	0.997550	-0.777380	-0.296403
H104	H	0.942666	-0.732619	-0.367132
H105	H	1.086998	-0.697586	-0.294573
H106	H	1.032130	-0.652825	-0.365309
H107	H	0.976699	-0.692762	0.150740
O108	O	0.979170	-0.555031	0.163891
C109	C	0.978309	-0.602792	0.237251
H110	H	1.003710	-0.657600	0.212879
H111	H	0.911487	-0.603196	0.262815
C112	C	1.002121	-0.513066	0.345713
C113	C	1.033326	-0.580381	0.315780
H114	H	1.036055	-0.499241	0.394155
H115	H	1.002698	-0.480888	0.296289
H116	H	0.946437	-0.513411	0.367009
H117	H	1.089005	-0.580033	0.294473
H118	H	1.032760	-0.612559	0.365202
