data_functionalizedCrystal
_audit_creation_method	'MofGen! by Chris Wilmer'
_symmetry_space_group_name_H-M	'P1'
_symmetry_Int_Tables_number	1
_symmetry_cell_setting	triclinic
loop_
_symmetry_equiv_pos_as_xyz
  x,y,z
_cell_length_a	19.121102
_cell_length_b	19.121063
_cell_length_c	19.120904
_cell_angle_alpha	85.258387
_cell_angle_beta	89.911827
_cell_angle_gamma	90.126902
loop_
_atom_site_label
_atom_site_type_symbol
_atom_site_fract_x
_atom_site_fract_y
_atom_site_fract_z
Zn1	Zn	1.039579	-0.343506	0.456040
Zn2	Zn	1.539579	0.156494	0.956040
Zn3	Zn	1.039493	-0.456149	0.343386
Zn4	Zn	1.539493	0.043851	0.843386
Zn5	Zn	0.927792	-0.333518	0.333417
Zn6	Zn	1.427792	0.166482	0.833417
Zn7	Zn	0.917325	-0.455677	0.455570
Zn8	Zn	1.417325	0.044323	0.955570
O9	O	0.981047	-0.397212	0.397103
O10	O	1.481047	0.102788	0.897103
O11	O	1.137479	-0.362826	0.445465
O12	O	1.637479	0.137174	0.945465
O13	O	1.029020	-0.435899	0.243797
O14	O	1.529020	0.064101	0.743797
O15	O	0.947038	-0.236577	0.345708
O16	O	1.447038	0.263423	0.845708
O17	O	1.137415	-0.445584	0.362699
O18	O	1.637415	0.054416	0.862699
O19	O	1.029167	-0.243915	0.435798
O20	O	1.529167	0.256085	0.935798
O21	O	0.946954	-0.345802	0.236473
O22	O	1.446954	0.154198	0.736473
O23	O	0.828493	-0.345345	0.345252
O24	O	1.328493	0.154655	0.845252
O25	O	0.929198	-0.444780	0.553899
O26	O	1.429198	0.055220	1.053899
O27	O	0.820803	-0.435094	0.434997
O28	O	1.320803	0.064906	0.934997
O29	O	1.019018	-0.362368	0.554244
O30	O	1.519018	0.137632	1.054244
O31	O	1.018870	-0.554352	0.362243
O32	O	1.518870	-0.054352	0.862243
O33	O	0.929114	-0.554005	0.444664
O34	O	1.429114	-0.054005	0.944664
C35	C	0.972865	-0.579659	0.404501
C36	C	1.472865	-0.079659	0.904501
C37	C	0.969428	-0.657714	0.407691
C38	C	1.469428	-0.157714	0.907691
C39	C	0.799261	-0.389085	0.388992
C40	C	1.299261	0.110915	0.888992
C41	C	0.721490	-0.385626	0.385539
C42	C	1.221490	0.114374	0.885539
C43	C	1.014577	-0.694545	0.366317
C44	C	1.514577	-0.194545	0.866317
C45	C	1.011348	-0.767887	0.369323
C46	C	1.511348	-0.267887	0.869323
C47	C	0.962966	-0.804396	0.413699
C48	C	1.462966	-0.304396	0.913699
C49	C	0.917815	-0.767560	0.455078
C50	C	1.417815	-0.267560	0.955078
C51	C	0.921048	-0.694220	0.452076
C52	C	1.421048	-0.194220	0.952076
C53	C	0.950869	-1.025828	0.424912
C54	C	1.450869	-0.525828	0.924912
C55	C	0.947638	-1.099173	0.427909
C56	C	1.447638	-0.599173	0.927909
C57	C	1.041173	-1.099494	0.342155
C58	C	1.541173	-0.599494	0.842155
C59	C	1.044399	-1.026153	0.339154
C60	C	1.544399	-0.526153	0.839154
C61	C	0.999250	-0.989323	0.380535
C62	C	1.499250	-0.489323	0.880535
C63	C	0.959663	-0.879363	0.416770
C64	C	1.459663	-0.379363	0.916770
C65	C	1.002557	-0.914358	0.377467
C66	C	1.502557	-0.414358	0.877467
C67	C	0.680968	-0.430793	0.430575
C68	C	1.180968	0.069207	0.930575
C69	C	0.607894	-0.427534	0.427334
C70	C	1.107894	0.072466	0.927334
C71	C	0.575344	-0.379110	0.379053
C72	C	1.075344	0.120890	0.879053
C73	C	0.615872	-0.333937	0.334016
C74	C	1.115872	0.166063	0.834016
C75	C	0.688944	-0.337194	0.337261
C76	C	1.188944	0.162806	0.837261
C77	C	0.354913	-0.366933	0.366924
C78	C	0.854913	0.133067	0.866924
C79	C	0.281835	-0.363681	0.363681
C80	C	0.781835	0.136319	0.863681
C81	C	0.273863	-0.457277	0.457000
C82	C	0.773863	0.042723	0.957000
C83	C	0.346937	-0.460532	0.460238
C84	C	0.846937	0.039468	0.960238
C85	C	0.387458	-0.415357	0.415203
C86	C	0.887458	0.084643	0.915203
C87	C	0.500651	-0.375778	0.375738
C88	C	1.000651	0.124222	0.875738
C89	C	0.462149	-0.418686	0.418523
C90	C	0.962149	0.081314	0.918523
C91	C	1.163544	-0.405372	0.405246
C92	C	1.663544	0.094628	0.905246
C93	C	1.241313	-0.408849	0.408717
C94	C	1.741313	0.091151	0.908717
C95	C	0.972950	-0.404635	0.580263
C96	C	1.472950	0.095365	1.080263
C97	C	0.969500	-0.407799	0.658315
C98	C	1.469500	0.092201	1.158315
C99	C	0.989280	-0.214054	0.389693
C100	C	1.489280	0.285946	0.889693
C101	C	0.992788	-0.136003	0.386535
C102	C	1.492788	0.363997	0.886535
C103	C	0.989156	-0.389769	0.214655
C104	C	1.489156	0.110231	0.714655
C105	C	0.992751	-0.386414	0.136602
C106	C	1.492751	0.113586	0.636602
C107	C	1.014640	-0.366379	0.695165
C108	C	1.514640	0.133621	1.195165
C109	C	1.011390	-0.369348	0.768503
C110	C	1.511390	0.130652	1.268503
C111	C	0.963001	-0.413741	0.804990
C112	C	1.463001	0.086259	1.304990
C113	C	0.917856	-0.455162	0.768135
C114	C	1.417856	0.044838	1.268135
C115	C	0.921103	-0.452188	0.694798
C116	C	1.421103	0.047812	1.194798
C117	C	0.950853	-0.424862	1.026410
C118	C	1.450853	0.075138	1.526410
C119	C	0.947610	-0.427833	1.099752
C120	C	1.447610	0.072167	1.599752
C121	C	1.041143	-0.342019	1.100115
C122	C	1.541143	0.157981	1.600115
C123	C	1.044390	-0.339052	1.026777
C124	C	1.544390	0.160948	1.526777
C125	C	0.999242	-0.380470	0.989928
C126	C	1.499242	0.119530	1.489928
C127	C	0.959679	-0.416779	0.879953
C128	C	1.459679	0.083221	1.379953
C129	C	1.002561	-0.377429	0.914966
C130	C	1.502561	0.122571	1.414966
H131	H	1.053972	-0.664824	0.330178
H132	H	1.553972	-0.164824	0.830178
H133	H	0.884338	-0.485909	0.664795
H134	H	1.384338	0.014091	1.164795
H135	H	1.083795	-0.996429	0.303019
H136	H	1.583795	-0.496429	0.803019
H137	H	1.041956	-0.341281	0.885255
H138	H	1.541956	0.158719	1.385255
H139	H	0.707464	-0.470228	0.469888
H140	H	1.207464	0.029772	0.969888
Cl141	Cl	0.387851	-0.521413	0.520935
Cl142	Cl	0.887851	-0.021413	1.020935
H143	H	1.077899	-0.308298	1.130125
H144	H	1.577899	0.191702	1.630125
H145	H	1.077932	-1.129489	0.308466
H146	H	1.577932	-0.629489	0.808466
H147	H	1.054046	-0.330232	0.665463
H148	H	1.554046	0.169768	1.165463
H149	H	0.920284	-0.452927	0.909669
H150	H	1.420284	0.047073	1.409669
H151	H	0.488655	-0.458110	0.457836
H152	H	0.988655	0.041890	0.957836
H153	H	1.048150	-0.335622	0.798503
H154	H	1.548150	0.164378	1.298503
Cl155	Cl	0.886770	-0.483641	1.145620
Cl156	Cl	1.386770	0.016359	1.645620
H157	H	1.048113	-0.797871	0.335631
H158	H	1.548113	-0.297871	0.835631
Cl159	Cl	0.886802	-1.145068	0.483691
Cl160	Cl	1.386802	-0.645068	0.983691
Cl161	Cl	1.105224	-0.283243	0.980913
Cl162	Cl	1.605224	0.216757	1.480913
Cl163	Cl	0.222918	-0.514066	0.513611
Cl164	Cl	0.722918	-0.014066	1.013611
H165	H	0.255336	-0.324240	0.324369
H166	H	0.755336	0.175760	0.824369
Cl167	Cl	0.556955	-0.484319	0.483953
Cl168	Cl	1.056955	0.015681	0.983953
H169	H	0.914106	-0.995847	0.458605
H170	H	1.414106	-0.495847	0.958605
Cl171	Cl	0.405844	-0.310139	0.310310
Cl172	Cl	0.905844	0.189861	0.810310
H173	H	0.920269	-0.909097	0.452900
H174	H	1.420269	-0.409097	0.952900
H175	H	1.041952	-0.884631	0.341339
H176	H	1.541952	-0.384631	0.841339
H177	H	0.721937	-0.300410	0.300591
H178	H	1.221937	0.199590	0.800591
H179	H	0.914100	-0.458598	0.996417
H180	H	1.414100	0.041402	1.496417
Cl181	Cl	0.856995	-0.813458	0.510870
Cl182	Cl	1.356995	-0.313458	1.010870
H183	H	0.884283	-0.664233	0.485768
H184	H	1.384283	-0.164233	0.985768
Cl185	Cl	0.574952	-0.273056	0.273324
Cl186	Cl	1.074952	0.226944	0.773324
Cl187	Cl	0.459725	-0.314904	0.315044
Cl188	Cl	0.959725	0.185096	0.815044
H189	H	0.878454	-0.491305	0.797848
H190	H	1.378454	0.008695	1.297848
