data_functionalizedCrystal
_audit_creation_method	'MofGen! by Chris Wilmer'
_symmetry_space_group_name_H-M	'P1'
_symmetry_Int_Tables_number	1
_symmetry_cell_setting	triclinic
loop_
_symmetry_equiv_pos_as_xyz
  x,y,z
_cell_length_a	16.959455
_cell_length_b	13.897441
_cell_length_c	16.959454
_cell_angle_alpha	89.973005
_cell_angle_beta	90.017022
_cell_angle_gamma	89.981373
loop_
_atom_site_label
_atom_site_type_symbol
_atom_site_fract_x
_atom_site_fract_y
_atom_site_fract_z
Zn1	Zn	1.208417	-0.545400	-0.314728
Zn2	Zn	1.208330	-0.384108	-0.446921
Zn3	Zn	1.076236	-0.384118	-0.314754
Zn4	Zn	1.076210	-0.545361	-0.446862
O5	O	1.142298	-0.464747	-0.380816
O6	O	1.319017	-0.524016	-0.332278
O7	O	1.190781	-0.249128	-0.429425
O8	O	1.093817	-0.405532	-0.204139
O9	O	1.318952	-0.405516	-0.429400
O10	O	1.190930	-0.524025	-0.204121
O11	O	1.093732	-0.249135	-0.332322
O12	O	0.965622	-0.405495	-0.332264
O13	O	1.093774	-0.680348	-0.429298
O14	O	0.965603	-0.523959	-0.429323
O15	O	1.190906	-0.680376	-0.332220
O16	O	1.190757	-0.405479	-0.557524
O17	O	1.093689	-0.523950	-0.557480
C18	C	0.936932	-0.464725	-0.380790
C19	C	0.849076	-0.464738	-0.380798
C20	C	0.477585	-0.403191	-0.330236
C21	C	0.477615	-0.526357	-0.431461
C22	C	0.560161	-0.526352	-0.431450
C23	C	0.601423	-0.464763	-0.380832
C24	C	0.560139	-0.403181	-0.330225
C25	C	0.601450	-0.587926	-0.482062
C26	C	0.684001	-0.587922	-0.482053
C27	C	0.725265	-0.526338	-0.431430
C28	C	0.683976	-0.464754	-0.380821
C29	C	0.725238	-0.403165	-0.330202
C30	C	0.683951	-0.341586	-0.279588
C31	C	0.601402	-0.341597	-0.279602
C32	C	0.807813	-0.526326	-0.431416
C33	C	0.807792	-0.403156	-0.330191
C34	C	1.142347	-0.716340	-0.380750
C35	C	1.142367	-0.823554	-0.380722
C36	C	1.142384	-0.910624	-0.380699
C37	C	1.142406	-1.019856	-0.380664
C38	C	1.348467	-0.464769	-0.380843
C39	C	1.436323	-0.464779	-0.380854
C40	C	1.142232	-0.464730	-0.586183
C41	C	1.142276	-0.464755	-0.674039
C42	C	1.142296	-0.214132	-0.380825
C43	C	1.142428	-0.106919	-0.380631
C44	C	1.091829	-0.526428	-1.045522
C45	C	1.192988	-0.403163	-1.045508
C46	C	1.192961	-0.403154	-0.962962
C47	C	1.142365	-0.464782	-0.921692
C48	C	1.091798	-0.526419	-0.962968
C49	C	1.243522	-0.341512	-0.921679
C50	C	1.243496	-0.341500	-0.839128
C51	C	1.192904	-0.403133	-0.797857
C52	C	1.142335	-0.464773	-0.839138
C53	C	1.091739	-0.526401	-0.797869
C54	C	1.041174	-0.588047	-0.839149
C55	C	1.041206	-0.588053	-0.921697
C56	C	1.192871	-0.403128	-0.715309
C57	C	1.091709	-0.526392	-0.715315
C58	C	1.142386	-0.464784	-0.174648
C59	C	1.142424	-0.464800	-0.086791
H60	H	0.567779	-0.291461	-0.238396
N61	N	1.244530	-0.340181	-0.673145
N62	N	1.294871	-0.374172	-0.627039
H63	H	1.331360	-0.329715	-0.597262
H64	H	0.841382	-0.353008	-0.288966
N65	N	1.295181	-0.278549	-0.963841
N66	N	1.267403	-0.217069	-1.009953
H67	H	1.303886	-0.172598	-1.039736
H68	H	0.717557	-0.291436	-0.238378
N69	N	0.850001	-0.589206	-0.483110
N70	N	0.896048	-0.555153	-0.533433
H71	H	0.925844	-0.599565	-0.569944
N72	N	0.435405	-0.340304	-0.278537
N73	N	0.361701	-0.340322	-0.278546
H74	H	0.331909	-0.295908	-0.242033
H75	H	0.444014	-0.576494	-0.472677
H76	H	0.567849	-0.638061	-0.523278
H77	H	1.284669	-0.291306	-0.805523
H78	H	0.717611	-0.638064	-0.523266
H79	H	1.050510	-0.576581	-0.681719
N80	N	0.989492	-0.650982	-0.796977
N81	N	0.989471	-0.650951	-0.723273
H82	H	0.952971	-0.695397	-0.693485
H83	H	1.000037	-0.638240	-0.955315
N84	N	1.040190	-0.589396	-1.087694
N85	N	1.040226	-0.589406	-1.161398
H86	H	1.003756	-0.633878	-1.191185
H87	H	1.234176	-0.352983	-1.079114
