data_functionalizedCrystal
_audit_creation_method	'MofGen! by Chris Wilmer'
_symmetry_space_group_name_H-M	'P1'
_symmetry_Int_Tables_number	1
_symmetry_cell_setting	triclinic
loop_
_symmetry_equiv_pos_as_xyz
  x,y,z
_cell_length_a	12.837943
_cell_length_b	15.944493
_cell_length_c	11.295483
_cell_angle_alpha	94.100278
_cell_angle_beta	85.461227
_cell_angle_gamma	89.151992
loop_
_atom_site_label
_atom_site_type_symbol
_atom_site_fract_x
_atom_site_fract_y
_atom_site_fract_z
O1	O	1.382393	0.213269	-0.098973
O2	O	1.882393	0.713269	0.401027
O3	O	1.080590	0.202482	-0.098982
O4	O	1.580590	0.702482	0.401018
O5	O	1.239765	0.086258	-0.098987
O6	O	1.739765	0.586258	0.401013
O7	O	1.223218	0.329492	-0.098968
O8	O	1.723218	0.829492	0.401032
O9	O	1.225784	0.096449	0.099064
O10	O	1.725784	0.596449	0.599064
O11	O	1.066609	0.212672	0.099070
O12	O	1.566609	0.712672	0.599070
O13	O	1.368412	0.223459	0.099078
O14	O	1.868412	0.723459	0.599078
Cu15	Cu	1.216234	0.218996	0.117158
Cu16	Cu	1.716234	0.718996	0.617158
Cu17	Cu	1.232768	0.206945	-0.117061
Cu18	Cu	1.732768	0.706945	0.382939
O19	O	1.209237	0.339683	0.099084
O20	O	1.709237	0.839683	0.599084
C21	C	1.034980	0.203933	0.000043
C22	C	1.534980	0.703933	0.500043
C23	C	0.919905	0.193065	0.000039
C24	C	1.419905	0.693065	0.500039
C25	C	1.232098	0.060004	0.000034
C26	C	1.732098	0.560004	0.500034
C27	C	1.230072	-0.033407	0.000018
C28	C	1.730072	0.466593	0.500018
C29	C	0.678920	0.323719	0.000066
C30	C	1.178920	0.823719	0.500066
C31	C	0.570796	0.313512	0.000063
C32	C	1.070796	0.813512	0.500063
C33	C	0.595531	0.162443	0.000039
C34	C	1.095531	0.662443	0.500039
C35	C	0.703655	0.172650	0.000041
C36	C	1.203655	0.672650	0.500041
C37	C	0.745345	0.253291	0.000053
C38	C	1.245345	0.753291	0.500053
C39	C	0.853471	0.263498	0.000048
C40	C	1.353471	0.763498	0.500048
C41	C	0.878203	0.112430	0.000032
C42	C	1.378203	0.612430	0.500032
C43	C	0.770080	0.102222	0.000029
C44	C	1.270080	0.602222	0.500029
C45	C	1.323764	-0.261670	0.000044
C46	C	1.823764	0.238330	0.500044
C47	C	1.280132	-0.321305	-0.097607
C48	C	1.780132	0.178695	0.402393
C49	C	1.226314	-0.204428	0.000033
C50	C	1.726314	0.295572	0.500033
C51	C	1.266325	-0.311236	0.097656
C52	C	1.766325	0.188764	0.597656
C53	C	1.222692	-0.369626	0.000052
C54	C	1.722692	0.130374	0.500052
C55	C	1.182714	-0.262836	-0.097698
C56	C	1.682714	0.237164	0.402302
C57	C	1.168916	-0.252758	0.097653
C58	C	1.668916	0.247242	0.597653
C59	C	1.125213	-0.312366	-0.000022
C60	C	1.625213	0.187634	0.499978
C61	C	1.228404	-0.109261	0.000021
C62	C	1.728404	0.390739	0.500021
C63	C	1.220595	-0.464791	0.000056
C64	C	1.720595	0.035209	0.500056
C65	C	1.414022	0.222008	0.000051
C66	C	1.914022	0.722008	0.500051
C67	C	1.529098	0.232876	0.000048
C68	C	2.029098	0.732876	0.500048
C69	C	1.216903	0.365936	0.000061
C70	C	1.716903	0.865936	0.500061
C71	C	1.218930	0.459348	0.000068
C72	C	1.718930	0.959348	0.500068
N73	N	1.204613	0.227473	0.281894
N74	N	1.704613	0.727473	0.781894
N75	N	1.244397	0.198462	-0.281798
N76	N	1.744397	0.698462	0.218202
C77	C	1.328055	0.137396	0.531180
C78	C	1.828055	0.637396	1.031180
C79	C	1.319280	0.143808	0.655844
C80	C	1.819280	0.643808	1.155844
C81	C	1.178283	0.246705	0.655888
C82	C	1.678283	0.746705	1.155888
C83	C	1.187058	0.240293	0.531225
C84	C	1.687058	0.740293	1.031225
C85	C	1.261947	0.185637	0.468874
C86	C	1.761947	0.685637	0.968874
C87	C	1.270727	0.179230	0.344208
C88	C	1.770727	0.679230	0.844208
C89	C	1.129726	0.282122	0.344255
C90	C	1.629726	0.782122	0.844255
C91	C	1.120951	0.288534	0.468919
C92	C	1.620951	0.788534	0.968919
H93	H	0.887413	0.329160	0.000060
H94	H	1.387413	0.829160	0.500060
F95	F	1.350432	0.121064	0.277853
F96	F	1.850432	0.621064	0.777853
F97	F	1.136581	-0.235029	-0.205723
F98	F	1.636581	0.264971	0.294277
H99	H	0.932300	0.055082	0.000013
H100	H	1.432300	0.555082	0.500013
H101	H	0.712865	0.389380	0.000074
H102	H	1.212865	0.889380	0.500074
H103	H	0.736119	0.036567	0.000033
H104	H	1.236119	0.536567	0.500033
H105	H	0.516716	0.370862	0.000077
H106	H	1.016716	0.870862	0.500077
H107	H	0.561560	0.096794	0.000127
H108	H	1.061560	0.596794	0.500127
F109	F	1.433488	-0.232470	-0.000078
F110	F	1.933488	0.267530	0.499922
F111	F	1.098576	0.304862	0.722259
F112	F	1.598576	0.804862	1.222259
F113	F	1.015417	-0.341372	-0.000091
F114	F	1.515417	0.158628	0.499909
F115	F	1.341539	-0.360391	-0.205511
F116	F	1.841539	0.139609	0.294489
F117	F	1.107569	-0.213633	0.205563
F118	F	1.607569	0.286367	0.705563
H119	H	1.059974	0.333031	0.519699
H120	H	1.559974	0.833031	1.019699
F121	F	1.312524	-0.339192	0.205558
F122	F	1.812524	0.160808	0.705558
H123	H	1.389039	0.092899	0.480413
H124	H	1.889039	0.592899	0.980413
F125	F	1.389638	0.092461	0.722149
F126	F	1.889638	0.592461	1.222149
H127	H	1.075900	0.321406	0.293512
H128	H	1.575900	0.821406	0.793512
