data_functionalizedCrystal
_audit_creation_method	'MofGen! by Chris Wilmer'
_symmetry_space_group_name_H-M	'P1'
_symmetry_Int_Tables_number	1
_symmetry_cell_setting	triclinic
loop_
_symmetry_equiv_pos_as_xyz
  x,y,z
_cell_length_a	16.120530
_cell_length_b	19.805405
_cell_length_c	19.805399
_cell_angle_alpha	89.970699
_cell_angle_beta	87.084478
_cell_angle_gamma	87.121765
loop_
_atom_site_label
_atom_site_type_symbol
_atom_site_fract_x
_atom_site_fract_y
_atom_site_fract_z
Zn1	Zn	1.274516	-0.322020	-0.435096
Zn2	Zn	1.607850	0.011313	-0.101763
Zn3	Zn	1.941183	0.344647	0.231570
Zn4	Zn	1.274411	-0.435204	-0.321900
Zn5	Zn	1.607745	-0.101871	0.011433
Zn6	Zn	1.941078	0.231463	0.344766
Zn7	Zn	1.135102	-0.316291	-0.316191
Zn8	Zn	1.468436	0.017042	0.017143
Zn9	Zn	1.801769	0.350375	0.350476
Zn10	Zn	1.135057	-0.429423	-0.429319
Zn11	Zn	1.468391	-0.096090	-0.095986
Zn12	Zn	1.801724	0.237243	0.237347
O13	O	1.204772	-0.375735	-0.375627
O14	O	1.538105	-0.042401	-0.042293
O15	O	1.871438	0.290932	0.291040
O16	O	1.391168	-0.341851	-0.424888
O17	O	1.724501	-0.008517	-0.091555
O18	O	2.057834	0.324816	0.241779
O19	O	1.255907	-0.419452	-0.226425
O20	O	1.589240	-0.086118	0.106908
O21	O	1.922573	0.247215	0.440241
O22	O	1.153659	-0.222337	-0.331992
O23	O	1.486992	0.110996	0.001341
O24	O	1.820325	0.444329	0.334675
O25	O	1.391091	-0.425007	-0.341723
O26	O	1.724424	-0.091673	-0.008390
O27	O	2.057757	0.241660	0.324943
O28	O	1.256085	-0.226546	-0.419351
O29	O	1.589419	0.106787	-0.086018
O30	O	1.922752	0.440121	0.247315
O31	O	1.153557	-0.332087	-0.222231
O32	O	1.486890	0.001246	0.111103
O33	O	1.820223	0.334579	0.444436
O34	O	1.018431	-0.326482	-0.326390
O35	O	1.351764	0.006851	0.006943
O36	O	1.685098	0.340185	0.340276
O37	O	1.153582	-0.415154	-0.524803
O38	O	1.486915	-0.081821	-0.191470
O39	O	1.820249	0.251513	0.141863
O40	O	1.018398	-0.409599	-0.409506
O41	O	1.351731	-0.076266	-0.076172
O42	O	1.685065	0.257067	0.257161
O43	O	1.256042	-0.336245	-0.529048
O44	O	1.589375	-0.002912	-0.195714
O45	O	1.922708	0.330421	0.137619
O46	O	1.255863	-0.529151	-0.336122
O47	O	1.589196	-0.195818	-0.002788
O48	O	1.922530	0.137516	0.330545
O49	O	1.153480	-0.524904	-0.415042
O50	O	1.486814	-0.191571	-0.081709
O51	O	1.820147	0.141763	0.251625
C52	C	0.988164	-0.366792	-0.366702
C53	C	1.321498	-0.033459	-0.033369
C54	C	1.654831	0.299874	0.299965
C55	C	0.895499	-0.362983	-0.362900
C56	C	1.228832	-0.029650	-0.029567
C57	C	1.562166	0.303684	0.303767
C58	C	1.204678	-0.551587	-0.375590
C59	C	1.538011	-0.218253	-0.042257
C60	C	1.871345	0.115080	0.291076
C61	C	1.204714	-0.626820	-0.375600
C62	C	1.538047	-0.293487	-0.042267
C63	C	1.871381	0.039846	0.291066
C64	C	1.258077	-0.664356	-0.334554
C65	C	1.591410	-0.331022	-0.001221
C66	C	1.924743	0.002311	0.332113
C67	C	1.258112	-0.735045	-0.334570
C68	C	1.591445	-0.401712	-0.001237
C69	C	1.924779	-0.068379	0.332096
C70	C	1.204780	-0.768199	-0.375630
C71	C	1.538113	-0.434865	-0.042297
C72	C	1.871447	-0.101532	0.291037
C73	C	1.151415	-0.730658	-0.416681
C74	C	1.484749	-0.397325	-0.083348
C75	C	1.818082	-0.063992	0.249986
C76	C	1.151385	-0.659970	-0.416668
C77	C	1.484718	-0.326637	-0.083334
C78	C	1.818051	0.006697	0.249999
C79	C	1.151538	-1.015737	-0.416736
C80	C	1.484872	-0.682403	-0.083403
C81	C	1.818205	-0.349070	0.249930
C82	C	1.151571	-1.086430	-0.416745
C83	C	1.484904	-0.753097	-0.083412
C84	C	1.818238	-0.419763	0.249922
C85	C	1.258266	-1.090812	-0.334639
C86	C	1.591599	-0.757479	-0.001306
C87	C	1.924932	-0.424145	0.332028
C88	C	1.258235	-1.020124	-0.334626
C89	C	1.591568	-0.686790	-0.001292
C90	C	1.924902	-0.353457	0.332041
C91	C	1.204874	-0.982590	-0.375679
C92	C	1.538207	-0.649256	-0.042346
C93	C	1.871540	-0.315923	0.290988
C94	C	1.204837	-0.905940	-0.375662
C95	C	1.538170	-0.572606	-0.042328
C96	C	1.871504	-0.239273	0.291005
C97	C	1.204812	-0.844847	-0.375644
C98	C	1.538145	-0.511514	-0.042311
C99	C	1.871479	-0.178180	0.291022
C100	C	0.725838	-0.356012	-0.355964
C101	C	1.059171	-0.022679	-0.022631
C102	C	1.392504	0.310654	0.310702
C103	C	0.684546	-0.395507	-0.395339
C104	C	1.017880	-0.062174	-0.062005
C105	C	1.351213	0.271160	0.271328
C106	C	0.590141	-0.391628	-0.391480
C107	C	0.923474	-0.058295	-0.058146
C108	C	1.256808	0.275038	0.275187
C109	C	0.820252	-0.359890	-0.359822
C110	C	1.153585	-0.026557	-0.026489
C111	C	1.486918	0.306777	0.306844
C112	C	1.422225	-0.384712	-0.384587
C113	C	1.755558	-0.051379	-0.051253
C114	C	2.088892	0.281954	0.282080
C115	C	1.514890	-0.388538	-0.388405
C116	C	1.848224	-0.055205	-0.055072
C117	C	2.181557	0.278128	0.278262
C118	C	1.204819	-0.375694	-0.552171
C119	C	1.538152	-0.042361	-0.218838
C120	C	1.871485	0.290973	0.114495
C121	C	1.204838	-0.375677	-0.627404
C122	C	1.538172	-0.042343	-0.294071
C123	C	1.871505	0.290990	0.039262
C124	C	1.204889	-0.199197	-0.375679
C125	C	1.538222	0.134137	-0.042346
C126	C	1.871555	0.467470	0.290987
C127	C	1.204938	-0.123967	-0.375702
C128	C	1.538272	0.209367	-0.042368
C129	C	1.871605	0.542700	0.290965
C130	C	1.258190	-0.334587	-0.664960
C131	C	1.591524	-0.001253	-0.331626
C132	C	1.924857	0.332080	0.001707
C133	C	1.258199	-0.334567	-0.735648
C134	C	1.591532	-0.001234	-0.402315
C135	C	1.924866	0.332099	-0.068982
C136	C	1.204859	-0.375642	-0.768781
C137	C	1.538193	-0.042309	-0.435448
C138	C	1.871526	0.291025	-0.102114
C139	C	1.151501	-0.416734	-0.731220
C140	C	1.484835	-0.083400	-0.397887
C141	C	1.818168	0.249933	-0.064554
C142	C	1.151489	-0.416749	-0.660533
C143	C	1.484822	-0.083416	-0.327199
C144	C	1.818156	0.249918	0.006134
C145	C	1.151548	-0.416672	-1.016296
C146	C	1.484882	-0.083339	-0.682962
C147	C	1.818215	0.249994	-0.349629
C148	C	1.151566	-0.416656	-1.086989
C149	C	1.484900	-0.083322	-0.753655
C150	C	1.818233	0.250011	-0.420322
C151	C	1.258258	-0.334491	-1.091412
C152	C	1.591592	-0.001158	-0.758078
C153	C	1.924925	0.332176	-0.424745
C154	C	1.258246	-0.334506	-1.020724
C155	C	1.591579	-0.001173	-0.687391
C156	C	1.924913	0.332160	-0.354057
C157	C	1.204885	-0.375595	-0.983169
C158	C	1.538219	-0.042262	-0.649836
C159	C	1.871552	0.291072	-0.316503
C160	C	1.204876	-0.375614	-0.906521
C161	C	1.538209	-0.042281	-0.573187
C162	C	1.871542	0.291052	-0.239854
C163	C	1.204873	-0.375627	-0.845429
C164	C	1.538206	-0.042293	-0.512095
C165	C	1.871539	0.291040	-0.178762
C166	C	1.204773	-0.375728	-0.199771
C167	C	1.538107	-0.042395	0.133562
C168	C	1.871440	0.290938	0.466896
C169	C	1.204915	-0.375562	-0.124545
C170	C	1.538248	-0.042228	0.208788
C171	C	1.871581	0.291105	0.542122
H172	H	1.301502	-0.637367	-0.301115
H173	H	1.634835	-0.304034	0.032218
H174	H	1.968169	0.029300	0.365551
H175	H	1.108111	-0.450140	-0.985728
H176	H	1.441444	-0.116806	-0.652394
H177	H	1.774778	0.216527	-0.319061
C178	C	1.316896	-0.983659	-0.289450
C179	C	1.650230	-0.650326	0.043883
C180	C	1.983563	-0.316992	0.377216
N181	N	1.361082	-0.956195	-0.255423
N182	N	1.694415	-0.622862	0.077910
N183	N	2.027748	-0.289528	0.411243
H184	H	1.107933	-0.629409	-0.450093
H185	H	1.441266	-0.296076	-0.116759
H186	H	1.774599	0.037258	0.216574
H187	H	0.690290	-0.319290	-0.319359
H188	H	1.023624	0.014043	0.013974
H189	H	1.356957	0.347376	0.347308
C190	C	0.732571	-0.445126	-0.444790
C191	C	1.065904	-0.111793	-0.111456
C192	C	1.399237	0.221540	0.221877
N193	N	0.768746	-0.482501	-0.482032
N194	N	1.102080	-0.149167	-0.148699
N195	N	1.435413	0.184166	0.184635
C196	C	1.316810	-0.776331	-0.289411
C197	C	1.650143	-0.442998	0.043922
C198	C	1.983476	-0.109664	0.377255
N199	N	1.361022	-0.807427	-0.255395
N200	N	1.694356	-0.474094	0.077939
N201	N	2.027689	-0.140760	0.411272
C202	C	1.092882	-0.974460	-0.461933
C203	C	1.426215	-0.641127	-0.128599
C204	C	1.759548	-0.307793	0.204734
N205	N	1.048714	-0.943369	-0.495990
N206	N	1.382048	-0.610035	-0.162657
N207	N	1.715381	-0.276702	0.170677
H208	H	1.107995	-0.757657	-0.450116
H209	H	1.441328	-0.424324	-0.116782
H210	H	1.774662	-0.090991	0.216551
C211	C	1.316869	-0.289400	-0.628521
C212	C	1.650202	0.043934	-0.295187
C213	C	1.983536	0.377267	0.038146
N214	N	1.361064	-0.255361	-0.601077
N215	N	1.694398	0.077972	-0.267743
N216	N	2.027731	0.411306	0.065590
H217	H	1.301718	-1.121381	-0.301214
H218	H	1.635051	-0.788048	0.032119
H219	H	1.968385	-0.454714	0.365453
C220	C	1.316892	-0.289366	-0.776956
C221	C	1.650225	0.043967	-0.443623
C222	C	1.983559	0.377300	-0.110290
N223	N	1.361102	-0.255319	-0.808069
N224	N	1.694436	0.078014	-0.474736
N225	N	2.027769	0.411348	-0.141402
C226	C	1.092819	-0.461909	-0.767668
C227	C	1.426152	-0.128576	-0.434335
C228	C	1.759485	0.204757	-0.101002
N229	N	1.048617	-0.495936	-0.795120
N230	N	1.381951	-0.162603	-0.461787
N231	N	1.715284	0.170730	-0.128453
C232	C	1.092903	-1.122897	-0.461920
C233	C	1.426237	-0.789564	-0.128586
C234	C	1.759570	-0.456230	0.204747
N235	N	1.048717	-1.150364	-0.495944
N236	N	1.382051	-0.817031	-0.162610
N237	N	1.715384	-0.483697	0.170723
H238	H	1.301684	-0.301061	-0.993751
H239	H	1.635017	0.032272	-0.660418
H240	H	1.968350	0.365605	-0.327085
H241	H	1.301704	-0.301032	-1.121997
H242	H	1.635038	0.032301	-0.788663
H243	H	1.968371	0.365634	-0.455330
H244	H	1.108127	-0.450105	-1.113963
H245	H	1.441460	-0.116771	-0.780629
H246	H	1.774794	0.216562	-0.447296
C247	C	1.092799	-0.461952	-0.619222
C248	C	1.426132	-0.128619	-0.285889
C249	C	1.759466	0.204714	0.047445
N250	N	1.048590	-0.496000	-0.588108
N251	N	1.381924	-0.162666	-0.254774
N252	N	1.715257	0.170667	0.078559
