data_functionalizedCrystal
_audit_creation_method	'MofGen! by Chris Wilmer'
_symmetry_space_group_name_H-M	'P1'
_symmetry_Int_Tables_number	1
_symmetry_cell_setting	triclinic
loop_
_symmetry_equiv_pos_as_xyz
  x,y,z
_cell_length_a	21.295418
_cell_length_b	12.827892
_cell_length_c	12.827885
_cell_angle_alpha	90.029976
_cell_angle_beta	89.959362
_cell_angle_gamma	89.968793
loop_
_atom_site_label
_atom_site_type_symbol
_atom_site_fract_x
_atom_site_fract_y
_atom_site_fract_z
Zn1	Zn	0.962403	0.415539	-0.591439
Zn2	Zn	1.295736	0.748872	-0.258106
Zn3	Zn	1.629069	1.082206	0.075227
Zn4	Zn	0.962339	0.590317	-0.416700
Zn5	Zn	1.295672	0.923650	-0.083366
Zn6	Zn	1.629005	1.256984	0.249967
Zn7	Zn	0.857132	0.415639	-0.416648
Zn8	Zn	1.190465	0.748972	-0.083315
Zn9	Zn	1.523798	1.082306	0.250018
Zn10	Zn	0.857123	0.590287	-0.591335
Zn11	Zn	1.190456	0.923620	-0.258002
Zn12	Zn	1.523790	1.256954	0.075332
O13	O	0.909749	0.502946	-0.504031
O14	O	1.243082	0.836279	-0.170697
O15	O	1.576416	1.169612	0.162636
O16	O	1.050484	0.438695	-0.568325
O17	O	1.383817	0.772028	-0.234992
O18	O	1.717150	1.105361	0.098342
O19	O	0.948359	0.567200	-0.270457
O20	O	1.281693	0.900533	0.062877
O21	O	1.615026	1.233867	0.396210
O22	O	0.871126	0.269390	-0.439857
O23	O	1.204460	0.602723	-0.106524
O24	O	1.537793	0.936056	0.226810
O25	O	1.050436	0.567103	-0.439944
O26	O	1.383770	0.900437	-0.106611
O27	O	1.717103	1.233770	0.226722
O28	O	0.948469	0.269316	-0.568275
O29	O	1.281802	0.602650	-0.234942
O30	O	1.615135	0.935983	0.098391
O31	O	0.871064	0.438865	-0.270419
O32	O	1.204397	0.772198	0.062914
O33	O	1.537731	1.105531	0.396248
O34	O	0.769041	0.438836	-0.439756
O35	O	1.102374	0.772169	-0.106423
O36	O	1.435708	1.105502	0.226911
O37	O	0.871112	0.567052	-0.737585
O38	O	1.204445	0.900385	-0.404252
O39	O	1.537779	1.233719	-0.070918
O40	O	0.769035	0.567149	-0.568097
O41	O	1.102368	0.900482	-0.234764
O42	O	1.435701	1.233816	0.098569
O43	O	0.948460	0.438666	-0.737662
O44	O	1.281794	0.771999	-0.404328
O45	O	1.615127	1.105332	-0.070995
O46	O	0.948351	0.736549	-0.439843
O47	O	1.281684	1.069883	-0.106510
O48	O	1.615018	1.403216	0.226823
O49	O	0.871050	0.736527	-0.568147
O50	O	1.204383	1.069861	-0.234814
O51	O	1.537716	1.403194	0.098520
C52	C	0.746197	0.503001	-0.503910
C53	C	1.079531	0.836334	-0.170577
C54	C	1.412864	1.169667	0.162756
C55	C	0.676229	0.503049	-0.503884
C56	C	1.009562	0.836383	-0.170550
C57	C	1.342896	1.169716	0.162783
C58	C	0.909710	0.774456	-0.504012
C59	C	1.243043	1.107789	-0.170679
C60	C	1.576376	1.441122	0.162654
C61	C	0.909750	0.890609	-0.504039
C62	C	1.243084	1.223942	-0.170706
C63	C	1.576417	1.557275	0.162627
C64	C	0.909792	0.502844	-0.776601
C65	C	1.243126	0.836178	-0.443268
C66	C	1.576459	1.169511	-0.109934
C67	C	0.909811	0.502801	-0.892754
C68	C	1.243144	0.836135	-0.559421
C69	C	1.576477	1.169468	-0.226088
C70	C	0.643376	0.569951	-0.570611
C71	C	0.976709	0.903284	-0.237278
C72	C	1.310042	1.236617	0.096055
C73	C	0.577633	0.569925	-0.570658
C74	C	0.910967	0.903258	-0.237325
C75	C	1.244300	1.236591	0.096009
C76	C	0.544747	0.503009	-0.503959
C77	C	0.878080	0.836342	-0.170626
C78	C	1.211413	1.169675	0.162708
C79	C	0.577608	0.436095	-0.437227
C80	C	0.910941	0.769428	-0.103893
C81	C	1.244275	1.102761	0.229440
C82	C	0.643349	0.436115	-0.437189
C83	C	0.976683	0.769448	-0.103856
C84	C	1.310016	1.102781	0.229478
N85	N	0.441472	0.494856	-0.412557
N86	N	0.774806	0.828189	-0.079224
N87	N	1.108139	1.161523	0.254109
N88	N	0.379021	0.494843	-0.412596
N89	N	0.712354	0.828176	-0.079263
N90	N	1.045688	1.161509	0.254071
C91	C	0.346672	0.502942	-0.504070
C92	C	0.680005	0.836275	-0.170736
C93	C	1.013339	1.169609	0.162597
N94	N	0.379134	0.511075	-0.595505
N95	N	0.712467	0.844409	-0.262172
N96	N	1.045800	1.177742	0.071161
N97	N	0.441591	0.511094	-0.595465
N98	N	0.774924	0.844427	-0.262132
N99	N	1.108258	1.177761	0.071201
C100	C	0.473461	0.502979	-0.503993
C101	C	0.806795	0.836312	-0.170659
C102	C	1.140128	1.169646	0.162674
C103	C	0.242533	0.569819	-0.570854
C104	C	0.575866	0.903152	-0.237520
C105	C	0.909200	1.236486	0.095813
C106	C	0.176789	0.569786	-0.570902
C107	C	0.510123	0.903119	-0.237569
C108	C	0.843456	1.236453	0.095764
C109	C	0.176765	0.435961	-0.437462
C110	C	0.510099	0.769294	-0.104128
C111	C	0.843432	1.102628	0.229205
C112	C	0.242508	0.435989	-0.437422
C113	C	0.575841	0.769322	-0.104089
C114	C	0.909175	1.102655	0.229244
C115	C	0.275388	0.502923	-0.504117
C116	C	0.608721	0.836257	-0.170784
C117	C	0.942054	1.169590	0.162550
C118	C	1.073939	0.502891	-0.504152
C119	C	1.407273	0.836224	-0.170819
C120	C	1.740606	1.169558	0.162515
C121	C	1.143907	0.502868	-0.504204
C122	C	1.477241	0.836201	-0.170870
C123	C	1.810574	1.169535	0.162463
C124	C	0.909806	0.230375	-0.504072
C125	C	1.243139	0.563709	-0.170739
C126	C	1.576472	0.897042	0.162595
C127	C	0.909830	0.114222	-0.504090
C128	C	1.243163	0.447556	-0.170756
C129	C	1.576496	0.780889	0.162577
C130	C	0.948047	0.942370	-0.440621
C131	C	1.281380	1.275703	-0.107288
C132	C	1.614714	1.609036	0.226046
C133	C	0.948090	1.062420	-0.440647
C134	C	1.281423	1.395753	-0.107314
C135	C	1.614757	1.729087	0.226019
C136	C	0.948108	0.439216	-1.064621
C137	C	1.281441	0.772549	-0.731288
C138	C	1.614774	1.105883	-0.397955
C139	C	0.948089	0.439259	-0.944571
C140	C	1.281423	0.772592	-0.611238
C141	C	1.614756	1.105926	-0.277904
C142	C	0.909742	0.502971	-0.232521
C143	C	1.243075	0.836304	0.100813
C144	C	1.576409	1.169638	0.434146
C145	C	0.909845	0.502720	-0.116368
C146	C	1.243179	0.836053	0.216965
C147	C	1.576512	1.169386	0.550299
H148	H	0.670142	0.624452	-0.624921
H149	H	1.003476	0.957786	-0.291587
H150	H	1.336809	1.291119	0.041746
H151	H	0.877077	0.557123	-1.071794
H152	H	1.210410	0.890457	-0.738460
H153	H	1.543743	1.223790	-0.405127
H154	H	0.980844	0.384886	-0.900070
H155	H	1.314178	0.718220	-0.566736
H156	H	1.647511	1.051553	-0.233403
H157	H	0.550828	0.381609	-0.382922
H158	H	0.884161	0.714943	-0.049588
H159	H	1.217494	1.048276	0.283745
H160	H	0.877038	1.069717	-0.558384
H161	H	1.210372	1.403050	-0.225050
H162	H	1.543705	1.736383	0.108283
H163	H	0.876998	0.935171	-0.558358
H164	H	1.210331	1.268504	-0.225024
H165	H	1.543664	1.601837	0.108309
H166	H	0.670098	0.381633	-0.382851
H167	H	1.003431	0.714966	-0.049518
H168	H	1.336765	1.048299	0.283815
H169	H	0.980875	1.106933	-0.386350
H170	H	1.314209	1.440267	-0.053017
H171	H	1.647542	1.773600	0.280317
H172	H	0.269305	0.624316	-0.625166
H173	H	0.602639	0.957649	-0.291833
H174	H	0.935972	1.290982	0.041501
H175	H	0.980881	0.384820	-1.109196
H176	H	1.314215	0.718153	-0.775862
H177	H	1.647548	1.051487	-0.442529
H178	H	0.550879	0.624403	-0.625000
H179	H	0.884212	0.957737	-0.291666
H180	H	1.217545	1.291070	0.041667
H181	H	0.877047	0.557165	-0.937249
H182	H	1.210381	0.890498	-0.603915
H183	H	1.543714	1.223832	-0.270582
H184	H	0.150041	0.624263	-0.625247
H185	H	0.483375	0.957596	-0.291913
H186	H	0.816708	1.290930	0.041420
H187	H	0.980805	0.897810	-0.386310
H188	H	1.314138	1.231143	-0.052976
H189	H	1.647472	1.564477	0.280357
H190	H	0.269257	0.381516	-0.383080
H191	H	0.602591	0.714849	-0.049747
H192	H	0.935924	1.048182	0.283587
H193	H	0.149990	0.381472	-0.383159
H194	H	0.483323	0.714805	-0.049825
H195	H	0.816657	1.048139	0.283508
