data_functionalizedCrystal
_audit_creation_method	'MofGen! by Chris Wilmer'
_symmetry_space_group_name_H-M	'P1'
_symmetry_Int_Tables_number	1
_symmetry_cell_setting	triclinic
loop_
_symmetry_equiv_pos_as_xyz
  x,y,z
_cell_length_a	8.597213
_cell_length_b	8.559649
_cell_length_c	16.053802
_cell_angle_alpha	92.204030
_cell_angle_beta	79.682976
_cell_angle_gamma	77.624681
loop_
_atom_site_label
_atom_site_type_symbol
_atom_site_fract_x
_atom_site_fract_y
_atom_site_fract_z
O1	O	2.077162	0.217205	-0.218840
O2	O	1.614463	0.238635	-0.185559
O3	O	1.886576	-0.004329	-0.205131
O4	O	1.805048	0.460169	-0.199268
O5	O	1.871605	0.008989	-0.065195
O6	O	1.599492	0.251953	-0.045623
O7	O	2.062190	0.230523	-0.078905
Zn8	Zn	1.828464	0.243352	-0.040046
Zn9	Zn	1.848189	0.225806	-0.224417
O10	O	1.790077	0.473487	-0.059332
C11	C	1.548291	0.243735	-0.111369
C12	C	1.373424	0.239069	-0.098791
C13	C	1.885270	-0.057147	-0.135609
C14	C	1.903661	-0.234368	-0.136936
C15	C	2.128363	0.225423	-0.153096
C16	C	2.303231	0.230088	-0.165679
C17	C	1.791384	0.526304	-0.128856
C18	C	1.772994	0.703525	-0.127534
N19	N	1.815014	0.255327	0.085782
N20	N	1.861654	0.213819	-0.350246
C21	C	1.930832	0.151983	0.121145
C22	C	1.921436	0.160374	0.209228
C23	C	1.796228	0.272119	0.261945
C24	C	1.680399	0.375467	0.226576
C25	C	1.689789	0.367067	0.138496
C26	C	1.755215	0.308767	0.526305
C27	C	1.745836	0.317163	0.614390
C28	C	1.986873	0.102067	0.597036
C29	C	1.996257	0.093683	0.508954
C30	C	1.880424	0.197026	0.473594
N31	N	1.786624	0.280702	0.351980
N32	N	1.890022	0.188433	0.383561
H33	H	1.376910	0.225982	-0.232564
H34	H	2.032795	0.060995	0.078228
N35	N	1.275725	0.243994	-0.010254
H36	H	1.182200	0.341096	-0.000098
H37	H	1.232367	0.143458	-0.004136
H38	H	2.029608	-0.316784	-0.145989
H39	H	1.660901	0.392916	0.497521
N40	N	1.606163	-0.187330	-0.115522
H41	H	1.616230	-0.071955	-0.116247
H42	H	1.550864	-0.213520	-0.163017
N43	N	2.046400	0.048966	0.247368
H44	H	2.127165	-0.023071	0.200605
H45	H	2.104829	0.114270	0.279401
N46	N	2.131305	-0.026840	0.452097
H47	H	2.203251	-0.091038	0.487866
H48	H	2.083338	-0.101448	0.419293
N49	N	1.564878	0.478542	0.100352
H50	H	1.589822	0.456262	0.036554
H51	H	1.453500	0.460533	0.123657
H52	H	2.081178	0.017928	0.625836
H53	H	1.643871	0.408165	0.657310
N54	N	1.545341	0.495983	0.283431
H55	H	1.556966	0.485628	0.344597
H56	H	1.551463	0.607919	0.267702
