data_functionalizedCrystal
_audit_creation_method	'MofGen! by Chris Wilmer'
_symmetry_space_group_name_H-M	'P1'
_symmetry_Int_Tables_number	1
_symmetry_cell_setting	triclinic
loop_
_symmetry_equiv_pos_as_xyz
  x,y,z
_cell_length_a	16.109301
_cell_length_b	12.811415
_cell_length_c	11.295657
_cell_angle_alpha	89.157329
_cell_angle_beta	94.592320
_cell_angle_gamma	83.754001
loop_
_atom_site_label
_atom_site_type_symbol
_atom_site_fract_x
_atom_site_fract_y
_atom_site_fract_z
O1	O	1.097918	0.127731	-0.112738
O2	O	0.855825	0.144405	-0.114557
O3	O	0.983790	-0.015683	-0.097255
O4	O	0.969953	0.287818	-0.130040
O5	O	0.993741	-0.003156	0.099437
O6	O	0.865777	0.156931	0.082135
O7	O	1.107869	0.140258	0.083954
Cu8	Cu	0.987732	0.149738	0.101004
Cu9	Cu	0.975963	0.134924	-0.131607
O10	O	0.979905	0.300345	0.066652
C11	C	0.829827	0.149992	-0.016140
C12	C	0.737535	0.147967	-0.015929
C13	C	0.988295	-0.048256	0.005284
C14	C	0.986884	-0.163978	0.017776
C15	C	0.515104	0.238252	-0.025668
C16	C	0.428387	0.236342	-0.025454
C17	C	0.448597	0.046403	-0.004941
C18	C	0.535313	0.048315	-0.005147
C19	C	0.568563	0.144242	-0.015516
C20	C	0.395131	0.140420	-0.015097
C21	C	0.301109	0.138348	-0.014865
C22	C	0.662591	0.146315	-0.015746
C23	C	0.973368	-0.395078	-0.173208
C24	C	0.972042	-0.503809	-0.161475
C25	C	0.982901	-0.490172	0.052972
C26	C	0.984227	-0.381441	0.041240
C27	C	0.979461	-0.333898	-0.071854
C28	C	0.980793	-0.225166	-0.083585
C29	C	0.991646	-0.211530	0.130861
C30	C	0.990320	-0.320262	0.142593
C31	C	1.133867	0.134670	-0.014465
C32	C	1.226159	0.136695	-0.014684
C33	C	0.975399	0.332918	-0.035889
C34	C	0.976810	0.448639	-0.048389
N35	N	0.996015	0.160157	0.264611
N36	N	0.967686	0.124497	-0.295213
C37	C	0.907970	0.049438	0.525906
C38	C	0.914249	0.057318	0.649715
C39	C	1.014846	0.183802	0.636040
C40	C	1.008567	0.175922	0.512231
C41	C	0.955129	0.108737	0.457169
C42	C	0.948855	0.100852	0.333358
C43	C	1.049447	0.227341	0.319685
C44	C	1.055726	0.235221	0.443494
H45	H	0.542173	0.316363	-0.034103
Br46	Br	0.974332	-0.160644	-0.237066
Br47	Br	0.966918	-0.330552	-0.326685
Br48	Br	0.989337	-0.554709	0.206442
Br49	Br	0.355838	0.363933	-0.039225
Br50	Br	0.607872	-0.079279	0.008646
H51	H	0.994196	-0.358986	0.234671
Br52	Br	0.963767	-0.586836	-0.299033
H53	H	0.996610	-0.161706	0.213391
Br54	Br	0.835473	-0.041769	0.451176
Br55	Br	0.876341	0.009663	0.258631
Br56	Br	1.113461	0.307812	0.226393
H57	H	0.875846	0.009032	0.705677
H58	H	1.058350	0.238506	0.680894
H59	H	1.099232	0.289925	0.488342
H60	H	0.421514	-0.031698	0.003509
