data_functionalizedCrystal
_audit_creation_method	'MofGen! by Chris Wilmer'
_symmetry_space_group_name_H-M	'P1'
_symmetry_Int_Tables_number	1
_symmetry_cell_setting	triclinic
loop_
_symmetry_equiv_pos_as_xyz
  x,y,z
_cell_length_a	14.519731
_cell_length_b	14.519709
_cell_length_c	11.804365
_cell_angle_alpha	101.851959
_cell_angle_beta	78.128556
_cell_angle_gamma	83.684499
loop_
_atom_site_label
_atom_site_type_symbol
_atom_site_fract_x
_atom_site_fract_y
_atom_site_fract_z
O1	O	1.242457	0.102395	-0.099032
O2	O	0.973983	0.116611	-0.099034
O3	O	1.115336	-0.024733	-0.099022
O4	O	1.101104	0.243739	-0.099043
O5	O	1.078123	0.012440	0.099031
O6	O	0.936770	0.153784	0.099019
O7	O	1.205244	0.139568	0.099021
Cu8	Cu	1.067609	0.150070	0.117104
Cu9	Cu	1.111618	0.106109	-0.117116
O10	O	1.063891	0.280912	0.099009
C11	C	0.921017	0.134531	-0.000007
C12	C	0.818637	0.132535	-0.000008
C13	C	1.096066	-0.040506	0.000005
C14	C	1.094078	-0.142888	0.000005
C15	C	0.735494	0.130912	-0.000013
C16	C	0.631185	0.128886	-0.000013
C17	C	0.548046	0.127277	-0.000013
C18	C	0.443731	0.125250	-0.000015
C19	C	1.086764	-0.517790	-0.000026
C20	C	1.088795	-0.413480	-0.000017
C21	C	1.090420	-0.330342	-0.000009
C22	C	1.092452	-0.226026	-0.000002
C23	C	1.258210	0.121647	-0.000008
C24	C	1.360592	0.123642	-0.000015
C25	C	1.083161	0.296685	-0.000020
C26	C	1.085151	0.399064	-0.000028
N27	N	1.036662	0.180989	0.281842
N28	N	1.142571	0.075182	-0.281854
C29	C	1.216885	0.000916	0.655806
C30	C	1.240295	-0.022479	0.531146
C31	C	1.189389	0.028386	0.468814
C32	C	1.115069	0.102650	0.531154
C33	C	1.091662	0.126051	0.655826
C34	C	1.064165	0.153522	0.468834
C35	C	0.989845	0.227785	0.531174
C36	C	0.966441	0.251183	0.655833
C37	C	1.017348	0.200318	0.718166
C38	C	1.087572	0.130120	0.344162
C39	C	0.962349	0.255256	0.344182
C40	C	0.938939	0.278650	0.468842
H41	H	1.148084	0.069655	0.293416
H42	H	1.258332	-0.040487	0.706565
H43	H	0.998285	0.219363	0.819674
H44	H	0.920897	0.296677	0.293432
H45	H	1.208453	0.009335	0.367310
H46	H	0.878426	0.339118	0.519614
H47	H	1.300807	-0.082942	0.480394
H48	H	0.905933	0.311659	0.706591
