data_functionalizedCrystal
_audit_creation_method	'MofGen! by Chris Wilmer'
_symmetry_space_group_name_H-M	'P1'
_symmetry_Int_Tables_number	1
_symmetry_cell_setting	triclinic
loop_
_symmetry_equiv_pos_as_xyz
  x,y,z
_cell_length_a	25.639242
_cell_length_b	25.639240
_cell_length_c	12.759393
_cell_angle_alpha	89.956840
_cell_angle_beta	89.968488
_cell_angle_gamma	90.028283
loop_
_atom_site_label
_atom_site_type_symbol
_atom_site_fract_x
_atom_site_fract_y
_atom_site_fract_z
Zn1	Zn	0.799295	-0.208188	-0.594224
Zn2	Zn	1.299295	0.291812	-0.094224
Zn3	Zn	0.799213	-0.295633	-0.418505
Zn4	Zn	1.299213	0.204367	0.081495
Zn5	Zn	0.711857	-0.208206	-0.418527
Zn6	Zn	1.211857	0.291794	0.081473
Zn7	Zn	0.711825	-0.295587	-0.594110
Zn8	Zn	1.211825	0.204413	-0.094110
O9	O	0.755548	-0.251904	-0.506341
O10	O	1.255548	0.248096	-0.006341
O11	O	0.872449	-0.219799	-0.570953
O12	O	1.372449	0.280201	-0.070953
O13	O	0.787604	-0.284063	-0.271487
O14	O	1.287604	0.215937	0.228513
O15	O	0.723503	-0.135039	-0.441890
O16	O	1.223503	0.364961	0.058110
O17	O	0.872389	-0.284044	-0.441853
O18	O	1.372389	0.215956	0.058147
O19	O	0.787743	-0.135025	-0.570974
O20	O	1.287743	0.364975	-0.070974
O21	O	0.723424	-0.219831	-0.271503
O22	O	1.223424	0.280169	0.228497
O23	O	0.638688	-0.219786	-0.441780
O24	O	1.138688	0.280214	0.058220
O25	O	0.723449	-0.283967	-0.741146
O26	O	1.223449	0.216033	-0.241146
O27	O	0.638664	-0.283985	-0.570780
O28	O	1.138664	0.216015	-0.070780
O29	O	0.787713	-0.219755	-0.741230
O30	O	1.287713	0.280245	-0.241230
O31	O	0.787574	-0.368792	-0.441743
O32	O	1.287574	0.131208	0.058257
O33	O	0.723370	-0.368759	-0.570759
O34	O	1.223370	0.131241	-0.070759
C35	C	0.619705	-0.251883	-0.506270
C36	C	1.119705	0.248117	-0.006270
C37	C	0.561591	-0.251887	-0.506265
C38	C	1.061591	0.248113	-0.006265
C39	C	0.201225	-0.285388	-0.573448
C40	C	0.701225	0.214612	-0.073448
C41	C	0.146620	-0.285391	-0.573465
C42	C	0.646620	0.214609	-0.073465
O43	O	0.118381	-0.313849	-0.630526
O44	O	0.618381	0.186151	-0.130526
N45	N	0.119308	-0.251918	-0.506410
N46	N	0.619308	0.248082	-0.006410
C47	C	0.146604	-0.218436	-0.439342
C48	C	0.646604	0.281564	0.060658
O49	O	0.118359	-0.189965	-0.382309
O50	O	0.618359	0.310035	0.117691
C51	C	0.201207	-0.218431	-0.439331
C52	C	0.701207	0.281569	0.060669
C53	C	0.228516	-0.251909	-0.506383
C54	C	0.728516	0.248091	-0.006383
C55	C	0.228534	-0.318863	-0.640495
C56	C	0.728534	0.181137	-0.140495
C57	C	0.283134	-0.318860	-0.640477
C58	C	0.783134	0.181140	-0.140477
C59	C	0.310426	-0.285382	-0.573412
C60	C	0.810426	0.214618	-0.073412
C61	C	0.283117	-0.251907	-0.506365
C62	C	0.783117	0.248093	-0.006365
C63	C	0.228501	-0.184947	-0.372269
C64	C	0.728501	0.315053	0.127731
C65	C	0.283108	-0.184944	-0.372265
C66	C	0.783108	0.315056	0.127735
C67	C	0.310417	-0.218422	-0.439317
C68	C	0.810417	0.281578	0.060683
C69	C	0.365009	-0.218426	-0.439281
C70	C	0.865009	0.281574	0.060719
N71	N	0.392321	-0.251899	-0.506336
N72	N	0.892321	0.248101	-0.006336
C73	C	0.365029	-0.285377	-0.573401
C74	C	0.865029	0.214623	-0.073401
C75	C	0.031933	-0.218449	-0.439370
C76	C	0.531933	0.281551	0.060630
C77	C	-0.022669	-0.218457	-0.439375
C78	C	0.477331	0.281543	0.060625
C79	C	-0.022649	-0.285411	-0.573499
C80	C	0.477351	0.214589	-0.073499
C81	C	0.031955	-0.285406	-0.573489
C82	C	0.531955	0.214594	-0.073489
C83	C	0.059245	-0.251922	-0.506425
C84	C	0.559245	0.248078	-0.006425
C85	C	0.479694	-0.285369	-0.573357
C86	C	0.979694	0.214631	-0.073357
C87	C	0.534300	-0.285365	-0.573330
C88	C	1.034300	0.214635	-0.073330
C89	C	0.534274	-0.218409	-0.439210
C90	C	1.034274	0.281591	0.060790
C91	C	0.479674	-0.218415	-0.439233
C92	C	0.979674	0.281585	0.060767
C93	C	0.452385	-0.251897	-0.506315
C94	C	0.952385	0.248103	-0.006315
O95	O	0.393283	-0.189981	-0.382252
O96	O	0.893283	0.310019	0.117748
O97	O	0.393281	-0.313838	-0.630435
O98	O	0.893281	0.186162	-0.130435
C99	C	0.755474	-0.387746	-0.506259
C100	C	1.255474	0.112254	-0.006259
C101	C	0.755490	-0.445860	-0.506259
C102	C	1.255490	0.054140	-0.006259
C103	C	0.789014	-0.806178	-0.573677
C104	C	1.289014	-0.306178	-0.073677
C105	C	0.789030	-0.860782	-0.573698
C106	C	1.289030	-0.360782	-0.073698
O107	O	0.817445	-0.888980	-0.630934
O108	O	1.317445	-0.388980	-0.130934
N109	N	0.755620	-0.888143	-0.506443
N110	N	1.255620	-0.388143	-0.006443
C111	C	0.722189	-0.860896	-0.439170
C112	C	1.222189	-0.360896	0.060830
O113	O	0.693773	-0.889183	-0.381967
O114	O	1.193773	-0.389183	0.118033
C115	C	0.722172	-0.806293	-0.439154
C116	C	1.222172	-0.306293	0.060846
C117	C	0.755587	-0.778935	-0.506406
C118	C	1.255587	-0.278935	-0.006406
C119	C	0.822426	-0.778820	-0.640924
C120	C	1.322426	-0.278820	-0.140924
C121	C	0.822411	-0.724219	-0.640901
C122	C	1.322411	-0.224219	-0.140901
C123	C	0.788984	-0.696977	-0.573631
C124	C	1.288984	-0.196977	-0.073631
C125	C	0.755572	-0.724334	-0.506383
C126	C	1.255572	-0.224334	-0.006383
C127	C	0.688739	-0.779047	-0.371887
C128	C	1.188739	-0.279047	0.128113
C129	C	0.688724	-0.724440	-0.371878
C130	C	1.188724	-0.224440	0.128122
C131	C	0.722139	-0.697083	-0.439130
C132	C	1.222139	-0.197083	0.060870
C133	C	0.722130	-0.642491	-0.439090
C134	C	1.222130	-0.142491	0.060910
N135	N	0.755540	-0.615131	-0.506345
N136	N	1.255540	-0.115131	-0.006345
C137	C	0.788967	-0.642373	-0.573615
C138	C	1.288967	-0.142373	-0.073615
C139	C	0.722228	-0.975567	-0.439208
C140	C	1.222228	-0.475567	0.060792
C141	C	0.722248	-1.030169	-0.439217
C142	C	1.222248	-0.530169	0.060783
C143	C	0.789088	-1.030051	-0.573747
C144	C	1.289088	-0.530051	-0.073747
C145	C	0.789070	-0.975448	-0.573732
C146	C	1.289070	-0.475448	-0.073732
C147	C	0.755638	-0.948206	-0.506463
C148	C	1.255638	-0.448206	-0.006463
C149	C	0.788933	-0.527708	-0.573561
C150	C	1.288933	-0.027708	-0.073561
C151	C	0.788917	-0.473103	-0.573529
C152	C	1.288917	0.026897	-0.073529
C153	C	0.722076	-0.473226	-0.439004
C154	C	1.222076	0.026774	0.060996
C155	C	0.722094	-0.527826	-0.439031
C156	C	1.222094	-0.027826	0.060969
C157	C	0.755524	-0.555066	-0.506319
C158	C	1.255524	-0.055066	-0.006319
O159	O	0.693728	-0.614259	-0.381886
O160	O	1.193728	-0.114259	0.118114
O161	O	0.817373	-0.614080	-0.630819
O162	O	1.317373	-0.114080	-0.130819
C163	C	0.891921	-0.251925	-0.506414
C164	C	1.391921	0.248075	-0.006414
C165	C	0.950035	-0.251934	-0.506444
C166	C	1.450035	0.248066	-0.006444
C167	C	0.755587	-0.251853	-0.780375
C168	C	1.255587	0.248147	-0.280375
C169	C	0.755603	-0.251832	-0.897152
C170	C	1.255603	0.248168	-0.397152
C171	C	0.755636	-0.115531	-0.506447
C172	C	1.255636	0.384469	-0.006447
C173	C	0.755674	-0.057416	-0.506492
C174	C	1.255674	0.442584	-0.006492
C175	C	0.789068	-0.218392	-0.952059
C176	C	1.289068	0.281608	-0.452059
C177	C	0.789077	-0.218369	-1.061783
C178	C	1.289077	0.281631	-0.561783
C179	C	0.722155	-0.285232	-1.061683
C180	C	1.222155	0.214768	-0.561683
C181	C	0.722144	-0.285251	-0.951961
C182	C	1.222144	0.214749	-0.451961
C183	C	0.755539	-0.251916	-0.233374
C184	C	1.255539	0.248084	0.266626
C185	C	0.755623	-0.251790	-0.116598
C186	C	1.255623	0.248210	0.383402
H187	H	0.457482	-0.312632	-0.627984
H188	H	0.957482	0.187368	-0.127984
Cl189	Cl	0.831110	-1.064309	-0.658319
Cl190	Cl	1.331110	-0.564309	-0.158319
Cl191	Cl	0.066280	-0.327493	-0.657788
Cl192	Cl	0.566280	0.172507	-0.157788
H193	H	0.206319	-0.346125	-0.695114
H194	H	0.706319	0.153875	-0.195114
H195	H	0.695044	-1.052439	-0.384443
H196	H	1.195044	-0.552439	0.115557
Cl197	Cl	-0.056968	-0.327493	-0.657821
Cl198	Cl	0.443032	0.172507	-0.157821
H199	H	0.816311	-0.191178	-0.907436
H200	H	1.316311	0.308822	-0.407436
Cl201	Cl	0.831078	-0.941061	-0.658283
Cl202	Cl	1.331078	-0.441061	-0.158283
Cl203	Cl	0.317413	-0.142847	-0.287951
Cl204	Cl	0.817413	0.357153	0.212049
H205	H	-0.044900	-0.191201	-0.384764
H206	H	0.455100	0.308799	0.115236
Cl207	Cl	0.680068	-0.327292	-0.882929
Cl208	Cl	1.180068	0.172708	-0.382929
Cl209	Cl	0.830962	-0.561944	-0.658149
Cl210	Cl	1.330962	-0.061944	-0.158149
Cl211	Cl	0.680055	-0.438968	-0.354440
Cl212	Cl	1.180055	0.061032	0.145560
H213	H	0.695005	-0.953389	-0.384421
H214	H	1.195005	-0.453389	0.115579
Cl215	Cl	0.568594	-0.176324	-0.354905
Cl216	Cl	1.068594	0.323676	0.145095
H217	H	0.694915	-0.312442	-1.106322
H218	H	1.194915	0.187558	-0.606322
H219	H	0.556532	-0.312629	-0.627932
H220	H	1.056532	0.187371	-0.127932
Cl221	Cl	0.646726	-0.813427	-0.287340
Cl222	Cl	1.146726	-0.313427	0.212660
Cl223	Cl	0.831153	-0.176332	-1.130805
Cl224	Cl	1.331153	0.323668	-0.630805
H225	H	0.305365	-0.346121	-0.695080
H226	H	0.805365	0.153879	-0.195080
H227	H	0.206276	-0.157686	-0.317666
H228	H	0.706276	0.342314	0.182334
Cl229	Cl	0.066236	-0.176356	-0.355044
Cl230	Cl	0.566236	0.323644	0.144956
Cl231	Cl	0.830929	-0.438713	-0.658080
Cl232	Cl	1.330929	0.061287	-0.158080
Cl233	Cl	0.864417	-0.689835	-0.725460
Cl234	Cl	1.364417	-0.189835	-0.225460
Cl235	Cl	0.864453	-0.813058	-0.725508
Cl236	Cl	1.364453	-0.313058	-0.225508
Cl237	Cl	0.445341	-0.176335	-0.354921
Cl238	Cl	0.945341	0.323665	0.145079
Cl239	Cl	0.646692	-0.690197	-0.287306
Cl240	Cl	1.146692	-0.190197	0.212694
H241	H	0.694888	-0.550102	-0.384261
H242	H	1.194888	-0.050102	0.115739
