data_functionalizedCrystal
_audit_creation_method	'MofGen! by Chris Wilmer'
_symmetry_space_group_name_H-M	'P1'
_symmetry_Int_Tables_number	1
_symmetry_cell_setting	triclinic
loop_
_symmetry_equiv_pos_as_xyz
  x,y,z
_cell_length_a	17.699083
_cell_length_b	17.699104
_cell_length_c	13.448316
_cell_angle_alpha	89.992351
_cell_angle_beta	90.000153
_cell_angle_gamma	96.712734
loop_
_atom_site_label
_atom_site_type_symbol
_atom_site_fract_x
_atom_site_fract_y
_atom_site_fract_z
O1	O	-0.095788	1.004068	-0.082698
O2	O	0.404212	1.504068	0.417302
O3	O	-0.108224	0.783692	-0.082693
O4	O	0.391776	1.283692	0.417307
O5	O	0.008183	0.900106	-0.082705
O6	O	0.508183	1.400106	0.417295
O7	O	-0.212195	0.887654	-0.082686
O8	O	0.287805	1.387654	0.417314
O9	O	0.008190	0.900092	0.082678
O10	O	0.508190	1.400092	0.582678
O11	O	-0.108217	0.783677	0.082690
O12	O	0.391783	1.283677	0.582690
O13	O	-0.095781	1.004054	0.082686
O14	O	0.404219	1.504054	0.582686
Cu15	Cu	-0.101998	0.893864	0.097789
Cu16	Cu	0.398002	1.393864	0.597789
Cu17	Cu	-0.102007	0.893881	-0.097796
Cu18	Cu	0.397993	1.393881	0.402204
O19	O	-0.212188	0.887639	0.082698
O20	O	0.287812	1.387639	0.582698
C21	C	-0.107772	0.755488	-0.000001
C22	C	0.392228	1.255488	0.499999
C23	C	-0.106427	0.671471	-0.000000
C24	C	0.393573	1.171471	0.500000
C25	C	-0.167171	0.146600	-0.000005
C26	C	0.332829	0.646600	0.499995
C27	C	-0.168430	0.225543	-0.000008
C28	C	0.331570	0.725543	0.499992
C29	C	-0.100095	0.274161	-0.000014
C30	C	0.399905	0.774161	0.499986
C31	C	-0.030496	0.243831	-0.000027
C32	C	0.469504	0.743831	0.499973
C33	C	-0.029238	0.164889	-0.000032
C34	C	0.470762	0.664889	0.499968
C35	C	-0.035569	0.562197	-0.000011
C36	C	0.464431	1.062197	0.499989
C37	C	-0.036833	0.641144	-0.000004
C38	C	0.463167	1.141144	0.499996
C39	C	-0.174762	0.622852	0.000013
C40	C	0.325238	1.122852	0.500013
C41	C	-0.173503	0.543909	0.000008
C42	C	0.326497	1.043909	0.500008
C43	C	-0.103905	0.513587	-0.000010
C44	C	0.396095	1.013587	0.499990
C45	C	-0.102541	0.427987	-0.000009
C46	C	0.397459	0.927987	0.499991
C47	C	-0.101459	0.359759	-0.000008
C48	C	0.398541	0.859759	0.499992
C49	C	-0.240388	0.888093	0.000009
C50	C	0.259612	1.388093	0.500009
C51	C	-0.324406	0.889431	0.000016
C52	C	0.175594	1.389431	0.500016
C53	C	-0.373022	0.821099	0.000017
C54	C	0.126978	1.321099	0.500017
C55	C	-0.451966	0.822361	0.000005
C56	C	0.048034	1.322361	0.500005
C57	C	-0.482292	0.891957	-0.000000
C58	C	0.017708	1.391957	0.500000
C59	C	-0.433670	0.960295	-0.000005
C60	C	0.066330	1.460295	0.499995
C61	C	-0.354728	0.959032	-0.000000
C62	C	0.145272	1.459032	0.500000
C63	C	-0.752033	0.965390	-0.000025
C64	C	-0.252033	1.465390	0.499975
C65	C	-0.830981	0.966648	-0.000026
C66	C	-0.330981	1.466648	0.499974
C67	C	-0.849271	0.828719	-0.000019
C68	C	-0.349271	1.328719	0.499981
C69	C	-0.770329	0.827456	-0.000014
C70	C	-0.270329	1.327456	0.499986
C71	C	-0.721714	0.895794	-0.000024
C72	C	-0.221714	1.395794	0.499976
C73	C	-0.636115	0.894424	-0.000013
C74	C	-0.136115	1.394424	0.499987
C75	C	-0.567889	0.893327	-0.000004
C76	C	-0.067889	1.393327	0.499996
C77	C	0.036383	0.899653	-0.000018
C78	C	0.536383	1.399653	0.499982
C79	C	0.120402	0.898314	-0.000032
C80	C	0.620402	1.398314	0.499968
C81	C	-0.096233	1.032258	-0.000008
C82	C	0.403767	1.532258	0.499992
C83	C	-0.097578	1.116275	-0.000016
C84	C	0.402422	1.616275	0.499984
N85	N	-0.101992	0.893858	0.235353
N86	N	0.398008	1.393858	0.735353
N87	N	-0.102007	0.893894	-0.235361
N88	N	0.397993	1.393894	0.264639
C89	C	-0.050468	0.945422	0.287388
C90	C	0.449532	1.445422	0.787388
C91	C	-0.050467	0.945426	0.391492
C92	C	0.449533	1.445426	0.891492
C93	C	-0.101995	0.893870	0.443558
C94	C	0.398005	1.393870	0.943558
C95	C	-0.153521	0.842300	0.391516
C96	C	0.346479	1.342300	0.891516
C97	C	-0.153517	0.842293	0.287414
C98	C	0.346483	1.342293	0.787414
C99	C	-0.153526	0.842321	0.608496
C100	C	0.346474	1.342321	1.108496
C101	C	-0.153531	0.842330	0.712604
C102	C	0.346469	1.342330	1.212604
C103	C	-0.050476	0.945455	0.712573
C104	C	0.449524	1.445455	1.212573
C105	C	-0.050472	0.945447	0.608472
C106	C	0.449528	1.445447	1.108472
C107	C	-0.102000	0.893878	0.556437
C108	C	0.398000	1.393878	1.056437
H109	H	-0.348338	0.764426	0.000034
H110	H	0.151662	1.264426	0.500034
H111	H	-0.195483	0.800326	0.566132
H112	H	0.304517	1.300326	1.066132
O113	O	-0.704708	1.031700	-0.000076
O114	O	-0.204708	1.531700	0.499924
C115	C	-0.628527	1.015670	-0.000054
C116	C	-0.128527	1.515670	0.499946
H117	H	-0.625603	0.956229	-0.031357
H118	H	-0.125603	1.456229	0.468643
H119	H	-0.592687	1.059238	-0.048077
H120	H	-0.092687	1.559238	0.451923
H121	H	-0.605689	1.018580	0.079287
H122	H	-0.105689	1.518580	0.579287
H123	H	-0.008519	0.987432	0.566079
H124	H	0.491481	1.487432	1.066079
H125	H	-0.008521	0.987444	0.754946
H126	H	0.491479	1.487444	1.254946
H127	H	-0.231432	0.647550	0.000023
H128	H	0.268568	1.147550	0.500023
H129	H	-0.491546	0.766717	0.000003
H130	H	0.008454	1.266717	0.500003
O131	O	-0.203601	0.792165	0.763029
O132	O	0.296399	1.292165	1.263029
C133	C	-0.249084	0.746651	0.694782
C134	C	0.250916	1.246651	1.194782
H135	H	-0.218057	0.745859	0.620573
H136	H	0.281943	1.245859	1.120573
H137	H	-0.260682	0.686191	0.724880
H138	H	0.239318	1.186191	1.224880
H139	H	-0.305292	0.771099	0.683707
H140	H	0.194708	1.271099	1.183707
H141	H	-0.195473	0.800318	0.433914
H142	H	0.304527	1.300318	0.933914
H143	H	-0.222818	0.107020	0.000007
H144	H	0.277182	0.607020	0.500007
H145	H	-0.745642	0.770784	-0.000004
H146	H	-0.245642	1.270784	0.499996
O147	O	0.035936	0.290978	0.000096
O148	O	0.535936	0.790978	0.500096
C149	C	0.078197	0.277251	0.085754
C150	C	0.578197	0.777251	0.585754
H151	H	0.059501	0.217330	0.114310
H152	H	0.559501	0.717330	0.614310
H153	H	0.141330	0.282915	0.066480
H154	H	0.641330	0.782915	0.566480
H155	H	0.067935	0.320406	0.145737
H156	H	0.567935	0.820406	0.645737
H157	H	0.021102	0.537518	-0.000023
H158	H	0.521102	1.037518	0.499977
H159	H	0.018817	0.680728	-0.000011
H160	H	0.518817	1.180728	0.499989
O161	O	-0.896389	0.762264	0.000021
O162	O	-0.396389	1.262264	0.500021
C163	C	-0.852693	0.700568	0.000005
C164	C	-0.352693	1.200568	0.500005
H165	H	-0.793742	0.719887	0.031323
H166	H	-0.293742	1.219887	0.531323
H167	H	-0.881901	0.652694	0.048020
H168	H	-0.381901	1.152694	0.548020
H169	H	-0.847103	0.679235	-0.079336
H170	H	-0.347103	1.179235	0.420664
H171	H	-0.855669	1.023324	-0.000032
H172	H	-0.355669	1.523324	0.499968
H173	H	0.027432	0.140200	-0.000042
H174	H	0.527432	0.640200	0.499958
H175	H	-0.225100	0.250230	-0.000009
H176	H	0.274900	0.750230	0.499991
O177	O	-0.000526	0.995549	0.442153
O178	O	0.499474	1.495549	0.942153
C179	C	-0.041014	1.042171	0.502335
C180	C	0.458986	1.542171	1.002335
H181	H	-0.100274	1.011911	0.517931
H182	H	0.399726	1.511911	1.017931
H183	H	-0.009414	1.054209	0.575540
H184	H	0.490586	1.554209	1.075540
H185	H	-0.046094	1.098093	0.462202
H186	H	0.453906	1.598093	0.962202
H187	H	-0.195472	0.800303	0.245048
H188	H	0.304528	1.300303	0.745048
H189	H	-0.458367	1.016961	-0.000008
H190	H	0.041633	1.516961	0.499992
H191	H	-0.315145	1.014675	-0.000006
H192	H	0.184855	1.514675	0.499994
H193	H	-0.008512	0.987408	0.245003
H194	H	0.491488	1.487408	0.745003
O195	O	-0.239954	0.496791	-0.000031
O196	O	0.260046	0.996791	0.499969
C197	C	-0.301651	0.540486	0.000001
C198	C	0.198349	1.040486	0.500001
H199	H	-0.282332	0.599444	-0.031306
H200	H	0.217668	1.099444	0.468694
H201	H	-0.349522	0.511287	-0.048014
H202	H	0.150478	1.011287	0.451986
H203	H	-0.322989	0.546058	0.079346
H204	H	0.177011	1.046058	0.579346
