data_functionalizedCrystal
_audit_creation_method	'MofGen! by Chris Wilmer'
_symmetry_space_group_name_H-M	'P1'
_symmetry_Int_Tables_number	1
_symmetry_cell_setting	triclinic
loop_
_symmetry_equiv_pos_as_xyz
  x,y,z
_cell_length_a	15.995350
_cell_length_b	19.188930
_cell_length_c	14.472310
_cell_angle_alpha	89.993787
_cell_angle_beta	89.990621
_cell_angle_gamma	83.318578
loop_
_atom_site_label
_atom_site_type_symbol
_atom_site_fract_x
_atom_site_fract_y
_atom_site_fract_z
O1	O	1.110667	0.089991	-0.076773
O2	O	1.610667	0.589991	0.423227
O3	O	0.866851	0.101105	-0.076794
O4	O	1.366851	0.601105	0.423206
O5	O	0.995795	-0.006090	-0.076765
O6	O	1.495795	0.493910	0.423235
O7	O	0.981723	0.197186	-0.076802
O8	O	1.481723	0.697186	0.423198
O9	O	0.995762	-0.006083	0.076917
O10	O	1.495762	0.493917	0.576917
O11	O	0.866818	0.101111	0.076888
O12	O	1.366818	0.601111	0.576888
O13	O	1.110634	0.089998	0.076909
O14	O	1.610634	0.589998	0.576909
Cu15	Cu	0.988723	0.095555	0.090931
Cu16	Cu	1.488723	0.595555	0.590931
Cu17	Cu	0.988762	0.095547	-0.090816
Cu18	Cu	1.488762	0.595547	0.409184
O19	O	0.981690	0.197192	0.076880
O20	O	1.481690	0.697192	0.576880
C21	C	0.835641	0.100648	0.000045
C22	C	1.335641	0.600648	0.500045
C23	C	0.742696	0.099271	0.000038
C24	C	1.242696	0.599271	0.500038
C25	C	0.404967	0.094324	0.000058
C26	C	0.904967	0.594324	0.500058
C27	C	0.452680	0.017982	0.000415
C28	C	0.952680	0.517982	0.500415
C29	C	0.549365	0.019360	0.000062
C30	C	1.049365	0.519360	0.500062
C31	C	0.572518	0.096778	0.000049
C32	C	1.072518	0.596778	0.500049
C33	C	0.531312	0.134429	-0.087714
C34	C	1.031312	0.634429	0.412286
C35	C	0.434683	0.132511	-0.087781
C36	C	0.934683	0.632511	0.412219
C37	C	0.434301	0.134095	0.086984
C38	C	0.934301	0.634095	0.586984
C39	C	0.531246	0.134077	0.088137
C40	C	1.031246	0.634077	0.588137
C41	C	0.667211	0.098169	0.000040
C42	C	1.167211	0.598169	0.500040
C43	C	0.310274	0.092936	0.000060
C44	C	0.810274	0.592936	0.500060
C45	C	0.995323	-0.032099	0.000079
C46	C	1.495323	0.467901	0.500079
C47	C	0.993955	-0.109607	0.000087
C48	C	1.493955	0.390393	0.500087
C49	C	1.069615	-0.154338	0.000097
C50	C	1.569615	0.345662	0.500097
C51	C	1.068330	-0.227165	0.000082
C52	C	1.568330	0.272835	0.500082
C53	C	0.991380	-0.255258	0.000075
C54	C	1.491380	0.244742	0.500075
C55	C	0.915710	-0.210517	0.000059
C56	C	1.415710	0.289483	0.500059
C57	C	0.916997	-0.137691	0.000065
C58	C	1.416997	0.362309	0.500065
N59	N	0.932550	-0.363410	0.052371
N60	N	1.432550	0.136590	0.552371
N61	N	0.931332	-0.432592	0.052368
N62	N	1.431332	0.067408	0.552368
C63	C	0.987497	-0.474676	0.000056
C64	C	1.487497	0.025324	0.500056
N65	N	1.044938	-0.444967	-0.052240
N66	N	1.544938	0.055033	0.447760
N67	N	1.046158	-0.375779	-0.052233
N68	N	1.546158	0.124221	0.447767
C69	C	0.989976	-0.334224	0.000069
C70	C	1.489976	0.165776	0.500069
C71	C	1.061769	-0.598375	0.000050
C72	C	1.561769	-0.098375	0.500050
C73	C	1.060480	-0.671204	0.000029
C74	C	1.560480	-0.171204	0.500029
C75	C	0.907859	-0.654553	0.000015
C76	C	1.407859	-0.154553	0.500015
C77	C	0.909149	-0.581727	0.000027
C78	C	1.409149	-0.081727	0.500027
C79	C	0.986106	-0.553643	0.000048
C80	C	1.486106	-0.053643	0.500048
C81	C	1.141843	0.090454	0.000068
C82	C	1.641843	0.590454	0.500068
C83	C	1.234789	0.091831	0.000069
C84	C	1.734789	0.591831	0.500069
C85	C	0.982162	0.223201	0.000034
C86	C	1.482162	0.723201	0.500034
C87	C	0.983530	0.300709	0.000020
C88	C	1.483530	0.800709	0.500020
N89	N	0.988701	0.095560	0.218762
N90	N	1.488701	0.595560	0.718762
N91	N	0.988790	0.095537	-0.218647
N92	N	1.488790	0.595537	0.281353
C93	C	0.988761	0.095545	0.592853
C94	C	1.488761	0.595545	1.092853
C95	C	0.919535	0.152710	0.553672
C96	C	1.419535	0.652710	1.053672
C97	C	0.919694	0.152918	0.446584
C98	C	1.419694	0.652918	0.946584
C99	C	0.988731	0.095552	0.407262
C100	C	1.488731	0.595552	0.907262
C101	C	1.076037	0.111464	0.446103
C102	C	1.576037	0.611464	0.946103
C103	C	1.075648	0.111870	0.553224
C104	C	1.575648	0.611870	1.053224
C105	C	0.971460	0.022298	0.553394
C106	C	1.471460	0.522298	1.053394
C107	C	0.969454	0.022787	0.446266
C108	C	1.469454	0.522787	0.946266
C109	C	0.988719	0.095555	0.302374
C110	C	1.488719	0.595555	0.802374
C111	C	0.988778	0.095543	0.697741
C112	C	1.488778	0.595543	1.197741
H113	H	0.558650	0.106592	0.153064
H114	H	1.058650	0.606592	0.653064
H115	H	1.122095	-0.707624	0.000033
H116	H	1.622095	-0.207624	0.500033
H117	H	0.854789	0.143438	0.420324
H118	H	1.354789	0.643438	0.920324
N119	N	0.408661	0.102792	0.170447
N120	N	0.908661	0.602792	0.670447
N121	N	0.426476	0.127439	0.246955
N122	N	0.926476	0.627439	0.746955
H123	H	0.408370	0.105325	0.305898
H124	H	0.908370	0.605325	0.805898
N125	N	1.034784	-0.031079	0.585168
N126	N	1.534784	0.468921	1.085168
N127	N	1.080390	-0.066761	0.528282
N128	N	1.580390	0.433239	1.028282
H129	H	1.125115	-0.104455	0.550726
H130	H	1.625115	0.395545	1.050726
H131	H	0.402333	0.190382	0.087568
H132	H	0.902333	0.690382	0.587568
H133	H	0.855384	-0.101270	0.000057
H134	H	1.355384	0.398730	0.500057
N135	N	0.893328	0.003107	0.587296
N136	N	1.393328	0.503107	1.087296
N137	N	0.868932	-0.053739	0.563249
N138	N	1.368932	0.446261	1.063249
H139	H	0.813747	-0.067287	0.587191
H140	H	1.313747	0.432713	1.087191
N141	N	0.933171	0.220511	0.587425
N142	N	1.433171	0.720511	1.087425
N143	N	0.993650	0.226913	0.640210
N144	N	1.493650	0.726913	1.140210
H145	H	1.003283	0.274796	0.664050
H146	H	1.503283	0.774796	1.164050
N147	N	0.429615	-0.020268	0.079418
N148	N	0.929615	0.479732	0.579418
N149	N	0.377736	0.008284	0.136380
N150	N	0.877736	0.508284	0.636380
H151	H	0.361462	-0.018723	0.192195
H152	H	0.861462	0.481277	0.692195
N153	N	1.028612	-0.033095	0.412712
N154	N	1.528612	0.466905	0.912712
N155	N	1.003646	-0.081732	0.366620
N156	N	1.503646	0.418268	0.866620
H157	H	1.045432	-0.121200	0.342928
H158	H	1.545432	0.378800	0.842928
H159	H	0.905232	0.010711	0.420881
H160	H	1.405232	0.510711	0.920881
N161	N	0.548771	0.205779	-0.091851
N162	N	1.048771	0.705779	0.408149
N163	N	0.520918	0.244176	-0.157310
N164	N	1.020918	0.744176	0.342690
H165	H	0.533249	0.294567	-0.160232
H166	H	1.033249	0.794567	0.339768
N167	N	1.142198	0.060634	0.414136
N168	N	1.642198	0.560634	0.914136
N169	N	1.201218	0.079656	0.367370
N170	N	1.701218	0.579656	0.867370
H171	H	1.247944	0.043758	0.344791
H172	H	1.747944	0.543758	0.844791
N173	N	1.140376	-0.569684	0.000040
N174	N	1.640376	-0.069684	0.500040
N175	N	1.158133	-0.530898	-0.064737
N176	N	1.658133	-0.030898	0.435263
H177	H	1.213650	-0.510637	-0.064747
H178	H	1.713650	-0.010637	0.435253
N179	N	1.095676	0.177711	0.412418
N180	N	1.595676	0.677711	0.912418
N181	N	1.045519	0.213314	0.359818
N182	N	1.545519	0.713314	0.859818
H183	H	1.059385	0.260103	0.336028
H184	H	1.559385	0.760103	0.836028
N185	N	0.933530	0.221097	0.414390
N186	N	1.433530	0.721097	0.914390
N187	N	0.936053	0.233100	0.329603
N188	N	1.436053	0.733100	0.829603
H189	H	0.945829	0.281253	0.306865
H190	H	1.445829	0.781253	0.806865
H191	H	0.847538	-0.545305	0.000023
H192	H	1.347538	-0.045305	0.500023
H193	H	0.577889	-0.010236	0.062975
H194	H	1.077889	0.489764	0.562975
H195	H	0.546404	0.190533	0.093428
H196	H	1.046404	0.690533	0.593428
N197	N	0.567029	0.101642	-0.169662
N198	N	1.067029	0.601642	0.330338
N199	N	0.604033	0.136412	-0.226446
N200	N	1.104033	0.636412	0.273554
H201	H	0.629256	0.113258	-0.284325
H202	H	1.129256	0.613258	0.215675
N203	N	1.148229	-0.125663	0.000117
N204	N	1.648229	0.374337	0.500117
N205	N	1.215779	-0.165616	0.000124
N206	N	1.715779	0.334384	0.500124
H207	H	1.271302	-0.145364	0.000136
H208	H	1.771302	0.354636	0.500136
N209	N	0.411836	0.098063	-0.170063
N210	N	0.911836	0.598063	0.329937
N211	N	0.361938	0.129937	-0.226403
N212	N	0.861938	0.629937	0.273597
H213	H	0.345804	0.105606	-0.284515
H214	H	0.845804	0.605606	0.215485
H215	H	1.129943	-0.263592	0.000087
H216	H	1.629943	0.236408	0.500087
N217	N	1.094828	0.178883	0.584538
N218	N	1.594828	0.678883	1.084538
N219	N	1.108407	0.225027	0.527278
N220	N	1.608407	0.725027	1.027278
H221	H	1.121953	0.272357	0.549388
H222	H	1.621953	0.772357	1.049388
N223	N	0.837842	0.141045	0.586036
N224	N	1.337842	0.641045	1.086036
N225	N	0.774608	0.181441	0.562007
N226	N	1.274608	0.681441	1.062007
H227	H	0.716910	0.173206	0.584875
H228	H	1.216910	0.673206	1.084875
H229	H	0.433211	-0.012395	-0.062166
H230	H	0.933211	0.487605	0.437834
H231	H	0.853057	-0.233394	0.000052
H232	H	1.353057	0.266606	0.500052
H233	H	0.577346	-0.010441	-0.062950
H234	H	1.077346	0.489559	0.437050
H235	H	0.845205	-0.677425	0.000005
H236	H	1.345205	-0.177425	0.500005
H237	H	0.402230	0.188560	-0.091773
H238	H	0.902230	0.688560	0.408227
H239	H	1.128755	0.071875	0.579141
H240	H	1.628755	0.571875	1.079141
