data_functionalizedCrystal
_audit_creation_method	'MofGen! by Chris Wilmer'
_symmetry_space_group_name_H-M	'P1'
_symmetry_Int_Tables_number	1
_symmetry_cell_setting	triclinic
loop_
_symmetry_equiv_pos_as_xyz
  x,y,z
_cell_length_a	10.686220
_cell_length_b	10.685594
_cell_length_c	10.686551
_cell_angle_alpha	89.698963
_cell_angle_beta	89.692081
_cell_angle_gamma	98.404663
loop_
_atom_site_label
_atom_site_type_symbol
_atom_site_fract_x
_atom_site_fract_y
_atom_site_fract_z
Zn1	Zn	1.950677	-0.307351	0.587615
Zn2	Zn	1.918403	-0.535537	0.396583
Zn3	Zn	1.722528	-0.339602	0.396578
Zn4	Zn	1.725013	-0.532983	0.622150
O5	O	1.829155	-0.428869	0.500731
O6	O	2.122811	-0.325192	0.547823
O7	O	1.877873	-0.524112	0.222232
O8	O	1.765259	-0.158897	0.407465
O9	O	2.099100	-0.492840	0.407472
O10	O	1.932879	-0.135202	0.547819
O11	O	1.733964	-0.380160	0.222229
O12	O	1.546441	-0.377683	0.440952
O13	O	1.769494	-0.488487	0.791919
O14	O	1.548267	-0.519759	0.606679
O15	O	1.935289	-0.322716	0.766546
O16	O	1.880282	-0.711626	0.440959
O17	O	1.738199	-0.709749	0.606683
C18	C	1.501612	-0.451944	0.527563
C19	C	1.361487	-0.461844	0.539074
C20	C	1.806045	-0.756428	0.527593
C21	C	1.796277	-0.896548	0.539117
C22	C	2.157977	-0.405704	0.473796
C23	C	2.298102	-0.395832	0.462317
C24	C	1.856269	-0.401719	0.825704
C25	C	1.867823	-0.390149	0.964188
C26	C	1.852392	-0.100025	0.473789
C27	C	1.862294	0.040109	0.462308
C28	C	1.802226	-0.455817	0.177010
C29	C	1.790941	-0.467014	0.038478
H30	H	1.351039	-0.331745	0.387785
Br31	Br	1.992287	-0.265713	1.034757
H32	H	1.716282	-0.541676	0.996137
H33	H	1.732284	-0.949520	0.613701
H34	H	1.926294	-0.906926	0.387738
H35	H	1.308555	-0.525936	0.613594
