data_functionalizedCrystal
_audit_creation_method	'MofGen! by Chris Wilmer'
_symmetry_space_group_name_H-M	'P1'
_symmetry_Int_Tables_number	1
_symmetry_cell_setting	triclinic
loop_
_symmetry_equiv_pos_as_xyz
  x,y,z
_cell_length_a	16.625545
_cell_length_b	16.625548
_cell_length_c	16.625539
_cell_angle_alpha	90.017055
_cell_angle_beta	89.973757
_cell_angle_gamma	89.973374
loop_
_atom_site_label
_atom_site_type_symbol
_atom_site_fract_x
_atom_site_fract_y
_atom_site_fract_z
Zn1	Zn	-0.320992	-1.232635	-0.455910
Zn2	Zn	0.179008	-0.732635	0.044090
Zn3	Zn	-0.455831	-1.232539	-0.321078
Zn4	Zn	0.044169	-0.732539	0.178922
Zn5	Zn	-0.321018	-1.097805	-0.321091
Zn6	Zn	0.178982	-0.597805	0.178909
Zn7	Zn	-0.455789	-1.097760	-0.455868
Zn8	Zn	0.044211	-0.597760	0.044132
O9	O	-0.388408	-1.165185	-0.388487
O10	O	0.111592	-0.665185	0.111513
O11	O	-0.338885	-1.345455	-0.438037
O12	O	0.161115	-0.845455	0.061963
O13	O	-0.437976	-1.214645	-0.208247
O14	O	0.062024	-0.714645	0.291753
O15	O	-0.208182	-1.115750	-0.338998
O16	O	0.291818	-0.615750	0.161002
O17	O	-0.437951	-1.345384	-0.338976
O18	O	0.062049	-0.845384	0.161024
O19	O	-0.208163	-1.214809	-0.438049
O20	O	0.291837	-0.714809	0.061951
O21	O	-0.338930	-1.115657	-0.208257
O22	O	0.161070	-0.615657	0.291743
O23	O	-0.338889	-0.984967	-0.338957
O24	O	0.161111	-0.484967	0.161043
O25	O	-0.437879	-1.115673	-0.568706
O26	O	0.062121	-0.615673	-0.068706
O27	O	-0.437905	-0.984934	-0.437977
O28	O	0.062095	-0.484934	0.062023
O29	O	-0.338845	-1.214765	-0.568737
O30	O	0.161155	-0.714765	-0.068737
O31	O	-0.568658	-1.214602	-0.338935
O32	O	-0.068658	-0.714602	0.161065
O33	O	-0.568627	-1.115580	-0.437965
O34	O	-0.068627	-0.615580	0.062035
C35	C	-0.388396	-0.955694	-0.388464
C36	C	0.111604	-0.455694	0.111536
C37	C	-0.388410	-0.866073	-0.388474
C38	C	0.111590	-0.366073	0.111526
C39	C	-0.388354	-1.165225	-0.598796
C40	C	0.111646	-0.665225	-0.098796
C41	C	-0.388332	-1.165241	-0.688417
C42	C	0.111668	-0.665241	-0.188417
C43	C	-0.597898	-1.165097	-0.388461
C44	C	-0.097898	-0.665097	0.111539
C45	C	-0.687520	-1.165134	-0.388478
C46	C	-0.187520	-0.665134	0.111522
C47	C	-0.760302	-1.165165	-0.388494
C48	C	-0.260302	-0.665165	0.111506
C49	C	-0.851610	-1.165212	-0.388511
C50	C	-0.351610	-0.665212	0.111489
C51	C	-0.924387	-1.165254	-0.388522
C52	C	-0.424387	-0.665254	0.111478
C53	C	-1.015701	-1.165300	-0.388538
C54	C	-0.515701	-0.665300	0.111462
C55	C	-0.178099	-1.165295	-0.388530
C56	C	0.321901	-0.665295	0.111470
C57	C	-0.088477	-1.165342	-0.388548
C58	C	0.411523	-0.665342	0.111452
C59	C	-0.388420	-1.375494	-0.388510
C60	C	0.111580	-0.875494	0.111490
C61	C	-0.388425	-1.465115	-0.388520
C62	C	0.111575	-0.965115	0.111480
C63	C	-0.388416	-0.537897	-0.388508
C64	C	0.111584	-0.037897	0.111492
C65	C	-0.388412	-0.629206	-0.388496
C66	C	0.111588	-0.129206	0.111504
C67	C	-0.388414	-0.701982	-0.388490
C68	C	0.111586	-0.201982	0.111510
C69	C	-0.388409	-0.793297	-0.388480
C70	C	0.111591	-0.293297	0.111520
C71	C	-0.388314	-1.165255	-0.761200
C72	C	0.111686	-0.665255	-0.261200
C73	C	-0.388284	-1.165273	-0.852508
C74	C	0.111716	-0.665273	-0.352508
C75	C	-0.388255	-1.165292	-0.925285
C76	C	0.111745	-0.665292	-0.425285
C77	C	-0.388226	-1.165312	-1.016599
C78	C	0.111774	-0.665312	-0.516599
C79	C	-0.388402	-1.165192	-0.178996
C80	C	0.111598	-0.665192	0.321004
C81	C	-0.388198	-1.165331	-0.089375
C82	C	0.111802	-0.665331	0.410625
