data_functionalizedCrystal
_audit_creation_method	'MofGen! by Chris Wilmer'
_symmetry_space_group_name_H-M	'P1'
_symmetry_Int_Tables_number	1
_symmetry_cell_setting	triclinic
loop_
_symmetry_equiv_pos_as_xyz
  x,y,z
_cell_length_a	6.817900
_cell_length_b	9.170285
_cell_length_c	9.514088
_cell_angle_alpha	80.288326
_cell_angle_beta	118.843545
_cell_angle_gamma	112.460155
loop_
_atom_site_label
_atom_site_type_symbol
_atom_site_fract_x
_atom_site_fract_y
_atom_site_fract_z
V1	V	-4.242798	-0.218426	-0.469790
V2	V	-3.742798	0.281574	0.030210
O3	O	-4.200475	0.007653	-0.492295
O4	O	-3.700475	0.507653	0.007705
O5	O	-4.217577	-0.430366	-0.436331
O6	O	-3.717577	0.069634	0.063669
O7	O	-4.277331	-0.216313	-0.688481
O8	O	-3.777331	0.283687	-0.188481
O9	O	-4.140308	-0.207882	-0.238400
O10	O	-3.640308	0.292118	0.261600
V11	V	-4.712676	-0.191237	-0.445788
V12	V	-4.212676	0.308763	0.054212
O13	O	-4.533987	-0.278067	-0.522440
O14	O	-4.033987	0.221933	-0.022440
O15	O	-4.871684	-0.131595	-0.393138
O16	O	-4.371684	0.368405	0.106862
O17	O	-4.514690	0.020704	-0.479247
O18	O	-4.014690	0.520704	0.020753
O19	O	-4.872396	-0.417315	-0.423283
O20	O	-4.372396	0.082685	0.076717
O21	O	-4.932563	-0.201780	-0.677178
O22	O	-4.432563	0.298220	-0.177178
O23	O	-4.454936	-0.193349	-0.227098
O24	O	-3.954936	0.306651	0.272902
C25	C	-4.065534	-0.481994	-0.421116
C26	C	-3.565534	0.018006	0.078884
C27	C	-4.126753	-0.655266	-0.395217
C28	C	-3.626753	-0.155266	0.104783
C29	C	-4.141753	-0.208946	-0.742756
C30	C	-3.641753	0.291054	-0.242756
C31	C	-4.251424	-0.208622	-0.921338
C32	C	-3.751424	0.291378	-0.421338
C33	C	-4.330075	0.072324	-0.494457
C34	C	-3.830075	0.572324	0.005543
C35	C	-4.248098	0.245594	-0.520366
C36	C	-3.748098	0.745594	-0.020366
C37	C	-4.253853	-0.200721	-0.172814
C38	C	-3.753853	0.299279	0.327186
C39	C	-4.123419	-0.201038	0.005769
C40	C	-3.623419	0.298962	0.505769
H41	H	-4.069752	-0.702961	-0.268287
H42	H	-3.569752	-0.202961	0.231713
H43	H	-4.305072	-0.706717	-0.647287
H44	H	-3.805072	-0.206717	-0.147287
O45	O	-3.867097	-0.192737	-0.895945
O46	O	-3.367097	0.307263	-0.395945
H47	H	-3.818278	-0.194281	-0.766399
H48	H	-3.318278	0.305719	-0.266399
H49	H	-4.444933	-0.214870	-0.995559
H50	H	-3.944933	0.285130	-0.495559
