data_functionalizedCrystal
_audit_creation_method	'MofGen! by Chris Wilmer'
_symmetry_space_group_name_H-M	'P1'
_symmetry_Int_Tables_number	1
_symmetry_cell_setting	triclinic
loop_
_symmetry_equiv_pos_as_xyz
  x,y,z
_cell_length_a	14.519709
_cell_length_b	14.519731
_cell_length_c	12.996460
_cell_angle_alpha	90.005673
_cell_angle_beta	90.007090
_cell_angle_gamma	83.684499
loop_
_atom_site_label
_atom_site_type_symbol
_atom_site_fract_x
_atom_site_fract_y
_atom_site_fract_z
O1	O	0.120986	1.223857	0.085571
O2	O	0.135203	0.955382	0.085573
O3	O	-0.006143	1.096738	0.085563
O4	O	0.262332	1.082501	0.085582
O5	O	-0.006151	1.096723	-0.085571
O6	O	0.135195	0.955368	-0.085561
O7	O	0.120979	1.223842	-0.085563
Cu8	Cu	0.128086	1.089603	-0.101187
Cu9	Cu	0.128095	1.089621	0.101198
O10	O	0.262325	1.082487	-0.085552
C11	C	0.134532	0.921016	0.000006
C12	C	0.132536	0.818635	0.000007
C13	C	0.130915	0.735491	0.000011
C14	C	0.128888	0.631182	0.000011
C15	C	0.127280	0.548043	0.000011
C16	C	0.125253	0.443728	0.000013
C17	C	-0.040507	1.096067	-0.000004
C18	C	-0.142889	1.094079	-0.000005
C19	C	-0.517785	1.086759	0.000022
C20	C	-0.413477	1.088792	0.000014
C21	C	-0.330340	1.090419	0.000008
C22	C	-0.226025	1.092452	0.000002
C23	C	0.296688	1.083157	0.000017
C24	C	0.399070	1.085146	0.000024
C25	C	0.121649	1.258209	0.000007
C26	C	0.123645	1.360589	0.000013
N27	N	0.128079	1.089598	-0.243535
C28	C	0.128096	1.089620	-0.663349
C29	C	0.128094	1.089611	-0.546544
C30	C	0.128088	1.089609	-0.453445
C31	C	0.128085	1.089600	-0.336633
N32	N	0.128095	1.089634	0.243545
