data_functionalizedCrystal
_audit_creation_method	'MofGen! by Chris Wilmer'
_symmetry_space_group_name_H-M	'P1'
_symmetry_Int_Tables_number	1
_symmetry_cell_setting	triclinic
loop_
_symmetry_equiv_pos_as_xyz
  x,y,z
_cell_length_a	16.109304
_cell_length_b	16.109301
_cell_length_c	17.666332
_cell_angle_alpha	89.993011
_cell_angle_beta	89.996336
_cell_angle_gamma	83.462111
loop_
_atom_site_label
_atom_site_type_symbol
_atom_site_fract_x
_atom_site_fract_y
_atom_site_fract_z
O1	O	-0.106869	-1.103139	0.062902
O2	O	0.393131	-0.603139	0.562902
O3	O	-0.120168	-0.861077	0.062912
O4	O	0.379832	-0.361077	0.562912
O5	O	0.007512	-0.988756	0.062907
O6	O	0.507512	-0.488756	0.562907
O7	O	-0.234550	-0.975459	0.062907
O8	O	0.265450	-0.475459	0.562907
O9	O	0.007519	-0.988734	-0.062990
O10	O	0.507519	-0.488734	0.437010
O11	O	-0.120162	-0.861054	-0.062985
O12	O	0.379838	-0.361054	0.437015
O13	O	-0.106863	-1.103116	-0.062995
O14	O	0.393137	-0.603116	0.437005
Cu15	Cu	-0.113512	-0.982083	-0.074485
Cu16	Cu	0.386488	-0.482083	0.425515
Cu17	Cu	-0.113520	-0.982110	0.074402
Cu18	Cu	0.386480	-0.482110	0.574402
O19	O	-0.234543	-0.975437	-0.062990
O20	O	0.265457	-0.475437	0.437010
C21	C	-0.119626	-0.830091	-0.000035
C22	C	0.380374	-0.330091	0.499965
C23	C	-0.118011	-0.737795	-0.000031
C24	C	0.381989	-0.237795	0.499969
C25	C	0.038490	-0.988206	-0.000040
C26	C	0.538490	-0.488206	0.499960
C27	C	0.130785	-0.986590	-0.000034
C28	C	0.630785	-0.486590	0.499966
C29	C	-0.107405	-1.134102	-0.000046
C30	C	0.392595	-0.634102	0.499954
C31	C	-0.109020	-1.226398	-0.000045
C32	C	0.390980	-0.726398	0.499955
C33	C	-0.265521	-0.975987	-0.000042
C34	C	0.234479	-0.475987	0.499958
C35	C	-0.357816	-0.977603	-0.000042
C36	C	0.142184	-0.477603	0.499958
C37	C	0.343119	-0.982868	0.068589
C38	C	0.843119	-0.482868	0.568589
C39	C	0.429839	-0.981342	0.068589
C40	C	0.929839	-0.481342	0.568589
C41	C	0.429844	-0.981322	-0.068671
C42	C	0.929844	-0.481322	0.431329
C43	C	0.343124	-0.982842	-0.068669
C44	C	0.843124	-0.482842	0.431331
C45	C	0.299765	-0.983620	-0.000037
C46	C	0.799765	-0.483620	0.499963
C47	C	0.473204	-0.980573	-0.000039
C48	C	0.973204	-0.480573	0.499961
C49	C	0.567230	-0.978919	-0.000040
C50	C	1.067230	-0.478919	0.499960
C51	C	0.205733	-0.985273	-0.000036
C52	C	0.705733	-0.485273	0.499964
C53	C	-0.188494	-0.428798	-0.000044
C54	C	0.311506	0.071202	0.499956
C55	C	-0.190020	-0.515518	-0.000040
C56	C	0.309980	-0.015518	0.499960
C57	C	-0.038531	-0.535390	-0.000030
C58	C	0.461469	-0.035390	0.499970
C59	C	-0.037007	-0.448671	-0.000029
C60	C	0.462993	0.051329	0.499971
C61	C	-0.111991	-0.395377	-0.000040
C62	C	0.388009	0.104623	0.499960
C63	C	-0.115040	-0.568816	-0.000036
C64	C	0.384960	-0.068816	0.499964
C65	C	-0.116694	-0.662842	-0.000032
C66	C	0.383306	-0.162842	0.499968
C67	C	-0.110338	-0.301345	-0.000043
C68	C	0.389662	0.198655	0.499957
N69	N	-0.113505	-0.982071	-0.179205
N70	N	0.386495	-0.482071	0.320795
C71	C	-0.056996	-1.038625	-0.218816
C72	C	0.443004	-0.538625	0.281184
C73	C	-0.056992	-1.038630	-0.298064
C74	C	0.443008	-0.538630	0.201936
C75	C	-0.113512	-0.982088	-0.337697
C76	C	0.386488	-0.482088	0.162303
C77	C	-0.170025	-0.925523	-0.298075
C78	C	0.329975	-0.425523	0.201925
C79	C	-0.170022	-0.925514	-0.218829
C80	C	0.329978	-0.425514	0.281171
N81	N	-0.187081	-0.971486	-0.462115
N82	N	0.312919	-0.471486	0.037885
N83	N	-0.187081	-0.971499	-0.537396
N84	N	0.312919	-0.471499	-0.037396
C85	C	-0.113523	-0.982110	-0.576461
C86	C	0.386477	-0.482110	-0.076461
N87	N	-0.039962	-0.992724	-0.537402
N88	N	0.460038	-0.492724	-0.037402
N89	N	-0.039963	-0.992714	-0.462114
N90	N	0.460037	-0.492714	0.037886
C91	C	-0.113521	-0.982091	-0.423626
C92	C	0.386479	-0.482091	0.076374
C93	C	-0.057005	-1.038673	-0.702002
C94	C	0.442995	-0.538673	-0.202002
C95	C	-0.057000	-1.038672	-0.781251
C96	C	0.443000	-0.538672	-0.281251
C97	C	-0.170040	-0.925569	-0.781261
C98	C	0.329960	-0.425569	-0.281261
C99	C	-0.170038	-0.925566	-0.702013
C100	C	0.329962	-0.425566	-0.202013
C101	C	-0.113521	-0.982122	-0.662389
C102	C	0.386479	-0.482122	-0.162389
N103	N	-0.113519	-0.982129	0.179122
N104	N	0.386481	-0.482129	0.679122
H105	H	0.307818	-0.983499	0.124474
H106	H	0.807818	-0.483499	0.624474
H107	H	-0.010979	-1.084723	-0.813504
H108	H	0.489021	-0.584723	-0.313504
C109	C	0.477538	-0.980473	-0.144162
C110	C	0.977538	-0.480473	0.355838
H111	H	0.439294	-0.981129	-0.185033
H112	H	0.939294	-0.481129	0.314967
H113	H	0.517722	-1.028333	-0.147018
H114	H	1.017722	-0.528333	0.352982
H115	H	0.505012	-0.931418	-0.147013
H116	H	1.005012	-0.431418	0.352987
H117	H	0.307824	-0.983449	-0.124557
H118	H	0.807824	-0.483449	0.375443
H119	H	0.025296	-0.421460	-0.000022
H120	H	0.525296	0.078540	0.499978
C121	C	-0.232211	-0.863373	-0.824847
C122	C	0.267789	-0.363373	-0.324847
H123	H	-0.224123	-0.871480	-0.877717
H124	H	0.275877	-0.371480	-0.377717
H125	H	-0.223165	-0.807890	-0.811871
H126	H	0.276835	-0.307890	-0.311871
H127	H	-0.287705	-0.872390	-0.811853
H128	H	0.212295	-0.372390	-0.311853
C129	C	0.005165	-1.100844	-0.341650
C130	C	0.505165	-0.600844	0.158350
H131	H	-0.002930	-1.092745	-0.394521
H132	H	0.497070	-0.592745	0.105479
H133	H	-0.003886	-1.156323	-0.328651
H134	H	0.496114	-0.656323	0.171349
H135	H	0.060663	-1.091833	-0.328674
H136	H	0.560663	-0.591833	0.171326
C137	C	-0.270973	-0.370177	-0.000044
C138	C	0.229027	0.129823	0.499956
H139	H	-0.316753	-0.402505	-0.000038
H140	H	0.183247	0.097495	0.499962
H141	H	-0.273528	-0.335926	-0.043945
H142	H	0.226472	0.164074	0.456055
H143	H	-0.273527	-0.335945	0.043867
H144	H	0.226473	0.164055	0.543867
H145	H	-0.216057	-0.879517	-0.669759
H146	H	0.283943	-0.379517	-0.169759
H147	H	-0.252316	-0.542724	-0.000043
H148	H	0.247684	-0.042724	0.499957
H149	H	0.022518	-0.578792	-0.000022
H150	H	0.522518	-0.078792	0.499978
C151	C	0.005178	-1.100826	-0.175234
C152	C	0.505178	-0.600826	0.324766
H153	H	0.038839	-1.134504	-0.210180
H154	H	0.538839	-0.634504	0.289820
H155	H	-0.024736	-1.135421	-0.144306
H156	H	0.475264	-0.635421	0.355694
H157	H	0.039803	-1.070920	-0.144334
H158	H	0.539803	-0.570920	0.355666
H159	H	-0.216043	-0.879484	-0.330348
H160	H	0.283957	-0.379484	0.169652
H161	H	-0.010983	-1.084723	-0.669738
H162	H	0.489017	-0.584723	-0.169738
C163	C	0.477526	-0.980524	0.144078
C164	C	0.977526	-0.480524	0.644078
H165	H	0.439281	-0.981212	0.184950
H166	H	0.939281	-0.481212	0.684950
H167	H	0.505003	-0.931478	0.146937
H168	H	1.005003	-0.431478	0.646937
H169	H	0.517709	-1.028393	0.146925
H170	H	1.017709	-0.528393	0.646925
C171	C	-0.232191	-0.863307	-0.175254
C172	C	0.267809	-0.363307	0.324746
H173	H	-0.265855	-0.829635	-0.210205
H174	H	0.234145	-0.329635	0.289795
H175	H	-0.202273	-0.828708	-0.144346
H176	H	0.297727	-0.328708	0.355654
H177	H	-0.266812	-0.893208	-0.144336
H178	H	0.233188	-0.393208	0.355664
