data_functionalizedCrystal
_audit_creation_method	'MofGen! by Chris Wilmer'
_symmetry_space_group_name_H-M	'P1'
_symmetry_Int_Tables_number	1
_symmetry_cell_setting	triclinic
loop_
_symmetry_equiv_pos_as_xyz
  x,y,z
_cell_length_a	15.944551
_cell_length_b	19.188930
_cell_length_c	15.021413
_cell_angle_alpha	89.998889
_cell_angle_beta	89.997174
_cell_angle_gamma	83.321760
loop_
_atom_site_label
_atom_site_type_symbol
_atom_site_fract_x
_atom_site_fract_y
_atom_site_fract_z
O1	O	1.114192	0.090039	-0.073949
O2	O	0.869601	0.101141	-0.073973
O3	O	0.998955	-0.006048	-0.073943
O4	O	0.984838	0.197227	-0.073979
O5	O	0.998934	-0.006033	0.074121
O6	O	0.869580	0.101156	0.074091
O7	O	1.114171	0.090054	0.074115
Zn8	Zn	0.991873	0.095607	0.097611
Zn9	Zn	0.991900	0.095587	-0.097470
O10	O	0.984817	0.197242	0.074085
C11	C	0.838298	0.100687	0.000056
C12	C	0.745057	0.099306	0.000048
C13	C	0.530462	0.029563	0.000078
C14	C	0.469331	0.061941	-0.072931
C15	C	0.574341	0.096806	0.000059
C16	C	0.469332	0.061972	0.073048
C17	C	0.409437	0.094386	0.000074
C18	C	0.514438	0.129203	-0.073010
C19	C	0.514446	0.129225	0.073035
C20	C	0.453332	0.161652	0.000008
C21	C	0.669338	0.098198	0.000050
C22	C	0.314441	0.093000	0.000076
C23	C	0.998487	-0.032052	0.000091
C24	C	0.997115	-0.109560	0.000099
C25	C	1.073016	-0.154288	0.000111
C26	C	1.071726	-0.227115	0.000096
C27	C	0.994532	-0.255211	0.000088
C28	C	0.918622	-0.210474	0.000072
C29	C	0.919913	-0.137648	0.000077
N30	N	0.935519	-0.363364	0.050472
N31	N	0.934298	-0.432546	0.050468
C32	C	0.990637	-0.474630	0.000070
N33	N	1.048256	-0.444921	-0.050314
N34	N	1.049480	-0.375733	-0.050307
C35	C	0.993123	-0.334178	0.000082
C36	C	1.065145	-0.598326	0.000064
C37	C	1.063852	-0.671154	0.000044
C38	C	0.910745	-0.654511	0.000029
C39	C	0.912040	-0.581685	0.000040
C40	C	0.989242	-0.553597	0.000062
C41	C	1.145474	0.090507	0.000083
C42	C	1.238715	0.091889	0.000086
C43	C	0.985285	0.223247	0.000048
C44	C	0.986657	0.300755	0.000035
N45	N	0.991860	0.095621	0.230749
N46	N	0.991919	0.095568	-0.230607
C47	C	0.932038	0.145161	0.470418
C48	C	1.007887	0.158716	0.529757
C49	C	0.991882	0.095603	0.412356
C50	C	0.916053	0.082064	0.529759
C51	C	0.991896	0.095588	0.587780
C52	C	1.067770	0.109189	0.470388
C53	C	0.975885	0.032510	0.470384
C54	C	1.051789	0.046038	0.529697
C55	C	0.991872	0.095614	0.311299
C56	C	0.991914	0.095577	0.688835
H57	H	0.419965	0.217516	-0.000043
H58	H	0.534463	0.157649	0.134752
H59	H	0.449344	0.033525	0.134770
O60	O	1.148081	-0.127121	0.000087
C61	C	1.299802	-0.151317	0.000166
C62	C	1.214852	-0.182179	0.000173
H63	H	1.353809	-0.195817	0.000254
H64	H	1.304306	-0.117662	-0.061810
H65	H	1.304177	-0.117616	0.062119
H66	H	1.210419	-0.215912	-0.061739
H67	H	1.210384	-0.215794	0.062190
H68	H	1.133536	-0.263540	0.000102
H69	H	0.855769	-0.233354	0.000063
O70	O	0.871814	0.195287	0.439399
C71	C	0.820649	0.318433	0.434504
C72	C	0.888911	0.261739	0.469677
H73	H	0.834437	0.372171	0.458985
H74	H	0.820802	0.317697	0.358615
H75	H	0.756129	0.307390	0.459923
H76	H	0.953464	0.272742	0.444324
H77	H	0.888683	0.262488	0.545565
O78	O	0.846102	-0.094296	0.000110
C79	C	0.694107	-0.085473	0.000036
C80	C	0.777635	-0.134652	0.000017
H81	H	0.638730	-0.118081	-0.000059
H82	H	0.690817	-0.050981	0.062019
H83	H	0.690942	-0.050943	-0.061910
H84	H	0.780856	-0.169226	0.061920
H85	H	0.780891	-0.169097	-0.062008
H86	H	1.102459	0.004119	0.555561
O87	O	1.140208	-0.571152	0.000030
C88	C	1.291930	-0.595344	0.000080
C89	C	1.206981	-0.626208	0.000102
H90	H	1.345938	-0.639842	0.000157
H91	H	1.296422	-0.561686	-0.061896
H92	H	1.296314	-0.561644	0.062033
H93	H	1.202540	-0.659939	-0.061809
H94	H	1.202526	-0.659826	0.062120
H95	H	1.125662	-0.707571	0.000049
O96	O	0.538307	0.163051	-0.146704
C97	C	0.653510	0.202362	-0.229357
C98	C	0.626594	0.164003	-0.145874
H99	H	0.724888	0.203157	-0.228704
H100	H	0.634612	0.173885	-0.291521
H101	H	0.620937	0.258490	-0.229618
H102	H	0.659152	0.107874	-0.145526
H103	H	0.645476	0.192534	-0.083747
O104	O	0.835831	-0.681911	0.000056
C105	C	0.765986	-0.786726	-0.000027
C106	C	0.850887	-0.755786	-0.000030
H107	H	0.778129	-0.846458	-0.000115
H108	H	0.728465	-0.768361	0.061948
H109	H	0.728504	-0.768257	-0.061981
H110	H	0.888437	-0.774241	0.061882
H111	H	0.888343	-0.774148	-0.062046
O112	O	1.144230	0.123077	0.439397
C113	C	1.220520	0.200172	0.352088
C114	C	1.133886	0.184510	0.387129
H115	H	1.212184	0.249832	0.309807
H116	H	1.263927	0.207993	0.410653
H117	H	1.249583	0.154247	0.309811
H118	H	1.104750	0.230412	0.429392
H119	H	1.090538	0.176660	0.328523
O120	O	1.024068	0.222308	0.561030
C121	C	1.042851	0.293345	0.690179
C122	C	1.024550	0.221288	0.654886
H123	H	1.043229	0.292550	0.766065
H124	H	1.107029	0.305313	0.664809
H125	H	0.991779	0.335540	0.665782
H126	H	1.075569	0.179048	0.679269
H127	H	0.960347	0.209382	0.680249
H128	H	0.962318	-0.020823	0.444285
O129	O	0.839474	0.068488	0.560762
C130	C	0.689852	0.105439	0.565842
C131	C	0.776522	0.120881	0.530660
H132	H	0.638934	0.147797	0.541534
H133	H	0.675651	0.052086	0.540374
H134	H	0.690820	0.105024	0.641727
H135	H	0.775618	0.121333	0.454778
H136	H	0.790689	0.174222	0.556197
H137	H	0.564003	-0.026244	-0.000002
O138	O	0.838231	-0.538332	0.000080
C139	C	0.686237	-0.529512	0.000013
C140	C	0.769766	-0.578689	-0.000008
H141	H	0.630861	-0.562121	-0.000077
H142	H	0.682948	-0.495018	0.061995
H143	H	0.683068	-0.494983	-0.061934
H144	H	0.772990	-0.613262	0.061897
H145	H	0.773019	-0.613135	-0.062031
H146	H	0.449335	0.033494	-0.134646
