data_functionalizedCrystal
_audit_creation_method	'MofGen! by Chris Wilmer'
_symmetry_space_group_name_H-M	'P1'
_symmetry_Int_Tables_number	1
_symmetry_cell_setting	triclinic
loop_
_symmetry_equiv_pos_as_xyz
  x,y,z
_cell_length_a	10.654550
_cell_length_b	12.996460
_cell_length_c	14.519731
_cell_angle_alpha	89.998729
_cell_angle_beta	95.913108
_cell_angle_gamma	90.003002
loop_
_atom_site_label
_atom_site_type_symbol
_atom_site_fract_x
_atom_site_fract_y
_atom_site_fract_z
O1	O	1.666613	0.085493	-0.129525
O2	O	2.166613	0.585493	0.370475
O3	O	1.301017	0.085512	-0.141866
O4	O	1.801017	0.585512	0.358134
O5	O	1.493495	0.085492	-0.001508
O6	O	1.993495	0.585492	0.498492
O7	O	1.474136	0.085512	-0.269882
O8	O	1.974136	0.585512	0.230118
O9	O	1.493470	-0.085641	-0.001517
O10	O	1.993470	0.414359	0.498483
O11	O	1.300993	-0.085622	-0.141874
O12	O	1.800993	0.414378	0.358126
O13	O	1.666588	-0.085641	-0.129533
O14	O	2.166588	0.414359	0.370467
Cu15	Cu	1.483788	-0.101257	-0.135704
Cu16	Cu	1.983788	0.398743	0.364296
Cu17	Cu	1.483818	0.101128	-0.135695
Cu18	Cu	1.983818	0.601128	0.364305
O19	O	1.474111	-0.085622	-0.269890
O20	O	1.974111	0.414378	0.230110
C21	C	1.254216	-0.000053	-0.140964
C22	C	1.754216	0.499947	0.359036
C23	C	1.114798	-0.000046	-0.138253
C24	C	1.614798	0.499954	0.361747
C25	C	1.492575	-0.000075	0.032852
C26	C	1.992575	0.499925	0.532852
C27	C	1.489857	-0.000075	0.135246
C28	C	1.989857	0.499925	0.635246
C29	C	1.034527	-0.000043	-0.220893
C30	C	1.534527	0.499957	0.279107
C31	C	0.903530	-0.000061	-0.218340
C32	C	1.403530	0.499939	0.281660
C33	C	0.933090	-0.000081	-0.050500
C34	C	1.433090	0.499919	0.449500
C35	C	1.064084	-0.000070	-0.053053
C36	C	1.564084	0.499930	0.446947
C37	C	0.706756	-0.060022	-0.315673
C38	C	1.206756	0.439978	0.184327
C39	C	0.626479	-0.060002	-0.398318
C40	C	1.126479	0.439998	0.101682
C41	C	0.655942	-0.000022	-0.473235
C42	C	1.155942	0.499978	0.026765
C43	C	0.765679	0.059961	-0.465510
C44	C	1.265679	0.559961	0.034490
C45	C	0.845950	0.059950	-0.382864
C46	C	1.345950	0.559950	0.117136
C47	C	0.816488	-0.000054	-0.307951
C48	C	1.316488	0.499946	0.192049
C49	C	1.260859	0.059900	0.044274
C50	C	1.760859	0.559900	0.544274
C51	C	1.341132	0.059896	0.126921
C52	C	1.841132	0.559896	0.626921
C53	C	1.311673	-0.000077	0.201845
C54	C	1.811673	0.499923	0.701845
C55	C	1.201933	-0.060045	0.194130
C56	C	1.701933	0.439955	0.694130
C57	C	1.121660	-0.060041	0.111483
C58	C	1.621660	0.439959	0.611483
C59	C	1.151128	-0.000070	0.036558
C60	C	1.651128	0.499930	0.536558
C61	C	1.713390	-0.000074	-0.130435
C62	C	2.213390	0.499926	0.369565
C63	C	1.852808	-0.000075	-0.133146
C64	C	2.352808	0.499925	0.366854
N65	N	1.483777	-0.243605	-0.135710
N66	N	1.983777	0.256395	0.364290
C67	C	1.483783	-0.336711	-0.135713
C68	C	1.983783	0.163289	0.364287
C69	C	1.483794	-0.453516	-0.135707
C70	C	1.983794	0.046484	0.364293
C71	C	1.483810	-0.546614	-0.135697
C72	C	1.983810	-0.046614	0.364303
C73	C	1.483823	-0.663427	-0.135691
C74	C	1.983823	-0.163427	0.364309
N75	N	1.483839	0.243475	-0.135681
N76	N	1.983839	0.743475	0.364319
C77	C	1.475031	-0.000052	-0.304251
C78	C	1.975031	0.499948	0.195749
C79	C	1.477749	-0.000045	-0.406645
C80	C	1.977749	0.499955	0.093355
C81	C	1.487648	-0.000073	0.218402
C82	C	1.987648	0.499927	0.718402
C83	C	1.484889	-0.000065	0.322725
C84	C	1.984889	0.499935	0.822725
C85	C	1.482698	-0.000058	0.405875
C86	C	1.982698	0.499942	0.905875
C87	C	1.479939	-0.000052	0.510205
C88	C	1.979939	0.499948	1.010205
H89	H	1.075814	-0.000031	-0.290268
H90	H	1.575814	0.499969	0.209732
H91	H	0.935287	0.108798	-0.376571
H92	H	1.435287	0.608798	0.123429
C93	C	0.877781	-0.000045	0.041907
C94	C	1.377781	0.499955	0.541907
C95	C	0.745881	-0.000024	0.026458
C96	C	1.245881	0.499976	0.526458
C97	C	0.694891	0.000026	0.111562
C98	C	1.194891	0.500026	0.611562
H99	H	0.905183	-0.059709	0.076037
H100	H	1.405183	0.440291	0.576037
H101	H	0.905250	0.059655	0.075981
H102	H	1.405250	0.559655	0.575981
H103	H	0.718422	-0.059718	-0.007602
H104	H	1.218422	0.440282	0.492398
H105	H	0.718444	0.059636	-0.007659
H106	H	1.218444	0.559636	0.492341
H107	H	0.722361	0.059727	0.145637
H108	H	1.222361	0.559727	0.645637
H109	H	0.722302	-0.059638	0.145686
H110	H	1.222302	0.440362	0.645686
H111	H	0.605393	0.000050	0.101092
H112	H	1.105393	0.500050	0.601092
H113	H	1.377036	-0.000064	0.269144
H114	H	1.877036	0.499936	0.769144
H115	H	1.430465	0.108758	0.133209
H116	H	1.930465	0.608758	0.633209
H117	H	1.032305	-0.108876	0.105205
H118	H	1.532305	0.391124	0.605205
C119	C	0.797476	0.124981	-0.546971
C120	C	1.297476	0.624981	-0.046971
C121	C	0.703710	0.112132	-0.621010
C122	C	1.203710	0.612132	-0.121010
C123	C	0.732973	0.171998	-0.696073
C124	C	1.232973	0.671998	-0.196073
H125	H	0.801838	0.195369	-0.529314
H126	H	1.301838	0.695369	-0.029314
H127	H	0.876570	0.103902	-0.565333
H128	H	1.376570	0.603902	-0.065333
H129	H	0.624638	0.133217	-0.602649
H130	H	1.124638	0.633217	-0.102649
H131	H	0.699335	0.041757	-0.638694
H132	H	1.199335	0.541757	-0.138694
H133	H	0.812067	0.150919	-0.714436
H134	H	1.312067	0.650919	-0.214436
H135	H	0.737335	0.242382	-0.678407
H136	H	1.237335	0.742382	-0.178407
H137	H	0.669365	0.163281	-0.746320
H138	H	1.169365	0.663281	-0.246320
C139	C	1.170188	-0.125133	0.275565
C140	C	1.670188	0.374867	0.775565
C141	C	1.263990	-0.112323	0.349585
C142	C	1.763990	0.387677	0.849585
C143	C	1.234799	-0.172270	0.424618
C144	C	1.734799	0.327730	0.924618
H145	H	1.091120	-0.104119	0.293989
H146	H	1.591120	0.395881	0.793989
H147	H	1.165845	-0.195510	0.257828
H148	H	1.665845	0.304490	0.757828
H149	H	1.268319	-0.041961	0.367320
H150	H	1.768319	0.458039	0.867320
H151	H	1.343066	-0.133343	0.331191
H152	H	1.843066	0.366657	0.831191
H153	H	1.230456	-0.242648	0.406881
H154	H	1.730456	0.257352	0.906881
H155	H	1.155730	-0.151252	0.443033
H156	H	1.655730	0.348748	0.943033
H157	H	1.298444	-0.163594	0.474846
H158	H	1.798444	0.336406	0.974846
H159	H	0.590572	-0.000007	-0.540526
H160	H	1.090572	0.499993	-0.040526
H161	H	0.537131	-0.108847	-0.404601
H162	H	1.037131	0.391153	0.095399
H163	H	0.682766	-0.108880	-0.254681
H164	H	1.182766	0.391120	0.245319
H165	H	1.284861	0.108733	-0.016735
H166	H	1.784861	0.608733	0.483265
