data_functionalizedCrystal
_audit_creation_method	'MofGen! by Chris Wilmer'
_symmetry_space_group_name_H-M	'P1'
_symmetry_Int_Tables_number	1
_symmetry_cell_setting	triclinic
loop_
_symmetry_equiv_pos_as_xyz
  x,y,z
_cell_length_a	10.489741
_cell_length_b	10.489741
_cell_length_c	13.596369
_cell_angle_alpha	89.994306
_cell_angle_beta	89.997383
_cell_angle_gamma	84.539174
loop_
_atom_site_label
_atom_site_type_symbol
_atom_site_fract_x
_atom_site_fract_y
_atom_site_fract_z
O1	O	1.694055	0.179970	-0.081730
O2	O	2.194055	0.679970	0.418270
O3	O	1.322859	0.196863	-0.081745
O4	O	1.822859	0.696863	0.418255
O5	O	1.516904	0.002819	-0.081731
O6	O	2.016904	0.502819	0.418269
O7	O	1.500011	0.374014	-0.081744
O8	O	2.000011	0.874014	0.418256
O9	O	1.516884	0.002808	0.081851
O10	O	2.016884	0.502808	0.581851
O11	O	1.322840	0.196852	0.081838
O12	O	1.822840	0.696852	0.581838
O13	O	1.694035	0.179960	0.081853
O14	O	2.194035	0.679960	0.581853
Zn15	Zn	1.508434	0.188404	0.107818
Zn16	Zn	2.008434	0.688404	0.607818
Zn17	Zn	1.508460	0.188418	-0.107710
Zn18	Zn	2.008460	0.688418	0.392290
O19	O	1.499991	0.374004	0.081839
O20	O	1.999991	0.874004	0.581839
C21	C	1.275318	0.195582	0.000044
C22	C	1.775318	0.695582	0.500044
C23	C	1.133688	0.191765	0.000039
C24	C	1.633688	0.691765	0.500039
C25	C	1.065548	0.068300	0.000052
C26	C	1.565548	0.568300	0.500052
C27	C	0.973431	0.126629	-0.080603
C28	C	1.473431	0.626629	0.419397
C29	C	0.973446	0.126648	0.080677
C30	C	1.473446	0.626648	0.580677
C31	C	1.043437	0.250144	-0.080683
C32	C	1.543437	0.750144	0.419317
C33	C	1.043461	0.250146	0.080670
C34	C	1.543461	0.750146	0.580670
C35	C	0.951371	0.308564	-0.000005
C36	C	1.451371	0.808564	0.499995
C37	C	1.515618	-0.044718	0.000059
C38	C	2.015618	0.455282	0.500059
C39	C	1.511801	-0.186348	0.000057
C40	C	2.011801	0.313652	0.500057
C41	C	1.388336	-0.254488	0.000045
C42	C	1.888336	0.245512	0.500045
C43	C	1.446650	-0.346616	0.080702
C44	C	1.946650	0.153384	0.580702
C45	C	1.446698	-0.346580	-0.080577
C46	C	1.946698	0.153420	0.419423
C47	C	1.570165	-0.276610	0.080781
C48	C	2.070165	0.223390	0.580781
C49	C	1.570197	-0.276565	-0.080571
C50	C	2.070197	0.223435	0.419429
C51	C	1.628600	-0.368665	0.000106
C52	C	2.128600	0.131335	0.500106
C53	C	1.741577	0.181241	0.000061
C54	C	2.241577	0.681241	0.500061
C55	C	1.883206	0.185058	0.000060
C56	C	2.383206	0.685058	0.500060
C57	C	1.501277	0.421541	0.000046
C58	C	2.001277	0.921541	0.500046
C59	C	1.505094	0.563170	0.000042
C60	C	2.005094	1.063170	0.500042
N61	N	1.508426	0.188394	0.254909
N62	N	2.008426	0.688394	0.754909
N63	N	1.508479	0.188418	-0.254802
N64	N	2.008479	0.688418	0.245198
C65	C	1.508459	0.188420	0.656200
C66	C	2.008459	0.688420	1.156200
C67	C	1.508446	0.188417	0.544549
C68	C	2.008446	0.688417	1.044549
C69	C	1.508443	0.188408	0.455558
C70	C	2.008443	0.688408	0.955558
C71	C	1.508429	0.188403	0.343900
C72	C	2.008429	0.688403	0.843900
H73	H	0.942460	0.074380	0.148865
H74	H	1.442460	0.574380	0.648865
N75	N	1.639342	-0.235416	-0.170892
N76	N	2.139342	0.264584	0.329108
H77	H	1.716933	-0.191860	-0.150341
H78	H	2.216933	0.308140	0.349659
H79	H	1.667349	-0.313060	-0.212225
H80	H	2.167349	0.186940	0.287775
H81	H	0.942425	0.074392	-0.148788
H82	H	1.442425	0.574392	0.351212
N83	N	1.377442	-0.387719	0.171015
N84	N	1.877442	0.112281	0.671015
H85	H	1.437284	-0.448006	0.211415
H86	H	1.937284	0.051994	0.711415
H87	H	1.347866	-0.309863	0.211629
H88	H	1.847866	0.190137	0.711629
N89	N	1.639259	-0.235782	0.171224
N90	N	2.139259	0.264218	0.671224
H91	H	1.668006	-0.313603	0.212155
H92	H	2.168006	0.186397	0.712155
H93	H	1.716373	-0.191440	0.150713
H94	H	2.216373	0.308560	0.650713
N95	N	1.084267	0.319294	-0.171110
N96	N	1.584267	0.819294	0.328890
H97	H	1.180324	0.321414	-0.170576
H98	H	1.680324	0.821414	0.329424
H99	H	1.058118	0.272971	-0.231902
H100	H	1.558118	0.772971	0.268098
N101	N	1.253875	-0.188720	0.000140
N102	N	1.753875	0.311280	0.500140
H103	H	1.240952	-0.132826	0.060477
H104	H	1.740952	0.367174	0.560477
H105	H	1.240380	-0.134113	-0.060838
H106	H	1.740380	0.365887	0.439162
N107	N	1.131307	-0.066165	-0.000034
N108	N	1.631307	0.433835	0.499966
H109	H	1.106013	-0.112631	-0.061013
H110	H	1.606013	0.387369	0.438987
H111	H	1.227172	-0.062546	0.000626
H112	H	1.727172	0.437454	0.500626
N113	N	0.885890	0.443142	-0.000060
N114	N	1.385890	0.943142	0.499940
H115	H	0.911331	0.489597	-0.061011
H116	H	1.411331	0.989597	0.438989
H117	H	0.789999	0.439722	0.000558
H118	H	1.289999	0.939722	0.500558
N119	N	1.084536	0.319318	0.170988
N120	N	1.584536	0.819318	0.670988
H121	H	1.059335	0.272608	0.231887
H122	H	1.559335	0.772608	0.731887
H123	H	1.180498	0.322128	0.169902
H124	H	1.680498	0.822128	0.669902
N125	N	1.763176	-0.434150	0.000158
N126	N	2.263176	0.065850	0.500158
H127	H	1.826595	-0.367491	0.000766
H128	H	2.326595	0.132509	0.500766
H129	H	1.776142	-0.490008	0.060516
H130	H	2.276142	0.009992	0.560516
H131	H	1.394450	-0.377539	-0.148773
H132	H	1.894450	0.122461	0.351227
