data_functionalizedCrystal
_audit_creation_method	'MofGen! by Chris Wilmer'
_symmetry_space_group_name_H-M	'P1'
_symmetry_Int_Tables_number	1
_symmetry_cell_setting	triclinic
loop_
_symmetry_equiv_pos_as_xyz
  x,y,z
_cell_length_a	10.654555
_cell_length_b	13.448316
_cell_length_c	10.654550
_cell_angle_alpha	89.993571
_cell_angle_beta	84.485953
_cell_angle_gamma	89.995903
loop_
_atom_site_label
_atom_site_type_symbol
_atom_site_fract_x
_atom_site_fract_y
_atom_site_fract_z
O1	O	-1.667841	0.082631	-0.176432
O2	O	-1.302364	0.082646	-0.193231
O3	O	-1.493506	0.082632	-0.002093
O4	O	-1.476699	0.082645	-0.367571
O5	O	-1.493481	-0.082752	-0.002081
O6	O	-1.302339	-0.082737	-0.193219
O7	O	-1.667817	-0.082753	-0.176420
Cu8	Cu	-1.485076	-0.097846	-0.184818
Cu9	Cu	-1.485105	0.097740	-0.184833
O10	O	-1.476675	-0.082738	-0.367559
C11	C	-1.255554	-0.000044	-0.191991
C12	C	-1.116111	-0.000038	-0.188296
C13	C	-0.919578	0.090108	-0.183101
C14	C	-1.050601	0.090112	-0.186565
C15	C	-1.050593	-0.090198	-0.186551
C16	C	-0.919574	-0.090202	-0.183079
N17	N	-1.485065	-0.235410	-0.184808
C18	C	-1.569729	-0.287457	-0.100207
C19	C	-1.569737	-0.391560	-0.100206
C20	C	-1.485086	-0.443615	-0.184813
C21	C	-1.400412	-0.391561	-0.269418
C22	C	-1.400399	-0.287459	-0.269412
C23	C	-1.400447	-0.608541	-0.269427
C24	C	-1.400461	-0.712649	-0.269435
C25	C	-1.569785	-0.712641	-0.100221
C26	C	-1.569772	-0.608540	-0.100215
C27	C	-1.485100	-0.556493	-0.184821
C28	C	-0.714627	-0.000057	-0.177662
C29	C	-0.854069	-0.000046	-0.181360
C30	C	-1.492259	-0.000059	0.044711
C31	C	-1.488567	-0.000057	0.184155
N32	N	-1.485126	0.235304	-0.184834
C33	C	-1.477921	-0.000045	-0.414363
C34	C	-1.481613	-0.000040	-0.553806
C35	C	-1.601109	-0.000062	0.263638
C36	C	-1.597632	-0.000050	0.394659
C37	C	-1.369063	-0.000033	0.366700
C38	C	-1.372541	-0.000038	0.235682
H39	H	-1.103933	0.163524	-0.187980
H40	H	-1.331494	-0.566168	-0.338319
H41	H	-0.866235	-0.163620	-0.181660
O42	O	-1.651985	-0.763081	-0.017857
C43	C	-1.723667	-0.794985	0.199837
C44	C	-1.630520	-0.737780	0.106712
H45	H	-1.706328	-0.774566	0.300571
H46	H	-1.824415	-0.774479	0.182625
H47	H	-1.709159	-0.878326	0.185246
H48	H	-1.644914	-0.654426	0.121248
H49	H	-1.529806	-0.758369	0.123947
O50	O	-1.713704	-0.000114	0.213376
C51	C	-1.820367	-0.000063	0.023930
C52	C	-1.692764	-0.000032	0.080679
H53	H	-1.803481	0.000025	-0.083363
H54	H	-1.876052	-0.069292	0.056507
H55	H	-1.876044	0.069134	0.056648
H56	H	-1.636985	-0.069181	0.047987
H57	H	-1.637175	0.069243	0.048108
O58	O	-1.707073	-0.000101	0.471689
C59	C	-1.934149	-0.000063	0.485585
C60	C	-1.810297	-0.000030	0.398205
H61	H	-2.017638	0.000015	0.426209
H62	H	-1.938308	-0.069288	0.547616
H63	H	-1.938182	0.069138	0.547633
H64	H	-1.806181	-0.069184	0.336079
H65	H	-1.806189	0.069240	0.336260
H66	H	-1.638667	-0.245081	-0.031315
O67	O	-1.256469	-0.000067	0.416965
C68	C	-1.149810	-0.000001	0.606413
C69	C	-1.277412	0.000020	0.549661
H70	H	-1.166698	0.000091	0.713705
H71	H	-1.094107	-0.069227	0.573860
H72	H	-1.094151	0.069198	0.573674
H73	H	-1.333174	-0.069132	0.582374
H74	H	-1.333019	0.069292	0.582208
H75	H	-1.103943	-0.163600	-0.187953
O76	O	-1.263094	-0.000078	0.158642
C77	C	-1.036017	0.000001	0.144726
C78	C	-1.159862	0.000018	0.232116
H79	H	-0.952522	0.000100	0.204094
H80	H	-1.031832	-0.069228	0.082721
H81	H	-1.032020	0.069197	0.082651
H82	H	-1.163941	-0.069131	0.294269
H83	H	-1.163996	0.069294	0.294035
O84	O	-1.318229	-0.442011	-0.351776
C85	C	-1.246567	-0.473883	-0.569475
C86	C	-1.339694	-0.416674	-0.476341
H87	H	-1.263907	-0.453434	-0.670206
H88	H	-1.145813	-0.453409	-0.552268
H89	H	-1.261097	-0.557223	-0.554889
H90	H	-1.325279	-0.333320	-0.490871
H91	H	-1.440415	-0.437230	-0.493571
H92	H	-0.866249	0.163518	-0.181700
H93	H	-1.638707	-0.566157	-0.031328
O94	O	-1.652115	-0.441964	-0.017992
C95	C	-1.820041	-0.430970	0.149863
C96	C	-1.726825	-0.373765	0.056806
H97	H	-1.880450	-0.375856	0.210380
H98	H	-1.883329	-0.479660	0.095098
H99	H	-1.765280	-0.479755	0.213065
H100	H	-1.781483	-0.324927	-0.006418
H101	H	-1.663537	-0.325138	0.111650
O102	O	-1.318094	-0.763063	-0.351648
C103	C	-1.150155	-0.752092	-0.519494
C104	C	-1.243357	-0.694875	-0.426443
H105	H	-1.089724	-0.696986	-0.580008
H106	H	-1.086887	-0.800813	-0.464724
H107	H	-1.204928	-0.800846	-0.582699
H108	H	-1.188686	-0.646066	-0.363215
H109	H	-1.306624	-0.646216	-0.481291
H110	H	-1.331455	-0.245084	-0.338301
