data_functionalizedCrystal
_audit_creation_method	'MofGen! by Chris Wilmer'
_symmetry_space_group_name_H-M	'P1'
_symmetry_Int_Tables_number	1
_symmetry_cell_setting	triclinic
loop_
_symmetry_equiv_pos_as_xyz
  x,y,z
_cell_length_a	10.654549
_cell_length_b	14.044220
_cell_length_c	9.130313
_cell_angle_alpha	89.994483
_cell_angle_beta	89.997498
_cell_angle_gamma	88.836827
loop_
_atom_site_label
_atom_site_type_symbol
_atom_site_fract_x
_atom_site_fract_y
_atom_site_fract_z
O1	O	1.681228	0.133230	-0.121770
O2	O	1.317025	0.145924	-0.121781
O3	O	1.493660	0.001556	-0.121761
O4	O	1.504593	0.277597	-0.121790
O5	O	1.493646	0.001552	0.121838
O6	O	1.317011	0.145920	0.121818
O7	O	1.681214	0.133226	0.121829
Cu8	Cu	1.499112	0.139572	0.144066
Cu9	Cu	1.499128	0.139577	-0.144018
O10	O	1.504580	0.277593	0.121809
C11	C	1.270127	0.144990	0.000018
C12	C	1.130403	0.142201	0.000014
C13	C	0.928166	0.224576	0.000011
C14	C	1.059451	0.227203	0.000002
C15	C	1.070064	0.054567	0.000020
C16	C	0.938782	0.051941	0.000018
C17	C	1.488867	-0.033792	0.000039
C18	C	1.474592	-0.139111	0.000040
C19	C	1.728113	0.134160	0.000027
C20	C	1.867836	0.136948	0.000022
C21	C	1.448493	-0.331944	0.000018
C22	C	1.549741	-0.388912	0.000017
C23	C	1.535219	-0.496211	0.000005
C24	C	1.463013	-0.224635	0.000031
N25	N	1.499109	0.139568	0.346689
C26	C	1.509372	0.312941	0.000006
C27	C	1.523648	0.418261	-0.000005
N28	N	1.499139	0.139574	-0.346640
C29	C	1.577355	0.075669	0.423349
C30	C	1.577367	0.075670	0.576686
C31	C	1.420885	0.203476	0.576688
C32	C	1.420867	0.203470	0.423354
H33	H	0.870406	0.293794	0.000013
Br34	Br	1.712395	-0.335895	0.000034
H35	H	1.350913	-0.363755	0.000012
Br36	Br	1.683538	-0.011056	0.319308
Br37	Br	1.683555	-0.011058	0.680723
Br38	Br	0.856898	-0.066991	0.000005
H39	H	1.357144	0.255505	0.360933
Br40	Br	1.141323	0.346131	-0.000024
H41	H	1.357184	0.255505	0.639125
Br42	Br	1.166355	-0.060794	0.000027
