data_functionalizedCrystal
_audit_creation_method	'MofGen! by Chris Wilmer'
_symmetry_space_group_name_H-M	'P1'
_symmetry_Int_Tables_number	1
_symmetry_cell_setting	triclinic
loop_
_symmetry_equiv_pos_as_xyz
  x,y,z
_cell_length_a	17.699083
_cell_length_b	15.995350
_cell_length_c	16.176319
_cell_angle_alpha	89.995430
_cell_angle_beta	89.998611
_cell_angle_gamma	83.387695
loop_
_atom_site_label
_atom_site_type_symbol
_atom_site_fract_x
_atom_site_fract_y
_atom_site_fract_z
O1	O	1.004255	0.105885	-0.068627
O2	O	1.504255	0.605885	0.431373
O3	O	0.783899	0.119661	-0.068653
O4	O	1.283899	0.619661	0.431347
O5	O	0.900101	-0.009127	-0.068638
O6	O	1.400101	0.490873	0.431362
O7	O	0.888054	0.234673	-0.068641
O8	O	1.388054	0.734673	0.431359
O9	O	0.900085	-0.009135	0.068855
O10	O	1.400085	0.490865	0.568855
O11	O	0.783883	0.119653	0.068840
O12	O	1.283883	0.619653	0.568840
O13	O	1.004239	0.105877	0.068867
O14	O	1.504239	0.605877	0.568867
Cu15	Cu	0.894060	0.112764	0.081408
Cu16	Cu	1.394060	0.612764	0.581408
Cu17	Cu	0.894079	0.112774	-0.081194
Cu18	Cu	1.394079	0.612774	0.418806
O19	O	0.888038	0.234665	0.068852
O20	O	1.388038	0.734665	0.568852
C21	C	0.755694	0.119163	0.000090
C22	C	1.255694	0.619163	0.500090
C23	C	0.671673	0.117683	0.000080
C24	C	1.171673	0.617683	0.500080
C25	C	0.623178	0.193278	0.000079
C26	C	1.123178	0.693278	0.500079
C27	C	0.544232	0.191882	0.000090
C28	C	1.044232	0.691882	0.500090
C29	C	0.513783	0.114889	0.000095
C30	C	1.013783	0.614889	0.500095
C31	C	0.562285	0.039287	0.000098
C32	C	1.062285	0.539287	0.500098
C33	C	0.641229	0.040685	0.000094
C34	C	1.141229	0.540685	0.500094
C35	C	0.243912	0.033651	0.000119
C36	C	0.743912	0.533651	0.500119
C37	C	0.164962	0.032259	0.000121
C38	C	0.664962	0.532259	0.500121
C39	C	0.146916	0.184848	0.000115
C40	C	0.646916	0.684848	0.500115
C41	C	0.225860	0.186245	0.000110
C42	C	0.725860	0.686245	0.500110
C43	C	0.274354	0.110644	0.000118
C44	C	0.774354	0.610644	0.500118
C45	C	0.359956	0.112159	0.000108
C46	C	0.859956	0.612159	0.500108
C47	C	0.428183	0.113373	0.000099
C48	C	0.928183	0.613373	0.500099
C49	C	0.899595	-0.040324	0.000107
C50	C	1.399595	0.459676	0.500107
C51	C	0.898101	-0.133272	0.000102
C52	C	1.398101	0.366728	0.500102
C53	C	0.892739	-0.471008	0.000104
C54	C	1.392739	0.028992	0.500104
C55	C	0.809983	-0.423406	-0.000214
C56	C	1.309983	0.076594	0.499786
C57	C	0.811476	-0.326719	0.000096
C58	C	1.311476	0.173281	0.500096
C59	C	0.895399	-0.303453	0.000102
C60	C	1.395399	0.196547	0.500102
C61	C	0.936208	-0.344618	0.078621
C62	C	1.436208	0.155382	0.578621
C63	C	0.934129	-0.441250	0.078687
C64	C	1.434129	0.058750	0.578687
C65	C	0.935857	-0.441602	-0.077669
C66	C	1.435857	0.058398	0.422331
C67	C	0.935838	-0.344657	-0.078706
C68	C	1.435838	0.155343	0.421294
C69	C	0.896907	-0.208759	0.000104
C70	C	1.396907	0.291241	0.500104
C71	C	0.891234	-0.565703	0.000108
C72	C	1.391234	-0.065703	0.500108
C73	C	1.032445	0.106375	0.000122
C74	C	1.532445	0.606375	0.500122
C75	C	1.116465	0.107856	0.000126
C76	C	1.616465	0.607856	0.500126
C77	C	0.888544	0.265863	0.000105
C78	C	1.388544	0.765863	0.500105
C79	C	0.890037	0.358810	0.000104
C80	C	1.390037	0.858810	0.500104
N81	N	0.894052	0.112757	0.195773
N82	N	1.394052	0.612757	0.695773
N83	N	0.894092	0.112775	-0.195559
N84	N	1.394092	0.612775	0.304441
C85	C	0.945521	0.055753	0.239043
C86	C	1.445521	0.555753	0.739043
C87	C	0.945525	0.055752	0.325591
C88	C	1.445525	0.555752	0.825591
C89	C	0.894063	0.112760	0.368865
C90	C	1.394063	0.612760	0.868865
C91	C	0.842588	0.169767	0.325589
C92	C	1.342588	0.669767	0.825589
C93	C	0.842581	0.169763	0.239043
C94	C	1.342581	0.669763	0.739043
C95	C	0.842614	0.169782	0.674617
C96	C	1.342614	0.669782	1.174617
C97	C	0.842626	0.169783	0.761168
C98	C	1.342626	0.669783	1.261168
C99	C	0.945558	0.055772	0.761164
C100	C	1.445558	0.555772	1.261164
C101	C	0.945551	0.055768	0.674619
C102	C	1.445551	0.555768	1.174619
C103	C	0.894074	0.112771	0.631350
C104	C	1.394074	0.612771	1.131350
C105	C	0.894069	0.112770	0.537505
C106	C	1.394069	0.612770	1.037505
C107	C	0.894070	0.112765	0.462708
C108	C	1.394070	0.612765	0.962708
H109	H	0.283388	-0.027909	0.000126
H110	H	0.783388	0.472091	0.500126
O111	O	0.693538	-0.040851	0.000101
O112	O	1.193538	0.459149	0.500101
H113	H	0.729944	-0.043863	-0.055935
H114	H	1.229944	0.456137	0.444065
H115	H	0.987459	0.009350	0.639387
H116	H	1.487459	0.509350	1.139387
H117	H	0.107421	0.246406	0.000113
H118	H	0.607421	0.746406	0.500113
H119	H	0.996873	-0.473487	-0.078191
H120	H	1.496873	0.026513	0.421809
O121	O	0.896375	-0.308407	-0.155653
O122	O	1.396375	0.191593	0.344347
H123	H	0.874672	-0.359696	-0.191632
H124	H	1.374672	0.140304	0.308368
H125	H	0.777046	-0.442936	0.055772
H126	H	1.277046	0.057064	0.555772
O127	O	0.787099	0.231272	0.627959
O128	O	1.287099	0.731272	1.127959
H129	H	0.795730	0.221691	0.560507
H130	H	1.295730	0.721691	1.060507
O131	O	1.016907	-0.324479	-0.084980
O132	O	1.516907	0.175521	0.415020
H133	H	1.043753	-0.354498	-0.141237
H134	H	1.543753	0.145502	0.358763
O135	O	1.001076	-0.005723	0.807831
O136	O	1.501076	0.494277	1.307831
H137	H	0.992433	0.003847	0.875282
H138	H	1.492433	0.503847	1.375282
O139	O	1.001025	-0.005738	0.192369
O140	O	1.501025	0.494262	0.692369
H141	H	1.036809	-0.045382	0.237002
H142	H	1.536809	0.454618	0.737002
H143	H	0.800668	0.216180	0.203813
H144	H	1.300668	0.716180	0.703813
H145	H	0.504750	0.253440	0.000088
H146	H	1.004750	0.753440	0.500088
O147	O	0.529445	-0.043756	0.000113
O148	O	1.029445	0.456244	0.500113
H149	H	0.548929	-0.080077	-0.055922
H150	H	1.048929	0.419923	0.444078
O151	O	1.001052	-0.005715	0.372265
O152	O	1.501052	0.494285	0.872265
H153	H	1.036846	-0.045344	0.327633
H154	H	1.536846	0.454656	0.827633
O155	O	0.768687	-0.289714	0.074770
O156	O	1.268687	0.210286	0.574770
H157	H	0.807523	-0.257020	0.114021
H158	H	1.307523	0.242980	0.614021
O159	O	0.787116	0.231283	0.807836
O160	O	1.287116	0.731283	1.307836
H161	H	0.750342	0.196094	0.847286
H162	H	1.250342	0.696094	1.347286
O163	O	0.656018	0.276321	0.000081
O164	O	1.156018	0.776321	0.500081
H165	H	0.609030	0.328652	0.000093
H166	H	1.109030	0.828652	0.500093
O167	O	0.258703	0.269286	0.000117
O168	O	0.758703	0.769286	0.500117
H169	H	0.211718	0.321620	0.000130
H170	H	0.711718	0.821620	0.500130
H171	H	0.800682	0.216181	0.360828
H172	H	1.300682	0.716181	0.860828
O173	O	0.898648	-0.306961	0.156018
O174	O	1.398648	0.193039	0.656018
H175	H	0.940924	-0.276988	0.193087
H176	H	1.440924	0.223012	0.693087
O177	O	0.768970	-0.288967	-0.074448
O178	O	1.268970	0.211033	0.425552
H179	H	0.747157	-0.339763	-0.111043
H180	H	1.247157	0.160237	0.388957
H181	H	0.140174	-0.030442	0.000127
H182	H	0.640174	0.469558	0.500127
O183	O	0.766161	-0.447870	-0.074786
O184	O	1.266161	0.052130	0.425214
H185	H	0.802891	-0.494221	-0.112420
H186	H	1.302891	0.005779	0.387580
H187	H	0.904358	-0.459494	0.137376
H188	H	1.404358	0.040506	0.637376
H189	H	0.994887	-0.473622	0.082254
H190	H	1.494887	0.026378	0.582254
O191	O	1.017876	-0.326070	0.082513
O192	O	1.517876	0.173930	0.582513
H193	H	1.030274	-0.287219	0.028396
H194	H	1.530274	0.212781	0.528396
H195	H	0.908807	-0.462083	-0.137181
H196	H	1.408807	0.037917	0.362819
