data_functionalizedCrystal
_audit_creation_method	'MofGen! by Chris Wilmer'
_symmetry_space_group_name_H-M	'P1'
_symmetry_Int_Tables_number	1
_symmetry_cell_setting	triclinic
loop_
_symmetry_equiv_pos_as_xyz
  x,y,z
_cell_length_a	14.971486
_cell_length_b	15.944551
_cell_length_c	14.048226
_cell_angle_alpha	89.992949
_cell_angle_beta	89.997982
_cell_angle_gamma	83.556434
loop_
_atom_site_label
_atom_site_type_symbol
_atom_site_fract_x
_atom_site_fract_y
_atom_site_fract_z
O1	O	1.186830	0.109463	-0.079053
O2	O	0.926415	0.122571	-0.079079
O3	O	1.063734	-0.006251	-0.079057
O4	O	1.049511	0.238285	-0.079076
O5	O	1.063716	-0.006258	0.079264
O6	O	0.926397	0.122565	0.079242
O7	O	1.186812	0.109456	0.079268
Zn8	Zn	1.056602	0.116009	0.104392
Zn9	Zn	1.056625	0.116018	-0.104203
O10	O	1.049493	0.238278	0.079246
C11	C	0.893082	0.121982	0.000078
C12	C	0.793787	0.120225	0.000068
C13	C	0.736480	0.195904	0.000064
C14	C	0.643182	0.194249	0.000078
C15	C	0.607194	0.116913	0.000090
C16	C	0.664508	0.041227	0.000097
C17	C	0.757804	0.042884	0.000090
C18	C	0.470049	0.037780	0.000111
C19	C	0.376747	0.036123	0.000116
C20	C	0.355428	0.189145	0.000099
C21	C	0.448724	0.190801	0.000092
C22	C	0.506032	0.115116	0.000097
C23	C	1.063134	-0.037549	0.000104
C24	C	1.061364	-0.130797	0.000104
C25	C	0.972017	-0.345738	0.000082
C26	C	1.013498	-0.406719	0.078148
C27	C	1.058162	-0.301526	0.000096
C28	C	1.013536	-0.406696	-0.077944
C29	C	1.055062	-0.466441	0.000085
C30	C	1.099667	-0.361278	0.078227
C31	C	1.099693	-0.361249	-0.077935
C32	C	1.141236	-0.422212	0.000150
C33	C	1.059945	-0.206522	0.000104
C34	C	1.053286	-0.561444	0.000084
C35	C	1.220145	0.110046	0.000109
C36	C	1.319440	0.111802	0.000112
C37	C	1.050093	0.269576	0.000083
C38	C	1.051863	0.362824	0.000076
N39	N	1.056592	0.116003	0.246753
C40	C	1.117415	0.058984	0.296581
C41	C	1.117420	0.058984	0.396238
C42	C	1.056606	0.116008	0.446066
C43	C	0.995776	0.173029	0.396231
C44	C	0.995767	0.173024	0.296575
C45	C	0.995800	0.173036	0.603945
C46	C	0.995810	0.173043	0.703608
C47	C	1.117453	0.058997	0.703608
C48	C	1.117444	0.058992	0.603952
C49	C	1.056615	0.116014	0.554124
N50	N	1.056633	0.116024	0.753436
H51	H	0.765774	0.258881	0.000053
H52	H	1.136105	-0.341081	-0.143930
C53	C	1.148835	-0.334232	0.167490
N54	N	1.185865	-0.313857	0.234723
C55	C	0.580148	0.277503	0.000090
N56	N	0.532671	0.340213	0.000107
H57	H	0.804463	-0.018742	0.000093
C58	C	1.237917	-0.466925	0.000221
N59	N	1.310735	-0.500605	0.000281
H60	H	0.946264	0.219468	0.563379
H61	H	0.946255	0.219456	0.436807
H62	H	0.478022	0.253775	0.000073
H63	H	0.308763	0.250771	0.000099
C64	C	0.964304	-0.433874	-0.167104
N65	N	0.927217	-0.454341	-0.234255
C66	C	1.184317	-0.003748	0.241779
N67	N	1.234706	-0.051002	0.200505
H68	H	0.347448	-0.026851	0.000127
H69	H	0.516708	-0.023852	0.000117
C70	C	1.184310	-0.003761	0.451044
N71	N	1.234685	-0.051031	0.492324
H72	H	0.635199	-0.021741	0.000121
H73	H	1.166968	0.012563	0.563383
C74	C	1.184362	-0.003732	0.758421
N75	N	1.234758	-0.050976	0.799710
H76	H	0.946287	0.219476	0.744173
C77	C	0.875421	-0.300826	0.000179
N78	N	0.802668	-0.266995	0.000258
C79	C	0.928864	0.235756	0.241765
N80	N	0.878471	0.283008	0.200483
C81	C	0.964264	-0.433940	0.167297
N82	N	0.927175	-0.454440	0.234441
