data_functionalizedCrystal
_audit_creation_method	'MofGen! by Chris Wilmer'
_symmetry_space_group_name_H-M	'P1'
_symmetry_Int_Tables_number	1
_symmetry_cell_setting	triclinic
loop_
_symmetry_equiv_pos_as_xyz
  x,y,z
_cell_length_a	13.897449
_cell_length_b	15.297327
_cell_length_c	15.298259
_cell_angle_alpha	91.656652
_cell_angle_beta	80.345346
_cell_angle_gamma	99.707572
loop_
_atom_site_label
_atom_site_type_symbol
_atom_site_fract_x
_atom_site_fract_y
_atom_site_fract_z
Zn1	Zn	-1.323181	0.262956	-0.555679
Zn2	Zn	-1.313666	0.434805	-0.434539
Zn3	Zn	-1.184270	0.288347	-0.409214
Zn4	Zn	-1.130056	0.409402	-0.580946
O5	O	-1.237793	0.348877	-0.495094
O6	O	-1.456895	0.285758	-0.539634
O7	O	-1.315208	0.436634	-0.308611
O8	O	-1.229368	0.162397	-0.407470
O9	O	-1.449904	0.412015	-0.450632
O10	O	-1.331425	0.143743	-0.515077
O11	O	-1.220142	0.329032	-0.290005
O12	O	-1.042102	0.304399	-0.431970
O13	O	-1.136967	0.368718	-0.700163
O14	O	-1.002271	0.393338	-0.558142
O15	O	-1.278855	0.261125	-0.681599
O16	O	-1.262639	0.554016	-0.475133
O17	O	-1.127741	0.535353	-0.582698
C18	C	-0.987189	0.348867	-0.495050
C19	C	-0.879971	0.348881	-0.495056
C20	C	-0.792900	0.348881	-0.495067
C21	C	-0.683663	0.348881	-0.495090
C22	C	-0.489378	0.348886	-0.495128
C23	C	-0.596595	0.348885	-0.495114
C24	C	-1.188298	0.576465	-0.534425
C25	C	-1.167207	0.673823	-0.551280
C26	C	-1.202925	0.309256	-0.723550
C27	C	-1.188066	0.292372	-0.820904
C28	C	-1.287505	0.120398	-0.455630
C29	C	-1.308690	0.023033	-0.438812
C30	C	-1.388883	0.986976	-0.374929
C31	C	-1.408699	0.895505	-0.359088
C32	C	-1.348328	0.840080	-0.407135
C33	C	-1.268137	0.876136	-0.471024
C34	C	-1.248315	0.967617	-0.486862
C35	C	-1.207760	0.820721	-0.519068
C36	C	-1.127569	0.856777	-0.582957
C37	C	-1.107750	0.948249	-0.598792
C38	C	-1.168121	1.003674	-0.550745
C39	C	-1.227582	0.729239	-0.503230
C40	C	-1.087014	0.709880	-0.615163
C41	C	-1.067198	0.801352	-0.631004
C42	C	-1.344169	0.468878	-1.134072
C43	C	-1.358123	0.484747	-1.042604
C44	C	-1.315610	0.436654	-0.987175
C45	C	-1.259140	0.372690	-1.023222
C46	C	-1.245178	0.356824	-1.114700
C47	C	-1.216620	0.324601	-0.967803
C48	C	-1.160150	0.260636	-1.003850
C49	C	-1.146191	0.244773	-1.095319
C50	C	-1.188703	0.292866	-1.150749
C51	C	-1.230582	0.340467	-0.876325
C52	C	-1.131592	0.228413	-0.856953
C53	C	-1.117637	0.212544	-0.948421
C54	C	-1.272595	0.388282	-0.267517
C55	C	-1.287694	0.404919	-0.170121
H56	H	-1.292874	0.699891	-0.451211
H57	H	-1.364466	0.765600	-0.394233
C58	C	-1.056480	0.142966	-0.987494
C59	C	-1.099749	0.060151	-0.950296
C60	C	-1.043446	-0.003966	-0.986278
H61	H	-0.991154	0.158258	-0.974726
H62	H	-1.054276	0.140347	-1.049907
H63	H	-1.101942	0.062771	-0.887897
H64	H	-1.165069	0.044831	-0.963061
H65	H	-1.041243	-0.006585	-1.048691
H66	H	-0.978124	0.011334	-0.973508
H67	H	-1.072802	-0.060165	-0.961051
H68	H	-1.096973	0.189253	-0.811822
H69	H	-1.404090	0.536835	-1.013262
C70	C	-1.495840	0.856523	-0.289728
C71	C	-1.544486	0.924633	-0.251059
C72	C	-1.624779	0.888754	-0.187169
H73	H	-1.472651	0.827513	-0.245282
H74	H	-1.540509	0.814999	-0.317072
H75	H	-1.499824	0.966141	-0.223715
H76	H	-1.567698	0.953649	-0.295482
H77	H	-1.669449	0.847231	-0.214513
H78	H	-1.601581	0.859745	-0.142729
H79	H	-1.657801	0.934960	-0.160930
H80	H	-1.438023	1.032111	-0.335811
C81	C	-1.390271	0.520970	-1.194393
C82	C	-1.365970	0.493372	-1.282213
C83	C	-1.408433	0.541338	-1.337805
H84	H	-1.365669	0.582441	-1.189676
H85	H	-1.460173	0.510742	-1.177257
H86	H	-1.296084	0.503607	-1.299344
H87	H	-1.390574	0.431908	-1.286958
H88	H	-1.478334	0.531110	-1.320669
H89	H	-1.383827	0.602807	-1.333080
H90	H	-1.391959	0.522614	-1.397396
H91	H	-1.151993	1.078159	-0.563641
H92	H	-1.042444	0.977604	-0.650805
C93	C	-0.980148	0.840679	-0.700295
C94	C	-0.975703	0.932654	-0.703861
C95	C	-0.895519	0.968914	-0.767673
H96	H	-0.988393	0.815548	-0.756611
H97	H	-0.920519	0.828029	-0.684834
H98	H	-1.035318	0.945298	-0.719327
H99	H	-0.967443	0.957810	-0.647561
H100	H	-0.835890	0.956263	-0.752211
H101	H	-0.903772	0.943776	-0.823984
H102	H	-0.892487	1.031323	-0.770095
H103	H	-1.037853	0.664753	-0.654285
H104	H	-1.276567	0.392542	-0.846983
C105	C	-1.330921	0.453974	-0.887881
C106	C	-1.389496	0.520266	-0.868172
C107	C	-1.403638	0.536236	-0.776708
H108	H	-1.268608	0.472753	-0.869686
H109	H	-1.363114	0.401056	-0.857401
H110	H	-1.357301	0.573174	-0.898642
H111	H	-1.451819	0.501505	-0.886347
H112	H	-1.435831	0.483318	-0.746227
H113	H	-1.341321	0.555012	-0.758520
H114	H	-1.443389	0.581210	-0.763322
C115	C	-1.173480	0.275475	-1.250033
C116	C	-1.114942	0.209155	-1.269740
C117	C	-1.100911	0.193105	-1.361191
H118	H	-1.141305	0.328341	-1.280592
H119	H	-1.235853	0.256691	-1.268139
H120	H	-1.052580	0.227943	-1.251644
H121	H	-1.147099	0.156277	-1.239204
H122	H	-1.163284	0.174321	-1.379297
H123	H	-1.068739	0.245975	-1.391742
H124	H	-1.061200	0.148100	-1.374573
C125	C	-1.084720	0.175403	-1.134350
C126	C	-0.988542	0.198323	-1.115350
C127	C	-0.931890	0.134435	-1.151276
H128	H	-1.082366	0.172780	-1.196769
H129	H	-1.113880	0.119137	-1.109172
H130	H	-0.959389	0.254574	-1.140532
H131	H	-0.990866	0.200939	-1.052938
H132	H	-0.961049	0.078169	-1.126098
H133	H	-0.929544	0.131817	-1.213694
H134	H	-0.866630	0.149973	-1.138383
