data_functionalizedCrystal
_audit_creation_method	'MofGen! by Chris Wilmer'
_symmetry_space_group_name_H-M	'P1'
_symmetry_Int_Tables_number	1
_symmetry_cell_setting	triclinic
loop_
_symmetry_equiv_pos_as_xyz
  x,y,z
_cell_length_a	10.654550
_cell_length_b	9.798715
_cell_length_c	10.723023
_cell_angle_alpha	90.002139
_cell_angle_beta	84.476239
_cell_angle_gamma	90.000450
loop_
_atom_site_label
_atom_site_type_symbol
_atom_site_fract_x
_atom_site_fract_y
_atom_site_fract_z
O1	O	1.667813	0.113386	0.175272
O2	O	1.302332	0.113411	0.191971
O3	O	1.493503	0.113392	0.002047
O4	O	1.476642	0.113404	0.365197
O5	O	1.493489	-0.113590	0.002046
O6	O	1.302318	-0.113572	0.191971
O7	O	1.667799	-0.113596	0.175272
Zn8	Zn	1.485056	-0.149622	0.183621
Zn9	Zn	1.485075	0.149437	0.183622
O10	O	1.476627	-0.113578	0.365196
C11	C	1.255527	-0.000077	0.190745
C12	C	1.116084	-0.000068	0.187077
N13	N	1.485052	-0.353722	0.183620
C14	C	1.036582	-0.000068	0.298901
C15	C	0.905561	-0.000092	0.295447
C16	C	0.933559	-0.000110	0.068334
C17	C	1.064577	-0.000096	0.071789
C18	C	1.565320	-0.421507	0.103525
C19	C	1.565340	-0.578669	0.103520
C20	C	1.714604	-0.000105	0.176498
C21	C	1.854046	-0.000106	0.180167
C22	C	1.492269	-0.000097	-0.044453
C23	C	1.488599	-0.000093	-0.183008
N24	N	1.485088	0.353536	0.183613
C25	C	1.486970	0.117493	-0.244774
C26	C	1.483176	0.117500	-0.387977
C27	C	1.477861	-0.000085	0.411696
C28	C	1.481532	-0.000081	0.550251
H29	H	1.078514	-0.000056	0.392775
Cl30	Cl	1.378987	-0.556480	0.289500
Cl31	Cl	0.868798	-0.000136	-0.076591
Cl32	Cl	1.483704	-0.155520	-0.367756
H33	H	1.487177	-0.100756	-0.236145
Cl34	Cl	1.671115	-0.331478	-0.002629
Cl35	Cl	0.805620	-0.000094	0.436033
H36	H	1.129312	-0.000099	-0.019278
H37	H	1.416342	-0.412040	0.252185
Cl38	Cl	1.671451	-0.668662	-0.002350
H39	H	1.481781	0.218169	-0.441095
Cl40	Cl	1.489182	0.272918	-0.162747
