data_functionalizedCrystal
_audit_creation_method	'MofGen! by Chris Wilmer'
_symmetry_space_group_name_H-M	'P1'
_symmetry_Int_Tables_number	1
_symmetry_cell_setting	triclinic
loop_
_symmetry_equiv_pos_as_xyz
  x,y,z
_cell_length_a	11.169417
_cell_length_b	16.625545
_cell_length_c	11.169409
_cell_angle_alpha	90.036134
_cell_angle_beta	90.019824
_cell_angle_gamma	90.026437
loop_
_atom_site_label
_atom_site_type_symbol
_atom_site_fract_x
_atom_site_fract_y
_atom_site_fract_z
Zn1	Zn	1.834835	-0.320917	0.678511
Zn2	Zn	1.834671	-0.455779	0.477815
Zn3	Zn	1.634121	-0.320967	0.477845
Zn4	Zn	1.634076	-0.455714	0.678460
O5	O	1.734426	-0.388344	0.578158
O6	O	2.002763	-0.338814	0.651897
O7	O	1.808019	-0.437944	0.309869
O8	O	1.660834	-0.208128	0.504499
O9	O	2.002643	-0.437897	0.504446
O10	O	1.808298	-0.208092	0.651927
O11	O	1.660675	-0.338898	0.309892
O12	O	1.466166	-0.338834	0.504449
O13	O	1.660756	-0.437785	0.846416
O14	O	1.466132	-0.437832	0.651839
O15	O	1.808254	-0.338750	0.846454
O16	O	1.807974	-0.568603	0.504396
O17	O	1.660597	-0.568555	0.651809
C18	C	1.422601	-0.388332	0.578142
C19	C	1.289201	-0.388346	0.578164
C20	C	1.734296	-0.597835	0.578120
C21	C	1.734350	-0.687456	0.578144
C22	C	1.734396	-0.760239	0.578168
C23	C	1.734466	-0.851547	0.578194
C24	C	1.734528	-0.924324	0.578209
C25	C	1.734597	-1.015638	0.578234
C26	C	2.047468	-0.388357	0.578174
C27	C	2.180868	-0.388363	0.578181
C28	C	1.734518	-0.388255	0.891200
C29	C	1.734557	-0.388217	1.024600
C30	C	1.734590	-0.178035	0.578222
C31	C	1.734659	-0.088414	0.578249
C32	C	1.734403	-0.388375	0.266333
C33	C	1.734596	-0.388186	0.132934
