data_functionalizedCrystal
_audit_creation_method	'MofGen! by Chris Wilmer'
_symmetry_space_group_name_H-M	'P1'
_symmetry_Int_Tables_number	1
_symmetry_cell_setting	triclinic
loop_
_symmetry_equiv_pos_as_xyz
  x,y,z
_cell_length_a	13.897448
_cell_length_b	13.897449
_cell_length_c	17.077396
_cell_angle_alpha	90.020566
_cell_angle_beta	89.972632
_cell_angle_gamma	89.982475
loop_
_atom_site_label
_atom_site_type_symbol
_atom_site_fract_x
_atom_site_fract_y
_atom_site_fract_z
Zn1	Zn	-0.384019	-1.474681	-0.443871
Zn2	Zn	-0.134019	-1.224681	-0.193871
Zn3	Zn	0.115981	-0.974681	0.056129
Zn4	Zn	0.365981	-0.724681	0.306129
Zn5	Zn	-0.545332	-1.474581	-0.312608
Zn6	Zn	-0.295332	-1.224581	-0.062608
Zn7	Zn	-0.045332	-0.974581	0.187392
Zn8	Zn	0.204668	-0.724581	0.437392
Zn9	Zn	-0.384052	-1.313376	-0.312617
Zn10	Zn	-0.134052	-1.063376	-0.062617
Zn11	Zn	0.115948	-0.813376	0.187383
Zn12	Zn	0.365948	-0.563376	0.437383
Zn13	Zn	-0.545273	-1.313352	-0.443829
Zn14	Zn	-0.295273	-1.063352	-0.193829
Zn15	Zn	-0.045273	-0.813352	0.056171
Zn16	Zn	0.204727	-0.563352	0.306171
O17	O	-0.464669	-1.393998	-0.378231
O18	O	-0.214669	-1.143998	-0.128231
O19	O	0.035331	-0.893998	0.121769
O20	O	0.285331	-0.643998	0.371769
O21	O	-0.405428	-1.609649	-0.426473
O22	O	-0.155428	-1.359649	-0.176473
O23	O	0.094572	-1.109649	0.073527
O24	O	0.344572	-0.859649	0.323527
O25	O	-0.523976	-1.453166	-0.202762
O26	O	-0.273976	-1.203166	0.047238
O27	O	-0.023976	-0.953166	0.297238
O28	O	0.226024	-0.703166	0.547238
O29	O	-0.249066	-1.334826	-0.330049
O30	O	0.000934	-1.084826	-0.080049
O31	O	0.250934	-0.834826	0.169951
O32	O	0.500934	-0.584826	0.419951
O33	O	-0.523944	-1.609576	-0.330034
O34	O	-0.273944	-1.359576	-0.080034
O35	O	-0.023944	-1.109576	0.169966
O36	O	0.226056	-0.859576	0.419966
O37	O	-0.249042	-1.453335	-0.426481
O38	O	0.000958	-1.203335	-0.176481
O39	O	0.250958	-0.953335	0.073519
O40	O	0.500958	-0.703335	0.323519
O41	O	-0.405484	-1.334729	-0.202768
O42	O	-0.155484	-1.084729	0.047232
O43	O	0.094516	-0.834729	0.297232
O44	O	0.344516	-0.584729	0.547232
O45	O	-0.405428	-1.178391	-0.330008
O46	O	-0.155428	-0.928391	-0.080008
O47	O	0.094572	-0.678391	0.169992
O48	O	0.344572	-0.428391	0.419992
O49	O	-0.523845	-1.334784	-0.553681
O50	O	-0.273845	-1.084784	-0.303681
O51	O	-0.023845	-0.834784	-0.053681
O52	O	0.226155	-0.584784	0.196319
O53	O	-0.523876	-1.178373	-0.426409
O54	O	-0.273876	-0.928373	-0.176409
O55	O	-0.023876	-0.678373	0.073591
O56	O	0.226124	-0.428373	0.323591
O57	O	-0.405372	-1.453311	-0.553712
O58	O	-0.155372	-1.203311	-0.303712
O59	O	0.094628	-0.953311	-0.053712
O60	O	0.344628	-0.703311	0.196288
O61	O	-0.680306	-1.453142	-0.329993
O62	O	-0.430306	-1.203142	-0.079993
O63	O	-0.180306	-0.953142	0.170007
O64	O	0.069694	-0.703142	0.420007
O65	O	-0.680263	-1.334687	-0.426401
O66	O	-0.430263	-1.084687	-0.176401
O67	O	-0.180263	-0.834687	0.073599
O68	O	0.069737	-0.584687	0.323599
C69	C	-0.464650	-1.143383	-0.378206
C70	C	-0.214650	-0.893383	-0.128206
C71	C	0.035350	-0.643383	0.121794
C72	C	0.285350	-0.393383	0.371794
C73	C	-0.464665	-1.036169	-0.378213
C74	C	-0.214665	-0.786169	-0.128213
C75	C	0.035335	-0.536169	0.121787
C76	C	0.285335	-0.286169	0.371787
C77	C	-0.464663	-0.839874	-0.378228
C78	C	-0.214663	-0.589874	-0.128228
C79	C	0.035337	-0.339874	0.121772
C80	C	0.285337	-0.089874	0.371772
C81	C	-0.464661	-0.949107	-0.378218
C82	C	-0.214661	-0.699107	-0.128218
C83	C	0.035339	-0.449107	0.121782
C84	C	0.285339	-0.199107	0.371782
C85	C	-0.715283	-1.393927	-0.378208
C86	C	-0.465283	-1.143927	-0.128208
C87	C	-0.215283	-0.893927	0.121792
C88	C	0.034717	-0.643927	0.371792
C89	C	-0.822497	-1.393985	-0.378225
C90	C	-0.572497	-1.143985	-0.128225
C91	C	-0.322497	-0.893985	0.121775
C92	C	-0.072497	-0.643985	0.371775
C93	C	-1.018792	-1.394087	-0.378274
C94	C	-0.768792	-1.144087	-0.128274
C95	C	-0.518792	-0.894087	0.121726
C96	C	-0.268792	-0.644087	0.371726
C97	C	-0.909560	-1.394028	-0.378249
C98	C	-0.659560	-1.144028	-0.128249
C99	C	-0.409560	-0.894028	0.121751
C100	C	-0.159560	-0.644028	0.371751
C101	C	-0.213076	-1.394094	-0.378271
C102	C	0.036924	-1.144094	-0.128271
C103	C	0.286924	-0.894094	0.121729
C104	C	0.536924	-0.644094	0.371729
C105	C	-0.105862	-1.394136	-0.378288
C106	C	0.144138	-1.144136	-0.128288
C107	C	0.394138	-0.894136	0.121712
C108	C	0.644138	-0.644136	0.371712
C109	C	-0.464598	-1.394056	-0.582975
C110	C	-0.214598	-1.144056	-0.332975
C111	C	0.035402	-0.894056	-0.082975
C112	C	0.285402	-0.644056	0.167025
C113	C	-0.464568	-1.394081	-0.670225
C114	C	-0.214568	-1.144081	-0.420225
C115	C	0.035432	-0.894081	-0.170225
C116	C	0.285432	-0.644081	0.079775
C117	C	-0.464683	-0.645590	-0.378249
C118	C	-0.214683	-0.395590	-0.128249
C119	C	0.035317	-0.145590	0.121751
C120	C	0.285317	0.104410	0.371751
C121	C	-0.464672	-0.752804	-0.378238
C122	C	-0.214672	-0.502804	-0.128238
C123	C	0.035328	-0.252804	0.121762
C124	C	0.285328	-0.002804	0.371762
C125	C	-0.402874	-1.455800	-0.711233
C126	C	-0.152874	-1.205800	-0.461233
C127	C	0.097126	-0.955800	-0.211233
C128	C	0.347126	-0.705800	0.038767
C129	C	-0.402842	-1.455812	-0.793213
C130	C	-0.152842	-1.205812	-0.543213
C131	C	0.097158	-0.955812	-0.293213
C132	C	0.347158	-0.705812	-0.043213
C133	C	-0.464509	-1.394108	-0.834185
C134	C	-0.214509	-1.144108	-0.584185
C135	C	0.035491	-0.894108	-0.334185
C136	C	0.285491	-0.644108	-0.084185
C137	C	-0.526206	-1.332382	-0.793171
C138	C	-0.276206	-1.082382	-0.543171
C139	C	-0.026206	-0.832382	-0.293171
C140	C	0.223794	-0.582382	-0.043171
C141	C	-0.526232	-1.332366	-0.711192
C142	C	-0.276232	-1.082366	-0.461192
C143	C	-0.026232	-0.832366	-0.211192
C144	C	0.223768	-0.582366	0.038808
C145	C	-0.526148	-1.332420	-0.964042
C146	C	-0.276148	-1.082420	-0.714042
C147	C	-0.026148	-0.832420	-0.464042
C148	C	0.223852	-0.582420	-0.214042
C149	C	-0.526123	-1.332437	-1.046026
C150	C	-0.276123	-1.082437	-0.796026
C151	C	-0.026123	-0.832437	-0.546026
C152	C	0.223877	-0.582437	-0.296026
C153	C	-0.402757	-1.455867	-1.046063
C154	C	-0.152757	-1.205867	-0.796063
C155	C	0.097243	-0.955867	-0.546063
C156	C	0.347243	-0.705867	-0.296063
C157	C	-0.402784	-1.455851	-0.964084
C158	C	-0.152784	-1.205851	-0.714084
C159	C	0.097216	-0.955851	-0.464084
C160	C	0.347216	-0.705851	-0.214084
C161	C	-0.464482	-1.394125	-0.923076
C162	C	-0.214482	-1.144125	-0.673076
C163	C	0.035518	-0.894125	-0.423076
C164	C	0.285518	-0.644125	-0.173076
C165	C	-0.464670	-1.393995	-0.174283
C166	C	-0.214670	-1.143995	0.075717
C167	C	0.035330	-0.893995	0.325717
C168	C	0.285330	-0.643995	0.575717
C169	C	-0.464429	-1.394157	-0.087034
C170	C	-0.214429	-1.144157	0.162966
C171	C	0.035571	-0.894157	0.412966
C172	C	0.285571	-0.644157	0.662966
H173	H	-0.352607	-1.506073	-0.826598
H174	H	-0.102607	-1.256073	-0.576598
H175	H	0.147393	-1.006073	-0.326598
H176	H	0.397393	-0.756073	-0.076598
H177	H	-0.352574	-1.506101	-0.930727
H178	H	-0.102574	-1.256101	-0.680727
H179	H	0.147426	-1.006101	-0.430727
H180	H	0.397426	-0.756101	-0.180727
O181	O	-0.336206	-1.522435	-1.090293
O182	O	-0.086206	-1.272435	-0.840293
O183	O	0.163794	-1.022435	-0.590293
O184	O	0.413794	-0.772435	-0.340293
H185	H	-0.352771	-1.598131	-1.074577
H186	H	-0.102771	-1.348131	-0.824577
H187	H	0.147229	-1.098131	-0.574577
H188	H	0.397229	-0.848131	-0.324577
O189	O	-0.592624	-1.265878	-1.090222
O190	O	-0.342624	-1.015878	-0.840222
O191	O	-0.092624	-0.765878	-0.590222
O192	O	0.157376	-0.515878	-0.340222
H193	H	-0.635519	-1.222942	-1.047936
H194	H	-0.385519	-0.972942	-0.797936
H195	H	-0.135519	-0.722942	-0.547936
H196	H	0.114481	-0.472942	-0.297936
H197	H	-0.576460	-1.282098	-0.677805
H198	H	-0.326460	-1.032098	-0.427805
H199	H	-0.076460	-0.782098	-0.177805
H200	H	0.173540	-0.532098	0.072195
O201	O	-0.592685	-1.265841	-0.919807
O202	O	-0.342685	-1.015841	-0.669807
O203	O	-0.092685	-0.765841	-0.419807
O204	O	0.157315	-0.515841	-0.169807
H205	H	-0.635568	-1.222941	-0.962068
H206	H	-0.385568	-0.972941	-0.712068
H207	H	-0.135568	-0.722941	-0.462068
H208	H	0.114432	-0.472941	-0.212068
H209	H	-0.352660	-1.506050	-0.677880
H210	H	-0.102660	-1.256050	-0.427880
H211	H	0.147340	-1.006050	-0.177880
H212	H	0.397340	-0.756050	0.072120
O213	O	-0.592712	-1.265819	-0.837358
O214	O	-0.342712	-1.015819	-0.587358
O215	O	-0.092712	-0.765819	-0.337358
O216	O	0.157288	-0.515819	-0.087358
H217	H	-0.641788	-1.308975	-0.874703
H218	H	-0.391788	-1.058975	-0.624703
H219	H	-0.141788	-0.808975	-0.374703
H220	H	0.108212	-0.558975	-0.124703
