data_functionalizedCrystal
_audit_creation_method	'MofGen! by Chris Wilmer'
_symmetry_space_group_name_H-M	'P1'
_symmetry_Int_Tables_number	1
_symmetry_cell_setting	triclinic
loop_
_symmetry_equiv_pos_as_xyz
  x,y,z
_cell_length_a	18.215407
_cell_length_b	18.050589
_cell_length_c	18.215399
_cell_angle_alpha	89.976397
_cell_angle_beta	89.980167
_cell_angle_gamma	90.028669
loop_
_atom_site_label
_atom_site_type_symbol
_atom_site_fract_x
_atom_site_fract_y
_atom_site_fract_z
Zn1	Zn	1.125055	-0.295658	-0.416138
Zn2	Zn	1.625055	0.204342	0.083862
Zn3	Zn	1.124956	-0.419853	-0.293081
Zn4	Zn	1.624956	0.080147	0.206919
Zn5	Zn	1.001987	-0.295682	-0.293085
Zn6	Zn	1.501987	0.204318	0.206915
Zn7	Zn	1.001946	-0.419812	-0.416106
Zn8	Zn	1.501946	0.080188	0.083894
O9	O	1.063486	-0.357751	-0.354603
O10	O	1.563486	0.142249	0.145397
O11	O	1.228026	-0.312140	-0.399826
O12	O	1.728026	0.187860	0.100174
O13	O	1.108620	-0.403409	-0.190097
O14	O	1.608620	0.096591	0.309903
O15	O	1.018371	-0.191755	-0.309424
O16	O	1.518371	0.308245	0.190576
O17	O	1.227953	-0.403386	-0.309417
O18	O	1.727953	0.096614	0.190583
O19	O	1.108788	-0.191737	-0.399830
O20	O	1.608788	0.308263	0.100170
O21	O	1.018275	-0.312181	-0.190101
O22	O	1.518275	0.187819	0.309899
O23	O	0.898998	-0.312141	-0.309393
O24	O	1.398998	0.187859	0.190607
O25	O	1.018301	-0.403315	-0.519095
O26	O	1.518301	0.096685	-0.019095
O27	O	0.898967	-0.403339	-0.399775
O28	O	1.398967	0.096661	0.100225
O29	O	1.108748	-0.312100	-0.519118
O30	O	1.608748	0.187900	-0.019118
O31	O	1.108580	-0.523772	-0.309385
O32	O	1.608580	-0.023772	0.190615
O33	O	1.018205	-0.523742	-0.399771
O34	O	1.518205	-0.023742	0.100229
C35	C	0.872280	-0.357739	-0.354582
C36	C	1.372280	0.142261	0.145418
C37	C	0.790481	-0.357751	-0.354590
C38	C	1.290481	0.142249	0.145410
C39	C	1.063397	-0.550704	-0.354590
C40	C	1.563397	-0.050704	0.145410
C41	C	1.063427	-0.633249	-0.354610
C42	C	1.563427	-0.133249	0.145390
C43	C	0.602291	-0.405312	-0.401593
C44	C	1.102291	0.094688	0.098407
C45	C	0.525432	-0.405315	-0.401602
C46	C	1.025432	0.094685	0.098398
C47	C	0.525434	-0.310204	-0.307628
C48	C	1.025434	0.189796	0.192372
C49	C	0.602291	-0.310199	-0.307623
C50	C	1.102291	0.189801	0.192377
C51	C	0.640718	-0.357757	-0.354605
C52	C	1.140718	0.142243	0.145395
C53	C	0.487001	-0.357765	-0.354619
C54	C	0.987001	0.142235	0.145381
C55	C	0.403668	-0.357767	-0.354628
C56	C	0.903668	0.142233	0.145372
C57	C	0.724056	-0.357754	-0.354596
C58	C	1.224056	0.142246	0.145404
C59	C	1.014329	-0.832710	-0.403744
C60	C	1.514329	-0.332710	0.096256
C61	C	0.996389	-0.882151	-0.336590
C62	C	1.496389	-0.382151	0.163410
C63	C	1.063499	-0.784380	-0.354619
C64	C	1.563499	-0.284380	0.145381
C65	C	1.081475	-0.882021	-0.421781
C66	C	1.581475	-0.382021	0.078219
C67	C	1.063567	-0.930365	-0.354635
C68	C	1.563567	-0.430365	0.145365
C69	C	1.045524	-0.832733	-0.287430
C70	C	1.545524	-0.332733	0.212570
C71	C	1.130641	-0.832599	-0.372666
C72	C	1.630641	-0.332599	0.127334
C73	C	1.112726	-0.882017	-0.305466
C74	C	1.612726	-0.382017	0.194534
C75	C	1.063458	-0.700281	-0.354612
C76	C	1.563458	-0.200281	0.145388
C77	C	1.063609	-1.014461	-0.354635
C78	C	1.563609	-0.514461	0.145365
C79	C	1.255439	-0.357765	-0.354624
C80	C	1.755439	0.142235	0.145376
C81	C	1.337238	-0.357770	-0.354634
C82	C	1.837238	0.142230	0.145366
C83	C	1.063531	-0.357700	-0.546556
C84	C	1.563531	0.142300	-0.046556
C85	C	1.063550	-0.357678	-0.628355
C86	C	1.563550	0.142322	-0.128355
C87	C	1.063595	-0.164046	-0.354631
C88	C	1.563595	0.335954	0.145369
C89	C	1.063642	-0.081500	-0.354643
C90	C	1.563642	0.418500	0.145357
C91	C	1.110663	-0.310138	-0.816562
C92	C	1.610663	0.189862	-0.316562
C93	C	1.110672	-0.310117	-0.893421
C94	C	1.610672	0.189883	-0.393421
C95	C	1.016489	-0.405104	-0.893385
C96	C	1.516489	0.094896	-0.393385
C97	C	1.016477	-0.405121	-0.816528
C98	C	1.516477	0.094879	-0.316528
C99	C	1.063568	-0.357639	-0.778118
C100	C	1.563568	0.142361	-0.278118
C101	C	1.063589	-0.357600	-0.931834
C102	C	1.563589	0.142400	-0.431834
C103	C	1.063598	-0.357577	-1.015168
C104	C	1.563598	0.142423	-0.515168
C105	C	1.063558	-0.357661	-0.694779
C106	C	1.563558	0.142339	-0.194779
C107	C	1.063484	-0.357749	-0.163396
C108	C	1.563484	0.142251	0.336604
C109	C	1.063607	-0.357561	-0.081598
C110	C	1.563607	0.142439	0.418402
H111	H	0.494148	-0.444038	-0.439866
H112	H	0.994148	0.055962	0.060134
O113	O	1.156491	-0.263952	-0.930651
O114	O	1.656491	0.236048	-0.430651
C115	C	1.198035	-0.222036	-0.880266
C116	C	1.698035	0.277964	-0.380266
H117	H	1.200558	-0.252470	-0.825475
H118	H	1.700558	0.247530	-0.325475
H119	H	1.256026	-0.214112	-0.902485
H120	H	1.756026	0.285888	-0.402485
H121	H	1.171115	-0.165634	-0.872094
H122	H	1.671115	0.334366	-0.372094
H123	H	0.978151	-0.443763	-0.924667
H124	H	1.478151	0.056237	-0.424667
O125	O	1.198380	-0.806700	-0.390810
O126	O	1.698380	-0.306700	0.109190
C127	C	1.250338	-0.832900	-0.339667
C128	C	1.750338	-0.332900	0.160333
H129	H	1.228559	-0.885320	-0.312340
H130	H	1.728559	-0.385320	0.187660
H131	H	1.304015	-0.845865	-0.369174
H132	H	1.804015	-0.345865	0.130826
H133	H	1.260454	-0.788703	-0.296134
H134	H	1.760454	-0.288703	0.203866
H135	H	1.149006	-0.271474	-0.785291
H136	H	1.649006	0.228526	-0.285291
O137	O	0.970705	-0.451338	-0.779292
O138	O	1.470705	0.048662	-0.279292
C139	C	0.929135	-0.493235	-0.829672
C140	C	1.429135	0.006765	-0.329672
H141	H	0.959284	-0.495798	-0.884465
H142	H	1.459284	0.004202	-0.384465
H143	H	0.921251	-0.551751	-0.807450
H144	H	1.421251	-0.051751	-0.307450
H145	H	0.873258	-0.466036	-0.837840
H146	H	1.373258	0.033964	-0.337840
H147	H	0.494138	-0.271485	-0.269377
H148	H	0.994138	0.228515	0.230623
O149	O	0.639510	-0.263977	-0.261906
O150	O	1.139510	0.236023	0.238094
C151	C	0.589115	-0.221994	-0.220448
C152	C	1.089115	0.278006	0.279552
H153	H	0.534314	-0.252411	-0.217850
H154	H	1.034314	0.247589	0.282150
H155	H	0.611305	-0.213997	-0.162478
H156	H	1.111305	0.286003	0.337522
H157	H	0.580977	-0.165626	-0.247491
H158	H	1.080977	0.334374	0.252509
O159	O	0.964600	-0.807000	-0.453244
O160	O	1.464600	-0.307000	0.046756
C161	C	0.929350	-0.867330	-0.487509
C162	C	1.429350	-0.367330	0.012491
H163	H	0.933167	-0.918214	-0.450620
H164	H	1.433167	-0.418214	0.049380
H165	H	0.869183	-0.853107	-0.497355
H166	H	1.369183	-0.353107	0.002645
H167	H	0.957194	-0.879455	-0.542260
H168	H	1.457194	-0.379455	-0.042260
O169	O	0.639505	-0.451527	-0.447304
O170	O	1.139505	0.048473	0.052696
C171	C	0.589103	-0.493512	-0.488767
C172	C	1.089103	0.006488	0.011233
H173	H	0.534330	-0.463099	-0.491365
H174	H	1.034330	0.036901	0.008635
H175	H	0.611328	-0.501502	-0.546737
H176	H	1.111328	-0.001502	-0.046737
H177	H	0.580894	-0.549883	-0.461728
H178	H	1.080894	-0.049883	0.038272
H179	H	0.939642	-0.903933	-0.321340
H180	H	1.439642	-0.403933	0.178660
O181	O	1.027214	-0.806983	-0.219704
O182	O	1.527214	-0.306983	0.280296
C183	C	0.963093	-0.763569	-0.224817
C184	C	1.463093	-0.263569	0.275183
H185	H	0.931089	-0.779991	-0.276065
H186	H	1.431089	-0.279991	0.223935
H187	H	0.927545	-0.773085	-0.174159
H188	H	1.427545	-0.273085	0.325841
H189	H	0.978793	-0.702525	-0.228362
H190	H	1.478793	-0.202525	0.271638
O191	O	1.162285	-0.907655	-0.255759
O192	O	1.662285	-0.407655	0.244241
C193	C	1.143106	-0.882390	-0.185079
C194	C	1.643106	-0.382390	0.314921
H195	H	1.082043	-0.868662	-0.183622
H196	H	1.582043	-0.368662	0.316378
H197	H	1.155503	-0.927466	-0.143024
H198	H	1.655503	-0.427466	0.356976
H199	H	1.176263	-0.830615	-0.171436
H200	H	1.676263	-0.330615	0.328564
H201	H	1.096652	-0.903671	-0.478573
H202	H	1.596652	-0.403671	0.021427
