data_functionalizedCrystal
_audit_creation_method	'MofGen! by Chris Wilmer'
_symmetry_space_group_name_H-M	'P1'
_symmetry_Int_Tables_number	1
_symmetry_cell_setting	triclinic
loop_
_symmetry_equiv_pos_as_xyz
  x,y,z
_cell_length_a	13.262522
_cell_length_b	26.210047
_cell_length_c	13.339070
_cell_angle_alpha	89.991514
_cell_angle_beta	99.428816
_cell_angle_gamma	105.924828
loop_
_atom_site_label
_atom_site_type_symbol
_atom_site_fract_x
_atom_site_fract_y
_atom_site_fract_z
O1	O	1.432431	0.241191	0.136332
O2	O	1.131162	0.199388	0.151182
O3	O	1.247220	0.215490	-0.003650
O4	O	1.316372	0.225088	0.291164
O5	O	1.247196	0.130629	-0.003626
O6	O	1.131138	0.114526	0.151206
O7	O	1.432407	0.156329	0.136356
Cu8	Cu	1.281770	0.127679	0.143783
Cu9	Cu	1.281799	0.228038	0.143755
O10	O	1.316348	0.140227	0.291188
C11	C	1.091803	0.151497	0.150365
C12	C	0.974559	0.135229	0.147882
C13	C	0.919471	0.081325	0.146731
C14	C	0.809313	0.066036	0.144388
C15	C	0.754232	0.104649	0.143205
C16	C	0.809320	0.158554	0.144364
C17	C	0.919488	0.173844	0.146699
C18	C	0.754249	0.197168	0.143174
C19	C	0.809337	0.251073	0.144332
C20	C	0.919494	0.266361	0.146668
C21	C	0.974575	0.227748	0.147851
C22	C	0.644080	0.181877	0.140839
C23	C	0.644097	0.274396	0.140807
C24	C	0.754256	0.289686	0.143150
N25	N	1.281757	0.057094	0.143803
C26	C	1.333186	-0.288285	0.075210
C27	C	1.333206	-0.501941	0.075196
O28	O	1.376893	-0.523501	0.016881
N29	N	1.281798	-0.535795	0.143733
C30	C	1.230375	-0.516233	0.212272
O31	O	1.186641	-0.549931	0.270559
C32	C	1.230351	-0.302578	0.212281
C33	C	1.281771	-0.268726	0.143747
C34	C	1.384602	-0.254433	0.006682
C35	C	1.384601	-0.201021	0.006689
C36	C	1.333186	-0.181462	0.075226
C37	C	1.281771	-0.215314	0.143755
C38	C	1.178923	-0.283018	0.280815
C39	C	1.178919	-0.229601	0.280809
C40	C	1.230339	-0.195748	0.212276
C41	C	1.230355	-0.142343	0.212300
N42	N	1.281763	-0.108490	0.143764
C43	C	1.333178	-0.128049	0.075227
C44	C	1.230394	-0.628403	0.212265
C45	C	1.230402	-0.681816	0.212264
C46	C	1.333230	-0.667521	0.075186
C47	C	1.333228	-0.614106	0.075193
C48	C	1.281802	-0.594549	0.143729
C49	C	1.333174	-0.015882	0.075249
C50	C	1.333173	0.037534	0.075266
C51	C	1.230340	0.023234	0.212339
C52	C	1.230346	-0.030177	0.212327
C53	C	1.281764	-0.049733	0.143773
O54	O	1.186680	-0.120748	0.270577
O55	O	1.376886	-0.094345	0.016934
C56	C	1.333187	-0.341696	0.075202
C57	C	1.281772	-0.375548	0.143731
C58	C	1.230356	-0.355989	0.212268
C59	C	1.281779	-0.428961	0.143731
C60	C	1.333195	-0.448521	0.075194
C61	C	1.384603	-0.414667	0.006658
C62	C	1.384602	-0.361256	0.006666
C63	C	1.178948	-0.389843	0.280804
C64	C	1.178954	-0.443254	0.280791
C65	C	1.230369	-0.462813	0.212255
C66	C	1.471765	0.204221	0.137173
C67	C	1.589010	0.220493	0.139655
N68	N	1.281817	0.298624	0.143727
C69	C	1.235527	0.171439	-0.041376
C70	C	1.200709	0.166610	-0.153822
C71	C	1.471440	0.204176	-0.517491
C72	C	1.504157	0.208710	-0.411842
C73	C	1.428297	0.198186	-0.347332
C74	C	1.319716	0.183125	-0.388481
C75	C	1.286995	0.178586	-0.494140
C76	C	1.243853	0.172596	-0.323981
C77	C	1.135271	0.157536	-0.365130
C78	C	1.102556	0.152998	-0.470779
C79	C	1.178416	0.163522	-0.535289
C80	C	1.276573	0.177136	-0.218322
C81	C	1.092129	0.151546	-0.194971
C82	C	1.059412	0.147011	-0.300620
C83	C	1.328041	0.184279	0.328914
C84	C	1.362860	0.189112	0.441360
H85	H	0.799124	0.333576	0.144093
C86	C	1.623588	0.225284	-0.366581
C87	C	1.707034	0.236867	-0.437532
C88	C	1.826473	0.253444	-0.392270
C89	C	1.862467	0.258438	-0.276056
C90	C	1.779019	0.246855	-0.205098
C91	C	1.659580	0.230278	-0.250360
H92	H	1.680391	0.233170	-0.523567
H93	H	1.888246	0.262019	-0.444799
H94	H	1.950883	0.270710	-0.242550
H95	H	1.805663	0.250552	-0.119063
H96	H	1.597807	0.221703	-0.197831
H97	H	1.533192	0.212739	-0.570023
C98	C	0.748718	0.006744	0.143109
C99	C	0.809297	-0.035730	0.144407
C100	C	0.748701	-0.095025	0.143125
C101	C	0.627525	-0.111846	0.140544
C102	C	0.566939	-0.069371	0.139246
C103	C	0.627536	-0.010075	0.140528
H104	H	0.899005	-0.023279	0.146318
H105	H	0.793551	-0.126468	0.144086
H106	H	0.582668	-0.155740	0.139595
H107	H	0.477231	-0.081822	0.137335
H108	H	0.582685	0.021367	0.139567
H109	H	1.151782	0.159832	-0.621318
H110	H	0.971003	0.134748	-0.334139
C111	C	1.122351	-0.320250	0.356197
C112	C	1.185953	-0.348146	0.433865
C113	C	1.129375	-0.385379	0.509249
C114	C	1.009194	-0.394715	0.506964
C115	C	0.945585	-0.366818	0.429293
C116	C	1.002163	-0.329585	0.353909
H117	H	1.274925	-0.341236	0.435559
H118	H	1.176464	-0.406030	0.566746
H119	H	0.967312	-0.422277	0.562767
H120	H	0.856613	-0.373729	0.427599
H121	H	0.955074	-0.308934	0.296412
H122	H	1.364981	0.189398	-0.184830
H123	H	1.064276	0.240194	0.149761
C124	C	1.441158	-0.324022	-0.068729
C125	C	1.533066	-0.274545	-0.028783
C126	C	1.589623	-0.237316	-0.104183
C127	C	1.554272	-0.249563	-0.219529
C128	C	1.462359	-0.299043	-0.259481
C129	C	1.405802	-0.336272	-0.184081
H130	H	1.559240	-0.265477	0.056609
H131	H	1.657664	-0.200688	-0.074607
H132	H	1.596139	-0.222004	-0.275344
H133	H	1.436185	-0.308111	-0.344872
H134	H	1.337762	-0.372900	-0.213656
C135	C	0.980074	0.038861	0.148037
C136	C	1.069475	0.038560	0.237494
C137	C	1.130084	-0.003905	0.238802
C138	C	1.101292	-0.046069	0.150652
C139	C	1.011887	-0.045769	0.061187
C140	C	0.951278	-0.003304	0.059880
H141	H	1.090792	0.069774	0.302754
H142	H	1.196268	-0.004127	0.305029
H143	H	1.146159	-0.077504	0.151619
H144	H	0.990570	-0.076982	-0.004072
H145	H	0.885094	-0.003082	-0.006348
H146	H	1.030358	0.142974	-0.142447
H147	H	1.137037	-0.213681	0.336619
C148	C	0.983116	0.136425	-0.516039
C149	C	0.911522	0.082428	-0.491860
C150	C	0.792081	0.065855	-0.537115
C151	C	0.744234	0.103279	-0.606549
C152	C	0.815829	0.157281	-0.630730
C153	C	0.935270	0.173853	-0.585475
H154	H	0.946940	0.054721	-0.440459
H155	H	0.739082	0.025879	-0.519214
H156	H	0.655817	0.091011	-0.640049
H157	H	0.780411	0.184988	-0.682132
H158	H	0.988269	0.213829	-0.603377
H159	H	0.964342	0.310254	0.147597
H160	H	0.599251	0.305838	0.139846
H161	H	1.454942	0.201879	-0.261309
H162	H	0.599239	0.137988	0.139904
H163	H	0.664536	0.092197	0.141300
C164	C	1.441159	-0.436189	-0.068736
C165	C	1.377525	-0.481737	-0.146386
C166	C	1.434072	-0.503263	-0.221780
C167	C	1.554251	-0.479241	-0.219523
C168	C	1.617891	-0.433690	-0.141870
C169	C	1.561345	-0.412164	-0.066476
H170	H	1.288555	-0.499523	-0.148059
H171	H	1.386961	-0.536984	-0.279264
H172	H	1.596110	-0.495176	-0.275334
H173	H	1.706862	-0.415904	-0.140197
H174	H	1.608456	-0.378443	-0.008992
C175	C	1.389734	0.074772	-0.000128
C176	C	1.446283	0.053252	-0.075521
C177	C	1.502840	0.090487	-0.150913
C178	C	1.502849	0.149242	-0.150913
C179	C	1.446297	0.170765	-0.075518
C180	C	1.389740	0.133530	-0.000125
H181	H	1.446279	0.009756	-0.075523
H182	H	1.544703	0.074555	-0.206726
H183	H	1.544716	0.176806	-0.206723
H184	H	1.446302	0.214261	-0.075515
H185	H	1.347877	0.149462	0.055688
C186	C	1.122387	-0.480489	0.356184
C187	C	1.002207	-0.489825	0.353906
C188	C	0.945632	-0.527060	0.429289
C189	C	1.009237	-0.554959	0.506949
C190	C	1.129424	-0.545624	0.509230
C191	C	1.185998	-0.508389	0.433848
H192	H	0.955116	-0.469172	0.296415
H193	H	0.856662	-0.533970	0.427600
H194	H	0.967357	-0.582523	0.562752
H195	H	1.176514	-0.566277	0.566722
H196	H	1.274969	-0.501479	0.435537
H197	H	1.375042	-0.031798	0.019425
C198	C	1.173790	-0.067415	0.287720
C199	C	1.053613	-0.076750	0.285454
C200	C	0.997046	-0.113985	0.360842
C201	C	1.060657	-0.141884	0.438495
C202	C	1.180842	-0.132550	0.440764
C203	C	1.237408	-0.095315	0.365377
H204	H	1.006518	-0.056097	0.227967
H205	H	0.908077	-0.120894	0.359162
H206	H	1.018783	-0.169447	0.494302
H207	H	1.227937	-0.153203	0.498251
H208	H	1.326377	-0.088406	0.367057
H209	H	1.426468	-0.173461	-0.049119
H210	H	1.426469	-0.270353	-0.049134
H211	H	1.375098	-0.586546	0.019386
C212	C	1.389781	-0.689044	-0.000210
C213	C	1.354419	-0.686605	-0.115557
C214	C	1.410959	-0.708132	-0.190956
C215	C	1.502860	-0.732099	-0.151007
C216	C	1.538227	-0.734539	-0.035654
C217	C	1.481688	-0.713012	0.039744
H218	H	1.286384	-0.668862	-0.145135
H219	H	1.384778	-0.706325	-0.276347
H220	H	1.544714	-0.748035	-0.206821
H221	H	1.606262	-0.752282	-0.006077
H222	H	1.507869	-0.714819	0.125136
H223	H	1.188545	-0.709374	0.268081
H224	H	1.188515	-0.612485	0.268077
H225	H	1.188482	0.039168	0.268144
H226	H	1.137078	-0.373923	0.336614
