data_functionalizedCrystal
_audit_creation_method	'MofGen! by Chris Wilmer'
_symmetry_space_group_name_H-M	'P1'
_symmetry_Int_Tables_number	1
_symmetry_cell_setting	triclinic
loop_
_symmetry_equiv_pos_as_xyz
  x,y,z
_cell_length_a	6.817900
_cell_length_b	10.773894
_cell_length_c	14.858565
_cell_angle_alpha	96.149163
_cell_angle_beta	104.523916
_cell_angle_gamma	96.645922
loop_
_atom_site_label
_atom_site_type_symbol
_atom_site_fract_x
_atom_site_fract_y
_atom_site_fract_z
V1	V	-3.953947	-0.389283	-0.125250
O2	O	-3.937558	-0.381514	0.009535
O3	O	-3.911047	-0.386965	-0.251731
O4	O	-3.871469	-0.558905	-0.121780
O5	O	-3.977411	-0.208383	-0.121315
V6	V	-4.441278	-0.367604	-0.109310
O7	O	-4.206852	-0.436837	-0.160214
O8	O	-4.638569	-0.320050	-0.074345
O9	O	-4.260970	-0.369922	0.017171
O10	O	-4.575063	-0.375372	-0.244095
O11	O	-4.535210	-0.548503	-0.113244
O12	O	-4.300549	-0.197981	-0.112780
C13	C	-3.758489	-0.380912	-0.282613
C14	C	-3.804473	-0.380148	-0.386003
C15	C	-3.708002	-0.600238	-0.116846
C16	C	-3.721887	-0.738908	-0.114846
C17	C	-3.900112	-0.806779	-0.118312
C18	C	-3.914467	-0.950102	-0.116245
C19	C	-3.972778	-0.377365	-0.764598
C20	C	-3.925942	-0.378138	-0.659261
C21	C	-3.888626	-0.378755	-0.575304
C22	C	-3.841788	-0.379531	-0.469960
C23	C	-4.076872	-0.375971	0.048048
C24	C	-4.010124	-0.376744	0.151437
C25	C	-4.127359	-0.156642	-0.117717
C26	C	-4.092713	-0.017971	-0.119712
H27	H	-4.042067	-0.758780	-0.122803
Br28	Br	-4.329342	-0.937988	-0.127184
H29	H	-3.772493	-0.998094	-0.111741
H30	H	-3.579926	-0.786905	-0.110342
