data_functionalizedCrystal
_audit_creation_method	'MofGen! by Chris Wilmer'
_symmetry_space_group_name_H-M	'P1'
_symmetry_Int_Tables_number	1
_symmetry_cell_setting	triclinic
loop_
_symmetry_equiv_pos_as_xyz
  x,y,z
_cell_length_a	14.908520
_cell_length_b	14.908571
_cell_length_c	14.908308
_cell_angle_alpha	90.175053
_cell_angle_beta	96.360765
_cell_angle_gamma	90.205961
loop_
_atom_site_label
_atom_site_type_symbol
_atom_site_fract_x
_atom_site_fract_y
_atom_site_fract_z
Zn1	Zn	-0.470613	1.316651	-0.613065
Zn2	Zn	-0.613252	1.316549	-0.470429
Zn3	Zn	-0.453291	1.176020	-0.453125
Zn4	Zn	-0.612180	1.157642	-0.612023
O5	O	-0.537334	1.241715	-0.537161
O6	O	-0.497231	1.441995	-0.601822
O7	O	-0.585232	1.305556	-0.341941
O8	O	-0.329399	1.202409	-0.467536
O9	O	-0.602028	1.441920	-0.497029
O10	O	-0.342124	1.305730	-0.585043
O11	O	-0.467710	1.202310	-0.329228
O12	O	-0.466671	1.048225	-0.466525
O13	O	-0.600202	1.171086	-0.738354
O14	O	-0.583406	1.034722	-0.583267
O15	O	-0.496192	1.287909	-0.739120
O16	O	-0.739300	1.287736	-0.496018
O17	O	-0.738513	1.170987	-0.600046
C18	C	-0.523043	1.008970	-0.522906
C19	C	-0.516953	0.909397	-0.516830
C20	C	-0.771629	1.227379	-0.549818
C21	C	-0.871868	1.221326	-0.555268
C22	C	-1.060998	1.331634	-0.457284
C23	C	-1.155181	1.325950	-0.462402
C24	C	-1.154420	1.204279	-0.570626
C25	C	-1.060237	1.209963	-0.565508
C26	C	-1.013529	1.273642	-0.508834
C27	C	-0.919343	1.279321	-0.503712
C28	C	-0.918584	1.157655	-0.611940
C29	C	-1.012768	1.151970	-0.617058
C30	C	-0.627234	0.708277	-0.626831
C31	C	-0.621514	0.614720	-0.621125
C32	C	-0.499789	0.628723	-0.499719
C33	C	-0.505509	0.722281	-0.505424
C34	C	-0.569235	0.762054	-0.568981
C35	C	-0.574958	0.855613	-0.574682
C36	C	-0.453230	0.869615	-0.453280
C37	C	-0.447510	0.776058	-0.447575
C38	C	-0.302127	1.256131	-0.524476
C39	C	-0.201896	1.262274	-0.519070
C40	C	-0.550010	1.227459	-0.772372
C41	C	-0.555411	1.221383	-0.872606
C42	C	-0.551681	1.475370	-0.551472
C43	C	-0.557795	1.574939	-0.557571
C44	C	-0.457236	1.331614	-1.061752
C45	C	-0.462308	1.325908	-1.155930
C46	C	-0.570623	1.204264	-1.155141
C47	C	-0.565551	1.209969	-1.060963
C48	C	-0.508856	1.273647	-1.014272
C49	C	-0.503789	1.279356	-0.920093
C50	C	-0.612099	1.157708	-0.919305
C51	C	-0.617171	1.152002	-1.013483
C52	C	-0.524646	1.255972	-0.302864
C53	C	-0.519001	1.262236	-0.202628
H54	H	-0.881314	1.331169	-0.457563
C55	C	-0.866367	1.093863	-0.668650
H56	H	-0.803585	1.106369	-0.657490
H57	H	-0.877458	1.033553	-0.652558
H58	H	-0.885835	1.102325	-0.730892
C59	C	-0.394884	1.401658	-1.010386
H60	H	-0.399262	1.396757	-0.947497
H61	H	-0.334320	1.391331	-1.021746
H62	H	-0.412618	1.460105	-1.030218
H63	H	-0.616780	1.152420	-1.193173
C64	C	-0.377417	0.732306	-0.377666
H65	H	-0.343690	0.777736	-0.344034
H66	H	-0.407501	0.696079	-0.337957
H67	H	-0.337802	0.696123	-0.407885
C68	C	-0.405530	1.389675	-1.208156
H69	H	-0.371046	1.428419	-1.166858
H70	H	-0.366116	1.355591	-1.240680
H71	H	-0.444407	1.424373	-1.249143
C72	C	-1.064150	1.081926	-0.679389
H73	H	-1.127041	1.086841	-0.675050
H74	H	-1.052748	1.092236	-0.739951
H75	H	-1.044368	1.023478	-0.661604
H76	H	-0.406004	0.913411	-0.406173
C77	C	-0.697330	0.752036	-0.696732
H78	H	-0.692433	0.815457	-0.691840
H79	H	-0.686561	0.733845	-0.755703
H80	H	-0.756247	0.733809	-0.685764
H81	H	-0.663328	1.100156	-1.051511
C82	C	-1.207394	1.389737	-0.405693
H83	H	-1.166084	1.428469	-0.371204
H84	H	-1.248344	1.424432	-0.444602
H85	H	-1.239957	1.355660	-0.366269
H86	H	-0.654134	1.110509	-0.880636
C87	C	-1.205809	1.134238	-0.632957
H88	H	-1.268699	1.139159	-0.628616
H89	H	-1.194408	1.144549	-0.693519
H90	H	-1.186031	1.075788	-0.615176
C91	C	-0.645054	0.899368	-0.644586
H92	H	-0.640163	0.962790	-0.639693
H93	H	-0.634280	0.881179	-0.703556
H94	H	-0.703971	0.881137	-0.633621
H95	H	-0.457627	1.331207	-0.882079
H96	H	-0.447902	0.596323	-0.447979
C97	C	-1.009616	1.401673	-0.394945
H98	H	-1.051378	1.435400	-0.364977
H99	H	-0.968700	1.372035	-0.351536
H100	H	-0.977084	1.440807	-0.429870
H101	H	-0.668742	0.570938	-0.668234
