data_functionalizedCrystal
_audit_creation_method	'MofGen! by Chris Wilmer'
_symmetry_space_group_name_H-M	'P1'
_symmetry_Int_Tables_number	1
_symmetry_cell_setting	triclinic
loop_
_symmetry_equiv_pos_as_xyz
  x,y,z
_cell_length_a	14.971506
_cell_length_b	14.519731
_cell_length_c	14.048226
_cell_angle_alpha	89.992586
_cell_angle_beta	89.993237
_cell_angle_gamma	83.655621
loop_
_atom_site_label
_atom_site_type_symbol
_atom_site_fract_x
_atom_site_fract_y
_atom_site_fract_z
O1	O	1.187012	0.120271	-0.079169
O2	O	0.926624	0.134644	-0.079170
O3	O	1.063712	-0.006783	-0.079161
O4	O	1.049924	0.261698	-0.079178
O5	O	1.063695	-0.006791	0.079160
O6	O	0.926607	0.134636	0.079151
O7	O	1.186996	0.120263	0.079152
Zn8	Zn	1.056799	0.127448	0.104288
Zn9	Zn	1.056821	0.127459	-0.104307
O10	O	1.049908	0.261690	0.079143
C11	C	0.893291	0.133994	-0.000010
C12	C	0.793993	0.132057	-0.000010
C13	C	0.355759	0.207754	-0.000024
C14	C	0.449060	0.209566	-0.000028
C15	C	0.506227	0.126473	-0.000019
C16	C	0.470089	0.041561	-0.000015
C17	C	0.376789	0.039750	-0.000017
C18	C	0.664554	0.045342	-0.000007
C19	C	0.757861	0.047153	-0.000002
C20	C	0.736826	0.215158	-0.000018
C21	C	0.643526	0.213347	-0.000021
C22	C	0.607394	0.128435	-0.000015
C23	C	1.063058	-0.041146	-0.000000
C24	C	1.061122	-0.143526	0.000000
C25	C	1.059549	-0.226669	-0.000002
C26	C	1.057583	-0.330977	-0.000009
C27	C	1.056023	-0.414115	-0.000015
C28	C	1.054058	-0.518429	-0.000021
C29	C	1.220329	0.120913	-0.000011
C30	C	1.319626	0.122849	-0.000017
C31	C	1.050562	0.296053	-0.000020
C32	C	1.052498	0.398432	-0.000027
N33	N	1.056791	0.127440	0.246649
N34	N	1.056836	0.127460	-0.246667
C35	C	1.117512	0.064842	0.296471
C36	C	1.117518	0.064841	0.396129
C37	C	1.056806	0.127444	0.445963
C38	C	0.996078	0.190045	0.396134
C39	C	0.996068	0.190040	0.296478
C40	C	0.996104	0.190052	0.603848
C41	C	0.996114	0.190058	0.703511
C42	C	1.117554	0.064853	0.703499
C43	C	1.117544	0.064848	0.603843
C44	C	1.056817	0.127450	0.554021
H45	H	0.596982	0.281009	-0.000022
H46	H	0.478475	0.278704	-0.000043
H47	H	0.946650	0.241026	0.563286
C48	C	0.776562	0.308561	-0.000026
H49	H	0.729153	0.357789	-0.000018
H50	H	0.812528	0.312768	-0.055234
H51	H	0.812514	0.312754	0.055193
C52	C	0.820743	-0.044248	-0.000016
H53	H	0.785863	-0.095078	-0.000031
H54	H	0.857576	-0.047048	0.055190
H55	H	0.857575	-0.047012	-0.055237
H56	H	0.946675	0.241034	0.744080
H57	H	0.309219	0.275419	-0.000025
H58	H	0.946641	0.241014	0.436714
C59	C	0.624811	-0.048059	0.000002
H60	H	0.672218	-0.097288	0.000018
H61	H	0.588858	-0.052260	-0.055208
H62	H	0.588846	-0.052254	0.055220
H63	H	0.516642	-0.026095	-0.000012
H64	H	1.167000	0.013880	0.744070
C65	C	1.184302	-0.004013	0.241658
H66	H	1.175609	0.004955	0.175170
H67	H	1.174497	-0.065582	0.258001
H68	H	1.244012	0.006122	0.257979
C69	C	0.929278	0.258902	0.241673
H70	H	0.893127	0.296193	0.285624
H71	H	0.891990	0.225659	0.202812
H72	H	0.961517	0.297351	0.202784
H73	H	0.347372	-0.029388	-0.000013
H74	H	1.166962	0.013869	0.436693
C75	C	1.184325	-0.004014	0.549027
H76	H	1.220488	-0.041303	0.592971
H77	H	1.221604	0.029226	0.510133
H78	H	1.152076	-0.042464	0.510170
