data_functionalizedCrystal
_audit_creation_method	'MofGen! by Chris Wilmer'
_symmetry_space_group_name_H-M	'P1'
_symmetry_Int_Tables_number	1
_symmetry_cell_setting	triclinic
loop_
_symmetry_equiv_pos_as_xyz
  x,y,z
_cell_length_a	16.974829
_cell_length_b	16.992695
_cell_length_c	15.186229
_cell_angle_alpha	89.995943
_cell_angle_beta	86.341329
_cell_angle_gamma	87.025716
loop_
_atom_site_label
_atom_site_type_symbol
_atom_site_fract_x
_atom_site_fract_y
_atom_site_fract_z
O1	O	1.055459	0.099957	-0.148444
O2	O	1.555459	0.599957	0.351556
O3	O	0.826057	0.112679	-0.132098
O4	O	1.326057	0.612679	0.367902
O5	O	0.939839	-0.007824	-0.140199
O6	O	1.439839	0.492176	0.359801
O7	O	0.941678	0.220460	-0.140344
O8	O	1.441678	0.720460	0.359656
O9	O	0.939831	-0.007825	0.006259
O10	O	1.439831	0.492175	0.506259
O11	O	0.826049	0.112677	0.014359
O12	O	1.326049	0.612677	0.514359
O13	O	1.055451	0.099955	-0.001987
O14	O	1.555451	0.599955	0.498013
Zn15	Zn	0.940749	0.106316	0.029440
Zn16	Zn	1.440749	0.606316	0.529440
Zn17	Zn	0.940760	0.106318	-0.163525
Zn18	Zn	1.440760	0.606318	0.336475
O19	O	0.941670	0.220458	0.006114
O20	O	1.441670	0.720458	0.506114
C21	C	0.796564	0.112193	-0.056768
C22	C	1.296564	0.612193	0.443232
C23	C	0.708696	0.110739	-0.050507
C24	C	1.208696	0.610739	0.449493
C25	C	0.937469	-0.037035	-0.066801
C26	C	1.437469	0.462965	0.433199
C27	C	0.930409	-0.124071	-0.066299
C28	C	1.430409	0.375929	0.433701
C29	C	0.214087	0.102578	-0.006693
C30	C	0.714087	0.602578	0.493307
C31	C	0.296649	0.103945	-0.012578
C32	C	0.796649	0.603945	0.487422
C33	C	0.337935	0.104623	-0.095356
C34	C	0.837935	0.604623	0.404644
C35	C	0.296654	0.103943	-0.172254
C36	C	0.796654	0.603943	0.327746
C37	C	0.214094	0.102582	-0.166369
C38	C	0.714094	0.602582	0.333631
C39	C	0.584855	0.108698	-0.121520
C40	C	1.084855	0.608698	0.378480
C41	C	0.667421	0.110056	-0.127399
C42	C	1.167421	0.610056	0.372601
C43	C	0.667410	0.110060	0.032277
C44	C	1.167410	0.610060	0.532277
C45	C	0.584848	0.108694	0.038156
C46	C	1.084848	0.608694	0.538156
C47	C	0.543575	0.108018	-0.038742
C48	C	1.043575	0.608018	0.461258
N49	N	0.422326	0.106017	-0.101373
N50	N	0.922326	0.606017	0.398627
N51	N	0.459184	0.106629	-0.032724
N52	N	0.959184	0.606629	0.467276
C53	C	0.998524	-0.174383	-0.071151
C54	C	1.498524	0.325617	0.428849
C55	C	0.991886	-0.256163	-0.070687
C56	C	1.491886	0.243837	0.429313
C57	C	0.917132	-0.287629	-0.065363
C58	C	1.417132	0.212371	0.434637
C59	C	0.849012	-0.237310	-0.060513
C60	C	1.349012	0.262690	0.439487
C61	C	0.855650	-0.155532	-0.060984
C62	C	1.355650	0.344468	0.439016
C63	C	0.889618	-0.531198	-0.063415
C64	C	1.389618	-0.031198	0.436585
C65	C	0.882984	-0.612982	-0.062941
C66	C	1.382984	-0.112982	0.437059
C67	C	1.025860	-0.631829	-0.073117
C68	C	1.525860	-0.131829	0.426883
C69	C	1.032492	-0.550049	-0.073582
C70	C	1.532492	-0.050049	0.426418
C71	C	0.964371	-0.499737	-0.068737
C72	C	1.464371	0.000263	0.431263
N73	N	0.910346	-0.371221	-0.064885
N74	N	1.410346	0.128779	0.435115
N75	N	0.971159	-0.416147	-0.069221
N76	N	1.471159	0.083853	0.430779
C77	C	1.084944	0.100441	-0.077319
C78	C	1.584944	0.600441	0.422681
C79	C	1.172813	0.101896	-0.083586
C80	C	1.672813	0.601896	0.416414
C81	C	0.944040	0.249669	-0.067285
C82	C	1.444040	0.749669	0.432715
C83	C	0.951100	0.336706	-0.067794
C84	C	1.451100	0.836706	0.432206
N85	N	0.940747	0.106314	0.161133
N86	N	1.440747	0.606314	0.661133
N87	N	0.940767	0.106314	-0.295218
N88	N	1.440767	0.606314	0.204782
C89	C	0.991149	0.052973	0.383267
C90	C	1.491149	0.552973	0.883267
C91	C	0.991151	0.052972	0.475457
C92	C	1.491151	0.552972	0.975457
C93	C	0.890360	0.159657	0.482641
C94	C	1.390360	0.659657	0.982641
C95	C	0.890354	0.159655	0.390454
C96	C	1.390354	0.659655	0.890454
C97	C	0.940753	0.106314	0.340769
C98	C	1.440753	0.606314	0.840769
C99	C	0.940761	0.106314	0.525146
C100	C	1.440761	0.606314	1.025146
C101	C	0.940763	0.106313	0.625102
C102	C	1.440763	0.606313	1.125102
C103	C	0.940750	0.106314	0.240807
C104	C	1.440750	0.606314	0.740807
H105	H	0.180478	0.102029	0.060714
H106	H	0.680478	0.602029	0.560714
H107	H	0.822107	-0.638598	-0.058592
H108	H	1.322107	-0.138598	0.441408
H109	H	0.551240	0.108125	0.105562
H110	H	1.051240	0.608125	0.605562
H111	H	1.059397	-0.148771	-0.075481
H112	H	1.559397	0.351229	0.424519
H113	H	0.834149	-0.490243	-0.059469
H114	H	1.334149	0.009757	0.440531
H115	H	0.788145	-0.262936	-0.056184
H116	H	1.288145	0.237064	0.443816
C117	C	0.341322	0.104643	0.071008
C118	C	0.841322	0.604643	0.571008
C119	C	0.287496	0.103732	0.144761
C120	C	0.787496	0.603732	0.644761
C121	C	0.328620	0.104366	0.221779
C122	C	0.828620	0.604366	0.721779
H123	H	0.370391	0.150862	0.072377
H124	H	0.870391	0.650862	0.572377
H125	H	0.376654	0.059458	0.071861
H126	H	0.876654	0.559458	0.571861
H127	H	0.252178	0.148913	0.143908
H128	H	0.752178	0.648913	0.643908
H129	H	0.258425	0.057516	0.143421
H130	H	0.758425	0.557516	0.643421
H131	H	0.363952	0.059181	0.222632
H132	H	0.863952	0.559181	0.722632
H133	H	0.357688	0.150586	0.223138
H134	H	0.857688	0.650586	0.723138
H135	H	0.292106	0.103741	0.271828
H136	H	0.792106	0.603741	0.771828
C137	C	1.065773	-0.310884	-0.075815
C138	C	1.565773	0.189116	0.424185
C139	C	1.066118	-0.358409	-0.000507
C140	C	1.566118	0.141591	0.499493
C141	C	1.134166	-0.408836	-0.005210
C142	C	1.634166	0.091164	0.494790
H143	H	1.111305	-0.280534	-0.079008
H144	H	1.611305	0.219466	0.420992
H145	H	1.066158	-0.343216	-0.126893
H146	H	1.566158	0.156784	0.373107
H147	H	1.065740	-0.326081	0.050557
H148	H	1.565740	0.173919	0.550557
H149	H	1.020601	-0.388775	0.002701
H150	H	1.520601	0.111225	0.502701
H151	H	1.134551	-0.441167	-0.056288
H152	H	1.634551	0.058833	0.443712
H153	H	1.179693	-0.378479	-0.008405
H154	H	1.679693	0.121521	0.491595
H155	H	1.134406	-0.441092	0.045880
H156	H	1.634406	0.058908	0.545880
C157	C	0.712332	0.110681	0.115689
C158	C	1.212332	0.610681	0.615689
C159	C	0.764375	0.044053	0.116647
C160	C	1.264375	0.544053	0.616647
C161	C	0.805777	0.044606	0.193469
C162	C	1.305777	0.544606	0.693469
H163	H	0.676013	0.110044	0.165899
H164	H	1.176013	0.610044	0.665899
H165	H	0.741447	0.156888	0.116933
H166	H	1.241447	0.656888	0.616933
H167	H	0.735262	-0.002143	0.115411
H168	H	1.235262	0.497857	0.615411
H169	H	0.800710	0.044675	0.066455
H170	H	1.300710	0.544675	0.566455
H171	H	0.834892	0.090814	0.194713
H172	H	1.334892	0.590814	0.694713
H173	H	0.769452	0.043972	0.243673
H174	H	1.269452	0.543972	0.743673
H175	H	0.841098	-0.000596	0.194125
H176	H	1.341098	0.499404	0.694125
C177	C	0.341622	0.104641	-0.262048
C178	C	0.841622	0.604641	0.237952
C179	C	0.422761	0.105956	-0.250747
C180	C	0.922761	0.605956	0.249253
C181	C	0.464208	0.106586	-0.333447
C182	C	0.964208	0.606586	0.166553
H183	H	0.325052	0.150105	-0.293742
H184	H	0.825052	0.650105	0.206258
H185	H	0.331275	0.058700	-0.294114
H186	H	0.831275	0.558700	0.205886
H187	H	0.433102	0.151892	-0.218694
H188	H	0.933102	0.651892	0.281306
H189	H	0.439354	0.060495	-0.219068
H190	H	0.939354	0.560495	0.280932
H191	H	0.453862	0.060645	-0.365513
H192	H	0.953862	0.560645	0.134487
H193	H	0.447632	0.152051	-0.365135
H194	H	0.947632	0.652051	0.134865
H195	H	0.519266	0.107471	-0.325791
H196	H	1.019266	0.607471	0.174209
H197	H	0.180489	0.102028	-0.228983
H198	H	0.680489	0.602028	0.271017
H199	H	1.032187	0.009536	0.510056
H200	H	1.532187	0.509536	1.010056
C201	C	0.712296	0.110637	-0.217258
C202	C	1.212296	0.610637	0.282742
C203	C	0.764306	0.043985	-0.225639
C204	C	1.264306	0.543985	0.274361
C205	C	0.805648	0.044486	-0.308405
C206	C	1.305648	0.544486	0.191595
H207	H	0.741435	0.156813	-0.222741
H208	H	1.241435	0.656813	0.277259
H209	H	0.675915	0.109999	-0.262237
H210	H	1.175915	0.609999	0.237763
H211	H	0.800683	0.044630	-0.180673
H212	H	1.300683	0.544630	0.319327
H213	H	0.735188	-0.002202	-0.220173
H214	H	1.235188	0.497798	0.279827
H215	H	0.769267	0.043848	-0.353384
H216	H	1.269267	0.543848	0.146616
H217	H	0.834783	0.090665	-0.313881
H218	H	1.334783	0.590665	0.186119
H219	H	0.840937	-0.000740	-0.314106
H220	H	1.340937	0.499260	0.185894
H221	H	0.800183	-0.114568	-0.057032
H222	H	1.300183	0.385432	0.442968
H223	H	1.032186	0.009539	0.342816
H224	H	1.532186	0.509539	0.842816
H225	H	0.849312	0.203091	0.355850
H226	H	1.349312	0.703091	0.855850
C227	C	1.099788	-0.686492	-0.078567
C228	C	1.599788	-0.186492	0.421433
C229	C	1.100164	-0.733970	-0.153957
C230	C	1.600164	-0.233970	0.346043
C231	C	1.168262	-0.784327	-0.159017
C232	C	1.668262	-0.284327	0.340983
H233	H	1.100239	-0.718865	-0.027588
H234	H	1.600239	-0.218865	0.472412
H235	H	1.145280	-0.656067	-0.081856
H236	H	1.645280	-0.156067	0.418144
H237	H	1.054684	-0.764392	-0.150661
H238	H	1.554684	-0.264392	0.349339
H239	H	1.099725	-0.701618	-0.204949
H240	H	1.599725	-0.201618	0.295051
H241	H	1.213754	-0.753902	-0.162306
H242	H	1.713754	-0.253902	0.337694
H243	H	1.168708	-0.816694	-0.108035
H244	H	1.668708	-0.316694	0.391965
H245	H	1.168530	-0.816541	-0.210173
H246	H	1.668530	-0.316541	0.289827
C247	C	0.835736	0.217539	0.536740
C248	C	1.335736	0.717539	1.036740
C249	C	0.846542	0.206142	0.626570
C250	C	1.346542	0.706142	1.126570
C251	C	0.796245	0.259458	0.676428
C252	C	1.296245	0.759458	1.176428
H253	H	0.782398	0.209104	0.525550
H254	H	1.282398	0.709104	1.025550
H255	H	0.847636	0.269878	0.520824
H256	H	1.347636	0.769878	1.020824
H257	H	0.834636	0.153815	0.642479
H258	H	1.334636	0.653815	1.142479
H259	H	0.899870	0.214583	0.637786
H260	H	1.399870	0.714583	1.137786
H261	H	0.808146	0.311797	0.660513
H262	H	1.308146	0.811797	1.160513
H263	H	0.742910	0.251019	0.665231
H264	H	1.242910	0.751019	1.165231
H265	H	0.803576	0.251737	0.737382
H266	H	1.303576	0.751737	1.237382
H267	H	0.551260	0.108144	-0.184136
H268	H	1.051260	0.608144	0.315864
H269	H	1.093364	-0.524436	-0.077917
H270	H	1.593364	-0.024436	0.422083
