data_functionalizedCrystal
_audit_creation_method	'MofGen! by Chris Wilmer'
_symmetry_space_group_name_H-M	'P1'
_symmetry_Int_Tables_number	1
_symmetry_cell_setting	triclinic
loop_
_symmetry_equiv_pos_as_xyz
  x,y,z
_cell_length_a	19.188929
_cell_length_b	9.065218
_cell_length_c	7.540329
_cell_angle_alpha	89.996962
_cell_angle_beta	90.025368
_cell_angle_gamma	95.919666
loop_
_atom_site_label
_atom_site_type_symbol
_atom_site_fract_x
_atom_site_fract_y
_atom_site_fract_z
O1	O	-0.102370	1.956847	-0.147586
O2	O	-0.110766	1.527271	-0.147597
O3	O	-0.005009	1.754456	-0.147482
O4	O	-0.208127	1.729662	-0.147701
O5	O	-0.005007	1.754442	0.147483
O6	O	-0.110765	1.527257	0.147368
O7	O	-0.102368	1.956833	0.147379
Cu8	Cu	-0.106566	1.742044	0.174306
Cu9	Cu	-0.106568	1.742060	-0.174524
O10	O	-0.208126	1.729649	0.147264
C11	C	-0.109959	1.472305	-0.000114
C12	C	-0.107546	1.308546	-0.000112
C13	C	-0.234144	1.730458	-0.000247
C14	C	-0.311667	1.732869	-0.000331
C15	C	-0.355555	1.599564	-0.000299
C16	C	-0.428397	1.601828	-0.000259
C17	C	-0.457347	1.737405	-0.000216
C18	C	-0.413449	1.870727	-0.000258
C19	C	-0.340609	1.868459	-0.000316
N20	N	-0.566120	1.841031	0.100282
N21	N	-0.635315	1.843177	0.100341
C22	C	-0.676808	1.744247	-0.000045
N23	N	-0.646494	1.643068	-0.100469
N24	N	-0.577292	1.640918	-0.100520
C25	C	-0.536328	1.739879	-0.000154
C26	C	-0.799680	1.613388	0.000029
C27	C	-0.872523	1.615658	0.000058
C28	C	-0.857573	1.884560	0.000076
C29	C	-0.784732	1.882287	0.000029
C30	C	-0.755790	1.746696	0.000014
C31	C	0.021009	1.753646	0.000025
C32	C	0.098533	1.751236	0.000098
C33	C	-0.103176	2.011799	-0.000108
C34	C	-0.105589	2.175558	-0.000121
N35	N	-0.106565	1.742044	0.419655
N36	N	-0.106564	1.742072	-0.419873
H37	H	-0.331996	1.489156	-0.000327
C38	C	-0.476683	1.455188	-0.000212
H39	H	-0.449013	1.374113	-0.000220
H40	H	-0.505442	1.450481	-0.103046
H41	H	-0.505374	1.450495	0.102689
H42	H	-0.748997	1.990838	0.000014
C43	C	-0.445291	2.019857	-0.000201
H44	H	-0.494958	2.002116	-0.000142
H45	H	-0.430315	2.074736	-0.103067
H46	H	-0.430250	2.074716	0.102668
C47	C	-0.767841	1.464249	-0.000028
H48	H	-0.804415	1.385178	-0.000035
H49	H	-0.739706	1.457756	0.102807
H50	H	-0.739768	1.457794	-0.102927
C51	C	-0.292330	2.015100	-0.000335
H52	H	-0.320001	2.096173	-0.000295
H53	H	-0.263630	2.019811	-0.103210
H54	H	-0.263579	2.019794	0.102524
C55	C	-0.920800	1.469015	0.000097
H56	H	-0.893128	1.387944	0.000097
H57	H	-0.949556	1.464303	-0.102742
H58	H	-0.949495	1.464319	0.102993
C59	C	-0.889409	2.033692	0.000132
H60	H	-0.939076	2.015953	0.000183
H61	H	-0.874431	2.088575	-0.102729
H62	H	-0.874371	2.088547	0.103006
