data_functionalizedCrystal
_audit_creation_method	'MofGen! by Chris Wilmer'
_symmetry_space_group_name_H-M	'P1'
_symmetry_Int_Tables_number	1
_symmetry_cell_setting	triclinic
loop_
_symmetry_equiv_pos_as_xyz
  x,y,z
_cell_length_a	12.759395
_cell_length_b	16.625545
_cell_length_c	16.625539
_cell_angle_alpha	89.973757
_cell_angle_beta	89.985313
_cell_angle_gamma	90.027095
loop_
_atom_site_label
_atom_site_type_symbol
_atom_site_fract_x
_atom_site_fract_y
_atom_site_fract_z
Zn1	Zn	1.606129	-0.320982	-0.455859
Zn2	Zn	1.606004	-0.455821	-0.321027
Zn3	Zn	1.430445	-0.321009	-0.321046
Zn4	Zn	1.430386	-0.455780	-0.455823
O5	O	1.518241	-0.388398	-0.388439
O6	O	1.753134	-0.338874	-0.437981
O7	O	1.582688	-0.437966	-0.208197
O8	O	1.453827	-0.208173	-0.338952
O9	O	1.753042	-0.437940	-0.338921
O10	O	1.582901	-0.208153	-0.437999
O11	O	1.453706	-0.338921	-0.208211
O12	O	1.283416	-0.338881	-0.338916
O13	O	1.453727	-0.437870	-0.568660
O14	O	1.283373	-0.437897	-0.437936
O15	O	1.582844	-0.338835	-0.568687
O16	O	1.582631	-0.568648	-0.338885
O17	O	1.453606	-0.568618	-0.437919
C18	C	1.245274	-0.388388	-0.388425
C19	C	1.128497	-0.388403	-0.388438
C20	C	1.128491	-0.491675	-0.491381
C21	C	1.073627	-0.543317	-0.542855
C22	C	0.963905	-0.543327	-0.542864
C23	C	0.909045	-0.491687	-0.491397
C24	C	0.963909	-0.440045	-0.439923
C25	C	1.073633	-0.440043	-0.439917
C26	C	0.963915	-0.336771	-0.336986
C27	C	1.073637	-0.336764	-0.336970
C28	C	0.909055	-0.285131	-0.285518
C29	C	0.963919	-0.233492	-0.234039
C30	C	1.073647	-0.233485	-0.234030
C31	C	1.128501	-0.285122	-0.285497
C32	C	1.518127	-0.597889	-0.388413
C33	C	1.518174	-0.687510	-0.388429
C34	C	1.518215	-0.760292	-0.388445
C35	C	1.518276	-0.851601	-0.388463
C36	C	1.518331	-0.924377	-0.388473
C37	C	1.518391	-1.015692	-0.388490
C38	C	1.792275	-0.388408	-0.388453
C39	C	1.909051	-0.388413	-0.388459
C40	C	1.518293	-0.388345	-0.598748
C41	C	1.518315	-0.388322	-0.688369
C42	C	1.518384	-0.178089	-0.388482
C43	C	1.518445	-0.088468	-0.388500
C44	C	1.518332	-0.388304	-0.761151
C45	C	1.518356	-0.388274	-0.852460
C46	C	1.518381	-0.388246	-0.925236
C47	C	1.518407	-0.388217	-1.016551
C48	C	1.518250	-0.388393	-0.178948
C49	C	1.518432	-0.388188	-0.089327
H50	H	1.217832	-0.491678	-0.491372
F51	F	0.905528	-0.178535	-0.179275
F52	F	1.132019	-0.598277	-0.597623
H53	H	0.919235	-0.585374	-0.584783
H54	H	1.118311	-0.191426	-0.192120
H55	H	0.819704	-0.491693	-0.491416
H56	H	0.819714	-0.285140	-0.285533
H57	H	1.217842	-0.285123	-0.285492
