data_functionalizedCrystal
_audit_creation_method	'MofGen! by Chris Wilmer'
_symmetry_space_group_name_H-M	'P1'
_symmetry_Int_Tables_number	1
_symmetry_cell_setting	triclinic
loop_
_symmetry_equiv_pos_as_xyz
  x,y,z
_cell_length_a	14.519709
_cell_length_b	10.540514
_cell_length_c	13.596369
_cell_angle_alpha	89.997180
_cell_angle_beta	90.000291
_cell_angle_gamma	84.097652
loop_
_atom_site_label
_atom_site_type_symbol
_atom_site_fract_x
_atom_site_fract_y
_atom_site_fract_z
O1	O	1.224754	0.166402	-0.081656
O2	O	1.724754	0.666402	0.418344
O3	O	0.956381	0.185997	-0.081685
O4	O	1.456381	0.685997	0.418315
O5	O	1.096703	-0.008572	-0.081671
O6	O	1.596703	0.491428	0.418329
O7	O	1.084433	0.360971	-0.081670
O8	O	1.584433	0.860971	0.418330
O9	O	1.096688	-0.008582	0.081911
O10	O	1.596688	0.491418	0.581911
O11	O	0.956367	0.185987	0.081897
O12	O	1.456367	0.685987	0.581897
O13	O	1.224740	0.166391	0.081927
O14	O	1.724740	0.666391	0.581927
Zn15	Zn	1.090551	0.176188	0.107884
Zn16	Zn	1.590551	0.676188	0.607884
Zn17	Zn	1.090570	0.176201	-0.107643
Zn18	Zn	1.590570	0.676201	0.392357
O19	O	1.084419	0.360960	0.081913
O20	O	1.584419	0.860960	0.581913
C21	C	0.922010	0.185079	0.000102
C22	C	1.422010	0.685079	0.500102
C23	C	0.819614	0.182342	0.000091
C24	C	1.319614	0.682342	0.500091
C25	C	0.444664	0.172268	0.000135
C26	C	0.944664	0.672268	0.500135
C27	C	0.548987	0.175065	0.000123
C28	C	1.048987	0.675065	0.500123
C29	C	0.632136	0.177305	0.000112
C30	C	1.132136	0.677305	0.500112
C31	C	0.736465	0.180103	0.000101
C32	C	1.236465	0.680103	0.500101
C33	C	1.095780	-0.055871	0.000117
C34	C	1.595780	0.444129	0.500117
C35	C	1.093042	-0.196793	0.000110
C36	C	1.593042	0.303207	0.500110
C37	C	1.193398	-0.268523	0.000123
C38	C	1.693398	0.231477	0.500123
C39	C	1.190584	-0.415107	0.000501
C40	C	1.690584	0.084893	0.500501
C41	C	1.038456	-0.388577	0.093344
C42	C	1.538456	0.111423	0.593344
C43	C	1.041982	-0.242074	0.093416
C44	C	1.541982	0.257926	0.593416
C45	C	1.040513	-0.241648	-0.092615
C46	C	1.540513	0.258352	0.407385
C47	C	1.039545	-0.388617	-0.093834
C48	C	1.539545	0.111383	0.406166
C49	C	1.259112	0.167310	0.000137
C50	C	1.759112	0.667310	0.500137
C51	C	1.361507	0.170046	0.000142
C52	C	1.861507	0.670046	0.500142
C53	C	1.085341	0.408260	0.000122
C54	C	1.585341	0.908260	0.500122
C55	C	1.088079	0.549181	0.000123
C56	C	1.588079	1.049181	0.500123
N57	N	1.090545	0.176177	0.254976
N58	N	1.590545	0.676177	0.754976
N59	N	1.090583	0.176201	-0.254735
N60	N	1.590583	0.676201	0.245265
C61	C	1.090569	0.176202	0.656267
C62	C	1.590569	0.676202	1.156267
C63	C	1.090560	0.176200	0.544616
C64	C	1.590560	0.676200	1.044616
C65	C	1.090557	0.176191	0.455625
C66	C	1.590557	0.676191	0.955625
C67	C	1.090547	0.176186	0.343967
C68	C	1.590547	0.676186	0.843967
H69	H	1.229615	-0.458167	-0.066308
H70	H	1.729615	0.041833	0.433692
H71	H	0.964832	-0.412049	-0.099753
H72	H	1.464832	0.087951	0.400247
C73	C	1.248441	-0.230425	-0.090121
C74	C	1.748441	0.269575	0.409879
N75	N	1.289911	-0.201684	-0.158076
N76	N	1.789911	0.298316	0.341924
H77	H	1.233536	-0.238619	0.066834
H78	H	1.733536	0.261381	0.566834
H79	H	1.078212	-0.214222	0.163375
H80	H	1.578212	0.285778	0.663375
H81	H	1.229435	-0.457238	0.067728
H82	H	1.729435	0.042762	0.567728
C83	C	0.942397	-0.176201	0.098871
C84	C	1.442397	0.323799	0.598871
N85	N	0.867393	-0.126592	0.103021
N86	N	1.367393	0.373408	0.603021
C87	C	0.936740	-0.417659	0.097653
C88	C	1.436740	0.082341	0.597653
N89	N	0.860125	-0.439557	0.100892
N90	N	1.360125	0.060443	0.600892
H91	H	1.072491	-0.431486	0.162992
H92	H	1.572491	0.068514	0.662992
H93	H	1.075810	-0.429980	-0.162800
H94	H	1.575810	0.070020	0.337200
H95	H	0.966485	-0.193652	-0.093515
H96	H	1.466485	0.306348	0.406485
C97	C	1.085656	-0.199568	-0.188104
C98	C	1.585656	0.300432	0.311896
N99	N	1.119669	-0.167874	-0.260021
N100	N	1.619669	0.332126	0.239979
