data_functionalizedCrystal
_audit_creation_method	'MofGen! by Chris Wilmer'
_symmetry_space_group_name_H-M	'P1'
_symmetry_Int_Tables_number	1
_symmetry_cell_setting	triclinic
loop_
_symmetry_equiv_pos_as_xyz
  x,y,z
_cell_length_a	19.805407
_cell_length_b	29.839131
_cell_length_c	19.805399
_cell_angle_alpha	89.970435
_cell_angle_beta	89.980427
_cell_angle_gamma	90.041420
loop_
_atom_site_label
_atom_site_type_symbol
_atom_site_fract_x
_atom_site_fract_y
_atom_site_fract_z
Zn1	Zn	1.034665	-0.178864	-0.382710
Zn2	Zn	1.034550	-0.253991	-0.269518
Zn3	Zn	0.921480	-0.178876	-0.269535
Zn4	Zn	0.921414	-0.253967	-0.382665
O5	O	0.978027	-0.216425	-0.326107
O6	O	1.129366	-0.188834	-0.367707
O7	O	1.019531	-0.244042	-0.174804
O8	O	0.936570	-0.116007	-0.284574
O9	O	1.129282	-0.244030	-0.284545
O10	O	1.019727	-0.115998	-0.367723
O11	O	0.936458	-0.188856	-0.174816
O12	O	0.826754	-0.188832	-0.284530
O13	O	0.936457	-0.243990	-0.477388
O14	O	0.826706	-0.244002	-0.367646
O15	O	1.019662	-0.188811	-0.477421
O16	O	1.019467	-0.316855	-0.284501
O17	O	0.936346	-0.316838	-0.367630
C18	C	0.802171	-0.216416	-0.326085
C19	C	0.726939	-0.216423	-0.326092
C20	C	0.977905	-0.333147	-0.326073
C21	C	0.977915	-0.383082	-0.326082
C22	C	0.691587	-0.245193	-0.369300
C23	C	0.620899	-0.245194	-0.369310
C24	C	0.585564	-0.216427	-0.326107
C25	C	0.620920	-0.187654	-0.282897
C26	C	0.691607	-0.187651	-0.282891
C27	C	0.335847	-0.187664	-0.282919
C28	C	0.265155	-0.187669	-0.282927
C29	C	0.265139	-0.245207	-0.369338
C30	C	0.335826	-0.245204	-0.369332
C31	C	0.371176	-0.216429	-0.326125
C32	C	0.447825	-0.216428	-0.326116
C33	C	0.508916	-0.216430	-0.326112
C34	C	1.021387	-0.692722	-0.282885
C35	C	1.021471	-0.880395	-0.282912
O36	O	1.058335	-0.904656	-0.246159
N37	N	0.978168	-0.903867	-0.326158
C38	C	0.934844	-0.880418	-0.369404
O39	O	0.898019	-0.904688	-0.406194
C40	C	0.934764	-0.692746	-0.369381
C41	C	0.978065	-0.669276	-0.326127
C42	C	1.064685	-0.669252	-0.239635
C43	C	1.064661	-0.622336	-0.239626
C44	C	1.021339	-0.598891	-0.282868
C45	C	0.978041	-0.622360	-0.326118
C46	C	0.891444	-0.669297	-0.412630
C47	C	0.891429	-0.622376	-0.412621
C48	C	0.934730	-0.598907	-0.369367
C49	C	0.934695	-0.551999	-0.369351
N50	N	0.977998	-0.528527	-0.326104
C51	C	1.021320	-0.551973	-0.282863
C52	C	0.934888	-0.978948	-0.369412
C53	C	0.934907	-1.025866	-0.369418
C54	C	1.021534	-1.025840	-0.282926
C55	C	1.021512	-0.978921	-0.282918
C56	C	0.978191	-0.955476	-0.326166
C57	C	1.021266	-0.453447	-0.282847
C58	C	1.021237	-0.406527	-0.282840
C59	C	0.934611	-0.406558	-0.369334
C60	C	0.934638	-0.453473	-0.369339
C61	C	0.977971	-0.476917	-0.326093
O62	O	0.897855	-0.527708	-0.406090
O63	O	1.058150	-0.527694	-0.246090
C64	C	1.021411	-0.739637	-0.282894
C65	C	0.978113	-0.763107	-0.326144
C66	C	0.934791	-0.739661	-0.369386
C67	C	0.978132	-0.810025	-0.326149
C68	C	1.021454	-0.833470	-0.282908
C69	C	1.064757	-0.809998	-0.239661
C70	C	1.064733	-0.763083	-0.239653
C71	C	0.891488	-0.763133	-0.412632
C72	C	0.891515	-0.810049	-0.412637
C73	C	0.934837	-0.833494	-0.369395
C74	C	1.154570	-0.216434	-0.326129
C75	C	1.229802	-0.216437	-0.326139
C76	C	0.978065	-0.216396	-0.502650
C77	C	0.978081	-0.216384	-0.577882
C78	C	0.978168	-0.099246	-0.326156
C79	C	0.978228	-0.049312	-0.326176
C80	C	1.021407	-0.187652	-0.613244
C81	C	1.021414	-0.187638	-0.683933
C82	C	0.978098	-0.216361	-0.719258
C83	C	0.934767	-0.245095	-0.683890
C84	C	0.934757	-0.245105	-0.613203
C85	C	0.934806	-0.245053	-0.968963
C86	C	0.934820	-0.245041	-1.039656
C87	C	1.021462	-0.187586	-1.039694
C88	C	1.021453	-0.187597	-0.969006
C89	C	0.978120	-0.216329	-0.933645
C90	C	0.978112	-0.216342	-0.856997
C91	C	0.978109	-0.216350	-0.795905
C92	C	0.978028	-0.216420	-0.150251
C93	C	0.978143	-0.216306	-0.075019
H94	H	0.592119	-0.268622	-0.404494
H95	H	1.100029	-0.829096	-0.204451
H96	H	0.856211	-0.744047	-0.447845
C97	C	0.887102	-0.276716	-0.574304
C98	C	0.916384	-0.311996	-0.525699
C99	C	0.868725	-0.343607	-0.486802
C100	C	0.791786	-0.339939	-0.496510
C101	C	0.762500	-0.304658	-0.545116
C102	C	0.810159	-0.273047	-0.584013
H103	H	0.973342	-0.314712	-0.518511
H104	H	0.890405	-0.369724	-0.450821
H105	H	0.756506	-0.363340	-0.467716
H106	H	0.705542	-0.301942	-0.552304
H107	H	0.788479	-0.246929	-0.619995
C108	C	0.374694	-0.276847	-0.416858
C109	C	0.335808	-0.308492	-0.464392
C110	C	0.374675	-0.340134	-0.511921
C111	C	0.452428	-0.340131	-0.511916
C112	C	0.491319	-0.308485	-0.464380
C113	C	0.452451	-0.276843	-0.416851
H114	H	0.278247	-0.308495	-0.464397
H115	H	0.345886	-0.363560	-0.547110
H116	H	0.481200	-0.363554	-0.547100
H117	H	0.548880	-0.308482	-0.464375
H118	H	0.481241	-0.253417	-0.381662
H119	H	0.899544	-0.268431	-1.068415
H120	H	1.099922	-0.603230	-0.204407
H121	H	1.056554	-0.472529	-0.247634
C122	C	1.069057	-0.156056	-0.574391
C123	C	1.122169	-0.175531	-0.525800
C124	C	1.169819	-0.143934	-0.486949
C125	C	1.164357	-0.092860	-0.496689
C126	C	1.111242	-0.073382	-0.545283
C127	C	1.063592	-0.104980	-0.584134
H128	H	1.126215	-0.213341	-0.518587
H129	H	1.209138	-0.158353	-0.450976
H130	H	1.199630	-0.069470	-0.467930
H131	H	1.107197	-0.035572	-0.552496
H132	H	1.024274	-0.090561	-0.620106
C133	C	0.730499	-0.156004	-0.235362
C134	C	0.720831	-0.104938	-0.241031
C135	C	0.759722	-0.073287	-0.193504
C136	C	0.808281	-0.092703	-0.140309
C137	C	0.817951	-0.143771	-0.134638
C138	C	0.779060	-0.175422	-0.182165
H139	H	0.684883	-0.090563	-0.280411
H140	H	0.752563	-0.035483	-0.197702
H141	H	0.837070	-0.069273	-0.105127
H142	H	0.853899	-0.158146	-0.095258
H143	H	0.786218	-0.213226	-0.177967
H144	H	0.720352	-0.268620	-0.404479
H145	H	1.056727	-0.164209	-0.940249
H146	H	0.592145	-0.164229	-0.247723
H147	H	0.236387	-0.164241	-0.247745
C148	C	0.843814	-0.695104	-0.460217
C149	C	0.766870	-0.688699	-0.454630
C150	C	0.719237	-0.714503	-0.502222
C151	C	0.748548	-0.746712	-0.555400
C152	C	0.825496	-0.753119	-0.560989
C153	C	0.873129	-0.727314	-0.513397
H154	H	0.745168	-0.664855	-0.415263
H155	H	0.662275	-0.709761	-0.498085
H156	H	0.713288	-0.765814	-0.590630
H157	H	0.847198	-0.776963	-0.600356
H158	H	0.930091	-0.732057	-0.517534
C159	C	0.226251	-0.276856	-0.416874
C160	C	0.177605	-0.312102	-0.387453
C161	C	0.138720	-0.343751	-0.434986
C162	C	0.148480	-0.340154	-0.511940
C163	C	0.197129	-0.304907	-0.541365
C164	C	0.236014	-0.273258	-0.493832
H165	H	0.170377	-0.314765	-0.330484
H166	H	0.102707	-0.369843	-0.413204
H167	H	0.119695	-0.363583	-0.547127
H168	H	0.204356	-0.302243	-0.598335
H169	H	0.272027	-0.247165	-0.515615
H170	H	0.899531	-0.268455	-0.940181
C171	C	0.887006	-0.479295	-0.416913
C172	C	0.810060	-0.472905	-0.411320
C173	C	0.762433	-0.498724	-0.458899
C174	C	0.791752	-0.530933	-0.512073
C175	C	0.868702	-0.537324	-0.517669
C176	C	0.916329	-0.511506	-0.470089
H177	H	0.788352	-0.449060	-0.371955
H178	H	0.705469	-0.493992	-0.454756
H179	H	0.756496	-0.550045	-0.547294
H180	H	0.890410	-0.561169	-0.557033
H181	H	0.973293	-0.516237	-0.474232
H182	H	0.364621	-0.164237	-0.247732
C183	C	0.887129	-0.276697	-0.722745
C184	C	0.839477	-0.308308	-0.683845
C185	C	0.791844	-0.339915	-0.722697
C186	C	0.791863	-0.339913	-0.800451
C187	C	0.839516	-0.308301	-0.839355
C188	C	0.887149	-0.276694	-0.800502
H189	H	0.839461	-0.308310	-0.626283
H190	H	0.756568	-0.363316	-0.693897
H191	H	0.756602	-0.363311	-0.829212
H192	H	0.839532	-0.308299	-0.896917
H193	H	0.922426	-0.253293	-0.829302
C194	C	1.069072	-0.156031	-0.722832
C195	C	1.116721	-0.124438	-0.683977
C196	C	1.164378	-0.092827	-0.722876
C197	C	1.164387	-0.092809	-0.800629
C198	C	1.116737	-0.124403	-0.839488
C199	C	1.069079	-0.156014	-0.800589
H200	H	1.116716	-0.124450	-0.626416
H201	H	1.199652	-0.069439	-0.694110
H202	H	1.199666	-0.069408	-0.829424
H203	H	1.116741	-0.124390	-0.897050
H204	H	1.033805	-0.179401	-0.829356
H205	H	1.099967	-0.688336	-0.204423
C206	C	1.068872	-0.380712	-0.235259
C207	C	1.039562	-0.348502	-0.182082
C208	C	1.087196	-0.322689	-0.134503
C209	C	1.164141	-0.329085	-0.140101
C210	C	1.193455	-0.361296	-0.193281
C211	C	1.145821	-0.387110	-0.240860
H212	H	0.982599	-0.343766	-0.177935
H213	H	1.065495	-0.298844	-0.095135
H214	H	1.199403	-0.309976	-0.104881
H215	H	1.250418	-0.366032	-0.197428
H216	H	1.167522	-0.410954	-0.280227
C217	C	1.069147	-0.953106	-0.235342
C218	C	1.063673	-0.959594	-0.158393
C219	C	1.111313	-0.933782	-0.110817
C220	C	1.164426	-0.901483	-0.140190
C221	C	1.169902	-0.894994	-0.217144
C222	C	1.122263	-0.920806	-0.264720
H223	H	1.024354	-0.983505	-0.136646
H224	H	1.107258	-0.938585	-0.053851
H225	H	1.199691	-0.882375	-0.104972
H226	H	1.209222	-0.871083	-0.238891
H227	H	1.126317	-0.916002	-0.321686
C228	C	1.069193	-1.051635	-0.235362
C229	C	1.069212	-1.103243	-0.235377
C230	C	1.116872	-1.129041	-0.187821
C231	C	1.164513	-1.103232	-0.140250
C232	C	1.164496	-1.051621	-0.140233
C233	C	1.116836	-1.025823	-0.187790
H234	H	1.033943	-1.122352	-0.270594
H235	H	1.116884	-1.167247	-0.187834
H236	H	1.199794	-1.122329	-0.105046
H237	H	1.199765	-1.032512	-0.105017
H238	H	1.116824	-0.987617	-0.187777
H239	H	1.056744	-0.164189	-1.068493
H240	H	0.856248	-0.829154	-0.447859
H241	H	0.856153	-0.603290	-0.447842
H242	H	0.899640	-1.044971	-0.404633
H243	H	0.899337	-0.387461	-0.404539
C244	C	0.887227	-0.953164	-0.416988
C245	C	0.810289	-0.959674	-0.411389
C246	C	0.762626	-0.933893	-0.458963
C247	C	0.791901	-0.901602	-0.512136
C248	C	0.868843	-0.895090	-0.517738
C249	C	0.916506	-0.920871	-0.470164
H250	H	0.788615	-0.983580	-0.372024
H251	H	0.705669	-0.938714	-0.454816
H252	H	0.756618	-0.882517	-0.547354
H253	H	0.890518	-0.871185	-0.557102
H254	H	0.973463	-0.916051	-0.474311
H255	H	1.099993	-0.743977	-0.204431
