data_functionalizedCrystal
_audit_creation_method	'MofGen! by Chris Wilmer'
_symmetry_space_group_name_H-M	'P1'
_symmetry_Int_Tables_number	1
_symmetry_cell_setting	triclinic
loop_
_symmetry_equiv_pos_as_xyz
  x,y,z
_cell_length_a	16.109317
_cell_length_b	10.868271
_cell_length_c	16.109301
_cell_angle_alpha	90.006558
_cell_angle_beta	96.535152
_cell_angle_gamma	90.000273
loop_
_atom_site_label
_atom_site_type_symbol
_atom_site_fract_x
_atom_site_fract_y
_atom_site_fract_z
O1	O	-1.103123	0.102195	0.106933
O2	O	-0.603123	0.602195	0.606933
O3	O	-0.861063	0.102227	0.120218
O4	O	-0.361063	0.602227	0.620218
O5	O	-0.988743	0.102197	-0.007455
O6	O	-0.488743	0.602197	0.492545
O7	O	-0.975443	0.102224	0.234606
O8	O	-0.475443	0.602224	0.734606
O9	O	-0.988732	-0.102447	-0.007460
O10	O	-0.488732	0.397553	0.492540
O11	O	-0.861052	-0.102418	0.120213
O12	O	-0.361052	0.397582	0.620213
O13	O	-1.103113	-0.102450	0.106928
O14	O	-0.603113	0.397550	0.606928
Zn15	Zn	-0.982081	-0.134926	0.113570
Zn16	Zn	-0.482081	0.365074	0.613570
Zn17	Zn	-0.982095	0.134703	0.113576
Zn18	Zn	-0.482095	0.634703	0.613576
O19	O	-0.975433	-0.102420	0.234601
O20	O	-0.475433	0.397580	0.734601
C21	C	-0.830083	-0.000092	0.119675
C22	C	-0.330083	0.499908	0.619675
C23	C	-0.737788	-0.000080	0.118054
C24	C	-0.237788	0.499920	0.618054
N25	N	-0.982078	-0.318940	0.113565
N26	N	-0.482078	0.181060	0.613565
C27	C	-0.438720	0.111457	0.112823
C28	C	0.061280	0.611457	0.612823
C29	C	-0.525442	0.111463	0.114340
C30	C	-0.025442	0.611463	0.614340
C31	C	-0.525449	-0.111652	0.114323
C32	C	-0.025449	0.388348	0.614323
C33	C	-0.438730	-0.111656	0.112800
C34	C	0.061270	0.388344	0.612800
C35	C	-0.395367	-0.000098	0.112054
C36	C	0.104633	0.499902	0.612054
C37	C	-0.568808	-0.000088	0.115095
C38	C	-0.068808	0.499912	0.615095
C39	C	-0.662835	-0.000083	0.116740
C40	C	-0.162835	0.499917	0.616740
C41	C	-0.301335	-0.000102	0.110408
C42	C	0.198665	0.499898	0.610408
C43	C	-0.982090	-0.569946	0.113574
C44	C	-0.482090	-0.069946	0.613574
C45	C	-0.982081	-0.430268	0.113571
C46	C	-0.482081	0.069732	0.613571
C47	C	-0.134092	-0.000122	0.107472
C48	C	0.365908	0.499878	0.607472
C49	C	-0.226387	-0.000106	0.109095
C50	C	0.273613	0.499894	0.609095
C51	C	-0.988199	-0.000125	-0.038433
C52	C	-0.488199	0.499875	0.461567
C53	C	-0.986584	-0.000127	-0.130728
C54	C	-0.486584	0.499873	0.369272
N55	N	-0.982105	0.318717	0.113575
N56	N	-0.482105	0.818717	0.613575
C57	C	-1.058591	-0.000117	-0.352996
C58	C	-0.558591	0.499883	0.147004
C59	C	-1.057067	-0.000107	-0.439717
C60	C	-0.557067	0.499893	0.060283
C61	C	-0.905579	-0.000092	-0.419851
C62	C	-0.405579	0.499908	0.080149
C63	C	-0.907104	-0.000093	-0.333132
C64	C	-0.407104	0.499907	0.166868
C65	C	-0.983612	-0.000112	-0.299707
C66	C	-0.483612	0.499888	0.200293
C67	C	-0.980563	-0.000100	-0.473147
C68	C	-0.480563	0.499900	0.026853
C69	C	-0.978910	-0.000089	-0.567173
C70	C	-0.478910	0.499911	-0.067173
C71	C	-0.985266	-0.000121	-0.205675
C72	C	-0.485266	0.499879	0.294325
C73	C	-0.975977	-0.000095	0.265578
C74	C	-0.475977	0.499905	0.765578
C75	C	-0.977592	-0.000085	0.357874
C76	C	-0.477592	0.499915	0.857874
H77	H	-0.560736	0.202302	0.114965
H78	H	-0.060736	0.702302	0.614965
O79	O	-1.141109	-0.000125	-0.316947
O80	O	-0.641109	0.499875	0.183053
H81	H	-1.129577	-0.000136	-0.247693
H82	H	-0.629577	0.499864	0.252307
H83	H	-0.560765	-0.202479	0.114932
H84	H	-0.060765	0.297521	0.614932
O85	O	-0.392028	-0.232058	0.112145
O86	O	0.107972	0.267942	0.612145
H87	H	-0.345163	-0.237282	0.168144
H88	H	0.154837	0.262718	0.668144
H89	H	-0.403417	0.202295	0.112214
H90	H	0.096583	0.702295	0.612214
H91	H	-1.118122	-0.000108	-0.483101
H92	H	-0.618122	0.499892	0.016899
O93	O	-0.823061	-0.000097	-0.455901
O94	O	-0.323061	0.499903	0.044099
H95	H	-0.834595	-0.000115	-0.525155
H96	H	-0.334595	0.499885	-0.025155
H97	H	-0.846044	-0.000085	-0.289742
H98	H	-0.346044	0.499915	0.210258
