data_functionalizedCrystal
_audit_creation_method	'MofGen! by Chris Wilmer'
_symmetry_space_group_name_H-M	'P1'
_symmetry_Int_Tables_number	1
_symmetry_cell_setting	triclinic
loop_
_symmetry_equiv_pos_as_xyz
  x,y,z
_cell_length_a	17.699083
_cell_length_b	15.538191
_cell_length_c	16.176319
_cell_angle_alpha	89.995479
_cell_angle_beta	89.998611
_cell_angle_gamma	65.277554
loop_
_atom_site_label
_atom_site_type_symbol
_atom_site_fract_x
_atom_site_fract_y
_atom_site_fract_z
O1	O	0.971508	0.119201	-0.068626
O2	O	0.746892	0.134709	-0.068653
O3	O	0.902923	-0.010274	-0.068638
O4	O	0.815476	0.264185	-0.068641
O5	O	0.902910	-0.010284	0.068855
O6	O	0.746878	0.134700	0.068840
O7	O	0.971494	0.119192	0.068867
Cu8	Cu	0.859185	0.126945	0.081408
Cu9	Cu	0.859201	0.126956	-0.081194
O10	O	0.815463	0.264175	0.068852
C11	C	0.718840	0.134149	0.000090
C12	C	0.635277	0.132482	0.000080
C13	C	0.563403	0.217584	0.000079
C14	C	0.484889	0.216012	0.000090
C15	C	0.478252	0.129337	0.000095
C16	C	0.550134	0.044228	0.000098
C17	C	0.628646	0.045801	0.000094
C18	C	0.233505	0.037882	0.000119
C19	C	0.154985	0.036316	0.000121
C20	C	0.089748	0.208094	0.000115
C21	C	0.168260	0.209667	0.000111
C22	C	0.240135	0.124558	0.000118
C23	C	0.325269	0.126264	0.000108
C24	C	0.393120	0.127630	0.000100
C25	C	0.912066	-0.045395	0.000107
C26	C	0.939318	-0.150032	0.000102
C27	C	0.668571	-0.437202	0.000087
C28	C	0.694198	-0.535527	0.000092
C29	C	0.838344	-0.558300	0.000109
C30	C	0.812729	-0.459975	0.000100
C31	C	0.727842	-0.399434	0.000090
C32	C	0.872000	-0.422207	0.000103
C33	C	0.846387	-0.323891	0.000098
C34	C	0.761503	-0.263343	0.000091
C35	C	0.702229	-0.301118	0.000085
C36	C	0.956887	-0.482750	0.000118
C37	C	1.016158	-0.444981	0.000121
C38	C	0.990545	-0.346663	0.000111
C39	C	0.905661	-0.286116	0.000103
C40	C	1.049819	-0.308889	0.000116
C41	C	1.024206	-0.210573	0.000111
C42	C	0.880048	-0.187800	0.000099
C43	C	0.999546	0.119752	0.000122
C44	C	1.083109	0.121419	0.000127
C45	C	0.806321	0.299297	0.000106
C46	C	0.779068	0.403933	0.000105
N47	N	0.859180	0.126937	0.195773
N48	N	0.859215	0.126957	-0.195559
C49	C	0.928279	0.062764	0.239044
C50	C	0.928283	0.062763	0.325591
C51	C	0.859189	0.126940	0.368866
C52	C	0.790084	0.191116	0.325589
C53	C	0.790078	0.191111	0.239043
C54	C	0.790105	0.191133	0.674617
C55	C	0.790117	0.191135	0.761169
C56	C	0.928310	0.062785	0.761164
C57	C	0.928304	0.062781	0.674619
C58	C	0.859197	0.126953	0.631350
C59	C	0.859193	0.126952	0.537506
C60	C	0.859195	0.126946	0.462708
H61	H	0.568797	0.288165	0.000074
H62	H	0.733824	0.243367	0.360828
N63	N	1.002821	-0.006449	0.627947
H64	H	0.992332	0.003285	0.566555
H65	H	1.053548	0.004350	0.643062
N66	N	0.706174	-0.045985	0.000089
H67	H	0.740202	-0.049162	0.051058
H68	H	0.689992	-0.101082	0.000060
H69	H	0.031216	0.277393	0.000114
N70	N	1.002795	-0.006452	0.192361
H71	H	1.053554	0.004315	0.207411
H72	H	1.012382	-0.073308	0.207446
H73	H	0.544725	-0.026345	0.000115
H74	H	0.733837	0.243386	0.639394
N75	N	0.715548	0.260321	0.192368
H76	H	0.671778	0.300978	0.232914
H77	H	0.733078	0.301947	0.156449
H78	H	0.984548	0.010509	0.360821
H79	H	0.733850	0.243397	0.796402
N80	N	1.002848	-0.006433	0.807833
H81	H	0.992371	0.003301	0.869226
H82	H	1.012479	-0.073291	0.792711
H83	H	1.118934	-0.358196	0.000132
H84	H	0.149589	-0.034270	0.000127
H85	H	0.810924	-0.138503	0.000085
H86	H	0.426369	0.285311	0.000089
H87	H	0.292019	-0.031418	0.000126
N88	N	0.610671	-0.235809	0.000061
H89	H	0.577006	-0.274651	0.000055
H90	H	0.596897	-0.194520	0.051029
H91	H	0.599448	-0.387905	0.000073
N92	N	0.630267	-0.576264	0.000090
H93	H	0.572607	-0.522990	0.000084
H94	H	0.637758	-0.616559	-0.050879
H95	H	0.173657	0.280246	0.000103
H96	H	0.740650	-0.183289	0.000092
N97	N	0.929898	-0.623599	0.000128
H98	H	0.937132	-0.691614	0.000133
H99	H	0.956902	-0.611389	-0.050841
H100	H	1.085273	-0.494287	0.000132
N101	N	0.984511	-0.588790	0.000123
H102	H	1.018990	-0.616943	-0.050839
H103	H	1.018934	-0.616864	0.051133
N104	N	1.088129	-0.169828	0.000119
H105	H	1.145790	-0.223098	0.000124
H106	H	1.080644	-0.129529	-0.050852
