data_functionalizedCrystal
_audit_creation_method	'MofGen! by Chris Wilmer'
_symmetry_space_group_name_H-M	'P1'
_symmetry_Int_Tables_number	1
_symmetry_cell_setting	triclinic
loop_
_symmetry_equiv_pos_as_xyz
  x,y,z
_cell_length_a	19.805407
_cell_length_b	16.120444
_cell_length_c	19.805399
_cell_angle_alpha	87.128215
_cell_angle_beta	90.019573
_cell_angle_gamma	92.926644
loop_
_atom_site_label
_atom_site_type_symbol
_atom_site_fract_x
_atom_site_fract_y
_atom_site_fract_z
Zn1	Zn	1.021070	-0.331929	0.396381
Zn2	Zn	1.521070	0.168071	0.896381
Zn3	Zn	1.015245	-0.471348	0.288930
Zn4	Zn	1.515245	0.028652	0.788930
Zn5	Zn	0.907884	-0.331952	0.283206
Zn6	Zn	1.407884	0.168048	0.783206
Zn7	Zn	0.902111	-0.471304	0.402075
Zn8	Zn	1.402111	0.028696	0.902075
O9	O	0.961578	-0.401633	0.342648
O10	O	1.461578	0.098367	0.842648
O11	O	1.115014	-0.350432	0.382139
O12	O	1.615014	0.149568	0.882139
O13	O	1.000982	-0.452885	0.193455
O14	O	1.500982	0.047115	0.693455
O15	O	0.927752	-0.215282	0.293440
O16	O	1.427752	0.284718	0.793440
O17	O	1.110734	-0.452863	0.303196
O18	O	1.610734	0.047137	0.803196
O19	O	1.010910	-0.215265	0.376589
O20	O	1.510910	0.284735	0.876589
O21	O	0.922104	-0.350471	0.189250
O22	O	1.422104	0.149529	0.689250
O23	O	0.812402	-0.350428	0.298962
O24	O	1.312402	0.149572	0.798962
O25	O	0.917912	-0.452787	0.496035
O26	O	1.417912	0.047213	0.996035
O27	O	0.808160	-0.452809	0.386295
O28	O	1.308160	0.047191	0.886295
O29	O	1.005312	-0.350389	0.491851
O30	O	1.505312	0.149611	0.991851
O31	O	0.995384	-0.588008	0.308718
O32	O	1.495384	-0.088008	0.808718
O33	O	0.912264	-0.587976	0.391845
O34	O	1.412264	-0.087976	0.891845
C35	C	0.785722	-0.401617	0.342625
C36	C	1.285722	0.098383	0.842625
C37	C	0.710490	-0.401630	0.342633
C38	C	1.210490	0.098370	0.842633
C39	C	0.672951	-0.455020	0.388040
C40	C	1.172951	0.044980	0.888040
C41	C	0.602263	-0.455022	0.388050
C42	C	1.102263	0.044978	0.888050
C43	C	0.569114	-0.401637	0.342648
C44	C	1.069114	0.098363	0.842648
C45	C	0.606657	-0.348241	0.297239
C46	C	1.106657	0.151759	0.797239
C47	C	0.677345	-0.348236	0.297233
C48	C	1.177345	0.151764	0.797233
C49	C	0.321583	-0.348259	0.297262
C50	C	0.821583	0.151741	0.797262
C51	C	0.250891	-0.348270	0.297270
C52	C	0.750891	0.151730	0.797270
C53	C	0.246501	-0.455045	0.388079
C54	C	0.746501	0.044955	0.888079
C55	C	0.317189	-0.455040	0.388073
C56	C	0.817189	0.044960	0.888073
C57	C	0.354726	-0.401642	0.342666
C58	C	0.854726	0.098358	0.842666
C59	C	0.431375	-0.401640	0.342657
C60	C	0.931375	0.098360	0.842657
C61	C	0.492466	-0.401642	0.342653
C62	C	0.992466	0.098358	0.842653
C63	C	0.952584	-0.618243	0.351535
C64	C	1.452584	-0.118243	0.851535
C65	C	0.948798	-0.710909	0.355360
C66	C	1.448798	-0.210909	0.855360
C67	C	0.981382	-0.921848	0.322953
C68	C	1.481382	-0.421848	0.822953
C69	C	0.941899	-0.880566	0.362350
C70	C	1.441899	-0.380566	0.862350
C71	C	0.945739	-0.786160	0.358460
C72	C	1.445739	-0.286160	0.858460
C73	C	0.977543	-1.016263	0.326842
C74	C	1.477543	-0.516263	0.826842
C75	C	1.138120	-0.401650	0.342671
C76	C	1.638120	0.098350	0.842671
C77	C	1.213351	-0.401657	0.342681
C78	C	1.713351	0.098343	0.842681
C79	C	0.961618	-0.401580	0.519189
C80	C	1.461618	0.098420	1.019189
C81	C	0.961635	-0.401558	0.594420
C82	C	1.461635	0.098442	1.094420
C83	C	0.970625	-0.184178	0.333741
C84	C	1.470625	0.315822	0.833741
C85	C	0.974480	-0.091511	0.329945
C86	C	1.474480	0.408489	0.829945
C87	C	0.961579	-0.401625	0.166792
C88	C	1.461579	0.098375	0.666792
C89	C	0.961703	-0.401413	0.091551
C90	C	1.461703	0.098587	0.591551
C91	C	1.007145	-0.348237	0.627586
C92	C	1.507145	0.151763	1.127586
C93	C	1.007153	-0.348213	0.698274
C94	C	1.507153	0.151787	1.198274
C95	C	0.961653	-0.401515	0.735794
C96	C	1.461653	0.098485	1.235794
C97	C	0.916139	-0.454838	0.702622
C98	C	1.416139	0.045162	1.202622
C99	C	0.916128	-0.454858	0.631936
C100	C	1.416128	0.045142	1.131936
C101	C	0.916180	-0.454760	0.987692
C102	C	1.416180	0.045240	1.487692
C103	C	0.916196	-0.454739	1.058384
C104	C	1.416196	0.045261	1.558384
C105	C	1.007205	-0.348116	1.054031
C106	C	1.507205	0.151884	1.554031
C107	C	1.007194	-0.348135	0.983344
C108	C	1.507194	0.151865	1.483344
C109	C	0.961677	-0.401455	0.950179
C110	C	1.461677	0.098545	1.450179
C111	C	0.961668	-0.401480	0.873531
C112	C	1.461668	0.098520	1.373531
C113	C	0.961665	-0.401495	0.812440
C114	C	1.461665	0.098505	1.312440
H115	H	0.707908	-0.304756	0.260261
H116	H	1.207908	0.195244	0.760261
Br117	Br	0.880750	-0.939828	0.423437
Br118	Br	1.380750	-0.439828	0.923437
H119	H	0.879142	-0.498145	1.088931
H120	H	1.379142	0.001855	1.588931
H121	H	1.044198	-0.304835	0.597043
H122	H	1.544198	0.195165	1.097043
H123	H	0.215930	-0.498522	0.425053
H124	H	0.715930	0.001478	0.925053
Br125	Br	1.042524	-0.862585	0.261868
Br126	Br	1.542524	-0.362585	0.761868
H127	H	0.223903	-0.304792	0.260298
H128	H	0.723903	0.195208	0.760298
Br129	Br	1.068978	-0.275750	1.099044
Br130	Br	1.568978	0.224250	1.599044
H131	H	1.044213	-0.304795	0.725275
H132	H	1.544213	0.195205	1.225275
Br133	Br	0.854406	-0.527122	0.942691
Br134	Br	1.354406	-0.027122	1.442691
H135	H	0.879090	-0.498235	0.733176
H136	H	1.379090	0.001765	1.233176
Br137	Br	0.372519	-0.275785	0.235642
Br138	Br	0.872519	0.224215	0.735642
Br139	Br	1.068949	-0.275799	0.932428
Br140	Br	1.568949	0.224201	1.432428
H141	H	0.879063	-0.498269	0.604932
H142	H	1.379063	0.001731	1.104932
H143	H	0.571702	-0.498498	0.425024
H144	H	1.071702	0.001502	0.925024
Br145	Br	0.362173	-0.527499	0.449687
Br146	Br	0.862173	-0.027499	0.949687
Br147	Br	0.717932	-0.527482	0.449655
Br148	Br	1.217932	-0.027482	0.949655
Br149	Br	0.561671	-0.275781	0.235627
Br150	Br	1.061671	0.224219	0.735627
