data_functionalizedCrystal
_audit_creation_method	'MofGen! by Chris Wilmer'
_symmetry_space_group_name_H-M	'P1'
_symmetry_Int_Tables_number	1
_symmetry_cell_setting	triclinic
loop_
_symmetry_equiv_pos_as_xyz
  x,y,z
_cell_length_a	13.897449
_cell_length_b	19.077068
_cell_length_c	19.076919
_cell_angle_alpha	85.529249
_cell_angle_beta	87.717932
_cell_angle_gamma	92.328280
loop_
_atom_site_label
_atom_site_type_symbol
_atom_site_fract_x
_atom_site_fract_y
_atom_site_fract_z
Zn1	Zn	1.435688	-0.296659	0.409828
Zn2	Zn	1.435569	-0.409812	0.296673
Zn3	Zn	1.281141	-0.291945	0.291961
Zn4	Zn	1.267584	-0.414512	0.414519
O5	O	1.354995	-0.353232	0.353245
O6	O	1.570653	-0.311674	0.394827
O7	O	1.420707	-0.390237	0.197401
O8	O	1.307366	-0.193921	0.303661
O9	O	1.570565	-0.394808	0.311692
O10	O	1.420911	-0.197384	0.390258
O11	O	1.307250	-0.303641	0.193939
O12	O	1.144362	-0.308198	0.308209
O13	O	1.284259	-0.402817	0.512544
O14	O	1.134401	-0.398247	0.398252
O15	O	1.407765	-0.316231	0.509098
O16	O	1.407561	-0.509085	0.316241
O17	O	1.284144	-0.512537	0.402822
C18	C	1.344394	-0.536390	0.360567
C19	C	1.339945	-0.614747	0.363723
C20	C	1.104382	-0.353222	0.353229
C21	C	0.997167	-0.353235	0.353239
C22	C	1.402158	-0.649740	0.320165
C23	C	1.397979	-0.723365	0.323137
C24	C	1.331583	-0.761996	0.369665
C25	C	1.269367	-0.726998	0.413227
C26	C	1.273551	-0.653375	0.410258
C27	C	1.312178	-0.982382	0.383378
C28	C	1.307997	-1.056010	0.386343
C29	C	1.436611	-1.052372	0.296253
C30	C	1.440785	-0.978747	0.293285
C31	C	1.378573	-0.943756	0.336850
N32	N	1.327308	-0.837252	0.372702
N33	N	1.382853	-0.868501	0.333816
C34	C	0.800871	-0.353238	0.353258
C35	C	0.910104	-0.353234	0.353245
C36	C	1.606587	-0.353243	0.353262
C37	C	1.713800	-0.353247	0.353269
C38	C	1.344513	-0.360574	0.537114
C39	C	1.340046	-0.363703	0.615468
C40	C	1.365664	-0.169359	0.345910
C41	C	1.370210	-0.091003	0.342785
C42	C	1.365495	-0.345867	0.170090
C43	C	1.370160	-0.342540	0.091728
C44	C	1.402247	-0.320094	0.650486
C45	C	1.398038	-0.323032	0.724108
C46	C	1.331633	-0.369582	0.762710
C47	C	1.269425	-0.413192	0.727688
C48	C	1.273630	-0.410251	0.654067
C49	C	1.312158	-0.383209	0.983085
C50	C	1.307960	-0.386148	1.056710
C51	C	1.436572	-0.295987	1.053125
C52	C	1.440775	-0.293053	0.979504
C53	C	1.378564	-0.336660	0.944487
N54	N	1.327331	-0.372587	0.837964
N55	N	1.382861	-0.333651	0.869235
H56	H	1.448639	-0.751853	0.287667
O57	O	1.505378	-0.941332	0.248076
C58	C	1.559381	-0.988005	0.210256
H59	H	1.558056	-1.041627	0.241246
H60	H	1.526730	-0.993738	0.157009
C61	C	1.665893	-0.892953	0.160949
C62	C	1.664273	-0.958810	0.199014
H63	H	1.730594	-0.874943	0.154011
H64	H	1.629508	-0.861507	0.186427
H65	H	1.638679	-0.897739	0.116581
H66	H	1.691475	-0.954022	0.243385
H67	H	1.700664	-0.990254	0.173543
H68	H	1.261515	-0.418728	0.954584
O69	O	1.466783	-0.274813	0.613097
C70	C	1.520795	-0.236965	0.659796
H71	H	1.478429	-0.236621	0.712172
H72	H	1.592108	-0.263096	0.668664
C73	C	1.592725	-0.161213	0.563745
C74	C	1.540687	-0.160784	0.628073
H75	H	1.605000	-0.114221	0.544176
H76	H	1.556340	-0.186713	0.532282
H77	H	1.652147	-0.182992	0.571144
H78	H	1.481262	-0.139013	0.620672
H79	H	1.577063	-0.135278	0.659534
H80	H	1.456221	-0.618291	0.282274
H81	H	1.494852	-0.255149	0.948078
O82	O	1.497011	-1.086475	0.254016
C83	C	1.479072	-1.159740	0.266601
H84	H	1.443738	-1.171963	0.321384
H85	H	1.428959	-1.179016	0.225593
C86	C	1.618299	-1.182210	0.194454
C87	C	1.574909	-1.197222	0.261743
H88	H	1.677414	-1.205332	0.191454
H89	H	1.630383	-1.132850	0.185973
H90	H	1.576528	-1.198273	0.160288
H91	H	1.616674	-1.181151	0.295906
H92	H	1.562833	-1.246581	0.270229
O93	O	1.458323	-0.280590	0.758147
C94	C	1.403612	-0.236764	0.798915
H95	H	1.329160	-0.231529	0.776546
H96	H	1.395842	-0.260778	0.855583
C97	C	1.546359	-0.169952	0.824587
C98	C	1.454918	-0.163518	0.797110
H99	H	1.578008	-0.124772	0.823477
H100	H	1.583220	-0.199480	0.797123
H101	H	1.539871	-0.189967	0.871808
H102	H	1.461407	-0.143512	0.749887
H103	H	1.418060	-0.133985	0.824566
O104	O	1.243473	-1.093431	0.431609
C105	C	1.189446	-1.046761	0.469415
H106	H	1.231792	-0.994351	0.469764
H107	H	1.118126	-1.037955	0.443246
C108	C	1.117556	-1.142841	0.545160
C109	C	1.169571	-1.078473	0.545594
H110	H	1.105292	-1.162404	0.592151
H111	H	1.153953	-1.174285	0.519689
H112	H	1.058129	-1.135494	0.523350
H113	H	1.229001	-1.085822	0.567397
H114	H	1.133184	-1.047031	0.571071
H115	H	1.487219	-0.260483	1.081644
O116	O	1.243574	-0.431438	1.094248
C117	C	1.293410	-0.478664	1.138670
H118	H	1.370389	-0.482150	1.116661
H119	H	1.294826	-0.459090	1.193593
C120	C	1.147401	-0.547705	1.169762
C121	C	1.241946	-0.551990	1.142728
H122	H	1.115655	-0.592935	1.172268
H123	H	1.113825	-0.515886	1.139837
H124	H	1.148594	-0.531390	1.215529
H125	H	1.240752	-0.568296	1.096958
H126	H	1.275522	-0.583813	1.172646
H127	H	1.215353	-0.451092	0.759124
O128	O	1.213315	-0.452720	0.620080
C129	C	1.229284	-0.523698	0.640886
H130	H	1.304977	-0.528064	0.661282
H131	H	1.174056	-0.543836	0.684343
C132	C	1.126116	-0.562770	0.552308
C133	C	1.219087	-0.568132	0.577353
H134	H	1.119822	-0.590180	0.513119
H135	H	1.115355	-0.514951	0.538292
H136	H	1.080103	-0.579550	0.588528
H137	H	1.265097	-0.551344	0.541136
H138	H	1.229856	-0.615950	0.591362
O139	O	1.251874	-0.948372	0.425766
C140	C	1.306555	-0.907539	0.469609
H141	H	1.381015	-0.929848	0.474906
H142	H	1.314307	-0.850876	0.445572
C143	C	1.163777	-0.881943	0.536306
C144	C	1.255228	-0.909347	0.542818
H145	H	1.132115	-0.883055	0.581465
H146	H	1.126936	-0.909451	0.506767
H147	H	1.170250	-0.834726	0.516273
H148	H	1.248753	-0.956565	0.562842
H149	H	1.292066	-0.881847	0.572362
H150	H	1.215309	-0.758457	0.451114
H151	H	1.222892	-0.624884	0.445729
