data_functionalizedCrystal
_audit_creation_method	'MofGen! by Chris Wilmer'
_symmetry_space_group_name_H-M	'P1'
_symmetry_Int_Tables_number	1
_symmetry_cell_setting	triclinic
loop_
_symmetry_equiv_pos_as_xyz
  x,y,z
_cell_length_a	6.817900
_cell_length_b	16.418049
_cell_length_c	14.125286
_cell_angle_alpha	95.906801
_cell_angle_beta	100.396688
_cell_angle_gamma	103.389670
loop_
_atom_site_label
_atom_site_type_symbol
_atom_site_fract_x
_atom_site_fract_y
_atom_site_fract_z
V1	V	-3.990846	-0.115239	-0.300327
O2	O	-3.979556	0.006203	-0.294262
O3	O	-3.942116	-0.229139	-0.298609
O4	O	-3.927007	-0.113174	-0.431158
O5	O	-3.994770	-0.110564	-0.160795
V6	V	-4.476518	-0.100747	-0.283598
O7	O	-4.247392	-0.147026	-0.337026
O8	O	-4.670169	-0.068959	-0.246899
O9	O	-4.302041	0.013153	-0.285316
O10	O	-4.605205	-0.222189	-0.289663
O11	O	-4.589991	-0.105421	-0.423130
O12	O	-4.317151	-0.102812	-0.152767
C13	C	-3.787537	-0.256914	-0.293957
C14	C	-3.828878	-0.350027	-0.293424
C15	C	-4.105485	-0.568509	-0.297028
C16	C	-4.144317	-0.655999	-0.296536
C17	C	-3.781237	-0.647476	-0.286903
C18	C	-3.742410	-0.559988	-0.287402
C19	C	-3.904539	-0.520506	-0.292460
C20	C	-3.982198	-0.695485	-0.291468
C21	C	-4.024300	-0.790345	-0.290934
C22	C	-3.862436	-0.425640	-0.292996
C23	C	-3.768262	-0.108989	-0.463035
C24	C	-3.797347	-0.108054	-0.569992
C25	C	-4.036111	-0.109752	-0.818119
C26	C	-3.850634	-0.106233	-0.765794
C27	C	-3.820986	-0.107246	-0.656840
C28	C	-4.065767	-0.108738	-0.927083
C29	C	-4.119963	0.040924	-0.289965
C30	C	-4.057860	0.134036	-0.290504
C31	C	-4.139239	-0.107000	-0.120884
C32	C	-4.089392	-0.107930	-0.013927
H33	H	-4.307944	-0.695080	-0.300257
C34	C	-3.666178	-0.101113	-0.815804
H35	H	-3.545899	-0.099026	-0.768642
H36	H	-3.693862	-0.149620	-0.863789
H37	H	-3.644959	-0.051514	-0.845823
C38	C	-4.283820	-0.525082	-0.302597
H39	H	-4.409060	-0.566205	-0.305254
H40	H	-4.257168	-0.483602	-0.246601
H41	H	-4.295280	-0.498660	-0.359389
C42	C	-3.602908	-0.690907	-0.281327
H43	H	-3.654805	-0.749886	-0.281673
H44	H	-3.541002	-0.682349	-0.335818
H45	H	-3.502906	-0.667286	-0.223031
H46	H	-3.578769	-0.520903	-0.283686
C47	C	-4.220540	-0.114861	-0.768102
H48	H	-4.176103	-0.114891	-0.700375
H49	H	-4.275183	-0.067377	-0.777555
H50	H	-4.324104	-0.165483	-0.795505
