data_functionalizedCrystal
_audit_creation_method	'MofGen! by Chris Wilmer'
_symmetry_space_group_name_H-M	'P1'
_symmetry_Int_Tables_number	1
_symmetry_cell_setting	triclinic
loop_
_symmetry_equiv_pos_as_xyz
  x,y,z
_cell_length_a	10.540510
_cell_length_b	16.992695
_cell_length_c	15.455313
_cell_angle_alpha	92.847427
_cell_angle_beta	87.291883
_cell_angle_gamma	87.590767
loop_
_atom_site_label
_atom_site_type_symbol
_atom_site_fract_x
_atom_site_fract_y
_atom_site_fract_z
O1	O	1.700713	0.107050	-0.072137
O2	O	1.332201	0.117491	-0.072138
O3	O	1.514979	-0.001880	-0.072131
O4	O	1.517935	0.226421	-0.072145
O5	O	1.504524	0.004918	0.072131
O6	O	1.321746	0.124289	0.072124
O7	O	1.690258	0.113848	0.072124
Cu8	Cu	1.505047	0.119689	0.085296
Cu9	Cu	1.517412	0.111650	-0.085310
O10	O	1.507480	0.233219	0.072117
C11	C	1.505951	-0.027715	-0.000000
C12	C	1.494610	-0.114822	-0.000000
C13	C	1.279603	0.120112	-0.000007
C14	C	1.138451	0.117784	-0.000007
C15	C	1.604031	-0.164457	0.000001
C16	C	1.593368	-0.246303	-0.000007
C17	C	1.473284	-0.278512	-0.000011
C18	C	1.363855	-0.228871	-0.000014
C19	C	1.374519	-0.147027	-0.000012
C20	C	1.429085	-0.522355	-0.000023
C21	C	1.418429	-0.604205	-0.000022
C22	C	1.647943	-0.621632	-0.000017
C23	C	1.658597	-0.539785	-0.000010
C24	C	1.549168	-0.490151	-0.000018
N25	N	1.462382	-0.362171	-0.000016
N26	N	1.560072	-0.406493	-0.000018
C27	C	0.928215	0.200695	-0.000344
C28	C	1.075003	0.203194	-0.000013
C29	C	1.083927	0.077944	0.082374
C30	C	0.936998	0.076069	0.082438
C31	C	0.948927	0.066560	-0.081615
C32	C	1.095698	0.070560	-0.082699
C33	C	1.742857	0.111227	-0.000008
C34	C	1.884009	0.113554	-0.000014
C35	C	1.516508	0.259053	-0.000016
C36	C	1.527849	0.346160	-0.000021
N37	N	1.496360	0.125343	0.205291
N38	N	1.526108	0.105990	-0.205305
C39	C	1.574042	0.074649	0.250689
C40	C	1.567484	0.078932	0.341496
C41	C	1.483251	0.133913	0.386905
C42	C	1.405562	0.184610	0.341501
C43	C	1.412113	0.180322	0.250696
C44	C	1.454970	0.152399	0.658485
C45	C	1.448427	0.156684	0.749298
C46	C	1.610349	0.051004	0.749286
C47	C	1.616898	0.046725	0.658478
C48	C	1.539204	0.097418	0.613083
N49	N	1.476550	0.138294	0.479725
N50	N	1.545900	0.093033	0.520265
H51	H	1.682471	-0.286713	-0.000005
N52	N	1.136289	-0.000742	0.086242
N53	N	1.198306	-0.019452	0.149639
H54	H	1.235297	-0.075023	0.152371
H55	H	1.756382	-0.513567	-0.000007
N56	N	1.759702	-0.672342	-0.000007
N57	N	1.750171	-0.745416	-0.000007
H58	H	1.829105	-0.781232	-0.000002
H59	H	1.320635	-0.630425	-0.000011
N60	N	1.241178	-0.261753	-0.000022
N61	N	1.169936	-0.249636	-0.060830
H62	H	1.083290	-0.272855	-0.060832
H63	H	1.285417	-0.106614	-0.000013
H64	H	1.112973	0.111197	0.143678
N65	N	0.914184	-0.013913	-0.082313
N66	N	0.856920	-0.042704	-0.144570
H67	H	0.832373	-0.099535	-0.145054
H68	H	1.379831	0.201460	0.786265
H69	H	0.913241	0.090552	-0.144055
H70	H	1.131493	0.099500	-0.143644
H71	H	1.642638	0.029880	0.213723
N72	N	1.689696	-0.000792	0.795644
N73	N	1.764891	-0.049882	0.755089
H74	H	1.820931	-0.086469	0.787828
N75	N	1.375639	0.204200	0.612127
N76	N	1.424531	0.250748	0.561447
H77	H	1.368504	0.287338	0.528704
H78	H	1.630738	0.037652	0.378458
N79	N	1.703178	-0.009307	0.612111
N80	N	1.772683	-0.054477	0.652656
H81	H	1.833709	-0.093998	0.619909
H82	H	1.339980	-0.481952	-0.000029
H83	H	1.139715	0.007970	-0.087670
N84	N	1.120898	0.242616	-0.074099
N85	N	1.044488	0.268473	-0.126410
H86	H	1.076895	0.296318	-0.178736
N87	N	0.884572	0.238941	-0.074462
N88	N	0.820372	0.202425	-0.127907
H89	H	0.789540	0.229436	-0.180256
N90	N	0.871895	0.245664	0.073350
N91	N	0.799342	0.213814	0.126111
H92	H	0.759564	0.245571	0.178160
N93	N	1.108991	0.249916	0.074152
N94	N	1.024247	0.280772	0.125835
H95	H	1.048246	0.313793	0.178203
H96	H	0.894912	0.108850	0.144015
H97	H	1.336971	0.229374	0.378479
H98	H	0.908188	0.012364	0.086184
N99	N	1.332749	0.232108	0.204334
N100	N	1.257545	0.281195	0.244885
H101	H	1.201487	0.317769	0.212144
H102	H	1.701817	-0.138239	0.000009
