data_functionalizedCrystal
_audit_creation_method	'MofGen! by Chris Wilmer'
_symmetry_space_group_name_H-M	'P1'
_symmetry_Int_Tables_number	1
_symmetry_cell_setting	triclinic
loop_
_symmetry_equiv_pos_as_xyz
  x,y,z
_cell_length_a	19.121424
_cell_length_b	19.120786
_cell_length_c	16.120256
_cell_angle_alpha	90.308049
_cell_angle_beta	95.181730
_cell_angle_gamma	95.008527
loop_
_atom_site_label
_atom_site_type_symbol
_atom_site_fract_x
_atom_site_fract_y
_atom_site_fract_z
Zn1	Zn	1.045609	-0.252347	-0.405826
Zn2	Zn	1.378942	0.080987	-0.072493
Zn3	Zn	1.712276	0.414320	0.260841
Zn4	Zn	1.046976	-0.363543	-0.260708
Zn5	Zn	1.380309	-0.030210	0.072626
Zn6	Zn	1.713643	0.303123	0.405959
Zn7	Zn	0.933911	-0.251419	-0.272113
Zn8	Zn	1.267244	0.081914	0.061220
Zn9	Zn	1.600578	0.415247	0.394554
Zn10	Zn	0.922896	-0.375005	-0.405755
Zn11	Zn	1.256230	-0.041672	-0.072421
Zn12	Zn	1.589563	0.291662	0.260912
O13	O	0.987348	-0.310579	-0.336100
O14	O	1.320681	0.022755	-0.002767
O15	O	1.654015	0.356088	0.330566
O16	O	1.144464	-0.262688	-0.381833
O17	O	1.477797	0.070645	-0.048499
O18	O	1.811131	0.403978	0.284834
O19	O	1.037160	-0.343485	-0.145559
O20	O	1.370493	-0.010152	0.187775
O21	O	1.703826	0.323181	0.521108
O22	O	0.952766	-0.153285	-0.294653
O23	O	1.286099	0.180048	0.038680
O24	O	1.619432	0.513382	0.372013
O25	O	1.145468	-0.344384	-0.275215
O26	O	1.478802	-0.011051	0.058118
O27	O	1.812135	0.322282	0.391452
O28	O	1.034829	-0.153966	-0.392892
O29	O	1.368163	0.179367	-0.059558
O30	O	1.701496	0.512700	0.273775
O31	O	0.954091	-0.261108	-0.153938
O32	O	1.287425	0.072225	0.179395
O33	O	1.620758	0.405559	0.512729
O34	O	0.833776	-0.272222	-0.294584
O35	O	1.167110	0.061111	0.038749
O36	O	1.500443	0.394445	0.372083
O37	O	0.933993	-0.363919	-0.522426
O38	O	1.267326	-0.030586	-0.189093
O39	O	1.600659	0.302748	0.144241
O40	O	0.825684	-0.363020	-0.392770
O41	O	1.159017	-0.029686	-0.059437
O42	O	1.492350	0.303647	0.273897
O43	O	1.024149	-0.273802	-0.522478
O44	O	1.357482	0.059531	-0.189145
O45	O	1.690816	0.392865	0.144188
O46	O	1.026479	-0.463321	-0.275146
O47	O	1.359812	-0.129988	0.058188
O48	O	1.693146	0.203346	0.391521
O49	O	0.935318	-0.471742	-0.381711
O50	O	1.268652	-0.138409	-0.048378
O51	O	1.601985	0.194925	0.284956
C52	C	0.804145	-0.318765	-0.344907
C53	C	1.137478	0.014569	-0.011574
C54	C	1.470812	0.347902	0.321759
C55	C	0.725768	-0.322284	-0.348694
C56	C	1.059102	0.011049	-0.015361
C57	C	1.392435	0.344382	0.317973
C58	C	0.979870	-0.493009	-0.327200
C59	C	1.313204	-0.159675	0.006133
C60	C	1.646537	0.173658	0.339467
C61	C	0.976734	-0.571051	-0.323417
C62	C	1.310068	-0.237718	0.009916
C63	C	1.643401	0.095616	0.343249
C64	C	0.282273	-0.344546	-0.372737
C65	C	0.615606	-0.011213	-0.039404
C66	C	0.948940	0.322121	0.293929
C67	C	0.355917	-0.341244	-0.369164
C68	C	0.689250	-0.007910	-0.035830
C69	C	1.022583	0.325423	0.297503
C70	C	0.396928	-0.292250	-0.316349
C71	C	0.730261	0.041083	0.016985
C72	C	1.063594	0.374416	0.350318
C73	C	0.364292	-0.246562	-0.267098
C74	C	0.697625	0.086772	0.066236
C75	C	1.030958	0.420105	0.399569
C76	C	0.290649	-0.249868	-0.270668
C77	C	0.623983	0.083465	0.062666
C78	C	0.957316	0.416799	0.395999
C79	C	0.619490	-0.279902	-0.303013
C80	C	0.952823	0.053431	0.030320
C81	C	1.286157	0.386765	0.363654
C82	C	0.693137	-0.276598	-0.299449
C83	C	1.026470	0.056736	0.033885
C84	C	1.359804	0.390069	0.367218
C85	C	0.684757	-0.371281	-0.401514
C86	C	1.018090	-0.037947	-0.068180
C87	C	1.351423	0.295386	0.265153
C88	C	0.611113	-0.374580	-0.405083
C89	C	0.944447	-0.041247	-0.071749
C90	C	1.277780	0.292087	0.261584
C91	C	0.578484	-0.328894	-0.355829
C92	C	0.911817	0.004440	-0.022495
C93	C	1.245150	0.337773	0.310838
C94	C	0.472204	-0.288872	-0.312696
C95	C	0.805537	0.044461	0.020637
C96	C	1.138870	0.377795	0.353970
C97	C	0.503209	-0.332276	-0.359477
C98	C	0.836543	0.001057	-0.026144
C99	C	1.169876	0.334391	0.307190
C100	C	1.017952	-0.608013	-0.372833
C101	C	1.351285	-0.274680	-0.039499
C102	C	1.684619	0.058653	0.293834
C103	C	1.015002	-0.681343	-0.369280
C104	C	1.348336	-0.348010	-0.035947
C105	C	1.681669	-0.014676	0.297387
C106	C	0.970839	-0.717709	-0.316307
C107	C	1.304172	-0.384375	0.017026
C108	C	1.637506	-0.051042	0.350360
C109	C	0.929617	-0.680741	-0.266890
C110	C	1.262950	-0.347408	0.066443
C111	C	1.596283	-0.014075	0.399777
C112	C	0.932563	-0.607413	-0.270448
C113	C	1.265896	-0.274080	0.062886
C114	C	1.599229	0.059253	0.396219
C115	C	0.959804	-0.939097	-0.303008
C116	C	1.293138	-0.605763	0.030325
C117	C	1.626471	-0.272430	0.363659
C118	C	0.956863	-1.012430	-0.299452
C119	C	1.290196	-0.679096	0.033881
C120	C	1.623530	-0.345763	0.367214
C121	C	1.042248	-1.013026	-0.401844
C122	C	1.375582	-0.679693	-0.068511
C123	C	1.708915	-0.346360	0.264823
C124	C	1.045194	-0.939697	-0.405393
C125	C	1.378527	-0.606363	-0.072060
C126	C	1.711860	-0.273030	0.261274
C127	C	1.003969	-0.902736	-0.355979
C128	C	1.337302	-0.569403	-0.022646
C129	C	1.670635	-0.236069	0.310687
C130	C	0.967825	-0.792663	-0.312672
C131	C	1.301158	-0.459330	0.020661
C132	C	1.634491	-0.125996	0.353994
C133	C	1.006980	-0.827783	-0.359619
C134	C	1.340313	-0.494450	-0.026286
C135	C	1.673646	-0.161117	0.307048
C136	C	1.171267	-0.302361	-0.327259
C137	C	1.504600	0.030972	0.006074
C138	C	1.837933	0.364305	0.339407
C139	C	1.249642	-0.298859	-0.323492
C140	C	1.582975	0.034474	0.009841
C141	C	1.916308	0.367807	0.343175
C142	C	0.977690	-0.320242	-0.553547
C143	C	1.311023	0.013091	-0.220214
C144	C	1.644356	0.346424	0.113119
C145	C	0.973574	-0.324361	-0.646210
C146	C	1.306907	0.008973	-0.312877
C147	C	1.640240	0.342306	0.020457
C148	C	0.994874	-0.127436	-0.345053
C149	C	1.328207	0.205897	-0.011719
C150	C	1.661540	0.539230	0.321614
C151	C	0.998081	-0.049392	-0.348868
C152	C	1.331414	0.283941	-0.015534
C153	C	1.664747	0.617275	0.317799
C154	C	1.008811	-0.289085	-0.857182
C155	C	1.342145	0.044248	-0.523849
C156	C	1.675478	0.377582	-0.190515
C157	C	0.966037	-0.331851	-0.815863
C158	C	1.299370	0.001482	-0.482530
C159	C	1.632703	0.334815	-0.149197
C160	C	0.970232	-0.327682	-0.721460
C161	C	1.303565	0.005651	-0.388126
C162	C	1.636898	0.338985	-0.054793
C163	C	1.004618	-0.293253	-0.951594
C164	C	1.337951	0.040080	-0.618261
C165	C	1.671284	0.373414	-0.284928
C166	C	0.997012	-0.300900	-0.119500
C167	C	1.330345	0.032433	0.213833
C168	C	1.663678	0.365767	0.547167
C169	C	1.001272	-0.296578	-0.026841
C170	C	1.334606	0.036756	0.306493
C171	C	1.667939	0.370089	0.639826
H172	H	0.382481	-0.378448	-0.409262
H173	H	0.715815	-0.045115	-0.075929
H174	H	1.049148	0.288219	0.257404
H175	H	1.048572	-0.711434	-0.409512
H176	H	1.381905	-0.378101	-0.076179
H177	H	1.715239	-0.044767	0.257154
H178	H	1.042935	-0.798173	-0.402753
H179	H	1.376268	-0.464839	-0.069419
H180	H	1.709602	-0.131506	0.263914
H181	H	0.920896	-1.042037	-0.256315
H182	H	1.254230	-0.708703	0.077018
H183	H	1.587563	-0.375370	0.410352
H184	H	0.248886	-0.384438	-0.415750
H185	H	0.582220	-0.051105	-0.082416
H186	H	0.915553	0.282229	0.250917
O187	O	1.061493	-0.236446	-0.810128
O188	O	1.394827	0.096887	-0.476794
O189	O	1.728160	0.430221	-0.143461
H190	H	1.092183	-0.205756	-0.854956
H191	H	1.425516	0.127578	-0.521623
H192	H	1.758850	0.460911	-0.188289
O193	O	0.913353	-0.384499	-0.862913
O194	O	1.246687	-0.051166	-0.529580
O195	O	1.580020	0.282167	-0.196246
H196	H	0.923907	-0.438345	-0.842994
H197	H	1.257241	-0.105012	-0.509660
H198	H	1.590574	0.228322	-0.176327
H199	H	1.075810	-1.043128	-0.442075
H200	H	1.409144	-0.709794	-0.108741
H201	H	1.742477	-0.376461	0.224592
H202	H	0.931869	-0.822280	-0.269539
H203	H	1.265202	-0.488947	0.063794
H204	H	1.598535	-0.155613	0.397127
H205	H	0.469815	-0.372168	-0.402476
H206	H	0.803148	-0.038835	-0.069143
H207	H	1.136482	0.294499	0.264191
H208	H	0.577727	-0.414477	-0.448088
H209	H	0.911060	-0.081143	-0.114755
H210	H	1.244393	0.252190	0.218578
H211	H	0.711332	-0.408476	-0.441613
H212	H	1.044665	-0.075143	-0.108279
H213	H	1.377999	0.258190	0.225054
H214	H	0.592932	-0.242704	-0.262904
H215	H	0.926265	0.090630	0.070430
H216	H	1.259599	0.423963	0.403763
O217	O	0.737375	-0.223757	-0.242477
O218	O	1.070709	0.109577	0.090856
O219	O	1.404042	0.442910	0.424190
H220	H	0.702315	-0.192548	-0.208821
H221	H	1.035648	0.140786	0.124513
H222	H	1.368982	0.474119	0.457846
O223	O	1.092828	-0.900479	-0.462531
O224	O	1.426162	-0.567146	-0.129198
O225	O	1.759495	-0.233812	0.204135
H226	H	1.087957	-0.843279	-0.456697
H227	H	1.421291	-0.509946	-0.123363
H228	H	1.754624	-0.176613	0.209970
O229	O	0.408520	-0.193716	-0.210132
O230	O	0.741853	0.139618	0.123201
O231	O	1.075187	0.472951	0.456534
H232	H	0.465211	-0.199085	-0.215929
H233	H	0.798544	0.134248	0.117404
H234	H	1.131878	0.467581	0.450737
H235	H	0.264082	-0.212663	-0.230569
H236	H	0.597416	0.120670	0.102764
H237	H	0.930749	0.454003	0.436097
H238	H	0.505603	-0.248981	-0.269695
H239	H	0.838936	0.084353	0.063638
H240	H	1.172270	0.417686	0.396971
H241	H	1.053918	-0.578409	-0.415965
H242	H	1.387251	-0.245076	-0.082632
H243	H	1.720584	0.088258	0.250702
O244	O	0.915358	-0.899234	-0.249697
O245	O	1.248691	-0.565901	0.083636
O246	O	1.582025	-0.232567	0.416970
H247	H	0.884165	-0.936842	-0.212254
H248	H	1.217498	-0.603509	0.121079
H249	H	1.550832	-0.270175	0.454412
H250	H	0.893655	-0.710356	-0.223762
H251	H	1.226988	-0.377023	0.109572
H252	H	1.560321	-0.043690	0.442905
O253	O	0.888114	-0.567541	-0.217143
O254	O	1.221447	-0.234207	0.116190
O255	O	1.554780	0.099126	0.449523
H256	H	0.856915	-0.605145	-0.179702
H257	H	1.190248	-0.271812	0.153631
H258	H	1.523582	0.061522	0.486964
