data_functionalizedCrystal
_audit_creation_method	'MofGen! by Chris Wilmer'
_symmetry_space_group_name_H-M	'P1'
_symmetry_Int_Tables_number	1
_symmetry_cell_setting	triclinic
loop_
_symmetry_equiv_pos_as_xyz
  x,y,z
_cell_length_a	12.759401
_cell_length_b	15.297327
_cell_length_c	12.759393
_cell_angle_alpha	99.642347
_cell_angle_beta	89.979527
_cell_angle_gamma	99.708126
loop_
_atom_site_label
_atom_site_type_symbol
_atom_site_fract_x
_atom_site_fract_y
_atom_site_fract_z
Zn1	Zn	1.533811	-0.359076	-0.666328
Zn2	Zn	1.503259	-0.509963	-0.521033
Zn3	Zn	1.358101	-0.359126	-0.490673
Zn4	Zn	1.327670	-0.509899	-0.696657
O5	O	1.430711	-0.434516	-0.593673
O6	O	1.676778	-0.379098	-0.647067
O7	O	1.483953	-0.490002	-0.369994
O8	O	1.406931	-0.232873	-0.488576
O9	O	1.654332	-0.489954	-0.540320
O10	O	1.536024	-0.232837	-0.617629
O11	O	1.377306	-0.379182	-0.347689
O12	O	1.207045	-0.379120	-0.517985
O13	O	1.355066	-0.489844	-0.839646
O14	O	1.184687	-0.489892	-0.669320
O15	O	1.506517	-0.379035	-0.817363
O16	O	1.454446	-0.636200	-0.569728
O17	O	1.325441	-0.636153	-0.698759
C18	C	1.157745	-0.434505	-0.593650
C19	C	1.040965	-0.434522	-0.593669
C20	C	1.383355	-0.668911	-0.640852
C21	C	1.363192	-0.769186	-0.661070
C22	C	0.974472	-0.492289	-0.672382
C23	C	0.864747	-0.492292	-0.672403
C24	C	0.888020	-0.376759	-0.514991
C25	C	0.997743	-0.376752	-0.514974
C26	C	1.575251	-1.051818	-0.449527
C27	C	1.594195	-0.957604	-0.430526
C28	C	1.536446	-0.910495	-0.488160
C29	C	1.459750	-0.957608	-0.564800
C30	C	1.440798	-1.051831	-0.583797
C31	C	1.401993	-0.910508	-0.622430
C32	C	1.325297	-0.957622	-0.699069
C33	C	1.306350	-1.051835	-0.718064
C34	C	1.364098	-1.098944	-0.660429
C35	C	1.420945	-0.816286	-0.603433
C36	C	1.286492	-0.816299	-0.737702
C37	C	1.267548	-0.910512	-0.756704
C38	C	1.704741	-0.434528	-0.593697
C39	C	1.821517	-0.434533	-0.593707
C40	C	1.430805	-0.434427	-0.867689
C41	C	1.430845	-0.434389	-0.984458
C42	C	1.478280	-0.199206	-0.546333
C43	C	1.498551	-0.098931	-0.526159
C44	C	1.509741	-0.376648	-1.137441
C45	C	1.509714	-0.376683	-1.027724
C46	C	1.352005	-0.492071	-1.050916
C47	C	1.352037	-0.492040	-1.160632
C48	C	1.430690	-0.434539	-0.320710
C49	C	1.430905	-0.434323	-0.203891
H50	H	1.009660	-0.539326	-0.736462
Br51	Br	1.245046	-0.570328	-1.250823
H52	H	1.656639	-0.919248	-0.368126
H53	H	0.810612	-0.539330	-0.736500
Br54	Br	1.244971	-0.570391	-0.992199
Br55	Br	1.087995	-0.298340	-0.408151
H56	H	1.622256	-1.090182	-0.402603
H57	H	1.243886	-1.090192	-0.780456
Br58	Br	0.829354	-0.298362	-0.408195
H59	H	1.483391	-0.777934	-0.541032
H60	H	1.551874	-0.833782	-0.472684
H61	H	1.573911	-0.329719	-0.973625
Br62	Br	1.337921	-1.226810	-0.685743
Br63	Br	1.163466	-0.974462	-0.860713
Br64	Br	1.208103	-0.752373	-0.815916
Br65	Br	1.616771	-0.298315	-1.196146
