data_functionalizedCrystal
_audit_creation_method	'MofGen! by Chris Wilmer'
_symmetry_space_group_name_H-M	'P1'
_symmetry_Int_Tables_number	1
_symmetry_cell_setting	triclinic
loop_
_symmetry_equiv_pos_as_xyz
  x,y,z
_cell_length_a	11.026607
_cell_length_b	23.532357
_cell_length_c	9.482900
_cell_angle_alpha	99.268091
_cell_angle_beta	78.636152
_cell_angle_gamma	95.707154
loop_
_atom_site_label
_atom_site_type_symbol
_atom_site_fract_x
_atom_site_fract_y
_atom_site_fract_z
O1	O	1.626212	0.231208	-0.120961
O2	O	1.273242	0.204087	-0.120956
O3	O	1.460398	0.135838	-0.120929
O4	O	1.439057	0.299457	-0.120988
O5	O	1.422381	0.149772	0.120858
O6	O	1.235226	0.218021	0.120831
O7	O	1.588196	0.245142	0.120826
Cu8	Cu	1.408240	0.232854	0.142906
Cu9	Cu	1.453198	0.216375	-0.143036
O10	O	1.401040	0.313391	0.120799
C11	C	1.209085	0.206050	-0.000061
C12	C	1.074556	0.191135	-0.000057
C13	C	1.440855	0.121533	-0.000031
C14	C	1.439247	0.058146	-0.000017
C15	C	1.000241	0.232318	-0.000073
C16	C	0.861198	0.216904	-0.000070
C17	C	1.449902	-0.342525	-0.131894
C18	C	1.448377	-0.402086	-0.131902
O19	O	1.465171	-0.439349	-0.243991
N20	N	1.426898	-0.424281	-0.000105
C21	C	1.406930	-0.386913	0.131708
O22	O	1.388519	-0.411261	0.243810
C23	C	1.408446	-0.327354	0.131714
C24	C	1.429939	-0.305162	-0.000091
C25	C	1.471392	-0.320332	-0.263688
C26	C	1.472919	-0.260776	-0.263679
C27	C	1.452956	-0.223412	-0.131876
C28	C	1.431466	-0.245605	-0.000082
C29	C	1.388470	-0.289988	0.263526
C30	C	1.389987	-0.230425	0.263522
C31	C	1.411480	-0.208233	0.131717
C32	C	1.413031	-0.148685	0.131730
N33	N	1.434510	-0.126490	-0.000066
C34	C	1.454473	-0.163853	-0.131869
C35	C	1.403744	-0.511992	0.131683
C36	C	1.402236	-0.571549	0.131678
C37	C	1.443682	-0.586718	-0.131932
C38	C	1.445198	-0.527159	-0.131925
C39	C	1.425224	-0.489796	-0.000113
C40	C	1.457680	-0.038780	-0.131841
C41	C	1.459210	0.020783	-0.131820
C42	C	1.417758	0.035946	0.131789
C43	C	1.416234	-0.023611	0.131769
C44	C	1.436193	-0.060974	-0.000057
O45	O	1.396242	-0.111388	0.243762
O46	O	1.472865	-0.139498	-0.243953
C47	C	1.652353	0.243178	-0.000072
C48	C	1.786884	0.258093	-0.000085
C49	C	1.420584	0.327696	-0.000103
C50	C	1.422193	0.391082	-0.000126
N51	N	1.376627	0.244444	0.344021
N52	N	1.484821	0.204781	-0.344151
C53	C	1.443866	0.219790	0.416230
C54	C	1.417572	0.229439	0.583644
H55	H	0.821896	0.170228	-0.000090
C56	C	1.575109	-0.464697	-0.284875
C57	C	1.468783	-0.502762	-0.276798
H58	H	1.589660	-0.449640	-0.374320
H59	H	1.563434	-0.433924	-0.206384
H60	H	1.644347	-0.484716	-0.279425
H61	H	1.399542	-0.482743	-0.282238
H62	H	1.480450	-0.533540	-0.355312
C63	C	1.180770	0.298399	-0.000092
C64	C	1.053299	0.295324	-0.000093
H65	H	1.213522	0.337297	-0.000111
H66	H	1.194363	0.284857	0.084226
H67	H	1.220878	0.275135	-0.084407
H68	H	1.013189	0.318585	0.084229
H69	H	1.039697	0.308874	-0.084419
C70	C	1.523108	0.125819	0.369007
C71	C	1.547863	0.181661	0.332345
H72	H	1.587313	0.102282	0.317203
H73	H	1.519112	0.127291	0.470492
H74	H	1.446118	0.110007	0.344164
H75	H	1.624850	0.197474	0.357198
H76	H	1.551873	0.180190	0.230837
C77	C	1.459727	-0.684758	-0.248973
C78	C	1.465610	-0.627797	-0.276816
H79	H	1.473257	-0.710118	-0.338414
H80	H	1.521649	-0.688498	-0.194834
H81	H	1.380275	-0.694291	-0.194806
H82	H	1.545066	-0.618262	-0.330974
H83	H	1.403684	-0.624055	-0.330978
C84	C	1.348831	-0.221420	0.524091
C85	C	1.368020	-0.189358	0.408418
H86	H	1.335274	-0.196066	0.613541
H87	H	1.278426	-0.247867	0.518585
H88	H	1.419793	-0.242065	0.518606
H89	H	1.297054	-0.168716	0.413897
H90	H	1.438432	-0.162900	0.413927
H91	H	1.299591	0.272693	0.406140
C92	C	1.041558	0.108174	0.124269
C93	C	1.021496	0.128130	-0.000035
H94	H	1.008796	0.069277	0.124284
H95	H	1.128028	0.110265	0.124257
H96	H	1.001435	0.131441	0.208570
H97	H	1.061627	0.104865	-0.084336
H98	H	0.935010	0.126034	-0.000035
C99	C	0.819842	0.341053	-0.124419
C100	C	0.839920	0.321104	-0.000114
H101	H	0.852575	0.379954	-0.124431
H102	H	0.859969	0.317793	-0.208710
H103	H	0.733358	0.338950	-0.124404
H104	H	0.926404	0.323203	-0.000135
H105	H	0.799796	0.344370	0.084198
H106	H	1.476716	0.038848	-0.239156
C107	C	1.498773	-0.047776	-0.392408
C108	C	1.479598	-0.079843	-0.276745
H109	H	1.512309	-0.073127	-0.481863
H110	H	1.427829	-0.027125	-0.386896
H111	H	1.569202	-0.021333	-0.386917
H112	H	1.409163	-0.106283	-0.282230
H113	H	1.550550	-0.100504	-0.282260
C114	C	1.512531	-0.329326	-0.524242
C115	C	1.493349	-0.361396	-0.408583
H116	H	1.526102	-0.354675	-0.613699
H117	H	1.441576	-0.308686	-0.518754
H118	H	1.582941	-0.302874	-0.518722
H119	H	1.422933	-0.387846	-0.414097
H120	H	1.564311	-0.382046	-0.414074
H121	H	1.340531	0.257689	0.645757
H122	H	1.401511	0.066378	0.239100
H123	H	1.384753	-0.589612	0.239007
C124	C	1.362637	-0.502989	0.392252
C125	C	1.381804	-0.470924	0.276586
H126	H	1.349097	-0.477637	0.481705
H127	H	1.292227	-0.529435	0.386761
H128	H	1.433600	-0.523636	0.386744
H129	H	1.310837	-0.450280	0.282088
H130	H	1.452221	-0.444468	0.282079
C131	C	1.286302	-0.086072	0.284694
C132	C	1.392640	-0.048015	0.276639
H133	H	1.271740	-0.101138	0.374126
H134	H	1.217082	-0.066049	0.279245
H135	H	1.297976	-0.116844	0.206181
H136	H	1.380962	-0.017239	0.355147
H137	H	1.461876	-0.068038	0.282103
C138	C	1.563818	0.110790	0.609113
C139	C	1.588788	0.166587	0.572191
H140	H	1.627990	0.087196	0.557511
H141	H	1.559695	0.112332	0.710641
H142	H	1.486839	0.094998	0.584202
H143	H	1.665763	0.182381	0.597111
H144	H	1.592924	0.165047	0.470640
H145	H	1.490416	-0.242713	-0.371008
H146	H	1.370970	-0.308046	0.370856
