data_functionalizedCrystal
_audit_creation_method	'MofGen! by Chris Wilmer'
_symmetry_space_group_name_H-M	'P1'
_symmetry_Int_Tables_number	1
_symmetry_cell_setting	triclinic
loop_
_symmetry_equiv_pos_as_xyz
  x,y,z
_cell_length_a	16.956984
_cell_length_b	17.019294
_cell_length_c	15.455313
_cell_angle_alpha	88.788101
_cell_angle_beta	87.518126
_cell_angle_gamma	79.732413
loop_
_atom_site_label
_atom_site_type_symbol
_atom_site_fract_x
_atom_site_fract_y
_atom_site_fract_z
O1	O	1.061606	0.028897	-0.074293
O2	O	1.561606	0.528897	0.425707
O3	O	0.829517	0.056490	-0.076354
O4	O	1.329517	0.556490	0.423646
O5	O	0.951623	-0.072124	-0.066743
O6	O	1.451623	0.427876	0.433257
O7	O	0.939501	0.157511	-0.083904
O8	O	1.439501	0.657511	0.416096
O9	O	0.944640	-0.064798	0.076971
O10	O	1.444640	0.435202	0.576971
O11	O	0.822535	0.063816	0.067360
O12	O	1.322535	0.563816	0.567360
O13	O	1.054624	0.036224	0.069422
O14	O	1.554624	0.536224	0.569422
Cu15	Cu	0.937942	0.050689	0.081513
Cu16	Cu	1.437942	0.550689	0.581513
Cu17	Cu	0.946199	0.042024	-0.088446
Cu18	Cu	1.446199	0.542024	0.411554
O19	O	0.932518	0.164837	0.059811
O20	O	1.432518	0.664837	0.559811
C21	C	0.796321	0.061566	-0.004602
C22	C	1.296321	0.561566	0.495398
C23	C	0.707811	0.065766	-0.004916
C24	C	1.207811	0.565766	0.495084
C25	C	0.675552	-0.004468	0.000334
C26	C	1.175552	0.495532	0.500334
C27	C	0.592387	-0.000517	0.000032
C28	C	1.092387	0.499483	0.500032
C29	C	0.541482	0.073670	-0.005513
C30	C	1.041482	0.573670	0.494487
C31	C	0.573746	0.143910	-0.010766
C32	C	1.073746	0.643910	0.489234
C33	C	0.656910	0.139958	-0.010471
C34	C	1.156910	0.639958	0.489529
C35	C	0.291758	0.093234	-0.006981
C36	C	0.791758	0.593234	0.493019
C37	C	0.208589	0.097181	-0.007274
C38	C	0.708589	0.597181	0.492726
C39	C	0.227236	-0.047247	0.003523
C40	C	0.727236	0.452753	0.503523
C41	C	0.310401	-0.051192	0.003823
C42	C	0.810401	0.448808	0.503823
C43	C	0.342658	0.019047	-0.001434
C44	C	0.842658	0.519047	0.498566
N45	N	0.456474	0.077711	-0.005819
N46	N	0.956474	0.577711	0.494181
N47	N	0.427665	0.015005	-0.001135
N48	N	0.927665	0.515005	0.498865
C49	C	0.947534	-0.097707	0.007298
C50	C	1.447534	0.402293	0.507298
C51	C	0.945745	-0.184849	0.013804
C52	C	1.445745	0.315151	0.513804
C53	C	0.948712	-0.229778	-0.061477
C54	C	1.448712	0.270222	0.438523
C55	C	0.947026	-0.311657	-0.055361
C56	C	1.447026	0.188343	0.444639
C57	C	0.942378	-0.348606	0.026037
C58	C	1.442378	0.151394	0.526037
C59	C	0.939408	-0.303671	0.101324
C60	C	1.439408	0.196329	0.601324
C61	C	0.941088	-0.221792	0.095207
C62	C	1.441088	0.278208	0.595207
C63	C	0.937107	-0.595624	0.048426
C64	C	1.437107	-0.095624	0.548426
C65	C	0.935429	-0.677509	0.054538
C66	C	1.435429	-0.177509	0.554538
C67	C	0.943046	-0.685489	-0.102149
C68	C	1.443046	-0.185489	0.397851
C69	C	0.944731	-0.603610	-0.108259
C70	C	1.444731	-0.103610	0.391741
C71	C	0.941757	-0.558681	-0.032972
C72	C	1.441757	-0.058681	0.467028
C73	C	0.940656	-0.432299	0.032291
C74	C	1.440656	0.067701	0.532291
C75	C	0.943472	-0.474988	-0.039226
C76	C	1.443472	0.025012	0.460774
C77	C	1.087820	0.031147	-0.002332
C78	C	1.587820	0.531147	0.497668
C79	C	1.176330	0.026946	-0.002024
C80	C	1.676330	0.526946	0.497976
C81	C	0.936607	0.190420	-0.014232
C82	C	1.436607	0.690420	0.485768
C83	C	0.938396	0.277562	-0.020744
C84	C	1.438396	0.777562	0.479256
N85	N	0.932139	0.056782	0.201054
N86	N	1.432139	0.556782	0.701054
N87	N	0.952008	0.035925	-0.207986
N88	N	1.452008	0.535925	0.292014
C89	C	0.984032	0.002160	0.250529
C90	C	1.484032	0.502160	0.750529
C91	C	0.979652	0.006774	0.340993
C92	C	1.479652	0.506774	0.840993
C93	C	0.923381	0.066015	0.381978
C94	C	1.423381	0.566015	0.881978
C95	C	0.871483	0.120640	0.332495
C96	C	1.371483	0.620640	0.832495
C97	C	0.875860	0.116021	0.242034
C98	C	1.375860	0.616021	0.742034
C99	C	0.904487	0.085931	0.652071
C100	C	1.404487	0.585931	1.152071
C101	C	0.900115	0.090547	0.742539
C102	C	1.400115	0.590547	1.242539
C103	C	1.008283	-0.023320	0.751030
C104	C	1.508283	0.476680	1.251030
C105	C	1.012659	-0.027931	0.660566
C106	C	1.512659	0.472069	1.160566
C107	C	0.960758	0.026691	0.611092
C108	C	1.460758	0.526691	1.111092
N109	N	0.918904	0.070735	0.474445
N110	N	1.418904	0.570735	0.974445
N111	N	0.965232	0.021967	0.518626
N112	N	1.465232	0.521967	1.018626
H113	H	0.532293	0.204315	-0.015287
H114	H	1.032293	0.704315	0.484713
H115	H	0.935618	-0.333760	0.167601
H116	H	1.435618	0.166240	0.667601
H117	H	0.716994	-0.064880	0.004853
H118	H	1.216994	0.435120	0.504853
O119	O	0.949108	-0.567569	-0.187264
O120	O	1.449108	-0.067569	0.312736
C121	C	0.954631	-0.444883	-0.266131
C122	C	1.454631	0.055117	0.233869
C123	C	0.949799	-0.485623	-0.176602
C124	C	1.449799	0.014377	0.323398
H125	H	0.955174	-0.378621	-0.257542
H126	H	1.455174	0.121379	0.242458
H127	H	1.011870	-0.473614	-0.302947
H128	H	1.511870	0.026386	0.197053
H129	H	0.900363	-0.452250	-0.304190
H130	H	1.400363	0.047750	0.195810
H131	H	1.004025	-0.478270	-0.138472
H132	H	1.504025	0.021730	0.361528
H133	H	0.892526	-0.456884	-0.139852
H134	H	1.392526	0.043116	0.360148
H135	H	0.566127	-0.057710	0.004307
H136	H	1.066127	0.442290	0.504307
H137	H	0.683173	0.197151	-0.014742
H138	H	1.183173	0.697151	0.485258
H139	H	0.833603	0.160499	0.201752
H140	H	1.333603	0.660499	0.701752
H141	H	0.351843	-0.111603	0.008343
H142	H	0.851843	0.388397	0.508343
O143	O	0.953194	-0.194008	-0.140618
O144	O	1.453194	0.305992	0.359382
C145	C	0.960614	-0.210583	-0.295382
C146	C	1.460614	0.289417	0.204618
C147	C	0.955524	-0.251187	-0.205809
C148	C	1.455524	0.248813	0.294191
H149	H	0.962516	-0.256797	-0.348113
H150	H	1.462516	0.243203	0.151887
H151	H	0.905838	-0.161656	-0.303029
H152	H	1.405838	0.338344	0.196971
H153	H	1.017319	-0.183238	-0.301311
H154	H	1.517319	0.316762	0.198689
H155	H	0.898853	-0.278579	-0.199818
H156	H	1.398853	0.221421	0.300182
H157	H	1.010339	-0.300073	-0.198201
H158	H	1.510339	0.199927	0.301799
H159	H	0.945466	-0.722079	-0.163443
H160	H	1.445466	-0.222079	0.336557
H161	H	1.058478	-0.076169	0.627198
H162	H	1.558478	0.423831	1.127198
O163	O	0.195770	-0.115398	0.008578
O164	O	0.695770	0.384602	0.508578
C165	C	0.075915	-0.173321	0.012955
C166	C	0.575915	0.326679	0.512955
C167	C	0.111442	-0.096075	0.007210
C168	C	0.611442	0.403925	0.507210
H169	H	0.007730	-0.157725	0.011869
H170	H	0.507730	0.342275	0.511869
H171	H	0.099729	-0.212781	-0.044485
H172	H	0.599729	0.287219	0.455515
H173	H	0.093990	-0.206647	0.075804
H174	H	0.593990	0.293353	0.575804
H175	H	0.093381	-0.062685	-0.055603
H176	H	0.593381	0.437315	0.444397
H177	H	0.087629	-0.056673	0.064694
H178	H	0.587629	0.443327	0.564694
O179	O	1.030041	-0.046391	0.388961
O180	O	1.530041	0.453609	0.888961
C181	C	1.075083	-0.184637	0.427110
C182	C	1.575083	0.315363	0.927110
C183	C	1.017981	-0.124513	0.372727
C184	C	1.517981	0.375487	0.872727
H185	H	1.065340	-0.247810	0.414018
H186	H	1.565340	0.252190	0.914018
H187	H	1.139835	-0.179470	0.408828
H188	H	1.639835	0.320530	0.908828
H189	H	1.062306	-0.171128	0.498799
H190	H	1.562306	0.328872	0.998799
H191	H	1.030685	-0.137983	0.301023
H192	H	1.530685	0.362017	0.801023
H193	H	0.953246	-0.129692	0.391081
H194	H	1.453246	0.370308	0.891081
H195	H	0.949446	-0.348235	-0.116664
H196	H	1.449446	0.151765	0.383336
H197	H	0.318012	0.150428	-0.011268
H198	H	0.818012	0.650428	0.488732
O199	O	0.930873	-0.713270	0.133681
O200	O	1.430873	-0.213270	0.633681
C201	C	0.923535	-0.696727	0.288448
C202	C	1.423535	-0.196727	0.788448
C203	C	0.928673	-0.656123	0.198881
C204	C	1.428673	-0.156123	0.698881
H205	H	0.921772	-0.650545	0.341186
H206	H	1.421772	-0.150545	0.841186
H207	H	0.866803	-0.724023	0.294471
H208	H	1.366803	-0.224023	0.794471
H209	H	0.978291	-0.745694	0.295992
H210	H	1.478291	-0.245694	0.795992
H211	H	0.873958	-0.607123	0.191277
H212	H	1.373958	-0.107123	0.691277
H213	H	0.985440	-0.628881	0.192899
H214	H	1.485440	-0.128881	0.692899
H215	H	0.167143	0.157597	-0.011786
H216	H	0.667143	0.657597	0.488214
O217	O	0.934090	-0.551935	0.121535
O218	O	1.434090	-0.051935	0.621535
C219	C	0.862600	-0.441459	0.204571
C220	C	1.362600	0.058541	0.704571
C221	C	0.865905	-0.490881	0.121742
C222	C	1.365905	0.009119	0.621742
H223	H	0.807487	-0.392076	0.204757
H224	H	1.307487	0.107924	0.704757
H225	H	0.858943	-0.481898	0.263820
H226	H	1.358943	0.018102	0.763820
H227	H	0.918965	-0.413783	0.206427
H228	H	1.418965	0.086217	0.706427
H229	H	0.809554	-0.518564	0.119801
H230	H	1.309554	-0.018564	0.619801
H231	H	0.869603	-0.450407	0.062531
H232	H	1.369603	0.049593	0.562531
O233	O	1.058770	-0.076427	0.798958
O234	O	1.558770	0.423573	1.298958
C235	C	1.166470	-0.189899	0.797835
C236	C	1.666470	0.310101	1.297835
C237	C	1.109358	-0.129788	0.743452
C238	C	1.609358	0.370212	1.243452
H239	H	1.207373	-0.233067	0.752982
H240	H	1.707373	0.266933	1.252982
H241	H	1.204392	-0.156427	0.837813
H242	H	1.704392	0.343573	1.337813
H243	H	1.129881	-0.224740	0.842985
H244	H	1.629881	0.275260	1.342985
H245	H	1.145884	-0.094930	0.698254
H246	H	1.645884	0.405070	1.198254
H247	H	1.071434	-0.163306	0.703532
H248	H	1.571434	0.336694	1.203532
H249	H	0.938661	-0.185210	0.156510
H250	H	1.438661	0.314790	0.656510
H251	H	0.936874	-0.462393	0.098566
H252	H	1.436874	0.037607	0.598566
O253	O	0.845372	0.148117	0.782217
O254	O	1.345372	0.648117	1.282217
C255	C	0.738559	0.260583	0.764254
C256	C	1.238559	0.760583	1.264254
C257	C	0.800502	0.195421	0.719207
C258	C	1.300502	0.695421	1.219207
H259	H	0.702277	0.298856	0.713330
H260	H	1.202277	0.798856	1.213330
H261	H	0.696557	0.231409	0.808937
H262	H	1.196557	0.731409	1.308937
H263	H	0.771032	0.299760	0.803851
H264	H	1.271032	0.799760	1.303851
H265	H	0.768097	0.156222	0.679565
H266	H	1.268097	0.656222	1.179565
H267	H	0.842502	0.224647	0.674575
H268	H	1.342502	0.724647	1.174575
H269	H	0.947252	-0.444900	-0.105501
H270	H	1.447252	0.055100	0.394499
O271	O	0.854194	0.139021	0.603926
O272	O	1.354194	0.639021	1.103926
C273	C	0.842431	0.242283	0.493737
C274	C	1.342431	0.742283	0.993737
C275	C	0.899478	0.182173	0.548191
C276	C	1.399478	0.682173	1.048191
H277	H	0.879020	0.277200	0.448675
H278	H	1.379020	0.777200	0.948675
H279	H	0.804574	0.208807	0.453679
H280	H	1.304574	0.708807	0.953679
H281	H	0.801455	0.285383	0.538597
H282	H	1.301455	0.785383	1.038597
H283	H	0.940504	0.139058	0.503395
H284	H	1.440504	0.639058	1.003395
H285	H	0.937279	0.215702	0.588258
H286	H	1.437279	0.715702	1.088258
H287	H	1.029857	-0.046077	0.217165
H288	H	1.529857	0.453923	0.717165
H289	H	0.825663	0.168873	0.365871
H290	H	1.325663	0.668873	0.865871
