data_functionalizedCrystal
_audit_creation_method	'MofGen! by Chris Wilmer'
_symmetry_space_group_name_H-M	'P1'
_symmetry_Int_Tables_number	1
_symmetry_cell_setting	triclinic
loop_
_symmetry_equiv_pos_as_xyz
  x,y,z
_cell_length_a	29.839135
_cell_length_b	29.839131
_cell_length_c	13.897441
_cell_angle_alpha	90.042797
_cell_angle_beta	90.025123
_cell_angle_gamma	90.037758
loop_
_atom_site_label
_atom_site_type_symbol
_atom_site_fract_x
_atom_site_fract_y
_atom_site_fract_z
Zn1	Zn	0.686782	-0.178809	0.545412
Zn2	Zn	1.020115	0.154525	0.878746
Zn3	Zn	1.353448	0.487858	1.212079
Zn4	Zn	0.686709	-0.253944	0.384079
Zn5	Zn	1.020043	0.079390	0.717413
Zn6	Zn	1.353376	0.412723	1.050746
Zn7	Zn	0.611652	-0.178832	0.384118
Zn8	Zn	0.944985	0.154502	0.717452
Zn9	Zn	1.278319	0.487835	1.050785
Zn10	Zn	0.611620	-0.253916	0.545320
Zn11	Zn	0.944954	0.079418	0.878653
Zn12	Zn	1.278287	0.412751	1.211986
O13	O	0.649191	-0.216375	0.464732
O14	O	0.982524	0.116958	0.798066
O15	O	1.315857	0.450292	1.131399
O16	O	0.749639	-0.188777	0.524034
O17	O	1.082973	0.144556	0.857367
O18	O	1.416306	0.477889	1.190700
O19	O	0.676736	-0.244001	0.249103
O20	O	1.010069	0.089332	0.582436
O21	O	1.343402	0.422666	0.915770
O22	O	0.621661	-0.115961	0.405570
O23	O	0.954995	0.217372	0.738903
O24	O	1.288328	0.550705	1.072236
O25	O	0.749586	-0.243979	0.405503
O26	O	1.082919	0.089355	0.738836
O27	O	1.416253	0.422688	1.072170
O28	O	0.676859	-0.115945	0.524072
O29	O	1.010192	0.217389	0.857405
O30	O	1.343526	0.550722	1.190738
O31	O	0.621591	-0.188817	0.249132
O32	O	0.954925	0.144517	0.582465
O33	O	1.288258	0.477850	0.915798
O34	O	0.548781	-0.188790	0.405480
O35	O	0.882114	0.144544	0.738813
O36	O	1.215447	0.477877	1.072146
O37	O	0.621608	-0.243931	0.680314
O38	O	0.954941	0.089402	1.013647
O39	O	1.288274	0.422735	1.346980
O40	O	0.548757	-0.243954	0.523913
O41	O	0.882091	0.089380	0.857247
O42	O	1.215424	0.422713	1.190580
O43	O	0.676829	-0.188750	0.680382
O44	O	1.010162	0.144583	1.013715
O45	O	1.343495	0.477916	1.347048
O46	O	0.676705	-0.316807	0.405413
O47	O	1.010038	0.016526	0.738746
O48	O	1.343372	0.349860	1.072080
O49	O	0.621538	-0.316787	0.523876
O50	O	0.954871	0.016547	0.857209
O51	O	1.288204	0.349880	1.190542
C52	C	0.532468	-0.216371	0.464691
C53	C	0.865802	0.116962	0.798025
C54	C	1.199135	0.450295	1.131358
C55	C	0.482534	-0.216381	0.464697
C56	C	0.815867	0.116953	0.798030
C57	C	1.149200	0.450286	1.131363
C58	C	0.649122	-0.333098	0.464651
C59	C	0.982456	0.000236	0.797985
C60	C	1.315789	0.333569	1.131318
C61	C	0.649134	-0.383032	0.464649
C62	C	0.982467	-0.049699	0.797982
C63	C	1.315801	0.283635	1.131315
C64	C	0.172915	-0.187675	0.526542
C65	C	0.506248	0.145658	0.859876
C66	C	0.839582	0.478992	1.193209
C67	C	-0.014758	-0.187678	0.526570
C68	C	0.318575	0.145655	0.859903
C69	C	0.651909	0.478988	1.193236
O70	O	-0.039002	-0.163261	0.579107
O71	O	0.294332	0.170072	0.912441
O72	O	0.627665	0.503405	1.245774
N73	N	-0.038251	-0.216375	0.464768
N74	N	0.295082	0.116958	0.798101
N75	N	0.628415	0.450291	1.131435
C76	C	-0.014823	-0.245072	0.402950
C77	C	0.318510	0.088262	0.736284
C78	C	0.651843	0.421595	1.069617
O79	O	-0.039112	-0.269477	0.350378
O80	O	0.294221	0.063856	0.683711
O81	O	0.627554	0.397189	1.017044
C82	C	0.172849	-0.245066	0.402919
C83	C	0.506182	0.088267	0.736252
C84	C	0.839515	0.421601	1.069585
C85	C	0.196340	-0.216370	0.464731
C86	C	0.529673	0.116963	0.798065
C87	C	0.863006	0.450296	1.131398
C88	C	0.196406	-0.158981	0.588349
C89	C	0.529739	0.174352	0.921683
C90	C	0.863073	0.507685	1.255016
C91	C	0.243322	-0.158983	0.588345
C92	C	0.576655	0.174351	0.921679
C93	C	0.909988	0.507684	1.255012
C94	C	0.266746	-0.187678	0.526535
C95	C	0.600079	0.145656	0.859868
C96	C	0.933413	0.478989	1.193201
C97	C	0.243255	-0.216371	0.464728
C98	C	0.576588	0.116962	0.798061
C99	C	0.909922	0.450295	1.131394
C100	C	0.196276	-0.273760	0.341097
C101	C	0.529609	0.059574	0.674430
C102	C	0.862942	0.392907	1.007764
C103	C	0.243197	-0.273755	0.341093
C104	C	0.576530	0.059578	0.674426
C105	C	0.909863	0.392912	1.007760
C106	C	0.266688	-0.245059	0.402906
C107	C	0.600021	0.088274	0.736239
C108	C	0.933354	0.421607	1.069572
C109	C	0.313595	-0.245068	0.402913
C110	C	0.646928	0.088266	0.736246
C111	C	0.980262	0.421599	1.069580
N112	N	0.337088	-0.216371	0.464715
N113	N	0.670422	0.116963	0.798048
N114	N	1.003755	0.450296	1.131382
C115	C	0.313664	-0.187676	0.526526
C116	C	0.646997	0.145658	0.859859
C117	C	0.980331	0.478991	1.193192
C118	C	-0.113354	-0.245073	0.402973
C119	C	0.219979	0.088260	0.736306
C120	C	0.553313	0.421593	1.069639
C121	C	-0.160272	-0.245075	0.402981
C122	C	0.173061	0.088258	0.736315
C123	C	0.506395	0.421591	1.069648
C124	C	-0.160203	-0.187681	0.526600
C125	C	0.173130	0.145652	0.859933
C126	C	0.506464	0.478986	1.193267
C127	C	-0.113284	-0.187682	0.526595
C128	C	0.220049	0.145652	0.859928
C129	C	0.553382	0.478985	1.193262
C130	C	-0.089861	-0.216376	0.464774
C131	C	0.243473	0.116957	0.798108
C132	C	0.576806	0.450291	1.131441
C133	C	0.412190	-0.187681	0.526514
C134	C	0.745523	0.145653	0.859847
C135	C	1.078856	0.478986	1.193180
C136	C	0.459109	-0.187686	0.526507
C137	C	0.792443	0.145648	0.859841
C138	C	1.125776	0.478981	1.193174
C139	C	0.459036	-0.245078	0.402886
C140	C	0.792370	0.088255	0.736219
C141	C	1.125703	0.421589	1.069552
C142	C	0.412121	-0.245075	0.402895
C143	C	0.745454	0.088258	0.736229
C144	C	1.078788	0.421592	1.069562
C145	C	0.388699	-0.216372	0.464713
C146	C	0.722032	0.116961	0.798046
C147	C	1.055365	0.450294	1.131379
O148	O	0.337868	-0.269468	0.350395
O149	O	0.671201	0.063865	0.683729
O150	O	1.004534	0.397198	1.017062
O151	O	0.337961	-0.163267	0.579075
O152	O	0.671294	0.170067	0.912409
O153	O	1.004627	0.503400	1.245742
C154	C	0.126000	-0.187674	0.526546
C155	C	0.459333	0.145659	0.859879
C156	C	0.792666	0.478993	1.193213
C157	C	0.102509	-0.216368	0.464739
C158	C	0.435842	0.116966	0.798072
C159	C	0.769175	0.450299	1.131406
C160	C	0.125933	-0.245063	0.402928
C161	C	0.459267	0.088271	0.736262
C162	C	0.792600	0.421604	1.069595
C163	C	0.055591	-0.216370	0.464748
C164	C	0.388924	0.116964	0.798081
C165	C	0.722258	0.450297	1.131415
C166	C	0.032166	-0.187675	0.526559
C167	C	0.365500	0.145659	0.859892
C168	C	0.698833	0.478992	1.193225
C169	C	0.055660	-0.158978	0.588361
C170	C	0.388993	0.174356	0.921694
C171	C	0.722326	0.507689	1.255027
C172	C	0.102575	-0.158979	0.588357
C173	C	0.435909	0.174355	0.921690
C174	C	0.769242	0.507688	1.255023
C175	C	0.102440	-0.273760	0.341126
C176	C	0.435773	0.059573	0.674460
C177	C	0.769107	0.392907	1.007793
C178	C	0.055524	-0.273757	0.341136
C179	C	0.388858	0.059577	0.674469
C180	C	0.722191	0.392910	1.007803
C181	C	0.032100	-0.245062	0.402947
C182	C	0.365433	0.088272	0.736280
C183	C	0.698767	0.421605	1.069613
C184	C	0.677926	-0.692632	0.526524
C185	C	1.011259	-0.359298	0.859858
C186	C	1.344593	-0.025965	1.193191
C187	C	0.677975	-0.880305	0.526582
C188	C	1.011308	-0.546971	0.859916
C189	C	1.344641	-0.213638	1.193249
O190	O	0.702387	-0.904532	0.579131
O191	O	1.035721	-0.571199	0.912464
O192	O	1.369054	-0.237866	1.245798
N193	N	0.649267	-0.903817	0.464840
N194	N	0.982600	-0.570484	0.798173
N195	N	1.315934	-0.237150	1.131506
C196	C	0.620543	-0.880408	0.403082
C197	C	0.953877	-0.547075	0.736416
C198	C	1.287210	-0.213741	1.069749
O199	O	0.596124	-0.904713	0.350575
O200	O	0.929457	-0.571380	0.683908
O201	O	1.262790	-0.238046	1.017241
C202	C	0.620493	-0.692736	0.403030
C203	C	0.953826	-0.359403	0.736363
C204	C	1.287159	-0.026069	1.069697
C205	C	0.649205	-0.669226	0.464770
C206	C	0.982539	-0.335893	0.798103
C207	C	1.315872	-0.002559	1.131437
C208	C	0.706636	-0.669122	0.588260
C209	C	1.039969	-0.335788	0.921593
C210	C	1.373303	-0.002455	1.254927
C211	C	0.706625	-0.622206	0.588241
C212	C	1.039958	-0.288873	0.921575
C213	C	1.373292	0.044460	1.254908
C214	C	0.677904	-0.598801	0.526487
C215	C	1.011238	-0.265467	0.859820
C216	C	1.344571	0.067866	1.193153
C217	C	0.649194	-0.622311	0.464751
C218	C	0.982528	-0.288977	0.798084
C219	C	1.315861	0.044356	1.131418
C220	C	0.591767	-0.669328	0.341278
C221	C	0.925100	-0.335995	0.674612
C222	C	1.258433	-0.002661	1.007945
C223	C	0.591756	-0.622407	0.341272
C224	C	0.925089	-0.289074	0.674606
C225	C	1.258422	0.044260	1.007939
C226	C	0.620468	-0.598897	0.403012
C227	C	0.953802	-0.265564	0.736346
C228	C	1.287135	0.067770	1.069679
C229	C	0.620463	-0.551990	0.402978
C230	C	0.953796	-0.218656	0.736311
C231	C	1.287130	0.114677	1.069644
N232	N	0.649171	-0.528477	0.464721
N233	N	0.982504	-0.195144	0.798054
N234	N	1.315837	0.138189	1.131387
C235	C	0.677891	-0.551883	0.526475
C236	C	1.011225	-0.218550	0.859808
C237	C	1.344558	0.114784	1.193142
C238	C	0.620572	-0.978939	0.403113
C239	C	0.953906	-0.645605	0.736446
C240	C	1.287239	-0.312272	1.069779
C241	C	0.620586	-1.025857	0.403124
C242	C	0.953919	-0.692523	0.736458
C243	C	1.287252	-0.359190	1.069791
C244	C	0.678017	-1.025750	0.526626
C245	C	1.011350	-0.692416	0.859959
C246	C	1.344683	-0.359083	1.193293
C247	C	0.678005	-0.978831	0.526609
C248	C	1.011339	-0.645498	0.859942
C249	C	1.344672	-0.312164	1.193275
C250	C	0.649280	-0.955426	0.464856
C251	C	0.982613	-0.622093	0.798189
C252	C	1.315947	-0.288760	1.131522
C253	C	0.677867	-0.453357	0.526430
C254	C	1.011200	-0.120024	0.859764
C255	C	1.344533	0.213310	1.193097
C256	C	0.677855	-0.406437	0.526403
C257	C	1.011188	-0.073104	0.859736
C258	C	1.344521	0.260229	1.193070
C259	C	0.620422	-0.406548	0.402906
C260	C	0.953756	-0.073215	0.736239
C261	C	1.287089	0.260118	1.069572
C262	C	0.620436	-0.453464	0.402929
C263	C	0.953769	-0.120130	0.736262
C264	C	1.287102	0.213203	1.069595
C265	C	0.649160	-0.476867	0.464699
C266	C	0.982493	-0.143534	0.798032
C267	C	1.315826	0.189800	1.131366
O268	O	0.596059	-0.527733	0.350464
O269	O	0.929393	-0.194400	0.683798
O270	O	1.262726	0.138934	1.017131
O271	O	0.702300	-0.527570	0.578990
O272	O	1.035634	-0.194236	0.912323
O273	O	1.368967	0.139097	1.245657
C274	C	0.677937	-0.739547	0.526543
C275	C	1.011270	-0.406214	0.859877
C276	C	1.344603	-0.072880	1.193210
C277	C	0.649227	-0.763057	0.464808
C278	C	0.982560	-0.429724	0.798141
C279	C	1.315893	-0.096390	1.131474
C280	C	0.620506	-0.739651	0.403053
C281	C	0.953839	-0.406318	0.736386
C282	C	1.287173	-0.072985	1.069720
C283	C	0.649240	-0.809975	0.464819
C284	C	0.982573	-0.476641	0.798153
C285	C	1.315907	-0.143308	1.131486
C286	C	0.677961	-0.833380	0.526574
C287	C	1.011294	-0.500047	0.859907
C288	C	1.344627	-0.166714	1.193240
C289	C	0.706668	-0.809868	0.588317
C290	C	1.040002	-0.476535	0.921650
C291	C	1.373335	-0.143201	1.254983
C292	C	0.706657	-0.762953	0.588298
C293	C	1.039991	-0.429619	0.921631
C294	C	1.373324	-0.096286	1.254964
C295	C	0.591798	-0.763164	0.341310
C296	C	0.925132	-0.429830	0.674644
C297	C	1.258465	-0.096497	1.007977
C298	C	0.591812	-0.810079	0.341333
C299	C	0.925145	-0.476746	0.674667
C300	C	1.258479	-0.143413	1.008000
C301	C	0.620533	-0.833485	0.403088
C302	C	0.953866	-0.500151	0.736421
C303	C	1.287199	-0.166818	1.069754
C304	C	0.766369	-0.216379	0.464774
C305	C	1.099702	0.116955	0.798108
C306	C	1.433036	0.450288	1.131441
C307	C	0.816304	-0.216380	0.464792
C308	C	1.149637	0.116953	0.798126
C309	C	1.482970	0.450286	1.131459
C310	C	0.649223	-0.216335	0.716326
C311	C	0.982556	0.116998	1.049659
C312	C	1.315889	0.450331	1.382992
C313	C	0.649236	-0.216318	0.823540
C314	C	0.982570	0.117015	1.156873
C315	C	1.315903	0.450348	1.490206
C316	C	0.649272	-0.099197	0.464835
C317	C	0.982605	0.234137	0.798169
C318	C	1.315939	0.567470	1.131502
C319	C	0.649306	-0.049262	0.464879
C320	C	0.982640	0.284071	0.798212
C321	C	1.315973	0.617405	1.131546
C322	C	0.649185	-0.216382	0.214118
C323	C	0.982518	0.116951	0.547451
C324	C	1.315852	0.450285	0.880785
C325	C	0.649258	-0.216272	0.106905
C326	C	0.982592	0.117061	0.440238
C327	C	1.315925	0.450394	0.773571
C328	C	0.649248	-0.216288	1.019835
C329	C	0.982582	0.117045	1.353168
C330	C	1.315915	0.450379	1.686502
C331	C	0.649240	-0.216306	0.910602
C332	C	0.982574	0.117027	1.243936
C333	C	1.315907	0.450361	1.577269
H334	H	0.478234	-0.164318	0.576846
H335	H	0.811567	0.169016	0.910179
H336	H	1.144900	0.502349	1.243513
F337	F	0.708438	-0.478258	0.592172
F338	F	1.041772	-0.144925	0.925505
F339	F	1.375105	0.188409	1.258838
F340	F	-0.185141	-0.157141	0.592383
F341	F	0.148192	0.176192	0.925716
F342	F	0.481526	0.509526	1.259050
H343	H	0.177157	-0.297127	0.290761
H344	H	0.510491	0.036207	0.624095
H345	H	0.843824	0.369540	0.957428
F346	F	0.561205	-0.694339	0.275567
F347	F	0.894538	-0.361006	0.608901
F348	F	1.227872	-0.027672	0.942234
F349	F	0.561181	-0.597501	0.275545
F350	F	0.894514	-0.264167	0.608878
F351	F	1.227848	0.069166	0.942211
F352	F	0.483975	-0.275617	0.337107
F353	F	0.817308	0.057717	0.670441
F354	F	1.150641	0.391050	1.003774
H355	H	0.597059	-0.472607	0.352647
H356	H	0.930393	-0.139273	0.685981
H357	H	1.263726	0.194060	1.019314
H358	H	0.121697	-0.135611	0.638691
H359	H	0.455031	0.197722	0.972024
H360	H	0.788364	0.531055	1.305357
H361	H	0.597180	-0.959886	0.352824
H362	H	0.930514	-0.626552	0.686157
H363	H	1.263847	-0.293219	1.019490
H364	H	0.393125	-0.164307	0.576848
H365	H	0.726458	0.169026	0.910182
H366	H	1.059792	0.502360	1.243515
H367	H	0.262444	-0.135615	0.638678
H368	H	0.595777	0.197719	0.972012
H369	H	0.929110	0.531052	1.305345
H370	H	-0.179394	-0.268447	0.352658
H371	H	0.153939	0.064886	0.685991
H372	H	0.487272	0.398219	1.019325
F373	F	0.708417	-0.381419	0.592116
F374	F	1.041750	-0.048086	0.925450
F375	F	1.375084	0.285248	1.258783
F376	F	0.171483	-0.128437	0.654142
F377	F	0.504816	0.204896	0.987476
F378	F	0.838150	0.538230	1.320809
F379	F	0.708565	-0.953814	0.592321
F380	F	1.041898	-0.620481	0.925655
F381	F	1.375231	-0.287148	1.258988
H382	H	0.730004	-0.603067	0.638518
H383	H	1.063337	-0.269734	0.971851
H384	H	1.396671	0.063600	1.305185
F385	F	0.589858	-0.381630	0.337184
F386	F	0.923191	-0.048297	0.670518
F387	F	1.256524	0.285036	1.003851
H388	H	0.036579	-0.135614	0.638692
H389	H	0.369913	0.197719	0.972026
H390	H	0.703246	0.531052	1.305359
H391	H	0.036402	-0.297129	0.290802
H392	H	0.369735	0.036205	0.624136
H393	H	0.703069	0.369538	0.957469
F394	F	-0.088288	-0.157139	0.592383
F395	F	0.245046	0.176194	0.925716
F396	F	0.578379	0.509527	1.259049
H397	H	0.730024	-0.688173	0.638554
H398	H	1.063357	-0.354840	0.971887
H399	H	1.396690	-0.021507	1.305220
H400	H	0.121507	-0.297127	0.290790
H401	H	0.454841	0.036207	0.624124
H402	H	0.788174	0.369540	0.957457
H403	H	-0.094287	-0.268441	0.352628
H404	H	0.239047	0.064892	0.685962
H405	H	0.572380	0.398225	1.019295
F406	F	0.737217	-0.737937	0.654012
F407	F	1.070551	-0.404604	0.987345
F408	F	1.403884	-0.071271	1.320678
H409	H	0.568410	-0.744111	0.291023
H410	H	0.901743	-0.410777	0.624357
H411	H	1.235077	-0.077444	0.957690
H412	H	0.701403	-1.044815	0.576908
H413	H	1.034736	-0.711481	0.910241
H414	H	1.368069	-0.378148	1.243575
F415	F	0.268123	-0.304297	0.275294
F416	F	0.601456	0.029036	0.608627
F417	F	0.934790	0.362370	0.941960
H418	H	0.730055	-0.828933	0.638596
H419	H	1.063389	-0.495600	0.971929
H420	H	1.396722	-0.162266	1.305263
H421	H	0.597210	-1.044994	0.352839
H422	H	0.930543	-0.711661	0.686173
H423	H	1.263876	-0.378328	1.019506
H424	H	0.392994	-0.268446	0.352573
H425	H	0.726327	0.064887	0.685907
H426	H	1.059660	0.398220	1.019240
H427	H	0.568431	-0.829217	0.291048
H428	H	0.901765	-0.495884	0.624381
H429	H	1.235098	-0.162550	0.957715
