data_functionalizedCrystal
_audit_creation_method	'MofGen! by Chris Wilmer'
_symmetry_space_group_name_H-M	'P1'
_symmetry_Int_Tables_number	1
_symmetry_cell_setting	triclinic
loop_
_symmetry_equiv_pos_as_xyz
  x,y,z
_cell_length_a	16.956995
_cell_length_b	12.837942
_cell_length_c	11.892314
_cell_angle_alpha	86.043680
_cell_angle_beta	85.403912
_cell_angle_gamma	85.441706
loop_
_atom_site_label
_atom_site_type_symbol
_atom_site_fract_x
_atom_site_fract_y
_atom_site_fract_z
O1	O	1.056315	0.037187	0.094078
O2	O	0.826906	0.073345	0.094063
O3	O	0.936524	-0.095201	0.094063
O4	O	0.946697	0.205732	0.094078
O5	O	0.946435	-0.084218	-0.093937
O6	O	0.836817	0.084327	-0.093937
O7	O	1.066226	0.048170	-0.093922
Zn8	Zn	0.953095	0.067992	-0.123779
Zn9	Zn	0.940037	0.053522	0.123919
O10	O	0.956608	0.216715	-0.093922
C11	C	0.802294	0.080687	0.000061
C12	C	0.714193	0.086191	0.000055
C13	C	0.938043	-0.128035	0.000063
C14	C	0.927792	-0.242234	0.000065
C15	C	0.218018	0.127363	0.000099
C16	C	0.300800	0.122184	0.000098
C17	C	0.344502	0.024963	0.000085
C18	C	0.305417	-0.067085	0.000084
C19	C	0.222636	-0.061905	0.000094
C20	C	0.592327	-0.000677	0.000064
C21	C	0.675114	-0.005850	0.000051
C22	C	0.670491	0.183420	0.000067
C23	C	0.587709	0.188592	0.000070
C24	C	0.548631	0.096544	0.000075
N25	N	0.429118	0.019667	0.000080
N26	N	0.464016	0.101840	0.000088
C27	C	1.051019	-0.493753	0.000096
C28	C	1.041392	-0.601054	0.000097
C29	C	0.898910	-0.564140	0.000077
C30	C	0.908538	-0.456839	0.000075
C31	C	0.984595	-0.421650	0.000083
C32	C	0.994222	-0.314346	0.000074
C33	C	0.851741	-0.277435	0.000061
C34	C	0.842113	-0.384736	0.000062
C35	C	1.090838	0.040827	0.000082
C36	C	1.178940	0.035322	0.000095
C37	C	0.955090	0.249550	0.000080
C38	C	0.965340	0.363748	0.000086
N39	N	0.962013	0.077867	-0.292826
C40	C	1.024193	0.146609	-0.470315
C41	C	1.017934	0.139705	-0.351978
C42	C	0.912345	0.022932	-0.352020
C43	C	0.918604	0.029836	-0.470357
C44	C	0.974531	0.091676	-0.529500
C45	C	0.980793	0.098574	-0.647840
C46	C	0.875201	-0.018193	-0.647880
C47	C	0.868942	-0.025097	-0.529542
N48	N	0.931126	0.043639	0.292967
H49	H	0.182443	0.206532	0.000102
C50	C	0.317230	0.276266	0.096754
C51	C	0.343742	0.223370	0.000106
H52	H	0.343734	0.338742	0.096756
H53	H	0.328303	0.232705	0.162296
H54	H	0.261672	0.293238	0.096742
H55	H	0.399299	0.206390	0.000122
H56	H	0.332675	0.266939	-0.065454
H57	H	0.834762	-0.062923	-0.696081
H58	H	1.056152	-0.285698	0.000076
C59	C	1.094879	0.103725	-0.780867
C60	C	1.042266	0.166547	-0.712852
H61	H	1.132832	0.145692	-0.820995
H62	H	1.066200	0.072007	-0.833052
H63	H	1.121298	0.050880	-0.734676
H64	H	1.015843	0.219387	-0.759045
H65	H	1.070948	0.198281	-0.660662
H66	H	0.560520	-0.075629	0.000065
H67	H	0.780189	-0.413403	0.000060
H68	H	1.058372	0.184440	-0.303793
C69	C	0.803228	-0.096560	0.000057
C70	C	0.778720	-0.198175	0.000055
H71	H	0.758147	-0.047632	0.000058
H72	H	0.837527	-0.082739	-0.065497
H73	H	0.830619	-0.090395	0.065623
H74	H	0.751333	-0.204343	-0.065516
H75	H	0.744407	-0.212001	0.065616
C76	C	1.046709	0.292471	-0.603399
C77	C	1.085667	0.214574	-0.535335
H78	H	1.084664	0.334424	-0.643542
H79	H	1.011026	0.335079	-0.557249
H80	H	1.018027	0.260734	-0.655580
H81	H	1.114345	0.246311	-0.483148
H82	H	1.121365	0.171960	-0.581489
C83	C	0.798281	0.017773	-0.218953
C84	C	0.850887	-0.045046	-0.286982
H85	H	0.760346	-0.024201	-0.178793
H86	H	0.771846	0.070599	-0.265129
H87	H	0.826975	0.049511	-0.166786
H88	H	0.822193	-0.076778	-0.339154
H89	H	0.877324	-0.097891	-0.240801
C90	C	0.765202	-0.139829	-0.541471
C91	C	0.807470	-0.093069	-0.464527
H92	H	0.727250	-0.181789	-0.501333
H93	H	0.800899	-0.182434	-0.587607
H94	H	0.738782	-0.086971	-0.587645
H95	H	0.833896	-0.145927	-0.418359
H96	H	0.771768	-0.050462	-0.418372
C97	C	0.553201	0.345857	0.096741
C98	C	0.539677	0.295462	0.000092
H99	H	0.523545	0.411832	0.096753
H100	H	0.608089	0.355940	0.096728
H101	H	0.537127	0.303979	0.162290
H102	H	0.555756	0.337337	-0.065457
H103	H	0.484777	0.285384	0.000095
C104	C	0.795334	0.259523	0.000074
C105	C	0.713446	0.284594	0.000079
H106	H	0.821850	0.321988	0.000092
H107	H	0.813297	0.223638	-0.065490
H108	H	0.806390	0.215953	0.065630
H109	H	0.702390	0.328159	-0.065481
H110	H	0.695477	0.320495	0.065650
H111	H	0.341005	-0.146245	0.000080
C112	C	0.235516	-0.249508	0.000067
C113	C	0.179678	-0.163079	0.000085
H114	H	0.208994	-0.311969	0.000060
H115	H	0.264256	-0.251424	0.065618
H116	H	0.271158	-0.243752	-0.065502
H117	H	0.144039	-0.168832	0.065659
H118	H	0.150924	-0.161164	-0.065472
H119	H	1.112948	-0.465101	0.000092
H120	H	0.836987	-0.592811	0.000082
C121	C	0.671371	-0.192426	0.000074
C122	C	0.723152	-0.112724	0.000056
H123	H	0.701029	-0.258401	0.000085
H124	H	0.642440	-0.182652	-0.065480
H125	H	0.635534	-0.190287	0.065640
H126	H	0.758985	-0.114858	-0.065515
H127	H	0.752095	-0.122502	0.065616
C128	C	1.183194	-0.626758	0.000110
C129	C	1.114408	-0.680311	0.000105
H130	H	1.228272	-0.675691	0.000108
H131	H	1.180528	-0.587969	0.065665
H132	H	1.187438	-0.580309	-0.065455
H133	H	1.110161	-0.726756	0.065674
H134	H	1.117075	-0.719118	-0.065458
