data_functionalizedCrystal
_audit_creation_method	'MofGen! by Chris Wilmer'
_symmetry_space_group_name_H-M	'P1'
_symmetry_Int_Tables_number	1
_symmetry_cell_setting	triclinic
loop_
_symmetry_equiv_pos_as_xyz
  x,y,z
_cell_length_a	17.038272
_cell_length_b	17.699083
_cell_length_c	16.176319
_cell_angle_alpha	89.995661
_cell_angle_beta	90.000383
_cell_angle_gamma	92.802714
loop_
_atom_site_label
_atom_site_type_symbol
_atom_site_fract_x
_atom_site_fract_y
_atom_site_fract_z
O1	O	1.037101	-0.164334	0.068646
O2	O	1.537101	0.335666	0.568646
O3	O	0.809475	-0.161724	0.068670
O4	O	1.309475	0.338276	0.568670
O5	O	0.929719	-0.053265	0.068650
O6	O	1.429719	0.446735	0.568650
O7	O	0.916857	-0.272793	0.068666
O8	O	1.416857	0.227207	0.568666
O9	O	0.929705	-0.053264	-0.068843
O10	O	1.429705	0.446736	0.431157
O11	O	0.809460	-0.161723	-0.068823
O12	O	1.309460	0.338277	0.431177
O13	O	1.037087	-0.164333	-0.068847
O14	O	1.537087	0.335667	0.431153
Cu15	Cu	0.923272	-0.163028	-0.081389
Cu16	Cu	1.423272	0.336972	0.418611
Cu17	Cu	0.923289	-0.163029	0.081213
Cu18	Cu	1.423289	0.336971	0.581213
O19	O	0.916843	-0.272792	-0.068827
O20	O	1.416843	0.227208	0.431173
C21	C	0.780343	-0.159350	-0.000073
C22	C	1.280343	0.340650	0.499927
C23	C	0.693562	-0.152270	-0.000064
C24	C	1.193562	0.347730	0.499936
C25	C	0.929251	-0.025037	-0.000096
C26	C	1.429251	0.474963	0.499904
C27	C	0.927868	0.059072	-0.000096
C28	C	1.427868	0.559072	0.499904
N29	N	0.923266	-0.163027	-0.195754
N30	N	1.423266	0.336973	0.304246
C31	C	0.643342	-0.217280	-0.000060
C32	C	1.143342	0.282720	0.499940
C33	C	0.561802	-0.210622	-0.000072
C34	C	1.061802	0.289378	0.499928
C35	C	0.530484	-0.138953	-0.000082
C36	C	1.030484	0.361047	0.499918
C37	C	0.580710	-0.073938	-0.000089
C38	C	1.080710	0.426062	0.499911
C39	C	0.662249	-0.080597	-0.000083
C40	C	1.162249	0.419403	0.499917
C41	C	0.284764	-0.115431	-0.000106
C42	C	0.784764	0.384569	0.499894
C43	C	0.203220	-0.108777	-0.000109
C44	C	0.703220	0.391223	0.499891
C45	C	0.184317	-0.245462	-0.000094
C46	C	0.684317	0.254538	0.499906
C47	C	0.265857	-0.252114	-0.000083
C48	C	0.765857	0.247886	0.499917
C49	C	0.316077	-0.187099	-0.000094
C50	C	0.816077	0.312901	0.499906
C51	C	0.447137	-0.132147	-0.000091
C52	C	0.947137	0.367853	0.499909
C53	C	0.399422	-0.193906	-0.000091
C54	C	0.899422	0.306094	0.499909
C55	C	1.066218	-0.166707	-0.000102
C56	C	1.566218	0.333293	0.499898
C57	C	1.153000	-0.173787	-0.000105
C58	C	1.653000	0.326213	0.499895
C59	C	0.917311	-0.301020	-0.000078
C60	C	1.417311	0.198980	0.499922
C61	C	0.918693	-0.385129	-0.000073
C62	C	1.418693	0.114871	0.499927
C63	C	0.998449	0.103023	-0.000105
C64	C	1.498449	0.603023	0.499895
C65	C	0.997145	0.182053	-0.000098
C66	C	1.497145	0.682053	0.499902
C67	C	0.925260	0.217130	-0.000087
C68	C	1.425260	0.717130	0.499913
C69	C	0.854674	0.173173	-0.000076
C70	C	1.354674	0.673173	0.499924
C71	C	0.855978	0.094145	-0.000078
C72	C	1.355978	0.594145	0.499922
C73	C	0.849411	0.491885	-0.000069
C74	C	1.349411	0.991885	0.499931
C75	C	0.848112	0.570919	-0.000070
C76	C	1.348112	1.070919	0.499930
C77	C	0.990578	0.579792	-0.000089
C78	C	1.490578	1.079792	0.499911
C79	C	0.991882	0.500764	-0.000090
C80	C	1.491882	1.000764	0.499910
C81	C	0.921297	0.456814	-0.000075
C82	C	1.421297	0.956814	0.499925
C83	C	0.922711	0.371121	-0.000081
C84	C	1.422711	0.871121	0.499919
C85	C	0.923844	0.302821	-0.000087
C86	C	1.423844	0.802821	0.499913
C87	C	0.970588	-0.212007	-0.239017
C88	C	1.470588	0.287993	0.260983
C89	C	0.970596	-0.212004	-0.325564
C90	C	1.470596	0.287996	0.174436
C91	C	0.923278	-0.163025	-0.368847
C92	C	1.423278	0.336975	0.131153
C93	C	0.875955	-0.114040	-0.325578
C94	C	1.375955	0.385960	0.174422
C95	C	0.875951	-0.114039	-0.239033
C96	C	1.375951	0.385961	0.260967
C97	C	0.875969	-0.114042	-0.674607
C98	C	1.375969	0.385958	-0.174607
C99	C	0.875975	-0.114048	-0.761158
C100	C	1.375975	0.385952	-0.261158
C101	C	0.970615	-0.212007	-0.761138
C102	C	1.470615	0.287993	-0.261138
C103	C	0.970611	-0.212006	-0.674592
C104	C	1.470611	0.287994	-0.174592
C105	C	0.923291	-0.163018	-0.631331
C106	C	1.423291	0.336982	-0.131331
C107	C	0.923283	-0.163020	-0.537487
C108	C	1.423283	0.336980	-0.037487
C109	C	0.923281	-0.163026	-0.462689
C110	C	1.423281	0.336974	0.037311
N111	N	0.923301	-0.163025	0.195578
N112	N	1.423301	0.336975	0.695578
H113	H	0.668834	-0.275640	-0.000051
H114	H	1.168834	0.224360	0.499949
H115	H	1.048052	0.615585	-0.000097
H116	H	1.548052	1.115585	0.499903
C117	C	0.546263	0.004896	-0.000098
C118	C	1.046263	0.504896	0.499902
H119	H	0.490509	-0.000448	-0.000092
H120	H	0.990509	0.499552	0.499908
H121	H	0.563511	0.031886	-0.048046
H122	H	1.063511	0.531886	0.451954
H123	H	0.563509	0.031882	0.047854
H124	H	1.063509	0.531882	0.547854
H125	H	0.325644	-0.062490	-0.000115
H126	H	0.825644	0.437510	0.499885
H127	H	0.177724	-0.050413	-0.000117
H128	H	0.677724	0.449587	0.499883
H129	H	0.791935	0.456110	-0.000057
H130	H	1.291935	0.956110	0.499943
H131	H	1.009139	-0.251893	-0.639355
H132	H	1.509139	0.248107	-0.139355
H133	H	0.291350	-0.310474	-0.000065
H134	H	0.791350	0.189526	0.499935
C135	C	0.778342	0.045796	-0.000068
C136	C	1.278342	0.545796	0.499932
H137	H	0.789413	-0.006294	-0.000061
H138	H	1.289413	0.493706	0.499939
H139	H	0.748850	0.056925	-0.048009
H140	H	1.248850	0.556925	0.451991
H141	H	0.748869	0.056922	0.047891
H142	H	1.248869	0.556922	0.547891
H143	H	1.054619	0.217834	-0.000107
H144	H	1.554619	0.717834	0.499893
C145	C	0.717491	-0.009085	-0.000079
C146	C	1.217491	0.490915	0.499921
H147	H	0.687162	0.034552	-0.000077
H148	H	1.187162	0.534552	0.499923
H149	H	0.749696	-0.008839	-0.048022
H150	H	1.249696	0.491161	0.451978
H151	H	0.749686	-0.008845	0.047878
H152	H	1.249686	0.491155	0.547878
H153	H	0.837417	-0.074155	-0.203810
H154	H	1.337417	0.425845	0.296190
C155	C	1.070956	0.462183	-0.000098
C156	C	1.570956	0.962183	0.499902
H157	H	1.112806	0.499677	-0.000094
H158	H	1.612806	0.999677	0.499906
H159	H	1.074424	0.431540	-0.048044
H160	H	1.574424	0.931540	0.451956
H161	H	1.074426	0.431537	0.047856
H162	H	1.574426	0.931537	0.547856
C163	C	1.022643	-0.265881	-0.191413
C164	C	1.522643	0.234119	0.308587
H165	H	1.050833	-0.295045	-0.229577
H166	H	1.550833	0.204955	0.270423
H167	H	0.990545	-0.298630	-0.157647
H168	H	1.490545	0.201370	0.342353
H169	H	1.058681	-0.237197	-0.157656
H170	H	1.558681	0.262803	0.342344
H171	H	0.424924	-0.252259	-0.000087
H172	H	0.924924	0.247741	0.499913
C173	C	0.769034	0.609502	-0.000048
C174	C	1.269034	1.109502	0.499952
H175	H	0.727182	0.572010	-0.000030
H176	H	1.227182	1.072010	0.499970
H177	H	0.765553	0.640151	-0.047993
H178	H	1.265553	1.140151	0.452007
H179	H	0.765580	0.640143	0.047907
H180	H	1.265580	1.140143	0.547907
H181	H	0.520915	-0.263561	-0.000068
H182	H	1.020915	0.236439	0.499932
C183	C	0.775599	0.211753	-0.000059
C184	C	1.275599	0.711753	0.499941
H185	H	0.733750	0.174257	-0.000045
H186	H	1.233750	0.674257	0.499955
H187	H	0.772119	0.242402	-0.048003
H188	H	1.272119	0.742402	0.451997
H189	H	0.772139	0.242391	0.047897
H190	H	1.272139	0.742391	0.547897
C191	C	1.077524	0.064445	-0.000116
C192	C	1.577524	0.564445	0.499884
H193	H	1.119372	0.101942	-0.000113
H194	H	1.619372	0.601942	0.499887
H195	H	1.080992	0.033804	-0.048063
H196	H	1.580992	0.533804	0.451937
H197	H	1.080998	0.033798	0.047836
H198	H	1.580998	0.533798	0.547836
C199	C	1.022647	-0.265885	-0.373149
C200	C	1.522647	0.234115	0.126851
H201	H	1.050819	-0.295061	-0.334976
H202	H	1.550819	0.204939	0.165024
H203	H	1.058689	-0.237214	-0.406910
H204	H	1.558689	0.262786	0.093090
H205	H	0.990540	-0.298634	-0.406909
H206	H	1.490540	0.201366	0.093091
H207	H	0.421629	-0.073793	-0.000123
H208	H	0.921629	0.426207	0.499877
C209	C	0.129075	-0.316971	-0.000093
C210	C	0.629075	0.183029	0.499907
H211	H	0.076028	-0.302745	-0.000105
H212	H	0.576028	0.197255	0.499895
H213	H	0.138551	-0.346146	0.047855
H214	H	0.638551	0.153854	0.547855
H215	H	0.138559	-0.346138	-0.048045
H216	H	0.638559	0.153862	0.451955
H217	H	1.009147	-0.251893	-0.796371
H218	H	1.509147	0.248107	-0.296371
C219	C	0.823924	-0.060167	-0.808768
C220	C	1.323924	0.439833	-0.308768
H221	H	0.795746	-0.030987	-0.770609
H222	H	1.295746	0.469013	-0.270609
H223	H	0.787888	-0.088844	-0.842527
H224	H	1.287888	0.411156	-0.342527
H225	H	0.856035	-0.027421	-0.842533
H226	H	1.356035	0.472579	-0.342533
C227	C	0.823912	-0.060165	-0.627030
C228	C	1.323912	0.439835	-0.127030
H229	H	0.795726	-0.031003	-0.665206
H230	H	1.295726	0.468997	-0.165206
H231	H	0.856008	-0.027413	-0.593270
H232	H	1.356008	0.472587	-0.093270
H233	H	0.787870	-0.088845	-0.593270
H234	H	1.287870	0.411155	-0.093270
H235	H	0.837432	-0.074157	-0.360826
H236	H	1.337432	0.425843	0.139174
