data_functionalizedCrystal
_audit_creation_method	'MofGen! by Chris Wilmer'
_symmetry_space_group_name_H-M	'P1'
_symmetry_Int_Tables_number	1
_symmetry_cell_setting	triclinic
loop_
_symmetry_equiv_pos_as_xyz
  x,y,z
_cell_length_a	19.077105
_cell_length_b	16.625546
_cell_length_c	19.076919
_cell_angle_alpha	92.269917
_cell_angle_beta	90.076224
_cell_angle_gamma	87.718759
loop_
_atom_site_label
_atom_site_type_symbol
_atom_site_fract_x
_atom_site_fract_y
_atom_site_fract_z
Zn1	Zn	1.058283	-0.390077	-0.440407
Zn2	Zn	1.558283	0.109923	0.059593
Zn3	Zn	1.062927	-0.519720	-0.322896
Zn4	Zn	1.562927	-0.019720	0.177104
Zn5	Zn	0.945500	-0.379275	-0.318200
Zn6	Zn	1.445500	0.120725	0.181800
Zn7	Zn	0.940748	-0.519234	-0.435649
Zn8	Zn	1.440748	-0.019234	0.064351
O9	O	1.001864	-0.452076	-0.379288
O10	O	1.501864	0.047924	0.120712
O11	O	1.157231	-0.411998	-0.428775
O12	O	1.657231	0.088002	0.071225
O13	O	1.051282	-0.496773	-0.223942
O14	O	1.551282	0.003227	0.276058
O15	O	0.960506	-0.267879	-0.334437
O16	O	1.460506	0.232121	0.165563
O17	O	1.160642	-0.507246	-0.342441
O18	O	1.660642	-0.007246	0.157559
O19	O	1.043367	-0.275815	-0.424222
O20	O	1.543367	0.224185	0.075778
O21	O	0.965009	-0.393589	-0.220492
O22	O	1.465009	0.106411	0.279508
O23	O	0.846538	-0.393117	-0.329824
O24	O	1.346538	0.106883	0.170176
O25	O	0.952407	-0.506418	-0.534611
O26	O	1.452407	-0.006418	-0.034611
O27	O	0.843047	-0.495944	-0.416113
O28	O	1.343047	0.004056	0.083887
O29	O	1.038759	-0.411527	-0.538107
O30	O	1.538759	0.088473	-0.038107
O31	O	1.046674	-0.632485	-0.337827
O32	O	1.546674	-0.132485	0.162173
O33	O	0.956910	-0.632127	-0.420666
O34	O	1.456910	-0.132127	0.079334
C35	C	0.819296	-0.443306	-0.371943
C36	C	1.319296	0.056694	0.128057
C37	C	0.741192	-0.439575	-0.368817
C38	C	1.241192	0.060425	0.131183
C39	C	1.001799	-0.661563	-0.379256
C40	C	1.501799	-0.161563	0.120744
C41	C	1.001834	-0.751186	-0.379268
C42	C	1.501834	-0.251186	0.120732
C43	C	0.702702	-0.491432	-0.412204
C44	C	1.202702	0.008568	0.087796
C45	C	0.629314	-0.487916	-0.409270
C46	C	1.129314	0.012084	0.090730
C47	C	0.594418	-0.432544	-0.362946
C48	C	1.094418	0.067456	0.137054
C49	C	0.632913	-0.380681	-0.319557
C50	C	1.132913	0.119319	0.180443
C51	C	0.706299	-0.384194	-0.322495
C52	C	1.206299	0.115806	0.177505
C53	C	0.375130	-0.416284	-0.349354
C54	C	0.875130	0.083716	0.150646
C55	C	0.301739	-0.412776	-0.346418
C56	C	0.801739	0.087224	0.153582
C57	C	0.298145	-0.520010	-0.436133
C58	C	0.798145	-0.020010	0.063867
C59	C	0.371533	-0.523522	-0.439063
C60	C	0.871533	-0.023522	0.060937
C61	C	0.410021	-0.471655	-0.395677
C62	C	0.910021	0.028345	0.104323
N63	N	0.519405	-0.428950	-0.359945
N64	N	1.019405	0.071050	0.140055
N65	N	0.485034	-0.475247	-0.398682
N66	N	0.985034	0.024753	0.101318
C67	C	1.001954	-1.079371	-0.379346
C68	C	1.501954	-0.579371	0.120654
C69	C	1.001918	-0.988060	-0.379327
C70	C	1.501918	-0.488060	0.120673
C71	C	1.001894	-0.915281	-0.379307
C72	C	1.501894	-0.415281	0.120693
C73	C	1.001859	-0.823965	-0.379288
C74	C	1.501859	-0.323965	0.120712
C75	C	1.185146	-0.460881	-0.386662
C76	C	1.685146	0.039119	0.113338
C77	C	1.263249	-0.464634	-0.389805
C78	C	1.763249	0.035366	0.110195
C79	C	0.994535	-0.460123	-0.562568
C80	C	1.494535	0.039877	-0.062568
C81	C	0.991412	-0.463552	-0.640671
C82	C	1.491412	0.036448	-0.140671
C83	C	1.001948	-0.241774	-0.379336
C84	C	1.501948	0.258226	0.120664
C85	C	1.001984	-0.152155	-0.379357
C86	C	1.501984	0.347845	0.120643
C87	C	1.034901	-0.415760	-0.679185
C88	C	1.534901	0.084240	-0.179185
C89	C	1.031958	-0.418978	-0.752571
C90	C	1.531958	0.081022	-0.252571
C91	C	0.985529	-0.469993	-0.787441
C92	C	1.485529	0.030007	-0.287441
C93	C	0.942035	-0.517786	-0.748922
C94	C	1.442035	-0.017786	-0.248922
C95	C	0.944975	-0.514563	-0.675537
C96	C	1.444975	-0.014563	-0.175537
C97	C	0.971911	-0.484926	-1.006722
C98	C	1.471911	0.015074	-0.506722
C99	C	0.968976	-0.488147	-1.080112
C100	C	1.468976	0.011853	-0.580112
C101	C	1.058898	-0.389338	-1.083755
C102	C	1.558898	0.110662	-0.583755
C103	C	1.061837	-0.386123	-1.010369
C104	C	1.561837	0.113877	-0.510369
C105	C	1.018341	-0.433913	-0.971856
C106	C	1.518341	0.066087	-0.471856
N107	N	0.982521	-0.473286	-0.862453
N108	N	1.482521	0.026714	-0.362453
N109	N	1.021346	-0.430616	-0.896846
N110	N	1.521346	0.069384	-0.396846
C111	C	1.009205	-0.444005	-0.196723
C112	C	1.509205	0.055995	0.303277
C113	C	1.012465	-0.440356	-0.118626
C114	C	1.512465	0.059644	0.381374
H115	H	0.597979	-0.530145	-0.444600
H116	H	1.097979	-0.030145	0.055400
H117	H	1.072711	-0.374221	-0.650799
H118	H	1.572711	0.125779	-0.150799
O119	O	0.736485	-0.545244	-0.457267
O120	O	1.236485	-0.045244	0.042733
C121	C	0.686773	-0.590273	-0.494920
C122	C	1.186773	-0.090273	0.005080
H123	H	0.634372	-0.554855	-0.495309
H124	H	1.134372	-0.054855	0.004691
H125	H	0.705770	-0.602416	-0.551120
H126	H	1.205770	-0.102416	-0.051120
H127	H	0.679977	-0.649956	-0.468780
H128	H	1.179977	-0.149956	0.031220
O129	O	0.598908	-0.326960	-0.274579
O130	O	1.098908	0.173040	0.225421
C131	C	0.525881	-0.334964	-0.281301
C132	C	1.025881	0.165036	0.218699
H133	H	0.514928	-0.397758	-0.303810
H134	H	1.014928	0.102242	0.196190
H135	H	0.500085	-0.325748	-0.227560
H136	H	1.000085	0.174252	0.272440
H137	H	0.503579	-0.287858	-0.317968
H138	H	1.003579	0.212142	0.182032
O139	O	1.074277	-0.372530	-0.789877
O140	O	1.574277	0.127470	-0.289877
C141	C	1.115878	-0.326802	-0.743363
C142	C	1.615878	0.173198	-0.243363
H143	H	1.120391	-0.357649	-0.691143
H144	H	1.620391	0.142351	-0.191143
H145	H	1.170397	-0.321797	-0.766800
H146	H	1.670397	0.178203	-0.266800
H147	H	1.090488	-0.263985	-0.734534
H148	H	1.590488	0.236015	-0.234534
H149	H	0.273329	-0.367677	-0.308699
H150	H	0.773329	0.132323	0.191301
O151	O	0.896871	-0.567361	-0.782682
O152	O	1.396871	-0.067361	-0.282682
C153	C	0.859129	-0.608867	-0.732950
C154	C	1.359129	-0.108867	-0.232950
H155	H	0.858803	-0.573425	-0.680549
H156	H	1.358803	-0.073425	-0.180549
H157	H	0.802913	-0.615741	-0.751920
H158	H	1.302913	-0.115741	-0.251920
H159	H	0.885151	-0.670995	-0.726165
H160	H	1.385151	-0.170995	-0.226165
H161	H	0.737637	-0.341962	-0.287168
H162	H	1.237637	0.158038	0.212832
O163	O	1.106988	-0.336663	-0.976455
O164	O	1.606988	0.163337	-0.476455
C165	C	1.154045	-0.382856	-0.935791
C166	C	1.654045	0.117144	-0.435791
H167	H	1.157515	-0.447536	-0.958068
H168	H	1.657515	0.052464	-0.458068
H169	H	1.208154	-0.356220	-0.937116
H170	H	1.708154	0.143780	-0.437116
H171	H	1.134519	-0.382163	-0.879307
H172	H	1.634519	0.117837	-0.379307
H173	H	1.094310	-0.350429	-1.115120
H174	H	1.594310	0.149571	-0.615120
O175	O	0.405317	-0.577333	-0.484125
O176	O	0.905317	-0.077333	0.015875
C177	C	0.355608	-0.622366	-0.521779
C178	C	0.855608	-0.122366	-0.021779
H179	H	0.303206	-0.586950	-0.522174
H180	H	0.803206	-0.086950	-0.022174
H181	H	0.374609	-0.634515	-0.577976
H182	H	0.874609	-0.134515	-0.077976
H183	H	0.348811	-0.682047	-0.495634
H184	H	0.848811	-0.182047	0.004366
H185	H	0.266800	-0.562235	-0.471456
H186	H	0.766800	-0.062235	0.028544
H187	H	0.406459	-0.374056	-0.314021
H188	H	0.906459	0.125944	0.185979
H189	H	0.909554	-0.553472	-0.644180
H190	H	1.409554	-0.053472	-0.144180
O191	O	0.923808	-0.537722	-1.113875
O192	O	1.423808	-0.037722	-0.613875
C193	C	0.886059	-0.579227	-1.064148
C194	C	1.386059	-0.079227	-0.564148
H195	H	0.885730	-0.543788	-1.011746
H196	H	1.385730	-0.043788	-0.511746
H197	H	0.829844	-0.586097	-1.083123
H198	H	1.329844	-0.086097	-0.583123
H199	H	0.912076	-0.641358	-1.057363
H200	H	1.412076	-0.141358	-0.557363
H201	H	0.936503	-0.523853	-0.975374
H202	H	1.436503	-0.023853	-0.475374
