data_functionalizedCrystal
_audit_creation_method	'MofGen! by Chris Wilmer'
_symmetry_space_group_name_H-M	'P1'
_symmetry_Int_Tables_number	1
_symmetry_cell_setting	triclinic
loop_
_symmetry_equiv_pos_as_xyz
  x,y,z
_cell_length_a	17.917603
_cell_length_b	21.606444
_cell_length_c	21.606444
_cell_angle_alpha	59.998659
_cell_angle_beta	90.001745
_cell_angle_gamma	57.013403
loop_
_atom_site_label
_atom_site_type_symbol
_atom_site_fract_x
_atom_site_fract_y
_atom_site_fract_z
Zr1	Zr	0.754932	0.620465	-0.052732
O2	O	0.629808	0.759031	-0.156282
O3	O	0.793286	0.488451	-0.020988
O4	O	0.793283	0.617574	-0.150112
O5	O	0.629817	0.629903	0.074695
O6	O	0.922240	0.607841	-0.145244
O7	O	0.629810	0.629908	-0.027159
O8	O	0.922244	0.376862	0.085734
O9	O	0.629813	0.860881	-0.156283
O10	O	0.905887	0.533059	-0.003818
O11	O	0.809653	0.540320	0.068563
O12	O	0.809650	0.692346	-0.083464
O13	O	0.713416	0.699606	-0.011083
Zr14	Zr	0.960614	0.604933	0.117476
Zr15	Zr	0.960604	0.604941	-0.044969
Zr16	Zr	0.754943	0.620457	0.109714
Zr17	Zr	0.754940	0.782904	-0.052733
Zr18	Zr	0.960607	0.442494	0.117477
O19	O	0.922261	0.736947	0.085732
O20	O	0.922247	0.736958	-0.145245
O21	O	0.629823	0.759020	0.074695
O22	O	1.085739	0.466367	0.221027
O23	O	1.085724	0.466378	-0.009951
O24	O	0.793300	0.488440	0.209989
O25	O	1.085730	0.595495	-0.009951
O26	O	0.922264	0.607823	0.214856
O27	O	0.793307	0.617557	0.209988
O28	O	1.085737	0.595490	0.091903
O29	O	0.793294	0.848542	-0.150112
O30	O	0.922253	0.376856	0.214857
O31	O	1.085734	0.364517	0.221027
O32	O	1.085726	0.364523	0.091904
O33	O	0.629821	0.860875	-0.027160
O34	O	0.793303	0.848535	-0.020990
O35	O	0.905897	0.533052	0.148208
O36	O	1.002131	0.525791	0.075827
O37	O	0.905894	0.685078	-0.003818
O38	O	0.809660	0.692339	0.068562
C39	C	0.600510	0.632117	0.022662
C40	C	0.513197	0.638708	0.019366
C41	C	0.857764	0.409513	0.032373
C42	C	0.857761	0.340553	0.032373
C43	C	0.857760	0.612709	-0.170823
C44	C	0.857756	0.612712	-0.239786
C45	C	0.353353	0.650746	0.013348
C46	C	0.362187	0.574656	0.051394
C47	C	0.273245	0.581354	0.048046
C48	C	0.442302	0.644050	0.016696
C49	C	1.115037	0.593281	0.042082
C50	C	1.202350	0.586690	0.045378
C51	C	0.908021	-0.086548	-0.005409
C52	C	0.908014	-0.021747	-0.005412
C53	C	0.857778	0.014441	0.032370
C54	C	0.807537	-0.014169	0.070151
C55	C	0.807539	-0.078964	0.070149
C56	C	0.807527	0.247142	0.070158
C57	C	0.807531	0.311939	0.070158
C58	C	0.908002	0.304360	-0.005404
C59	C	0.908004	0.239565	-0.005406
C60	C	0.857759	0.210964	0.032372
C61	C	0.857766	0.140701	0.032374
C62	C	0.857776	0.084698	0.032373
C63	C	0.857783	0.815885	0.032371
C64	C	0.857786	0.884845	0.032371
C65	C	0.807521	0.695857	-0.313759
C66	C	0.807529	0.695854	-0.378553
C67	C	0.857768	0.612705	-0.369373
C68	C	0.908009	0.529553	-0.295392
C69	C	0.908006	0.529557	-0.230599
C70	C	0.908024	0.529537	-0.556695
C71	C	0.908021	0.529540	-0.621496
C72	C	0.807548	0.695834	-0.704649
C73	C	0.807544	0.695838	-0.639855
C74	C	0.857789	0.612686	-0.565881
C75	C	0.857781	0.612690	-0.495623
C76	C	0.857771	0.612701	-0.439629
C77	C	0.857787	0.612689	0.235567
C78	C	0.857791	0.612686	0.304530
C79	C	1.115028	0.390094	0.042083
C80	C	1.202337	0.314544	0.045379
C81	C	0.857777	0.409503	0.235568
C82	C	0.857778	0.340540	0.304531
C83	C	1.115041	0.390085	0.245278
C84	C	1.202355	0.314531	0.317536
C85	C	0.600506	0.835313	-0.180534
C86	C	0.513192	0.910867	-0.252792
C87	C	0.600519	0.835304	0.022661
C88	C	0.513210	0.910853	0.019365
C89	C	0.857770	0.815895	-0.170824
C90	C	0.857769	0.884858	-0.239787
C91	C	1.193100	0.282859	0.005346
C92	C	1.275129	0.211881	0.008427
C93	C	1.366394	0.172586	0.051546
C94	C	1.375629	0.204278	0.091580
C95	C	1.293601	0.275259	0.088494
C96	C	0.908017	0.304361	0.378497
C97	C	0.908014	0.239572	0.443301
C98	C	0.857778	0.210959	0.434137
C99	C	0.807533	0.247146	0.360163
C100	C	0.807530	0.311938	0.295360
C101	C	1.293600	0.275260	0.313688
C102	C	1.375649	0.204278	0.381577
C103	C	1.366450	0.172564	0.453313
C104	C	1.275195	0.211843	0.457159
C105	C	1.193148	0.282828	0.389271
C106	C	0.421947	0.950146	-0.248944
C107	C	0.339898	1.021148	-0.316832
C108	C	0.349097	1.052865	-0.388568
C109	C	0.440352	1.013582	-0.392415
C110	C	0.522399	0.942586	-0.324527
C111	C	0.522447	0.942546	0.059392
C112	C	0.440418	1.013541	0.056293
C113	C	0.349153	1.052839	0.013171
C114	C	0.339918	1.021144	-0.026860
C115	C	0.421946	0.950154	-0.023765
C116	C	0.908015	0.913449	-0.230598
C117	C	0.908033	0.978237	-0.295389
C118	C	0.857798	1.014437	-0.369368
C119	C	0.807550	0.985839	-0.378555
C120	C	0.807539	0.921048	-0.313765
H121	H	0.436548	0.504482	0.086482
H122	H	0.265599	1.053151	-0.061969
H123	H	0.414412	0.924353	-0.056357
H124	H	0.948934	-0.116012	-0.036171
H125	H	0.948926	0.327650	0.385973
H126	H	1.449948	0.172273	0.126687
H127	H	0.414438	0.924326	-0.190540
H128	H	1.433266	0.114763	0.508585
H129	H	0.948949	1.001514	-0.287893
H130	H	0.857788	0.158201	0.486910
H131	H	0.766651	1.015323	-0.438798
H132	H	1.267719	0.186011	0.515575
H133	H	1.433179	0.114789	0.054053
H134	H	0.948933	0.210116	0.503528
H135	H	0.857815	1.067194	-0.422118
H136	H	0.278997	0.720914	-0.021737
H137	H	0.948915	0.210100	-0.036168
H138	H	0.948918	0.001546	-0.036177
H139	H	0.766632	0.223839	0.352713
H140	H	0.766618	0.897777	-0.321257
H141	H	1.118855	0.314794	0.392415
H142	H	0.766623	0.341387	0.235136
H143	H	0.596752	0.910554	0.094511
H144	H	1.118795	0.314852	-0.029776
H145	H	0.265602	1.053120	-0.313686
H146	H	0.948910	0.327657	-0.036167
H147	H	0.948919	0.461851	-0.287922
H148	H	0.282281	1.110675	-0.443841
H149	H	0.447831	1.039416	-0.450830
H150	H	1.267591	0.186087	-0.024174
H151	H	0.596693	0.910605	-0.327669
H152	H	0.447956	1.039335	0.088894
H153	H	0.282368	1.110643	0.010657
H154	H	1.301109	0.301071	0.255284
H155	H	0.766617	0.341405	0.100924
H156	H	0.948922	0.883985	-0.170366
H157	H	0.766618	0.223861	0.100921
H158	H	1.301135	0.301047	0.121099
H159	H	0.766629	0.015304	0.100910
H160	H	1.449946	0.172305	0.378431
H161	H	0.766631	-0.102254	0.100912
H162	H	0.766625	0.763560	-0.438783
H163	H	0.766605	0.763568	-0.321243
H164	H	0.766638	0.763540	-0.764889
H165	H	0.766631	0.763547	-0.647337
H166	H	0.948937	0.461830	-0.496470
H167	H	0.948934	0.461826	-0.614013
H168	H	0.948912	0.461851	-0.170367
