data_functionalizedCrystal
_audit_creation_method	'MofGen! by Chris Wilmer'
_symmetry_space_group_name_H-M	'P1'
_symmetry_Int_Tables_number	1
_symmetry_cell_setting	triclinic
loop_
_symmetry_equiv_pos_as_xyz
  x,y,z
_cell_length_a	12.759395
_cell_length_b	15.297327
_cell_length_c	12.759387
_cell_angle_alpha	99.642565
_cell_angle_beta	89.979491
_cell_angle_gamma	99.708038
loop_
_atom_site_label
_atom_site_type_symbol
_atom_site_fract_x
_atom_site_fract_y
_atom_site_fract_z
Zn1	Zn	1.533819	-0.359077	-0.666313
Zn2	Zn	1.503266	-0.509964	-0.521018
Zn3	Zn	1.358107	-0.359126	-0.490660
Zn4	Zn	1.327678	-0.509900	-0.696644
O5	O	1.430717	-0.434517	-0.593659
O6	O	1.676786	-0.379099	-0.647051
O7	O	1.483958	-0.490002	-0.369979
O8	O	1.406937	-0.232874	-0.488562
O9	O	1.654338	-0.489955	-0.540303
O10	O	1.536031	-0.232838	-0.617614
O11	O	1.377311	-0.379183	-0.347675
O12	O	1.207051	-0.379120	-0.517973
O13	O	1.355076	-0.489845	-0.839632
O14	O	1.184695	-0.489893	-0.669309
O15	O	1.506526	-0.379037	-0.817348
O16	O	1.454452	-0.636201	-0.569714
O17	O	1.325449	-0.636154	-0.698746
C18	C	1.157752	-0.434506	-0.593639
C19	C	1.040972	-0.434523	-0.593659
C20	C	1.017694	-0.550057	-0.751065
C21	C	0.951193	-0.607831	-0.829773
C22	C	0.841469	-0.607842	-0.829788
C23	C	0.798245	-0.550070	-0.751089
C24	C	0.864747	-0.492296	-0.672381
C25	C	0.974471	-0.492294	-0.672373
C26	C	0.888026	-0.376759	-0.514982
C27	C	0.997749	-0.376751	-0.514960
C28	C	0.844802	-0.318988	-0.436283
C29	C	0.911303	-0.261217	-0.357569
C30	C	1.021033	-0.261209	-0.357556
C31	C	1.064250	-0.318977	-0.436253
C32	C	1.383362	-0.668911	-0.640838
C33	C	1.363199	-0.769187	-0.661057
C34	C	1.575257	-1.051818	-0.449512
C35	C	1.594200	-0.957605	-0.430510
C36	C	1.536452	-0.910495	-0.488145
C37	C	1.459756	-0.957609	-0.564785
C38	C	1.440805	-1.051832	-0.583783
C39	C	1.402000	-0.910509	-0.622416
C40	C	1.325305	-0.957623	-0.699056
C41	C	1.306358	-1.051836	-0.718051
C42	C	1.364106	-1.098945	-0.660416
C43	C	1.420952	-0.816286	-0.603419
C44	C	1.286500	-0.816300	-0.737690
C45	C	1.267557	-0.910513	-0.756692
C46	C	1.704749	-0.434528	-0.593680
C47	C	1.821524	-0.434533	-0.593689
C48	C	1.430815	-0.434428	-0.867675
C49	C	1.430856	-0.434391	-0.984444
C50	C	1.478287	-0.199207	-0.546318
C51	C	1.498558	-0.098932	-0.526145
C52	C	1.588569	-0.319013	-0.961261
C53	C	1.667443	-0.261311	-1.004527
C54	C	1.667475	-0.261278	-1.114242
C55	C	1.588623	-0.318952	-1.180694
C56	C	1.509749	-0.376654	-1.137428
C57	C	1.509727	-0.376682	-1.027709
C58	C	1.352034	-0.492025	-1.160610
C59	C	1.352004	-0.492064	-1.050896
C60	C	1.273182	-0.549699	-1.227062
C61	C	1.194310	-0.607407	-1.183796
C62	C	1.194282	-0.607438	-1.074074
C63	C	1.273130	-0.549766	-1.007629
C64	C	1.430694	-0.434540	-0.320696
C65	C	1.430908	-0.434323	-0.203876
H66	H	1.075174	-0.214156	-0.293469
F67	F	1.224726	-1.101975	-0.799614
F68	F	1.588552	-0.319054	-0.844493
F69	F	1.751342	-0.199916	-0.933795
H70	H	1.656644	-0.919248	-0.368109
F71	F	1.636705	-1.101960	-0.388179
F72	F	1.273217	-0.549662	-1.343830
F73	F	1.110396	-0.668776	-1.254522
H74	H	1.205110	-0.948887	-0.819092
H75	H	1.348689	-1.175661	-0.675886
F76	F	1.181026	-0.318978	-0.436242
F77	F	0.865296	-0.199734	-0.273827
F78	F	1.110327	-0.668850	-1.028035
H79	H	1.273118	-0.549790	-0.918293
H80	H	1.551879	-0.833783	-0.472668
F81	F	1.225030	-0.766168	-0.799028
F82	F	1.588654	-0.318906	-1.297461
F83	F	1.134469	-0.550061	-0.751045
H84	H	0.986398	-0.654865	-0.893849
F85	F	0.770692	-0.669326	-0.913561
H86	H	0.708903	-0.550077	-0.751116
H87	H	1.483397	-0.777935	-0.541017
F88	F	1.751409	-0.199854	-1.160289
F89	F	0.728025	-0.318996	-0.436305
