data_functionalizedCrystal
_audit_creation_method	'MofGen! by Chris Wilmer'
_symmetry_space_group_name_H-M	'P1'
_symmetry_Int_Tables_number	1
_symmetry_cell_setting	triclinic
loop_
_symmetry_equiv_pos_as_xyz
  x,y,z
_cell_length_a	13.635800
_cell_length_b	17.982959
_cell_length_c	11.102300
_cell_angle_alpha	85.766362
_cell_angle_beta	71.394150
_cell_angle_gamma	102.451857
loop_
_atom_site_label
_atom_site_type_symbol
_atom_site_fract_x
_atom_site_fract_y
_atom_site_fract_z
V1	V	-2.040200	-0.105412	0.396787
O2	O	-2.036029	0.005066	0.388688
O3	O	-2.013290	-0.209015	0.394599
O4	O	-2.028830	-0.103791	0.569600
O5	O	-2.020382	-0.100887	0.212475
V6	V	-2.280702	-0.092198	0.374678
O7	O	-2.173590	-0.134399	0.445285
O8	O	-2.372410	-0.063211	0.326180
O9	O	-2.196009	0.011405	0.376867
O10	O	-2.343571	-0.202676	0.382777
O11	O	-2.359218	-0.096723	0.558990
O12	O	-2.180469	-0.093819	0.201865
V13	V	-1.540200	-0.105412	0.396787
O14	O	-1.536029	0.005066	0.388688
O15	O	-1.513290	-0.209015	0.394599
O16	O	-1.528830	-0.103791	0.569600
O17	O	-1.520382	-0.100887	0.212475
V18	V	-1.780702	-0.092198	0.374678
O19	O	-1.673590	-0.134399	0.445285
O20	O	-1.872410	-0.063211	0.326180
O21	O	-1.696009	0.011405	0.376867
O22	O	-1.843571	-0.202676	0.382777
O23	O	-1.859218	-0.096723	0.558990
O24	O	-1.680469	-0.093819	0.201865
C25	C	-1.934716	-0.234271	0.388475
C26	C	-1.953443	-0.318968	0.387837
C27	C	-2.053672	-0.362639	0.393896
C28	C	-2.071264	-0.442221	0.393305
C29	C	-1.988624	-0.478129	0.386645
C30	C	-1.888388	-0.434453	0.380589
C31	C	-1.870799	-0.354873	0.381190
C32	C	-1.959318	-0.755388	0.378168
C33	C	-1.976914	-0.834974	0.377564
C34	C	-2.159782	-0.842736	0.390284
C35	C	-2.142194	-0.763157	0.390884
C36	C	-2.041962	-0.719488	0.384835
C37	C	-2.022888	-0.633196	0.385479
C38	C	-2.007693	-0.564419	0.385992
C39	C	-1.954538	-0.100046	0.611705
C40	C	-1.985865	-0.099406	0.752984
C41	C	-2.106253	0.036657	0.382987
C42	C	-2.077146	0.121353	0.383633
C43	C	-2.086431	-0.097567	0.159754
C44	C	-2.044723	-0.098203	0.018474
C45	C	-1.434716	-0.234271	0.388475
C46	C	-1.453443	-0.318968	0.387837
C47	C	-1.454538	-0.100046	0.611705
C48	C	-1.485865	-0.099406	0.752984
C49	C	-2.092027	-0.102910	0.825850
C50	C	-2.121456	-0.102306	0.958596
C51	C	-1.938552	-0.094696	0.945597
C52	C	-1.909123	-0.095295	0.812852
C53	C	-1.606253	0.036657	0.382987
C54	C	-1.577146	0.121353	0.383633
C55	C	-1.586431	-0.097567	0.159754
C56	C	-1.544723	-0.098203	0.018474
C57	C	-1.553681	-0.362627	0.393907
C58	C	-1.571296	-0.442211	0.393328
C59	C	-1.488669	-0.478133	0.386669
C60	C	-1.388424	-0.434468	0.380602
C61	C	-1.370813	-0.354887	0.381191
C62	C	-1.649402	0.165012	0.377566
C63	C	-1.622059	0.244595	0.378152
C64	C	-1.522463	0.280517	0.384813
C65	C	-1.450201	0.236853	0.390877
C66	C	-1.477541	0.157272	0.390282
C67	C	-1.592027	-0.102910	0.825850
C68	C	-1.621456	-0.102306	0.958596
C69	C	-1.438552	-0.094696	0.945597
C70	C	-1.409123	-0.095295	0.812852
H71	H	-2.120966	-0.333407	0.399307
H72	H	-1.909614	-0.864208	0.372149
H73	H	-1.822669	-0.092435	0.753520
H74	H	-1.730503	0.135775	0.372143
Cl75	Cl	-1.510826	-0.578180	0.385926
H76	H	-1.418700	0.121729	0.395233
Cl77	Cl	-1.833311	-0.700500	0.370553
H78	H	-1.289185	-0.319345	0.376241
Cl79	Cl	-2.246086	-0.718018	0.399240
Cl80	Cl	-1.324996	0.282024	0.399244
H81	H	-2.154517	-0.106257	0.777109
Cl82	Cl	-1.688502	-0.108074	0.750590
H83	H	-1.680912	0.280136	0.373216
Cl84	Cl	-1.657576	-0.317487	0.402292
H85	H	-2.241398	-0.878302	0.395211
H86	H	-1.321155	-0.463729	0.375181
Cl87	Cl	-1.754920	-0.106712	1.050194
Cl88	Cl	-1.342087	-0.089538	1.020872
Cl89	Cl	-1.784498	-0.479596	0.372224
H90	H	-1.322669	-0.092435	0.753520
H91	H	-2.152879	-0.477775	0.398241
Cl92	Cl	-2.254920	-0.106712	1.050194
H93	H	-1.500214	0.345318	0.385296
H94	H	-1.789185	-0.319317	0.376261
Cl95	Cl	-1.842087	-0.089538	1.020872
H96	H	-1.652926	-0.477752	0.398265
