data_functionalizedCrystal
_audit_creation_method	'MofGen! by Chris Wilmer'
_symmetry_space_group_name_H-M	'P1'
_symmetry_Int_Tables_number	1
_symmetry_cell_setting	triclinic
loop_
_symmetry_equiv_pos_as_xyz
  x,y,z
_cell_length_a	14.971491
_cell_length_b	15.538191
_cell_length_c	14.048226
_cell_angle_alpha	89.996115
_cell_angle_beta	89.991693
_cell_angle_gamma	65.444165
loop_
_atom_site_label
_atom_site_type_symbol
_atom_site_fract_x
_atom_site_fract_y
_atom_site_fract_z
O1	O	1.146971	0.122739	-0.079190
O2	O	0.881787	0.137429	-0.079182
O3	O	1.065999	-0.006987	-0.079192
O4	O	0.962759	0.267154	-0.079180
O5	O	1.065985	-0.006995	0.079129
O6	O	0.881773	0.137420	0.079139
O7	O	1.146957	0.122730	0.079131
Zn8	Zn	1.014363	0.130074	0.104272
Zn9	Zn	1.014381	0.130085	-0.104323
O10	O	0.962745	0.267145	0.079141
C11	C	0.848670	0.136767	-0.000021
C12	C	0.750015	0.134795	-0.000018
C13	C	0.325087	0.126293	-0.086341
C14	C	0.417785	0.128143	-0.086338
C15	C	0.464120	0.129069	-0.000033
C16	C	0.417757	0.128136	0.086273
C17	C	0.325064	0.126280	0.086268
C18	C	0.610958	0.132007	0.086277
C19	C	0.703657	0.133865	0.086282
C20	C	0.703679	0.133870	-0.086329
C21	C	0.610986	0.132014	-0.086334
C22	C	0.564628	0.131083	-0.000027
C23	C	1.076794	-0.042074	-0.000035
C24	C	1.108969	-0.146611	-0.000046
C25	C	0.789322	-0.434768	-0.000015
C26	C	0.819578	-0.532999	-0.000014
C27	C	0.989758	-0.555247	-0.000020
C28	C	0.959517	-0.457015	-0.000026
C29	C	0.859298	-0.396783	-0.000022
C30	C	1.029492	-0.419031	-0.000033
C31	C	0.999253	-0.320808	-0.000034
C32	C	0.899038	-0.260570	-0.000027
C33	C	0.829058	-0.298561	-0.000023
C34	C	1.129710	-0.479265	-0.000029
C35	C	1.199686	-0.441281	-0.000036
C36	C	1.169447	-0.343056	-0.000044
C37	C	1.069232	-0.282818	-0.000038
C38	C	1.239427	-0.305066	-0.000048
C39	C	1.209188	-0.206843	-0.000049
C40	C	1.038993	-0.184595	-0.000039
C41	C	1.180074	0.123392	-0.000033
C42	C	1.278729	0.125364	-0.000042
C43	C	0.951950	0.302233	-0.000018
C44	C	0.919776	0.406770	-0.000014
N45	N	1.014357	0.130066	0.246633
N46	N	1.014396	0.130086	-0.246684
C47	C	1.095937	0.066145	0.296446
C48	C	1.095943	0.066144	0.396104
C49	C	1.014372	0.130070	0.445946
C50	C	0.932785	0.193994	0.396126
C51	C	0.932776	0.193989	0.296470
C52	C	0.932808	0.194000	0.603840
C53	C	0.932817	0.194007	0.703503
C54	C	1.095975	0.066156	0.703474
C55	C	1.095967	0.066151	0.603818
C56	C	1.014380	0.130076	0.554004
H57	H	0.741378	0.134625	0.156558
H58	H	0.707714	-0.385722	-0.000020
H59	H	0.573211	0.131261	0.156557
H60	H	0.866369	0.246052	0.563285
H61	H	0.455528	0.128894	-0.156611
H62	H	0.866364	0.246040	0.436713
H63	H	1.154328	-0.559244	-0.000037
C64	C	0.674689	-0.249345	-0.081416
C65	C	0.718895	-0.232342	-0.000029
H66	H	0.606681	-0.208467	-0.081415
H67	H	0.704709	-0.237818	-0.136614
H68	H	0.682683	-0.313280	-0.081405
H69	H	0.710907	-0.168409	-0.000043
H70	H	0.688865	-0.243862	0.055183
C71	C	1.157017	-0.061982	0.815530
C72	C	1.185658	-0.004120	0.758219
H73	H	1.212386	-0.105367	0.849324
H74	H	1.108448	-0.023916	0.859475
H75	H	1.130807	-0.095919	0.776653
H76	H	1.211862	0.029822	0.797097
H77	H	1.234244	-0.042191	0.714269
H78	H	1.281284	-0.490335	-0.000035
C79	C	0.771509	0.320372	0.306502
C80	C	0.843104	0.264257	0.241711
H81	H	0.716150	0.363755	0.272694
H82	H	0.752088	0.281120	0.345381
H83	H	0.797733	0.354310	0.345360
H84	H	0.816883	0.230313	0.202857
H85	H	0.862526	0.303514	0.202815
C86	C	0.332822	0.044824	0.233390
C87	C	0.274104	0.125260	0.181133
H88	H	0.301364	0.044196	0.291959
H89	H	0.342265	-0.010338	0.197928
H90	H	0.394653	0.046075	0.245736
H91	H	0.212275	0.124006	0.168780
H92	H	0.264648	0.180437	0.216602
H93	H	0.866392	0.246060	0.744079
C94	C	0.470442	0.210820	-0.186472
C95	C	0.560053	0.131000	-0.181202
H96	H	0.439003	0.210194	-0.245043
H97	H	0.429574	0.209994	-0.135080
H98	H	0.481979	0.266407	-0.182883
H99	H	0.548515	0.075413	-0.184784
H100	H	0.600929	0.131819	-0.232608
C101	C	1.257230	-0.060203	0.386065
C102	C	1.185628	-0.004105	0.450859
H103	H	1.312603	-0.103567	0.419871
H104	H	1.231028	-0.094155	0.347216
H105	H	1.276630	-0.020931	0.347178
H106	H	1.166222	-0.043377	0.489742
H107	H	1.211833	0.029849	0.489725
C108	C	0.648305	-0.501137	-0.000021
C109	C	0.742652	-0.574751	-0.000019
H110	H	0.600818	-0.526916	-0.000030
H111	H	0.640043	-0.463295	0.055188
H112	H	0.640065	-0.463285	-0.055233
H113	H	0.750894	-0.612599	0.055196
H114	H	0.750917	-0.612609	-0.055234
C115	C	0.334432	0.126480	-0.256958
C116	C	0.274160	0.125277	-0.181212
H117	H	0.302995	0.125845	-0.315527
H118	H	0.345949	0.182069	-0.253365
H119	H	0.395225	0.072329	-0.253358
H120	H	0.213369	0.179431	-0.184808
H121	H	0.262630	0.069681	-0.184806
H122	H	0.741428	0.134630	-0.156603
H123	H	0.957385	-0.135550	-0.000043
C124	C	0.558306	0.049341	0.186410
C125	C	0.468690	0.129155	0.181140
H126	H	0.589749	0.049977	0.244976
H127	H	0.546780	-0.006244	0.182827
H128	H	0.599173	0.050172	0.135007
H129	H	0.427820	0.128321	0.232539
H130	H	0.480213	0.184754	0.184732
H131	H	1.071356	-0.604301	-0.000019
C132	C	0.902039	-0.125918	0.081352
C133	C	0.865795	-0.152601	-0.000030
H134	H	0.881520	-0.059263	0.081346
H135	H	0.877444	-0.144027	0.136554
H136	H	0.971739	-0.156358	0.081340
H137	H	0.796094	-0.122166	-0.000013
H138	H	0.890386	-0.134482	-0.055245
C139	C	1.238393	-0.066149	-0.000051
C140	C	1.286102	-0.165082	-0.000057
H141	H	1.285880	-0.040369	-0.000046
H142	H	1.198486	-0.045488	-0.055256
H143	H	1.198470	-0.045495	0.055165
H144	H	1.326019	-0.185736	-0.055277
H145	H	1.326026	-0.185751	0.055154
C146	C	1.361348	-0.465515	-0.000041
C147	C	1.349584	-0.371280	-0.000048
H148	H	1.429356	-0.506390	-0.000046
H149	H	1.331337	-0.477031	0.055169
H150	H	1.331342	-0.477035	-0.055252
H151	H	1.379585	-0.359758	0.055167
H152	H	1.379608	-0.359760	-0.055263
C153	C	1.156900	-0.062019	0.184433
C154	C	1.185596	-0.004169	0.241687
H155	H	1.212251	-0.105439	0.150633
H156	H	1.130661	-0.095906	0.223341
H157	H	1.108338	-0.023942	0.140484
H158	H	1.234154	-0.042246	0.285641
H159	H	1.211850	0.029721	0.202776
H160	H	1.162391	0.014103	0.563237
