data_functionalizedCrystal
_audit_creation_method	'MofGen! by Chris Wilmer'
_symmetry_space_group_name_H-M	'P1'
_symmetry_Int_Tables_number	1
_symmetry_cell_setting	triclinic
loop_
_symmetry_equiv_pos_as_xyz
  x,y,z
_cell_length_a	8.559649
_cell_length_b	15.944551
_cell_length_c	7.088929
_cell_angle_alpha	83.774879
_cell_angle_beta	95.325015
_cell_angle_gamma	76.638701
loop_
_atom_site_label
_atom_site_type_symbol
_atom_site_fract_x
_atom_site_fract_y
_atom_site_fract_z
O1	O	2.103727	-0.018804	-0.158956
O2	O	1.638526	0.024575	-0.158968
O3	O	1.883832	-0.120210	-0.158944
O4	O	1.858421	0.125981	-0.158979
O5	O	1.916614	-0.139599	0.159034
O6	O	1.671309	0.005187	0.159010
O7	O	2.136509	-0.038193	0.159023
Cu8	Cu	1.906902	-0.018273	0.188050
Cu9	Cu	1.868133	0.004656	-0.187996
O10	O	1.891203	0.106593	0.158999
C11	C	1.595388	0.018169	0.000020
C12	C	1.418008	0.027954	0.000015
C13	C	1.899168	-0.161130	0.000045
C14	C	1.896006	-0.254172	0.000046
C15	C	1.736394	-0.458727	0.000015
C16	C	1.826675	-0.534087	0.156800
C17	C	1.890284	-0.424528	0.000031
C18	C	1.794391	-0.514957	-0.156702
C19	C	1.884745	-0.589082	0.000009
C20	C	1.980621	-0.498671	0.156945
C21	C	1.948300	-0.479525	-0.156697
C22	C	2.038697	-0.554877	0.000126
C23	C	1.893471	-0.329732	0.000046
C24	C	1.881571	-0.683878	0.000008
C25	C	2.179647	-0.031786	0.000031
C26	C	2.357025	-0.041571	0.000022
C27	C	1.875866	0.147513	0.000005
C28	C	1.879027	0.240556	-0.000008
N29	N	1.934182	-0.034401	0.452541
N30	N	1.840866	0.020776	-0.452487
H31	H	1.334507	0.094969	-0.000005
H32	H	1.440515	-0.108579	0.000023
O33	O	1.700420	-0.524119	-0.314975
C34	C	1.636238	-0.442092	-0.425006
H35	H	1.716144	-0.396325	-0.390211
H36	H	1.631980	-0.449524	-0.583413
H37	H	1.508693	-0.414098	-0.390371
H38	H	1.608676	-0.417185	0.000169
O39	O	2.049483	-0.102719	0.549744
C40	C	2.018257	-0.181204	0.501026
H41	H	1.941767	-0.168302	0.355651
H42	H	2.137579	-0.229957	0.494366
H43	H	1.950180	-0.208819	0.613663
O44	O	2.074413	-0.489331	0.315196
C45	C	2.076235	-0.401049	0.313313
H46	H	1.964085	-0.358567	0.220393
H47	H	2.076798	-0.383892	0.465322
H48	H	2.189291	-0.389299	0.252704
H49	H	2.166552	-0.596292	0.000218
O50	O	1.765162	-0.562781	0.314723
C51	C	1.626114	-0.591464	0.258442
H52	H	1.630634	-0.609442	0.107379
H53	H	1.621787	-0.650895	0.360991
H54	H	1.513485	-0.537252	0.261447
H55	H	1.999667	-0.455510	-0.289250
O56	O	1.725678	0.089025	0.449902
C57	C	1.799539	0.142292	0.334129
H58	H	1.921441	0.102532	0.304319
H59	H	1.718449	0.168431	0.193297
H60	H	1.818452	0.198986	0.411148
