data_functionalizedCrystal
_audit_creation_method	'MofGen! by Chris Wilmer'
_symmetry_space_group_name_H-M	'P1'
_symmetry_Int_Tables_number	1
_symmetry_cell_setting	triclinic
loop_
_symmetry_equiv_pos_as_xyz
  x,y,z
_cell_length_a	19.121063
_cell_length_b	19.077105
_cell_length_c	19.077569
_cell_angle_alpha	94.700723
_cell_angle_beta	90.211718
_cell_angle_gamma	89.736948
loop_
_atom_site_label
_atom_site_type_symbol
_atom_site_fract_x
_atom_site_fract_y
_atom_site_fract_z
Zn1	Zn	-0.304834	-1.081170	-0.454357
Zn2	Zn	0.028499	-0.747837	-0.121023
Zn3	Zn	0.361833	-0.414503	0.212310
Zn4	Zn	-0.426418	-1.071348	-0.341455
Zn5	Zn	-0.093084	-0.738015	-0.008122
Zn6	Zn	0.240249	-0.404682	0.325212
Zn7	Zn	-0.304844	-0.958552	-0.331752
Zn8	Zn	0.028489	-0.625219	0.001581
Zn9	Zn	0.361823	-0.291885	0.334914
Zn10	Zn	-0.417334	-0.958619	-0.454202
Zn11	Zn	-0.084001	-0.625285	-0.120869
Zn12	Zn	0.249333	-0.291952	0.212465
O13	O	-0.363357	-1.017422	-0.395441
O14	O	-0.030024	-0.684089	-0.062108
O15	O	0.303309	-0.350756	0.271225
O16	O	-0.324760	-1.178361	-0.443505
O17	O	0.008574	-0.845028	-0.110172
O18	O	0.341907	-0.511694	0.223162
O19	O	-0.414097	-1.052247	-0.241673
O20	O	-0.080763	-0.718914	0.091661
O21	O	0.252570	-0.385581	0.424994
O22	O	-0.206882	-0.978900	-0.344020
O23	O	0.126451	-0.645567	-0.010687
O24	O	0.459785	-0.312233	0.322646
O25	O	-0.414087	-1.171145	-0.360557
O26	O	-0.080753	-0.837812	-0.027223
O27	O	0.252580	-0.504479	0.306110
O28	O	-0.206875	-1.068987	-0.434097
O29	O	0.126459	-0.735654	-0.100764
O30	O	0.459792	-0.402320	0.232570
O31	O	-0.324777	-0.969376	-0.234544
O32	O	0.008556	-0.636043	0.098789
O33	O	0.341890	-0.302710	0.432122
O34	O	-0.315969	-0.860067	-0.343870
O35	O	0.017365	-0.526733	-0.010537
O36	O	0.350698	-0.193400	0.322796
O37	O	-0.398605	-0.979014	-0.552718
O38	O	-0.065271	-0.645680	-0.219384
O39	O	0.268062	-0.312347	0.113949
O40	O	-0.398615	-0.860116	-0.433834
O41	O	-0.065281	-0.526783	-0.100500
O42	O	0.268052	-0.193449	0.232833
O43	O	-0.315951	-1.069052	-0.552831
O44	O	0.017382	-0.735718	-0.219498
O45	O	0.350715	-0.402385	0.113835
O46	O	-0.523173	-1.052312	-0.360407
O47	O	-0.189840	-0.718979	-0.027073
O48	O	0.143493	-0.385645	0.306260
O49	O	-0.516500	-0.969490	-0.443242
O50	O	-0.183166	-0.636157	-0.109908
O51	O	0.150167	-0.302823	0.223425
C52	C	-0.356307	-0.834553	-0.387783
C53	C	-0.022974	-0.501220	-0.054449
C54	C	0.310359	-0.167886	0.278884
C55	C	-0.353308	-0.756321	-0.384524
C56	C	-0.019974	-0.422987	-0.051190
C57	C	0.313359	-0.089654	0.282143
C58	C	-0.545237	-1.009862	-0.402876
C59	C	-0.211903	-0.676529	-0.069543
C60	C	0.121430	-0.343196	0.263790
C61	C	-0.623047	-1.006693	-0.406083
C62	C	-0.289714	-0.673360	-0.072750
C63	C	0.043620	-0.340027	0.260583
C64	C	-0.356264	-1.025136	-0.579027
C65	C	-0.022930	-0.691803	-0.245694
C66	C	0.310403	-0.358469	0.087639
C67	C	-0.353241	-1.028423	-0.657261
C68	C	-0.019907	-0.695090	-0.323927
C69	C	0.313426	-0.361756	0.009406
C70	C	-0.663054	-1.048362	-0.364501
C71	C	-0.329720	-0.715029	-0.031168
C72	C	0.003613	-0.381696	0.302166
C73	C	-0.736165	-1.045386	-0.367521
C74	C	-0.402831	-0.712053	-0.034188
C75	C	-0.069498	-0.378720	0.299145
C76	C	-0.769267	-1.000738	-0.412121
C77	C	-0.435934	-0.667404	-0.078787
C78	C	-0.102601	-0.334071	0.254546
C79	C	-0.729255	-0.959067	-0.453708
C80	C	-0.395922	-0.625734	-0.120374
C81	C	-0.062588	-0.292400	0.212959
C82	C	-0.656146	-0.962047	-0.450691
C83	C	-0.322812	-0.628714	-0.117357
C84	C	0.010521	-0.295381	0.215976
C85	C	-0.989838	-0.989584	-0.423390
C86	C	-0.656504	-0.656251	-0.090056
C87	C	-0.323171	-0.322917	0.243277
C88	C	-1.062953	-0.986605	-0.426402
C89	C	-0.729619	-0.653272	-0.093069
C90	C	-0.396286	-0.319939	0.240264
C91	C	-1.069857	-1.072926	-0.340216
C92	C	-0.736524	-0.739593	-0.006883
C93	C	-0.403190	-0.406259	0.326450
C94	C	-0.996746	-1.075899	-0.337200
C95	C	-0.663413	-0.742566	-0.003867
C96	C	-0.330079	-0.409232	0.329467
C97	C	-0.956740	-1.034231	-0.378790
C98	C	-0.623407	-0.700898	-0.045456
C99	C	-0.290073	-0.367565	0.287877
C100	C	-0.843998	-0.997693	-0.415208
C101	C	-0.510665	-0.664360	-0.081874
C102	C	-0.177331	-0.331026	0.251459
C103	C	-0.882011	-1.037280	-0.375706
C104	C	-0.548677	-0.703947	-0.042373
C105	C	-0.215344	-0.370613	0.290960
C106	C	-0.180768	-1.025032	-0.387994
C107	C	0.152565	-0.691698	-0.054660
C108	C	0.485899	-0.358365	0.278673
C109	C	-0.102959	-1.028274	-0.384820
C110	C	0.230374	-0.694941	-0.051487
C111	C	0.563707	-0.361608	0.281847
C112	C	-0.370435	-1.201006	-0.403130
C113	C	-0.037102	-0.867672	-0.069797
C114	C	0.296231	-0.534339	0.263536
C115	C	-0.373452	-1.279238	-0.406407
C116	C	-0.040118	-0.945905	-0.073074
C117	C	0.293215	-0.612571	0.260260
C118	C	-0.394998	-0.719605	-0.429764
C119	C	-0.061665	-0.386272	-0.096430
C120	C	0.271669	-0.052939	0.236903
C121	C	-0.392170	-0.646098	-0.426704
C122	C	-0.058837	-0.312765	-0.093371
C123	C	0.274497	0.020568	0.239962
C124	C	-0.347655	-0.609308	-0.378401
C125	C	-0.014322	-0.275974	-0.045068
C126	C	0.319012	0.057359	0.288265
C127	C	-0.305960	-0.646028	-0.333160
C128	C	0.027373	-0.312695	0.000174
C129	C	0.360707	0.020638	0.333507
C130	C	-0.308785	-0.719534	-0.336223
C131	C	0.024548	-0.386201	-0.002889
C132	C	0.357882	-0.052868	0.330444
C133	C	-0.334582	-0.389465	-0.364228
C134	C	-0.001248	-0.056131	-0.030895
C135	C	0.332085	0.277202	0.302438
C136	C	-0.331761	-0.315953	-0.361167
C137	C	0.001572	0.017380	-0.027834
C138	C	0.334905	0.350713	0.305499
C139	C	-0.417971	-0.316028	-0.454713
C140	C	-0.084637	0.017305	-0.121380
C141	C	0.248696	0.350638	0.211953
C142	C	-0.420794	-0.389535	-0.457769
C143	C	-0.087461	-0.056202	-0.124436
C144	C	0.245872	0.277131	0.208898
C145	C	-0.379097	-0.426250	-0.412530
C146	C	-0.045764	-0.092917	-0.079197
C147	C	0.287570	0.240417	0.254137
N148	N	-0.344765	-0.534172	-0.375272
N149	N	-0.011432	-0.200838	-0.041939
N150	N	0.321902	0.132495	0.291395
N151	N	-0.381984	-0.501385	-0.415663
N152	N	-0.048651	-0.168052	-0.082330
N153	N	0.284683	0.165282	0.251003
C154	C	-0.394850	-0.983090	-0.693957
C155	C	-0.061517	-0.649757	-0.360623
C156	C	0.271816	-0.316424	-0.027290
C157	C	-0.392010	-0.986185	-0.767465
C158	C	-0.058677	-0.652851	-0.434132
C159	C	0.274656	-0.319518	-0.100799
C160	C	-0.347556	-1.034609	-0.804277
C161	C	-0.014223	-0.701275	-0.470943
C162	C	0.319110	-0.367942	-0.137610
C163	C	-0.305945	-1.079946	-0.767575
C164	C	0.027388	-0.746613	-0.434242
C165	C	0.360722	-0.413280	-0.100909
C166	C	-0.308789	-1.076855	-0.694068
C167	C	0.024544	-0.743521	-0.360735
C168	C	0.357877	-0.410188	-0.027402
C169	C	-0.334439	-1.048885	-1.024126
C170	C	-0.001105	-0.715551	-0.690793
C171	C	0.332228	-0.382218	-0.357459
C172	C	-0.331596	-1.051971	-1.097638
C173	C	0.001737	-0.718638	-0.764305
C174	C	0.335071	-0.385305	-0.430971
C175	C	-0.417662	-0.958210	-1.097523
C176	C	-0.084329	-0.624877	-0.764190
C177	C	0.249004	-0.291544	-0.430856
C178	C	-0.420500	-0.955120	-1.024014
C179	C	-0.087166	-0.621787	-0.690681
C180	C	0.246167	-0.288454	-0.357348
C181	C	-0.378891	-1.000460	-0.987320
C182	C	-0.045558	-0.667127	-0.653986
C183	C	0.287775	-0.333793	-0.320653
N184	N	-0.344650	-1.037771	-0.879414
N185	N	-0.011317	-0.704438	-0.546081
N186	N	0.322016	-0.371105	-0.212748
N187	N	-0.381801	-0.997300	-0.912184
N188	N	-0.048468	-0.663967	-0.578850
N189	N	0.284866	-0.330634	-0.245517
C190	C	-0.370375	-1.009781	-0.212569
C191	C	-0.037041	-0.676448	0.120764
C192	C	0.296292	-0.343115	0.454097
C193	C	-0.373206	-1.006639	-0.134334
C194	C	-0.039872	-0.673305	0.198999
C195	C	0.293461	-0.339972	0.532333
H196	H	-0.768735	-1.079317	-0.333660
H197	H	-0.435402	-0.745984	-0.000327
H198	H	-0.102069	-0.412650	0.333007
H199	H	-0.969795	-1.112256	-0.300884
H200	H	-0.636462	-0.778922	0.032450
H201	H	-0.303129	-0.445589	0.365783
C202	C	-0.880411	-0.948579	-0.464263
C203	C	-0.547077	-0.615245	-0.130930
C204	C	-0.213744	-0.281912	0.202403
H205	H	-0.846116	-0.924188	-0.488601
H206	H	-0.512782	-0.590855	-0.155268
H207	H	-0.179449	-0.257521	0.178066
H208	H	-0.908833	-0.915641	-0.437209
H209	H	-0.575500	-0.582308	-0.103875
H210	H	-0.242166	-0.248974	0.229458
H211	H	-0.908741	-0.975615	-0.497257
H212	H	-0.575408	-0.642281	-0.163924
H213	H	-0.242074	-0.308948	0.169410
C214	C	-0.263014	-1.126716	-0.653702
C215	C	0.070319	-0.793382	-0.320369
C216	C	0.403653	-0.460049	0.012964
H217	H	-0.236125	-1.155993	-0.686152
H218	H	0.097208	-0.822660	-0.352818
H219	H	0.430541	-0.489327	-0.019485
H220	H	-0.292082	-1.155061	-0.627402
H221	H	0.041252	-0.821728	-0.294069
H222	H	0.374585	-0.488395	0.039264
H223	H	-0.232582	-1.099850	-0.622656
H224	H	0.100751	-0.766517	-0.289323
H225	H	0.434085	-0.433183	0.044010
C226	C	-0.765663	-0.909956	-0.502770
C227	C	-0.432329	-0.576622	-0.169436
C228	C	-0.098996	-0.243289	0.163897
H229	H	-0.731363	-0.885571	-0.527108
H230	H	-0.398030	-0.552238	-0.193774
H231	H	-0.064696	-0.218905	0.139559
H232	H	-0.794082	-0.877013	-0.475718
H233	H	-0.460749	-0.543679	-0.142385
H234	H	-0.127415	-0.210346	0.190949
H235	H	-0.793996	-0.936990	-0.535763
H236	H	-0.460662	-0.603656	-0.202430
H237	H	-0.127329	-0.270323	0.130904
H238	H	-0.855056	-1.073636	-0.339396
H239	H	-0.521723	-0.740303	-0.006063
H240	H	-0.188390	-0.406969	0.327271
C241	C	-1.099364	-0.937496	-0.475470
C242	C	-0.766031	-0.604162	-0.142137
C243	C	-0.432698	-0.270829	0.191197
H244	H	-1.065068	-0.913112	-0.499813
H245	H	-0.731735	-0.579779	-0.166480
H246	H	-0.398401	-0.246445	0.166854
H247	H	-1.127783	-0.904552	-0.448419
H248	H	-0.794450	-0.571219	-0.115086
H249	H	-0.461117	-0.237885	0.218248
H250	H	-1.127698	-0.964534	-0.508459
H251	H	-0.794365	-0.631201	-0.175126
H252	H	-0.461032	-0.297868	0.158208
C253	C	-0.463434	-0.908345	-1.137885
C254	C	-0.130100	-0.575011	-0.804552
C255	C	0.203233	-0.241678	-0.471219
H256	H	-0.490313	-0.879060	-1.105433
H257	H	-0.156979	-0.545727	-0.772100
H258	H	0.176354	-0.212394	-0.438767
H259	H	-0.493863	-0.935203	-1.168933
H260	H	-0.160530	-0.601870	-0.835600
H261	H	0.172803	-0.268536	-0.502267
H262	H	-0.434361	-0.879995	-1.164182
H263	H	-0.101027	-0.546662	-0.830849
H264	H	0.232306	-0.213328	-0.497515
C265	C	-0.443764	-0.929837	-0.653472
C266	C	-0.110431	-0.596503	-0.320139
C267	C	0.222902	-0.263170	0.013195
H268	H	-0.468147	-0.903290	-0.685858
H269	H	-0.134814	-0.569957	-0.352525
H270	H	0.198519	-0.236624	-0.019192
H271	H	-0.416928	-0.899073	-0.622412
H272	H	-0.083595	-0.565740	-0.289079
H273	H	0.249738	-0.232406	0.044255
H274	H	-0.476412	-0.954302	-0.627179
H275	H	-0.143079	-0.620969	-0.293845
H276	H	0.190255	-0.287635	0.039488
C277	C	-0.626647	-1.097478	-0.315442
C278	C	-0.293314	-0.764144	0.017891
C279	C	0.040020	-0.430811	0.351224
H280	H	-0.660948	-1.121872	-0.291116
H281	H	-0.327614	-0.788539	0.042218
H282	H	0.005719	-0.455206	0.375551
H283	H	-0.598312	-1.070453	-0.282449
H284	H	-0.264979	-0.737120	0.050884
H285	H	0.068355	-0.403786	0.384217
H286	H	-0.598230	-1.130422	-0.342503
H287	H	-0.264897	-0.797089	-0.009169
H288	H	0.068436	-0.463755	0.324164
H289	H	-0.300634	-0.419348	-0.327386
H290	H	0.032699	-0.086015	0.005947
H291	H	0.366033	0.247318	0.339281
H292	H	-0.269712	-0.616068	-0.293833
H293	H	0.063621	-0.282735	0.039500
H294	H	0.396955	0.050599	0.372833
H295	H	-0.623572	-0.928117	-0.484552
H296	H	-0.290239	-0.594784	-0.151219
H297	H	0.043094	-0.261450	0.182115
C298	C	-0.443968	-0.760071	-0.482892
C299	C	-0.110635	-0.426738	-0.149558
C300	C	0.222698	-0.093405	0.183775
H301	H	-0.439687	-0.809107	-0.478233
H302	H	-0.106354	-0.475774	-0.144899
H303	H	0.226979	-0.142441	0.188434
H304	H	-0.431510	-0.750447	-0.529284
H305	H	-0.098177	-0.417113	-0.195951
H306	H	0.235156	-0.083780	0.137383
H307	H	-0.490926	-0.745630	-0.473925
H308	H	-0.157593	-0.412297	-0.140591
H309	H	0.175740	-0.078963	0.192742
C310	C	-0.282699	-1.105244	-1.138130
C311	C	0.050634	-0.771911	-0.804796
C312	C	0.383967	-0.438578	-0.471463
H313	H	-0.258331	-1.131810	-1.105749
H314	H	0.075002	-0.798476	-0.772416
H315	H	0.408336	-0.465143	-0.439082
H316	H	-0.250049	-1.080800	-1.164432
H317	H	0.083285	-0.747466	-0.831099
H318	H	0.416618	-0.414133	-0.497765
H319	H	-0.309560	-1.135999	-1.169182
H320	H	0.023773	-0.802665	-0.835849
H321	H	0.357107	-0.469332	-0.502515
H322	H	-0.957271	-0.955655	-0.457252
H323	H	-0.623937	-0.622322	-0.123919
H324	H	-0.290604	-0.288988	0.209414
C325	C	-0.257047	-1.133214	-0.808062
C326	C	0.076286	-0.799881	-0.474729
C327	C	0.409619	-0.466548	-0.141396
H328	H	-0.232678	-1.159775	-0.775678
H329	H	0.100655	-0.826441	-0.442345
H330	H	0.433988	-0.493108	-0.109011
H331	H	-0.224398	-1.108769	-0.834365
H332	H	0.108936	-0.775436	-0.501032
H333	H	0.442269	-0.442103	-0.167699
H334	H	-0.283904	-1.163973	-0.839114
H335	H	0.049429	-0.830640	-0.505781
H336	H	0.382763	-0.497307	-0.172447
C337	C	-0.437786	-0.936327	-0.807832
C338	C	-0.104453	-0.602993	-0.474499
C339	C	0.228880	-0.269660	-0.141165
H340	H	-0.429736	-0.945110	-0.856883
H341	H	-0.096403	-0.611776	-0.523550
H342	H	0.236931	-0.278443	-0.190216
H343	H	-0.426190	-0.888954	-0.793394
H344	H	-0.092856	-0.555621	-0.460061
H345	H	0.240477	-0.222287	-0.126727
H346	H	-0.485685	-0.944171	-0.798131
H347	H	-0.152351	-0.610837	-0.464797
H348	H	0.180982	-0.277504	-0.131464
C349	C	-0.288668	-1.098753	-0.983771
C350	C	0.044666	-0.765420	-0.650437
C351	C	0.377999	-0.432087	-0.317104
H352	H	-0.261781	-1.128029	-1.016224
H353	H	0.071552	-0.794696	-0.682890
H354	H	0.404885	-0.461362	-0.349557
H355	H	-0.317737	-1.127101	-0.957474
H356	H	0.015596	-0.793767	-0.624141
H357	H	0.348930	-0.460434	-0.290807
H358	H	-0.258234	-1.071893	-0.952723
H359	H	0.075099	-0.738559	-0.619389
H360	H	0.408433	-0.405226	-0.286056
H361	H	-1.102437	-1.106850	-0.306358
H362	H	-0.769104	-0.773517	0.026976
H363	H	-0.435771	-0.440184	0.360309
H364	H	-0.456710	-0.915699	-0.994049
H365	H	-0.123377	-0.582366	-0.660715
H366	H	0.209956	-0.249032	-0.327382
H367	H	-0.426119	-0.616208	-0.463543
H368	H	-0.092786	-0.282874	-0.130210
H369	H	0.240548	0.050459	0.203124
H370	H	-0.457045	-0.419485	-0.497101
H371	H	-0.123712	-0.086152	-0.163768
H372	H	0.209622	0.247182	0.169566
H373	H	-0.274832	-0.749428	-0.299387
H374	H	0.058501	-0.416094	0.033946
H375	H	0.391834	-0.082761	0.367280
H376	H	-0.295504	-0.286001	-0.321837
H377	H	0.037830	0.047332	0.011496
H378	H	0.371163	0.380666	0.344830
C379	C	-0.463827	-0.275642	-0.504478
C380	C	-0.130493	0.057692	-0.171145
C381	C	0.202840	0.391025	0.162189
H382	H	-0.455766	-0.226595	-0.495742
H383	H	-0.122433	0.106738	-0.162409
H384	H	0.210901	0.440071	0.170925
H385	H	-0.511710	-0.285297	-0.496528
H386	H	-0.178376	0.048036	-0.163194
H387	H	0.154957	0.381370	0.170139
H388	H	-0.452282	-0.290111	-0.551874
H389	H	-0.118948	0.043223	-0.218540
H390	H	0.214385	0.376556	0.114793
