data_functionalizedCrystal
_audit_creation_method	'MofGen! by Chris Wilmer'
_symmetry_space_group_name_H-M	'P1'
_symmetry_Int_Tables_number	1
_symmetry_cell_setting	triclinic
loop_
_symmetry_equiv_pos_as_xyz
  x,y,z
_cell_length_a	17.077404
_cell_length_b	16.120484
_cell_length_c	16.120297
_cell_angle_alpha	84.385569
_cell_angle_beta	87.121653
_cell_angle_gamma	92.925780
loop_
_atom_site_label
_atom_site_type_symbol
_atom_site_fract_x
_atom_site_fract_y
_atom_site_fract_z
Zn1	Zn	1.159640	-0.356743	0.489453
Zn2	Zn	1.659640	0.143257	0.989453
Zn3	Zn	1.159541	-0.489433	0.356764
Zn4	Zn	1.659541	0.010567	0.856764
Zn5	Zn	1.035382	-0.349680	0.349700
Zn6	Zn	1.535382	0.150320	0.849700
Zn7	Zn	1.021327	-0.496475	0.496486
Zn8	Zn	1.521327	0.003525	0.996486
O9	O	1.093973	-0.423083	0.423101
O10	O	1.593973	0.076917	0.923101
O11	O	1.269473	-0.374354	0.471865
O12	O	1.769473	0.125646	0.971865
O13	O	1.148912	-0.464991	0.238865
O14	O	1.648912	0.035009	0.738865
O15	O	1.057788	-0.233651	0.362338
O16	O	1.557788	0.266349	0.862338
O17	O	1.269400	-0.471840	0.374379
O18	O	1.769400	0.028160	0.874379
O19	O	1.149080	-0.238841	0.465015
O20	O	1.649080	0.261159	0.965015
O21	O	1.057692	-0.362315	0.233675
O22	O	1.557692	0.137685	0.733675
O23	O	0.923671	-0.369143	0.369158
O24	O	1.423671	0.130857	0.869158
O25	O	1.033834	-0.483842	0.612515
O26	O	1.533834	0.016158	1.112515
O27	O	0.913346	-0.476993	0.477002
O28	O	1.413346	0.023007	0.977002
O29	O	1.135452	-0.381182	0.607348
O30	O	1.635452	0.118818	1.107348
O31	O	1.135284	-0.607332	0.381198
O32	O	1.635284	-0.107332	0.881198
O33	O	1.033738	-0.612506	0.483852
O34	O	1.533738	-0.112506	0.983852
C35	C	0.890027	-0.423066	0.423077
C36	C	1.390027	0.076934	0.923077
C37	C	0.802776	-0.423080	0.423088
C38	C	1.302776	0.076920	0.923088
C39	C	0.756430	-0.479314	0.479160
C40	C	1.256430	0.020686	0.979160
C41	C	0.674448	-0.479316	0.479174
C42	C	1.174448	0.020684	0.979174
C43	C	0.638815	-0.423089	0.423110
C44	C	1.138815	0.076911	0.923110
C45	C	0.685167	-0.366849	0.367035
C46	C	1.185167	0.133151	0.867035
C47	C	0.767147	-0.366843	0.367026
C48	C	1.267147	0.133157	0.867026
C49	C	0.514295	-0.366867	0.367056
C50	C	1.014295	0.133133	0.867056
C51	C	0.432310	-0.366873	0.367063
C52	C	0.932310	0.133127	0.867063
C53	C	0.421597	-0.479340	0.479203
C54	C	0.921597	0.020660	0.979203
C55	C	0.503577	-0.479334	0.479195
C56	C	1.003577	0.020666	0.979195
C57	C	0.549923	-0.423095	0.423118
C58	C	1.049923	0.076905	0.923118
C59	C	1.082995	-0.640248	0.434073
C60	C	1.582995	-0.140248	0.934073
C61	C	1.078370	-0.733153	0.438795
C62	C	1.578370	-0.233153	0.938795
C63	C	1.069928	-0.903253	0.447433
C64	C	1.569928	-0.403253	0.947433
C65	C	1.118157	-0.942072	0.398782
C66	C	1.618157	-0.442072	0.898782
C67	C	1.113460	-1.036721	0.403589
C68	C	1.613460	-0.536721	0.903589
C69	C	1.074624	-0.808595	0.442628
C70	C	1.574624	-0.308595	0.942628
C71	C	1.298715	-0.423100	0.423125
C72	C	1.798715	0.076900	0.923125
C73	C	1.385964	-0.423107	0.423136
C74	C	1.885964	0.076893	0.923136
C75	C	1.083086	-0.434085	0.641107
C76	C	1.583086	0.065915	1.141107
C77	C	1.078447	-0.438774	0.734008
C78	C	1.578447	0.061226	1.234008
C79	C	1.105013	-0.205070	0.412104
C80	C	1.605013	0.294930	0.912104
C81	C	1.109718	-0.112167	0.407418
C82	C	1.609718	0.387833	0.907418
C83	C	1.104865	-0.412062	0.205940
C84	C	1.604865	0.087938	0.705940
C85	C	1.109667	-0.407138	0.113028
C86	C	1.609667	0.092862	0.613028
C87	C	1.069950	-0.447316	0.904098
C88	C	1.569950	0.052684	1.404098
C89	C	1.118162	-0.398599	0.942943
C90	C	1.618162	0.101401	1.442943
C91	C	1.113434	-0.403352	1.037587
C92	C	1.613434	0.096648	1.537587
C93	C	1.074677	-0.442564	0.809445
C94	C	1.574677	0.057436	1.309445
H95	H	0.785436	-0.525104	0.524811
H96	H	1.285436	-0.025104	1.024811
O97	O	1.177521	-0.891938	0.338827
O98	O	1.677521	-0.391938	0.838827
H99	H	1.212130	-0.934978	0.303931
H100	H	1.712130	-0.434978	0.803931
H101	H	1.025114	-0.941101	0.492689
H102	H	1.525114	-0.441101	0.992689
O103	O	1.177554	-0.338633	0.892850
O104	O	1.677554	0.161367	1.392850
H105	H	1.146534	-0.294145	0.850907
H106	H	1.646534	0.205855	1.350907
O107	O	0.624458	-0.540119	0.539499
O108	O	1.124458	-0.040119	1.039499
H109	H	0.663009	-0.579279	0.578419
H110	H	1.163009	-0.079279	1.078419
O111	O	0.542016	-0.539975	0.539664
O112	O	1.042016	-0.039975	1.039664
H113	H	0.496017	-0.579075	0.578666
H114	H	0.996017	-0.079075	1.078666
H115	H	1.025127	-0.492591	0.941919
H116	H	1.525127	0.007409	1.441919
H117	H	0.403300	-0.321078	0.321421
H118	H	0.903300	0.178922	0.821421
O119	O	0.371616	-0.539994	0.539695
O120	O	0.871616	-0.039994	1.039695
H121	H	0.308624	-0.530546	0.530293
H122	H	0.808624	-0.030546	1.030293
O123	O	0.564288	-0.306218	0.306567
O124	O	1.064288	0.193782	0.806567
H125	H	0.525739	-0.267128	0.267575
H126	H	1.025739	0.232872	0.767575
H127	H	0.656148	-0.321064	0.321390
H128	H	1.156148	0.178936	0.821390
O129	O	0.817140	-0.306201	0.306539
O130	O	1.317140	0.193799	0.806539
H131	H	0.778591	-0.267111	0.267547
H132	H	1.278591	0.232889	0.767547
