data_functionalizedCrystal
_audit_creation_method	'MofGen! by Chris Wilmer'
_symmetry_space_group_name_H-M	'P1'
_symmetry_Int_Tables_number	1
_symmetry_cell_setting	triclinic
loop_
_symmetry_equiv_pos_as_xyz
  x,y,z
_cell_length_a	14.908571
_cell_length_b	14.909351
_cell_length_c	14.908404
_cell_angle_alpha	90.136481
_cell_angle_beta	89.784600
_cell_angle_gamma	83.622639
loop_
_atom_site_label
_atom_site_type_symbol
_atom_site_fract_x
_atom_site_fract_y
_atom_site_fract_z
Zn1	Zn	1.367230	-0.402528	-0.612142
Zn2	Zn	1.867230	0.097472	-0.112142
Zn3	Zn	1.384453	-0.562560	-0.471516
Zn4	Zn	1.884453	-0.062560	0.028484
Zn5	Zn	1.225572	-0.403619	-0.453194
Zn6	Zn	1.725572	0.096381	0.046806
Zn7	Zn	1.224563	-0.545088	-0.612115
Zn8	Zn	1.724563	-0.045088	-0.112115
O9	O	1.300455	-0.478449	-0.537242
O10	O	1.800455	0.021551	-0.037242
O11	O	1.495714	-0.430612	-0.601167
O12	O	1.995714	0.069388	-0.101167
O13	O	1.371008	-0.549245	-0.343724
O14	O	1.871008	-0.049245	0.156276
O15	O	1.237578	-0.277294	-0.466622
O16	O	1.737578	0.222706	0.033378
O17	O	1.508368	-0.548187	-0.497850
O18	O	2.008368	-0.048187	0.002150
O19	O	1.341653	-0.276493	-0.583400
O20	O	1.841653	0.223507	-0.083400
O21	O	1.254279	-0.432471	-0.330262
O22	O	1.754279	0.067529	0.169738
O23	O	1.099239	-0.415529	-0.466595
O24	O	1.599239	0.084471	0.033405
O25	O	1.235858	-0.518409	-0.737480
O26	O	1.735858	-0.018409	-0.237480
O27	O	1.098498	-0.519466	-0.583354
O28	O	1.598498	-0.019466	-0.083354
O29	O	1.340675	-0.413670	-0.737500
O30	O	1.840675	0.086330	-0.237500
O31	O	1.370029	-0.686422	-0.497823
O32	O	1.870029	-0.186422	0.002177
O33	O	1.252558	-0.673585	-0.601121
O34	O	1.752558	-0.173585	-0.101121
C35	C	1.066147	-0.465721	-0.522984
C36	C	1.566147	0.034279	-0.022984
C37	C	0.965908	-0.460296	-0.516907
C38	C	1.465908	0.039704	-0.016907
C39	C	0.776845	-0.558520	-0.626926
C40	C	1.276845	-0.058520	-0.126926
C41	C	0.682663	-0.553426	-0.621220
C42	C	1.182663	-0.053426	-0.121220
C43	C	0.683358	-0.445008	-0.499793
C44	C	1.183358	0.054992	0.000207
C45	C	0.777541	-0.450103	-0.505500
C46	C	1.277541	0.049897	-0.005500
C47	C	0.824281	-0.506862	-0.569067
C48	C	1.324281	-0.006862	-0.069067
C49	C	0.918466	-0.511960	-0.574769
C50	C	1.418466	-0.011960	-0.074769
C51	C	0.919159	-0.403538	-0.453347
C52	C	1.419159	0.096462	0.046653
C53	C	0.824977	-0.398444	-0.447641
C54	C	1.324977	0.101556	0.052359
C55	C	1.313076	-0.712721	-0.551478
C56	C	1.813076	-0.212721	-0.051478
C57	C	1.318557	-0.812946	-0.557604
C58	C	1.818557	-0.312946	-0.057604
C59	C	1.380405	-0.953714	-0.627068
C60	C	1.880405	-0.453714	-0.127068
C61	C	1.375262	-0.859543	-0.621318
C62	C	1.875262	-0.359543	-0.121318
C63	C	1.266993	-0.860526	-0.499634
C64	C	1.766993	-0.360526	0.000366
C65	C	1.272136	-0.954697	-0.505384
C66	C	1.772136	-0.454697	-0.005384
C67	C	1.328843	-1.001287	-0.569105
C68	C	1.828843	-0.501287	-0.069105
C69	C	1.333981	-1.095459	-0.574859
C70	C	1.833981	-0.595459	-0.074859
C71	C	1.225718	-1.096441	-0.453171
C72	C	1.725718	-0.596441	0.046829
C73	C	1.220575	-1.002270	-0.447420
C74	C	1.720575	-0.502270	0.052580
C75	C	1.535678	-0.491227	-0.551555
C76	C	2.035678	0.008773	-0.051555
C77	C	1.635916	-0.496673	-0.557655
C78	C	2.135916	0.003327	-0.057655
C79	C	1.286232	-0.463969	-0.770904
C80	C	1.786232	0.036031	-0.270904
C81	C	1.280171	-0.457798	-0.870477
C82	C	1.780171	0.042202	-0.370477
C83	C	1.287807	-0.243262	-0.522970
C84	C	1.787807	0.256738	-0.022970
C85	C	1.282418	-0.143039	-0.516889
C86	C	1.782418	0.356961	-0.016889
C87	C	1.314670	-0.492810	-0.304488
C88	C	1.814670	0.007190	0.195512
C89	C	1.320892	-0.498736	-0.204910
C90	C	1.820892	0.001264	0.295090
C91	C	1.210240	-0.389044	-0.003862
C92	C	1.710240	0.110956	0.496138
C93	C	1.216082	-0.394609	0.089700
C94	C	1.716082	0.105391	0.589700
C95	C	1.338424	-0.515425	0.075777
C96	C	1.838424	-0.015425	0.575777
C97	C	1.332581	-0.509861	-0.017785
C98	C	1.832581	-0.009861	0.482215
C99	C	1.268486	-0.446669	-0.057601
C100	C	1.768486	0.053331	0.442399
C101	C	1.262640	-0.441109	-0.151164
C102	C	1.762640	0.058891	0.348836
C103	C	1.384985	-0.561921	-0.165086
C104	C	1.884985	-0.061921	0.334914
C105	C	1.390827	-0.567485	-0.071524
C106	C	1.890827	-0.067485	0.428476
H107	H	0.645285	-0.398792	-0.448045
H108	H	1.145285	0.101208	0.051955
H109	H	0.786907	-0.352230	-0.395888
H110	H	1.286907	0.147770	0.104112
H111	H	1.168654	-0.347683	0.133452
H112	H	1.668654	0.152317	0.633452
Cl113	Cl	0.835609	-0.629882	-0.706829
Cl114	Cl	1.335609	-0.129882	-0.206829
H115	H	1.220831	-0.822581	-0.447749
H116	H	1.720831	-0.322581	0.052251
H117	H	0.956521	-0.558178	-0.626528
H118	H	1.456521	-0.058178	-0.126528
Cl119	Cl	1.129670	-0.309601	-0.053919
Cl120	Cl	1.629670	0.190399	0.446081
Cl121	Cl	0.623032	-0.618369	-0.693962
Cl122	Cl	1.123032	-0.118369	-0.193962
Cl123	Cl	0.978799	-0.338600	-0.380598
Cl124	Cl	1.478799	0.161400	0.119402
H125	H	1.390613	-0.566867	0.108212
H126	H	1.890613	-0.066867	0.608212
H127	H	1.432417	-0.608839	-0.208850
H128	H	1.932417	-0.108839	0.291150
Cl129	Cl	1.160894	-1.156253	-0.380297
Cl130	Cl	1.660894	-0.656253	0.119703
H131	H	1.380147	-1.133390	-0.626750
H132	H	1.880147	-0.633390	-0.126750
Cl133	Cl	1.440087	-0.799740	-0.694189
Cl134	Cl	1.940087	-0.299740	-0.194189
H135	H	1.426563	-0.991647	-0.678965
H136	H	1.926563	-0.491647	-0.178965
Cl137	Cl	1.149292	-0.943691	-0.367318
Cl138	Cl	1.649292	-0.443691	0.132682
H139	H	1.210449	-0.389655	-0.183581
H140	H	1.710449	0.110345	0.316419
H141	H	1.443014	-0.618932	-0.039092
H142	H	1.943014	-0.118932	0.460908
