data_functionalizedCrystal
_audit_creation_method	'MofGen! by Chris Wilmer'
_symmetry_space_group_name_H-M	'P1'
_symmetry_Int_Tables_number	1
_symmetry_cell_setting	triclinic
loop_
_symmetry_equiv_pos_as_xyz
  x,y,z
_cell_length_a	10.654550
_cell_length_b	17.699083
_cell_length_c	9.130313
_cell_angle_alpha	89.997869
_cell_angle_beta	89.996220
_cell_angle_gamma	83.883958
loop_
_atom_site_label
_atom_site_type_symbol
_atom_site_fract_x
_atom_site_fract_y
_atom_site_fract_z
O1	O	1.665973	0.106299	-0.121923
O2	O	1.300318	0.116427	-0.121900
O3	O	1.493476	0.001240	-0.121899
O4	O	1.472815	0.221487	-0.121924
O5	O	1.493474	0.001243	0.121700
O6	O	1.300315	0.116430	0.121699
O7	O	1.665971	0.106302	0.121676
Cu8	Cu	1.483143	0.111366	0.143930
Cu9	Cu	1.483146	0.111363	-0.144154
O10	O	1.472812	0.221490	0.121675
C11	C	1.253531	0.115685	-0.000097
C12	C	1.114127	0.113460	-0.000088
C13	C	1.033454	0.181281	-0.000117
C14	C	0.902470	0.179185	-0.000142
C15	C	0.932845	0.041443	-0.000115
C16	C	1.063826	0.043539	-0.000080
C17	C	1.015917	0.260805	-0.000139
C18	C	0.884933	0.258710	-0.000164
C19	C	1.492735	-0.026961	-0.000099
C20	C	1.490514	-0.110993	-0.000099
C21	C	1.603894	-0.158893	-0.000104
C22	C	1.601799	-0.237850	-0.000117
C23	C	1.486324	-0.268905	-0.000114
C24	C	1.372935	-0.220998	-0.000113
C25	C	1.375031	-0.142043	-0.000111
C26	C	1.364481	-0.539415	-0.000124
C27	C	1.362394	-0.618376	-0.000122
C28	C	1.591249	-0.635222	-0.000130
C29	C	1.593345	-0.556266	-0.000128
C30	C	1.479957	-0.508367	-0.000135
C31	C	1.482229	-0.422753	-0.000124
C32	C	1.484050	-0.354517	-0.000114
C33	C	1.712757	0.107044	-0.000130
C34	C	1.852161	0.109269	-0.000149
C35	C	1.473554	0.249690	-0.000128
C36	C	1.475775	0.333722	-0.000138
N37	N	1.483150	0.111369	0.346553
N38	N	1.483149	0.111355	-0.346777
C39	C	1.568702	0.060381	0.423205
C40	C	1.568699	0.060372	0.576542
C41	C	1.397587	0.162345	0.576561
C42	C	1.397585	0.162349	0.423226
C43	C	1.667496	0.001510	0.423195
C44	C	1.667493	0.001501	0.576532
H45	H	1.129507	-0.011687	-0.000035
H46	H	1.694125	-0.276847	-0.000118
H47	H	1.327912	0.203861	0.360818
H48	H	1.268354	-0.643658	-0.000117
C49	C	0.766135	0.247989	-0.221274
C50	C	0.827879	0.299151	-0.137801
H51	H	0.730909	0.272957	-0.306236
H52	H	0.824862	0.206390	-0.249566
H53	H	0.700743	0.229932	-0.164631
H54	H	0.893277	0.317204	-0.194440
H55	H	0.769147	0.340764	-0.109510
H56	H	1.697927	-0.133615	-0.000097
H57	H	0.838840	0.282744	0.105002
C58	C	1.006430	0.369506	-0.158668
C59	C	1.063466	0.294992	-0.142109
H60	H	1.035793	0.390610	-0.246313
H61	H	0.917434	0.369213	-0.163529
H62	H	1.027403	0.399231	-0.077401
H63	H	1.042485	0.265265	-0.223372
H64	H	1.152482	0.295280	-0.137261
C65	C	0.803199	-0.040826	-0.125364
C66	C	0.877551	-0.035412	-0.000121
H67	H	0.769074	-0.088277	-0.125370
H68	H	0.736411	-0.000741	-0.125371
H69	H	0.853698	-0.037146	-0.210291
H70	H	0.827050	-0.039086	0.084806
H71	H	0.944348	-0.075509	-0.000100
H72	H	1.327922	0.203851	0.639005
H73	H	1.687377	-0.530986	-0.000123
C74	C	1.521645	-0.092939	0.418149
C75	C	1.639908	-0.077016	0.367012
H76	H	1.504611	-0.141414	0.383457
H77	H	1.521657	-0.092939	0.522178
H78	H	1.458462	-0.055267	0.383467
H79	H	1.703093	-0.114685	0.401703
H80	H	1.639905	-0.077022	0.262961
C81	C	1.870712	0.042722	0.473177
C82	C	1.790155	0.026388	0.358967
H83	H	1.946438	0.058077	0.433521
H84	H	1.830357	0.082515	0.531726
H85	H	1.889991	-0.001355	0.531727
H86	H	1.770868	0.070467	0.300423
H87	H	1.830518	-0.013409	0.300393
H88	H	1.683575	-0.674231	-0.000132
H89	H	1.272153	-0.500424	-0.000130
H90	H	1.278912	-0.246289	-0.000120
H91	H	1.044703	0.291908	0.101809
H92	H	1.282705	-0.103043	-0.000107
H93	H	1.637942	-0.053472	0.624087
H94	H	1.763777	0.014469	0.618141
