data_functionalizedCrystal
_audit_creation_method	'MofGen! by Chris Wilmer'
_symmetry_space_group_name_H-M	'P1'
_symmetry_Int_Tables_number	1
_symmetry_cell_setting	triclinic
loop_
_symmetry_equiv_pos_as_xyz
  x,y,z
_cell_length_a	10.685969
_cell_length_b	10.685741
_cell_length_c	10.686551
_cell_angle_alpha	89.636396
_cell_angle_beta	90.351934
_cell_angle_gamma	99.045477
loop_
_atom_site_label
_atom_site_type_symbol
_atom_site_fract_x
_atom_site_fract_y
_atom_site_fract_z
Zn1	Zn	-2.022474	-0.610788	-0.605030
Zn2	Zn	-1.522474	-0.110788	-0.105030
Zn3	Zn	-2.024851	-0.836885	-0.411205
Zn4	Zn	-1.524851	-0.336885	0.088795
Zn5	Zn	-1.796405	-0.608406	-0.411224
Zn6	Zn	-1.296405	-0.108406	0.088776
Zn7	Zn	-1.828631	-0.804598	-0.634746
Zn8	Zn	-1.328631	-0.304598	-0.134746
O9	O	-1.918090	-0.715169	-0.515551
O10	O	-1.418090	-0.215169	-0.015551
O11	O	-2.199519	-0.655289	-0.566874
O12	O	-1.699519	-0.155289	-0.066874
O13	O	-1.982055	-0.819092	-0.236546
O14	O	-1.482055	-0.319092	0.263454
O15	O	-1.811913	-0.431993	-0.424505
O16	O	-1.311913	0.068007	0.075495
O17	O	-2.201265	-0.821401	-0.424471
O18	O	-1.701265	-0.321401	0.075529
O19	O	-1.978005	-0.433743	-0.566893
O20	O	-1.478005	0.066257	-0.066893
O21	O	-1.814217	-0.651230	-0.236561
O22	O	-1.314217	-0.151230	0.263439
O23	O	-1.623951	-0.619923	-0.453319
O24	O	-1.123951	-0.119923	0.046681
O25	O	-1.866837	-0.766374	-0.805465
O26	O	-1.366837	-0.266374	-0.305465
O27	O	-1.647627	-0.764064	-0.617540
O28	O	-1.147627	-0.264064	-0.117540
O29	O	-2.009253	-0.623982	-0.783633
O30	O	-1.509253	-0.123982	-0.283633
O31	O	-2.013303	-1.009331	-0.453286
O32	O	-1.513303	-0.509331	0.046714
O33	O	-1.869141	-0.985611	-0.617521
O34	O	-1.369141	-0.485611	-0.117521
C35	C	-1.589965	-0.688233	-0.538657
C36	C	-1.089965	-0.188233	-0.038657
C37	C	-1.449597	-0.676737	-0.548574
C38	C	-0.949597	-0.176737	-0.048574
C39	C	-1.945013	-1.043296	-0.538651
C40	C	-1.445013	-0.543296	-0.038651
C41	C	-1.956649	-1.183676	-0.548567
C42	C	-1.456649	-0.683676	-0.048567
C43	C	-1.941375	-0.691842	-0.841103
C44	C	-1.441375	-0.191842	-0.341103
C45	C	-1.951297	-0.681902	-0.979833
C46	C	-1.451297	-0.181902	-0.479833
C47	C	-1.247495	-0.742201	-0.492341
C48	C	-0.747495	-0.242201	0.007659
C49	C	-1.387862	-0.753692	-0.482411
C50	C	-0.887862	-0.253692	0.017589
C51	C	-1.891099	-0.385762	-0.492386
C52	C	-1.391099	0.114238	0.007614
C53	C	-1.879597	-0.245389	-0.482514
C54	C	-1.379597	0.254611	0.017486
C55	C	-1.894962	-0.738320	-0.191254
C56	C	-1.394962	-0.238320	0.308746
C57	C	-1.885255	-0.747925	-0.052482
C58	C	-1.385255	-0.247925	0.447518
H59	H	-1.395064	-0.602061	-0.612812
H60	H	-0.895064	-0.102061	-0.112812
H61	H	-1.442403	-0.828383	-0.418180
H62	H	-0.942403	-0.328383	0.081820
N63	N	-2.055701	-0.255929	-0.633472
N64	N	-1.555701	0.244071	-0.133472
H65	H	-2.050158	-0.349329	-0.628723
H66	H	-1.550158	0.150671	-0.128723
H67	H	-2.040560	-0.224941	-0.722400
H68	H	-1.540560	0.275059	-0.222400
H69	H	-1.804827	-0.190829	-0.418403
H70	H	-1.304827	0.309171	0.081597
H71	H	-1.821126	-0.812060	-1.008547
H72	H	-1.321126	-0.312060	-0.508547
H73	H	-2.015439	-0.617773	-1.023775
H74	H	-1.515439	-0.117773	-0.523775
