data_functionalizedCrystal
_audit_creation_method	'MofGen! by Chris Wilmer'
_symmetry_space_group_name_H-M	'P1'
_symmetry_Int_Tables_number	1
_symmetry_cell_setting	triclinic
loop_
_symmetry_equiv_pos_as_xyz
  x,y,z
_cell_length_a	16.704494
_cell_length_b	21.606444
_cell_length_c	21.606444
_cell_angle_alpha	120.001380
_cell_angle_beta	89.998038
_cell_angle_gamma	56.634190
loop_
_atom_site_label
_atom_site_type_symbol
_atom_site_fract_x
_atom_site_fract_y
_atom_site_fract_z
Zr1	Zr	0.815227	0.612737	0.048865
O2	O	0.680109	0.752585	0.153056
O3	O	0.856643	0.480331	0.016925
O4	O	0.856641	0.609454	0.146048
O5	O	0.680118	0.623456	-0.077921
O6	O	0.995897	0.598401	0.140520
O7	O	0.680111	0.623461	0.023933
O8	O	0.995901	0.367422	-0.090458
O9	O	0.680114	0.854434	0.153057
O10	O	0.978237	0.523787	-0.000823
O11	O	0.874317	0.532032	-0.072710
O12	O	0.874315	0.684058	0.079316
O13	O	0.770394	0.692304	0.007429
Zr14	Zr	1.037336	0.595100	-0.122397
Zr15	Zr	1.037325	0.595108	0.040049
Zr16	Zr	0.815238	0.612730	-0.113581
Zr17	Zr	0.815235	0.775176	0.048866
Zr18	Zr	1.037327	0.432661	-0.122398
O19	O	0.995919	0.727507	-0.090457
O20	O	0.995904	0.727518	0.140521
O21	O	0.680125	0.752573	-0.077921
O22	O	1.172453	0.455253	-0.226588
O23	O	1.172438	0.455264	0.004389
O24	O	0.856659	0.480320	-0.214053
O25	O	1.172444	0.584381	0.004389
O26	O	0.995922	0.598383	-0.219580
O27	O	0.856665	0.609437	-0.214052
O28	O	1.172451	0.584376	-0.097465
O29	O	0.856653	0.840421	0.146049
O30	O	0.995910	0.367416	-0.219581
O31	O	1.172448	0.353403	-0.226589
O32	O	1.172439	0.353409	-0.097466
O33	O	0.680123	0.854428	0.023934
O34	O	0.856661	0.840415	0.016926
O35	O	0.978248	0.523779	-0.152848
O36	O	1.082168	0.515534	-0.080961
O37	O	0.978245	0.675805	-0.000822
O38	O	0.874325	0.684051	-0.072709
C39	C	0.926271	0.400733	-0.036767
C40	C	0.926267	0.331773	-0.036767
C41	C	0.980542	-0.095842	0.000758
C42	C	0.980534	-0.031041	0.000761
C43	C	0.926286	0.005660	-0.036763
C44	C	0.872032	-0.022435	-0.074287
C45	C	0.872034	-0.087230	-0.074286
C46	C	0.872021	0.238876	-0.074294
C47	C	0.872026	0.303674	-0.074295
C48	C	0.980521	0.295066	0.000753
C49	C	0.980523	0.230271	0.000754
C50	C	0.926266	0.202184	-0.036766
C51	C	0.926273	0.131921	-0.036768
C52	C	0.926284	0.075918	-0.036767
C53	C	0.648471	0.625971	-0.025738
C54	C	0.554184	0.633455	-0.021995
C55	C	0.485514	0.480180	-0.098645
C56	C	0.396926	0.487207	-0.095131
C57	C	0.288420	0.654537	-0.011456
C58	C	0.377008	0.647509	-0.014971
C59	C	0.475554	0.560328	-0.058566
C60	C	0.564142	0.553301	-0.062076
C61	C	0.455635	0.720630	0.021594
C62	C	0.367048	0.727657	0.025109
C63	C	1.204092	0.581867	-0.047794
C64	C	1.298378	0.574383	-0.051537
C65	C	0.926267	0.603929	0.166429
C66	C	0.926263	0.603932	0.235392
C67	C	0.926292	0.807105	-0.036765
C68	C	0.926295	0.876064	-0.036765
C69	C	0.872016	0.687592	0.309622
C70	C	0.872025	0.687588	0.374417
C71	C	0.926275	0.603925	0.364979
C72	C	0.980529	0.520259	0.290741
C73	C	0.980526	0.520263	0.225948
C74	C	0.980546	0.520242	0.552044
C75	C	0.980543	0.520245	0.616844
C76	C	0.872045	0.687568	0.700512
C77	C	0.872041	0.687572	0.635719
C78	C	0.926299	0.603906	0.561486
C79	C	0.926291	0.603910	0.491229
C80	C	0.926279	0.603920	0.435235
C81	C	0.926295	0.603909	0.760039
C82	C	0.926301	0.603906	0.691076
C83	C	1.204081	0.378681	-0.047795
C84	C	1.298364	0.302237	-0.051538
C85	C	0.926284	0.400723	-0.239962
C86	C	0.926286	0.331760	-0.308925
C87	C	1.204095	0.378671	-0.250990
C88	C	1.298383	0.302224	-0.323695
C89	C	0.648467	0.829166	0.177458
C90	C	0.554180	0.905613	0.250163
C91	C	0.648481	0.829157	-0.025737
C92	C	0.554198	0.905600	-0.021994
C93	C	0.926278	0.807115	0.166430
C94	C	0.926277	0.876078	0.235393
C95	C	1.288390	0.270646	-0.011457
C96	C	1.376970	0.198829	-0.014959
C97	C	1.475524	0.158600	-0.058545
C98	C	1.485496	0.190197	-0.098627
C99	C	1.396917	0.262017	-0.095121
C100	C	0.980537	0.295066	-0.383148
C101	C	0.980534	0.230278	-0.447952
C102	C	0.926285	0.202179	-0.438531
C103	C	0.872027	0.238880	-0.364299
C104	C	0.872025	0.303672	-0.299497
C105	C	1.396916	0.262019	-0.320315
C106	C	1.485517	0.190197	-0.388623
C107	C	1.475584	0.158578	-0.460312
C108	C	1.377040	0.198790	-0.463691
C109	C	1.288441	0.270615	-0.395383
C110	C	0.455647	0.945827	0.246783
C111	C	0.367045	1.017668	0.315091
C112	C	0.376979	1.049291	0.386780
C113	C	0.475522	1.009075	0.390159
C114	C	0.564122	0.937239	0.321851
C115	C	0.564173	0.937198	-0.062068
C116	C	0.475592	1.009033	-0.058549
C117	C	0.377039	1.049265	-0.014960
C118	C	0.367066	1.017665	0.025119
C119	C	0.455645	0.945835	0.021603
C120	C	0.980536	0.904155	0.225947
C121	C	0.980555	0.968943	0.290737
C122	C	0.926308	1.005657	0.364974
C123	C	0.872048	0.977573	0.374418
C124	C	0.872035	0.912782	0.309628
H125	H	0.827859	-0.110101	-0.104839
H126	H	0.447509	0.920111	0.054235
H127	H	0.304827	1.107785	0.442395
F128	F	0.926329	1.074616	0.433923
F129	F	0.814283	0.342734	-0.114235
H130	H	0.644380	0.482313	-0.097578
H131	H	0.304920	1.107753	-0.012104
F132	F	0.590394	0.387396	-0.145033
H133	H	1.024697	0.317944	0.031307
H134	H	0.447531	0.785892	0.054232
F135	F	0.814285	0.342714	-0.220504
F136	F	1.038277	0.865092	0.146944
H137	H	0.286812	1.050432	0.060608
F138	F	0.445051	0.912183	0.170493
F139	F	0.814310	1.016662	0.453433
H140	H	0.827853	0.755712	0.434856
F141	F	1.366335	0.165212	0.027701
H142	H	0.286815	1.050401	0.312325
F143	F	1.038304	0.998823	0.280670
F144	F	1.366484	0.165128	-0.539994
F145	F	0.814296	0.208965	-0.354285
H146	H	0.827846	0.889929	0.317330
H147	H	0.208173	0.725516	0.024026
F148	F	1.038290	-0.134904	0.040691
H149	H	0.286802	0.798638	0.060599
H150	H	0.827831	0.755721	0.317316
F151	F	1.407512	0.295661	-0.244025
F152	F	1.590384	0.147410	-0.385011
H153	H	1.208150	0.303401	0.024045
F154	F	1.038284	0.324956	-0.393193
F155	F	0.814280	0.208989	-0.114230
H156	H	0.483732	1.034750	-0.091189
H157	H	1.547735	0.100092	-0.515927
H158	H	1.547642	0.100119	-0.061395
H159	H	1.405053	0.287729	-0.127764
H160	H	1.024699	0.452138	0.165506
F161	F	0.814288	0.776619	0.645769
F162	F	0.486078	1.042739	0.466462
F163	F	0.669053	0.894394	-0.108462
F164	F	1.038261	0.191215	0.040694
F165	F	1.038266	-0.001141	0.040702
H166	H	1.024721	0.200403	-0.508389
F167	F	1.038258	0.431200	0.473049
F168	F	0.407532	0.401903	-0.137791
H169	H	1.208214	0.303342	-0.398146
F170	F	0.668986	0.894443	0.325461
H171	H	0.827869	0.755693	0.760962
F172	F	0.814292	0.016631	-0.114220
H173	H	1.024724	0.452112	0.609152
H174	H	1.565751	0.157432	-0.134114
F175	F	1.038270	0.431218	0.280699
F176	F	0.926298	0.133219	-0.507508
