data_functionalizedCrystal
_audit_creation_method	'MofGen! by Chris Wilmer'
_symmetry_space_group_name_H-M	'P1'
_symmetry_Int_Tables_number	1
_symmetry_cell_setting	triclinic
loop_
_symmetry_equiv_pos_as_xyz
  x,y,z
_cell_length_a	16.959455
_cell_length_b	16.959453
_cell_length_c	12.759393
_cell_angle_alpha	89.964958
_cell_angle_beta	89.977038
_cell_angle_gamma	90.018936
loop_
_atom_site_label
_atom_site_type_symbol
_atom_site_fract_x
_atom_site_fract_y
_atom_site_fract_z
Zn1	Zn	1.208433	-0.314657	-0.594081
Zn2	Zn	1.208341	-0.446859	-0.418391
Zn3	Zn	1.076247	-0.314696	-0.418407
Zn4	Zn	1.076226	-0.446795	-0.594018
O5	O	1.142312	-0.380752	-0.506224
O6	O	1.319032	-0.332204	-0.570795
O7	O	1.190789	-0.429370	-0.271372
O8	O	1.093829	-0.204080	-0.441743
O9	O	1.318964	-0.429332	-0.441716
O10	O	1.190945	-0.204051	-0.570811
O11	O	1.093740	-0.332270	-0.271384
O12	O	0.965633	-0.332208	-0.441683
O13	O	1.093793	-0.429224	-0.741048
O14	O	0.965618	-0.429261	-0.570704
O15	O	1.190925	-0.332143	-0.741094
O16	O	1.190769	-0.557461	-0.441655
O17	O	1.093705	-0.557414	-0.570688
C18	C	0.936946	-0.380733	-0.506189
C19	C	0.849089	-0.380744	-0.506198
C20	C	1.142246	-0.586118	-0.506186
C21	C	1.142290	-0.673974	-0.506204
C22	C	0.807799	-0.330141	-0.439131
C23	C	0.807825	-0.431353	-0.573282
C24	C	0.725279	-0.431362	-0.573297
C25	C	0.683990	-0.380759	-0.506229
C26	C	0.725246	-0.330146	-0.439146
C27	C	0.684017	-0.481967	-0.640386
C28	C	0.601466	-0.481978	-0.640405
C29	C	0.560175	-0.431378	-0.573332
C30	C	0.601436	-0.380765	-0.506245
C31	C	0.560147	-0.330161	-0.439177
C32	C	0.601407	-0.279551	-0.372085
C33	C	0.683955	-0.279547	-0.372073
C34	C	0.477626	-0.431383	-0.573344
C35	C	0.477593	-0.330167	-0.439193
C36	C	1.192945	-1.045377	-0.573556
C37	C	1.091899	-1.045523	-0.439048
C38	C	1.091870	-0.962977	-0.439024
C39	C	1.142378	-0.921627	-0.506268
C40	C	1.192916	-0.962823	-0.573536
C41	C	1.041328	-0.921775	-0.371764
C42	C	1.041296	-0.839224	-0.371739
C43	C	1.091809	-0.797873	-0.438978
C44	C	1.142349	-0.839074	-0.506248
C45	C	1.192857	-0.797724	-0.573493
C46	C	1.243402	-0.838923	-0.640758
C47	C	1.243428	-0.921472	-0.640776
C48	C	1.091782	-0.715325	-0.438960
C49	C	1.192828	-0.715170	-0.573473
C50	C	1.348480	-0.380771	-0.506260
C51	C	1.436337	-0.380779	-0.506276
C52	C	1.142367	-0.380672	-0.780258
C53	C	1.142391	-0.380638	-0.897034
C54	C	1.142400	-0.174583	-0.506286
C55	C	1.142437	-0.086727	-0.506312
C56	C	1.192974	-0.330083	-0.951922
C57	C	1.192993	-0.330054	-1.061646
C58	C	1.091843	-0.431143	-1.061585
C59	C	1.091821	-0.431167	-0.951863
C60	C	1.243544	-0.279554	-0.897093
C61	C	1.294133	-0.228996	-0.951981
C62	C	1.294151	-0.228967	-1.061705
C63	C	1.243582	-0.279497	-1.116542
C64	C	1.142302	-0.380774	-0.233257
C65	C	1.142432	-0.380585	-0.116481
H66	H	0.443981	-0.288961	-0.384576
H67	H	1.284579	-0.955024	-0.695541
F68	F	1.246738	-1.089223	-0.645138
H69	H	0.444036	-0.472584	-0.627976
F70	F	1.037983	-0.484972	-0.893444
F71	F	0.727963	-0.535829	-0.711745
H72	H	1.000205	-0.955449	-0.317021
H73	H	1.233961	-0.681508	-0.628227
F74	F	0.557454	-0.225692	-0.300716
H75	H	0.717556	-0.238342	-0.317450
F76	F	1.038029	-0.484918	-1.119949
H77	H	1.000141	-0.805685	-0.316967
F78	F	1.038139	-1.089533	-0.367499
H79	H	1.243592	-0.279461	-1.205887
F80	F	1.347939	-0.175211	-0.893620
H81	H	1.284522	-0.805247	-0.695514
H82	H	0.841448	-0.472548	-0.627890
F83	F	0.851711	-0.276282	-0.367727
H84	H	1.050625	-0.681784	-0.384198
F85	F	0.557561	-0.535843	-0.711808
F86	F	1.243531	-0.279583	-0.780316
F87	F	1.347991	-0.175160	-1.120118
