data_functionalizedCrystal
_audit_creation_method	'MofGen! by Chris Wilmer'
_symmetry_space_group_name_H-M	'P1'
_symmetry_Int_Tables_number	1
_symmetry_cell_setting	triclinic
loop_
_symmetry_equiv_pos_as_xyz
  x,y,z
_cell_length_a	11.169417
_cell_length_b	11.169416
_cell_length_c	11.169417
_cell_angle_alpha	89.993855
_cell_angle_beta	89.999137
_cell_angle_gamma	90.011219
loop_
_atom_site_label
_atom_site_type_symbol
_atom_site_fract_x
_atom_site_fract_y
_atom_site_fract_z
Zn1	Zn	-1.834738	0.477975	0.678554
Zn2	Zn	-1.834693	0.678629	0.477877
Zn3	Zn	-1.634090	0.477961	0.477889
Zn4	Zn	-1.634031	0.678618	0.678521
O5	O	-1.734388	0.578296	0.578210
O6	O	-2.002682	0.504602	0.651943
O7	O	-1.808089	0.652009	0.309929
O8	O	-1.660750	0.310013	0.504527
O9	O	-2.002649	0.652022	0.504506
O10	O	-1.808164	0.310023	0.651955
O11	O	-1.660707	0.504579	0.309938
O12	O	-1.466133	0.504568	0.504495
O13	O	-1.660649	0.652003	0.846475
O14	O	-1.466089	0.651990	0.651898
O15	O	-1.808107	0.504591	0.846500
O16	O	-1.808032	0.846577	0.504473
O17	O	-1.660606	0.846569	0.651886
C18	C	-1.422563	0.578277	0.578195
C19	C	-1.289163	0.578298	0.578217
C20	C	-1.734341	0.890120	0.578201
C21	C	-1.734430	1.023520	0.578237
C22	C	-1.734377	0.578297	0.891253
C23	C	-1.734372	0.578298	1.024653
C24	C	-2.047430	0.578315	0.578226
C25	C	-2.180830	0.578323	0.578233
C26	C	-1.734469	0.265253	0.578246
C27	C	-1.734503	0.131853	0.578261
C28	C	-1.734385	0.578316	1.266386
C29	C	-1.734375	0.578300	1.132986
