data_functionalizedCrystal
_audit_creation_method	'MofGen! by Chris Wilmer'
_symmetry_space_group_name_H-M	'P1'
_symmetry_Int_Tables_number	1
_symmetry_cell_setting	triclinic
loop_
_symmetry_equiv_pos_as_xyz
  x,y,z
_cell_length_a	17.077404
_cell_length_b	17.077402
_cell_length_c	17.077396
_cell_angle_alpha	89.970216
_cell_angle_beta	89.979055
_cell_angle_gamma	90.016362
loop_
_atom_site_label
_atom_site_type_symbol
_atom_site_fract_x
_atom_site_fract_y
_atom_site_fract_z
Zn1	Zn	-1.200055	0.312645	0.443866
Zn2	Zn	-0.700055	0.812645	0.943866
Zn3	Zn	-1.199962	0.443920	0.312597
Zn4	Zn	-0.699962	0.943920	0.812597
Zn5	Zn	-1.068786	0.312657	0.312610
Zn6	Zn	-0.568786	0.812657	0.812610
Zn7	Zn	-1.068754	0.443858	0.443817
Zn8	Zn	-0.568754	0.943858	0.943817
O9	O	-1.134389	0.378270	0.378223
O10	O	-0.634389	0.878270	0.878223
O11	O	-1.309889	0.330079	0.426467
O12	O	-0.809889	0.830079	0.926467
O13	O	-1.182536	0.426538	0.202752
O14	O	-0.682536	0.926538	0.702752
O15	O	-1.086252	0.202808	0.330048
O16	O	-0.586252	0.702808	0.830048
O17	O	-1.309821	0.426527	0.330025
O18	O	-0.809821	0.926527	0.830025
O19	O	-1.182694	0.202799	0.426481
O20	O	-0.682694	0.702799	0.926481
O21	O	-1.086162	0.330100	0.202762
O22	O	-0.586162	0.830100	0.702762
O23	O	-0.958935	0.330040	0.330001
O24	O	-0.458935	0.830040	0.830001
O25	O	-1.086197	0.426421	0.553671
O26	O	-0.586197	0.926421	1.053671
O27	O	-0.958912	0.426433	0.426398
O28	O	-0.458912	0.926433	0.926398
O29	O	-1.182663	0.330019	0.553706
O30	O	-0.682663	0.830019	1.053706
O31	O	-1.182504	0.553758	0.329977
O32	O	-0.682504	1.053758	0.829977
O33	O	-1.086107	0.553713	0.426384
O34	O	-0.586107	1.053713	0.926384
C35	C	-0.930441	0.378231	0.378196
C36	C	-0.430441	0.878231	0.878196
C37	C	-0.843192	0.378234	0.378203
C38	C	-0.343192	0.878234	0.878203
C39	C	-1.134314	0.582218	0.378191
C40	C	-0.634314	1.082218	0.878191
C41	C	-1.134353	0.669467	0.378204
C42	C	-0.634353	1.169467	0.878204
C43	C	-0.467386	0.428551	0.428346
C44	C	0.032614	0.928551	0.928346
C45	C	-0.549366	0.428544	0.428336
C46	C	-0.049366	0.928544	0.928336
C47	C	-0.590343	0.378272	0.378224
C48	C	-0.090343	0.878272	0.878224
C49	C	-0.549335	0.328011	0.328113
C50	C	-0.049335	0.828011	0.828113
C51	C	-0.467356	0.328023	0.328120
C52	C	0.032644	0.828023	0.828120
C53	C	-0.720205	0.327988	0.328104
C54	C	-0.220205	0.827988	0.828104
C55	C	-0.802189	0.327974	0.328098
C56	C	-0.302189	0.827974	0.828098
C57	C	-0.802215	0.428509	0.428320
C58	C	-0.302215	0.928509	0.928320
C59	C	-0.720236	0.428521	0.428327
C60	C	-0.220236	0.928521	0.928327
C61	C	-0.679234	0.378258	0.378217
C62	C	-0.179234	0.878258	0.878217
C63	C	-0.339134	0.378300	0.378245
C64	C	0.160866	0.878300	0.878245
C65	C	-0.426383	0.378292	0.378241
C66	C	0.073617	0.878292	0.878241
C67	C	-1.134437	0.378212	0.582967
C68	C	-0.634437	0.878212	1.082967
C69	C	-1.134457	0.378187	0.670217
C70	C	-0.634457	0.878187	1.170217
C71	C	-1.134487	0.173525	0.378271
C72	C	-0.634487	0.673525	0.878271
C73	C	-1.134528	0.086276	0.378292
C74	C	-0.634528	0.586276	0.878292
C75	C	-1.184598	0.710455	0.328059
C76	C	-0.684598	1.210455	0.828059
C77	C	-1.184637	0.792436	0.328079
C78	C	-0.684637	1.292436	0.828079
C79	C	-1.134425	0.833427	0.378241
C80	C	-0.634425	1.333427	0.878241
C81	C	-1.084178	0.792433	0.428391
C82	C	-0.584178	1.292433	0.928391
C83	C	-1.084144	0.710454	0.428375
C84	C	-0.584144	1.210454	0.928375
C85	C	-1.084250	0.963303	0.428421
C86	C	-0.584250	1.463303	0.928421
C87	C	-1.084283	1.045288	0.428437
C88	C	-0.584283	1.545288	0.928437
C89	C	-1.184743	1.045285	0.328125
C90	C	-0.684743	1.545285	0.828125
C91	C	-1.184709	0.963306	0.328109
C92	C	-0.684709	1.463306	0.828109
C93	C	-1.134461	0.922318	0.378259
C94	C	-0.634461	1.422318	0.878259
C95	C	-1.134387	0.378271	0.174275
C96	C	-0.634387	0.878271	0.674275
C97	C	-1.134519	0.378074	0.087025
C98	C	-0.634519	0.878074	0.587025
C99	C	-1.184689	0.327987	0.711227
C100	C	-0.684689	0.827987	1.211227
C101	C	-1.184698	0.327961	0.793207
C102	C	-0.684698	0.827961	1.293207
C103	C	-1.134479	0.378139	0.834176
C104	C	-0.634479	0.878139	1.334176
C105	C	-1.084242	0.428342	0.793160
C106	C	-0.584242	0.928342	1.293160
C107	C	-1.084229	0.428364	0.711181
C108	C	-0.584229	0.928364	1.211181
C109	C	-1.084274	0.428295	0.964031
C110	C	-0.584274	0.928295	1.464031
C111	C	-1.084288	0.428275	1.046015
C112	C	-0.584288	0.928275	1.546015
C113	C	-1.184742	0.327892	1.046056
C114	C	-0.684742	0.827892	1.546056
C115	C	-1.184730	0.327913	0.964077
C116	C	-0.684730	0.827913	1.464077
C117	C	-1.134493	0.378117	0.923067
C118	C	-0.634493	0.878117	1.423067
H119	H	-0.434028	0.469484	0.469158
H120	H	0.065972	0.969484	0.969158
H121	H	-1.225483	0.677086	0.287208
H122	H	-0.725483	1.177086	0.787208
C123	C	-1.239933	0.272784	0.666169
C124	C	-0.739933	0.772784	1.166169
N125	N	-1.281543	0.231201	0.632233
N126	N	-0.781543	0.731201	1.132233
C127	C	-1.028993	0.483532	0.838229
C128	C	-0.528993	0.983532	1.338229
N129	N	-0.987378	0.525102	0.872174
N130	N	-0.487378	1.025102	1.372174
H131	H	-1.225626	0.287058	0.930723
H132	H	-0.725626	0.787058	1.430723
C133	C	-1.029040	0.483469	1.091080
C134	C	-0.529040	0.983469	1.591080
N135	N	-0.987425	0.525041	1.125022
N136	N	-0.487425	1.025041	1.625022
C137	C	-1.239932	0.918217	0.272916
C138	C	-0.739932	1.418217	0.772916
N139	N	-1.281525	0.884256	0.231341
N140	N	-0.781525	1.384256	0.731341
C141	C	-1.240002	0.272666	1.091169
C142	C	-0.740002	0.772666	1.591169
N143	N	-1.281625	0.231075	1.125152
N144	N	-0.781625	0.731075	1.625152
C145	C	-0.594412	0.272705	0.272995
C146	C	-0.094412	0.772705	0.772995
N147	N	-0.628364	0.231044	0.231484
N148	N	-0.128364	0.731044	0.731484
H149	H	-1.225551	0.825804	0.287245
H150	H	-0.725551	1.325804	0.787245
C151	C	-1.028942	0.837526	0.483568
C152	C	-0.528942	1.337526	0.983568
N153	N	-0.987333	0.871490	0.525124
N154	N	-0.487333	1.371490	1.025124
H155	H	-0.582746	0.469472	0.469135
H156	H	-0.082746	0.969472	0.969135
C157	C	-0.422254	0.272731	0.273002
C158	C	0.077746	0.772731	0.773002
N159	N	-0.388284	0.231085	0.231485
N160	N	0.111716	0.731085	0.731485
C161	C	-1.240024	1.090373	0.272966
C162	C	-0.740024	1.590373	0.772966
N163	N	-1.281660	1.124337	0.231422
N164	N	-0.781660	1.624337	0.731422
H165	H	-1.043411	1.078661	0.469298
H166	H	-0.543411	1.578661	0.969298
C167	C	-0.675163	0.483829	0.483446
C168	C	-0.175163	0.983829	0.983446
N169	N	-0.641214	0.525493	0.524958
N170	N	-0.141214	1.025493	1.024958
C171	C	-1.028870	0.665368	0.483539
C172	C	-0.528870	1.165368	0.983539
N173	N	-0.987238	0.631410	0.525092
N174	N	-0.487238	1.131410	1.025092
C175	C	-1.239958	0.272737	0.838315
C176	C	-0.739958	0.772737	1.338315
N177	N	-1.281582	0.231141	0.872289
N178	N	-0.781582	0.731141	1.372289
H179	H	-1.043335	0.929933	0.469261
H180	H	-0.543335	1.429933	0.969261
H181	H	-0.835603	0.469433	0.469123
H182	H	-0.335603	0.969433	0.969123
H183	H	-1.043354	0.469164	0.930643
H184	H	-0.543354	0.969164	1.430643
C185	C	-1.028972	0.483589	0.666071
C186	C	-0.528972	0.983589	1.166071
N187	N	-0.987349	0.525186	0.632095
N188	N	-0.487349	1.025186	1.132095
H189	H	-0.686823	0.287057	0.287300
H190	H	-0.186823	0.787057	0.787300
C191	C	-0.847262	0.272680	0.272965
C192	C	-0.347262	0.772680	0.772965
N193	N	-0.881211	0.231033	0.231436
N194	N	-0.381211	0.731033	0.731436
