data_functionalizedCrystal
_audit_creation_method	'MofGen! by Chris Wilmer'
_symmetry_space_group_name_H-M	'P1'
_symmetry_Int_Tables_number	1
_symmetry_cell_setting	triclinic
loop_
_symmetry_equiv_pos_as_xyz
  x,y,z
_cell_length_a	16.625548
_cell_length_b	12.645330
_cell_length_c	16.625539
_cell_angle_alpha	90.024251
_cell_angle_beta	90.020568
_cell_angle_gamma	90.018760
loop_
_atom_site_label
_atom_site_type_symbol
_atom_site_fract_x
_atom_site_fract_y
_atom_site_fract_z
Zn1	Zn	1.232707	-0.422007	0.455932
Zn2	Zn	1.566041	-0.088674	0.789265
Zn3	Zn	1.899374	0.244659	1.122599
Zn4	Zn	1.232622	-0.599293	0.321109
Zn5	Zn	1.565955	-0.265960	0.654442
Zn6	Zn	1.899288	0.067373	0.987776
Zn7	Zn	1.097869	-0.422048	0.321113
Zn8	Zn	1.431202	-0.088714	0.654446
Zn9	Zn	1.764536	0.244619	0.987779
Zn10	Zn	1.097851	-0.599232	0.455899
Zn11	Zn	1.431184	-0.265899	0.789232
Zn12	Zn	1.764517	0.067434	1.122565
O13	O	1.165262	-0.510645	0.388513
O14	O	1.498595	-0.177312	0.721846
O15	O	1.831929	0.156022	1.055180
O16	O	1.345528	-0.445533	0.438060
O17	O	1.678862	-0.112200	0.771393
O18	O	2.012195	0.221133	1.104727
O19	O	1.214718	-0.575824	0.208277
O20	O	1.548052	-0.242490	0.541610
O21	O	1.881385	0.090843	0.874944
O22	O	1.115799	-0.273695	0.339012
O23	O	1.449132	0.059638	0.672346
O24	O	1.782466	0.392972	1.005679
O25	O	1.345465	-0.575784	0.339006
O26	O	1.678799	-0.242451	0.672339
O27	O	2.012132	0.090882	1.005672
O28	O	1.214864	-0.273665	0.438064
O29	O	1.548197	0.059668	0.771397
O30	O	1.881531	0.393001	1.104730
O31	O	1.115716	-0.445602	0.208280
O32	O	1.449049	-0.112269	0.541613
O33	O	1.782383	0.221065	0.874946
O34	O	0.985034	-0.445543	0.338980
O35	O	1.318368	-0.112210	0.672313
O36	O	1.651701	0.221124	1.005647
O37	O	1.115768	-0.575681	0.568736
O38	O	1.449101	-0.242347	0.902069
O39	O	1.782434	0.090986	1.235402
O40	O	0.985021	-0.575720	0.438007
O41	O	1.318354	-0.242387	0.771340
O42	O	1.651687	0.090947	1.104673
O43	O	1.214846	-0.445474	0.568760
O44	O	1.548180	-0.112141	0.902093
O45	O	1.881513	0.221192	1.235427
O46	O	1.214701	-0.747632	0.338973
O47	O	1.548034	-0.414299	0.672307
O48	O	1.881367	-0.080966	1.005640
O49	O	1.115685	-0.747588	0.438003
O50	O	1.449018	-0.414254	0.771336
O51	O	1.782352	-0.080921	1.104670
C52	C	0.955771	-0.510630	0.388491
C53	C	1.289105	-0.177297	0.721824
C54	C	1.622438	0.156037	1.055157
C55	C	0.866150	-0.510649	0.388500
C56	C	1.199484	-0.177316	0.721833
C57	C	1.532817	0.156018	1.055167
C58	C	0.537975	-0.510656	0.388534
C59	C	0.871308	-0.177323	0.721868
C60	C	1.204641	0.156011	1.055201
C61	C	0.629283	-0.510651	0.388522
C62	C	0.962616	-0.177318	0.721856
C63	C	1.295950	0.156016	1.055189
C64	C	0.702059	-0.510653	0.388517
C65	C	1.035393	-0.177320	0.721850
C66	C	1.368726	0.156014	1.055183
C67	C	0.793374	-0.510647	0.388506
C68	C	1.126707	-0.177314	0.721839
C69	C	1.460040	0.156020	1.055172
C70	C	1.165203	-0.786075	0.388502
C71	C	1.498537	-0.452742	0.721835
C72	C	1.831870	-0.119408	1.055168
C73	C	1.165252	-0.903905	0.388524
C74	C	1.498585	-0.570572	0.721857
C75	C	1.831919	-0.237238	1.055191
C76	C	1.103218	-1.071485	0.451015
C77	C	1.436551	-0.738152	0.784349
C78	C	1.769885	-0.404818	1.117682
C79	C	1.102901	-0.948925	0.450815
C80	C	1.436234	-0.615592	0.784148
C81	C	1.769567	-0.282259	1.117481
C82	C	1.142250	-0.948498	0.303549
C83	C	1.475584	-0.615165	0.636882
C84	C	1.808917	-0.281832	0.970215
C85	C	1.141872	-1.071097	0.303928
C86	C	1.475205	-0.737763	0.637261
C87	C	1.808538	-0.404430	0.970595
C88	C	1.250667	-1.070992	0.410318
C89	C	1.584000	-0.737659	0.743652
C90	C	1.917334	-0.404326	1.076985
C91	C	1.250144	-0.948386	0.412177
C92	C	1.583477	-0.615052	0.745510
C93	C	1.916810	-0.281719	1.078843
C94	C	1.375571	-0.510661	0.388536
C95	C	1.708904	-0.177328	0.721869
C96	C	2.042238	0.156006	1.055203
C97	C	1.465192	-0.510668	0.388546
C98	C	1.798525	-0.177335	0.721879
C99	C	2.131859	0.155999	1.055213
C100	C	1.165315	-0.510566	0.598822
C101	C	1.498648	-0.177233	0.932155
C102	C	1.831981	0.156101	1.265489
C103	C	1.165337	-0.510533	0.688443
C104	C	1.498670	-0.177199	1.021777
C105	C	1.832004	0.156134	1.355110
C106	C	1.165343	-0.234140	0.388542
C107	C	1.498677	0.099193	0.721875
C108	C	1.832010	0.432527	1.055209
C109	C	1.165378	-0.116310	0.388554
C110	C	1.498711	0.217024	0.721888
C111	C	1.832044	0.550357	1.055221
C112	C	1.165256	-0.510647	0.179022
C113	C	1.498590	-0.177314	0.512356
C114	C	1.831923	0.156019	0.845689
C115	C	1.165390	-0.510382	0.089402
C116	C	1.498724	-0.177049	0.422735
C117	C	1.832057	0.156284	0.756068
C118	C	1.165374	-0.510414	1.016619
C119	C	1.498707	-0.177080	1.349952
C120	C	1.832041	0.156253	1.683286
C121	C	1.165362	-0.510450	0.925311
C122	C	1.498695	-0.177117	1.258644
C123	C	1.832028	0.156216	1.591977
C124	C	1.165356	-0.510474	0.852534
C125	C	1.498689	-0.177141	1.185867
C126	C	1.832023	0.156193	1.519201
C127	C	1.165343	-0.510509	0.761220
C128	C	1.498676	-0.177175	1.094553
C129	C	1.832009	0.156158	1.427886
H130	H	1.117292	-0.918772	0.513823
H131	H	1.450625	-0.585439	0.847156
H132	H	1.783958	-0.252105	1.180490
H133	H	1.040384	-1.102387	0.436781
H134	H	1.373717	-0.769054	0.770114
H135	H	1.707050	-0.435720	1.103447
H136	H	1.039671	-0.919692	0.436396
H137	H	1.373004	-0.586359	0.769729
H138	H	1.706338	-0.253025	1.103062
Cl139	Cl	1.125226	-1.116899	0.548618
Cl140	Cl	1.458560	-0.783566	0.881952
Cl141	Cl	1.791893	-0.450232	1.215285
H142	H	1.080553	-0.917888	0.284778
H143	H	1.413886	-0.584555	0.618112
H144	H	1.747220	-0.251222	0.951445
Cl145	Cl	1.045613	-1.115401	0.275464
Cl146	Cl	1.378946	-0.782068	0.608797
Cl147	Cl	1.712280	-0.448734	0.942131
H148	H	1.185181	-1.100752	0.255803
H149	H	1.518515	-0.767419	0.589136
H150	H	1.851848	-0.434086	0.922469
H151	H	1.186089	-0.919338	0.255739
H152	H	1.519422	-0.586005	0.589072
H153	H	1.852756	-0.252672	0.922405
Cl154	Cl	1.283063	-1.118610	0.504361
Cl155	Cl	1.616396	-0.785277	0.837694
Cl156	Cl	1.949730	-0.451944	1.171027
H157	H	1.267490	-0.919236	0.474714
H158	H	1.600823	-0.585902	0.808047
H159	H	1.934157	-0.252569	1.141380
Cl160	Cl	1.325416	-0.901055	0.347058
Cl161	Cl	1.658749	-0.567722	0.680392
Cl162	Cl	1.992083	-0.234388	1.013725
Cl163	Cl	1.322171	-1.115766	0.340095
Cl164	Cl	1.655504	-0.782433	0.673428
Cl165	Cl	1.988838	-0.449100	1.006761
