data_functionalizedCrystal
_audit_creation_method	'MofGen! by Chris Wilmer'
_symmetry_space_group_name_H-M	'P1'
_symmetry_Int_Tables_number	1
_symmetry_cell_setting	triclinic
loop_
_symmetry_equiv_pos_as_xyz
  x,y,z
_cell_length_a	13.033293
_cell_length_b	13.032721
_cell_length_c	17.077396
_cell_angle_alpha	82.846305
_cell_angle_beta	97.208897
_cell_angle_gamma	105.184121
loop_
_atom_site_label
_atom_site_type_symbol
_atom_site_fract_x
_atom_site_fract_y
_atom_site_fract_z
Zn1	Zn	1.570203	-0.216826	0.614575
Zn2	Zn	1.547521	-0.394470	0.498085
Zn3	Zn	1.392568	-0.239399	0.468501
Zn4	Zn	1.369981	-0.416932	0.614485
O5	O	1.470068	-0.316907	0.548912
O6	O	1.715836	-0.221543	0.611542
O7	O	1.526927	-0.373945	0.384314
O8	O	1.435076	-0.087762	0.475535
O9	O	1.699172	-0.352057	0.525957
O10	O	1.565584	-0.071178	0.582855
O11	O	1.413083	-0.260016	0.362579
O12	O	1.240930	-0.281796	0.475447
O13	O	1.396581	-0.390341	0.724343
O14	O	1.224336	-0.412229	0.582701
O15	O	1.543683	-0.243324	0.724410
O16	O	1.505026	-0.546092	0.525869
O17	O	1.374588	-0.562595	0.611387
C18	C	1.194091	-0.351900	0.525855
C19	C	1.076024	-0.366897	0.516011
C20	C	1.031618	-0.309107	0.554051
C21	C	0.909589	-0.324604	0.543879
C22	C	1.434923	-0.592881	0.571848
C23	C	1.419986	-0.710932	0.581695
C24	C	1.477921	-0.755355	0.543813
C25	C	1.462483	-0.877366	0.553989
C26	C	1.747123	-0.281777	0.572059
C27	C	1.865187	-0.266807	0.581923
C28	C	1.470143	-0.316820	0.753655
C29	C	1.470174	-0.316783	0.840904
C30	C	1.505379	-0.039851	0.525905
C31	C	1.520427	0.078214	0.516101
C32	C	1.470065	-0.316908	0.344964
C33	C	1.470277	-0.316620	0.257707
C34	C	1.546773	-0.240226	0.881930
C35	C	1.546790	-0.240189	0.963909
C36	C	1.470212	-0.316715	1.004861
C37	C	1.393606	-0.393277	0.963829
C38	C	1.393585	-0.393308	0.881851
C39	C	1.393656	-0.393207	1.134697
C40	C	1.393678	-0.393177	1.216681
C41	C	1.546862	-0.240088	1.216755
C42	C	1.546841	-0.240119	1.134777
C43	C	1.470235	-0.316683	1.093751
H44	H	0.857269	-0.385556	0.503776
H45	H	1.331200	-0.455640	0.848447
H46	H	1.331320	-0.455490	1.250022
H47	H	1.401454	-0.929658	0.593961
C48	C	1.158422	-0.278779	0.668789
C49	C	1.102243	-0.226826	0.608186
H50	H	1.202016	-0.227981	0.702213
H51	H	1.202089	-0.313017	0.646238
H52	H	1.109257	-0.330563	0.699025
H53	H	1.151408	-0.175048	0.577946
H54	H	1.058572	-0.192571	0.630739
C55	C	1.389470	-0.837604	0.696368
C56	C	1.337596	-0.781520	0.635651
H57	H	1.338602	-0.881185	0.729675
H58	H	1.441159	-0.788397	0.726694
H59	H	1.423815	-0.881280	0.673910
H60	H	1.303257	-0.737838	0.658108
H61	H	1.285887	-0.830733	0.605320
C62	C	0.991981	-0.236469	0.696668
C63	C	0.935802	-0.184520	0.636063
H64	H	1.035569	-0.185669	0.730093
H65	H	1.035654	-0.270703	0.674120
H66	H	0.942816	-0.288256	0.726903
H67	H	0.984967	-0.132739	0.605824
H68	H	0.892125	-0.150269	0.658613
H69	H	1.538955	-0.703061	0.503849
C70	C	1.704660	-0.864483	0.490145
C71	C	1.602824	-0.851202	0.462144
H72	H	1.755526	-0.820901	0.456837
H73	H	1.705087	-0.937209	0.489899
H74	H	1.722435	-0.844328	0.542686
H75	H	1.585045	-0.871365	0.409605
H76	H	1.602394	-0.778461	0.462382
H77	H	1.331261	-0.455539	1.101294
H78	H	1.609135	-0.177912	0.848593
C79	C	1.698215	-0.088886	0.955750
C80	C	1.630997	-0.156040	1.009005
H81	H	1.750206	-0.036939	0.983593
H82	H	1.657110	-0.054133	0.916535
H83	H	1.732928	-0.130045	0.931014
H84	H	1.596277	-0.114882	1.033736
H85	H	1.672107	-0.190796	1.048235
C86	C	1.614894	-0.172029	1.342445
C87	C	1.631054	-0.155911	1.261845
H88	H	1.666865	-0.120058	1.370281
H89	H	1.621359	-0.241407	1.363108
H90	H	1.545502	-0.165534	1.348607
H91	H	1.700444	-0.162414	1.255682
H92	H	1.624599	-0.086515	1.241175
C93	C	1.242185	-0.544598	0.955515
C94	C	1.309427	-0.477397	1.008841
H95	H	1.190214	-0.596528	0.983304
H96	H	1.283277	-0.579370	0.930784
H97	H	1.207449	-0.503469	0.916300
H98	H	1.344170	-0.518525	1.048053
H99	H	1.268329	-0.442622	1.033585
C100	C	0.898183	-0.448611	0.462284
C101	C	1.005399	-0.449183	0.461881
H102	H	0.854585	-0.499419	0.428869
H103	H	0.889137	-0.379520	0.443444
H104	H	0.878110	-0.466525	0.514813
H105	H	1.025474	-0.431261	0.409353
H106	H	1.014450	-0.518290	0.480718
H107	H	1.609203	-0.177810	1.101437
