data_functionalizedCrystal
_audit_creation_method	'MofGen! by Chris Wilmer'
_symmetry_space_group_name_H-M	'P1'
_symmetry_Int_Tables_number	1
_symmetry_cell_setting	triclinic
loop_
_symmetry_equiv_pos_as_xyz
  x,y,z
_cell_length_a	19.902436
_cell_length_b	14.560432
_cell_length_c	14.560432
_cell_angle_alpha	120.006737
_cell_angle_beta	90.000769
_cell_angle_gamma	59.997739
loop_
_atom_site_label
_atom_site_type_symbol
_atom_site_fract_x
_atom_site_fract_y
_atom_site_fract_z
Zr1	Zr	0.647311	1.005243	0.120556
O2	O	0.540019	1.196877	0.267236
O3	O	0.680203	0.813622	0.075577
O4	O	0.680205	1.005241	0.267201
O5	O	0.540016	1.005255	-0.075530
O6	O	0.790783	1.005223	0.267189
O7	O	0.540018	1.005259	0.075612
O8	O	0.790781	0.662452	-0.075592
O9	O	0.540018	1.348026	0.267251
O10	O	0.776753	0.892420	0.056401
O11	O	0.694228	0.892430	-0.056385
O12	O	0.694229	1.118037	0.169228
O13	O	0.611704	1.118047	0.056442
Zr14	Zr	0.823668	1.005208	-0.120517
Zr15	Zr	0.823672	1.005214	0.120536
Zr16	Zr	0.647307	1.005237	-0.120497
Zr17	Zr	0.647309	1.246307	0.120580
Zr18	Zr	0.823670	0.764144	-0.120541
O19	O	0.790775	1.196829	-0.075538
O20	O	0.790781	1.196837	0.267208
O21	O	0.540014	1.196869	-0.075510
O22	O	0.930959	0.813573	-0.267197
O23	O	0.930965	0.813582	0.075549
O24	O	0.680198	0.813614	-0.267170
O25	O	0.930963	1.005196	0.075568
O26	O	0.790774	1.005210	-0.267163
O27	O	0.680195	1.005228	-0.267150
O28	O	0.930961	1.005192	-0.075573
O29	O	0.680201	1.348003	0.267236
O30	O	0.790778	0.662448	-0.267197
O31	O	0.930961	0.662425	-0.267213
O32	O	0.930964	0.662430	-0.075607
O33	O	0.540014	1.348021	0.075646
O34	O	0.680197	1.347998	0.075631
O35	O	0.776750	0.892414	-0.169189
O36	O	0.859275	0.892404	-0.056403
O37	O	0.776751	1.118021	0.056424
O38	O	0.694225	1.118031	-0.056362
C39	C	0.514889	1.005261	0.000044
C40	C	0.440020	1.005273	0.000052
C41	C	0.735493	0.703691	-0.000011
C42	C	0.735494	0.601353	-0.000021
C43	C	0.735495	1.005233	0.301540
C44	C	0.735496	1.005235	0.403874
C45	C	0.168018	1.005209	0.000009
C46	C	0.144450	1.147533	0.070841
C47	C	0.222288	1.147622	0.071234
C48	C	0.302961	1.005242	0.000030
C49	C	0.300551	0.934563	0.051911
C50	C	0.222324	0.935473	0.052435
C51	C	0.223308	0.932546	-0.122737
C52	C	0.300229	0.935220	-0.122548
C53	C	0.379228	1.005253	0.000042
C54	C	0.091753	1.005194	0.000001
C55	C	0.956089	1.005190	-0.000005
C56	C	1.030959	1.005178	-0.000013
C57	C	0.613637	0.575718	0.166619
C58	C	0.552718	0.707092	0.249883
C59	C	0.552723	0.803222	0.249850
C60	C	0.613651	0.767971	0.166541
C61	C	0.674571	0.636597	0.083277
C62	C	0.674561	0.540474	0.083321
C63	C	0.796413	0.469979	-0.083285
C64	C	0.796413	0.373847	-0.083249
C65	C	0.857342	0.434728	-0.166594
C66	C	0.918266	0.303352	-0.249856
C67	C	0.918259	0.207220	-0.249818
C68	C	0.857333	0.242473	-0.166513
C69	C	0.735486	1.306760	0.000050
C70	C	0.735485	1.409098	0.000060
C71	C	0.857333	1.005232	0.403885
C72	C	0.918248	1.005235	0.451967
C73	C	0.918247	1.005235	0.548117
C74	C	0.857325	1.005229	0.596185
C75	C	0.796410	1.005226	0.548102
C76	C	0.796416	1.005229	0.451952
C77	C	0.674578	1.005221	0.548086
C78	C	0.674574	1.005229	0.451941
C79	C	0.613656	1.005214	0.596154
C80	C	0.552736	1.005221	0.548076
C81	C	0.552739	1.005221	0.451921
C82	C	0.613659	1.005226	0.403858
C83	C	0.735487	1.005220	0.698500
C84	C	0.735493	1.005224	0.596169
C85	C	0.956093	0.703655	-0.000035
C86	C	1.030964	0.601305	-0.000054
C87	C	0.735488	0.703683	-0.301532
C88	C	0.735487	0.601343	-0.403875
C89	C	0.956088	0.703648	-0.301556
C90	C	1.030957	0.601295	-0.403908
C91	C	0.514891	1.306803	0.301595
C92	C	0.440022	1.409156	0.403947
C93	C	0.514886	1.306796	0.000074
C94	C	0.440015	1.409146	0.000093
C95	C	0.735491	1.306767	0.301571
C96	C	0.735492	1.409108	0.403914
C97	C	1.023048	0.553249	0.058830
C98	C	1.093390	0.457093	0.058835
C99	C	1.171647	0.408989	-0.000051
C100	C	1.179561	0.457055	-0.058937
C101	C	1.109220	0.553216	-0.058935
C102	C	1.109201	0.553224	-0.393101
C103	C	1.179555	0.457066	-0.489262
C104	C	1.171663	0.408975	-0.596230
C105	C	1.093411	0.457056	-0.607035
C106	C	1.023058	0.553218	-0.510875
C107	C	0.361778	1.457239	0.393139
C108	C	0.291424	1.553426	0.489301
C109	C	0.299316	1.601523	0.596269
C110	C	0.377568	1.553436	0.607074
C111	C	0.447920	1.457256	0.510914
C112	C	0.447931	1.457212	-0.058781
C113	C	0.377588	1.553394	-0.058760
C114	C	0.299331	1.601501	0.000130
C115	C	0.291418	1.553431	0.059011
C116	C	0.361759	1.457257	0.058996
C117	C	0.821649	0.601298	-0.521662
C118	C	0.864729	0.553194	-0.628632
C119	C	0.864725	0.457037	-0.724789
C120	C	0.821633	0.408986	-0.713971
C121	C	0.778553	0.457090	-0.607000
C122	C	0.778564	0.553245	-0.510848
C123	C	0.692387	0.457141	-0.489215
C124	C	0.692395	0.553291	-0.393057
C125	C	0.649295	0.409090	-0.478397
C126	C	0.606219	0.457187	-0.371425
C127	C	0.606226	0.553348	-0.275265
C128	C	0.649315	0.601395	-0.286086
H129	H	0.221009	1.203358	0.036706
F130	F	0.910585	0.604345	-0.640137
F131	F	0.353322	1.406105	0.121654
F132	F	0.531211	1.406033	-0.121461
F133	F	0.208124	1.604641	0.121679
H134	H	1.086997	0.417886	-0.694141
H135	H	0.242061	1.679812	0.000133
H136	H	0.857338	0.513008	-0.166619
H137	H	0.857329	0.164210	-0.166464
H138	H	0.511628	1.418108	0.519727
F139	F	0.857333	1.005208	0.698506
F140	F	0.386028	1.604533	-0.121436
F141	F	1.117619	0.604395	-0.279266
F142	F	1.262829	0.405908	-0.477739
F143	F	0.560367	0.604544	-0.161421
F144	F	0.092287	1.220192	0.188479
H145	H	0.959351	0.592346	-0.519690
H146	H	1.228955	0.330673	-0.674521
H147	H	0.355336	1.418084	0.306050
F148	F	0.385954	1.604634	0.720926
H149	H	0.613641	0.497452	0.166673
H150	H	0.227714	1.592563	0.480481
F151	F	0.224432	1.703886	0.698603
F152	F	0.821671	0.703616	-0.419328
F153	F	0.175842	0.992062	-0.179390
F154	F	0.983098	0.265851	-0.338515
F155	F	0.983096	0.067402	-0.338445
F156	F	0.910571	0.405846	-0.838638
H157	H	0.821625	0.330701	-0.792272
F158	F	0.302579	0.998724	0.168847
H159	H	0.649291	0.330800	-0.556697
H160	H	0.105283	1.203393	0.036221
F161	F	0.560357	0.406051	-0.359923
F162	F	0.613657	1.005206	0.698481
F163	F	0.487909	1.005203	0.599231
H164	H	0.649328	0.679686	-0.207798
H165	H	0.959334	0.592414	0.106796
H166	H	0.220514	1.203413	0.161778
H167	H	0.299851	0.986755	-0.161305
H168	H	0.503137	1.005212	0.412773
H169	H	0.613644	0.846252	0.166513
H170	H	0.857335	1.005247	0.325602
H171	H	0.185782	0.985703	0.142758
H172	H	0.967852	1.005236	0.412821
H173	H	0.241672	0.831052	0.004178
H174	H	0.357689	0.831346	-0.179765
F175	F	0.374809	0.797728	-0.012278
H176	H	0.243226	0.827703	-0.175762
H177	H	0.503110	0.735781	0.317709
H178	H	1.086931	0.417970	0.106787
F179	F	0.487884	0.943043	0.338464
F180	F	1.246505	0.306645	-0.000045
H181	H	0.613665	1.005234	0.325572
F182	F	1.262855	0.405843	-0.121607
F183	F	1.117657	0.604344	-0.121618
H184	H	0.967852	1.005231	0.587263
