data_functionalizedCrystal
_audit_creation_method	'MofGen! by Chris Wilmer'
_symmetry_space_group_name_H-M	'P1'
_symmetry_Int_Tables_number	1
_symmetry_cell_setting	triclinic
loop_
_symmetry_equiv_pos_as_xyz
  x,y,z
_cell_length_a	19.377372
_cell_length_b	23.196402
_cell_length_c	19.377372
_cell_angle_alpha	72.114419
_cell_angle_beta	86.408066
_cell_angle_gamma	72.113939
loop_
_atom_site_label
_atom_site_type_symbol
_atom_site_fract_x
_atom_site_fract_y
_atom_site_fract_z
Zr1	Zr	0.607304	0.759420	-0.172900
O2	O	0.523960	0.830407	-0.256244
O3	O	0.632852	0.654260	-0.147353
O4	O	0.652760	0.742334	-0.276152
O5	O	0.488351	0.767728	-0.025844
O6	O	0.754361	0.767729	-0.291851
O7	O	0.504052	0.742333	-0.127446
O8	O	0.718751	0.610181	-0.061455
O9	O	0.523962	0.925277	-0.256240
O10	O	0.719574	0.729123	-0.148170
O11	O	0.632033	0.729123	-0.060630
O12	O	0.655471	0.832818	-0.212273
O13	O	0.567929	0.832818	-0.124732
Zr14	Zr	0.744306	0.840425	-0.035895
Zr15	Zr	0.769347	0.799923	-0.197938
Zr16	Zr	0.582263	0.799922	-0.010856
Zr17	Zr	0.607308	0.910726	-0.172893
Zr18	Zr	0.744302	0.689119	-0.035901
O19	O	0.718758	0.945585	-0.061441
O20	O	0.754364	0.887997	-0.291846
O21	O	0.488354	0.887996	-0.025839
O22	O	0.827651	0.769437	0.047450
O23	O	0.863257	0.711849	-0.182955
O24	O	0.597246	0.711848	0.083052
O25	O	0.863259	0.832117	-0.182951
O26	O	0.698851	0.857511	0.067358
O27	O	0.597249	0.832116	0.083057
O28	O	0.847558	0.857511	-0.081348
O29	O	0.652764	0.957471	-0.276143
O30	O	0.698846	0.642374	0.067349
O31	O	0.827648	0.674568	0.047446
O32	O	0.847553	0.642375	-0.081357
O33	O	0.504057	0.957470	-0.127437
O34	O	0.632860	0.989664	-0.147340
O35	O	0.696139	0.767027	0.003479
O36	O	0.783681	0.767027	-0.084062
O37	O	0.719578	0.870722	-0.148165
O38	O	0.632036	0.870722	-0.060624
C39	C	0.675801	0.610663	-0.104405
C40	C	0.675799	0.546430	-0.104408
C41	C	0.721491	0.516257	-0.150105
C42	C	0.721497	0.455900	-0.150100
C43	C	0.675799	0.425722	-0.104405
C44	C	0.630105	0.455900	-0.058699
C45	C	0.630105	0.516254	-0.058700
C46	C	0.610375	0.345710	-0.099810
C47	C	0.610374	0.285359	-0.099814
C48	C	0.675799	0.239569	-0.104398
C49	C	0.741227	0.254141	-0.108993
C50	C	0.741227	0.314495	-0.108994
C51	C	0.675794	0.360278	-0.104399
C52	C	0.721501	0.143950	-0.150093
C53	C	0.721508	0.083589	-0.150082
C54	C	0.630109	0.083593	-0.058685
C55	C	0.630108	0.143950	-0.058692
C56	C	0.675803	0.174126	-0.104399
C57	C	0.473114	0.749260	-0.073077
C58	C	0.404322	0.732066	-0.062448
C59	C	0.010774	0.946148	-0.194793
C60	C	-0.053858	0.929977	-0.184795
C61	C	0.013071	0.821727	-0.117877
C62	C	0.077709	0.837890	-0.127866
C63	C	0.076554	0.900101	-0.166325
C64	C	0.143489	0.791843	-0.099399
C65	C	0.208122	0.808003	-0.109391
C66	C	0.206974	0.870211	-0.147850
C67	C	0.141187	0.916262	-0.176317
C68	C	0.144643	0.729630	-0.060944
C69	C	0.210423	0.683583	-0.032477
C70	C	0.275057	0.699745	-0.042464
C71	C	0.273910	0.761952	-0.080923
C72	C	0.340845	0.653694	-0.013997
C73	C	0.405477	0.669855	-0.023988
C74	C	0.338542	0.778113	-0.090915
C75	C	0.878496	0.850585	-0.135717
C76	C	0.947288	0.867779	-0.146347
C77	C	0.707128	0.749261	-0.307089
C78	C	0.717759	0.732067	-0.375881
C79	C	0.675809	0.989182	-0.104389
C80	C	0.675811	1.053415	-0.104387
C81	C	0.585409	0.946148	-0.769427
C82	C	0.595401	0.929976	-0.834058
C83	C	0.662320	0.821726	-0.767130
C84	C	0.652330	0.837888	-0.702492
C85	C	0.613874	0.900101	-0.703647
C86	C	0.680796	0.791841	-0.636712
C87	C	0.670810	0.808003	-0.572080
C88	C	0.632358	0.870212	-0.573228
C89	C	0.603888	0.916263	-0.639015
C90	C	0.719256	0.729630	-0.635559
C91	C	0.747722	0.683582	-0.569779
C92	C	0.737732	0.699743	-0.505145
C93	C	0.699280	0.761952	-0.506293
C94	C	0.766201	0.653692	-0.439358
C95	C	0.756215	0.669854	-0.374726
C96	C	0.689293	0.778114	-0.441661
C97	C	0.644482	0.850584	0.098295
C98	C	0.633851	0.867778	0.167087
C99	C	0.878492	0.661325	-0.135725
C100	C	0.947282	0.614286	-0.146357
C101	C	0.644478	0.661324	0.098287
C102	C	0.633845	0.614285	0.167076
C103	C	0.847169	0.711986	0.066967
C104	C	0.905328	0.682142	0.125127
C105	C	0.504441	0.887858	-0.275762
C106	C	0.446282	0.917703	-0.333921
C107	C	0.473118	0.938520	-0.073069
C108	C	0.404328	0.985559	-0.062437
C109	C	0.707133	0.938521	-0.307081
C110	C	0.717765	0.985560	-0.375871
C111	C	0.946125	0.572409	-0.184821
C112	C	1.010757	0.528214	-0.194825
C113	C	1.076544	0.525894	-0.166361
C114	C	1.077700	0.567777	-0.127896
C115	C	1.013070	0.611974	-0.117896
C116	C	0.662314	0.611982	0.232851
C117	C	0.652320	0.567794	0.297493
C118	C	0.613862	0.525905	0.296357
C119	C	0.585389	0.528211	0.230575
C120	C	0.595379	0.572402	0.165936
C121	C	0.978343	0.668128	0.106743
C122	C	1.032997	0.640094	0.161383
C123	C	1.014634	0.626071	0.234406
C124	C	0.941612	0.640088	0.252790
C125	C	0.886960	0.668125	0.198151
C126	C	0.373267	0.931724	-0.315537
C127	C	0.318613	0.959776	-0.370177
C128	C	0.336976	0.973804	-0.443200
C129	C	0.409998	0.959782	-0.461584
C130	C	0.464651	0.931735	-0.406945
C131	C	0.405486	1.027440	-0.023980
C132	C	0.340857	1.071647	-0.013994
C133	C	0.275070	1.073969	-0.042460
C134	C	0.273914	1.032084	-0.080922
C135	C	0.338543	0.987881	-0.090913
C136	C	0.756227	1.027437	-0.374712
C137	C	0.766231	1.071632	-0.439343
C138	C	0.737768	1.073952	-0.505131
C139	C	0.699304	1.032069	-0.506288
C140	C	0.689305	0.987872	-0.441658
H141	H	0.758706	0.431329	-0.187314
F142	F	0.353708	0.916799	-0.237823
F143	F	0.014291	0.755520	-0.076949
F144	F	0.770124	0.548369	-0.198750
H145	H	1.009801	0.494116	-0.226146
F146	F	0.342064	0.587485	0.026925
H147	H	0.605732	0.489925	0.348996
H148	H	0.758720	0.059021	-0.187292
F149	F	0.240902	0.974692	-0.350597
F150	F	0.770136	0.176065	-0.198733
F151	F	0.581474	0.051480	-0.010053
H152	H	0.524102	0.920317	-0.421923
H153	H	0.624229	0.883371	-0.520599
F154	F	0.075855	0.712431	-0.050317
F155	F	0.703250	0.656556	0.234076
F156	F	0.475489	0.620845	0.006307
F157	F	0.278802	1.003654	-0.501346
H158	H	0.693633	0.771074	-0.766201
H159	H	0.727391	0.716474	-0.688190
H160	H	0.424941	0.971207	-0.521046
F161	F	0.807166	1.116204	-0.438096
F162	F	0.807133	0.587486	-0.438141
F163	F	0.475496	1.024982	0.006321
F164	F	0.544460	0.483625	0.229378
F165	F	0.876116	0.574869	-0.215123
H166	H	0.341813	1.105746	0.017327
H167	H	1.014021	0.646068	-0.086572
F168	F	0.211644	0.617375	0.008451
H169	H	0.657970	0.828772	-0.442602
H170	H	0.220341	1.033981	-0.104097
H171	H	0.675510	0.565924	0.351048
H172	H	0.222450	1.109965	-0.034320
F173	F	0.337298	0.943306	-0.131840
H174	H	0.572565	0.966920	-0.639956
H175	H	0.993308	0.679542	0.047287
F176	F	0.786525	0.620849	-0.304717
H177	H	0.572197	0.574268	0.112382
F178	F	0.748414	1.120996	-0.573910
F179	F	0.544485	1.012363	-0.770655
F180	F	0.810859	0.330002	-0.113881
F181	F	1.110708	0.625179	0.141802
F182	F	-0.123867	0.978991	-0.215103
F183	F	0.809251	0.683033	0.217728
H184	H	0.779408	1.025558	-0.321150
H185	H	1.059143	0.603241	0.278890
H186	H	0.592899	0.168518	-0.021482
H187	H	0.676131	1.033966	-0.559861
H188	H	0.657982	0.953777	-0.442611
F189	F	0.788648	0.617374	-0.568559
H190	H	0.794503	0.216857	-0.112717
H191	H	0.926671	0.628665	0.312253
H192	H	1.131273	0.565882	-0.104723
H193	H	0.557093	0.382994	-0.096092
F194	F	0.540740	0.269857	-0.094928
H195	H	0.572217	0.967478	-0.887619
H196	H	1.129165	0.489903	-0.174508
H197	H	0.592896	0.540820	-0.021487
F198	F	0.337314	0.844328	-0.131840
F199	F	0.275763	0.887410	-0.158487
F200	F	0.139959	0.982476	-0.217242
F201	F	0.009546	1.012363	-0.235718
F202	F	0.581474	0.423779	-0.010063
