data_functionalizedCrystal
_audit_creation_method	'MofGen! by Chris Wilmer'
_symmetry_space_group_name_H-M	'P1'
_symmetry_Int_Tables_number	1
_symmetry_cell_setting	triclinic
loop_
_symmetry_equiv_pos_as_xyz
  x,y,z
_cell_length_a	16.109301
_cell_length_b	17.038272
_cell_length_c	15.186229
_cell_angle_alpha	90.012008
_cell_angle_beta	90.005196
_cell_angle_gamma	87.286518
loop_
_atom_site_label
_atom_site_type_symbol
_atom_site_fract_x
_atom_site_fract_y
_atom_site_fract_z
O1	O	1.110273	0.100504	0.073174
O2	O	0.869099	0.113010	0.073188
O3	O	0.988252	-0.007058	0.073174
O4	O	0.991119	0.220572	0.073187
O5	O	0.988234	-0.007078	-0.073284
O6	O	0.869080	0.112991	-0.073270
O7	O	1.110254	0.100484	-0.073284
Zn8	Zn	0.989664	0.106734	-0.096530
Zn9	Zn	0.989689	0.106760	0.096434
O10	O	0.991100	0.220553	-0.073270
C11	C	0.838079	0.112494	-0.000039
C12	C	0.745676	0.110975	-0.000034
C13	C	0.528212	0.178690	-0.000040
C14	C	0.441390	0.177257	-0.000046
C15	C	0.451147	0.034799	-0.000051
C16	C	0.537968	0.036233	-0.000051
C17	C	0.576498	0.108181	-0.000042
C18	C	0.402855	0.105314	-0.000047
C19	C	0.308719	0.103759	-0.000053
C20	C	0.670640	0.109736	-0.000037
C21	C	0.985636	-0.036196	-0.000055
C22	C	0.977857	-0.122989	-0.000054
C23	C	1.049277	-0.173104	-0.000059
C24	C	1.041963	-0.254654	-0.000050
C25	C	0.963228	-0.286089	-0.000043
C26	C	0.891802	-0.235967	-0.000035
C27	C	0.899116	-0.154418	-0.000038
C28	C	0.937385	-0.531846	-0.000029
C29	C	0.930075	-0.613402	-0.000029
C30	C	1.080238	-0.632083	-0.000043
C31	C	1.087546	-0.550532	-0.000051
C32	C	1.016120	-0.500418	-0.000038
C33	C	0.955749	-0.369446	-0.000037
C34	C	1.023599	-0.417062	-0.000038
C35	C	1.141274	0.101001	-0.000055
C36	C	1.233677	0.102519	-0.000054
C37	C	0.993717	0.249691	-0.000039
C38	C	1.001496	0.336484	-0.000034
N39	N	0.989653	0.106717	-0.228223
C40	C	0.935906	0.059319	-0.546175
C41	C	0.935898	0.059307	-0.453985
C42	C	1.043459	0.154172	-0.453928
C43	C	1.043470	0.154178	-0.546116
C44	C	0.989689	0.106753	-0.592237
C45	C	0.989670	0.106735	-0.407859
C46	C	0.989662	0.106723	-0.307903
C47	C	0.989698	0.106764	-0.692199
N48	N	0.989706	0.106772	0.228126
H49	H	0.577284	-0.021187	-0.000055
N50	N	0.392070	0.249282	-0.000062
N51	N	0.398503	0.297121	-0.061798
H52	H	0.363672	0.347992	-0.061813
H53	H	1.113392	-0.147517	-0.000071
N54	N	0.880945	0.010868	-0.406935
N55	N	0.828132	0.041384	-0.355496
H56	H	0.789319	0.007172	-0.322267
N57	N	0.411774	-0.038683	-0.000061
N58	N	0.334256	-0.039955	-0.000060
H59	H	0.306449	-0.091853	-0.000065
N60	N	0.567557	0.252186	-0.000031
N61	N	0.524431	0.315135	-0.000032
H62	H	0.552215	0.367044	-0.000028
H63	H	1.100122	-0.295455	-0.000056
H64	H	1.151661	-0.524945	-0.000057
N65	N	1.153185	-0.683284	-0.000057
N66	N	1.146648	-0.756094	-0.000057
H67	H	1.198169	-0.792257	-0.000065
H68	H	1.087705	-0.391465	-0.000025
H69	H	0.865956	-0.638991	-0.000037
H70	H	1.087244	0.192785	-0.416365
N71	N	0.864419	-0.480675	-0.000023
N72	N	0.794127	-0.508754	-0.000023
H73	H	0.742590	-0.472611	-0.000022
H74	H	0.892115	0.020701	-0.583724
N75	N	1.098393	0.202643	-0.593187
N76	N	1.098389	0.202644	-0.675497
H77	H	1.137175	0.236871	-0.708743
H78	H	0.827693	-0.261567	-0.000023
N79	N	0.826154	-0.103236	-0.000021
N80	N	0.755858	-0.131309	-0.000009
H81	H	0.704324	-0.095163	0.000008
H82	H	0.891642	-0.395049	-0.000032
