data_functionalizedCrystal
_audit_creation_method	'MofGen! by Chris Wilmer'
_symmetry_space_group_name_H-M	'P1'
_symmetry_Int_Tables_number	1
_symmetry_cell_setting	triclinic
loop_
_symmetry_equiv_pos_as_xyz
  x,y,z
_cell_length_a	14.519709
_cell_length_b	15.944551
_cell_length_c	13.596369
_cell_angle_alpha	89.993059
_cell_angle_beta	90.000291
_cell_angle_gamma	83.589442
loop_
_atom_site_label
_atom_site_type_symbol
_atom_site_fract_x
_atom_site_fract_y
_atom_site_fract_z
O1	O	1.223676	0.110109	-0.081665
O2	O	1.723676	0.610109	0.418335
O3	O	0.955176	0.123076	-0.081696
O4	O	1.455176	0.623076	0.418304
O5	O	1.096758	-0.005672	-0.081671
O6	O	1.596758	0.494328	0.418329
O7	O	1.082094	0.238856	-0.081690
O8	O	1.582094	0.738856	0.418310
O9	O	1.096744	-0.005679	0.081912
O10	O	1.596744	0.494321	0.581912
O11	O	0.955162	0.123069	0.081887
O12	O	1.455162	0.623069	0.581887
O13	O	1.223662	0.110102	0.081917
O14	O	1.723662	0.610102	0.581917
Zn15	Zn	1.089410	0.116584	0.107875
Zn16	Zn	1.589410	0.616584	0.607875
Zn17	Zn	1.089428	0.116593	-0.107653
Zn18	Zn	1.589428	0.616593	0.392347
O19	O	1.082080	0.238850	0.081893
O20	O	1.582080	0.738850	0.581893
C21	C	0.920810	0.122468	0.000092
C22	C	1.420810	0.622468	0.500092
C23	C	0.818432	0.120657	0.000081
C24	C	1.318432	0.620657	0.500081
C25	C	0.443548	0.113990	0.000126
C26	C	0.943548	0.613990	0.500126
C27	C	0.547853	0.115842	0.000113
C28	C	1.047853	0.615842	0.500113
C29	C	0.630987	0.117323	0.000102
C30	C	1.130987	0.617323	0.500102
C31	C	0.735298	0.119175	0.000091
C32	C	1.235298	0.619175	0.500091
C33	C	1.096142	-0.036970	0.000121
C34	C	1.596142	0.463030	0.500121
C35	C	1.094317	-0.130219	0.000121
C36	C	1.594317	0.369781	0.500121
C37	C	1.002196	-0.345209	0.000097
C38	C	1.502196	0.154791	0.500097
C39	C	1.044967	-0.406168	0.080758
C40	C	1.544967	0.093832	0.580758
C41	C	1.091015	-0.300950	0.000113
C42	C	1.591015	0.199050	0.500113
C43	C	1.045002	-0.406144	-0.080522
C44	C	1.545002	0.093856	0.419478
C45	C	1.087820	-0.465867	0.000101
C46	C	1.587820	0.034133	0.500101
C47	C	1.133811	-0.360680	0.080841
C48	C	1.633811	0.139320	0.580841
C49	C	1.133833	-0.360650	-0.080512
C50	C	1.633833	0.139350	0.419488
C51	C	1.176669	-0.421591	0.000169
C52	C	1.676669	0.078409	0.500169
C53	C	1.092854	-0.205945	0.000121
C54	C	1.592854	0.294055	0.500121
C55	C	1.085988	-0.560871	0.000100
C56	C	1.585988	-0.060871	0.500100
C57	C	1.258028	0.110710	0.000128
C58	C	1.758028	0.610710	0.500128
C59	C	1.360406	0.112521	0.000132
C60	C	1.860406	0.612521	0.500132
C61	C	1.082696	0.270148	0.000099
C62	C	1.582696	0.770148	0.500099
C63	C	1.084521	0.363397	0.000092
C64	C	1.584521	0.863397	0.500092
N65	N	1.089404	0.116578	0.254966
N66	N	1.589404	0.616578	0.754966
N67	N	1.089442	0.116593	-0.254745
N68	N	1.589442	0.616593	0.245255
C69	C	1.089427	0.116594	0.656257
C70	C	1.589427	0.616594	1.156257
C71	C	1.089418	0.116592	0.544606
C72	C	1.589418	0.616592	1.044606
C73	C	1.089416	0.116587	0.455615
C74	C	1.589416	0.616587	0.955615
C75	C	1.089406	0.116584	0.343957
C76	C	1.589406	0.616584	0.843957
H77	H	1.007394	-0.426333	0.148942
H78	H	1.507394	0.073667	0.648942
O79	O	1.178643	-0.336926	0.162317
O80	O	1.678643	0.163074	0.662317
C81	C	1.208273	-0.408782	0.219310
C82	C	1.708273	0.091218	0.719310
H83	H	1.214355	-0.467256	0.170484
H84	H	1.714355	0.032744	0.670484
H85	H	1.155765	-0.415904	0.280237
H86	H	1.655765	0.084096	0.780237
C87	C	1.295887	-0.326843	0.325191
C88	C	1.795887	0.173157	0.825191
C89	C	1.303364	-0.398662	0.265219
C90	C	1.803364	0.101338	0.765219
H91	H	1.354541	-0.320600	0.353513
H92	H	1.854541	0.179400	0.853513
H93	H	1.275922	-0.278431	0.286796
H94	H	1.775922	0.221569	0.786796
H95	H	1.252126	-0.332787	0.375955
H96	H	1.752126	0.167213	0.875955
H97	H	1.347115	-0.392712	0.214449
H98	H	1.847115	0.107288	0.714449
H99	H	1.323338	-0.447072	0.303606
H100	H	1.823338	0.052928	0.803606
O101	O	1.264711	-0.460992	0.000403
O102	O	1.764711	0.039008	0.500403
C103	C	1.311180	-0.437797	0.085545
C104	C	1.811180	0.062203	0.585545
H105	H	1.258230	-0.415971	0.144707
H106	H	1.758230	0.084029	0.644707
H107	H	1.354123	-0.384246	0.067076
H108	H	1.854123	0.115754	0.567076
C109	C	1.440495	-0.541089	0.050916
C110	C	1.940495	-0.041089	0.550916
C111	C	1.375460	-0.514288	0.123582
C112	C	1.875460	-0.014288	0.623582
H113	H	1.480149	-0.588270	0.074378
H114	H	1.980149	-0.088270	0.574378
H115	H	1.409190	-0.556714	-0.006448
H116	H	1.909190	-0.056714	0.493552
H117	H	1.476270	-0.496456	0.035532
H118	H	1.976270	0.003544	0.535532
H119	H	1.339678	-0.558917	0.138956
H120	H	1.839678	-0.058917	0.638956
H121	H	1.406761	-0.498672	0.180950
H122	H	1.906761	0.001328	0.680950
O123	O	1.178496	-0.336442	-0.161882
O124	O	1.678496	0.163558	0.338118
C125	C	1.117842	-0.279430	-0.217164
C126	C	1.617842	0.220570	0.282836
H127	H	1.060959	-0.248257	-0.167176
H128	H	1.560959	0.251743	0.332824
H129	H	1.085352	-0.314940	-0.278560
H130	H	1.585352	0.185060	0.221440
C131	C	1.242181	-0.249585	-0.323535
C132	C	1.742181	0.250415	0.176465
C133	C	1.172320	-0.211292	-0.262137
C134	C	1.672320	0.288708	0.237863
H135	H	1.275785	-0.207556	-0.351280
H136	H	1.775785	0.292444	0.148720
H137	H	1.283045	-0.287998	-0.286293
H138	H	1.783045	0.212002	0.213707
H139	H	1.215095	-0.279175	-0.374690
H140	H	1.715095	0.220825	0.125310
H141	H	1.199407	-0.181712	-0.210976
H142	H	1.699407	0.318288	0.289024
H143	H	1.131462	-0.172873	-0.299371
H144	H	1.631462	0.327127	0.200629
O145	O	1.000055	-0.430056	-0.161847
O146	O	1.500055	0.069944	0.338153
C147	C	0.908100	-0.390794	-0.161535
C148	C	1.408100	0.109206	0.338465
H149	H	0.903675	-0.331404	-0.114316
H150	H	1.403675	0.168596	0.385684
H151	H	0.860267	-0.436116	-0.130061
H152	H	1.360267	0.063884	0.369939
C153	C	0.883679	-0.439854	-0.325488
C154	C	1.383679	0.060146	0.174512
C155	C	0.878246	-0.366906	-0.267500
C156	C	1.378246	0.133094	0.232500
H157	H	0.865261	-0.425122	-0.390852
H158	H	1.365261	0.074878	0.109148
H159	H	0.945629	-0.466309	-0.325697
H160	H	1.445629	0.033691	0.174303
H161	H	0.843818	-0.477616	-0.299249
H162	H	1.343818	0.022384	0.200751
H163	H	0.918115	-0.329151	-0.293732
H164	H	1.418115	0.170849	0.206268
H165	H	0.816301	-0.340445	-0.267297
H166	H	1.316301	0.159555	0.232703
H167	H	0.928471	-0.312009	0.000169
H168	H	1.428471	0.187991	0.500169
