data_functionalizedCrystal
_audit_creation_method	'MofGen! by Chris Wilmer'
_symmetry_space_group_name_H-M	'P1'
_symmetry_Int_Tables_number	1
_symmetry_cell_setting	triclinic
loop_
_symmetry_equiv_pos_as_xyz
  x,y,z
_cell_length_a	19.805407
_cell_length_b	29.839131
_cell_length_c	19.805399
_cell_angle_alpha	90.029565
_cell_angle_beta	90.019573
_cell_angle_gamma	90.041420
loop_
_atom_site_label
_atom_site_type_symbol
_atom_site_fract_x
_atom_site_fract_y
_atom_site_fract_z
Zn1	Zn	1.034665	-0.178864	0.382710
Zn2	Zn	1.284665	0.071136	0.632710
Zn3	Zn	1.534665	0.321136	0.882710
Zn4	Zn	1.784665	0.571136	1.132710
Zn5	Zn	1.034550	-0.253991	0.269518
Zn6	Zn	1.284550	-0.003991	0.519518
Zn7	Zn	1.534550	0.246009	0.769518
Zn8	Zn	1.784550	0.496009	1.019518
Zn9	Zn	0.921480	-0.178876	0.269535
Zn10	Zn	1.171480	0.071124	0.519535
Zn11	Zn	1.421480	0.321124	0.769535
Zn12	Zn	1.671480	0.571124	1.019535
Zn13	Zn	0.921414	-0.253967	0.382665
Zn14	Zn	1.171414	-0.003967	0.632665
Zn15	Zn	1.421414	0.246033	0.882665
Zn16	Zn	1.671414	0.496033	1.132665
O17	O	0.978027	-0.216425	0.326107
O18	O	1.228027	0.033575	0.576107
O19	O	1.478027	0.283575	0.826107
O20	O	1.728027	0.533575	1.076107
O21	O	1.129366	-0.188834	0.367707
O22	O	1.379366	0.061166	0.617707
O23	O	1.629366	0.311166	0.867707
O24	O	1.879366	0.561166	1.117707
O25	O	1.019531	-0.244042	0.174804
O26	O	1.269531	0.005958	0.424804
O27	O	1.519531	0.255958	0.674804
O28	O	1.769531	0.505958	0.924804
O29	O	0.936570	-0.116007	0.284574
O30	O	1.186570	0.133993	0.534574
O31	O	1.436570	0.383993	0.784574
O32	O	1.686570	0.633993	1.034574
O33	O	1.129282	-0.244030	0.284545
O34	O	1.379282	0.005970	0.534545
O35	O	1.629282	0.255970	0.784545
O36	O	1.879282	0.505970	1.034545
O37	O	1.019727	-0.115998	0.367723
O38	O	1.269727	0.134002	0.617723
O39	O	1.519727	0.384002	0.867723
O40	O	1.769727	0.634002	1.117723
O41	O	0.936458	-0.188856	0.174816
O42	O	1.186458	0.061144	0.424816
O43	O	1.436458	0.311144	0.674816
O44	O	1.686458	0.561144	0.924816
O45	O	0.826754	-0.188832	0.284530
O46	O	1.076754	0.061168	0.534530
O47	O	1.326754	0.311168	0.784530
O48	O	1.576754	0.561168	1.034530
O49	O	0.936457	-0.243990	0.477388
O50	O	1.186457	0.006010	0.727388
O51	O	1.436457	0.256010	0.977388
O52	O	1.686457	0.506010	1.227388
O53	O	0.826706	-0.244002	0.367646
O54	O	1.076706	0.005998	0.617646
O55	O	1.326706	0.255998	0.867646
O56	O	1.576706	0.505998	1.117646
O57	O	1.019662	-0.188811	0.477421
O58	O	1.269662	0.061189	0.727421
O59	O	1.519662	0.311189	0.977421
O60	O	1.769662	0.561189	1.227421
O61	O	1.019467	-0.316855	0.284501
O62	O	1.269467	-0.066855	0.534501
O63	O	1.519467	0.183145	0.784501
O64	O	1.769467	0.433145	1.034501
O65	O	0.936346	-0.316838	0.367630
O66	O	1.186346	-0.066838	0.617630
O67	O	1.436346	0.183162	0.867630
O68	O	1.686346	0.433162	1.117630
C69	C	0.802171	-0.216416	0.326085
C70	C	1.052171	0.033584	0.576085
C71	C	1.302171	0.283584	0.826085
C72	C	1.552171	0.533584	1.076085
C73	C	0.726939	-0.216423	0.326092
C74	C	0.976939	0.033577	0.576092
C75	C	1.226939	0.283577	0.826092
C76	C	1.476939	0.533577	1.076092
C77	C	0.977905	-0.333147	0.326073
C78	C	1.227905	-0.083147	0.576073
C79	C	1.477905	0.166853	0.826073
C80	C	1.727905	0.416853	1.076073
C81	C	0.977915	-0.383082	0.326082
C82	C	1.227915	-0.133082	0.576082
C83	C	1.477915	0.116918	0.826082
C84	C	1.727915	0.366918	1.076082
C85	C	0.691587	-0.245193	0.369300
C86	C	0.941587	0.004807	0.619300
C87	C	1.191587	0.254807	0.869300
C88	C	1.441587	0.504807	1.119300
C89	C	0.620899	-0.245194	0.369310
C90	C	0.870899	0.004806	0.619310
C91	C	1.120899	0.254806	0.869310
C92	C	1.370899	0.504806	1.119310
C93	C	0.585564	-0.216427	0.326107
C94	C	0.835564	0.033573	0.576107
C95	C	1.085564	0.283573	0.826107
C96	C	1.335564	0.533573	1.076107
C97	C	0.620920	-0.187654	0.282897
C98	C	0.870920	0.062346	0.532897
C99	C	1.120920	0.312346	0.782897
C100	C	1.370920	0.562346	1.032897
C101	C	0.691607	-0.187651	0.282891
C102	C	0.941607	0.062349	0.532891
C103	C	1.191607	0.312349	0.782891
C104	C	1.441607	0.562349	1.032891
C105	C	0.335847	-0.187664	0.282919
C106	C	0.585847	0.062336	0.532919
C107	C	0.835847	0.312336	0.782919
C108	C	1.085847	0.562336	1.032919
C109	C	0.265155	-0.187669	0.282927
C110	C	0.515155	0.062331	0.532927
C111	C	0.765155	0.312331	0.782927
C112	C	1.015155	0.562331	1.032927
C113	C	0.265139	-0.245207	0.369338
C114	C	0.515139	0.004793	0.619338
C115	C	0.765139	0.254793	0.869338
C116	C	1.015139	0.504793	1.119338
C117	C	0.335826	-0.245204	0.369332
C118	C	0.585826	0.004796	0.619332
C119	C	0.835826	0.254796	0.869332
C120	C	1.085826	0.504796	1.119332
C121	C	0.371176	-0.216429	0.326125
C122	C	0.621176	0.033571	0.576125
C123	C	0.871176	0.283571	0.826125
C124	C	1.121176	0.533571	1.076125
C125	C	0.447825	-0.216428	0.326116
C126	C	0.697825	0.033572	0.576116
C127	C	0.947825	0.283572	0.826116
C128	C	1.197825	0.533572	1.076116
C129	C	0.508916	-0.216430	0.326112
C130	C	0.758916	0.033570	0.576112
C131	C	1.008916	0.283570	0.826112
C132	C	1.258916	0.533570	1.076112
C133	C	1.021387	-0.692722	0.282885
C134	C	1.271387	-0.442722	0.532885
C135	C	1.521387	-0.192722	0.782885
C136	C	1.771387	0.057278	1.032885
C137	C	1.021471	-0.880395	0.282912
C138	C	1.271471	-0.630395	0.532912
C139	C	1.521471	-0.380395	0.782912
C140	C	1.771471	-0.130395	1.032912
O141	O	1.058335	-0.904656	0.246159
O142	O	1.308335	-0.654656	0.496159
O143	O	1.558335	-0.404656	0.746159
O144	O	1.808335	-0.154656	0.996159
N145	N	0.978168	-0.903867	0.326158
N146	N	1.228168	-0.653867	0.576158
N147	N	1.478168	-0.403867	0.826158
N148	N	1.728168	-0.153867	1.076158
C149	C	0.934844	-0.880418	0.369404
C150	C	1.184844	-0.630418	0.619404
C151	C	1.434844	-0.380418	0.869404
C152	C	1.684844	-0.130418	1.119404
O153	O	0.898019	-0.904688	0.406194
O154	O	1.148019	-0.654688	0.656194
O155	O	1.398019	-0.404688	0.906194
O156	O	1.648019	-0.154688	1.156194
C157	C	0.934764	-0.692746	0.369381
C158	C	1.184764	-0.442746	0.619381
C159	C	1.434764	-0.192746	0.869381
C160	C	1.684764	0.057254	1.119381
C161	C	0.978065	-0.669276	0.326127
C162	C	1.228065	-0.419276	0.576127
C163	C	1.478065	-0.169276	0.826127
C164	C	1.728065	0.080724	1.076127
C165	C	1.064685	-0.669252	0.239635
C166	C	1.314685	-0.419252	0.489635
C167	C	1.564685	-0.169252	0.739635
C168	C	1.814685	0.080748	0.989635
C169	C	1.064661	-0.622336	0.239626
C170	C	1.314661	-0.372336	0.489626
C171	C	1.564661	-0.122336	0.739626
C172	C	1.814661	0.127664	0.989626
C173	C	1.021339	-0.598891	0.282868
C174	C	1.271339	-0.348891	0.532868
C175	C	1.521339	-0.098891	0.782868
C176	C	1.771339	0.151109	1.032868
C177	C	0.978041	-0.622360	0.326118
C178	C	1.228041	-0.372360	0.576118
C179	C	1.478041	-0.122360	0.826118
C180	C	1.728041	0.127640	1.076118
C181	C	0.891444	-0.669297	0.412630
C182	C	1.141444	-0.419297	0.662630
C183	C	1.391444	-0.169297	0.912630
C184	C	1.641444	0.080703	1.162630
C185	C	0.891429	-0.622376	0.412621
C186	C	1.141429	-0.372376	0.662621
C187	C	1.391429	-0.122376	0.912621
C188	C	1.641429	0.127624	1.162621
C189	C	0.934730	-0.598907	0.369367
C190	C	1.184730	-0.348907	0.619367
C191	C	1.434730	-0.098907	0.869367
C192	C	1.684730	0.151093	1.119367
C193	C	0.934695	-0.551999	0.369351
C194	C	1.184695	-0.301999	0.619351
C195	C	1.434695	-0.051999	0.869351
C196	C	1.684695	0.198001	1.119351
N197	N	0.977998	-0.528527	0.326104
N198	N	1.227998	-0.278527	0.576104
N199	N	1.477998	-0.028527	0.826104
N200	N	1.727998	0.221473	1.076104
C201	C	1.021320	-0.551973	0.282863
C202	C	1.271320	-0.301973	0.532863
C203	C	1.521320	-0.051973	0.782863
C204	C	1.771320	0.198027	1.032863
C205	C	0.934888	-0.978948	0.369412
C206	C	1.184888	-0.728948	0.619412
C207	C	1.434888	-0.478948	0.869412
C208	C	1.684888	-0.228948	1.119412
C209	C	0.934907	-1.025866	0.369418
C210	C	1.184907	-0.775866	0.619418
C211	C	1.434907	-0.525866	0.869418
C212	C	1.684907	-0.275866	1.119418
C213	C	1.021534	-1.025840	0.282926
C214	C	1.271534	-0.775840	0.532926
C215	C	1.521534	-0.525840	0.782926
C216	C	1.771534	-0.275840	1.032926
C217	C	1.021512	-0.978921	0.282918
C218	C	1.271512	-0.728921	0.532918
C219	C	1.521512	-0.478921	0.782918
C220	C	1.771512	-0.228921	1.032918
C221	C	0.978191	-0.955476	0.326166
C222	C	1.228191	-0.705476	0.576166
C223	C	1.478191	-0.455476	0.826166
C224	C	1.728191	-0.205476	1.076166
C225	C	1.021266	-0.453447	0.282847
C226	C	1.271266	-0.203447	0.532847
C227	C	1.521266	0.046553	0.782847
C228	C	1.771266	0.296553	1.032847
C229	C	1.021237	-0.406527	0.282840
C230	C	1.271237	-0.156527	0.532840
C231	C	1.521237	0.093473	0.782840
C232	C	1.771237	0.343473	1.032840
C233	C	0.934611	-0.406558	0.369334
C234	C	1.184611	-0.156558	0.619334
C235	C	1.434611	0.093442	0.869334
C236	C	1.684611	0.343442	1.119334
C237	C	0.934638	-0.453473	0.369339
C238	C	1.184638	-0.203473	0.619339
C239	C	1.434638	0.046527	0.869339
C240	C	1.684638	0.296527	1.119339
C241	C	0.977971	-0.476917	0.326093
C242	C	1.227971	-0.226917	0.576093
C243	C	1.477971	0.023083	0.826093
C244	C	1.727971	0.273083	1.076093
O245	O	0.897855	-0.527708	0.406090
O246	O	1.147855	-0.277708	0.656090
O247	O	1.397855	-0.027708	0.906090
O248	O	1.647855	0.222292	1.156090
O249	O	1.058150	-0.527694	0.246090
O250	O	1.308150	-0.277694	0.496090
O251	O	1.558150	-0.027694	0.746090
O252	O	1.808150	0.222306	0.996090
C253	C	1.021411	-0.739637	0.282894
C254	C	1.271411	-0.489637	0.532894
C255	C	1.521411	-0.239637	0.782894
C256	C	1.771411	0.010363	1.032894
C257	C	0.978113	-0.763107	0.326144
C258	C	1.228113	-0.513107	0.576144
C259	C	1.478113	-0.263107	0.826144
C260	C	1.728113	-0.013107	1.076144
C261	C	0.934791	-0.739661	0.369386
C262	C	1.184791	-0.489661	0.619386
C263	C	1.434791	-0.239661	0.869386
C264	C	1.684791	0.010339	1.119386
C265	C	0.978132	-0.810025	0.326149
C266	C	1.228132	-0.560025	0.576149
C267	C	1.478132	-0.310025	0.826149
C268	C	1.728132	-0.060025	1.076149
C269	C	1.021454	-0.833470	0.282908
C270	C	1.271454	-0.583470	0.532908
C271	C	1.521454	-0.333470	0.782908
C272	C	1.771454	-0.083470	1.032908
C273	C	1.064757	-0.809998	0.239661
C274	C	1.314757	-0.559998	0.489661
C275	C	1.564757	-0.309998	0.739661
C276	C	1.814757	-0.059998	0.989661
C277	C	1.064733	-0.763083	0.239653
C278	C	1.314733	-0.513083	0.489653
C279	C	1.564733	-0.263083	0.739653
C280	C	1.814733	-0.013083	0.989653
C281	C	0.891488	-0.763133	0.412632
C282	C	1.141488	-0.513133	0.662632
C283	C	1.391488	-0.263133	0.912632
C284	C	1.641488	-0.013133	1.162632
C285	C	0.891515	-0.810049	0.412637
C286	C	1.141515	-0.560049	0.662637
C287	C	1.391515	-0.310049	0.912637
C288	C	1.641515	-0.060049	1.162637
C289	C	0.934837	-0.833494	0.369395
C290	C	1.184837	-0.583494	0.619395
C291	C	1.434837	-0.333494	0.869395
C292	C	1.684837	-0.083494	1.119395
C293	C	1.154570	-0.216434	0.326129
C294	C	1.404570	0.033566	0.576129
C295	C	1.654570	0.283566	0.826129
C296	C	1.904570	0.533566	1.076129
C297	C	1.229802	-0.216437	0.326139
C298	C	1.479802	0.033563	0.576139
C299	C	1.729802	0.283563	0.826139
C300	C	1.979802	0.533563	1.076139
C301	C	0.978065	-0.216396	0.502650
C302	C	1.228065	0.033604	0.752650
C303	C	1.478065	0.283604	1.002650
C304	C	1.728065	0.533604	1.252650
C305	C	0.978081	-0.216384	0.577882
C306	C	1.228081	0.033616	0.827882
C307	C	1.478081	0.283616	1.077882
C308	C	1.728081	0.533616	1.327882
C309	C	0.978168	-0.099246	0.326156
C310	C	1.228168	0.150754	0.576156
C311	C	1.478168	0.400754	0.826156
C312	C	1.728168	0.650754	1.076156
C313	C	0.978228	-0.049312	0.326176
C314	C	1.228228	0.200688	0.576176
C315	C	1.478228	0.450688	0.826176
C316	C	1.728228	0.700688	1.076176
C317	C	0.978028	-0.216420	0.150251
C318	C	1.228028	0.033580	0.400251
C319	C	1.478028	0.283580	0.650251
C320	C	1.728028	0.533580	0.900251
C321	C	0.978143	-0.216306	0.075019
C322	C	1.228143	0.033694	0.325019
C323	C	1.478143	0.283694	0.575019
C324	C	1.728143	0.533694	0.825019
C325	C	1.021407	-0.187652	0.613244
C326	C	1.271407	0.062348	0.863244
C327	C	1.521407	0.312348	1.113244
C328	C	1.771407	0.562348	1.363244
C329	C	1.021414	-0.187638	0.683933
C330	C	1.271414	0.062362	0.933933
C331	C	1.521414	0.312362	1.183933
C332	C	1.771414	0.562362	1.433933
C333	C	0.978098	-0.216361	0.719258
C334	C	1.228098	0.033639	0.969258
C335	C	1.478098	0.283639	1.219258
C336	C	1.728098	0.533639	1.469258
C337	C	0.934767	-0.245095	0.683890
C338	C	1.184767	0.004905	0.933890
C339	C	1.434767	0.254905	1.183890
C340	C	1.684767	0.504905	1.433890
C341	C	0.934757	-0.245105	0.613203
C342	C	1.184757	0.004895	0.863203
C343	C	1.434757	0.254895	1.113203
C344	C	1.684757	0.504895	1.363203
C345	C	0.934806	-0.245053	0.968963
C346	C	1.184806	0.004947	1.218963
C347	C	1.434806	0.254947	1.468963
C348	C	1.684806	0.504947	1.718963
C349	C	0.934820	-0.245041	1.039656
C350	C	1.184820	0.004959	1.289656
C351	C	1.434820	0.254959	1.539656
C352	C	1.684820	0.504959	1.789656
C353	C	1.021462	-0.187586	1.039694
C354	C	1.271462	0.062414	1.289694
C355	C	1.521462	0.312414	1.539694
C356	C	1.771462	0.562414	1.789694
C357	C	1.021453	-0.187597	0.969006
C358	C	1.271453	0.062403	1.219006
C359	C	1.521453	0.312403	1.469006
C360	C	1.771453	0.562403	1.719006
C361	C	0.978120	-0.216329	0.933645
C362	C	1.228120	0.033671	1.183645
C363	C	1.478120	0.283671	1.433645
C364	C	1.728120	0.533671	1.683645
C365	C	0.978112	-0.216342	0.856997
C366	C	1.228112	0.033658	1.106997
C367	C	1.478112	0.283658	1.356997
C368	C	1.728112	0.533658	1.606997
C369	C	0.978109	-0.216350	0.795905
C370	C	1.228109	0.033650	1.045905
C371	C	1.478109	0.283650	1.295905
C372	C	1.728109	0.533650	1.545905
H373	H	0.720352	-0.268620	0.404479
H374	H	0.970352	-0.018620	0.654479
H375	H	1.220352	0.231380	0.904479
H376	H	1.470352	0.481380	1.154479
F377	F	1.067551	-0.157072	0.721565
F378	F	1.317551	0.092928	0.971565
F379	F	1.567551	0.342928	1.221565
F380	F	1.817551	0.592928	1.471565
H381	H	0.236387	-0.164241	0.247745
H382	H	0.486387	0.085759	0.497745
H383	H	0.736387	0.335759	0.747745
H384	H	0.986387	0.585759	0.997745
F385	F	1.067558	-0.157028	0.931415
F386	F	1.317558	0.092972	1.181415
F387	F	1.567558	0.342972	1.431415
F388	F	1.817558	0.592972	1.681415
H389	H	1.099922	-0.603230	0.204407
H390	H	1.349922	-0.353230	0.454407
H391	H	1.599922	-0.103230	0.704407
H392	H	1.849922	0.146770	0.954407
H393	H	0.592119	-0.268622	0.404494
H394	H	0.842119	-0.018622	0.654494
H395	H	1.092119	0.231378	0.904494
H396	H	1.342119	0.481378	1.154494
F397	F	0.888714	-0.275613	1.077249
F398	F	1.138714	-0.025613	1.327249
F399	F	1.388714	0.224387	1.577249
F400	F	1.638714	0.474387	1.827249
F401	F	0.888664	-0.275662	0.721487
F402	F	1.138664	-0.025662	0.971487
F403	F	1.388664	0.224338	1.221487
F404	F	1.638664	0.474338	1.471487
F405	F	1.110861	-0.834959	0.193639
F406	F	1.360861	-0.584959	0.443639
F407	F	1.610861	-0.334959	0.693639
F408	F	1.860861	-0.084959	0.943639
H409	H	1.056744	-0.164189	1.068493
H410	H	1.306744	0.085811	1.318493
H411	H	1.556744	0.335811	1.568493
H412	H	1.806744	0.585811	1.818493
F413	F	0.373428	-0.275823	0.415312
F414	F	0.623428	-0.025823	0.665312
F415	F	0.873428	0.224177	0.915312
F416	F	1.123428	0.474177	1.165312
F417	F	1.067515	-0.157083	0.575656
F418	F	1.317515	0.092917	0.825656
F419	F	1.567515	0.342917	1.075656
F420	F	1.817515	0.592917	1.325656
H421	H	0.856180	-0.688398	0.447849
H422	H	1.106180	-0.438398	0.697849
H423	H	1.356180	-0.188398	0.947849
H424	H	1.606180	0.061602	1.197849
H425	H	0.899531	-0.268455	0.940181
H426	H	1.149531	-0.018455	1.190181
H427	H	1.399531	0.231545	1.440181
H428	H	1.649531	0.481545	1.690181
F429	F	0.888642	-0.275686	0.575568
F430	F	1.138642	-0.025686	0.825568
F431	F	1.388642	0.224314	1.075568
F432	F	1.638642	0.474314	1.325568
F433	F	0.845321	-0.597427	0.458655
F434	F	1.095321	-0.347427	0.708655
F435	F	1.345321	-0.097427	0.958655
F436	F	1.595321	0.152573	1.208655
H437	H	0.236348	-0.268634	0.404522
H438	H	0.486348	-0.018634	0.654522
H439	H	0.736348	0.231366	0.904522
H440	H	0.986348	0.481366	1.154522
H441	H	0.856211	-0.744047	0.447845
H442	H	1.106211	-0.494047	0.697845
H443	H	1.356211	-0.244047	0.947845
H444	H	1.606211	0.005953	1.197845
F445	F	0.373461	-0.157038	0.236935
F446	F	0.623461	0.092962	0.486935
F447	F	0.873461	0.342962	0.736935
F448	F	1.123461	0.592962	0.986935
F449	F	0.583312	-0.157035	0.236921
F450	F	0.833312	0.092965	0.486921
F451	F	1.083312	0.342965	0.736921
F452	F	1.333312	0.592965	0.986921
F453	F	0.729231	-0.157029	0.236904
F454	F	0.979231	0.092971	0.486904
F455	F	1.229231	0.342971	0.736904
F456	F	1.479231	0.592971	0.986904
F457	F	0.888509	-0.381597	0.415355
F458	F	1.138509	-0.131597	0.665355
F459	F	1.388509	0.118403	0.915355
F460	F	1.638509	0.368403	1.165355
F461	F	1.067325	-0.381552	0.236801
F462	F	1.317325	-0.131552	0.486801
F463	F	1.567325	0.118448	0.736801
F464	F	1.817325	0.368448	0.986801
H465	H	1.056554	-0.472529	0.247634
H466	H	1.306554	-0.222529	0.497634
H467	H	1.556554	0.027471	0.747634
H468	H	1.806554	0.277471	0.997634
H469	H	1.099967	-0.688336	0.204423
H470	H	1.349967	-0.438336	0.454423
H471	H	1.599967	-0.188336	0.704423
H472	H	1.849967	0.061664	0.954423
F473	F	1.067598	-0.953947	0.236882
F474	F	1.317598	-0.703947	0.486882
F475	F	1.567598	-0.453947	0.736882
F476	F	1.817598	-0.203947	0.986882
H477	H	0.899640	-1.044971	0.404633
H478	H	1.149640	-0.794971	0.654633
H479	H	1.399640	-0.544971	0.904633
H480	H	1.649640	-0.294971	1.154633
F481	F	1.067640	-1.050800	0.236903
F482	F	1.317640	-0.800800	0.486903
F483	F	1.567640	-0.550800	0.736903
F484	F	1.817640	-0.300800	0.986903
F485	F	0.888776	-0.954002	0.415446
F486	F	1.138776	-0.704002	0.665446
F487	F	1.388776	-0.454002	0.915446
F488	F	1.638776	-0.204002	1.165446
H489	H	0.899381	-0.472583	0.404562
H490	H	1.149381	-0.222583	0.654562
H491	H	1.399381	0.027417	0.904562
H492	H	1.649381	0.277417	1.154562
H493	H	1.099993	-0.743977	0.204431
H494	H	1.349993	-0.493977	0.454431
H495	H	1.599993	-0.243977	0.704431
H496	H	1.849993	0.006023	0.954431
F497	F	0.845423	-0.835022	0.458675
F498	F	1.095423	-0.585022	0.708675
F499	F	1.345423	-0.335022	0.958675
F500	F	1.595423	-0.085022	1.208675
