data_functionalizedCrystal
_audit_creation_method	'MofGen! by Chris Wilmer'
_symmetry_space_group_name_H-M	'P1'
_symmetry_Int_Tables_number	1
_symmetry_cell_setting	triclinic
loop_
_symmetry_equiv_pos_as_xyz
  x,y,z
_cell_length_a	21.295417
_cell_length_b	19.077105
_cell_length_c	19.076919
_cell_angle_alpha	89.923776
_cell_angle_beta	92.267699
_cell_angle_gamma	92.274090
loop_
_atom_site_label
_atom_site_type_symbol
_atom_site_fract_x
_atom_site_fract_y
_atom_site_fract_z
Zn1	Zn	-0.304535	-1.058240	-0.440394
Zn2	Zn	0.028798	-0.724907	-0.107060
Zn3	Zn	0.362132	-0.391573	0.226273
Zn4	Zn	-0.405748	-1.062870	-0.322879
Zn5	Zn	-0.072415	-0.729537	0.010455
Zn6	Zn	0.260919	-0.396203	0.343788
Zn7	Zn	-0.296102	-0.945459	-0.318188
Zn8	Zn	0.037231	-0.612125	0.015146
Zn9	Zn	0.370564	-0.278792	0.348479
Zn10	Zn	-0.405368	-0.940692	-0.435631
Zn11	Zn	-0.072035	-0.607358	-0.102298
Zn12	Zn	0.261298	-0.274025	0.231035
O13	O	-0.352938	-1.001815	-0.379273
O14	O	-0.019605	-0.668482	-0.045939
O15	O	0.313728	-0.335148	0.287394
O16	O	-0.321649	-1.157186	-0.428761
O17	O	0.011684	-0.823852	-0.095428
O18	O	0.345018	-0.490519	0.237905
O19	O	-0.387833	-1.051228	-0.223925
O20	O	-0.054500	-0.717894	0.109408
O21	O	0.278834	-0.384561	0.442741
O22	O	-0.209135	-0.960477	-0.334428
O23	O	0.124199	-0.627144	-0.001095
O24	O	0.457532	-0.293810	0.332238
O25	O	-0.396010	-1.160587	-0.342424
O26	O	-0.062676	-0.827254	-0.009090
O27	O	0.270657	-0.493921	0.324243
O28	O	-0.215330	-1.043337	-0.424212
O29	O	0.118003	-0.710003	-0.090879
O30	O	0.451337	-0.376670	0.242454
O31	O	-0.307277	-0.964966	-0.220479
O32	O	0.026057	-0.631633	0.112854
O33	O	0.359390	-0.298300	0.446188
O34	O	-0.306909	-0.846495	-0.329811
O35	O	0.026425	-0.513162	0.003523
O36	O	0.359758	-0.179828	0.336856
O37	O	-0.395363	-0.952352	-0.534594
O38	O	-0.062029	-0.619019	-0.201261
O39	O	0.271304	-0.285685	0.132073
O40	O	-0.387186	-0.842993	-0.416096
O41	O	-0.053853	-0.509659	-0.082763
O42	O	0.279481	-0.176326	0.250571
O43	O	-0.321281	-1.038714	-0.538093
O44	O	0.012052	-0.705381	-0.204760
O45	O	0.345386	-0.372048	0.128574
O46	O	-0.493784	-1.046605	-0.337806
O47	O	-0.160450	-0.713272	-0.004472
O48	O	0.172883	-0.379939	0.328861
O49	O	-0.493505	-0.956842	-0.420645
O50	O	-0.160172	-0.623508	-0.087311
O51	O	0.173162	-0.290175	0.246022
C52	C	-0.346091	-0.819248	-0.371928
C53	C	-0.012758	-0.485914	-0.038594
C54	C	0.320575	-0.152581	0.294739
C55	C	-0.343178	-0.741144	-0.368802
C56	C	-0.009845	-0.407810	-0.035469
C57	C	0.323489	-0.074477	0.297864
C58	C	-0.516485	-1.001727	-0.379234
C59	C	-0.183152	-0.668394	-0.045900
C60	C	0.150181	-0.335060	0.287433
C61	C	-0.586455	-1.001753	-0.379243
C62	C	-0.253121	-0.668419	-0.045910
C63	C	0.080212	-0.335086	0.287424
C64	C	-0.359220	-0.994485	-0.562552
C65	C	-0.025887	-0.661152	-0.229219
C66	C	0.307447	-0.327818	0.104114
C67	C	-0.361897	-0.991361	-0.640655
C68	C	-0.028564	-0.658028	-0.307322
C69	C	0.304770	-0.324695	0.026011
C70	C	-0.622490	-1.044871	-0.426025
C71	C	-0.289157	-0.711538	-0.092691
C72	C	0.044176	-0.378204	0.240642
C73	C	-0.688234	-1.044895	-0.426043
C74	C	-0.354901	-0.711562	-0.092710
C75	C	-0.021568	-0.378228	0.240624
C76	C	-0.717940	-1.001809	-0.379267
C77	C	-0.384607	-0.668475	-0.045934
C78	C	-0.051273	-0.335142	0.287399
C79	C	-0.681896	-0.958682	-0.332482
C80	C	-0.348563	-0.625349	0.000851
C81	C	-0.015229	-0.292015	0.334185
C82	C	-0.616153	-0.958654	-0.332470
C83	C	-0.282820	-0.625321	0.000863
C84	C	0.050513	-0.291987	0.334197
N85	N	-0.818882	-0.998975	-0.317559
N86	N	-0.485549	-0.665642	0.015774
N87	N	-0.152215	-0.332308	0.349108
N88	N	-0.881335	-0.999006	-0.317573
N89	N	-0.548002	-0.665672	0.015761
N90	N	-0.214668	-0.332339	0.349094
C91	C	-0.916019	-1.001890	-0.379302
C92	C	-0.582686	-0.668556	-0.045969
C93	C	-0.249352	-0.335223	0.287364
N94	N	-0.885891	-1.004755	-0.441020
N95	N	-0.552558	-0.671422	-0.107686
N96	N	-0.219224	-0.338089	0.225647
N97	N	-0.823432	-1.004728	-0.441005
N98	N	-0.490099	-0.671395	-0.107672
N99	N	-0.156766	-0.338062	0.225661
C100	C	-0.789227	-1.001834	-0.379276
C101	C	-0.455893	-0.668501	-0.045942
C102	C	-0.122560	-0.335167	0.287391
C103	C	-1.023342	-1.045036	-0.426108
C104	C	-0.690009	-0.711703	-0.092775
C105	C	-0.356675	-0.378369	0.240559
C106	C	-1.089087	-1.045055	-0.426127
C107	C	-0.755754	-0.711722	-0.092794
C108	C	-0.422420	-0.378389	0.240539
C109	C	-1.082748	-0.958846	-0.332560
C110	C	-0.749414	-0.625513	0.000773
C111	C	-0.416081	-0.292180	0.334106
C112	C	-1.017004	-0.958823	-0.332547
C113	C	-0.683670	-0.625490	0.000786
C114	C	-0.350337	-0.292156	0.334120
C115	C	-0.987305	-1.001922	-0.379320
C116	C	-0.653972	-0.668589	-0.045987
C117	C	-0.320638	-0.335255	0.287347
C118	C	-0.188754	-1.001922	-0.379328
C119	C	0.144579	-0.668589	-0.045995
C120	C	0.477913	-0.335255	0.287338
C121	C	-0.118788	-1.001968	-0.379352
C122	C	0.214545	-0.668634	-0.046019
C123	C	0.547878	-0.335301	0.287315
C124	C	-0.359812	-1.185096	-0.386647
C125	C	-0.026479	-0.851762	-0.053314
C126	C	0.306854	-0.518429	0.280020
C127	C	-0.362742	-1.263199	-0.389789
C128	C	-0.029408	-0.929865	-0.056456
C129	C	0.303925	-0.596532	0.276877
C130	C	-0.383664	-0.702648	-0.412187
C131	C	-0.050330	-0.369315	-0.078854
C132	C	0.283003	-0.035981	0.254479
C133	C	-0.380918	-0.629261	-0.409254
C134	C	-0.047585	-0.295928	-0.075921
C135	C	0.285749	0.037406	0.257413
C136	C	-0.337690	-0.594371	-0.362931
C137	C	-0.004356	-0.261038	-0.029598
C138	C	0.328977	0.072296	0.303735
C139	C	-0.297200	-0.632872	-0.319544
C140	C	0.036134	-0.299539	0.013789
C141	C	0.369467	0.033795	0.347122
C142	C	-0.299943	-0.706257	-0.322482
C143	C	0.033391	-0.372924	0.010851
C144	C	0.366724	-0.039591	0.344185
C145	C	-0.324995	-0.375085	-0.349340
C146	C	0.008339	-0.041752	-0.016006
C147	C	0.341672	0.291582	0.317327
C148	C	-0.322256	-0.301694	-0.346404
C149	C	0.011077	0.031639	-0.013071
C150	C	0.344411	0.364972	0.320263
C151	C	-0.405974	-0.298089	-0.436115
C152	C	-0.072641	0.035245	-0.102782
C153	C	0.260692	0.368578	0.230552
C154	C	-0.408716	-0.371476	-0.439045
C155	C	-0.075383	-0.038142	-0.105712
C156	C	0.257951	0.295191	0.227621
C157	C	-0.368224	-0.409970	-0.395661
C158	C	-0.034890	-0.076637	-0.062328
C159	C	0.298443	0.256697	0.271006
N160	N	-0.334883	-0.519358	-0.359930
N161	N	-0.001550	-0.186025	-0.026597
N162	N	0.331783	0.147309	0.306736
N163	N	-0.371027	-0.484982	-0.398666
N164	N	-0.037694	-0.151648	-0.065333
N165	N	0.295639	0.181685	0.268000
C166	C	-0.324586	-1.034856	-0.679171
C167	C	0.008747	-0.701523	-0.345838
C168	C	0.342081	-0.368189	-0.012504
C169	C	-0.327098	-1.031912	-0.752557
C170	C	0.006235	-0.698579	-0.419223
C171	C	0.339568	-0.365246	-0.085890
C172	C	-0.366926	-0.985477	-0.787425
C173	C	-0.033593	-0.652144	-0.454092
C174	C	0.299741	-0.318811	-0.120759
C175	C	-0.404238	-0.941978	-0.748904
C176	C	-0.070905	-0.608645	-0.415571
C177	C	0.262428	-0.275312	-0.082238
C178	C	-0.401722	-0.944919	-0.675520
C179	C	-0.068389	-0.611585	-0.342187
C180	C	0.264945	-0.278252	-0.008853
C181	C	-0.378584	-0.971858	-1.006706
C182	C	-0.045251	-0.638525	-0.673372
C183	C	0.288083	-0.305192	-0.340039
C184	C	-0.381099	-0.968923	-1.080095
C185	C	-0.047766	-0.635589	-0.746762
C186	C	0.285568	-0.302256	-0.413429
C187	C	-0.303958	-1.058856	-1.083742
C188	C	0.029375	-0.725523	-0.750409
C189	C	0.362709	-0.392189	-0.417076
C190	C	-0.301448	-1.061795	-1.010356
C191	C	0.031885	-0.728462	-0.677023
C192	C	0.365219	-0.395129	-0.343690
C193	C	-0.338758	-1.018294	-0.971842
C194	C	-0.005425	-0.684960	-0.638508
C195	C	0.327909	-0.351627	-0.305175
N196	N	-0.369496	-0.982469	-0.862437
N197	N	-0.036163	-0.649136	-0.529104
N198	N	0.297170	-0.315802	-0.195771
N199	N	-0.336184	-1.021299	-0.896831
N200	N	-0.002850	-0.687966	-0.563498
N201	N	0.330483	-0.354632	-0.230164
C202	C	-0.346637	-1.009157	-0.196708
C203	C	-0.013304	-0.675824	0.136626
C204	C	0.320030	-0.342490	0.469959
C205	C	-0.343788	-1.012417	-0.118611
C206	C	-0.010455	-0.679084	0.214723
C207	C	0.322879	-0.345750	0.548056
H208	H	-0.717580	-1.080001	-0.464146
H209	H	-0.384247	-0.746667	-0.130813
H210	H	-0.050914	-0.413334	0.202520
H211	H	-1.106933	-0.923760	-0.294479
H212	H	-0.773600	-0.590427	0.038855
H213	H	-0.440267	-0.257093	0.372188
C214	C	-0.589825	-1.092277	-0.477473
C215	C	-0.256492	-0.758944	-0.144140
C216	C	0.076842	-0.425610	0.189193
H217	H	-0.620706	-1.117958	-0.505340
H218	H	-0.287373	-0.784624	-0.172007
H219	H	0.045960	-0.451291	0.161327
H220	H	-0.564391	-1.123976	-0.451843
H221	H	-0.231058	-0.790643	-0.118510
H222	H	0.102275	-0.457309	0.214823
H223	H	-0.564231	-1.064138	-0.506987
H224	H	-0.230897	-0.730805	-0.173654
H225	H	0.102436	-0.397471	0.159679
H226	H	-0.432098	-0.909494	-0.644161
H227	H	-0.098765	-0.576160	-0.310828
H228	H	0.234568	-0.242827	0.022506
C229	C	-0.419627	-0.924015	-0.964346
C230	C	-0.086294	-0.590681	-0.631012
C231	C	0.247040	-0.257348	-0.297679
H232	H	-0.412422	-0.932408	-0.915646
H233	H	-0.079089	-0.599074	-0.582313
H234	H	0.254244	-0.265741	-0.248979
H235	H	-0.462718	-0.933790	-0.976772
H236	H	-0.129385	-0.600456	-0.643439
H237	H	0.203948	-0.267123	-0.310106
H238	H	-0.409052	-0.876324	-0.974476
H239	H	-0.075719	-0.542991	-0.641142
H240	H	0.257614	-0.209658	-0.307809
H241	H	-0.436664	-0.904167	-0.777300
H242	H	-0.103331	-0.570834	-0.443967
H243	H	0.230002	-0.237501	-0.110634
H244	H	-0.706087	-0.923599	-0.294399
H245	H	-0.372753	-0.590266	0.038935
H246	H	-0.039420	-0.256933	0.372268
C247	C	-0.286074	-1.079772	-0.794925
C248	C	0.047259	-0.746439	-0.461591
C249	C	0.380593	-0.413106	-0.128258
H250	H	-0.293274	-1.071371	-0.843624
H251	H	0.040059	-0.738038	-0.510290
H252	H	0.373392	-0.404705	-0.176957
H253	H	-0.296660	-1.127455	-0.784791
H254	H	0.036674	-0.794122	-0.451457
H255	H	0.370007	-0.460789	-0.118124
H256	H	-0.242976	-1.070011	-0.782505
H257	H	0.090358	-0.736678	-0.449172
H258	H	0.423691	-0.403344	-0.115838
H259	H	-0.586812	-0.923541	-0.294374
H260	H	-0.253479	-0.590208	0.038959
H261	H	0.079854	-0.256874	0.372293
C262	C	-1.128729	-1.092487	-0.477588
C263	C	-0.795396	-0.759154	-0.144254
C264	C	-0.462063	-0.425821	0.189079
H265	H	-1.172137	-1.086327	-0.470902
H266	H	-0.838804	-0.752994	-0.137569
H267	H	-0.505471	-0.419660	0.195764
H268	H	-1.119339	-1.140113	-0.469235
H269	H	-0.786006	-0.806780	-0.135901
H270	H	-0.452672	-0.473446	0.197432
H271	H	-1.119176	-1.080274	-0.524378
H272	H	-0.785842	-0.746941	-0.191045
H273	H	-0.452509	-0.413608	0.142289
C274	C	-0.424909	-0.917840	-1.118450
C275	C	-0.091576	-0.584507	-0.785116
C276	C	0.241758	-0.251173	-0.451783
H277	H	-0.446766	-0.892348	-1.085002
H278	H	-0.113432	-0.559015	-0.751669
H279	H	0.219901	-0.225682	-0.418335
H280	H	-0.454326	-0.943555	-1.148149
H281	H	-0.120993	-0.610222	-0.814816
H282	H	0.212340	-0.276888	-0.481482
H283	H	-0.400657	-0.886094	-1.145853
H284	H	-0.067324	-0.552760	-0.812520
H285	H	0.266010	-0.219427	-0.479186
H286	H	-0.273581	-1.094272	-1.115109
H287	H	0.059752	-0.760938	-0.781775
H288	H	0.393085	-0.427605	-0.448442
C289	C	-0.977363	-0.911401	-0.281078
C290	C	-0.644029	-0.578068	0.052255
C291	C	-0.310696	-0.244735	0.385588
H292	H	-1.004468	-0.885748	-0.253218
H293	H	-0.671135	-0.552415	0.080115
H294	H	-0.337802	-0.219081	0.413449
H295	H	-0.951502	-0.879678	-0.306692
H296	H	-0.618169	-0.546344	0.026641
H297	H	-0.284836	-0.213011	0.359974
H298	H	-0.951668	-0.939526	-0.251560
H299	H	-0.618335	-0.606193	0.081774
H300	H	-0.285001	-0.272860	0.415107
C301	C	-0.280466	-0.417420	-0.301607
C302	C	0.052868	-0.084087	0.031727
C303	C	0.386201	0.249246	0.365060
H304	H	-0.254336	-0.386129	-0.273592
H305	H	0.078998	-0.052795	0.059742
H306	H	0.412331	0.280538	0.393075
H307	H	-0.255065	-0.444994	-0.329680
H308	H	0.078269	-0.111661	0.003654
H309	H	0.411602	0.221673	0.336987
H310	H	-0.304530	-0.447251	-0.272085
H311	H	0.028803	-0.113918	0.061248
H312	H	0.362137	0.219415	0.394582
C313	C	-0.257635	-1.112868	-0.972002
C314	C	0.075699	-0.779535	-0.638669
C315	C	0.409032	-0.446201	-0.305336
H316	H	-0.261484	-1.108393	-0.922781
H317	H	0.071850	-0.775060	-0.589448
H318	H	0.405183	-0.441726	-0.256114
H319	H	-0.215368	-1.102130	-0.983629
H320	H	0.117965	-0.768797	-0.650296
H321	H	0.451299	-0.435463	-0.316963
H322	H	-0.269033	-1.159596	-0.985927
H323	H	0.064300	-0.826263	-0.652594
H324	H	0.397634	-0.492929	-0.319261
C325	C	-0.990670	-1.092419	-0.477575
C326	C	-0.657337	-0.759086	-0.144242
C327	C	-0.324004	-0.425752	0.189091
H328	H	-1.021551	-1.118091	-0.505452
H329	H	-0.688217	-0.784757	-0.172119
H330	H	-0.354884	-0.451424	0.161214
H331	H	-0.965231	-1.124127	-0.451964
H332	H	-0.631898	-0.790794	-0.118631
H333	H	-0.298565	-0.457460	0.214703
H334	H	-0.965081	-1.064261	-0.507078
H335	H	-0.631748	-0.730928	-0.173744
H336	H	-0.298414	-0.397594	0.159589
C337	C	-0.249651	-0.594495	-0.268588
C338	C	0.083682	-0.261162	0.064745
C339	C	0.417016	0.072172	0.398078
H340	H	-0.253820	-0.545276	-0.273046
H341	H	0.079513	-0.211943	0.060287
H342	H	0.412847	0.121391	0.393621
H343	H	-0.208175	-0.606129	-0.279438
H344	H	0.125158	-0.272795	0.053896
H345	H	0.458492	0.060538	0.387229
H346	H	-0.257634	-0.608399	-0.221837
H347	H	0.075699	-0.275066	0.111497
H348	H	0.409032	0.058267	0.444830
C349	C	-0.456264	-0.409849	-0.490005
C350	C	-0.122930	-0.076516	-0.156671
C351	C	0.210403	0.256817	0.176662
H352	H	-0.479979	-0.376411	-0.515428
H353	H	-0.146646	-0.043078	-0.182095
H354	H	0.186688	0.290255	0.151238
H355	H	-0.483800	-0.439536	-0.464216
H356	H	-0.150466	-0.106203	-0.130883
H357	H	0.182867	0.227130	0.202451
H358	H	-0.434342	-0.437267	-0.521819
H359	H	-0.101009	-0.103934	-0.188485
H360	H	0.232325	0.229399	0.144848
H361	H	-0.418867	-0.731050	-0.449906
H362	H	-0.085534	-0.397717	-0.116573
H363	H	0.247799	-0.064383	0.216761
H364	H	-0.413886	-0.597921	-0.444582
H365	H	-0.080553	-0.264588	-0.111249
H366	H	0.252780	0.068746	0.222084
C367	C	-0.450506	-0.255744	-0.483840
C368	C	-0.117172	0.077590	-0.150506
C369	C	0.216161	0.410923	0.182827
H370	H	-0.442679	-0.207041	-0.475462
H371	H	-0.109346	0.126293	-0.142129
H372	H	0.223988	0.459626	0.191204
H373	H	-0.492880	-0.268161	-0.473954
H374	H	-0.159547	0.065173	-0.140621
H375	H	0.173786	0.398506	0.192713
H376	H	-0.443420	-0.265898	-0.531554
H377	H	-0.110087	0.067435	-0.198221
H378	H	0.223246	0.400769	0.135112
C379	C	-0.274699	-0.263316	-0.295452
C380	C	0.058635	0.070017	0.037882
C381	C	0.391968	0.403350	0.371215
H382	H	-0.250971	-0.296752	-0.270039
H383	H	0.082362	0.036581	0.063294
H384	H	0.415696	0.369915	0.396628
H385	H	-0.296612	-0.235897	-0.263638
H386	H	0.036721	0.097437	0.069696
H387	H	0.370054	0.430770	0.403029
H388	H	-0.247165	-0.233631	-0.321252
H389	H	0.086168	0.099703	0.012082
H390	H	0.419502	0.433036	0.345415
H391	H	-0.292156	-1.072670	-0.650786
H392	H	0.041177	-0.739337	-0.317453
H393	H	0.374511	-0.406004	0.015880
C394	C	-0.255407	-0.748603	-0.274760
C395	C	0.077926	-0.415269	0.058574
C396	C	0.411259	-0.081936	0.391907
H397	H	-0.229272	-0.717314	-0.246747
H398	H	0.104061	-0.383981	0.086586
H399	H	0.437395	-0.050648	0.419920
H400	H	-0.230013	-0.776171	-0.302845
H401	H	0.103321	-0.442838	0.030488
H402	H	0.436654	-0.109504	0.363822
H403	H	-0.279464	-0.778439	-0.245235
H404	H	0.053869	-0.445106	0.088098
H405	H	0.387203	-0.111773	0.421432
