data_functionalizedCrystal
_audit_creation_method	'MofGen! by Chris Wilmer'
_symmetry_space_group_name_H-M	'P1'
_symmetry_Int_Tables_number	1
_symmetry_cell_setting	triclinic
loop_
_symmetry_equiv_pos_as_xyz
  x,y,z
_cell_length_a	10.654562
_cell_length_b	14.519731
_cell_length_c	9.730223
_cell_angle_alpha	89.997677
_cell_angle_beta	89.996961
_cell_angle_gamma	84.089478
loop_
_atom_site_label
_atom_site_type_symbol
_atom_site_fract_x
_atom_site_fract_y
_atom_site_fract_z
O1	O	1.666592	0.129583	-0.114384
O2	O	1.300999	0.141911	-0.114367
O3	O	1.493475	0.001560	-0.114363
O4	O	1.474116	0.269934	-0.114387
O5	O	1.493472	0.001564	0.114217
O6	O	1.300996	0.141915	0.114213
O7	O	1.666590	0.129586	0.114196
Zn8	Zn	1.483793	0.135751	0.150497
Zn9	Zn	1.483796	0.135747	-0.150667
O10	O	1.474114	0.269937	0.114193
C11	C	1.254208	0.141006	-0.000075
C12	C	1.114792	0.138290	-0.000068
C13	C	1.049272	0.137025	0.124520
C14	C	0.918274	0.134481	0.124498
C15	C	0.918326	0.134470	-0.124713
C16	C	1.049323	0.137008	-0.124689
C17	C	1.049240	0.137035	0.268400
C18	C	0.918242	0.134491	0.268378
C19	C	1.492566	-0.032802	-0.000073
C20	C	1.489848	-0.135196	-0.000072
C21	C	1.487640	-0.218352	-0.000075
C22	C	1.484880	-0.322675	-0.000085
C23	C	1.482690	-0.405826	-0.000094
C24	C	1.479930	-0.510155	-0.000102
C25	C	1.713380	0.130492	-0.000099
C26	C	1.852797	0.133208	-0.000115
C27	C	1.475022	0.304300	-0.000101
C28	C	1.477740	0.406694	-0.000111
N29	N	1.483800	0.135754	0.356033
N30	N	1.483799	0.135737	-0.356204
C31	C	1.569050	0.073628	0.427961
C32	C	1.569047	0.073616	0.571844
C33	C	1.398539	0.197866	0.571859
C34	C	1.398537	0.197872	0.427978
C35	C	1.667495	0.001896	0.427953
C36	C	1.667492	0.001885	0.571836
H37	H	1.078174	0.204295	0.313037
O38	O	1.642544	-0.082588	0.381201
C39	C	1.531899	-0.072748	0.300779
H40	H	1.515709	0.001079	0.259820
H41	H	1.447937	-0.088023	0.366541
C42	C	1.566208	-0.231771	0.229731
C43	C	1.546330	-0.141097	0.179415
H44	H	1.575106	-0.273934	0.154871
H45	H	1.640750	-0.238402	0.283917
H46	H	1.496236	-0.244487	0.284533
H47	H	1.616308	-0.128379	0.124629
H48	H	1.471800	-0.134466	0.125217
H49	H	1.329109	0.248452	0.369416
O50	O	1.632047	-0.078032	0.625264
C51	C	1.730668	-0.121073	0.706738
H52	H	1.794013	-0.067077	0.742390
H53	H	1.788478	-0.176399	0.643644
C54	C	1.596932	-0.232612	0.789018
C55	C	1.674728	-0.166291	0.832816
H56	H	1.562427	-0.260509	0.866785
H57	H	1.530490	-0.203618	0.734124
H58	H	1.645119	-0.278708	0.736438
H59	H	1.626537	-0.120191	0.885379
H60	H	1.741161	-0.195279	0.887722
H61	H	1.758465	0.024360	0.383321
H62	H	1.763853	0.017689	0.610881
H63	H	1.102667	0.138023	-0.226140
H64	H	0.865006	0.133426	-0.226174
H65	H	1.096105	0.073303	0.323659
O66	O	0.883861	0.054169	0.321512
C67	C	0.938101	-0.021153	0.242705
H68	H	1.024764	-0.000334	0.186586
H69	H	0.866314	-0.041697	0.164527
C70	C	0.870811	-0.129374	0.406961
C71	C	0.977259	-0.103806	0.338044
H72	H	0.894961	-0.180360	0.465768
H73	H	0.834264	-0.078628	0.460053
H74	H	0.810999	-0.146487	0.341799
H75	H	1.037062	-0.086682	0.403205
H76	H	1.013817	-0.154551	0.284965
H77	H	0.871349	0.198227	0.323607
H78	H	1.329120	0.248440	0.630452
