data_functionalizedCrystal
_audit_creation_method	'MofGen! by Chris Wilmer'
_symmetry_space_group_name_H-M	'P1'
_symmetry_Int_Tables_number	1
_symmetry_cell_setting	triclinic
loop_
_symmetry_equiv_pos_as_xyz
  x,y,z
_cell_length_a	27.732048
_cell_length_b	19.188930
_cell_length_c	17.666332
_cell_angle_alpha	90.023234
_cell_angle_beta	89.988553
_cell_angle_gamma	97.106284
loop_
_atom_site_label
_atom_site_type_symbol
_atom_site_fract_x
_atom_site_fract_y
_atom_site_fract_z
O1	O	0.060348	-0.925765	-0.063200
O2	O	0.310348	-0.675765	0.186800
O3	O	0.560348	-0.425765	0.436800
O4	O	0.810348	-0.175765	0.686800
O5	O	0.068472	-0.722402	-0.063149
O6	O	0.318472	-0.472402	0.186851
O7	O	0.568472	-0.222402	0.436851
O8	O	0.818472	0.027598	0.686851
O9	O	-0.005968	-0.830399	-0.063161
O10	O	0.244032	-0.580399	0.186839
O11	O	0.494032	-0.330399	0.436839
O12	O	0.744032	-0.080399	0.686839
O13	O	0.134787	-0.817767	-0.063187
O14	O	0.384787	-0.567767	0.186813
O15	O	0.634787	-0.317767	0.436813
O16	O	0.884787	-0.067767	0.686813
O17	O	-0.005971	-0.830380	0.062735
O18	O	0.244029	-0.580380	0.312735
O19	O	0.494029	-0.330380	0.562735
O20	O	0.744029	-0.080380	0.812735
O21	O	0.068468	-0.722383	0.062748
O22	O	0.318468	-0.472383	0.312748
O23	O	0.568468	-0.222383	0.562748
O24	O	0.818468	0.027617	0.812748
O25	O	0.060344	-0.925746	0.062697
O26	O	0.310344	-0.675746	0.312697
O27	O	0.560344	-0.425746	0.562697
O28	O	0.810344	-0.175746	0.812697
Cu29	Cu	0.064406	-0.824063	0.074218
Cu30	Cu	0.314406	-0.574063	0.324218
Cu31	Cu	0.564406	-0.324063	0.574218
Cu32	Cu	0.814406	-0.074063	0.824218
Cu33	Cu	0.064410	-0.824085	-0.074670
Cu34	Cu	0.314410	-0.574085	0.175330
Cu35	Cu	0.564410	-0.324085	0.425330
Cu36	Cu	0.814410	-0.074085	0.675330
O37	O	0.134783	-0.817748	0.062710
O38	O	0.384783	-0.567748	0.312710
O39	O	0.634783	-0.317748	0.562710
O40	O	0.884783	-0.067748	0.812710
C41	C	0.068207	-0.696383	-0.000194
C42	C	0.318207	-0.446383	0.249806
C43	C	0.568207	-0.196383	0.499806
C44	C	0.818207	0.053617	0.749806
C45	C	0.067417	-0.618883	-0.000174
C46	C	0.317417	-0.368883	0.249826
C47	C	0.567417	-0.118883	0.499826
C48	C	0.817417	0.131117	0.749826
C49	C	-0.023977	-0.830125	-0.000211
C50	C	0.226023	-0.580125	0.249789
C51	C	0.476023	-0.330125	0.499789
C52	C	0.726023	-0.080125	0.749789
C53	C	-0.077635	-0.829326	-0.000204
C54	C	0.172365	-0.579326	0.249796
C55	C	0.422365	-0.329326	0.499796
C56	C	0.672365	-0.079326	0.749796
C57	C	0.060609	-0.951765	-0.000260
C58	C	0.310609	-0.701765	0.249740
C59	C	0.560609	-0.451765	0.499740
C60	C	0.810609	-0.201765	0.749740
C61	C	0.061399	-1.029264	-0.000285
C62	C	0.311399	-0.779264	0.249715
C63	C	0.561399	-0.529264	0.499715
C64	C	0.811399	-0.279264	0.749715
C65	C	-0.416270	-0.888119	-0.000258
C66	C	-0.166270	-0.638119	0.249742
C67	C	0.083730	-0.388119	0.499742
C68	C	0.333730	-0.138119	0.749742
C69	C	-0.617939	-0.885157	-0.000268
C70	C	-0.367939	-0.635157	0.249732
C71	C	-0.117939	-0.385157	0.499732
C72	C	0.132061	-0.135157	0.749732
O73	O	-0.649030	-0.938918	-0.000314
O74	O	-0.399030	-0.688918	0.249686
O75	O	-0.149030	-0.438918	0.499686
O76	O	0.100970	-0.188918	0.749686
N77	N	-0.637258	-0.821118	-0.000251
N78	N	-0.387258	-0.571118	0.249749
N79	N	-0.137258	-0.321118	0.499749
N80	N	0.112742	-0.071118	0.749749
C81	C	-0.606157	-0.757816	-0.000237
C82	C	-0.356157	-0.507816	0.249763
C83	C	-0.106157	-0.257816	0.499763
C84	C	0.143843	-0.007816	0.749763
O85	O	-0.627217	-0.703280	-0.000231
O86	O	-0.377217	-0.453280	0.249769
O87	O	-0.127217	-0.203280	0.499769
O88	O	0.122783	0.046720	0.749769
C89	C	-0.404489	-0.760780	-0.000233
C90	C	-0.154489	-0.510780	0.249767
C91	C	0.095511	-0.260780	0.499767
C92	C	0.345511	-0.010780	0.749767
C93	C	-0.385173	-0.824822	-0.000242
C94	C	-0.135173	-0.574822	0.249758
C95	C	0.114827	-0.324822	0.499758
C96	C	0.364827	-0.074822	0.749758
C97	C	-0.396953	-0.952156	-0.000268
C98	C	-0.146953	-0.702156	0.249732
C99	C	0.103047	-0.452156	0.499732
C100	C	0.353047	-0.202156	0.749732
C101	C	-0.346539	-0.952896	-0.000261
C102	C	-0.096539	-0.702896	0.249739
C103	C	0.153461	-0.452896	0.499739
C104	C	0.403461	-0.202896	0.749739
C105	C	-0.315441	-0.889599	-0.000245
C106	C	-0.065441	-0.639599	0.249755
C107	C	0.184559	-0.389599	0.499755
C108	C	0.434559	-0.139599	0.749755
C109	C	-0.334759	-0.825562	-0.000235
C110	C	-0.084759	-0.575562	0.249765
C111	C	0.165241	-0.325562	0.499765
C112	C	0.415241	-0.075562	0.749765
C113	C	-0.373389	-0.697478	-0.000224
C114	C	-0.123389	-0.447478	0.249776
C115	C	0.126611	-0.197478	0.499776
C116	C	0.376611	0.052522	0.749776
C117	C	-0.322969	-0.698225	-0.000225
C118	C	-0.072969	-0.448225	0.249775
C119	C	0.177031	-0.198225	0.499775
C120	C	0.427031	0.051775	0.749775
C121	C	-0.303653	-0.762267	-0.000234
C122	C	-0.053653	-0.512267	0.249766
C123	C	0.196347	-0.262267	0.499766
C124	C	0.446347	-0.012267	0.749766
C125	C	-0.253247	-0.763005	-0.000212
C126	C	-0.003247	-0.513005	0.249788
C127	C	0.246753	-0.263005	0.499788
C128	C	0.496753	-0.013005	0.749788
N129	N	-0.233928	-0.827043	-0.000229
N130	N	0.016072	-0.577043	0.249771
N131	N	0.266072	-0.327043	0.499771
N132	N	0.516072	-0.077043	0.749771
C133	C	-0.265025	-0.890340	-0.000245
C134	C	-0.015025	-0.640340	0.249755
C135	C	0.234975	-0.390340	0.499755
C136	C	0.484975	-0.140340	0.749755
C137	C	-0.712036	-0.756265	-0.000238
C138	C	-0.462036	-0.506265	0.249762
C139	C	-0.212036	-0.256265	0.499762
C140	C	0.037964	-0.006265	0.749762
C141	C	-0.762452	-0.755524	-0.000238
C142	C	-0.512452	-0.505524	0.249762
C143	C	-0.262452	-0.255524	0.499762
C144	C	-0.012452	-0.005524	0.749762
C145	C	-0.774231	-0.882865	-0.000270
C146	C	-0.524231	-0.632865	0.249730
C147	C	-0.274231	-0.382865	0.499730
C148	C	-0.024231	-0.132865	0.749730
C149	C	-0.723813	-0.883605	-0.000265
C150	C	-0.473813	-0.633605	0.249735
C151	C	-0.223813	-0.383605	0.499735
C152	C	0.026187	-0.133605	0.749735
C153	C	-0.692716	-0.820303	-0.000254
C154	C	-0.442716	-0.570303	0.249746
C155	C	-0.192716	-0.320303	0.499746
C156	C	0.057284	-0.070303	0.749746
C157	C	-0.159151	-0.891889	-0.000231
C158	C	0.090849	-0.641889	0.249769
C159	C	0.340849	-0.391889	0.499769
C160	C	0.590849	-0.141889	0.749769
C161	C	-0.108732	-0.892623	-0.000221
C162	C	0.141268	-0.642623	0.249779
C163	C	0.391268	-0.392623	0.499779
C164	C	0.641268	-0.142623	0.749779
C165	C	-0.096958	-0.765283	-0.000193
C166	C	0.153042	-0.515283	0.249807
C167	C	0.403042	-0.265283	0.499807
C168	C	0.653042	-0.015283	0.749807
C169	C	-0.147373	-0.764549	-0.000198
C170	C	0.102627	-0.514549	0.249802
C171	C	0.352627	-0.264549	0.499802
C172	C	0.602627	-0.014549	0.749802
C173	C	-0.178468	-0.827857	-0.000220
C174	C	0.071532	-0.577857	0.249780
C175	C	0.321532	-0.327857	0.499780
C176	C	0.571532	-0.077857	0.749780
O177	O	-0.222127	-0.709272	-0.000174
O178	O	0.027873	-0.459272	0.249826
O179	O	0.277873	-0.209272	0.499826
O180	O	0.527873	0.040728	0.749826
O181	O	-0.243956	-0.944868	-0.000268
O182	O	0.006044	-0.694868	0.249732
O183	O	0.256044	-0.444868	0.499732
O184	O	0.506044	-0.194868	0.749732
C185	C	-0.466684	-0.887379	-0.000265
C186	C	-0.216684	-0.637379	0.249735
C187	C	0.033316	-0.387379	0.499735
C188	C	0.283316	-0.137379	0.749735
C189	C	-0.486001	-0.823342	-0.000255
C190	C	-0.236001	-0.573342	0.249745
C191	C	0.013999	-0.323342	0.499745
C192	C	0.263999	-0.073342	0.749745
C193	C	-0.454904	-0.760045	-0.000238
C194	C	-0.204904	-0.510045	0.249762
C195	C	0.045096	-0.260045	0.499762
C196	C	0.295096	-0.010045	0.749762
C197	C	-0.536418	-0.822601	-0.000254
C198	C	-0.286418	-0.572601	0.249746
C199	C	-0.036418	-0.322601	0.499746
C200	C	0.213582	-0.072601	0.749746
C201	C	-0.567515	-0.885898	-0.000271
C202	C	-0.317515	-0.635898	0.249729
C203	C	-0.067515	-0.385898	0.499729
C204	C	0.182485	-0.135898	0.749729
C205	C	-0.548195	-0.949936	-0.000288
C206	C	-0.298195	-0.699936	0.249712
C207	C	-0.048195	-0.449936	0.499712
C208	C	0.201805	-0.199936	0.749712
C209	C	-0.497781	-0.950676	-0.000281
C210	C	-0.247781	-0.700676	0.249719
C211	C	0.002219	-0.450676	0.499719
C212	C	0.252219	-0.200676	0.749719
C213	C	-0.474223	-0.696007	-0.000222
C214	C	-0.224223	-0.446007	0.249778
C215	C	0.025777	-0.196007	0.499778
C216	C	0.275777	0.053993	0.749778
C217	C	-0.524638	-0.695272	-0.000227
C218	C	-0.274638	-0.445272	0.249773
C219	C	-0.024638	-0.195272	0.499773
C220	C	0.225362	0.054728	0.749773
C221	C	-0.555735	-0.758569	-0.000244
C222	C	-0.305735	-0.508569	0.249756
C223	C	-0.055735	-0.258569	0.499756
C224	C	0.194265	-0.008569	0.749756
C225	C	0.152793	-0.818023	-0.000243
C226	C	0.402793	-0.568023	0.249757
C227	C	0.652793	-0.318023	0.499757
C228	C	0.902793	-0.068023	0.749757
C229	C	0.206450	-0.818821	-0.000254
C230	C	0.456450	-0.568821	0.249746
C231	C	0.706450	-0.318821	0.499746
C232	C	0.956450	-0.068821	0.749746
N233	N	0.064402	-0.824052	0.178937
N234	N	0.314402	-0.574052	0.428937
N235	N	0.564402	-0.324052	0.678937
N236	N	0.814402	-0.074052	0.928937
C237	C	0.111096	-0.573681	-0.000194
C238	C	0.361096	-0.323681	0.249806
C239	C	0.611096	-0.073681	0.499806
C240	C	0.861096	0.176319	0.749806
C241	C	0.110354	-0.500862	-0.000202
C242	C	0.360354	-0.250862	0.249798
C243	C	0.610354	-0.000862	0.499798
C244	C	0.860354	0.249138	0.749798
C245	C	0.065931	-0.473249	-0.000205
C246	C	0.315931	-0.223249	0.249795
C247	C	0.565931	0.026751	0.499795
C248	C	0.815931	0.276751	0.749795
C249	C	0.022246	-0.518461	-0.000181
C250	C	0.272246	-0.268461	0.249819
C251	C	0.522246	-0.018461	0.499819
C252	C	0.772246	0.231539	0.749819
C253	C	0.022990	-0.591278	-0.000165
C254	C	0.272990	-0.341278	0.249835
C255	C	0.522990	-0.091278	0.499835
C256	C	0.772990	0.158722	0.749835
N257	N	0.031976	-0.365491	-0.043078
N258	N	0.281976	-0.115491	0.206922
N259	N	0.531976	0.134509	0.456922
N260	N	0.781976	0.384509	0.706922
N261	N	0.031273	-0.296317	-0.043094
N262	N	0.281273	-0.046317	0.206906
N263	N	0.531273	0.203683	0.456906
N264	N	0.781273	0.453683	0.706906
C265	C	0.063689	-0.253854	-0.000251
C266	C	0.313689	-0.003854	0.249749
C267	C	0.563689	0.246146	0.499749
C268	C	0.813689	0.496146	0.749749
N269	N	0.096841	-0.283177	0.042600
N270	N	0.346841	-0.033177	0.292600
N271	N	0.596841	0.216823	0.542600
N272	N	0.846841	0.466823	0.792600
N273	N	0.097546	-0.352357	0.042613
N274	N	0.347546	-0.102357	0.292613
N275	N	0.597546	0.147643	0.542613
N276	N	0.847546	0.397643	0.792613
C277	C	0.065120	-0.394291	-0.000222
C278	C	0.315120	-0.144291	0.249778
C279	C	0.565120	0.105709	0.499778
C280	C	0.815120	0.355709	0.749778
C281	C	0.106566	-0.129692	-0.000279
C282	C	0.356566	0.120308	0.249721
C283	C	0.606566	0.370308	0.499721
C284	C	0.856566	0.620308	0.749721
C285	C	0.105822	-0.056872	-0.000282
C286	C	0.355822	0.193128	0.249718
C287	C	0.605822	0.443128	0.499718
C288	C	0.855822	0.693128	0.749718
C289	C	0.017714	-0.074473	-0.000269
C290	C	0.267714	0.175527	0.249731
C291	C	0.517714	0.425527	0.499731
C292	C	0.767714	0.675527	0.749731
C293	C	0.018459	-0.147292	-0.000258
C294	C	0.268459	0.102708	0.249742
C295	C	0.518459	0.352708	0.499742
C296	C	0.768459	0.602708	0.749742
C297	C	0.062886	-0.174897	-0.000267
C298	C	0.312886	0.075103	0.249733
C299	C	0.562886	0.325103	0.499733
C300	C	0.812886	0.575103	0.749733
N301	N	0.064410	-0.824101	-0.179389
N302	N	0.314410	-0.574101	0.070611
N303	N	0.564410	-0.324101	0.320611
N304	N	0.814410	-0.074101	0.570611
C305	C	0.031456	-0.871889	0.218541
C306	C	0.281456	-0.621889	0.468541
C307	C	0.531456	-0.371889	0.718541
C308	C	0.781456	-0.121889	0.968541
C309	C	0.031454	-0.871893	0.297789
C310	C	0.281454	-0.621893	0.547789
C311	C	0.531454	-0.371893	0.797789
C312	C	0.781454	-0.121893	1.047789
C313	C	0.064406	-0.824067	0.337429
C314	C	0.314406	-0.574067	0.587429
C315	C	0.564406	-0.324067	0.837429
C316	C	0.814406	-0.074067	1.087429
C317	C	0.097354	-0.776221	0.297816
C318	C	0.347354	-0.526221	0.547816
C319	C	0.597354	-0.276221	0.797816
C320	C	0.847354	-0.026221	1.047816
C321	C	0.097352	-0.776214	0.218570
C322	C	0.347352	-0.526214	0.468570
C323	C	0.597352	-0.276214	0.718570
C324	C	0.847352	-0.026214	0.968570
N325	N	0.107196	-0.814718	0.461842
N326	N	0.357196	-0.564718	0.711842
N327	N	0.607196	-0.314718	0.961842
N328	N	0.857196	-0.064718	1.211842
N329	N	0.107196	-0.814729	0.537122
N330	N	0.357196	-0.564729	0.787122
N331	N	0.607196	-0.314729	1.037122
N332	N	0.857196	-0.064729	1.287122
C333	C	0.064412	-0.824085	0.576193
C334	C	0.314412	-0.574085	0.826193
C335	C	0.564412	-0.324085	1.076193
C336	C	0.814412	-0.074085	1.326193
N337	N	0.021627	-0.833444	0.537140
N338	N	0.271627	-0.583444	0.787140
N339	N	0.521627	-0.333444	1.037140
N340	N	0.771627	-0.083444	1.287140
N341	N	0.021628	-0.833436	0.461853
N342	N	0.271628	-0.583436	0.711853
N343	N	0.521628	-0.333436	0.961853
N344	N	0.771628	-0.083436	1.211853
C345	C	0.064411	-0.824069	0.423359
C346	C	0.314411	-0.574069	0.673359
C347	C	0.564411	-0.324069	0.923359
C348	C	0.814411	-0.074069	1.173359
C349	C	0.031462	-0.871929	0.701727
C350	C	0.281462	-0.621929	0.951727
C351	C	0.531462	-0.371929	1.201727
C352	C	0.781462	-0.121929	1.451727
C353	C	0.031459	-0.871928	0.780976
C354	C	0.281459	-0.621928	1.030976
C355	C	0.531459	-0.371928	1.280976
C356	C	0.781459	-0.121928	1.530976
C357	C	0.097363	-0.776260	0.781001
C358	C	0.347363	-0.526260	1.031001
C359	C	0.597363	-0.276260	1.281001
C360	C	0.847363	-0.026260	1.531001
C361	C	0.097361	-0.776257	0.701754
C362	C	0.347361	-0.526257	0.951754
C363	C	0.597361	-0.276257	1.201754
C364	C	0.847361	-0.026257	1.451754
C365	C	0.064411	-0.824096	0.662121
C366	C	0.314411	-0.574096	0.912121
C367	C	0.564411	-0.324096	1.162121
C368	C	0.814411	-0.074096	1.412121
H369	H	-0.093007	-0.944776	-0.000226
H370	H	0.156993	-0.694776	0.249774
H371	H	0.406993	-0.444776	0.499774
H372	H	0.656993	-0.194776	0.749774
H373	H	0.147272	-0.596152	-0.000202
H374	H	0.397272	-0.346152	0.249798
H375	H	0.647272	-0.096152	0.499798
H376	H	0.897272	0.153848	0.749798
F377	F	-0.003613	-0.922810	0.339946
F378	F	0.246387	-0.672810	0.589946
F379	F	0.496387	-0.422810	0.839946
F380	F	0.746387	-0.172810	1.089946
H381	H	0.124191	-0.737317	0.813276
H382	H	0.374191	-0.487317	1.063276
H383	H	0.624191	-0.237317	1.313276
H384	H	0.874191	0.012683	1.563276
H385	H	-0.013923	-0.495974	-0.000195
H386	H	0.236077	-0.245974	0.249805
H387	H	0.486077	0.004026	0.499805
H388	H	0.736077	0.254026	0.749805
F389	F	-0.807335	-0.950230	-0.000289
F390	F	-0.557335	-0.700230	0.249711
F391	F	-0.307335	-0.450230	0.499711
F392	F	-0.057335	-0.200230	0.749711
H393	H	0.124191	-0.737307	0.669506
H394	H	0.374191	-0.487307	0.919506
H395	H	0.624191	-0.237307	1.169506
H396	H	0.874191	0.012693	1.419506
F397	F	-0.192238	-0.959269	-0.000254
F398	F	0.057762	-0.709269	0.249746
F399	F	0.307762	-0.459269	0.499746
F400	F	0.557762	-0.209269	0.749746
H401	H	0.142741	-0.152169	-0.000275
H402	H	0.392741	0.097831	0.249725
H403	H	0.642741	0.347831	0.499725
H404	H	0.892741	0.597831	0.749725
H405	H	-0.778175	-0.703375	-0.000217
H406	H	-0.528175	-0.453375	0.249783
H407	H	-0.278175	-0.203375	0.499783
H408	H	-0.028175	0.046625	0.749783
H409	H	-0.330816	-1.005046	-0.000272
H410	H	-0.080816	-0.755046	0.249728
H411	H	0.169184	-0.505046	0.499728
H412	H	0.419184	-0.255046	0.749728
F413	F	-0.003613	-0.922799	0.176363
F414	F	0.246387	-0.672799	0.426363
F415	F	0.496387	-0.422799	0.676363
F416	F	0.746387	-0.172799	0.926363
F417	F	0.132422	-0.725319	0.340004
F418	F	0.382422	-0.475319	0.590004
F419	F	0.632422	-0.225319	0.840004
F420	F	0.882422	0.024681	1.090004
F421	F	0.132419	-0.725298	0.176418
F422	F	0.382419	-0.475298	0.426418
F423	F	0.632419	-0.225298	0.676418
F424	F	0.882419	0.024702	0.926418
H425	H	0.145923	-0.464051	-0.000216
H426	H	0.395923	-0.214051	0.249784
H427	H	0.645923	0.035949	0.499784
H428	H	0.895923	0.285949	0.749784
F429	F	-0.003609	-0.922840	0.659546
F430	F	0.246391	-0.672840	0.909546
F431	F	0.496391	-0.422840	1.159546
F432	F	0.746391	-0.172840	1.409546
F433	F	-0.581300	-1.017302	-0.000301
F434	F	-0.331300	-0.767302	0.249699
F435	F	-0.081300	-0.517302	0.499699
F436	F	0.168700	-0.267302	0.749699
F437	F	-0.028031	-0.195402	-0.000241
F438	F	0.221969	0.054598	0.249759
F439	F	0.471969	0.304598	0.499759
F440	F	0.721969	0.554598	0.749759
F441	F	-0.289877	-0.630849	-0.000215
F442	F	-0.039877	-0.380849	0.249785
F443	F	0.210123	-0.130849	0.499785
F444	F	0.460123	0.119151	0.749785
F445	F	-0.003611	-0.922841	0.823127
F446	F	0.246389	-0.672841	1.073127
F447	F	0.496389	-0.422841	1.323127
F448	F	0.746389	-0.172841	1.573127
F449	F	-0.430042	-1.019532	-0.000286
F450	F	-0.180042	-0.769532	0.249714
F451	F	0.069958	-0.519532	0.499714
F452	F	0.319958	-0.269532	0.749714
H453	H	-0.018456	-0.051991	-0.000319
H454	H	0.231544	0.198009	0.249681
H455	H	0.481544	0.448009	0.499681
H456	H	0.731544	0.698009	0.749681
F457	F	-0.703260	-0.951766	-0.000274
F458	F	-0.453260	-0.701766	0.249726
F459	F	-0.203260	-0.451766	0.499726
F460	F	0.046740	-0.201766	0.749726
H461	H	-0.012580	-0.628083	-0.000150
H462	H	0.237420	-0.378083	0.249850
H463	H	0.487420	-0.128083	0.499850
H464	H	0.737420	0.121917	0.749850
H465	H	-0.686720	-0.704714	-0.000229
H466	H	-0.436720	-0.454714	0.249771
H467	H	-0.186720	-0.204714	0.499771
H468	H	0.063280	0.045286	0.749771
H469	H	0.141392	-0.020068	-0.000294
H470	H	0.391392	0.229932	0.249706
H471	H	0.641392	0.479932	0.499706
H472	H	0.891392	0.729932	0.749706
H473	H	-0.389107	-0.645328	-0.000221
H474	H	-0.139107	-0.395328	0.249779
H475	H	0.110893	-0.145328	0.499779
H476	H	0.360893	0.104672	0.749779
F477	F	-0.167932	-0.696388	-0.000175
F478	F	0.082068	-0.446388	0.249825
F479	F	0.332068	-0.196388	0.499825
F480	F	0.582068	0.053612	0.749825
H481	H	-0.482059	-1.002826	-0.000289
H482	H	-0.232059	-0.752826	0.249711
H483	H	0.017941	-0.502826	0.499711
H484	H	0.267941	-0.252826	0.749711
F485	F	-0.063854	-0.697922	-0.000175
F486	F	0.186146	-0.447922	0.249825
F487	F	0.436146	-0.197922	0.499825
F488	F	0.686146	0.052078	0.749825
H489	H	-0.448908	-0.644461	-0.000210
H490	H	-0.198908	-0.394461	0.249790
H491	H	0.051092	-0.144461	0.499790
H492	H	0.301092	0.105539	0.749790
F493	F	-0.545190	-0.627105	-0.000213
F494	F	-0.295190	-0.377105	0.249787
F495	F	-0.045190	-0.127105	0.499787
F496	F	0.204810	0.122895	0.749787
