data_functionalizedCrystal
_audit_creation_method	'MofGen! by Chris Wilmer'
_symmetry_space_group_name_H-M	'P1'
_symmetry_Int_Tables_number	1
_symmetry_cell_setting	triclinic
loop_
_symmetry_equiv_pos_as_xyz
  x,y,z
_cell_length_a	16.120530
_cell_length_b	15.297327
_cell_length_c	15.296720
_cell_angle_alpha	72.680778
_cell_angle_beta	97.285319
_cell_angle_gamma	82.677776
loop_
_atom_site_label
_atom_site_type_symbol
_atom_site_fract_x
_atom_site_fract_y
_atom_site_fract_z
Zn1	Zn	1.083362	0.533176	-0.661647
Zn2	Zn	1.083269	0.661792	-0.533035
Zn3	Zn	0.975419	0.499135	-0.499009
Zn4	Zn	0.918250	0.677674	-0.677540
O5	O	1.015075	0.592944	-0.592808
O6	O	1.197586	0.557837	-0.652175
O7	O	1.092850	0.619322	-0.399981
O8	O	1.013702	0.375105	-0.499692
O9	O	1.197517	0.652330	-0.557684
O10	O	1.093008	0.400115	-0.619181
O11	O	1.013612	0.499819	-0.374982
O12	O	0.853600	0.515219	-0.515103
O13	O	0.916266	0.679399	-0.803973
O14	O	0.811598	0.646391	-0.646270
O15	O	1.037573	0.573237	-0.792296
O16	O	1.037415	0.792444	-0.573095
O17	O	0.916176	0.804113	-0.679263
C18	C	0.970600	0.831613	-0.631618
C19	C	0.951643	0.933727	-0.648256
C20	C	0.802979	0.578836	-0.578720
C21	C	0.712235	0.572825	-0.572718
C22	C	0.970553	0.631887	-0.832395
C23	C	0.951580	0.648482	-0.934493
C24	C	0.546085	0.561832	-0.561765
C25	C	0.484881	0.624135	-0.623929
C26	C	0.392429	0.618018	-0.617835
C27	C	0.638546	0.567948	-0.567858
C28	C	1.228000	0.607109	-0.606952
C29	C	1.318735	0.613145	-0.612979
C30	C	1.059742	0.353348	-0.553868
C31	C	1.078777	0.251246	-0.537275
C32	C	1.150846	1.197179	-0.474225
C33	C	1.168658	1.101237	-0.458587
C34	C	1.114406	1.059355	-0.506003
C35	C	1.042339	1.113424	-0.569059
C36	C	1.024521	1.209373	-0.584693
C37	C	0.988081	1.071550	-0.616471
C38	C	0.916013	1.125618	-0.679527
C39	C	0.898200	1.221558	-0.695158
C40	C	0.952452	1.263441	-0.647742
C41	C	1.005899	0.975600	-0.600838
C42	C	0.879573	0.987794	-0.711306
C43	C	0.861761	1.083736	-0.726943
C44	C	1.150737	0.474177	-1.197974
C45	C	1.168568	0.458587	-1.102048
C46	C	1.114322	0.506059	-1.060155
C47	C	1.042243	0.569125	-1.114196
C48	C	1.024414	0.584722	-1.210132
C49	C	0.988000	0.616604	-1.072313
C50	C	0.915921	0.679670	-1.126355
C51	C	0.898095	0.695263	-1.222281
C52	C	0.952340	0.647791	-1.264174
C53	C	1.005829	0.601007	-0.976377
C54	C	0.879506	0.711552	-0.988536
C55	C	0.861675	0.727142	-1.084461
C56	C	1.059484	0.554090	-0.354145
C57	C	1.078663	0.537246	-0.252016
H58	H	0.529050	0.503905	-0.503972
H59	H	0.839510	1.265577	-0.746491
H60	H	1.227335	1.057218	-0.407247
H61	H	0.501917	0.682066	-0.681727
H62	H	1.064576	0.931585	-0.549497
C63	C	1.291634	0.350885	-1.099673
C64	C	1.247789	0.389264	-1.042648
H65	H	1.340541	0.308080	-1.062997
H66	H	1.308444	0.399067	-1.145665
H67	H	1.255655	0.319465	-1.129018
H68	H	1.283766	0.420689	-1.013308
H69	H	1.230981	0.341074	-0.996639
C70	C	1.144434	0.937451	-0.572380
C71	C	1.133979	0.953895	-0.488822
H72	H	1.156514	0.872341	-0.561772
H73	H	1.190124	0.965181	-0.595321
H74	H	1.093745	0.963667	-0.616712
H75	H	1.184670	0.927685	-0.444492
H76	H	1.088285	0.926154	-0.465868
H77	H	1.195007	1.231288	-0.435620
H78	H	1.064516	0.549657	-0.932385
C79	C	0.931466	1.416406	-0.758914
C80	C	0.932882	1.368906	-0.664934
H81	H	0.919394	1.481516	-0.769523
H82	H	0.888835	1.399212	-0.796164
H83	H	0.985217	1.400714	-0.774784
H84	H	0.879129	1.384593	-0.649065
H85	H	0.975516	1.386108	-0.627671
C86	C	1.208632	0.423533	-0.916122
C87	C	1.133915	0.488915	-0.954710
H88	H	1.220723	0.412941	-0.851020
H89	H	1.254308	0.446459	-0.943898
H90	H	1.201530	0.366849	-0.927264
H91	H	1.141019	0.545602	-0.943573
H92	H	1.088228	0.465991	-0.926924
C93	C	0.850796	0.846138	-0.736403
C94	C	0.819936	0.941768	-0.763435
H95	H	0.813982	0.817722	-0.768587
H96	H	0.853272	0.819630	-0.671337
H97	H	0.906060	0.836209	-0.750969
H98	H	0.764674	0.951697	-0.748863
H99	H	0.817450	0.968284	-0.828516
H100	H	0.803083	1.127772	-0.778284
C101	C	0.931316	0.758893	-1.417182
C102	C	0.932741	0.664929	-1.369621
H103	H	0.919213	0.769470	-1.482280
H104	H	0.985063	0.774746	-1.401563
H105	H	0.888691	0.796189	-1.399966
H106	H	0.975370	0.627634	-1.386832
H107	H	0.878986	0.649067	-1.385247
H108	H	0.839408	0.746623	-1.266281
C109	C	1.179489	0.449017	-1.339638
C110	C	1.210360	0.422005	-1.244025
H111	H	1.216300	0.416802	-1.368066
H112	H	1.177008	0.514081	-1.366169
H113	H	1.124226	0.434473	-1.349521
H114	H	1.265620	0.436556	-1.234142
H115	H	1.212850	0.356927	-1.217486
C116	C	0.778266	0.800132	-1.236917
C117	C	0.782452	0.796470	-1.143872
H118	H	0.729360	0.842937	-1.273594
H119	H	0.774902	0.740178	-1.241809
H120	H	0.827692	0.819779	-1.258455
H121	H	0.733028	0.776816	-1.122332
H122	H	0.785809	0.856436	-1.138976
H123	H	0.835336	0.750209	-0.954427
