data_functionalizedCrystal
_audit_creation_method	'MofGen! by Chris Wilmer'
_symmetry_space_group_name_H-M	'P1'
_symmetry_Int_Tables_number	1
_symmetry_cell_setting	triclinic
loop_
_symmetry_equiv_pos_as_xyz
  x,y,z
_cell_length_a	14.044220
_cell_length_b	17.038272
_cell_length_c	13.101039
_cell_angle_alpha	93.604737
_cell_angle_beta	86.340132
_cell_angle_gamma	92.150217
loop_
_atom_site_label
_atom_site_type_symbol
_atom_site_fract_x
_atom_site_fract_y
_atom_site_fract_z
O1	O	1.277881	0.185592	-0.085106
O2	O	1.777881	0.685592	0.414894
O3	O	1.001361	0.178751	-0.085132
O4	O	1.501361	0.678751	0.414868
O5	O	1.137977	0.068241	-0.085111
O6	O	1.637977	0.568241	0.414889
O7	O	1.141265	0.296101	-0.085127
O8	O	1.641265	0.796101	0.414873
O9	O	1.128176	0.076185	0.085317
O10	O	1.628176	0.576185	0.585317
O11	O	0.991560	0.186694	0.085296
O12	O	1.491560	0.686694	0.585296
O13	O	1.268080	0.193535	0.085322
O14	O	1.768080	0.693535	0.585322
Zn15	Zn	1.128264	0.191376	0.112368
Zn16	Zn	1.628264	0.691376	0.612368
Zn17	Zn	1.141177	0.180910	-0.112178
Zn18	Zn	1.641177	0.680910	0.387822
O19	O	1.131464	0.304045	0.085301
O20	O	1.631464	0.804045	0.585301
C21	C	0.960905	0.179728	0.000079
C22	C	1.460905	0.679728	0.500079
C23	C	0.854960	0.170796	0.000069
C24	C	1.354960	0.670796	0.500069
C25	C	0.660980	0.154468	0.000091
C26	C	1.160980	0.654468	0.500091
C27	C	0.608455	0.217813	0.000090
C28	C	1.108455	0.717813	0.500090
C29	C	0.500518	0.208729	0.000102
C30	C	1.000518	0.708729	0.500102
C31	C	0.768927	0.163552	0.000079
C32	C	1.268927	0.663552	0.500079
C33	C	1.130087	0.042876	0.000103
C34	C	1.630087	0.542876	0.500103
C35	C	1.121168	-0.044541	0.000101
C36	C	1.621168	0.455459	0.500101
C37	C	1.203056	-0.088926	0.000110
C38	C	1.703056	0.411074	0.500110
C39	C	1.194670	-0.171064	0.000100
C40	C	1.694670	0.328936	0.500100
C41	C	1.104396	-0.208815	0.000088
C42	C	1.604396	0.291185	0.500088
C43	C	1.022502	-0.164424	0.000076
C44	C	1.522502	0.335576	0.500076
C45	C	1.030889	-0.082288	0.000079
C46	C	1.530889	0.417712	0.500079
C47	C	1.074767	-0.456646	0.000071
C48	C	1.574767	0.043354	0.500071
C49	C	1.066386	-0.538788	0.000071
C50	C	1.566386	-0.038788	0.500071
C51	C	1.238555	-0.545423	0.000093
C52	C	1.738555	-0.045423	0.500093
C53	C	1.246934	-0.463285	0.000102
C54	C	1.746934	0.036715	0.500102
C55	C	1.165040	-0.418901	0.000085
C56	C	1.665040	0.081099	0.500085
C57	C	1.095822	-0.292773	0.000080
C58	C	1.595822	0.207227	0.500080
C59	C	1.173615	-0.334945	0.000085
C60	C	1.673615	0.165055	0.500085
C61	C	1.308536	0.192558	0.000109
C62	C	1.808536	0.692558	0.500109
C63	C	1.414482	0.201490	0.000112
C64	C	1.914482	0.701490	0.500112
C65	C	1.139354	0.329410	0.000085
C66	C	1.639354	0.829410	0.500085
C67	C	1.148273	0.416827	0.000080
C68	C	1.648273	0.916827	0.500080
N69	N	1.119458	0.198518	0.265616
N70	N	1.619458	0.698518	0.765616
N71	N	1.149990	0.173762	-0.265426
N72	N	1.649990	0.673762	0.234574
C73	C	1.107478	0.208243	0.474656
C74	C	1.607478	0.708243	0.974656
C75	C	1.161967	0.164040	0.525540
C76	C	1.661967	0.664040	1.025540
C77	C	1.155301	0.169451	0.641858
C78	C	1.655301	0.669451	1.141858
C79	C	1.114143	0.202833	0.358328
C80	C	1.614143	0.702833	0.858328
H81	H	0.644550	0.278868	0.000081
H82	H	1.144550	0.778868	0.500081
H83	H	1.213624	0.122133	0.481746
H84	H	1.713624	0.622133	0.981746
N85	N	0.998458	-0.333496	0.000079
N86	N	1.498458	0.166504	0.500079
H87	H	0.958651	-0.314813	0.063256
H88	H	1.458651	0.185187	0.563256
H89	H	0.965990	-0.320681	-0.063141
H90	H	1.465990	0.179319	0.436859
N91	N	1.039067	0.263756	0.532665
N92	N	1.539067	0.763756	1.032665
H93	H	1.055713	0.319462	0.514057
H94	H	1.555713	0.819462	1.014057
H95	H	0.971730	0.249134	0.514047
H96	H	1.471730	0.749134	1.014047
H97	H	0.624887	0.093419	0.000100
H98	H	1.124887	0.593419	0.500100
N99	N	0.986441	-0.408784	0.000055
N100	N	1.486441	0.091216	0.500055
H101	H	0.982445	-0.371612	0.063229
H102	H	1.482445	0.128388	0.563229
H103	H	0.989773	-0.377553	-0.063169
H104	H	1.489773	0.122447	0.436831
H105	H	1.276567	-0.058196	0.000126
H106	H	1.776567	0.441804	0.500126
N107	N	1.282991	-0.218937	0.000115
N108	N	1.782991	0.281063	0.500115
H109	H	1.341451	-0.182558	0.000132
H110	H	1.841451	0.317442	0.500132
H111	H	1.279619	-0.250219	0.063295
H112	H	1.779619	0.249781	0.563295
N113	N	1.344301	-0.422569	0.000121
N114	N	1.844301	0.077431	0.500121
H115	H	1.394906	-0.463151	0.000125
H116	H	1.894906	0.036849	0.500125
H117	H	1.355167	-0.391574	-0.063055
H118	H	1.855167	0.108426	0.436945
N119	N	1.326879	-0.593292	0.000113
N120	N	1.826879	-0.093292	0.500113
H121	H	1.307871	-0.651053	0.000110
H122	H	1.807871	-0.151053	0.500110
H123	H	1.369570	-0.583326	-0.063062
H124	H	1.869570	-0.083326	0.436938
N125	N	0.969014	-0.579508	0.000057
N126	N	1.469014	-0.079508	0.500057
H127	H	0.918406	-0.538929	0.000043
H128	H	1.418406	-0.038929	0.500043
H129	H	0.965427	-0.616386	-0.063124
H130	H	1.465427	-0.116386	0.436876
H131	H	0.948998	-0.195167	0.000060
H132	H	1.448998	0.304833	0.500060
H133	H	0.964207	-0.046151	0.000072
H134	H	1.464207	0.453849	0.500072
N135	N	1.270978	-0.294230	0.000109
N136	N	1.770978	0.205770	0.500109
H137	H	1.321588	-0.334808	0.000119
H138	H	1.821588	0.165192	0.500119
H139	H	1.281844	-0.263236	-0.063068
H140	H	1.781844	0.236764	0.436932
