data_functionalizedCrystal
_audit_creation_method	'MofGen! by Chris Wilmer'
_symmetry_space_group_name_H-M	'P1'
_symmetry_Int_Tables_number	1
_symmetry_cell_setting	triclinic
loop_
_symmetry_equiv_pos_as_xyz
  x,y,z
_cell_length_a	15.298068
_cell_length_b	16.120484
_cell_length_c	15.296720
_cell_angle_alpha	101.986518
_cell_angle_beta	88.354818
_cell_angle_gamma	103.029391
loop_
_atom_site_label
_atom_site_type_symbol
_atom_site_fract_x
_atom_site_fract_y
_atom_site_fract_z
Zn1	Zn	1.237597	-0.252306	-0.738453
Zn2	Zn	1.570931	0.081027	-0.405119
Zn3	Zn	1.904264	0.414360	-0.071786
Zn4	Zn	1.255735	-0.366214	-0.596990
Zn5	Zn	1.589068	-0.032880	-0.263656
Zn6	Zn	1.922401	0.300453	0.069677
Zn7	Zn	1.116993	-0.244065	-0.566257
Zn8	Zn	1.450326	0.089268	-0.232924
Zn9	Zn	1.783659	0.422601	0.100409
Zn10	Zn	1.080990	-0.413761	-0.720103
Zn11	Zn	1.414323	-0.080427	-0.386770
Zn12	Zn	1.747657	0.252906	-0.053436
O13	O	1.172829	-0.319086	-0.655451
O14	O	1.506162	0.014247	-0.322117
O15	O	1.839495	0.347580	0.011216
O16	O	1.363608	-0.250967	-0.740228
O17	O	1.696941	0.082367	-0.406895
O18	O	2.030275	0.415700	-0.073562
O19	O	1.259988	-0.326663	-0.469325
O20	O	1.593321	0.006670	-0.135992
O21	O	1.926655	0.340004	0.197341
O22	O	1.140468	-0.126470	-0.583917
O23	O	1.473801	0.206864	-0.250584
O24	O	1.807134	0.540197	0.082750
O25	O	1.376933	-0.334654	-0.636296
O26	O	1.710267	-0.001321	-0.302963
O27	O	2.043600	0.332013	0.030370
O28	O	1.229075	-0.132525	-0.710428
O29	O	1.562409	0.200809	-0.377095
O30	O	1.895742	0.534142	-0.043762
O31	O	1.158055	-0.236921	-0.446746
O32	O	1.491388	0.096412	-0.113413
O33	O	1.824722	0.429746	0.219920
O34	O	0.988612	-0.283025	-0.566124
O35	O	1.321945	0.050308	-0.232791
O36	O	1.655279	0.383641	0.100543
O37	O	1.079106	-0.415691	-0.846125
O38	O	1.412440	-0.082358	-0.512791
O39	O	1.745773	0.250976	-0.179458
O40	O	0.962161	-0.407700	-0.679154
O41	O	1.295494	-0.074366	-0.345820
O42	O	1.628828	0.258967	-0.012487
O43	O	1.194165	-0.297071	-0.859606
O44	O	1.527498	0.036262	-0.526273
O45	O	1.860832	0.369596	-0.192940
O46	O	1.225078	-0.491209	-0.618503
O47	O	1.558411	-0.157876	-0.285170
O48	O	1.891744	0.175457	0.048164
O49	O	1.096693	-0.526142	-0.708954
O50	O	1.430027	-0.192809	-0.375620
O51	O	1.763360	0.140525	-0.042287
C52	C	0.943337	-0.349629	-0.617313
C53	C	1.276670	-0.016295	-0.283980
C54	C	1.610004	0.317038	0.049353
C55	C	0.845154	-0.362719	-0.601020
C56	C	1.178488	-0.029386	-0.267687
C57	C	1.511821	0.303948	0.065647
C58	C	0.540558	-0.225740	-0.771914
C59	C	0.873891	0.107593	-0.438580
C60	C	1.207225	0.440926	-0.105247
C61	C	0.632804	-0.213445	-0.787227
C62	C	0.966138	0.119889	-0.453894
C63	C	1.299471	0.453222	-0.120560
C64	C	0.685896	-0.250762	-0.740677
C65	C	1.019230	0.082571	-0.407343
C66	C	1.352563	0.415905	-0.074010
C67	C	0.646733	-0.300378	-0.678810
C68	C	0.980066	0.032956	-0.345477
C69	C	1.313400	0.366289	-0.012143
C70	C	0.554477	-0.312680	-0.663500
C71	C	0.887810	0.020653	-0.330166
C72	C	1.221143	0.353987	0.003167
C73	C	0.699815	-0.337702	-0.632263
C74	C	1.033148	-0.004368	-0.298929
C75	C	1.366482	0.328965	0.034404
C76	C	0.660652	-0.387317	-0.570396
C77	C	0.993985	-0.053984	-0.237063
C78	C	1.327318	0.279349	0.096270
C79	C	0.568404	-0.399617	-0.555089
C80	C	0.901737	-0.066284	-0.221755
C81	C	1.235071	0.267050	0.111578
C82	C	0.515312	-0.362300	-0.601639
C83	C	0.848645	-0.028967	-0.268306
C84	C	1.181979	0.304367	0.065028
C85	C	0.792071	-0.325399	-0.647573
C86	C	1.125405	0.007934	-0.314240
C87	C	1.458738	0.341268	0.019094
C88	C	0.805990	-0.412339	-0.539159
C89	C	1.139323	-0.079005	-0.205826
C90	C	1.472657	0.254328	0.127507
C91	C	0.713744	-0.424634	-0.523846
C92	C	1.047077	-0.091301	-0.190512
C93	C	1.380410	0.242032	0.142821
C94	C	1.158967	-0.539451	-0.665095
C95	C	1.492301	-0.206118	-0.331762
C96	C	1.825634	0.127216	0.001571
C97	C	1.153113	-0.633718	-0.669264
C98	C	1.486446	-0.300385	-0.335931
C99	C	1.819780	0.032948	-0.002598
C100	C	1.142426	-0.806307	-0.676895
C101	C	1.475759	-0.472974	-0.343562
C102	C	1.809093	-0.139641	-0.010228
C103	C	1.203387	-0.831007	-0.634047
C104	C	1.536720	-0.497673	-0.300714
C105	C	1.870054	-0.164340	0.032620
C106	C	1.197441	-0.927041	-0.638293
C107	C	1.530774	-0.593708	-0.304959
C108	C	1.864107	-0.260374	0.028374
C109	C	1.148371	-0.710265	-0.672650
C110	C	1.481704	-0.376932	-0.339317
C111	C	1.815038	-0.043598	-0.005984
C112	C	1.403216	-0.288426	-0.693737
C113	C	1.736549	0.044907	-0.360404
C114	C	2.069883	0.378241	-0.027071
C115	C	1.501394	-0.275360	-0.710053
C116	C	1.834727	0.057973	-0.376719
C117	C	2.168060	0.391306	-0.043386
C118	C	1.130597	-0.362604	-0.885806
C119	C	1.463930	-0.029271	-0.552473
C120	C	1.797263	0.304063	-0.219140
C121	C	1.112600	-0.381149	-0.983970
C122	C	1.445933	-0.047815	-0.650637
C123	C	1.779266	0.285518	-0.317304
C124	C	1.186764	-0.097862	-0.645791
C125	C	1.520098	0.235471	-0.312458
C126	C	1.853431	0.568805	0.020875
C127	C	1.192703	-0.003589	-0.641675
C128	C	1.526036	0.329744	-0.308342
C129	C	1.859370	0.663077	0.024991
C130	C	1.301497	-0.186392	-1.288756
C131	C	1.634830	0.146941	-0.955423
C132	C	1.968163	0.480274	-0.622089
C133	C	1.318411	-0.168970	-1.196527
C134	C	1.651744	0.164364	-0.863194
C135	C	1.985078	0.497697	-0.529861
C136	C	1.266960	-0.222012	-1.143384
C137	C	1.600293	0.111321	-0.810050
C138	C	1.933626	0.444654	-0.476717
C139	C	1.198591	-0.292482	-1.182478
C140	C	1.531924	0.040851	-0.849144
C141	C	1.865258	0.374185	-0.515811
C142	C	1.181680	-0.309911	-1.274717
C143	C	1.515013	0.023423	-0.941383
C144	C	1.848346	0.356756	-0.608050
C145	C	1.147143	-0.345531	-1.129344
C146	C	1.480476	-0.012197	-0.796011
C147	C	1.813809	0.321136	-0.462677
C148	C	1.078774	-0.416000	-1.168438
C149	C	1.412107	-0.082667	-0.835105
C150	C	1.745441	0.250666	-0.501771
C151	C	1.061865	-0.433425	-1.260668
C152	C	1.395199	-0.100092	-0.927335
C153	C	1.728532	0.233241	-0.594001
C154	C	1.113317	-0.380382	-1.313812
C155	C	1.446650	-0.047049	-0.980478
C156	C	1.779983	0.286284	-0.647145
C157	C	1.164054	-0.328102	-1.037105
C158	C	1.497387	0.005231	-0.703772
C159	C	1.830721	0.338565	-0.370438
C160	C	1.044237	-0.451620	-1.023065
C161	C	1.377570	-0.118287	-0.689732
C162	C	1.710904	0.215046	-0.356399
C163	C	1.027323	-0.469043	-1.115294
C164	C	1.360656	-0.135710	-0.781961
C165	C	1.693989	0.197624	-0.448628
C166	C	1.214951	-0.275670	-0.425997
C167	C	1.548284	0.057663	-0.092663
C168	C	1.881618	0.390996	0.240670
C169	C	1.233134	-0.256864	-0.327851
C170	C	1.566467	0.076469	0.005482
C171	C	1.899800	0.409803	0.338815
H172	H	0.664684	-0.173051	-0.837602
H173	H	0.998017	0.160283	-0.504268
H174	H	1.331351	0.493616	-0.170935
F175	F	1.277439	-0.764377	-0.581928
F176	F	1.610773	-0.431044	-0.248595
F177	F	1.944106	-0.097710	0.084738
H178	H	1.343386	-0.143217	-1.332034
H179	H	1.676719	0.190117	-0.998701
H180	H	2.010052	0.523450	-0.665368
F181	F	1.068376	-0.872935	-0.729006
F182	F	1.401709	-0.539602	-0.395672
F183	F	1.735043	-0.206268	-0.062339
H184	H	0.440195	-0.372315	-0.589180
H185	H	0.773529	-0.038982	-0.255847
H186	H	1.106862	0.294351	0.077486
F187	F	0.989113	-0.508436	-1.302275
F188	F	1.322447	-0.175102	-0.968942
F189	F	1.655780	0.158231	-0.635608
H190	H	1.219720	-0.270725	-1.005284
H191	H	1.553053	0.062609	-0.671950
H192	H	1.886386	0.395942	-0.338617
H193	H	0.971656	-0.526420	-1.147138
H194	H	1.304989	-0.193086	-0.813805
H195	H	1.638323	0.140247	-0.480471
F196	F	0.989479	-0.508080	-0.966511
F197	F	1.322812	-0.174747	-0.633178
F198	F	1.656145	0.158587	-0.299845
H199	H	1.374079	-0.111595	-1.164704
H200	H	1.707412	0.221738	-0.831371
H201	H	2.040745	0.555072	-0.498037
H202	H	1.280735	-0.207823	-1.068287
H203	H	1.614069	0.125511	-0.734954
H204	H	1.947402	0.458844	-0.401620
F205	F	1.095322	-0.398925	-1.411975
F206	F	1.428655	-0.065591	-1.078642
F207	F	1.761988	0.267742	-0.745308
H208	H	0.823949	-0.285000	-0.697944
H209	H	1.157283	0.048333	-0.364611
H210	H	1.490616	0.381666	-0.031278
H211	H	0.497322	-0.195368	-0.809814
H212	H	0.830655	0.137965	-0.476480
H213	H	1.163988	0.471299	-0.143147
F214	F	0.784074	-0.237673	-0.756975
F215	F	1.117407	0.095660	-0.423642
F216	F	1.450740	0.428994	-0.090309
H217	H	0.536519	-0.440025	-0.504720
H218	H	0.869852	-0.106692	-0.171386
H219	H	1.203185	0.226642	0.161947
H220	H	0.681843	-0.465033	-0.473474
H221	H	1.015177	-0.131699	-0.140141
H222	H	1.348510	0.201634	0.193193
H223	H	0.849217	-0.442730	-0.501258
H224	H	1.182550	-0.109397	-0.167925
H225	H	1.515883	0.223936	0.165409
