data_functionalizedCrystal
_audit_creation_method	'MofGen! by Chris Wilmer'
_symmetry_space_group_name_H-M	'P1'
_symmetry_Int_Tables_number	1
_symmetry_cell_setting	triclinic
loop_
_symmetry_equiv_pos_as_xyz
  x,y,z
_cell_length_a	17.699083
_cell_length_b	10.654550
_cell_length_c	9.130313
_cell_angle_alpha	90.000276
_cell_angle_beta	89.994594
_cell_angle_gamma	96.116027
loop_
_atom_site_label
_atom_site_type_symbol
_atom_site_fract_x
_atom_site_fract_y
_atom_site_fract_z
O1	O	0.106303	-1.665979	-0.121693
O2	O	0.606303	-1.165979	0.378307
O3	O	0.116430	-1.300323	-0.121721
O4	O	0.616430	-0.800323	0.378279
O5	O	0.001243	-1.493481	-0.121693
O6	O	0.501243	-0.993481	0.378307
O7	O	0.221490	-1.472820	-0.121721
O8	O	0.721490	-0.972820	0.378279
O9	O	0.001240	-1.493468	0.121906
O10	O	0.501240	-0.993468	0.621906
O11	O	0.116427	-1.300310	0.121878
O12	O	0.616427	-0.800310	0.621878
O13	O	0.106299	-1.665966	0.121906
O14	O	0.606299	-1.165966	0.621906
Cu15	Cu	0.111363	-1.483136	0.144134
Cu16	Cu	0.611363	-0.983136	0.644134
Cu17	Cu	0.111367	-1.483152	-0.143949
Cu18	Cu	0.611367	-0.983152	0.356051
O19	O	0.221487	-1.472807	0.121878
O20	O	0.721487	-0.972807	0.621878
C21	C	0.115685	-1.253531	0.000076
C22	C	0.615685	-0.753531	0.500076
C23	C	0.113460	-1.114127	0.000066
C24	C	0.613460	-0.614127	0.500066
C25	C	-0.026960	-1.492735	0.000106
C26	C	0.473040	-0.992735	0.500106
C27	C	-0.110993	-1.490514	0.000107
C28	C	0.389007	-0.990514	0.500107
N29	N	0.111360	-1.483135	0.346757
N30	N	0.611360	-0.983135	0.846757
C31	C	-0.158893	-1.603894	0.000117
C32	C	0.341107	-1.103894	0.500117
C33	C	-0.237849	-1.601799	0.000104
C34	C	0.262151	-1.101799	0.500104
C35	C	-0.268904	-1.486323	0.000091
C36	C	0.231096	-0.986323	0.500091
C37	C	-0.220998	-1.372935	0.000076
C38	C	0.279002	-0.872935	0.500076
C39	C	-0.142043	-1.375030	0.000079
C40	C	0.357957	-0.875030	0.500079
C41	C	-0.539415	-1.364481	0.000064
C42	C	-0.039415	-0.864481	0.500064
C43	C	-0.618376	-1.362394	0.000065
C44	C	-0.118376	-0.862394	0.500065
C45	C	-0.635221	-1.591249	0.000089
C46	C	-0.135221	-1.091249	0.500089
C47	C	-0.556266	-1.593345	0.000092
C48	C	-0.056266	-1.093345	0.500092
C49	C	-0.508367	-1.479957	0.000069
C50	C	-0.008367	-0.979957	0.500069
C51	C	-0.422753	-1.482229	0.000080
C52	C	0.077247	-0.982229	0.500080
C53	C	-0.354516	-1.484050	0.000090
C54	C	0.145484	-0.984050	0.500090
C55	C	0.249690	-1.473554	0.000075
C56	C	0.749690	-0.973554	0.500075
C57	C	0.333722	-1.475775	0.000065
C58	C	0.833722	-0.975775	0.500065
C59	C	0.107045	-1.712757	0.000106
C60	C	0.607045	-1.212757	0.500106
C61	C	0.109269	-1.852161	0.000107
C62	C	0.609269	-1.352161	0.500107
C63	C	0.181281	-1.033454	0.000061
C64	C	0.681281	-0.533454	0.500061
C65	C	0.179186	-0.902470	0.000087
C66	C	0.679186	-0.402470	0.500087
C67	C	0.041444	-0.932844	0.000115
C68	C	0.541444	-0.432844	0.500115
C69	C	0.043539	-1.063826	0.000100
C70	C	0.543539	-0.563826	0.500100
N71	N	0.111364	-1.483164	-0.346572
N72	N	0.611364	-0.983164	0.153428
C73	C	0.060376	-1.568694	0.423421
C74	C	0.560376	-1.068694	0.923421
C75	C	0.060376	-1.568706	0.576758
C76	C	0.560376	-1.068706	1.076758
C77	C	0.162350	-1.397596	0.576753
C78	C	0.662350	-0.897596	1.076753
C79	C	0.162345	-1.397579	0.423419
C80	C	0.662345	-0.897579	0.923419
H81	H	-0.133614	-1.697927	0.000137
H82	H	0.366386	-1.197927	0.500137
Cl83	Cl	0.226440	-1.290004	0.327032
Cl84	Cl	0.726440	-0.790004	0.827032
H85	H	0.238215	-1.074405	0.000044
H86	H	0.738215	-0.574405	0.500044
Cl87	Cl	-0.003723	-1.676245	0.327052
Cl88	Cl	0.496277	-1.176245	0.827052
Cl89	Cl	-0.081825	-1.232489	0.000060
Cl90	Cl	0.418175	-0.732489	0.500060
H91	H	0.234412	-0.836791	0.000087
H92	H	0.734412	-0.336791	0.500087
Cl93	Cl	-0.003721	-1.676268	0.673131
Cl94	Cl	0.496279	-1.176268	1.173131
Cl95	Cl	0.226447	-1.290049	0.673135
Cl96	Cl	0.726447	-0.790049	1.173135
Cl97	Cl	-0.298064	-1.744341	0.000122
Cl98	Cl	0.201936	-1.244341	0.500122
H99	H	-0.246289	-1.278912	0.000056
H100	H	0.253711	-0.778912	0.500056
Cl101	Cl	-0.046452	-0.869599	0.000149
Cl102	Cl	0.453548	-0.369599	0.500149
H103	H	-0.530986	-1.687377	0.000109
H104	H	-0.030986	-1.187377	0.500109
H105	H	-0.674231	-1.683575	0.000100
H106	H	-0.174231	-1.183575	0.500100
H107	H	-0.011692	-1.129514	0.000108
H108	H	0.488308	-0.629514	0.500108
Cl109	Cl	-0.657415	-1.217213	0.000046
Cl110	Cl	-0.157415	-0.717213	0.500046
H111	H	-0.500424	-1.272153	0.000046
H112	H	-0.000424	-0.772153	0.500046
