data_functionalizedCrystal
_audit_creation_method	'MofGen! by Chris Wilmer'
_symmetry_space_group_name_H-M	'P1'
_symmetry_Int_Tables_number	1
_symmetry_cell_setting	triclinic
loop_
_symmetry_equiv_pos_as_xyz
  x,y,z
_cell_length_a	19.851628
_cell_length_b	21.606444
_cell_length_c	21.606444
_cell_angle_alpha	60.003978
_cell_angle_beta	90.000785
_cell_angle_gamma	59.996432
loop_
_atom_site_label
_atom_site_type_symbol
_atom_site_fract_x
_atom_site_fract_y
_atom_site_fract_z
Zr1	Zr	-0.088542	0.677526	0.596227
O2	O	-0.196116	0.806640	0.497408
O3	O	-0.055549	0.548401	0.626520
O4	O	-0.196098	0.677516	0.626525
O5	O	0.055281	0.677537	0.497401
O6	O	-0.196102	0.677520	0.728374
O7	O	-0.055567	0.677525	0.497404
O8	O	0.055314	0.446557	0.728366
O9	O	-0.196135	0.908500	0.497409
O10	O	-0.041500	0.601519	0.715450
O11	O	0.041228	0.601525	0.639438
O12	O	-0.124250	0.753541	0.639443
O13	O	-0.041522	0.753547	0.563432
Zr14	Zr	0.088242	0.677552	0.758661
Zr15	Zr	-0.088549	0.677533	0.758666
Zr16	Zr	0.088249	0.677545	0.596222
Zr17	Zr	-0.088572	0.839981	0.596228
Zr18	Zr	0.088272	0.515097	0.758660
O19	O	0.055249	0.806677	0.728368
O20	O	-0.196125	0.806650	0.728375
O21	O	0.055258	0.806667	0.497401
O22	O	0.195816	0.548438	0.857480
O23	O	-0.055558	0.548410	0.857487
O24	O	0.195825	0.548428	0.626513
O25	O	-0.055582	0.677541	0.857488
O26	O	0.195798	0.677562	0.728364
O27	O	0.195802	0.677558	0.626514
O28	O	0.055267	0.677553	0.857484
O29	O	-0.196140	0.908506	0.626526
O30	O	0.195840	0.446572	0.728362
O31	O	0.195835	0.446577	0.857479
O32	O	0.055309	0.446562	0.857483
O33	O	-0.055609	0.908516	0.497405
O34	O	-0.055615	0.908521	0.626522
O35	O	0.123950	0.601537	0.715445
O36	O	0.041222	0.601531	0.791457
O37	O	-0.041528	0.753553	0.715450
O38	O	0.041200	0.753559	0.639439
C39	C	-0.000113	0.474332	0.677443
C40	C	-0.000101	0.405366	0.677443
C41	C	-0.061183	0.429092	0.621332
C42	C	-0.061200	0.364302	0.621334
C43	C	-0.000131	0.275788	0.677444
C44	C	0.060955	0.252062	0.733560
C45	C	0.060968	0.316851	0.733561
C46	C	0.060903	-0.009224	0.733560
C47	C	0.060887	-0.074013	0.733553
C48	C	-0.061265	0.038227	0.621333
C49	C	-0.061252	0.103016	0.621334
C50	C	-0.000169	0.079285	0.677452
C51	C	-0.000152	0.149537	0.677450
C52	C	-0.000144	0.205536	0.677444
C53	C	-0.221289	0.677515	0.677450
C54	C	-0.296341	0.677507	0.677452
C55	C	-0.432588	0.594638	0.718892
C56	C	-0.500046	0.636069	0.647422
C57	C	-0.433772	0.677530	0.677445
C58	C	-0.500050	0.636093	0.748900
C59	C	-0.566522	0.677545	0.677444
C60	C	-0.500242	0.718961	0.605934
C61	C	-0.500235	0.718973	0.707463
C62	C	-0.567705	0.760465	0.635951
C63	C	-0.357298	0.677518	0.677447
C64	C	-0.642998	0.677563	0.677435
C65	C	0.220989	0.677563	0.677438
C66	C	0.296041	0.677571	0.677436
C67	C	-0.000142	0.677530	0.474258
C68	C	-0.000139	0.677527	0.405299
C69	C	-0.000187	0.880746	0.677445
C70	C	-0.000200	0.949712	0.677446
C71	C	0.043052	0.598174	0.412574
C72	C	0.043053	0.598176	0.347777
C73	C	-0.000143	0.677533	0.275705
C74	C	-0.043336	0.756892	0.268431
C75	C	-0.043332	0.756889	0.333228
C76	C	-0.043355	0.756908	0.007113
C77	C	-0.043358	0.756905	-0.057685
C78	C	0.043030	0.598195	0.021662
C79	C	0.043035	0.598192	0.086459
C80	C	-0.000154	0.677550	0.079179
C81	C	-0.000153	0.677547	0.149441
C82	C	-0.000149	0.677537	0.205445
C83	C	-0.000158	0.677548	0.880630
C84	C	-0.000161	0.677551	0.949589
C85	C	-0.000121	0.474341	0.880629
C86	C	-0.000111	0.405377	0.949588
C87	C	0.221026	0.474356	0.677437
C88	C	0.296090	0.405398	0.677434
C89	C	0.221017	0.474365	0.880623
C90	C	0.296080	0.405409	0.949580
C91	C	-0.221318	0.880713	0.474266
C92	C	-0.296380	0.949668	0.405309
C93	C	-0.000179	0.880737	0.474259
C94	C	-0.000189	0.949700	0.405300
C95	C	-0.221326	0.880722	0.677451
C96	C	-0.296391	0.949680	0.677454
C97	C	-0.043294	0.372985	0.942297
C98	C	-0.043301	0.308195	1.007085
C99	C	-0.000120	0.275795	1.079164
C100	C	0.043064	0.308194	1.086453
C101	C	0.043066	0.372987	1.021666
C102	C	0.374529	0.373021	0.717108
C103	C	0.445068	0.308236	0.717103
C104	C	0.437165	0.275825	0.677428
C105	C	0.358718	0.308209	0.637749
C106	C	0.288182	0.372997	0.637751
C107	C	0.288147	0.373024	1.021647
C108	C	0.358669	0.308242	1.086445
C109	C	0.437123	0.275842	1.079175
C110	C	0.445055	0.308234	1.007101
C111	C	0.374534	0.373019	0.942304
C112	C	-0.288447	0.982061	0.333242
C113	C	-0.358969	1.046863	0.268443
C114	C	-0.437423	1.079267	0.275713
C115	C	-0.445355	1.046871	0.347788
C116	C	-0.374834	0.982075	0.412585
C117	C	0.042987	0.982100	0.412591
C118	C	0.042974	1.046907	0.347803
C119	C	-0.000209	1.079310	0.275725
C120	C	-0.043390	1.046908	0.268435
C121	C	-0.043382	0.982106	0.333223
C122	C	-0.288462	0.982070	0.717137
C123	C	-0.358987	1.046855	0.717154
C124	C	-0.437439	1.079254	0.677483
C125	C	-0.445367	1.046857	0.637799
C126	C	-0.374843	0.982069	0.637787
H127	H	-0.110940	0.383628	0.575644
O128	O	-0.085422	0.834034	0.198461
C129	C	-0.169723	0.882288	0.190164
H130	H	-0.176776	0.859721	0.248494
H131	H	-0.196197	0.954888	0.156081
H132	H	-0.204365	0.871275	0.159207
H133	H	-0.078492	0.821507	0.327300
O134	O	0.350988	0.276876	1.156466
C135	C	0.389185	0.292717	1.196321
H136	H	0.392443	0.349498	1.154278
H137	H	0.351762	0.309902	1.232126
H138	H	0.454234	0.231561	1.234788
H139	H	0.381004	0.399379	0.883626
H140	H	0.078225	0.533559	0.353707
O141	O	-0.085124	0.276574	1.000089
C142	C	-0.029670	0.185784	1.035177
H143	H	0.027160	0.158304	1.079347
H144	H	-0.061001	0.152212	1.063930
H145	H	-0.010329	0.173422	0.990630
O146	O	0.120317	-0.159972	0.788046
C147	C	0.198510	-0.178304	0.784480
H148	H	0.194837	-0.115313	0.755964
H149	H	0.245153	-0.227428	0.844292
H150	H	0.218767	-0.206993	0.750302
H151	H	-0.494858	1.132009	0.677499
H152	H	-0.078537	0.821526	0.001176
H153	H	-0.500714	0.601034	0.622029
H154	H	-0.500697	0.601048	0.809331
O155	O	-0.351380	1.078475	0.755587
C156	C	-0.389586	1.169266	0.704651
H157	H	-0.437662	1.196746	0.652438
H158	H	-0.420888	1.202834	0.733444
H159	H	-0.341105	1.181633	0.686885
H160	H	-0.110905	0.501162	0.575634
H161	H	-0.352495	1.073229	0.209763
O162	O	-0.120600	0.189026	0.566929
C163	C	-0.165287	0.229858	0.601275
H164	H	-0.125928	0.190841	0.662559
H165	H	-0.181907	0.299169	0.569051
H166	H	-0.224159	0.232582	0.599988
O167	O	0.212003	0.404359	1.028855
C168	C	0.220141	0.361825	1.106364
H169	H	0.283035	0.335209	1.140916
H170	H	0.169498	0.410388	1.115399
H171	H	0.214468	0.305486	1.125452
H172	H	-0.000128	0.223036	1.131911
H173	H	0.494607	0.223071	0.677433
O174	O	0.120266	-0.032176	0.787967
C175	C	0.164973	0.001911	0.753628
H176	H	0.125619	0.060346	0.692346
H177	H	0.181616	0.023710	0.785861
H178	H	0.223833	-0.050757	0.754910
O179	O	-0.085198	1.078303	0.198399
C180	C	-0.029742	1.062491	0.158552
H181	H	0.035320	1.005700	0.200602
H182	H	-0.048444	1.045336	0.122710
H183	H	-0.031258	1.123651	0.120122
H184	H	0.508936	0.281877	0.749417
O185	O	0.084999	0.276588	1.156529
C186	C	0.075717	0.212468	1.212140
H187	H	0.059809	0.184146	1.186871
H188	H	0.135826	0.157945	1.262105
H189	H	0.024012	0.243461	1.232411
H190	H	-0.499650	0.753968	0.545477
H191	H	-0.374741	0.524550	0.753881
H192	H	-0.494840	1.132028	0.222945
H193	H	-0.224588	0.955702	0.749441
O194	O	-0.636584	0.844160	0.593965
C195	C	-0.637168	0.887532	0.518707
H196	H	-0.597260	0.837233	0.506622
H197	H	-0.703117	0.933416	0.478051
H198	H	-0.611600	0.927017	0.510590
H199	H	0.494540	0.223090	1.131943
O200	O	-0.521630	1.078416	0.354708
C201	C	-0.582163	1.142563	0.282058
H202	H	-0.554659	1.131918	0.239118
H203	H	-0.636546	1.137304	0.282754
H204	H	-0.604235	1.210338	0.265554
O205	O	-0.499356	0.760608	0.737901
C206	C	-0.498306	0.716684	0.813270
H207	H	-0.472429	0.645953	0.836474
H208	H	-0.457844	0.717875	0.849506
H209	H	-0.563793	0.750706	0.814778
H210	H	-0.078467	0.399365	0.883613
H211	H	0.078235	0.399352	1.027613
H212	H	-0.381303	0.955701	0.471263
O213	O	0.351159	0.276719	0.599170
C214	C	0.389353	0.292562	0.543475
H215	H	0.437388	0.300668	0.560134
H216	H	0.420703	0.234985	0.538699
H217	H	0.340856	0.354841	0.486556
H218	H	0.380979	0.399402	0.749416
O219	O	0.085087	0.521007	0.482526
C220	C	0.123194	0.450969	0.475048
H221	H	0.131734	0.474241	0.417226
H222	H	0.185934	0.395471	0.521512
H223	H	0.082731	0.426561	0.480361
H224	H	0.110676	0.179988	0.779249
O225	O	0.212006	0.404298	0.599316
C226	C	0.203014	0.335124	0.628487
H227	H	0.247677	0.280063	0.688963
H228	H	0.137049	0.359816	0.628388
H229	H	0.217043	0.309557	0.591699
H230	H	0.508942	0.281844	1.001192
H231	H	-0.224571	0.955682	0.327308
H232	H	-0.381310	0.955704	0.605470
O233	O	-0.085300	0.950557	0.326270
C234	C	-0.076019	0.886391	0.398902
H235	H	-0.060134	0.897025	0.441863
H236	H	-0.136122	0.891638	0.398175
H237	H	-0.024300	0.818625	0.415400
O238	O	0.084952	0.950753	0.482547
C239	C	0.123068	0.993243	0.475073
H240	H	0.089183	1.058919	0.417256
H241	H	0.120741	1.004409	0.521545
H242	H	0.190101	0.950759	0.480376
H243	H	0.078141	1.073278	0.353753
O244	O	0.120387	0.293654	0.788100
C245	C	0.174276	0.201637	0.837635
H246	H	0.171360	0.171901	0.807404
H247	H	0.239997	0.181102	0.855747
H248	H	0.155048	0.177501	0.889808
O249	O	-0.000355	1.142369	0.212773
C250	C	-0.082075	1.217324	0.169354
H251	H	-0.121876	1.217237	0.207388
H252	H	-0.082949	1.278566	0.143123
H253	H	-0.107480	1.216781	0.122441
H254	H	-0.509252	1.073246	0.605501
H255	H	0.078207	0.533571	0.145140
H256	H	-0.111005	0.057544	0.575642
O257	O	0.084980	0.521181	0.028598
C258	C	0.075704	0.538194	-0.044044
H259	H	0.059793	0.606395	-0.086992
H260	H	0.135816	0.487513	-0.043331
H261	H	0.024003	0.534429	-0.060550
H262	H	-0.078535	0.821530	-0.116371
