data_functionalizedCrystal
_audit_creation_method	'MofGen! by Chris Wilmer'
_symmetry_space_group_name_H-M	'P1'
_symmetry_Int_Tables_number	1
_symmetry_cell_setting	triclinic
loop_
_symmetry_equiv_pos_as_xyz
  x,y,z
_cell_length_a	19.188930
_cell_length_b	10.654550
_cell_length_c	9.130313
_cell_angle_alpha	90.000276
_cell_angle_beta	89.990369
_cell_angle_gamma	96.185144
loop_
_atom_site_label
_atom_site_type_symbol
_atom_site_fract_x
_atom_site_fract_y
_atom_site_fract_z
O1	O	0.098062	-1.665764	-0.121709
O2	O	0.107405	-1.300088	-0.121737
O3	O	0.001147	-1.493479	-0.121693
O4	O	0.204320	-1.472374	-0.121752
O5	O	0.001143	-1.493466	0.121905
O6	O	0.107401	-1.300075	0.121862
O7	O	0.098059	-1.665751	0.121890
Cu8	Cu	0.102730	-1.482912	0.144118
Cu9	Cu	0.102734	-1.482928	-0.143965
O10	O	0.204317	-1.472361	0.121847
C11	C	0.106717	-1.253298	0.000059
C12	C	0.104665	-1.113898	0.000049
C13	C	-0.024870	-1.492789	0.000110
C14	C	-0.102388	-1.490737	0.000123
C15	C	0.098746	-1.712541	0.000091
C16	C	0.100799	-1.851941	0.000091
C17	C	-0.146570	-1.604213	0.000138
C18	C	-0.219407	-1.602285	0.000115
C19	C	-0.248058	-1.486876	0.000105
C20	C	-0.203866	-1.373386	0.000081
C21	C	-0.131032	-1.375316	0.000090
N22	N	-0.356641	-1.398655	0.082999
N23	N	-0.425831	-1.396828	0.082994
C24	C	-0.467505	-1.481052	0.000075
N25	N	-0.437375	-1.567190	-0.082821
N26	N	-0.368178	-1.569020	-0.082809
C27	C	-0.327034	-1.484770	0.000094
C28	C	-0.590665	-1.592445	0.000063
C29	C	-0.663502	-1.590513	0.000030
C30	C	-0.647960	-1.361610	0.000011
C31	C	-0.575124	-1.363545	0.000029
C32	C	-0.546481	-1.478966	0.000062
C33	C	0.230334	-1.473051	0.000040
C34	C	0.307852	-1.475102	0.000018
N35	N	0.102727	-1.482910	0.346741
C36	C	0.167228	-1.033089	0.000035
C37	C	0.165295	-0.902109	0.000061
C38	C	0.038231	-0.932761	0.000109
C39	C	0.040164	-1.063738	0.000094
N40	N	0.102731	-1.482939	-0.346588
C41	C	0.055696	-1.568572	0.423412
C42	C	0.055696	-1.568584	0.576749
C43	C	0.149764	-1.397268	0.576730
C44	C	0.149760	-1.397251	0.423396
H45	H	-0.123254	-1.698197	0.000160
N46	N	-0.023746	-1.146293	0.000138
N47	N	-0.066497	-1.141937	0.102845
H48	H	-0.111632	-1.200241	0.102884
N49	N	0.007607	-1.656000	0.345133
N50	N	-0.034410	-1.732425	0.413615
H51	H	-0.068391	-1.794144	0.358336
H52	H	0.216240	-0.836318	0.000053
H53	H	-0.567342	-1.686428	0.000083
H54	H	0.188059	-1.327528	0.639158
H55	H	-0.227199	-1.279418	0.000069
H56	H	0.219748	-1.073924	0.000010
H57	H	-0.255386	-1.694693	0.000122
H58	H	-0.699475	-1.682922	0.000035
N59	N	-0.529980	-1.247642	0.000016
N60	N	-0.487592	-1.223192	-0.102664
H61	H	-0.455707	-1.141331	-0.102678
H62	H	-0.014283	-0.891904	0.000154
H63	H	0.017398	-1.638336	0.639171
N64	N	0.197796	-1.309748	0.345043
N65	N	0.175233	-1.231925	0.259502
H66	H	0.209155	-1.170127	0.204160
N67	N	-0.085907	-1.259387	0.000066
N68	N	-0.111493	-1.156348	0.000042
H69	H	-0.079623	-1.074469	0.000026
N70	N	-0.677229	-1.243731	0.000013
N71	N	-0.716151	-1.217113	0.102687
H72	H	-0.736825	-1.133858	0.102686
