data_functionalizedCrystal
_audit_creation_method	'MofGen! by Chris Wilmer'
_symmetry_space_group_name_H-M	'P1'
_symmetry_Int_Tables_number	1
_symmetry_cell_setting	triclinic
loop_
_symmetry_equiv_pos_as_xyz
  x,y,z
_cell_length_a	8.965430
_cell_length_b	15.995350
_cell_length_c	15.995280
_cell_angle_alpha	83.477985
_cell_angle_beta	90.002822
_cell_angle_gamma	89.999838
loop_
_atom_site_label
_atom_site_type_symbol
_atom_site_fract_x
_atom_site_fract_y
_atom_site_fract_z
O1	O	0.123905	-1.110958	-0.107924
O2	O	0.123935	-0.867179	-0.121252
O3	O	0.123918	-0.995763	0.007304
O4	O	0.123921	-0.982374	-0.236480
O5	O	-0.124161	-0.995753	0.007295
O6	O	-0.124144	-0.867169	-0.121260
O7	O	-0.124174	-1.110947	-0.107932
Cu8	Cu	-0.146811	-0.989057	-0.114597
Cu9	Cu	0.146571	-0.989070	-0.114587
O10	O	-0.124158	-0.982363	-0.236488
C11	C	-0.000101	-0.835979	-0.120705
C12	C	-0.000089	-0.743030	-0.119053
N13	N	-0.353160	-0.989054	-0.114604
C14	C	-0.000118	-0.995215	0.038495
C15	C	-0.000109	-0.993587	0.131449
C16	C	-0.450458	-0.929570	-0.174037
C17	C	-0.549881	-1.005229	-0.190285
C18	C	-0.549864	-0.913427	-0.098363
C19	C	-0.450394	-1.064751	-0.130889
C20	C	-0.450368	-0.972900	-0.038935
C21	C	-0.549746	-1.048613	-0.055150
N22	N	0.352920	-0.989079	-0.114574
C23	C	-0.000135	-1.142147	-0.108479
C24	C	-0.000137	-1.235097	-0.110131
C25	C	-0.000120	-0.405283	-0.113121
C26	C	-0.000675	-0.452741	-0.021566
C27	C	-0.000105	-0.549430	-0.023218
C28	C	-0.000106	-0.572843	-0.116063
C29	C	0.141554	-0.531751	-0.161217
C30	C	0.141662	-0.435116	-0.158917
C31	C	-0.140450	-0.434764	-0.160818
C32	C	-0.142312	-0.531709	-0.160796
C33	C	-0.000093	-0.667540	-0.117731
C34	C	-0.000124	-0.310586	-0.111456
C35	C	-0.000130	-0.987600	0.469189
C36	C	-0.000695	-1.080403	0.445877
C37	C	-0.000128	-1.082163	0.349201
C38	C	-0.000121	-0.990571	0.301632
C39	C	0.141545	-0.944180	0.330738
C40	C	0.141656	-0.943067	0.427529
C41	C	-0.140456	-0.941160	0.427377
C42	C	-0.142321	-0.944595	0.330884
C43	C	-0.000110	-0.992245	0.206936
C44	C	-0.000131	-0.985924	0.563885
C45	C	-0.000124	-0.982923	0.732322
C46	C	-0.000142	-0.984584	0.639373
H47	H	-0.406863	-0.879312	-0.224344
H48	H	-0.593591	-1.018910	-0.254263
H49	H	-0.150871	-0.877741	0.297914
N50	N	0.134623	-1.130580	0.324831
H51	H	0.228336	-1.102239	0.342474
H52	H	0.135432	-1.131922	0.261858
H53	H	0.148091	-0.402851	-0.226134
N54	N	-0.153652	-0.552027	-0.250484
H55	H	-0.249769	-0.583232	-0.258055
H56	H	-0.066307	-0.588318	-0.263390
N57	N	-0.135273	-1.127789	0.482948
H58	H	-0.197182	-1.089562	0.515218
H59	H	-0.101368	-1.178120	0.522207
H60	H	-0.247111	-0.559030	-0.127835
N61	N	0.281912	-0.410871	-0.115280
H62	H	0.342170	-0.370487	-0.155029
H63	H	0.342974	-0.462976	-0.097719
H64	H	-0.141406	-0.872850	0.441367
H65	H	0.146821	-0.545859	-0.229428
N66	N	-0.134619	-0.587091	0.023796
H67	H	-0.130939	-0.573837	0.084012
H68	H	-0.134437	-0.650104	0.022751
H69	H	-0.101678	-1.118495	0.330172
N70	N	-0.607757	-0.828702	-0.080180
H71	H	-0.571643	-0.783808	-0.125126
H72	H	-0.569997	-0.816101	-0.023455
N73	N	0.281220	-0.569336	-0.119673
H74	H	0.282845	-0.631942	-0.123390
H75	H	0.282542	-0.558702	-0.058635
N76	N	0.133102	-1.127540	0.484317
H77	H	0.194080	-1.089040	0.516767
H78	H	0.196256	-1.147519	0.438217
N79	N	-0.392779	-1.149504	-0.149165
H80	H	-0.280129	-1.148964	-0.149088
H81	H	-0.429965	-1.161805	-0.206104
H82	H	0.247548	-0.975206	0.454350
N83	N	-0.607146	-1.115325	0.011448
H84	H	-0.570766	-1.172404	-0.000919
H85	H	-0.719788	-1.114571	0.011391
H86	H	0.146817	-0.876781	0.298871
N87	N	-0.282687	-0.407573	-0.121179
H88	H	-0.257593	-0.375863	-0.071897
H89	H	-0.344152	-0.458836	-0.101012
N90	N	-0.135248	-0.428209	0.026900
H91	H	-0.133303	-0.365610	0.030641
H92	H	-0.133378	-0.459416	0.085439
H93	H	0.148079	-0.875023	0.442080
N94	N	0.281197	-0.986860	0.304179
H95	H	0.253022	-1.036234	0.273300
H96	H	0.341894	-1.007368	0.355645
H97	H	-0.406624	-0.959195	0.025024
H98	H	-0.141408	-0.402985	-0.228321
H99	H	0.100354	-0.433161	0.014866
H100	H	0.101618	-0.577302	0.012522
H101	H	-0.247124	-0.978374	0.312315
N102	N	-0.282696	-0.979657	0.464799
H103	H	-0.257606	-1.027595	0.509243
H104	H	-0.344166	-1.001535	0.419042
