data_functionalizedCrystal
_audit_creation_method	'MofGen! by Chris Wilmer'
_symmetry_space_group_name_H-M	'P1'
_symmetry_Int_Tables_number	1
_symmetry_cell_setting	triclinic
loop_
_symmetry_equiv_pos_as_xyz
  x,y,z
_cell_length_a	17.699083
_cell_length_b	17.766277
_cell_length_c	17.699104
_cell_angle_alpha	89.992695
_cell_angle_beta	83.287266
_cell_angle_gamma	89.996667
loop_
_atom_site_label
_atom_site_type_symbol
_atom_site_fract_x
_atom_site_fract_y
_atom_site_fract_z
O1	O	1.004088	-0.062490	0.095711
O2	O	0.783711	-0.062515	0.108164
O3	O	0.900117	-0.062495	-0.008251
O4	O	0.887681	-0.062510	0.212126
O5	O	0.900097	0.062693	-0.008256
O6	O	0.783690	0.062673	0.108158
O7	O	1.004068	0.062698	0.095706
Cu8	Cu	0.893877	0.074117	0.101931
Cu9	Cu	0.893901	-0.073933	0.101938
O10	O	0.887661	0.062678	0.212120
C11	C	0.755503	0.000076	0.107715
C12	C	0.671485	0.000067	0.106376
N13	N	0.893866	0.178247	0.101926
C14	C	0.899659	0.000099	-0.036450
C15	C	0.898314	0.000099	-0.120467
C16	C	0.622869	0.000062	0.174709
C17	C	0.543926	0.000072	0.173446
C18	C	0.513600	0.000081	0.103851
C19	C	0.562222	0.000088	0.035513
C20	C	0.641164	0.000083	0.036776
C21	C	0.243859	0.000107	0.030418
C22	C	0.164911	0.000109	0.029160
C23	C	0.146621	0.000096	0.167088
C24	C	0.225563	0.000091	0.168351
C25	C	0.274178	0.000102	0.100014
C26	C	0.359777	0.000093	0.101383
C27	C	0.428002	0.000085	0.102480
C28	C	1.032275	0.000105	0.096155
C29	C	1.116293	0.000110	0.097493
N30	N	0.893919	-0.178064	0.101938
C31	C	0.945427	0.217643	0.050403
C32	C	0.945432	0.296444	0.050399
C33	C	0.893882	0.335847	0.101932
C34	C	0.842310	0.296442	0.153459
C35	C	0.842302	0.217642	0.153456
C36	C	0.883843	0.460680	0.170880
C37	C	0.883856	0.539479	0.170884
C38	C	0.893902	0.578894	0.101941
C39	C	0.903950	0.539500	0.032991
C40	C	0.903942	0.460700	0.032988
C41	C	0.893884	0.421293	0.101940
C42	C	0.945471	0.703735	0.050410
C43	C	0.945470	0.782539	0.050405
C44	C	0.842353	0.782535	0.153471
C45	C	0.842350	0.703733	0.153469
C46	C	0.893913	0.664338	0.101939
C47	C	0.959058	0.000085	-0.645338
C48	C	0.960317	0.000092	-0.566395
C49	C	0.891982	0.000086	-0.517777
C50	C	0.822383	0.000080	-0.548107
C51	C	0.821125	0.000079	-0.627049
C52	C	0.827456	0.000087	-0.229741
C53	C	0.828720	0.000086	-0.150794
C54	C	0.966648	0.000100	-0.169086
C55	C	0.965390	0.000098	-0.248029
C56	C	0.895792	0.000097	-0.278352
C57	C	0.894427	0.000091	-0.363951
C58	C	0.893345	0.000086	-0.432179
C59	C	0.888120	0.000082	0.240319
C60	C	0.889464	0.000077	0.324337
H61	H	0.647554	0.000055	0.231382
H62	H	0.140223	0.000117	-0.027517
C63	C	1.034228	0.000092	-0.698811
H64	H	1.075855	0.000105	-0.669441
H65	H	1.036614	-0.043563	-0.729982
H66	H	1.036595	0.043754	-0.729990
H67	H	0.766743	0.000080	-0.508516
C68	C	0.297325	0.000113	-0.044750
H69	H	0.267955	0.000111	-0.086378
H70	H	0.328500	0.043768	-0.047129
H71	H	0.328501	-0.043549	-0.047125
C72	C	1.002192	0.825874	-0.006272
H73	H	1.032903	0.791123	-0.036954
H74	H	0.975033	0.856624	-0.037748
H75	H	1.033648	0.856604	0.020926
H76	H	0.764455	0.000079	-0.651738
H77	H	0.107028	0.000091	0.222732
C78	C	0.694645	0.000087	-0.038388
H79	H	0.746002	0.000091	-0.027669
H80	H	0.685468	-0.043564	-0.066933
H81	H	0.685464	0.043753	-0.066930
H82	H	0.537525	0.000106	-0.021153
H83	H	0.987455	0.671659	0.008449
H84	H	0.875650	0.428595	0.227025
C85	C	1.002136	0.174312	-0.006286
H86	H	1.032841	0.209066	-0.036977
H87	H	1.033588	0.143559	0.020896
H88	H	0.974959	0.143586	-0.037763
C89	C	1.002153	0.339792	-0.006274
H90	H	0.994769	0.392365	0.001107
H91	H	1.052645	0.326869	0.001887
H92	H	0.994026	0.326892	-0.056782
C93	C	0.490452	0.000065	0.248613
H94	H	0.519819	0.000050	0.290242
H95	H	0.459277	0.043723	0.250989
H96	H	0.459276	-0.043594	0.250986
C97	C	0.914983	0.417367	-0.042849
H98	H	0.921070	0.452120	-0.083910
H99	H	0.958987	0.386535	-0.044392
H100	H	0.871686	0.386720	-0.047036
C101	C	0.915005	0.582842	-0.042852
H102	H	0.920995	0.548095	-0.083913
H103	H	0.871774	0.613590	-0.047003
H104	H	0.959085	0.613574	-0.044434
C105	C	0.785648	0.825869	0.210156
H106	H	0.793039	0.878442	0.202782
H107	H	0.735152	0.812963	0.202001
H108	H	0.793780	0.812945	0.260661
C109	C	1.043206	0.000113	-0.135729
H110	H	1.034173	0.000122	-0.081751
H111	H	1.071344	-0.043540	-0.152417
H112	H	1.071328	0.043777	-0.152433
C113	C	0.785609	0.339782	0.210145
H114	H	0.793004	0.392356	0.202773
H115	H	0.735112	0.326880	0.201989
H116	H	0.793740	0.326855	0.260650
C117	C	0.258917	0.000085	0.244906
H118	H	0.218656	0.000091	0.285423
H119	H	0.289334	-0.043571	0.248270
H120	H	0.289330	0.043746	0.248259
H121	H	1.016987	0.000098	-0.541708
H122	H	0.800367	0.671655	0.195427
H123	H	0.800314	0.185565	0.195413
H124	H	0.875679	0.571547	0.227027
C125	C	1.040558	0.000108	-0.301504
H126	H	1.082187	0.000121	-0.272136
H127	H	1.042944	-0.043546	-0.332677
H128	H	1.042923	0.043772	-0.332681
C129	C	0.750902	0.000080	-0.263087
H130	H	0.710386	0.000068	-0.222824
H131	H	0.747533	0.043735	-0.293506
H132	H	0.747549	-0.043582	-0.293496
C133	C	0.753548	0.000087	-0.097315
H134	H	0.711917	0.000094	-0.126680
H135	H	0.751175	-0.043568	-0.066134
H136	H	0.751173	0.043749	-0.066146
