data_functionalizedCrystal
_audit_creation_method	'MofGen! by Chris Wilmer'
_symmetry_space_group_name_H-M	'P1'
_symmetry_Int_Tables_number	1
_symmetry_cell_setting	triclinic
loop_
_symmetry_equiv_pos_as_xyz
  x,y,z
_cell_length_a	17.699083
_cell_length_b	17.699083
_cell_length_c	16.176319
_cell_angle_alpha	89.992304
_cell_angle_beta	90.006703
_cell_angle_gamma	96.717152
loop_
_atom_site_label
_atom_site_type_symbol
_atom_site_fract_x
_atom_site_fract_y
_atom_site_fract_z
O1	O	-1.004079	0.095710	-0.068734
O2	O	-0.783701	0.108163	-0.068739
O3	O	-0.900116	-0.008252	-0.068729
O4	O	-0.887664	0.212126	-0.068744
O5	O	-0.900100	-0.008260	0.068764
O6	O	-0.783685	0.108156	0.068754
O7	O	-1.004063	0.095703	0.068759
Cu8	Cu	-0.893872	0.101929	0.081311
Cu9	Cu	-0.893891	0.101937	-0.081291
O10	O	-0.887648	0.212119	0.068749
C11	C	-0.755496	0.107713	0.000007
C12	C	-0.671478	0.106375	0.000005
C13	C	-0.632002	0.105740	0.074954
C14	C	-0.553059	0.104471	0.074954
C15	C	-0.513594	0.103841	0.000006
C16	C	-0.553075	0.104474	-0.074948
C17	C	-0.632017	0.105738	-0.074948
C18	C	-0.234713	0.099375	-0.074950
C19	C	-0.155765	0.098113	-0.074945
C20	C	-0.155755	0.098107	0.074952
C21	C	-0.234697	0.099372	0.074952
C22	C	-0.274172	0.100000	-0.000001
C23	C	-0.359771	0.101375	-0.000001
C24	C	-0.427996	0.102472	0.000005
C25	C	-0.899662	-0.036453	0.000017
C26	C	-0.898323	-0.120471	0.000018
C27	C	-0.032269	0.096148	0.000010
C28	C	-0.116289	0.097472	0.000004
C29	C	-0.966657	-0.169092	0.000020
C30	C	-0.965395	-0.248036	0.000013
C31	C	-0.895798	-0.278356	0.000009
C32	C	-0.827459	-0.229729	0.000004
C33	C	-0.828722	-0.150787	0.000005
C34	C	-0.822364	-0.548092	-0.000003
C35	C	-0.821106	-0.627040	-0.000002
C36	C	-0.959036	-0.645341	0.000005
C37	C	-0.960299	-0.566399	0.000006
C38	C	-0.891961	-0.517778	-0.000003
C39	C	-0.893331	-0.432179	0.000003
C40	C	-0.894428	-0.363954	0.000009
N41	N	-0.893865	0.101922	0.195676
C42	C	-0.888102	0.240319	0.000001
C43	C	-0.889441	0.324337	-0.000005
N44	N	-0.893905	0.101938	-0.195656
C45	C	-0.945429	0.050394	0.238945
C46	C	-0.945433	0.050393	0.325492
C47	C	-0.893875	0.101925	0.368769
C48	C	-0.842306	0.153455	0.325494
C49	C	-0.842299	0.153452	0.238948
C50	C	-0.842332	0.153469	0.674522
C51	C	-0.842344	0.153470	0.761074
C52	C	-0.945466	0.050411	0.761065
C53	C	-0.945459	0.050408	0.674520
C54	C	-0.893887	0.101935	0.631253
C55	C	-0.893882	0.101934	0.537409
C56	C	-0.893883	0.101930	0.462611
H57	H	-0.520937	0.103956	-0.135973
C58	C	-0.747197	-0.494616	-0.000014
H59	H	-0.757912	-0.443258	-0.000024
H60	H	-0.718643	-0.503796	0.047929
H61	H	-0.718666	-0.503795	-0.047970
C62	C	-0.744549	-0.660395	-0.000013
H63	H	-0.753587	-0.714373	-0.000004
H64	H	-0.716427	-0.643695	-0.047964
H65	H	-0.716409	-0.643703	0.047936
H66	H	-0.664157	0.106256	-0.135979
C67	C	-0.750905	-0.263080	0.000002
H68	H	-0.759938	-0.317058	0.000010
H69	H	-0.722778	-0.246377	-0.047945
H70	H	-0.722772	-0.246385	0.047955
C71	C	-0.753556	-0.097304	0.000004
H72	H	-0.711925	-0.126667	0.000009
H73	H	-0.751188	-0.066123	-0.047942
H74	H	-0.751175	-0.066134	0.047957
C75	C	-1.034210	-0.698822	0.000006
H76	H	-1.075839	-0.669456	0.000018
H77	H	-1.036595	-0.729992	-0.047942
H78	H	-1.036577	-0.730003	0.047958
C79	C	-0.112323	0.097473	0.157401
H80	H	-0.059654	0.096641	0.146671
H81	H	-0.119422	0.141819	0.188145
H82	H	-0.131090	0.053575	0.188245
C83	C	-1.002142	-0.006292	0.191347
H84	H	-1.032847	-0.036985	0.229515
H85	H	-1.033593	0.020891	0.157572
H86	H	-0.974968	-0.037769	0.157601
H87	H	-0.800341	0.195426	0.639301
C88	C	-0.785581	0.210132	0.191349
H89	H	-0.792956	0.202745	0.133608
H90	H	-0.793703	0.260637	0.205519
H91	H	-0.735086	0.201970	0.205547
C92	C	-0.509638	0.103779	0.157397
H93	H	-0.544447	0.104345	0.202033
H94	H	-0.484699	0.059167	0.160523
H95	H	-0.472986	0.147410	0.160505
H96	H	-1.023330	-0.144412	0.000029
H97	H	-0.800323	0.195410	0.360735
H98	H	-0.987420	0.008435	0.360721
C99	C	-1.040561	-0.301516	0.000025
H100	H	-1.082191	-0.272152	0.000039
H101	H	-1.042949	-0.332687	-0.047922
H102	H	-1.042924	-0.332695	0.047978
C103	C	-1.002169	-0.006279	0.626920
H104	H	-1.032875	-0.036973	0.665085
H105	H	-1.033619	0.020904	0.593143
H106	H	-0.974993	-0.037754	0.593174
H107	H	-0.987456	0.008452	0.796303
H108	H	-1.016972	-0.541717	0.000014
C109	C	-0.112355	0.097417	-0.157392
H110	H	-0.147171	0.097966	-0.202032
H111	H	-0.075705	0.141044	-0.160512
H112	H	-0.087415	0.052800	-0.160498
C113	C	-0.675410	0.106434	0.157396
H114	H	-0.728079	0.107285	0.146665
H115	H	-0.668326	0.062107	0.188196
H116	H	-0.656611	0.150351	0.188186
C117	C	-0.278106	0.100060	0.157395
H118	H	-0.243289	0.099492	0.202033
H119	H	-0.303048	0.144669	0.160511
H120	H	-0.314754	0.056426	0.160508
H121	H	-0.800357	0.195435	0.796308
H122	H	-0.266845	0.099884	-0.135982
