data_functionalizedCrystal
_audit_creation_method	'MofGen! by Chris Wilmer'
_symmetry_space_group_name_H-M	'P1'
_symmetry_Int_Tables_number	1
_symmetry_cell_setting	triclinic
loop_
_symmetry_equiv_pos_as_xyz
  x,y,z
_cell_length_a	19.805407
_cell_length_b	12.759394
_cell_length_c	19.805399
_cell_angle_alpha	90.023967
_cell_angle_beta	90.019573
_cell_angle_gamma	90.014837
loop_
_atom_site_label
_atom_site_type_symbol
_atom_site_fract_x
_atom_site_fract_y
_atom_site_fract_z
Zn1	Zn	1.034790	-0.418291	0.382737
Zn2	Zn	1.034728	-0.593984	0.269556
Zn3	Zn	0.921605	-0.418320	0.269561
Zn4	Zn	0.921591	-0.593928	0.382702
O5	O	0.978178	-0.506131	0.326139
O6	O	1.129498	-0.441608	0.367735
O7	O	1.019701	-0.570717	0.174840
O8	O	0.936651	-0.271295	0.284591
O9	O	1.129453	-0.570689	0.284581
O10	O	1.019808	-0.271274	0.367740
O11	O	0.936590	-0.441658	0.174844
O12	O	0.826886	-0.441603	0.284558
O13	O	0.936628	-0.570594	0.477423
O14	O	0.826876	-0.570622	0.367682
O15	O	1.019794	-0.441554	0.477449
O16	O	1.019688	-0.740998	0.284548
O17	O	0.936567	-0.740957	0.367676
C18	C	0.802322	-0.506111	0.326117
C19	C	0.727090	-0.506127	0.326124
C20	C	0.691759	-0.573409	0.369336
C21	C	0.621070	-0.573411	0.369346
C22	C	0.585715	-0.506136	0.326139
C23	C	0.621051	-0.438847	0.282924
C24	C	0.691739	-0.438841	0.282919
C25	C	0.335978	-0.438870	0.282947
C26	C	0.265286	-0.438884	0.282954
C27	C	0.265310	-0.573440	0.369374
C28	C	0.335997	-0.573434	0.369368
C29	C	0.371327	-0.506142	0.326157
C30	C	0.447976	-0.506139	0.326148
C31	C	0.509068	-0.506143	0.326144
C32	C	0.978138	-0.779098	0.326123
C33	C	0.978182	-0.895875	0.326138
C34	C	1.064801	-0.895864	0.239641
C35	C	1.108128	-0.950720	0.196401
C36	C	1.108168	-1.060441	0.196419
C37	C	1.064877	-1.115310	0.239684
C38	C	1.021550	-1.060455	0.282925
C39	C	1.021514	-0.950730	0.282900
C40	C	0.934936	-1.060465	0.369424
C41	C	0.934892	-0.950744	0.369403
C42	C	0.891645	-1.115334	0.412689
C43	C	0.848314	-1.060478	0.455927
C44	C	0.848275	-0.950750	0.455906
C45	C	0.891565	-0.895888	0.412644
C46	C	1.154721	-0.506152	0.326161
C47	C	1.229953	-0.506161	0.326171
C48	C	0.978216	-0.506065	0.502682
C49	C	0.978233	-0.506036	0.577914
C50	C	0.978238	-0.232097	0.326170
C51	C	0.978263	-0.115321	0.326183
C52	C	0.978180	-0.506121	0.150283
C53	C	0.978295	-0.505853	0.075051
C54	C	1.021539	-0.438842	0.613272
C55	C	1.021545	-0.438811	0.683961
C56	C	0.978249	-0.505982	0.719289
C57	C	0.934939	-0.573179	0.683926
C58	C	0.934929	-0.573203	0.613239
C59	C	0.934977	-0.573081	0.969000
C60	C	0.934992	-0.573054	1.039692
C61	C	1.021594	-0.438689	1.039721
C62	C	1.021584	-0.438713	0.969034
C63	C	0.978271	-0.505907	0.933677
C64	C	0.978263	-0.505937	0.857028
C65	C	0.978260	-0.505957	0.795937
H66	H	0.720505	-0.384048	0.247734
H67	H	1.056811	-0.384097	0.712746
H68	H	1.064919	-1.204651	0.239701
H69	H	0.236535	-0.628229	0.404562
H70	H	1.056842	-0.384020	0.940273
H71	H	0.813073	-1.105161	0.491153
H72	H	1.143377	-0.906036	0.161176
O73	O	1.063599	-0.373439	1.074173
C74	C	1.054337	-0.387830	1.144139
H75	H	1.002096	-0.422226	1.153781
H76	H	1.094475	-0.443776	1.164202
C77	C	1.124733	-0.239266	1.168598
C78	C	1.060567	-0.281504	1.180441
H79	H	1.128579	-0.173681	1.190992
H80	H	1.130976	-0.229572	1.121461
H81	H	1.158174	-0.285897	1.185318
H82	H	1.027128	-0.234879	1.163714
H83	H	1.054319	-0.291187	1.227576
H84	H	0.891533	-0.806547	0.412618
H85	H	0.592306	-0.628199	0.404534
O86	O	0.370188	-0.373471	0.240909
C87	C	0.323821	-0.314079	0.202789
H88	H	0.273430	-0.357122	0.200398
H89	H	0.316318	-0.234343	0.227670
C90	C	0.413272	-0.245905	0.133705
C91	C	0.351382	-0.298775	0.130763
H92	H	0.430273	-0.236460	0.089276
H93	H	0.444510	-0.285915	0.159388
H94	H	0.407010	-0.179464	0.154442
H95	H	0.357646	-0.365219	0.110034
H96	H	0.320145	-0.258775	0.105074
O97	O	0.586782	-0.373546	0.240860
C98	C	0.604010	-0.396382	0.173372
H99	H	0.655329	-0.436758	0.171919
H100	H	0.564211	-0.450356	0.150518
C101	C	0.544238	-0.244283	0.134273
C102	C	0.607271	-0.293866	0.132488
H103	H	0.546247	-0.181048	0.109053
H104	H	0.532628	-0.228900	0.179741
H105	H	0.511079	-0.289272	0.115229
H106	H	0.640428	-0.248882	0.151539
H107	H	0.618887	-0.309239	0.087022
O108	O	1.150277	-1.113571	0.154353
C109	C	1.188492	-1.041622	0.116177
H110	H	1.160746	-0.963442	0.113792
H111	H	1.239881	-1.029866	0.141004
C112	C	1.232375	-1.180540	0.047086
C113	C	1.198294	-1.084520	0.044152
H114	H	1.238425	-1.207002	0.002659
H115	H	1.206631	-1.229014	0.072807
H116	H	1.275196	-1.170730	0.067778
H117	H	1.155472	-1.094333	0.023468
H118	H	1.224032	-1.036048	0.018426
H119	H	0.899732	-0.627754	1.068454
O120	O	0.891746	-1.221916	0.412818
C121	C	0.909094	-1.258479	0.477714
H122	H	0.938566	-1.195179	0.505707
H123	H	0.861168	-1.277976	0.507002
C124	C	0.916776	-1.435334	0.436843
C125	C	0.952978	-1.357591	0.471223
H126	H	0.943843	-1.496474	0.432841
H127	H	0.905085	-1.410702	0.393122
H128	H	0.876839	-1.451569	0.461255
H129	H	0.992909	-1.341348	0.446807
H130	H	0.964677	-1.382223	0.514940
O131	O	1.063619	-0.373493	0.579061
C132	C	1.101854	-0.314197	0.625431
H133	H	1.074137	-0.310540	0.675814
H134	H	1.153252	-0.352673	0.632955
C135	C	1.145671	-0.206880	0.535980
C136	C	1.111626	-0.202381	0.597860
H137	H	1.151703	-0.137908	0.518972
H138	H	1.119914	-0.246831	0.504739
H139	H	1.188500	-0.238948	0.542259
H140	H	1.068796	-0.170326	0.591579
H141	H	1.137377	-0.162422	0.629099
H142	H	1.064765	-0.806523	0.239613
H143	H	0.720540	-0.628195	0.404519
H144	H	0.899719	-0.627809	0.940220
H145	H	0.899684	-0.627866	0.712696
O146	O	0.806222	-0.897580	0.498006
C147	C	0.821007	-0.924280	0.565483
H148	H	0.847055	-1.003910	0.566920
H149	H	0.855774	-0.862457	0.588295
C150	C	0.723015	-0.831586	0.604668
C151	C	0.755002	-0.929394	0.606434
H152	H	0.682301	-0.834736	0.629930
H153	H	0.713055	-0.813594	0.559208
H154	H	0.751994	-0.780077	0.623677
H155	H	0.726027	-0.980897	0.587417
H156	H	0.764956	-0.947394	0.651891
O157	O	0.892791	-0.638334	0.578863
C158	C	0.849089	-0.578535	0.537961
H159	H	0.844929	-0.495779	0.559269
H160	H	0.870007	-0.574943	0.484392
C161	C	0.783826	-0.731502	0.510690
C162	C	0.778712	-0.629861	0.536865
H163	H	0.740414	-0.763163	0.510011
H164	H	0.813270	-0.771791	0.538245
H165	H	0.801259	-0.728494	0.466052
H166	H	0.761286	-0.632871	0.581505
H167	H	0.749263	-0.589574	0.509317
H168	H	0.236502	-0.384094	0.247770
O169	O	0.370236	-0.638818	0.411404
C170	C	0.323893	-0.698221	0.449537
H171	H	0.273510	-0.655200	0.451932
H172	H	0.316356	-0.777966	0.424664
C173	C	0.413390	-0.766342	0.518613
C174	C	0.351511	-0.713499	0.521560
H175	H	0.430427	-0.775771	0.563039
H176	H	0.444614	-0.726324	0.492921
H177	H	0.407101	-0.832791	0.497883
H178	H	0.357803	-0.647047	0.542282
H179	H	0.320289	-0.753506	0.547257
