data_functionalizedCrystal
_audit_creation_method	'MofGen! by Chris Wilmer'
_symmetry_space_group_name_H-M	'P1'
_symmetry_Int_Tables_number	1
_symmetry_cell_setting	triclinic
loop_
_symmetry_equiv_pos_as_xyz
  x,y,z
_cell_length_a	14.560438
_cell_length_b	12.970454
_cell_length_c	14.560438
_cell_angle_alpha	89.999344
_cell_angle_beta	119.999504
_cell_angle_gamma	59.999012
loop_
_atom_site_label
_atom_site_type_symbol
_atom_site_fract_x
_atom_site_fract_y
_atom_site_fract_z
Zr1	Zr	1.005275	0.993217	0.120522
O2	O	1.196883	0.828584	0.267167
O3	O	0.813672	1.043685	0.075570
O4	O	1.005281	1.043675	0.267174
O5	O	1.005268	0.828603	-0.075579
O6	O	1.005280	1.213342	0.267176
O7	O	1.005274	0.828594	0.075564
O8	O	0.662527	1.213361	-0.075567
O9	O	1.348021	0.828584	0.267164
O10	O	0.892479	1.191830	0.056398
O11	O	0.892475	1.065216	-0.056400
O12	O	1.118069	1.065204	0.169188
O13	O	1.118065	0.938589	0.056390
Zr14	Zr	1.005264	1.263830	-0.120529
Zr15	Zr	1.005274	1.263817	0.120526
Zr16	Zr	1.005265	0.993230	-0.120533
Zr17	Zr	1.246323	0.993217	0.120518
Zr18	Zr	0.764216	1.263830	-0.120525
O19	O	1.196867	1.213362	-0.075577
O20	O	1.196881	1.213342	0.267172
O21	O	1.196868	0.828603	-0.075582
O22	O	0.813656	1.428463	-0.267174
O23	O	0.813670	1.428443	0.075576
O24	O	0.813658	1.043704	-0.267179
O25	O	1.005271	1.428444	0.075572
O26	O	1.005258	1.213372	-0.267180
O27	O	1.005259	1.043705	-0.267183
O28	O	1.005265	1.428452	-0.075571
O29	O	1.348020	1.043675	0.267167
O30	O	0.662519	1.213371	-0.267174
O31	O	0.662518	1.428462	-0.267171
O32	O	0.662526	1.428451	-0.075564
O33	O	1.348013	0.828595	0.075557
O34	O	1.348012	1.043686	0.075560
O35	O	0.892470	1.191843	-0.169194
O36	O	0.892474	1.318458	-0.056397
O37	O	1.118064	1.191831	0.056393
O38	O	1.118060	1.065216	-0.056404
C39	C	0.703756	1.128523	0.000002
C40	C	0.601425	1.128522	0.000004
C41	C	0.553351	1.194611	0.058884
C42	C	0.457191	1.194616	0.058873
C43	C	0.457192	1.062433	-0.058898
C44	C	0.553343	1.062437	-0.058893
C45	C	1.005271	0.790044	-0.000008
C46	C	1.005272	0.675167	-0.000010
C47	C	1.306783	1.128524	-0.000009
C48	C	1.409114	1.128524	-0.000011
C49	C	1.005282	1.128506	0.301520
C50	C	1.005286	1.128500	0.403854
C51	C	1.005268	1.467003	0.000001
C52	C	1.005267	1.581879	0.000003
C53	C	1.123041	1.062403	0.510806
C54	C	1.123038	1.062415	0.606956
C55	C	0.887513	1.194624	0.489188
C56	C	0.887519	1.194619	0.393041
C57	C	1.005263	1.128533	0.698477
C58	C	1.005278	1.128518	0.596152
C59	C	0.703754	1.467002	0.000007
C60	C	0.601422	1.581879	0.000010
C61	C	0.703743	1.128540	-0.301521
C62	C	0.601408	1.128545	-0.403853
C63	C	0.703741	1.467019	-0.301516
C64	C	0.601406	1.581901	-0.403847
C65	C	1.306797	0.790028	0.301510
C66	C	1.409133	0.675145	0.403840
C67	C	1.306785	0.790045	-0.000014
C68	C	1.409116	0.675168	-0.000017
C69	C	1.306796	1.128507	0.301514
C70	C	1.409131	1.128501	0.403847
C71	C	0.470087	1.635831	-0.083257
C72	C	0.373922	1.743759	-0.083257
C73	C	0.409096	1.797737	0.000006
C74	C	0.540444	1.743775	0.083281
C75	C	0.636606	1.635844	0.083285
C76	C	0.470072	1.635860	-0.451900
C77	C	0.373902	1.743816	-0.548040
C78	C	0.409068	1.797807	-0.596129
C79	C	0.540414	1.743843	-0.548068
C80	C	0.636582	1.635894	-0.451925
C81	C	1.540467	0.621196	0.451902
C82	C	1.636637	0.513264	0.548063
C83	C	1.601470	0.459277	0.596156
C84	C	1.470124	0.513237	0.548089
C85	C	1.373956	0.621172	0.451935
C86	C	1.373902	0.621224	-0.083295
C87	C	1.470040	0.513296	-0.083321
C88	C	1.601392	0.459309	-0.000064
C89	C	1.636605	0.513263	0.083218
C90	C	1.540468	0.621194	0.083239
C91	C	0.553326	1.194645	-0.510807
C92	C	0.457180	1.194636	-0.606955
C93	C	0.457203	1.062426	-0.489182
C94	C	0.553353	1.062428	-0.393037
H95	H	0.592484	1.008618	-0.106845
Cl96	Cl	1.271092	0.979294	0.524403
H97	H	0.592453	1.248477	-0.519620
Cl98	Cl	0.396741	1.277732	-0.741410
Cl99	Cl	0.288188	1.933426	-0.000017
H100	H	0.569065	1.787740	0.151072
H101	H	0.743545	1.591927	0.151090
H102	H	0.266961	1.787733	-0.587163
H103	H	1.679789	0.371389	0.674452
H104	H	0.418063	1.008598	-0.480390
H105	H	0.569029	1.787819	-0.587236
Cl106	Cl	0.288153	1.933514	-0.716999
Cl107	Cl	1.271079	0.979318	0.741410
H108	H	0.743519	1.591965	-0.412811
H109	H	1.569159	0.665104	0.151059
Cl110	Cl	1.425743	0.445488	-0.188024
H111	H	0.441414	1.591914	-0.412759
Cl112	Cl	0.739471	1.277729	0.475605
Cl113	Cl	1.425936	0.445346	0.608558
Cl114	Cl	1.584710	0.689044	0.391465
Cl115	Cl	1.208783	0.689072	-0.187975
H116	H	0.592506	1.008596	-0.305944
H117	H	0.791623	1.248450	0.305949
H118	H	1.743578	0.469343	0.587184
H119	H	0.418051	1.248434	0.106816
Cl120	Cl	0.613787	1.277697	0.132920
H121	H	1.267020	0.665084	0.412805
H122	H	1.679660	0.371424	-0.000093
H123	H	1.743564	0.469291	0.151002
H124	H	0.441423	1.591896	-0.151062
Cl125	Cl	0.208810	1.811580	-0.187958
Cl126	Cl	0.396735	0.979365	-0.132942
