data_functionalizedCrystal
_audit_creation_method	'MofGen! by Chris Wilmer'
_symmetry_space_group_name_H-M	'P1'
_symmetry_Int_Tables_number	1
_symmetry_cell_setting	triclinic
loop_
_symmetry_equiv_pos_as_xyz
  x,y,z
_cell_length_a	25.639239
_cell_length_b	16.625548
_cell_length_c	16.625539
_cell_angle_alpha	89.979432
_cell_angle_beta	89.968745
_cell_angle_gamma	90.039754
loop_
_atom_site_label
_atom_site_type_symbol
_atom_site_fract_x
_atom_site_fract_y
_atom_site_fract_z
Zn1	Zn	-0.208135	1.232590	-0.455893
Zn2	Zn	0.291865	1.732590	0.044107
Zn3	Zn	-0.295573	1.232455	-0.321053
Zn4	Zn	0.204427	1.732455	0.178947
Zn5	Zn	-0.208155	1.097751	-0.321073
Zn6	Zn	0.291845	1.597751	0.178927
Zn7	Zn	-0.295543	1.097684	-0.455843
Zn8	Zn	0.204457	1.597684	0.044157
O9	O	-0.251851	1.165120	-0.388466
O10	O	0.248149	1.665120	0.111534
O11	O	-0.219738	1.345404	-0.438018
O12	O	0.280262	1.845404	0.061982
O13	O	-0.283998	1.214558	-0.208223
O14	O	0.216002	1.714558	0.291777
O15	O	-0.134987	1.115723	-0.338987
O16	O	0.365013	1.615723	0.161013
O17	O	-0.283978	1.345305	-0.338952
O18	O	0.216022	1.845305	0.161048
O19	O	-0.134972	1.214788	-0.438038
O20	O	0.365028	1.714788	0.061962
O21	O	-0.219772	1.115592	-0.208238
O22	O	0.280228	1.615592	0.291762
O23	O	-0.219743	0.984910	-0.338938
O24	O	0.280257	1.484910	0.161062
O25	O	-0.283927	1.115607	-0.568682
O26	O	0.216073	1.615607	-0.068682
O27	O	-0.283946	0.984860	-0.437953
O28	O	0.216054	1.484860	0.062047
O29	O	-0.219709	1.214722	-0.568719
O30	O	0.280291	1.714722	-0.068719
O31	O	-0.368734	1.214492	-0.338904
O32	O	0.131266	1.714492	0.161096
O33	O	-0.368712	1.115477	-0.437933
O34	O	0.131288	1.615477	0.062067
C35	C	-0.251844	0.955629	-0.388443
C36	C	0.248156	1.455629	0.111557
C37	C	-0.251853	0.866008	-0.388452
C38	C	0.248147	1.366008	0.111548
C39	C	-0.387694	1.164984	-0.388429
C40	C	0.112306	1.664984	0.111571
C41	C	-0.445808	1.165000	-0.388440
C42	C	0.054192	1.665000	0.111560
C43	C	-0.251857	0.537832	-0.388487
C44	C	0.248143	1.037832	0.111513
C45	C	-0.251854	0.629141	-0.388475
C46	C	0.248146	1.129141	0.111525
C47	C	-0.251855	0.701917	-0.388469
C48	C	0.248145	1.201917	0.111531
C49	C	-0.251852	0.793231	-0.388458
C50	C	0.248148	1.293231	0.111542
C51	C	-0.806170	1.216812	-0.336989
C52	C	-0.306170	1.716812	0.163011
C53	C	-0.860774	1.216843	-0.337000
C54	C	-0.360774	1.716843	0.163000
O55	O	-0.889010	1.260755	-0.293213
O56	O	-0.389010	1.760755	0.206787
N57	N	-0.888090	1.165262	-0.388519
N58	N	-0.388090	1.665262	0.111481
C59	C	-0.860799	1.113651	-0.440037
C60	C	-0.360799	1.613651	0.059963
O61	O	-0.889048	1.069780	-0.483860
O62	O	-0.389048	1.569780	0.016140
C63	C	-0.806196	1.113625	-0.440029
C64	C	-0.306196	1.613625	0.059971
C65	C	-0.778883	1.165204	-0.388501
C66	C	-0.278883	1.665204	0.111499
C67	C	-0.778857	1.268387	-0.285465
C68	C	-0.278857	1.768387	0.214535
C69	C	-0.724256	1.268355	-0.285453
C70	C	-0.224256	1.768355	0.214547
C71	C	-0.696969	1.216747	-0.336965
C72	C	-0.196969	1.716747	0.163035
C73	C	-0.724282	1.165171	-0.388489
C74	C	-0.224282	1.665171	0.111511
C75	C	-0.778906	1.062019	-0.491551
C76	C	-0.278906	1.562019	0.008449
C77	C	-0.724299	1.061997	-0.491539
C78	C	-0.224299	1.561997	0.008461
C79	C	-0.696986	1.113576	-0.440011
C80	C	-0.196986	1.613576	0.059989
C81	C	-0.642395	1.113531	-0.439990
C82	C	-0.142395	1.613531	0.060010
N83	N	-0.615078	1.165112	-0.388470
N84	N	-0.115078	1.665112	0.111530
C85	C	-0.642366	1.216720	-0.336958
C86	C	-0.142366	1.716720	0.163042
C87	C	-0.975470	1.113712	-0.440049
C88	C	-0.475470	1.613712	0.059951
C89	C	-1.030072	1.113734	-0.440053
C90	C	-0.530072	1.613734	0.059947
C91	C	-1.030043	1.216927	-0.337017
C92	C	-0.530043	1.716927	0.162983
C93	C	-0.975440	1.216900	-0.337009
C94	C	-0.475440	1.716900	0.162991
C95	C	-0.948154	1.165293	-0.388530
C96	C	-0.448154	1.665293	0.111470
C97	C	-0.527700	1.216648	-0.336937
C98	C	-0.027700	1.716648	0.163063
C99	C	-0.473095	1.216608	-0.336928
C100	C	0.026905	1.716608	0.163072
C101	C	-0.473129	1.113418	-0.439967
C102	C	0.026871	1.613418	0.060033
C103	C	-0.527729	1.113454	-0.439973
C104	C	-0.027729	1.613454	0.060027
C105	C	-0.555014	1.165076	-0.388456
C106	C	-0.055014	1.665076	0.111544
O107	O	-0.614124	1.069644	-0.483756
O108	O	-0.114124	1.569644	0.016244
O109	O	-0.614110	1.260591	-0.293150
O110	O	-0.114110	1.760591	0.206850
C111	C	-0.115478	1.165278	-0.388520
C112	C	0.384522	1.665278	0.111480
C113	C	-0.057364	1.165345	-0.388544
C114	C	0.442636	1.665345	0.111456
C115	C	-0.251812	1.165172	-0.598775
C116	C	0.248188	1.665172	-0.098775
C117	C	-0.251796	1.165195	-0.688396
C118	C	0.248204	1.665195	-0.188396
C119	C	-0.251859	1.375429	-0.388489
C120	C	0.248141	1.875429	0.111511
C121	C	-0.251863	1.465050	-0.388498
C122	C	0.248137	1.965050	0.111502
C123	C	-0.251737	1.165232	-1.016572
C124	C	0.248263	1.665232	-0.516572
C125	C	-0.251755	1.165219	-0.925263
C126	C	0.248245	1.665219	-0.425263
C127	C	-0.251767	1.165214	-0.852487
C128	C	0.248233	1.665214	-0.352487
C129	C	-0.251784	1.165200	-0.761172
C130	C	0.248216	1.665200	-0.261172
C131	C	-0.251852	1.165114	-0.178975
C132	C	0.248148	1.665114	0.321025
C133	C	-0.251722	1.165248	-0.089354
C134	C	0.248278	1.665248	0.410646
H135	H	-0.450858	1.258610	-0.294964
H136	H	0.049142	1.758610	0.205036
H137	H	-0.953256	1.071681	-0.482001
H138	H	-0.453256	1.571681	0.017999
H139	H	-0.549909	1.258684	-0.294988
H140	H	-0.049909	1.758684	0.205012
H141	H	-0.801068	1.310417	-0.243517
H142	H	-0.301068	1.810417	0.256483
H143	H	-0.702021	1.310357	-0.243497
H144	H	-0.202021	1.810357	0.256503
H145	H	-0.953205	1.258901	-0.295051
H146	H	-0.453205	1.758901	0.204949
C147	C	-1.059770	1.272999	-0.281244
C148	C	-0.559770	1.772999	0.218756
C149	C	-1.113434	1.262023	-0.292332
C150	C	-0.613434	1.762023	0.207668
C151	C	-1.140836	1.313695	-0.241008
C152	C	-0.640836	1.813695	0.258992
H153	H	-1.050941	1.261343	-0.226999
H154	H	-0.550941	1.761343	0.273001
H155	H	-1.050789	1.327159	-0.293166
H156	H	-0.550789	1.827159	0.206834
H157	H	-1.122411	1.207876	-0.280404
H158	H	-0.622411	1.707876	0.219596
H159	H	-1.122278	1.273685	-0.346566
H160	H	-0.622278	1.773685	0.153434
H161	H	-1.131855	1.367854	-0.252929
H162	H	-0.631855	1.867854	0.247071
H163	H	-1.132003	1.302035	-0.186766
H164	H	-0.632003	1.802035	0.313234
H165	H	-1.177249	1.306260	-0.248529
H166	H	-0.677249	1.806260	0.251471
H167	H	-0.801135	1.020014	-0.533507
H168	H	-0.301135	1.520014	-0.033507
C169	C	-0.694646	1.006098	-0.547576
C170	C	-0.194646	1.506098	-0.047576
C171	C	-0.663255	1.051708	-0.599305
C172	C	-0.163255	1.551708	-0.099305
C173	C	-0.635937	1.000243	-0.650941
C174	C	-0.135937	1.500243	-0.150941
H175	H	-0.673340	0.970953	-0.516793
H176	H	-0.173340	1.470953	-0.016793
H177	H	-0.718719	0.975401	-0.578311
H178	H	-0.218719	1.475401	-0.078311
H179	H	-0.639185	1.082392	-0.568573
H180	H	-0.139185	1.582392	-0.068573
H181	H	-0.684548	1.086852	-0.630106
H182	H	-0.184548	1.586852	-0.130106
H183	H	-0.660010	0.969546	-0.681676
H184	H	-0.160010	1.469546	-0.181676
H185	H	-0.614634	0.965100	-0.620151
H186	H	-0.114634	1.465100	-0.120151
H187	H	-0.614638	1.031182	-0.686050
H188	H	-0.114638	1.531182	-0.186050
H189	H	-1.052306	1.071725	-0.482005
H190	H	-0.552306	1.571725	0.017995
C191	C	-0.557293	1.057423	-0.496004
C192	C	-0.057293	1.557423	0.003996
C193	C	-0.521706	1.012233	-0.541125
C194	C	-0.021706	1.512233	-0.041125
C195	C	-0.548916	0.960622	-0.592764
C196	C	-0.048916	1.460622	-0.092764
H197	H	-0.578638	1.022249	-0.465229
H198	H	-0.078638	1.522249	0.034771
H199	H	-0.578541	1.088247	-0.531214
H200	H	-0.078541	1.588247	-0.031214
H201	H	-0.500467	0.981411	-0.505920
H202	H	-0.000467	1.481411	-0.005920
H203	H	-0.500360	1.047385	-0.571917
H204	H	-0.000360	1.547385	-0.071917
H205	H	-0.570165	0.991446	-0.627974
H206	H	-0.070165	1.491446	-0.127974
H207	H	-0.570260	0.925454	-0.561983
H208	H	-0.070260	1.425454	-0.061983
H209	H	-0.524775	0.929960	-0.623391
H210	H	-0.024775	1.429960	-0.123391
H211	H	-0.450903	1.071397	-0.481905
H212	H	0.049097	1.571397	0.018095
