data_functionalizedCrystal
_audit_creation_method	'MofGen! by Chris Wilmer'
_symmetry_space_group_name_H-M	'P1'
_symmetry_Int_Tables_number	1
_symmetry_cell_setting	triclinic
loop_
_symmetry_equiv_pos_as_xyz
  x,y,z
_cell_length_a	14.908558
_cell_length_b	29.839131
_cell_length_c	29.839126
_cell_angle_alpha	89.978002
_cell_angle_beta	86.682415
_cell_angle_gamma	86.736364
loop_
_atom_site_label
_atom_site_type_symbol
_atom_site_fract_x
_atom_site_fract_y
_atom_site_fract_z
Zn1	Zn	1.379125	-0.218607	-0.293557
Zn2	Zn	1.378953	-0.293719	-0.218422
Zn3	Zn	1.228246	-0.214265	-0.214113
Zn4	Zn	1.228177	-0.289364	-0.289200
O5	O	1.303625	-0.253989	-0.253823
O6	O	1.505346	-0.232210	-0.287218
O7	O	1.358918	-0.283185	-0.154982
O8	O	1.248361	-0.151977	-0.224672
O9	O	1.505219	-0.287395	-0.232016
O10	O	1.359212	-0.155167	-0.283039
O11	O	1.248194	-0.224810	-0.151816
O12	O	1.101993	-0.220587	-0.220446
O13	O	1.248244	-0.279972	-0.352646
O14	O	1.101943	-0.275762	-0.275612
O15	O	1.359145	-0.227987	-0.355848
O16	O	1.358851	-0.356006	-0.227791
O17	O	1.248077	-0.352806	-0.279791
C18	C	1.069234	-0.247231	-0.247089
C19	C	0.968961	-0.244351	-0.244219
C20	C	0.827630	-0.211523	-0.211498
C21	C	0.921846	-0.214227	-0.214193
C22	C	0.921854	-0.271773	-0.271552
C23	C	0.827638	-0.269069	-0.268857
C24	C	0.780530	-0.238944	-0.238829
C25	C	0.686312	-0.236242	-0.236132
C26	C	0.686321	-0.293786	-0.293492
C27	C	0.780537	-0.296489	-0.296187
C28	C	1.303462	-0.370707	-0.253796
C29	C	1.303475	-0.420641	-0.253802
C30	C	1.361410	-0.731946	-0.226792
C31	C	1.361522	-0.919622	-0.226812
O32	O	1.410651	-0.945295	-0.203826
N33	N	1.303812	-0.941436	-0.253862
C34	C	1.246075	-0.916329	-0.280911
O35	O	1.196999	-0.939189	-0.303923
C36	C	1.245969	-0.728653	-0.280893
C37	C	1.303676	-0.706841	-0.253838
C38	C	1.419113	-0.710134	-0.199739
C39	C	1.419081	-0.663217	-0.199732
C40	C	1.361346	-0.638113	-0.226778
C41	C	1.303644	-0.659925	-0.253831
C42	C	1.188237	-0.703547	-0.307944
C43	C	1.188217	-0.656625	-0.307937
C44	C	1.245924	-0.634813	-0.280882
C45	C	1.245877	-0.587904	-0.280870
N46	N	1.303587	-0.566090	-0.253820
C47	C	1.361321	-0.591194	-0.226774
C48	C	1.246134	-1.014861	-0.280918
C49	C	1.246159	-1.061779	-0.280922
C50	C	1.361607	-1.065070	-0.226824
C51	C	1.361576	-1.018150	-0.226818
C52	C	1.303843	-0.993047	-0.253868
C53	C	1.361249	-0.492666	-0.226762
C54	C	1.361210	-0.445746	-0.226756
C55	C	1.245766	-0.442460	-0.280856
C56	C	1.245802	-0.489376	-0.280860
C57	C	1.303551	-0.514479	-0.253812
O58	O	1.196781	-0.562203	-0.303848
O59	O	1.410404	-0.568326	-0.203773
C60	C	1.361442	-0.778862	-0.226798
C61	C	1.303739	-0.800674	-0.253851
C62	C	1.246005	-0.775570	-0.280897
C63	C	1.303765	-0.847593	-0.253855
C64	C	1.361499	-0.872697	-0.226809
C65	C	1.419208	-0.850883	-0.199759
C66	C	1.419177	-0.803966	-0.199753
C67	C	1.188296	-0.797384	-0.307947
C68	C	1.188332	-0.844301	-0.307951
C69	C	1.246066	-0.869405	-0.280905
C70	C	1.538931	-0.260773	-0.260584
C71	C	1.639205	-0.263664	-0.263465
C72	C	1.303706	-0.253978	-0.371004
C73	C	1.303741	-0.253974	-0.420939
C74	C	1.303813	-0.136816	-0.253861
C75	C	1.303893	-0.086884	-0.253877
C76	C	1.361382	-0.284309	-0.779178
C77	C	1.361384	-0.284341	-0.591505
O78	O	1.410384	-0.310203	-0.568644
N79	N	1.303736	-0.253952	-0.566384
C80	C	1.246081	-0.223555	-0.588185
O81	O	1.197042	-0.197712	-0.562512
C82	C	1.246075	-0.223526	-0.775857
C83	C	1.303733	-0.253914	-0.800975
C84	C	1.419034	-0.314695	-0.804296
C85	C	1.419037	-0.314685	-0.851211
C86	C	1.361387	-0.284290	-0.873009
C87	C	1.303735	-0.253904	-0.847891
C88	C	1.188416	-0.193132	-0.797656
C89	C	1.188418	-0.193129	-0.844578
C90	C	1.246075	-0.223516	-0.869696
C91	C	1.246088	-0.223499	-0.916604
N92	N	1.303735	-0.253888	-0.941724
C93	C	1.361385	-0.284283	-0.919927
C94	C	1.246089	-0.223572	-0.489654
C95	C	1.246091	-0.223579	-0.442737
C96	C	1.361393	-0.284365	-0.446060
C97	C	1.361395	-0.284356	-0.492978
C98	C	1.303736	-0.253961	-0.514775
C99	C	1.361386	-0.284260	-1.018453
C100	C	1.361386	-0.284246	-1.065372
C101	C	1.246081	-0.223462	-1.062045
C102	C	1.246084	-0.223474	-1.015129
C103	C	1.303740	-0.253877	-0.993335
O104	O	1.197107	-0.197654	-0.939494
O105	O	1.410402	-0.310130	-0.945607
C106	C	1.361380	-0.284319	-0.732262
C107	C	1.303728	-0.253934	-0.707144
C108	C	1.246078	-0.223538	-0.728941
C109	C	1.303730	-0.253940	-0.660226
C110	C	1.361379	-0.284335	-0.638429
C111	C	1.419027	-0.314724	-0.663549
C112	C	1.419029	-0.314714	-0.710465
C113	C	1.188431	-0.193150	-0.703821
C114	C	1.188434	-0.193162	-0.656906
C115	C	1.246083	-0.223557	-0.635108
C116	C	1.303597	-0.253968	-0.137100
C117	C	1.303737	-0.253851	-0.087170
H118	H	1.408201	-0.427988	-0.204723
H119	H	0.818905	-0.321015	-0.320636
C120	C	0.635019	-0.323505	-0.323146
C121	C	0.542425	-0.314684	-0.314367
C122	C	0.495139	-0.342049	-0.341678
H123	H	0.650314	-0.354137	-0.316982
H124	H	0.650449	-0.317412	-0.353795
H125	H	0.527002	-0.320780	-0.283726
H126	H	0.527104	-0.284057	-0.320533
H127	H	0.510568	-0.335956	-0.372326
H128	H	0.510441	-0.372680	-0.335512
H129	H	0.432309	-0.336065	-0.335728
C130	C	0.635119	-0.203610	-0.203472
C131	C	0.580990	-0.227453	-0.173073
C132	C	0.533831	-0.197408	-0.142976
H133	H	0.598330	-0.182995	-0.219586
H134	H	0.676642	-0.187675	-0.187555
H135	H	0.539471	-0.243381	-0.188988
H136	H	0.617755	-0.248067	-0.156948
H137	H	0.575354	-0.181472	-0.127059
H138	H	0.497048	-0.176794	-0.159094
H139	H	0.497106	-0.213581	-0.122344
H140	H	1.198815	-0.507137	-0.302892
C141	C	1.481744	-0.347636	-0.737757
C142	C	1.539629	-0.323864	-0.766360
C143	C	1.597428	-0.354178	-0.791499
H144	H	1.447320	-0.366229	-0.755098
H145	H	1.516125	-0.365730	-0.718064
H146	H	1.505252	-0.305778	-0.786051
H147	H	1.574073	-0.305273	-0.749031
H148	H	1.631808	-0.372271	-0.771806
H149	H	1.562996	-0.372768	-0.808838
H150	H	1.636715	-0.338052	-0.810906
H151	H	1.465970	-0.339471	-0.645794
C152	C	1.125730	-0.160147	-0.629716
C153	C	1.075230	-0.133537	-0.658852
C154	C	1.017446	-0.103127	-0.633823
H155	H	1.160159	-0.141525	-0.612408
H156	H	1.086346	-0.176193	-0.610284
H157	H	1.114610	-0.117492	-0.678276
H158	H	1.040784	-0.152146	-0.676161
H159	H	0.978062	-0.119173	-0.614391
H160	H	1.051882	-0.084509	-0.616516
H161	H	0.983169	-0.085071	-0.653588
C162	C	0.972847	-0.304486	-0.304200
C163	C	0.911435	-0.327915	-0.327568
C164	C	0.958377	-0.358049	-0.357653
H165	H	1.009570	-0.325129	-0.288082
H166	H	1.009616	-0.288389	-0.324880
H167	H	0.874681	-0.344011	-0.306891
H168	H	0.874710	-0.307284	-0.343695
H169	H	0.995146	-0.341952	-0.378333
H170	H	0.995098	-0.378688	-0.341532
H171	H	0.916716	-0.373946	-0.373515
H172	H	1.141483	-0.168399	-0.721563
C173	C	1.423977	-0.519836	-0.197345
C174	C	1.474480	-0.490683	-0.173646
C175	C	1.532260	-0.515694	-0.146536
H176	H	1.463367	-0.539246	-0.215625
H177	H	1.389518	-0.537163	-0.176743
H178	H	1.508937	-0.473363	-0.194245
H179	H	1.435114	-0.471273	-0.155357
H180	H	1.497800	-0.533022	-0.125934
H181	H	1.571644	-0.535103	-0.164820
H182	H	1.566526	-0.495918	-0.130450
H183	H	1.465984	-0.339431	-0.871659
C184	C	1.481845	-0.639624	-0.170349
C185	C	1.532426	-0.671660	-0.146679
C186	C	1.590270	-0.649946	-0.119612
H187	H	1.447456	-0.620354	-0.149728
H188	H	1.521176	-0.622437	-0.188671
H189	H	1.493100	-0.688838	-0.128359
H190	H	1.566834	-0.690931	-0.167289
H191	H	1.629601	-0.632760	-0.137934
H192	H	1.555873	-0.630677	-0.098993
H193	H	1.624602	-0.671679	-0.103552
H194	H	1.465980	-0.339448	-0.786554
H195	H	0.789274	-0.186995	-0.187047
C196	C	0.973032	-0.184403	-0.184595
C197	C	1.027166	-0.157190	-0.211632
C198	C	1.074321	-0.129706	-0.184380
H199	H	1.009816	-0.202564	-0.166032
H200	H	0.931507	-0.166051	-0.166335
H201	H	1.068687	-0.175541	-0.229883
H202	H	0.990404	-0.139020	-0.230194
H203	H	1.032796	-0.111353	-0.166121
H204	H	1.111101	-0.147870	-0.165819
H205	H	1.111051	-0.111235	-0.202721
H206	H	1.408344	-0.309100	-0.513427
C207	C	1.183640	-0.190428	-0.987838
C208	C	1.234754	-0.163103	-0.962390
C209	C	1.177254	-0.132655	-0.937252
H210	H	1.144283	-0.206431	-0.968361
H211	H	1.149327	-0.172299	-1.007529
H212	H	1.269052	-0.181230	-0.942700
H213	H	1.274109	-0.147090	-0.981855
H214	H	1.142941	-0.114525	-0.956944
H215	H	1.137900	-0.148662	-0.917778
H216	H	1.211927	-0.114108	-0.919986
H217	H	1.466132	-0.730569	-0.177715
C218	C	1.183388	-1.085479	-0.310216
C219	C	1.125583	-1.110782	-0.283100
C220	C	1.067742	-1.132614	-0.310072
H221	H	1.217785	-1.104781	-0.330804
H222	H	1.148952	-1.063817	-0.326313
H223	H	1.160016	-1.132442	-0.267010
H224	H	1.091167	-1.091490	-0.262513
H225	H	1.033305	-1.110952	-0.326169
H226	H	1.102145	-1.151914	-0.330659
H227	H	1.028509	-1.149781	-0.291678
C228	C	1.424332	-0.994555	-0.197431
C229	C	1.474907	-1.026588	-0.173756
C230	C	1.532738	-1.004872	-0.146684
H231	H	1.389934	-0.975285	-0.176813
H232	H	1.463667	-0.977368	-0.215750
H233	H	1.435577	-1.043767	-0.155438
H234	H	1.509323	-1.045859	-0.194363
H235	H	1.572073	-0.987685	-0.165003
H236	H	1.498333	-0.985603	-0.126069
H237	H	1.567066	-1.026603	-0.130620
H238	H	1.141282	-0.776948	-0.329971
C239	C	1.183340	-0.987687	-0.310300
C240	C	1.132793	-1.016839	-0.333976
C241	C	1.074925	-0.991825	-0.361039
H242	H	1.217709	-0.970345	-0.330918
H243	H	1.143988	-0.968290	-0.291975
H244	H	1.172140	-1.036228	-0.352299
H245	H	1.098405	-1.034181	-0.313369
H246	H	1.035574	-0.972428	-0.342715
H247	H	1.109302	-0.974484	-0.381654
H248	H	1.040617	-1.011600	-0.377103
C249	C	1.125437	-0.629449	-0.337323
C250	C	1.074898	-0.658597	-0.361008
C251	C	1.017049	-0.633579	-0.388078
H252	H	1.159820	-0.612108	-0.357937
H253	H	1.086080	-0.610051	-0.319003
H254	H	1.114250	-0.677987	-0.379327
H255	H	1.040497	-0.675938	-0.340406
H256	H	0.977691	-0.614181	-0.369757
H257	H	1.051439	-0.616239	-0.408688
H258	H	0.982745	-0.653352	-0.404148
H259	H	1.141242	-0.721298	-0.329973
C260	C	1.183186	-0.415120	-0.310206
C261	C	1.195537	-0.369364	-0.304417
C262	C	1.137917	-0.344164	-0.331454
H263	H	1.122542	-0.421040	-0.301898
H264	H	1.196380	-0.423140	-0.340786
H265	H	1.182336	-0.361346	-0.273844
H266	H	1.256169	-0.363430	-0.312728
H267	H	1.151111	-0.352185	-0.362034
H268	H	1.077277	-0.350088	-0.323144
H269	H	1.146295	-0.313116	-0.327533
C270	C	1.481934	-0.780373	-0.170366
C271	C	1.532512	-0.812408	-0.146694
C272	C	1.590347	-0.790695	-0.119623
H273	H	1.447539	-0.761105	-0.149745
H274	H	1.521268	-0.763185	-0.188684
H275	H	1.493184	-0.829589	-0.128377
H276	H	1.566926	-0.831678	-0.167304
H277	H	1.629680	-0.773507	-0.137941
H278	H	1.555944	-0.771427	-0.099005
H279	H	1.624677	-0.812427	-0.103561
H280	H	1.408617	-1.085517	-0.204802
H281	H	1.466215	-0.871331	-0.177736
H282	H	1.141332	-0.862055	-0.329982
H283	H	1.408341	-0.309014	-1.000713
C284	C	1.424021	-0.317292	-1.092563
C285	C	1.474486	-0.343921	-1.063427
C286	C	1.532182	-0.374370	-1.088456
H287	H	1.463438	-0.301290	-1.112009
H288	H	1.389503	-0.335893	-1.109855
H289	H	1.509002	-0.325322	-1.046143
H290	H	1.435093	-0.359932	-1.043980
H291	H	1.497664	-0.392971	-1.105748
H292	H	1.571593	-0.358364	-1.107902
H293	H	1.566424	-0.392444	-1.068691
H294	H	1.199151	-0.198829	-0.422289
C295	C	1.423928	-0.317440	-0.422444
C296	C	1.404220	-0.361318	-0.433284
C297	C	1.461807	-0.391799	-0.411540
H298	H	1.415724	-0.313152	-0.390900
H299	H	1.484572	-0.312643	-0.431895
H300	H	1.343591	-0.366113	-0.423831
H301	H	1.412430	-0.365620	-0.464824
H302	H	1.522451	-0.387003	-0.420990
H303	H	1.453598	-0.387508	-0.379997
H304	H	1.448449	-0.421574	-0.418895
C305	C	1.183455	-0.190516	-0.513233
C306	C	1.132997	-0.163899	-0.481187
C307	C	1.075302	-0.133438	-0.502889
H308	H	1.144034	-0.206508	-0.530394
H309	H	1.217974	-0.171908	-0.532528
H310	H	1.098481	-0.182505	-0.461900
H311	H	1.172394	-0.147897	-0.464025
H312	H	1.109821	-0.114830	-0.522184
H313	H	1.035886	-0.149434	-0.520049
H314	H	1.041065	-0.115372	-0.481150
H315	H	1.141463	-0.168388	-0.777213
C316	C	1.125782	-0.160076	-0.868159
C317	C	1.075310	-0.133461	-0.836116
C318	C	1.017612	-0.103004	-0.857822
H319	H	1.086369	-0.176072	-0.885322
H320	H	1.160299	-0.141466	-0.887453
H321	H	1.040796	-0.152068	-0.816830
H322	H	1.114700	-0.117455	-0.818952
H323	H	1.052130	-0.084395	-0.877116
H324	H	0.978205	-0.119004	-0.874984
H325	H	0.983367	-0.084940	-0.836085
H326	H	1.199147	-0.198714	-1.079801
