data_functionalizedCrystal
_audit_creation_method	'MofGen! by Chris Wilmer'
_symmetry_space_group_name_H-M	'P1'
_symmetry_Int_Tables_number	1
_symmetry_cell_setting	triclinic
loop_
_symmetry_equiv_pos_as_xyz
  x,y,z
_cell_length_a	12.759401
_cell_length_b	12.759400
_cell_length_c	12.759393
_cell_angle_alpha	90.030490
_cell_angle_beta	90.020154
_cell_angle_gamma	90.014668
loop_
_atom_site_label
_atom_site_type_symbol
_atom_site_fract_x
_atom_site_fract_y
_atom_site_fract_z
Zn1	Zn	1.606266	-0.418216	0.593998
Zn2	Zn	1.606158	-0.593931	0.418318
Zn3	Zn	1.430565	-0.418267	0.418336
Zn4	Zn	1.430557	-0.593853	0.593958
O5	O	1.518387	-0.506067	0.506153
O6	O	1.753273	-0.441536	0.570703
O7	O	1.582823	-0.570683	0.271299
O8	O	1.453921	-0.271239	0.441662
O9	O	1.753193	-0.570634	0.441632
O10	O	1.583008	-0.271202	0.570720
O11	O	1.453816	-0.441623	0.271312
O12	O	1.283543	-0.441548	0.441623
O13	O	1.453908	-0.570501	0.740984
O14	O	1.283537	-0.570550	0.570652
O15	O	1.583000	-0.441461	0.741014
O16	O	1.582815	-0.740942	0.441593
O17	O	1.453802	-0.740885	0.570635
C18	C	1.245419	-0.506047	0.506135
C19	C	1.128643	-0.506063	0.506153
C20	C	0.964092	-0.438977	0.573473
C21	C	1.073817	-0.438963	0.573464
C22	C	1.073739	-0.573191	0.438855
C23	C	0.964017	-0.573210	0.438870
C24	C	0.909272	-0.371865	0.640781
C25	C	0.964168	-0.304738	0.708081
C26	C	1.073892	-0.304724	0.708071
C27	C	1.128720	-0.371836	0.640762
C28	C	1.518324	-0.779034	0.506131
C29	C	1.518394	-0.895811	0.506156
C30	C	1.585645	-0.950668	0.439039
C31	C	1.585710	-1.060392	0.439071
C32	C	1.451262	-1.060392	0.573342
C33	C	1.451204	-0.950670	0.573314
C34	C	1.652835	-0.895809	0.371881
C35	C	1.720091	-0.950666	0.304757
C36	C	1.720156	-1.060390	0.304790
C37	C	1.652964	-1.115257	0.371946
C38	C	1.792420	-0.506088	0.506170
C39	C	1.909196	-0.506097	0.506178
C40	C	1.518465	-0.505966	0.780186
C41	C	1.518499	-0.505923	0.896963
C42	C	1.518478	-0.232034	0.506198
C43	C	1.518517	-0.115257	0.506217
C44	C	1.518369	-0.506092	0.233185
C45	C	1.518539	-0.505839	0.116409
C46	C	1.585722	-0.438721	0.951842
C47	C	1.585740	-0.438676	1.061566
C48	C	1.451308	-0.573044	1.061522
C49	C	1.451285	-0.573083	0.951800
H50	H	0.919520	-0.250105	0.762887
O51	O	1.378815	-0.645476	1.120670
H52	H	1.425825	-0.698924	1.170652
O53	O	1.658234	-0.366186	1.120763
H54	H	1.711672	-0.413189	1.170769
O55	O	1.132876	-0.645560	0.366254
H56	H	1.076269	-0.692242	0.319465
H57	H	1.218065	-0.371811	0.640752
H58	H	0.919319	-0.627867	0.384075
O59	O	1.653037	-1.233603	0.371985
H60	H	1.573819	-1.262615	0.350698
O61	O	1.658204	-0.366281	0.892690
H62	H	1.704945	-0.319537	0.949290
O63	O	1.792706	-1.119548	0.232400
H64	H	1.846174	-1.169442	0.279486
O65	O	1.133108	-0.232325	0.780649
H66	H	1.076550	-0.185656	0.827443
H67	H	1.652787	-0.806466	0.371844
H68	H	1.396536	-0.627806	0.907116
O69	O	1.792580	-0.891498	0.232345
H70	H	1.781238	-0.805984	0.243595
H71	H	1.396557	-1.105074	0.628016
H72	H	1.396442	-0.906005	0.627968
H73	H	0.819929	-0.371864	0.640792
