data_functionalizedCrystal
_audit_creation_method	'MofGen! by Chris Wilmer'
_symmetry_space_group_name_H-M	'P1'
_symmetry_Int_Tables_number	1
_symmetry_cell_setting	triclinic
loop_
_symmetry_equiv_pos_as_xyz
  x,y,z
_cell_length_a	12.811457
_cell_length_b	14.853567
_cell_length_c	11.892283
_cell_angle_alpha	86.103242
_cell_angle_beta	99.325393
_cell_angle_gamma	83.839833
loop_
_atom_site_label
_atom_site_type_symbol
_atom_site_fract_x
_atom_site_fract_y
_atom_site_fract_z
O1	O	1.396340	0.118423	0.049153
O2	O	1.088529	0.133554	0.017597
O3	O	1.250656	-0.005271	0.034214
O4	O	1.234212	0.257247	0.032536
O5	O	1.264145	-0.016827	0.223599
O6	O	1.102018	0.121997	0.206982
O7	O	1.409829	0.106867	0.238538
Zn8	Zn	1.258065	0.112597	0.252829
Zn9	Zn	1.240293	0.127823	0.003306
O10	O	1.247702	0.245691	0.221921
C11	C	1.055881	0.127282	0.108251
C12	C	0.938503	0.125801	0.096217
C13	C	0.732646	0.110402	0.280095
C14	C	0.622360	0.109010	0.268794
C15	C	0.607643	0.121619	0.062315
C16	C	0.717929	0.123011	0.073616
C17	C	0.780427	0.117403	0.182510
C18	C	0.890714	0.118802	0.193810
C19	C	0.875996	0.131404	-0.012668
C20	C	0.765710	0.130012	-0.023969
C21	C	1.256655	-0.044635	0.128827
C22	C	1.254422	-0.144710	0.128588
C23	C	1.148678	-0.556864	0.117769
C24	C	1.341289	-0.578839	0.137515
C25	C	1.343388	-0.484813	0.137724
C26	C	1.248130	-0.426807	0.127957
C27	C	1.150774	-0.462829	0.117981
C28	C	1.440744	-0.448785	0.147711
C29	C	1.442847	-0.354753	0.147921
C30	C	1.347587	-0.296745	0.138146
C31	C	1.250227	-0.332772	0.128168
C32	C	1.154969	-0.274767	0.118401
C33	C	1.057607	-0.310791	0.108416
C34	C	1.055515	-0.404821	0.108206
C35	C	1.349680	-0.202715	0.138356
C36	C	1.157065	-0.180731	0.118613
C37	C	1.442477	0.113138	0.147882
C38	C	1.559854	0.114619	0.159908
C39	C	1.241702	0.285055	0.127305
C40	C	1.243935	0.385131	0.127537
N41	N	1.270202	0.102206	0.423122
N42	N	1.228164	0.138207	-0.166987
C43	C	1.354770	0.029850	0.609294
C44	C	1.346262	0.037121	0.490084
C45	C	1.202647	0.160025	0.475380
C46	C	1.211155	0.152754	0.594591
C47	C	1.287217	0.087663	0.661544
C48	C	1.295719	0.080388	0.780756
C49	C	1.152110	0.203295	0.766051
C50	C	1.143602	0.210567	0.646840
H51	H	0.583461	0.103313	0.348259
H52	H	1.428951	-0.173389	0.146493
Br53	Br	1.016548	-0.605749	0.104202
Br54	Br	0.923392	-0.453716	0.094648
Br55	Br	1.398941	-0.007951	0.871619
H56	H	1.140726	0.213026	0.420852
H57	H	1.081676	0.263564	0.592314
H58	H	0.980049	-0.263551	0.100471
Br59	Br	1.457981	-0.058496	0.700160
H60	H	0.783531	0.105848	0.368760
Br61	Br	0.522822	0.129129	-0.085455
H62	H	1.418844	-0.626073	0.145476
Br63	Br	0.680888	0.137586	-0.171745
H64	H	0.914910	0.137111	-0.092130
H65	H	1.097101	0.250368	0.808605
Br66	Br	1.437949	-0.041338	0.419176
Br67	Br	0.975532	0.111198	0.341591
H68	H	1.518298	-0.496020	0.155673
Br69	Br	1.027779	-0.102015	0.105343
H70	H	1.522125	-0.325431	0.156050
