data_functionalizedCrystal
_audit_creation_method	'MofGen! by Chris Wilmer'
_symmetry_space_group_name_H-M	'P1'
_symmetry_Int_Tables_number	1
_symmetry_cell_setting	triclinic
loop_
_symmetry_equiv_pos_as_xyz
  x,y,z
_cell_length_a	19.188930
_cell_length_b	16.992695
_cell_length_c	15.455313
_cell_angle_alpha	87.152573
_cell_angle_beta	92.686066
_cell_angle_gamma	86.906501
loop_
_atom_site_label
_atom_site_type_symbol
_atom_site_fract_x
_atom_site_fract_y
_atom_site_fract_z
O1	O	-0.934752	-0.094420	-0.072413
O2	O	-0.434752	0.405580	0.427587
O3	O	-0.732209	-0.107598	-0.072354
O4	O	-0.232209	0.392402	0.427646
O5	O	-0.832668	0.013131	-0.072377
O6	O	-0.332668	0.513131	0.427623
O7	O	-0.834293	-0.215148	-0.072391
O8	O	-0.334293	0.284852	0.427609
O9	O	-0.826922	0.006255	0.071887
O10	O	-0.326922	0.506255	0.571887
O11	O	-0.726463	-0.114473	0.071909
O12	O	-0.226463	0.385527	0.571909
O13	O	-0.929005	-0.101295	0.071850
O14	O	-0.429005	0.398705	0.571850
Cu15	Cu	-0.827209	-0.108512	0.085052
Cu16	Cu	-0.327209	0.391488	0.585052
Cu17	Cu	-0.834005	-0.100381	-0.085556
Cu18	Cu	-0.334005	0.399619	0.414444
O19	O	-0.828546	-0.222024	0.071873
O20	O	-0.328546	0.277976	0.571873
C21	C	-0.827706	0.038899	-0.000244
C22	C	-0.327706	0.538899	0.499756
C23	C	-0.821473	0.125921	-0.000243
C24	C	-0.321473	0.625921	0.499757
C25	C	-0.703300	-0.110609	-0.000215
C26	C	-0.203300	0.389391	0.499785
C27	C	-0.625719	-0.109329	-0.000192
C28	C	-0.125719	0.390671	0.499808
C29	C	-0.957915	-0.098284	-0.000291
C30	C	-0.457915	0.401716	0.499709
C31	C	-1.035495	-0.099563	-0.000320
C32	C	-0.535495	0.400437	0.499680
C33	C	-0.584941	-0.180168	-0.000210
C34	C	-0.084941	0.319832	0.499790
C35	C	-0.512047	-0.178964	-0.000219
C36	C	-0.012047	0.321036	0.499781
C37	C	-0.479935	-0.106917	-0.000228
C38	C	0.020065	0.393083	0.499772
C39	C	-0.520722	-0.036070	-0.000205
C40	C	-0.020722	0.463930	0.499795
C41	C	-0.593614	-0.037276	-0.000187
C42	C	-0.093614	0.462724	0.499813
N43	N	-0.370689	-0.049505	-0.049359
N44	N	0.129311	0.450495	0.450641
N45	N	-0.301445	-0.048364	-0.049378
N46	N	0.198555	0.451636	0.450622
C47	C	-0.260316	-0.103279	-0.000281
C48	C	0.239684	0.396721	0.499719
N49	N	-0.291047	-0.159389	0.048825
N50	N	0.208953	0.340611	0.548825
N51	N	-0.360298	-0.160532	0.048840
N52	N	0.139702	0.339468	0.548840
C53	C	-0.400897	-0.105601	-0.000247
C54	C	0.099103	0.394399	0.499753
C55	C	-0.140498	-0.172817	-0.000308
C56	C	0.359502	0.327183	0.499692
C57	C	-0.067603	-0.171610	-0.000312
C58	C	0.432397	0.328390	0.499688
C59	C	-0.076279	-0.028714	-0.000307
C60	C	0.423721	0.471286	0.499693
C61	C	-0.149173	-0.029923	-0.000294
C62	C	0.350827	0.470077	0.499706
C63	C	-0.181278	-0.101976	-0.000299
C64	C	0.318722	0.398024	0.499701
C65	C	-0.833508	-0.247791	-0.000261
C66	C	-0.333508	0.252209	0.499739
C67	C	-0.839742	-0.334814	-0.000269
C68	C	-0.339742	0.165186	0.499731
N69	N	-0.822435	-0.114230	0.205049
N70	N	-0.322435	0.385770	0.705049
C71	C	-0.881613	0.176369	-0.000259
C72	C	-0.381613	0.676369	0.499741
C73	C	-0.875753	0.258136	-0.000266
C74	C	-0.375753	0.758136	0.499734
C75	C	-0.809751	0.289453	-0.000250
C76	C	-0.309751	0.789453	0.499750
C77	C	-0.749607	0.238999	-0.000235
C78	C	-0.249607	0.738999	0.499765
C79	C	-0.755468	0.157234	-0.000235
C80	C	-0.255468	0.657234	0.499765
C81	C	-0.785458	0.532968	-0.000254
C82	C	-0.285458	1.032968	0.499746
C83	C	-0.779602	0.614739	-0.000252
C84	C	-0.279602	1.114739	0.499748
C85	C	-0.905748	0.633870	-0.000284
C86	C	-0.405748	1.133870	0.499716
C87	C	-0.911604	0.552102	-0.000279
C88	C	-0.411604	1.052102	0.499721
C89	C	-0.851459	0.501656	-0.000269
C90	C	-0.351459	1.001656	0.499731
N91	N	-0.803759	0.373031	-0.000253
N92	N	-0.303759	0.873031	0.499747
N93	N	-0.857452	0.418079	-0.000271
N94	N	-0.357452	0.918079	0.499729
N95	N	-0.838785	-0.094656	-0.205553
N96	N	-0.338785	0.405344	0.294447
C97	C	-0.865130	-0.062959	0.250433
C98	C	-0.365130	0.437041	0.750433
C99	C	-0.861526	-0.067291	0.341242
C100	C	-0.361526	0.432709	0.841242
C101	C	-0.815230	-0.122898	0.386664
C102	C	-0.315230	0.377102	0.886664
C103	C	-0.772530	-0.174172	0.341274
C104	C	-0.272530	0.325828	0.841274
C105	C	-0.776131	-0.169835	0.250467
C106	C	-0.276131	0.330165	0.750467
C107	C	-0.799686	-0.141593	0.658249
C108	C	-0.299686	0.358407	1.158249
C109	C	-0.796089	-0.145927	0.749063
C110	C	-0.296089	0.354073	1.249063
C111	C	-0.885085	-0.039045	0.749025
C112	C	-0.385085	0.460955	1.249025
C113	C	-0.888685	-0.034717	0.658216
C114	C	-0.388685	0.465283	1.158216
C115	C	-0.845982	-0.085988	0.612833
C116	C	-0.345982	0.414012	1.112833
N117	N	-0.811546	-0.127329	0.479486
N118	N	-0.311546	0.372671	0.979486
N119	N	-0.849663	-0.081553	0.520014
N120	N	-0.349663	0.418447	1.020014
H121	H	-0.611076	-0.238839	-0.000215
H122	H	-0.111076	0.261161	0.499785
H123	H	-0.695867	0.264504	-0.000228
H124	H	-0.195867	0.764504	0.499772
C125	C	-0.706997	0.649187	-0.000249
C126	C	-0.206997	1.149187	0.499751
H127	H	-0.672017	0.607434	-0.000254
H128	H	-0.172017	1.107434	0.499746
H129	H	-0.700078	0.678293	0.050057
H130	H	-0.200078	1.178293	0.550057
H131	H	-0.704105	0.683080	-0.050565
H132	H	-0.204105	1.183080	0.449435
C133	C	-0.752735	-0.198007	0.608335
C134	C	-0.252735	0.301993	1.108335
H135	H	-0.761506	-0.187464	0.547748
H136	H	-0.261506	0.312536	1.047748
H137	H	-0.762657	-0.251011	0.623212
H138	H	-0.262657	0.248989	1.123212
H139	H	-0.705075	-0.190344	0.623241
H140	H	-0.205075	0.309656	1.123241
H141	H	-0.736484	0.491903	-0.000246
H142	H	-0.236484	0.991903	0.499754
H143	H	-0.741362	-0.211585	0.213515
H144	H	-0.241362	0.288415	0.713515
H145	H	-0.919851	0.002698	0.785984
H146	H	-0.419851	0.502698	1.285984
C147	C	-0.689316	0.101739	-0.000217
C148	C	-0.189316	0.601739	0.499783
H149	H	-0.702259	0.048558	-0.000229
H150	H	-0.202259	0.548558	0.499771
H151	H	-0.660433	0.108810	0.050096
H152	H	-0.160433	0.608810	0.550096
H153	H	-0.664449	0.113605	-0.050526
H154	H	-0.164449	0.613605	0.449474
C155	C	-0.467183	-0.256888	-0.000252
C156	C	0.032817	0.243112	0.499748
H157	H	-0.496744	-0.299971	-0.000260
H158	H	0.003256	0.200029	0.499740
H159	H	-0.436541	-0.261794	0.050043
H160	H	0.063459	0.238206	0.550043
H161	H	-0.440596	-0.256976	-0.050579
H162	H	0.059404	0.243024	0.449421
H163	H	-0.924725	0.299207	-0.000278
H164	H	-0.424725	0.799207	0.499722
C165	C	-0.721581	-0.235316	0.391232
C166	C	-0.221581	0.264684	0.891232
H167	H	-0.696658	-0.265219	0.351194
H168	H	-0.196658	0.234781	0.851194
H169	H	-0.747086	-0.269582	0.426648
H170	H	-0.247086	0.230418	0.926648
H171	H	-0.689551	-0.208859	0.426664
H172	H	-0.189551	0.291141	0.926664
H173	H	-0.626816	0.020411	-0.000173
H174	H	-0.126816	0.520411	0.499827
C175	C	-0.916056	-0.001790	0.200476
C176	C	-0.416056	0.498210	0.700476
H177	H	-0.940962	0.028129	0.240515
H178	H	-0.440962	0.528129	0.740515
H179	H	-0.948092	-0.028215	0.165028
H180	H	-0.448092	0.471785	0.665028
H181	H	-0.890524	0.032468	0.165077
H182	H	-0.390524	0.532468	0.665077
H183	H	-0.166638	-0.231487	-0.000299
H184	H	0.333362	0.268513	0.499701
C185	C	-0.485402	0.043179	-0.000220
C186	C	0.014598	0.543179	0.499780
H187	H	-0.436150	0.033753	-0.000243
H188	H	0.063850	0.533753	0.499757
H189	H	-0.497106	0.069942	0.050091
H190	H	0.002894	0.569942	0.550091
H191	H	-0.501154	0.074732	-0.050531
H192	H	-0.001154	0.574732	0.449469
H193	H	-0.896292	-0.025542	0.378194
H194	H	-0.396292	0.474458	0.878194
H195	H	-0.034402	-0.229298	-0.000322
H196	H	0.465598	0.270702	0.499678
H197	H	-0.050137	0.029950	-0.000368
H198	H	0.449863	0.529950	0.499632
H199	H	-0.926383	0.010562	0.621235
H200	H	-0.426383	0.510562	1.121235
H201	H	-0.758387	-0.191213	0.786042
H202	H	-0.258387	0.308787	1.286042
H203	H	-0.182375	0.027762	-0.000284
H204	H	0.317625	0.527762	0.499716
H205	H	-0.935358	0.150877	-0.000267
H206	H	-0.435358	0.650877	0.499733
C207	C	-0.984206	0.517659	-0.000308
C208	C	-0.484206	1.017659	0.499692
H209	H	-1.019185	0.559416	-0.000328
H210	H	-0.519185	1.059416	0.499672
H211	H	-0.987113	0.483764	0.049997
H212	H	-0.487113	0.983764	0.549997
H213	H	-0.991113	0.488558	-0.050625
H214	H	-0.491113	0.988558	0.449375
H215	H	-0.954714	0.674952	-0.000293
H216	H	-0.454714	1.174952	0.499707
