data_functionalizedCrystal
_audit_creation_method	'MofGen! by Chris Wilmer'
_symmetry_space_group_name_H-M	'P1'
_symmetry_Int_Tables_number	1
_symmetry_cell_setting	triclinic
loop_
_symmetry_equiv_pos_as_xyz
  x,y,z
_cell_length_a	10.908878
_cell_length_b	11.026607
_cell_length_c	16.053802
_cell_angle_alpha	93.134017
_cell_angle_beta	88.057050
_cell_angle_gamma	84.335404
loop_
_atom_site_label
_atom_site_type_symbol
_atom_site_fract_x
_atom_site_fract_y
_atom_site_fract_z
O1	O	1.666506	-0.185000	-0.069416
O2	O	1.313571	-0.094461	-0.069419
O3	O	1.460787	-0.310480	-0.069415
O4	O	1.519289	0.031019	-0.069420
O5	O	1.452675	-0.298630	0.069444
O6	O	1.305459	-0.082611	0.069439
O7	O	1.658393	-0.173150	0.069443
Zn8	Zn	1.480638	-0.125999	0.091488
Zn9	Zn	1.491326	-0.141612	-0.091464
O10	O	1.511177	0.042869	0.069439
C11	C	1.263629	-0.080074	0.000009
C12	C	1.126902	-0.054876	0.000008
C13	C	1.056639	-0.146820	0.000009
C14	C	0.915324	-0.120779	0.000007
C15	C	1.445939	-0.347588	0.000014
C16	C	1.413766	-0.475810	0.000010
C17	C	1.502601	-0.567543	0.000010
C18	C	1.469351	-0.700068	0.000007
C19	C	1.708335	-0.187537	0.000012
C20	C	1.845063	-0.212736	0.000009
C21	C	1.526026	0.079977	0.000008
C22	C	1.558199	0.208198	0.000006
N23	N	1.473352	-0.115346	0.216348
N24	N	1.498620	-0.152276	-0.216324
C25	C	1.536028	-0.207242	0.260044
C26	C	1.530946	-0.199781	0.347451
C27	C	1.463193	-0.100420	0.391160
C28	C	1.400509	-0.008519	0.347458
C29	C	1.405585	-0.015985	0.260053
C30	C	1.441012	-0.067841	0.652569
C31	C	1.435944	-0.060380	0.739980
C32	C	1.566379	-0.251645	0.739967
C33	C	1.571455	-0.259098	0.652560
C34	C	1.508766	-0.167200	0.608866
N35	N	1.458000	-0.092790	0.480503
N36	N	1.513953	-0.174836	0.519524
H37	H	1.603271	-0.547967	0.000016
C38	C	1.645976	-0.368398	0.604477
C39	C	1.714922	-0.469493	0.652533
C40	C	1.789446	-0.578790	0.604447
C41	C	1.795025	-0.586992	0.508305
C42	C	1.726076	-0.485893	0.460244
C43	C	1.651552	-0.376596	0.508330
H44	H	1.710795	-0.463425	0.723708
H45	H	1.840487	-0.653630	0.640026
H46	H	1.850192	-0.667900	0.472709
H47	H	1.730204	-0.491961	0.389069
H48	H	1.600512	-0.301756	0.472751
C49	C	1.325980	0.100782	0.395533
C50	C	1.320463	0.109049	0.491675
C51	C	1.245934	0.218356	0.539748
C52	C	1.176923	0.319396	0.491678
C53	C	1.182438	0.311133	0.395531
C54	C	1.256966	0.201826	0.347458
H55	H	1.371551	0.034250	0.527264
H56	H	1.241853	0.224473	0.610923
H57	H	1.121753	0.400311	0.527264
H58	H	1.131349	0.385932	0.359942
H59	H	1.261048	0.195709	0.276283
H60	H	0.889522	-0.310740	0.000004
H61	H	1.368674	-0.719637	-0.000000
C62	C	1.635323	-0.352734	0.788031
C63	C	1.563396	-0.426630	0.848132
C64	C	1.632340	-0.527729	0.896195
C65	C	1.773209	-0.554931	0.884156
C66	C	1.845144	-0.481033	0.824052
C67	C	1.776200	-0.379935	0.775989
H68	H	1.459109	-0.406495	0.857047
H69	H	1.579088	-0.582433	0.940688
H70	H	1.824245	-0.629770	0.919735
H71	H	1.949431	-0.501168	0.815137
H72	H	1.829452	-0.325231	0.731496
C73	C	1.361405	0.048924	0.788058
C74	C	1.253617	0.027630	0.848171
C75	C	1.179084	0.136930	0.896248
C76	C	1.212340	0.267524	0.884212
C77	C	1.320133	0.288824	0.824096
C78	C	1.394665	0.179524	0.776019
H79	H	1.228994	-0.069049	0.857084
H80	H	1.099289	0.121161	0.940750
H81	H	1.157166	0.348435	0.919801
H82	H	1.344755	0.385503	0.815184
H83	H	1.474461	0.195293	0.731517
H84	H	1.101105	-0.244817	0.000007
H85	H	0.870864	-0.022776	0.000002
H86	H	1.658880	-0.772240	-0.000055
C87	C	1.066846	0.077516	0.000005
C88	C	1.088257	0.170032	0.072109
C89	C	1.028206	0.302428	0.072107
C90	C	0.946743	0.342308	-0.000000
C91	C	0.925328	0.249791	-0.072110
C92	C	0.985380	0.117395	-0.072107
H93	H	1.148564	0.140512	0.125492
H94	H	1.044059	0.370915	0.125487
H95	H	0.902290	0.440315	-0.000002
H96	H	0.865022	0.279311	-0.125493
H97	H	0.969527	0.048908	-0.125488
H98	H	1.313095	-0.495386	0.000004
H99	H	1.591205	-0.288149	0.224462
H100	H	1.581980	-0.274611	0.383027
H101	H	1.389971	0.006987	0.617000
H102	H	1.354546	0.058845	0.224476
