data_functionalizedCrystal
_audit_creation_method	'MofGen! by Chris Wilmer'
_symmetry_space_group_name_H-M	'P1'
_symmetry_Int_Tables_number	1
_symmetry_cell_setting	triclinic
loop_
_symmetry_equiv_pos_as_xyz
  x,y,z
_cell_length_a	14.971491
_cell_length_b	10.540510
_cell_length_c	9.016244
_cell_angle_alpha	90.005399
_cell_angle_beta	89.998849
_cell_angle_gamma	84.064773
loop_
_atom_site_label
_atom_site_type_symbol
_atom_site_fract_x
_atom_site_fract_y
_atom_site_fract_z
O1	O	1.187851	0.165461	0.123396
O2	O	0.927562	0.185264	0.123384
O3	O	1.063659	-0.009414	0.123389
O4	O	1.051754	0.360139	0.123390
O5	O	1.063667	-0.009434	-0.123291
O6	O	0.927570	0.185244	-0.123297
O7	O	1.187860	0.165441	-0.123285
Cu8	Cu	1.057716	0.175340	-0.145815
Cu9	Cu	1.057706	0.175365	0.145914
O10	O	1.051763	0.360118	-0.123291
C11	C	0.894237	0.184367	0.000042
C12	C	0.794925	0.181710	0.000038
C13	C	1.062776	-0.056717	0.000052
C14	C	1.060122	-0.197637	0.000061
C15	C	0.367151	0.170254	0.134538
C16	C	0.460465	0.172747	0.134532
C17	C	0.507123	0.173990	0.000061
C18	C	0.460462	0.172728	-0.134413
C19	C	0.367151	0.170226	-0.134406
C20	C	0.654953	0.177946	-0.134418
C21	C	0.748271	0.180451	-0.134426
C22	C	0.748268	0.180467	0.134519
C23	C	0.654956	0.177965	0.134527
C24	C	0.608302	0.176705	0.000052
C25	C	1.154668	-0.416163	-0.000500
C26	C	1.157499	-0.269600	0.000064
C27	C	1.010269	-0.241820	0.140922
C28	C	1.008128	-0.388557	0.141033
C29	C	1.006110	-0.388366	-0.139490
C30	C	1.010729	-0.242077	-0.141344
C31	C	1.221185	0.166338	0.000060
C32	C	1.320497	0.168995	0.000074
C33	C	1.052646	0.407422	0.000050
C34	C	1.055300	0.548342	0.000051
N35	N	1.057730	0.175322	-0.351001
N36	N	1.057699	0.175372	0.351100
C37	C	0.984986	0.279610	0.586129
C38	C	0.984705	0.279370	0.414238
C39	C	1.036723	0.042782	0.413463
C40	C	1.036217	0.043365	0.585408
C41	C	1.151657	0.202445	0.585622
C42	C	1.151034	0.205483	0.413667
H43	H	0.498448	0.173764	0.244026
H44	H	0.915689	0.262478	0.629339
H45	H	1.196725	-0.241630	0.101216
H46	H	0.932998	-0.409688	-0.140442
H47	H	0.997287	0.377913	0.372076
N48	N	1.050858	-0.439468	0.273134
N49	N	1.082052	-0.366591	0.364605
H50	H	1.112233	-0.402541	0.457905
H51	H	0.997378	0.378468	0.627507
H52	H	0.939636	-0.192206	-0.149853
H53	H	0.915009	0.262004	0.373107
N54	N	1.044709	-0.442062	-0.273438
N55	N	1.044783	-0.558739	-0.298308
H56	H	1.072050	-0.596666	-0.392904
H57	H	0.329165	0.169214	-0.243900
H58	H	0.616969	0.176936	-0.243922
N59	N	0.508138	0.174018	-0.271753
N60	N	0.552523	0.264829	-0.301732
H61	H	0.586196	0.265747	-0.398729
N62	N	0.950252	0.013496	0.635707
N63	N	0.891046	-0.007631	0.543823
H64	H	0.830327	-0.028714	0.579338
N65	N	1.206432	-0.233363	-0.126610
N66	N	1.238728	-0.316396	-0.216052
H67	H	1.273293	-0.290812	-0.305517
N68	N	1.202000	-0.471259	0.125499
N69	N	1.270405	-0.548323	0.107662
H70	H	1.303832	-0.587239	0.196649
N71	N	1.219594	0.107077	0.636628
N72	N	1.299506	0.111353	0.598545
H73	H	1.347482	0.043999	0.634576
H74	H	0.329168	0.169250	0.244040
H75	H	0.616969	0.176961	0.244025
H76	H	1.166930	0.303033	0.372935
H77	H	1.192609	-0.458556	-0.101519
H78	H	0.786258	0.181495	0.244014
H79	H	1.087154	-0.036594	0.626994
N80	N	1.056205	-0.206713	-0.272103
N81	N	1.087754	-0.290601	-0.361109
H82	H	1.119868	-0.265616	-0.453462
H83	H	1.088265	-0.036695	0.372562
H84	H	0.786256	0.181471	-0.243924
N85	N	0.916759	-0.416358	0.149034
N86	N	0.854777	-0.327423	0.154530
H87	H	0.790248	-0.347051	0.160180
H88	H	0.938582	-0.193619	0.146157
H89	H	0.968978	0.018392	0.370389
N90	N	1.053698	-0.203589	0.272426
N91	N	1.121352	-0.143817	0.262769
H92	H	1.152029	-0.116818	0.355640
N93	N	1.176762	0.321154	0.640072
N94	N	1.125724	0.387213	0.726262
H95	H	1.143444	0.471056	0.764721
H96	H	1.207743	0.134501	0.370686
