data_functionalizedCrystal
_audit_creation_method	'MofGen! by Chris Wilmer'
_symmetry_space_group_name_H-M	'P1'
_symmetry_Int_Tables_number	1
_symmetry_cell_setting	triclinic
loop_
_symmetry_equiv_pos_as_xyz
  x,y,z
_cell_length_a	7.681481
_cell_length_b	8.559649
_cell_length_c	8.559649
_cell_angle_alpha	110.221336
_cell_angle_beta	94.930900
_cell_angle_gamma	94.912990
loop_
_atom_site_label
_atom_site_type_symbol
_atom_site_fract_x
_atom_site_fract_y
_atom_site_fract_z
O1	O	-0.146412	2.109660	0.037796
O2	O	-0.146416	1.634174	-0.045986
O3	O	-0.146412	1.913808	0.233648
O4	O	-0.146416	1.830026	-0.241838
O5	O	0.146446	1.948235	0.268135
O6	O	0.146442	1.668601	-0.011498
O7	O	0.146446	2.144087	0.072283
Zn8	Zn	0.192942	1.911810	0.035868
Zn9	Zn	-0.192912	1.866451	-0.009571
O10	O	0.146442	1.864453	-0.207350
C11	C	0.000012	1.591079	-0.035091
C12	C	0.000010	1.411379	-0.053991
C13	C	0.000014	1.937370	0.311200
C14	C	0.000004	1.956268	0.490898
N15	N	0.456276	1.942778	0.066881
N16	N	-0.456247	1.835497	-0.040570
C17	C	0.000014	2.187182	0.061388
C18	C	0.000004	2.366880	0.080286
C19	C	0.000012	1.840890	-0.284903
C20	C	0.000010	1.821991	-0.464603
H21	H	0.468555	1.725987	-0.150246
H22	H	0.000015	1.692572	0.436020
H23	H	0.000020	2.085698	0.590288
O24	O	0.545712	2.073569	0.197784
C25	C	0.424990	2.168645	0.293073
H26	H	0.293526	2.147065	0.211451
H27	H	0.405457	2.128291	0.404754
C28	C	0.658559	2.382669	0.456808
C29	C	0.497097	2.356175	0.356554
H30	H	0.703040	2.498346	0.495973
H31	H	0.739894	2.318612	0.392614
H32	H	0.642260	2.349030	0.549862
H33	H	0.513402	2.389794	0.263492
H34	H	0.415767	2.420242	0.420734
H35	H	-0.000004	2.311999	-0.183412
H36	H	0.000001	2.466268	0.209714
