data_functionalizedCrystal
_audit_creation_method	'MofGen! by Chris Wilmer'
_symmetry_space_group_name_H-M	'P1'
_symmetry_Int_Tables_number	1
_symmetry_cell_setting	triclinic
loop_
_symmetry_equiv_pos_as_xyz
  x,y,z
_cell_length_a	29.839131
_cell_length_b	14.908571
_cell_length_c	14.908308
_cell_angle_alpha	90.175053
_cell_angle_beta	93.265430
_cell_angle_gamma	86.737839
loop_
_atom_site_label
_atom_site_type_symbol
_atom_site_fract_x
_atom_site_fract_y
_atom_site_fract_z
Zn1	Zn	-0.234442	1.345121	-0.587568
Zn2	Zn	-0.305499	1.353649	-0.437204
Zn3	Zn	-0.225813	1.203443	-0.428566
Zn4	Zn	-0.304965	1.194677	-0.578855
O5	O	-0.267680	1.274223	-0.508048
O6	O	-0.247702	1.472076	-0.574883
O7	O	-0.291541	1.340961	-0.310233
O8	O	-0.164094	1.222337	-0.449689
O9	O	-0.299908	1.478341	-0.464411
O10	O	-0.170434	1.326427	-0.566507
O11	O	-0.232996	1.230606	-0.303887
O12	O	-0.232478	1.076457	-0.441241
O13	O	-0.298998	1.207397	-0.705836
O14	O	-0.290631	1.070017	-0.551658
O15	O	-0.247185	1.317927	-0.712237
O16	O	-0.368292	1.332461	-0.455963
O17	O	-0.367899	1.215665	-0.560034
C18	C	-0.260561	1.040612	-0.494568
C19	C	-0.257526	0.940672	-0.488822
C20	C	-0.312465	0.746223	-0.592847
C21	C	-0.309615	0.652320	-0.587452
C22	C	-0.248976	0.658959	-0.472640
C23	C	-0.251826	0.752863	-0.478036
C24	C	-0.283571	0.796491	-0.538140
C25	C	-0.286423	0.890397	-0.543531
C26	C	-0.225782	0.897034	-0.428724
C27	C	-0.222933	0.803131	-0.423329
C28	C	-0.384397	1.274061	-0.508011
C29	C	-0.434332	1.274072	-0.508030
C30	C	-0.790736	1.213444	-0.562236
C31	C	-0.603059	1.213327	-0.562201
O32	O	-0.578633	1.161584	-0.608261
N33	N	-0.579781	1.274166	-0.508063
C34	C	-0.603425	1.335042	-0.453933
O35	O	-0.579319	1.386792	-0.407891
C36	C	-0.791102	1.335162	-0.453974
C37	C	-0.814377	1.274314	-0.508109
C38	C	-0.814012	1.152601	-0.616368
C39	C	-0.860928	1.152628	-0.616373
C40	C	-0.884569	1.213498	-0.562245
C41	C	-0.861293	1.274340	-0.508114
C42	C	-0.814745	1.396042	-0.399850
C43	C	-0.861667	1.396068	-0.399866
C44	C	-0.884943	1.335220	-0.454002
C45	C	-0.931851	1.335237	-0.453991
N46	N	-0.955129	1.274398	-0.508130
C47	C	-0.931488	1.213529	-0.562257
C48	C	-0.504892	1.334973	-0.453914
C49	C	-0.457973	1.334942	-0.453903
C50	C	-0.457610	1.213228	-0.562173
C51	C	-0.504530	1.213256	-0.562179
C52	C	-0.528170	1.274134	-0.508053
C53	C	-1.030016	1.213589	-0.562262
C54	C	-1.076936	1.213618	-0.562259
C55	C	-1.077295	1.335335	-0.453993
C56	C	-1.030378	1.335302	-0.453992
C57	C	-1.006740	1.274426	-0.508134
O58	O	-0.956306	1.386959	-0.407963
O59	O	-0.955603	1.161799	-0.608307
C60	C	-0.743820	1.213418	-0.562232
C61	C	-0.720544	1.274261	-0.508100
C62	C	-0.744185	1.335130	-0.453973
C63	C	-0.673625	1.274229	-0.508088
C64	C	-0.649985	1.213360	-0.562216
C65	C	-0.673263	1.152521	-0.616354
C66	C	-0.720179	1.152548	-0.616359
C67	C	-0.720907	1.395968	-0.399834
C68	C	-0.673990	1.395936	-0.399833
C69	C	-0.650350	1.335067	-0.453960
C70	C	-0.150508	1.274409	-0.508107
C71	C	-0.100577	1.274488	-0.508131
C72	C	-0.273994	1.260733	-0.742573
C73	C	-0.276685	1.254984	-0.842514
C74	C	-0.274827	1.508745	-0.521582
C75	C	-0.277873	1.608685	-0.527349
C76	C	-0.227778	1.359275	-1.036979
C77	C	-0.230305	1.353877	-1.130883
C78	C	-0.284263	1.238785	-1.124225
C79	C	-0.281736	1.244183	-1.030322
C80	C	-0.253493	1.304432	-0.986702
C81	C	-0.250969	1.309834	-0.892798
C82	C	-0.304925	1.194738	-0.886141
C83	C	-0.307452	1.189340	-0.980045
C84	C	-0.261359	1.287712	-0.274439
C85	C	-0.258547	1.293635	-0.174509
H86	H	-0.197085	0.767595	-0.374396
C87	C	-1.102127	1.147513	-0.621137
C88	C	-1.071378	1.094221	-0.668556
C89	C	-1.094566	1.033328	-0.722812
H90	H	-1.118337	1.110269	-0.584550
H91	H	-1.122500	1.179607	-0.662377
H92	H	-1.051013	1.062130	-0.627322
H93	H	-1.055166	1.131441	-0.705160
H94	H	-1.114939	1.065422	-0.764052
H95	H	-1.110776	0.996089	-0.686218
H96	H	-1.073707	0.997167	-0.754999
C97	C	-0.320819	0.937880	-0.608846
C98	C	-0.298614	0.988531	-0.669646
C99	C	-0.330285	1.032291	-0.729824
H100	H	-0.337633	0.894588	-0.640749
H101	H	-0.340547	0.976514	-0.576518
H102	H	-0.278894	0.949900	-0.701971
H103	H	-0.281802	1.031838	-0.637770
H104	H	-0.350013	1.070925	-0.697496
H105	H	-0.347097	0.988993	-0.761720
H106	H	-0.315224	1.066669	-0.771078
C107	C	-0.346945	0.793430	-0.658187
C108	C	-0.371634	0.729307	-0.704956
C109	C	-0.403398	0.772759	-0.765163
H110	H	-0.366718	0.832013	-0.625926
H111	H	-0.331969	0.827811	-0.699577
H112	H	-0.386610	0.694942	-0.663571
H113	H	-0.351874	0.690721	-0.737235
H114	H	-0.388421	0.807139	-0.806554
H115	H	-0.423167	0.811340	-0.732895
H116	H	-0.420150	0.729258	-0.796909
C117	C	-0.340912	0.597687	-0.646955
C118	C	-0.315437	0.540517	-0.701592
C119	C	-0.344253	0.490183	-0.756430
H120	H	-0.358431	0.562928	-0.610488
H121	H	-0.360219	0.637090	-0.683574
H122	H	-0.296139	0.501118	-0.664977
H123	H	-0.297920	0.575253	-0.738078
H124	H	-0.363560	0.529587	-0.793048
H125	H	-0.361770	0.455429	-0.719955
H126	H	-0.326973	0.451393	-0.793513
C127	C	-0.194335	0.951497	-0.369371
C128	C	-0.149738	0.927563	-0.387774
C129	C	-0.120759	0.977707	-0.333107
H130	H	-0.200516	1.013688	-0.381135
H131	H	-0.198742	0.939541	-0.308034
H132	H	-0.145333	0.939525	-0.449097
H133	H	-0.143543	0.865380	-0.376006
H134	H	-0.125166	0.965751	-0.271771
H135	H	-0.126945	1.039895	-0.344875
H136	H	-0.090497	0.961468	-0.345581
C137	C	-1.103049	1.401358	-0.395300
C138	C	-1.149119	1.388358	-0.406907
C139	C	-1.172859	1.449164	-0.352856
H140	H	-1.093400	1.391765	-0.334089
H141	H	-1.097555	1.461023	-0.411987
H142	H	-1.154610	1.328707	-0.390215
H143	H	-1.158782	1.397959	-0.468107
H144	H	-1.167366	1.508830	-0.369543
H145	H	-1.163206	1.439566	-0.291649
H146	H	-1.204121	1.440358	-0.360730
H147	H	-1.010775	1.164019	-0.606350
C148	C	-0.432001	1.147188	-0.621095
C149	C	-0.446386	1.161576	-0.711200
C150	C	-0.422808	1.100758	-0.765506
H151	H	-0.400720	1.155825	-0.613450
H152	H	-0.437537	1.087528	-0.604464
H153	H	-0.440846	1.221221	-0.727826
H154	H	-0.477664	1.152931	-0.718873
H155	H	-0.428344	1.041098	-0.748875
H156	H	-0.391528	1.109401	-0.757853
H157	H	-0.432568	1.110507	-0.826647
H158	H	-0.223128	0.623420	-0.423712
C159	C	-0.886116	1.086530	-0.675254
C160	C	-0.855363	1.033242	-0.722668
C161	C	-0.878547	0.972349	-0.776932
H162	H	-0.902329	1.049282	-0.638673
H163	H	-0.906487	1.118624	-0.716497
H164	H	-0.835000	1.001149	-0.681430
H165	H	-0.839150	1.070465	-0.759265
H166	H	-0.898918	1.004444	-0.818175
H167	H	-0.894758	0.935108	-0.740345
H168	H	-0.857685	0.936192	-0.809115
C169	C	-0.788334	1.086648	-0.675258
C170	C	-0.764470	1.134157	-0.735887
C171	C	-0.740819	1.073421	-0.790157
H172	H	-0.767905	1.049441	-0.638670
H173	H	-0.808910	1.050436	-0.707547
H174	H	-0.743896	1.170353	-0.703601
H175	H	-0.784888	1.171360	-0.772495
H176	H	-0.761395	1.037209	-0.822445
H177	H	-0.720393	1.036217	-0.753562
H178	H	-0.724628	1.105647	-0.831305
H179	H	-0.209363	1.398534	-1.171815
H180	H	-0.307257	1.189734	-1.159756
C181	C	-0.529862	1.147340	-0.621022
C182	C	-0.559869	1.194900	-0.681628
C183	C	-0.583214	1.134208	-0.735844
H184	H	-0.509112	1.111060	-0.653337
H185	H	-0.546101	1.110196	-0.584368
H186	H	-0.543631	1.232029	-0.718277
H187	H	-0.580628	1.231176	-0.649337
H188	H	-0.599453	1.097064	-0.699191
H189	H	-0.562461	1.097932	-0.768153
H190	H	-0.603580	1.166468	-0.776966
C191	C	-0.432788	1.401099	-0.395090
C192	C	-0.463541	1.454425	-0.347713
C193	C	-0.440359	1.515393	-0.293537
H194	H	-0.412406	1.369090	-0.353819
H195	H	-0.416589	1.438307	-0.431755
H196	H	-0.479732	1.417222	-0.311050
H197	H	-0.483923	1.486453	-0.388961
H198	H	-0.424160	1.552600	-0.330202
H199	H	-0.419979	1.483376	-0.252272
H200	H	-0.461222	1.551587	-0.261391
H201	H	-0.330445	1.140286	-1.015572
H202	H	-0.204783	1.408336	-1.001464
C203	C	-0.530565	1.401258	-0.395349
C204	C	-0.560552	1.455949	-0.449696
C205	C	-0.584193	1.517064	-0.395799
H206	H	-0.546847	1.369362	-0.354110
H207	H	-0.509974	1.437526	-0.363171
H208	H	-0.581139	1.419686	-0.481858
H209	H	-0.544280	1.487865	-0.490934
H210	H	-0.563603	1.553332	-0.363621
H211	H	-0.600473	1.485161	-0.354562
H212	H	-0.604539	1.554185	-0.432665
H213	H	-0.325865	1.150083	-0.845196
C214	C	-0.789566	1.462216	-0.341053
C215	C	-0.820323	1.515543	-0.293685
C216	C	-0.797146	1.576527	-0.239522
H217	H	-0.769182	1.430221	-0.299777
H218	H	-0.773370	1.499422	-0.377726
H219	H	-0.836511	1.478342	-0.257015
H220	H	-0.840708	1.547558	-0.334938
H221	H	-0.780950	1.613733	-0.276195
H222	H	-0.776763	1.544524	-0.198251
H223	H	-0.818011	1.612722	-0.207383
H224	H	-0.880913	1.445647	-0.355793
H225	H	-1.011427	1.384842	-0.409900
C226	C	-0.648806	1.462106	-0.341024
C227	C	-0.679559	1.515431	-0.293646
C228	C	-0.656378	1.576408	-0.239480
H229	H	-0.628421	1.430104	-0.299754
H230	H	-0.632610	1.499313	-0.377696
H231	H	-0.695747	1.478229	-0.256976
H232	H	-0.699944	1.547453	-0.334893
H233	H	-0.640183	1.613615	-0.276153
H234	H	-0.635994	1.544398	-0.198216
H235	H	-0.677241	1.612601	-0.207334
H236	H	-0.739126	1.103000	-0.660443
H237	H	-0.654007	1.102956	-0.660424
H238	H	-0.740150	1.445538	-0.355757
H239	H	-0.227973	1.358892	-0.857285
