data_functionalizedCrystal
_audit_creation_method	'MofGen! by Chris Wilmer'
_symmetry_space_group_name_H-M	'P1'
_symmetry_Int_Tables_number	1
_symmetry_cell_setting	triclinic
loop_
_symmetry_equiv_pos_as_xyz
  x,y,z
_cell_length_a	12.759401
_cell_length_b	12.827892
_cell_length_c	12.759393
_cell_angle_alpha	89.968832
_cell_angle_beta	89.982961
_cell_angle_gamma	90.015553
loop_
_atom_site_label
_atom_site_type_symbol
_atom_site_fract_x
_atom_site_fract_y
_atom_site_fract_z
Zn1	Zn	1.606235	-0.415964	-0.593987
Zn2	Zn	1.606132	-0.590745	-0.418309
Zn3	Zn	1.430542	-0.416019	-0.418326
Zn4	Zn	1.430524	-0.590664	-0.593950
O5	O	1.518358	-0.503348	-0.506143
O6	O	1.753243	-0.439160	-0.570691
O7	O	1.582804	-0.567625	-0.271290
O8	O	1.453899	-0.269776	-0.441650
O9	O	1.753167	-0.567571	-0.441621
O10	O	1.582980	-0.269735	-0.570707
O11	O	1.453798	-0.439255	-0.271303
O12	O	1.283518	-0.439176	-0.441615
O13	O	1.453868	-0.567432	-0.740976
O14	O	1.283505	-0.567486	-0.570645
O15	O	1.582962	-0.439081	-0.741003
O16	O	1.582786	-0.736971	-0.441586
O17	O	1.453768	-0.736911	-0.570629
C18	C	1.245391	-0.503329	-0.506129
C19	C	1.128614	-0.503346	-0.506147
C20	C	1.518292	-0.774858	-0.506124
C21	C	1.518360	-0.891011	-0.506152
C22	C	1.073773	-0.570264	-0.573222
C23	C	0.964049	-0.570277	-0.573234
C24	C	0.964017	-0.436451	-0.439086
C25	C	1.073739	-0.436433	-0.439081
C26	C	1.073790	-0.647531	-0.650668
C27	C	0.964066	-0.647544	-0.650680
C28	C	1.582279	-0.942791	-0.442368
C29	C	1.582350	-1.062841	-0.442395
C30	C	1.792391	-0.503368	-0.506158
C31	C	1.909168	-0.503377	-0.506164
C32	C	1.518425	-0.503241	-0.780176
C33	C	1.518453	-0.503196	-0.896953
C34	C	1.518453	-0.230778	-0.506184
C35	C	1.518493	-0.114625	-0.506202
C36	C	1.451299	-0.569974	-1.061528
C37	C	1.451259	-0.570004	-0.951804
C38	C	1.585684	-0.436345	-0.951832
C39	C	1.585718	-0.436310	-1.061554
C40	C	1.373693	-0.647144	-1.061511
C41	C	1.373653	-0.647175	-0.951786
C42	C	1.518352	-0.503379	-0.233176
C43	C	1.518527	-0.503130	-0.116399
H44	H	1.118387	-0.381935	-0.384469
O45	O	1.109488	-0.621661	-0.747701
C46	C	1.170842	-0.530471	-0.741105
H47	H	1.202042	-0.521549	-0.657880
H48	H	1.120722	-0.459887	-0.761952
C49	C	1.225097	-0.549220	-0.920379
C50	C	1.263425	-0.538266	-0.818163
H51	H	1.282204	-0.554024	-0.967916
H52	H	1.183759	-0.610654	-0.924826
H53	H	1.183330	-0.490397	-0.937737
H54	H	1.305179	-0.597094	-0.800803
H55	H	1.304772	-0.476842	-0.813716
H56	H	0.919325	-0.381972	-0.384484
H57	H	1.636953	-0.898247	-0.387744
H58	H	0.934270	-0.728459	-0.628749
H59	H	1.292339	-0.625455	-1.091292
H60	H	1.107804	-0.724371	-0.621385
O61	O	0.923548	-0.613245	-0.743040
C62	C	0.957814	-0.678482	-0.825074
H63	H	0.980329	-0.757908	-0.791897
H64	H	1.028803	-0.641873	-0.864997
C65	C	0.841280	-0.594353	-0.946318
C66	C	0.868925	-0.691908	-0.905570
H67	H	0.786452	-0.602632	-0.995975
H68	H	0.818197	-0.550399	-0.891052
H69	H	0.900445	-0.563856	-0.979579
H70	H	0.809764	-0.722398	-0.872299
H71	H	0.891996	-0.735868	-0.960833
H72	H	1.640454	-0.381872	-1.106227
H73	H	1.637070	-1.107370	-0.387784
H74	H	1.463763	-1.070103	-0.560809
O75	O	1.453283	-0.944259	-0.571378
C76	C	1.513157	-1.007269	-0.639263
H77	H	1.592823	-1.023472	-0.602266
H78	H	1.524592	-0.965198	-0.717159
C79	C	1.357653	-1.091142	-0.703605
C80	C	1.455497	-1.111050	-0.658162
H81	H	1.322084	-1.155157	-0.715268
H82	H	1.317314	-1.048688	-0.657873
H83	H	1.367196	-1.056080	-0.768514
H84	H	1.445952	-1.146100	-0.593249
H85	H	1.495833	-1.153513	-0.703884
O86	O	1.650806	-0.371388	-0.898440
C87	C	1.590988	-0.303890	-0.835015
H88	H	1.511352	-0.340750	-0.818570
H89	H	1.579481	-0.226438	-0.877325
C90	C	1.746573	-0.239724	-0.750992
C91	C	1.648766	-0.284999	-0.730786
H92	H	1.782215	-0.228066	-0.686700
H93	H	1.786875	-0.285195	-0.793725
H94	H	1.736970	-0.175185	-0.786253
H95	H	1.658371	-0.349542	-0.695538
H96	H	1.608467	-0.239538	-0.688044
H97	H	1.402825	-0.724015	-1.095525
H98	H	1.296352	-0.618195	-0.917765
H99	H	1.395466	-0.728107	-0.921988
