data_functionalizedCrystal
_audit_creation_method	'MofGen! by Chris Wilmer'
_symmetry_space_group_name_H-M	'P1'
_symmetry_Int_Tables_number	1
_symmetry_cell_setting	triclinic
loop_
_symmetry_equiv_pos_as_xyz
  x,y,z
_cell_length_a	12.594517
_cell_length_b	18.215405
_cell_length_c	18.215399
_cell_angle_alpha	90.027541
_cell_angle_beta	90.020001
_cell_angle_gamma	90.022532
loop_
_atom_site_label
_atom_site_type_symbol
_atom_site_fract_x
_atom_site_fract_y
_atom_site_fract_z
Zn1	Zn	1.627204	-0.292996	0.416121
Zn2	Zn	1.877204	-0.042996	0.666121
Zn3	Zn	2.127204	0.207004	0.916121
Zn4	Zn	2.377204	0.457004	1.166121
Zn5	Zn	1.627078	-0.416067	0.293056
Zn6	Zn	1.877078	-0.166067	0.543056
Zn7	Zn	2.127078	0.083933	0.793056
Zn8	Zn	2.377078	0.333933	1.043056
Zn9	Zn	1.449212	-0.293018	0.293068
Zn10	Zn	1.699212	-0.043018	0.543068
Zn11	Zn	1.949212	0.206982	0.793068
Zn12	Zn	2.199212	0.456982	1.043068
Zn13	Zn	1.449169	-0.416025	0.416080
Zn14	Zn	1.699169	-0.166025	0.666080
Zn15	Zn	1.949169	0.083975	0.916080
Zn16	Zn	2.199169	0.333975	1.166080
O17	O	1.538165	-0.354526	0.354581
O18	O	1.788165	-0.104526	0.604581
O19	O	2.038165	0.145474	0.854581
O20	O	2.288165	0.395474	1.104581
O21	O	1.776133	-0.309330	0.399808
O22	O	2.026133	-0.059330	0.649808
O23	O	2.276133	0.190670	0.899808
O24	O	2.526133	0.440670	1.149808
O25	O	1.603449	-0.399772	0.190073
O26	O	1.853449	-0.149772	0.440073
O27	O	2.103449	0.100228	0.690073
O28	O	2.353449	0.350228	0.940073
O29	O	1.472893	-0.190031	0.309414
O30	O	1.722893	0.059969	0.559414
O31	O	1.972893	0.309969	0.809414
O32	O	2.222893	0.559969	1.059414
O33	O	1.776040	-0.399750	0.309393
O34	O	2.026040	-0.149750	0.559393
O35	O	2.276040	0.100250	0.809393
O36	O	2.526040	0.350250	1.059393
O37	O	1.603663	-0.190014	0.399820
O38	O	1.853663	0.059986	0.649820
O39	O	2.103663	0.309986	0.899820
O40	O	2.353663	0.559986	1.149820
O41	O	1.472771	-0.309368	0.190082
O42	O	1.722771	-0.059368	0.440082
O43	O	1.972771	0.190632	0.690082
O44	O	2.222771	0.440632	0.940082
O45	O	1.300260	-0.309327	0.309374
O46	O	1.550260	-0.059327	0.559374
O47	O	1.800260	0.190673	0.809374
O48	O	2.050260	0.440673	1.059374
O49	O	1.472820	-0.399677	0.519070
O50	O	1.722820	-0.149677	0.769070
O51	O	1.972820	0.100323	1.019070
O52	O	2.222820	0.350323	1.269070
O53	O	1.300229	-0.399699	0.399751
O54	O	1.550229	-0.149699	0.649751
O55	O	1.800229	0.100301	0.899751
O56	O	2.050229	0.350301	1.149751
O57	O	1.603622	-0.309289	0.519100
O58	O	1.853622	-0.059289	0.769100
O59	O	2.103622	0.190711	1.019100
O60	O	2.353622	0.440711	1.269100
O61	O	1.603407	-0.519046	0.309353
O62	O	1.853407	-0.269046	0.559353
O63	O	2.103407	-0.019046	0.809353
O64	O	2.353407	0.230954	1.059353
O65	O	1.472698	-0.519015	0.399739
O66	O	1.722698	-0.269015	0.649739
O67	O	1.972698	-0.019015	0.899739
O68	O	2.222698	0.230985	1.149739
C69	C	1.261625	-0.354512	0.354560
C70	C	1.511625	-0.104512	0.604560
C71	C	1.761625	0.145488	0.854560
C72	C	2.011625	0.395488	1.104560
C73	C	1.143319	-0.354523	0.354568
C74	C	1.393319	-0.104523	0.604568
C75	C	1.643319	0.145477	0.854568
C76	C	1.893319	0.395477	1.104568
C77	C	1.538063	-0.545733	0.354556
C78	C	1.788063	-0.295733	0.604556
C79	C	2.038063	-0.045733	0.854556
C80	C	2.288063	0.204267	1.104556
C81	C	1.538117	-0.627532	0.354570
C82	C	1.788117	-0.377532	0.604570
C83	C	2.038117	-0.127532	0.854570
C84	C	2.288117	0.122468	1.104570
C85	C	1.606242	-0.815656	0.401708
C86	C	1.856242	-0.565656	0.651708
C87	C	2.106242	-0.315656	0.901708
C88	C	2.356242	-0.065656	1.151708
C89	C	1.606280	-0.892515	0.401722
C90	C	1.856280	-0.642515	0.651722
C91	C	2.106280	-0.392515	0.901722
C92	C	2.356280	-0.142515	1.151722
C93	C	1.470221	-0.892645	0.307500
C94	C	1.720221	-0.642645	0.557500
C95	C	1.970221	-0.392645	0.807500
C96	C	2.220221	-0.142645	1.057500
C97	C	1.470178	-0.815788	0.307491
C98	C	1.720178	-0.565788	0.557491
C99	C	1.970178	-0.315788	0.807491
C100	C	2.220178	-0.065788	1.057491
C101	C	1.538194	-0.777295	0.354594
C102	C	1.788194	-0.527295	0.604594
C103	C	2.038194	-0.277295	0.854594
C104	C	2.288194	-0.027295	1.104594
C105	C	1.538276	-0.931011	0.354617
C106	C	1.788276	-0.681011	0.604617
C107	C	2.038276	-0.431011	0.854617
C108	C	2.288276	-0.181011	1.104617
C109	C	1.538317	-1.014345	0.354632
C110	C	1.788317	-0.764345	0.604632
C111	C	2.038317	-0.514345	0.854632
C112	C	2.288317	-0.264345	1.104632
C113	C	1.538152	-0.693956	0.354580
C114	C	1.788152	-0.443956	0.604580
C115	C	2.038152	-0.193956	0.854580
C116	C	2.288152	0.056044	1.104580
C117	C	1.074052	-0.305303	0.305506
C118	C	1.324052	-0.055303	0.555506
C119	C	1.574052	0.194697	0.805506
C120	C	1.824052	0.444697	1.055506
C121	C	1.003230	-0.372431	0.287401
C122	C	1.253230	-0.122431	0.537401
C123	C	1.503230	0.127569	0.787401
C124	C	1.753230	0.377569	1.037401
C125	C	1.003342	-0.287428	0.372686
C126	C	1.253342	-0.037428	0.622686
C127	C	1.503342	0.212572	0.872686
C128	C	1.753342	0.462572	1.122686
C129	C	1.074056	-0.421686	0.336427
C130	C	1.324056	-0.171686	0.586427
C131	C	1.574056	0.078314	0.836427
C132	C	1.824056	0.328314	1.086427
C133	C	1.074173	-0.336639	0.421744
C134	C	1.324173	-0.086639	0.671744
C135	C	1.574173	0.163361	0.921744
C136	C	1.824173	0.413361	1.171744
C137	C	1.003383	-0.403813	0.403664
C138	C	1.253383	-0.153813	0.653664
C139	C	1.503383	0.096187	0.903664
C140	C	1.753383	0.346187	1.153664
C141	C	1.815786	-0.354542	0.354604
C142	C	2.065786	-0.104542	0.604604
C143	C	2.315786	0.145458	0.854604
C144	C	2.565786	0.395458	1.104604
C145	C	1.934092	-0.354548	0.354613
C146	C	2.184092	-0.104548	0.604613
C147	C	2.434092	0.145452	0.854613
C148	C	2.684092	0.395452	1.104613
C149	C	1.538230	-0.354476	0.546534
C150	C	1.788230	-0.104476	0.796534
C151	C	2.038230	0.145524	1.046534
C152	C	2.288230	0.395524	1.296534
C153	C	1.538258	-0.354454	0.628333
C154	C	1.788258	-0.104454	0.878333
C155	C	2.038258	0.145546	1.128333
C156	C	2.288258	0.395546	1.378333
C157	C	1.538297	-0.162574	0.354623
C158	C	1.788297	0.087426	0.604623
C159	C	2.038297	0.337426	0.854623
C160	C	2.288297	0.587426	1.104623
C161	C	1.538353	-0.080775	0.354641
C162	C	1.788353	0.169225	0.604641
C163	C	2.038353	0.419225	0.854641
C164	C	2.288353	0.669225	1.104641
C165	C	1.538162	-0.354524	0.163375
C166	C	1.788162	-0.104524	0.413375
C167	C	2.038162	0.145476	0.663375
C168	C	2.288162	0.395476	0.913375
C169	C	1.538341	-0.354338	0.081577
C170	C	1.788341	-0.104338	0.331577
C171	C	2.038341	0.145662	0.581577
C172	C	2.288341	0.395662	0.831577
C173	C	1.606391	-0.307345	0.816544
C174	C	1.856391	-0.057345	1.066544
C175	C	2.106391	0.192655	1.316544
C176	C	2.356391	0.442655	1.566544
C177	C	1.606403	-0.307323	0.893403
C178	C	1.856403	-0.057323	1.143403
C179	C	2.106403	0.192677	1.393403
C180	C	2.356403	0.442677	1.643403
C181	C	1.470201	-0.401450	0.893360
C182	C	1.720201	-0.151450	1.143360
C183	C	1.970201	0.098550	1.393360
C184	C	2.220201	0.348550	1.643360
C185	C	1.470183	-0.401467	0.816503
C186	C	1.720183	-0.151467	1.066503
C187	C	1.970183	0.098533	1.316503
C188	C	2.220183	0.348533	1.566503
C189	C	1.538284	-0.354415	0.778097
C190	C	1.788284	-0.104415	1.028097
C191	C	2.038284	0.145585	1.278097
C192	C	2.288284	0.395585	1.528097
C193	C	1.538314	-0.354377	0.931813
C194	C	1.788314	-0.104377	1.181813
C195	C	2.038314	0.145623	1.431813
C196	C	2.288314	0.395623	1.681813
C197	C	1.538328	-0.354354	1.015147
C198	C	1.788328	-0.104354	1.265147
C199	C	2.038328	0.145646	1.515147
C200	C	2.288328	0.395646	1.765147
C201	C	1.538270	-0.354437	0.694758
C202	C	1.788270	-0.104437	0.944758
C203	C	2.038270	0.145563	1.194758
C204	C	2.288270	0.395563	1.444758
H205	H	1.661623	-0.784317	0.440063
H206	H	1.911623	-0.534317	0.690063
H207	H	2.161623	-0.284317	0.940063
H208	H	2.411623	-0.034317	1.190063
H209	H	1.661689	-0.923744	0.440089
H210	H	1.911689	-0.673744	0.690089
H211	H	2.161689	-0.423744	0.940089
H212	H	2.411689	-0.173744	1.190089
C213	C	1.395321	-0.773585	0.255666
C214	C	1.645321	-0.523585	0.505666
C215	C	1.895321	-0.273585	0.755666
C216	C	2.145321	-0.023585	1.005666
H217	H	1.405029	-0.722299	0.262414
H218	H	1.655029	-0.472299	0.512414
H219	H	1.905029	-0.222299	0.762414
H220	H	2.155029	0.027701	1.012414
H221	H	1.410942	-0.786197	0.206229
H222	H	1.660942	-0.536197	0.456229
H223	H	1.910942	-0.286197	0.706229
H224	H	2.160942	-0.036197	0.956229
H225	H	1.323801	-0.786213	0.266397
H226	H	1.573801	-0.536213	0.516397
H227	H	1.823801	-0.286213	0.766397
H228	H	2.073801	-0.036213	1.016397
H229	H	1.414846	-0.923995	0.269150
H230	H	1.664846	-0.673995	0.519150
H231	H	1.914846	-0.423995	0.769150
H232	H	2.164846	-0.173995	1.019150
C233	C	0.961112	-0.392884	0.210690
C234	C	1.211112	-0.142884	0.460690
C235	C	1.461112	0.107116	0.710690
C236	C	1.711112	0.357116	0.960690
H237	H	0.919606	-0.436320	0.213963
H238	H	1.169606	-0.186320	0.463963
H239	H	1.419606	0.063680	0.713963
H240	H	1.669606	0.313680	0.963963
H241	H	0.918542	-0.353959	0.192334
H242	H	1.168542	-0.103959	0.442334
H243	H	1.418542	0.146041	0.692334
H244	H	1.668542	0.396041	0.942334
H245	H	1.019210	-0.400999	0.178447
H246	H	1.269210	-0.150999	0.428447
H247	H	1.519210	0.099001	0.678447
H248	H	1.769210	0.349001	0.928447
H249	H	1.105081	-0.263719	0.263965
H250	H	1.355081	-0.013719	0.513965
H251	H	1.605081	0.236281	0.763965
H252	H	1.855081	0.486281	1.013965
H253	H	1.661861	-0.268992	0.924703
H254	H	1.911861	-0.018992	1.174703
H255	H	2.161861	0.231008	1.424703
H256	H	2.411861	0.481008	1.674703
C257	C	1.395302	-0.453209	0.935606
C258	C	1.645302	-0.203209	1.185606
C259	C	1.895302	0.046791	1.435606
C260	C	2.145302	0.296791	1.685606
H261	H	1.354731	-0.481241	0.901698
H262	H	1.604731	-0.231241	1.151698
H263	H	1.854731	0.018759	1.401698
H264	H	2.104731	0.268759	1.651698
H265	H	1.436005	-0.485269	0.965585
H266	H	1.686005	-0.235269	1.215585
H267	H	1.936005	0.014731	1.465585
H268	H	2.186005	0.264731	1.715585
H269	H	1.348946	-0.425046	0.965589
H270	H	1.598946	-0.175046	1.215589
H271	H	1.848946	0.074954	1.465589
H272	H	2.098946	0.324954	1.715589
H273	H	1.104988	-0.478455	0.321059
H274	H	1.354988	-0.228455	0.571059
H275	H	1.604988	0.021545	0.821059
H276	H	1.854988	0.271545	1.071059
C277	C	0.961716	-0.460119	0.459737
C278	C	1.211716	-0.210119	0.709737
C279	C	1.461716	0.039881	0.959737
C280	C	1.711716	0.289881	1.209737
H281	H	0.986059	-0.507746	0.446762
H282	H	1.236059	-0.257746	0.696762
H283	H	1.486059	-0.007746	0.946762
H284	H	1.736059	0.242254	1.196762
H285	H	0.987080	-0.447812	0.507296
H286	H	1.237080	-0.197812	0.757296
H287	H	1.487080	0.052188	1.007296
H288	H	1.737080	0.302188	1.257296
H289	H	0.886291	-0.459544	0.459730
H290	H	1.136291	-0.209544	0.709730
H291	H	1.386291	0.040456	0.959730
H292	H	1.636291	0.290456	1.209730
C293	C	0.961381	-0.210765	0.393371
C294	C	1.211381	0.039235	0.643371
C295	C	1.461381	0.289235	0.893371
C296	C	1.711381	0.539235	1.143371
H297	H	0.919918	-0.214155	0.436798
H298	H	1.169918	0.035845	0.686798
H299	H	1.419918	0.285845	0.936798
H300	H	1.669918	0.535845	1.186798
H301	H	1.019540	-0.178564	0.401568
H302	H	1.269540	0.071436	0.651568
H303	H	1.519540	0.321436	0.901568
H304	H	1.769540	0.571436	1.151568
H305	H	0.918780	-0.192284	0.354505
H306	H	1.168780	0.057716	0.604505
H307	H	1.418780	0.307716	0.854505
H308	H	1.668780	0.557716	1.104505
C309	C	1.395270	-0.453252	0.774208
C310	C	1.645270	-0.203252	1.024208
C311	C	1.895270	0.046748	1.274208
C312	C	2.145270	0.296748	1.524208
H313	H	1.354726	-0.481280	0.808088
H314	H	1.604726	-0.231280	1.058088
H315	H	1.854726	0.018720	1.308088
H316	H	2.104726	0.268720	1.558088
H317	H	1.348905	-0.425108	0.744225
H318	H	1.598905	-0.175108	0.994225
H319	H	1.848905	0.074892	1.244225
H320	H	2.098905	0.324892	1.494225
H321	H	1.435972	-0.485326	0.744226
H322	H	1.685972	-0.235326	0.994226
H323	H	1.935972	0.014674	1.244226
H324	H	2.185972	0.264674	1.494226
C325	C	1.116311	-0.316155	0.498437
C326	C	1.366311	-0.066155	0.748437
C327	C	1.616311	0.183845	0.998437
C328	C	1.866311	0.433845	1.248437
H329	H	1.092145	-0.268434	0.511222
H330	H	1.342145	-0.018434	0.761222
H331	H	1.592145	0.231566	1.011222
H332	H	1.842145	0.481566	1.261222
H333	H	1.091064	-0.350641	0.533430
H334	H	1.341064	-0.100641	0.783430
H335	H	1.591064	0.149359	1.033430
H336	H	1.841064	0.399359	1.283430
H337	H	1.191733	-0.316736	0.497966
H338	H	1.441733	-0.066736	0.747966
H339	H	1.691733	0.183264	0.997966
H340	H	1.941733	0.433264	1.247966
H341	H	1.661840	-0.269030	0.785276
H342	H	1.911840	-0.019030	1.035276
H343	H	2.161840	0.230970	1.285276
H344	H	2.411840	0.480970	1.535276
