data_functionalizedCrystal
_audit_creation_method	'MofGen! by Chris Wilmer'
_symmetry_space_group_name_H-M	'P1'
_symmetry_Int_Tables_number	1
_symmetry_cell_setting	triclinic
loop_
_symmetry_equiv_pos_as_xyz
  x,y,z
_cell_length_a	13.032831
_cell_length_b	21.295417
_cell_length_c	13.032268
_cell_angle_alpha	82.859352
_cell_angle_beta	89.113023
_cell_angle_gamma	82.834379
loop_
_atom_site_label
_atom_site_type_symbol
_atom_site_fract_x
_atom_site_fract_y
_atom_site_fract_z
Zn1	Zn	1.498336	-0.425102	0.780728
Zn2	Zn	1.520047	-0.518887	0.608724
Zn3	Zn	1.348204	-0.398806	0.586976
Zn4	Zn	1.326296	-0.515483	0.758850
O5	O	1.423221	-0.464570	0.683820
O6	O	1.645133	-0.449972	0.776169
O7	O	1.515506	-0.493377	0.461925
O8	O	1.368201	-0.314216	0.612731
O9	O	1.661084	-0.518875	0.649799
O10	O	1.478503	-0.333535	0.755080
O11	O	1.389253	-0.405155	0.445946
O12	O	1.201381	-0.401855	0.591517
O13	O	1.330864	-0.513075	0.905667
O14	O	1.185286	-0.487577	0.717793
O15	O	1.457261	-0.446672	0.921740
O16	O	1.494263	-0.606514	0.628585
O17	O	1.351916	-0.604014	0.738882
C18	C	1.156018	-0.441494	0.649922
C19	C	1.041704	-0.431638	0.635445
C20	C	0.982815	-0.469713	0.691375
C21	C	0.864665	-0.459528	0.676414
C22	C	1.423093	-0.628106	0.683746
C23	C	1.423128	-0.698078	0.683760
C24	C	1.497299	-0.732235	0.626403
C25	C	1.497344	-0.797983	0.626433
C26	C	1.423202	-0.829569	0.683806
C27	C	1.349025	-0.795405	0.741175
C28	C	1.348989	-0.729659	0.741152
N29	N	1.332239	-0.925592	0.680232
N30	N	1.332278	-0.988048	0.680248
C31	C	1.423310	-1.027658	0.683879
N32	N	1.514306	-1.002451	0.687474
N33	N	1.514267	-0.939990	0.687452
C34	C	1.423234	-0.900860	0.683837
C35	C	1.497535	-1.133107	0.626551
C36	C	1.497581	-1.198857	0.626588
C37	C	1.349254	-1.196276	0.741323
C38	C	1.349216	-1.130528	0.741293
C39	C	1.423356	-1.098947	0.683901
C40	C	1.691467	-0.487736	0.717850
C41	C	1.805778	-0.497609	0.732352
C42	C	1.389197	-0.482427	0.952062
C43	C	1.374697	-0.490036	1.066371
C44	C	1.423374	-0.300399	0.683920
C45	C	1.423439	-0.230439	0.683963
C46	C	1.457172	-0.446742	0.416628
C47	C	1.471870	-0.438972	0.302345
C48	C	1.430772	-0.460574	1.125287
C49	C	1.415788	-0.468438	1.243431
H50	H	1.019867	-0.509849	0.750340
C51	C	1.579172	-1.236430	0.563491
H52	H	1.623312	-1.208202	0.529303
H53	H	1.618977	-1.268528	0.608553
H54	H	1.545559	-1.255734	0.513673
C55	C	1.294854	-0.531977	1.116375
H56	H	1.261611	-0.549438	1.064091
H57	H	1.328890	-0.565568	1.163260
H58	H	1.244785	-0.506794	1.152609
H59	H	1.489869	-0.429526	1.088260
H60	H	1.288816	-1.102715	0.787994
C61	C	1.267703	-1.231014	0.804438
H62	H	1.278345	-1.275062	0.796235
H63	H	1.273928	-1.226104	0.875446
H64	H	1.200521	-1.213313	0.780558
C65	C	1.335947	-0.510385	1.293436
H66	H	1.336356	-0.510172	1.366283
H67	H	1.269064	-0.494050	1.267123
H68	H	1.353182	-0.552817	1.277766
C69	C	1.551716	-0.397028	1.252343
H70	H	1.551319	-0.397247	1.179497
H71	H	1.534496	-0.354599	1.268016
H72	H	1.618601	-0.413373	1.278658
H73	H	1.557670	-0.706524	0.579675
H74	H	0.842824	-0.537746	0.791324
C75	C	0.814625	-0.405300	0.596761
H76	H	0.741780	-0.405570	0.597151
H77	H	0.830288	-0.365535	0.614152
H78	H	0.840924	-0.411348	0.529833
H79	H	1.004651	-0.391498	0.576488
H80	H	1.557746	-0.825800	0.579727
C81	C	1.267470	-0.830144	0.804286
H82	H	1.223295	-0.800383	0.838451
H83	H	1.227699	-0.849341	0.759241
H84	H	1.301111	-0.862135	0.854126
C85	C	1.267393	-0.692083	0.804241
H86	H	1.223238	-0.720308	0.838412
H87	H	1.300993	-0.672776	0.854056
H88	H	1.227590	-0.659988	0.759164
H89	H	1.557907	-1.107393	0.579823
