data_functionalizedCrystal
_audit_creation_method	'MofGen! by Chris Wilmer'
_symmetry_space_group_name_H-M	'P1'
_symmetry_Int_Tables_number	1
_symmetry_cell_setting	triclinic
loop_
_symmetry_equiv_pos_as_xyz
  x,y,z
_cell_length_a	11.026607
_cell_length_b	10.868271
_cell_length_c	11.026607
_cell_angle_alpha	89.997918
_cell_angle_beta	71.413983
_cell_angle_gamma	90.003487
loop_
_atom_site_label
_atom_site_type_symbol
_atom_site_fract_x
_atom_site_fract_y
_atom_site_fract_z
O1	O	1.726733	0.102311	-0.533624
O2	O	1.360153	0.102314	-0.472861
O3	O	1.513061	0.102311	-0.319952
O4	O	1.573825	0.102314	-0.686532
O5	O	1.513044	-0.102334	-0.319941
O6	O	1.360135	-0.102331	-0.472850
O7	O	1.726715	-0.102334	-0.533613
Zn8	Zn	1.543423	-0.134824	-0.503230
Zn9	Zn	1.543446	0.134804	-0.503244
O10	O	1.573807	-0.102331	-0.686521
C11	C	1.312485	-0.000008	-0.461645
C12	C	1.170471	-0.000007	-0.428228
C13	C	1.116821	-0.000005	-0.520498
C14	C	0.970043	-0.000004	-0.485962
N15	N	1.543416	-0.318838	-0.503221
C16	C	1.543439	-0.569844	-0.503240
C17	C	1.543423	-0.430167	-0.503232
C18	C	1.774384	-0.000009	-0.544828
C19	C	1.916398	-0.000002	-0.578245
N20	N	1.543461	0.318818	-0.503245
C21	C	1.585026	-0.000008	-0.734187
C22	C	1.618443	-0.000007	-0.876200
C23	C	1.526173	-0.000005	-0.929850
C24	C	1.560709	-0.000004	-1.076628
C25	C	1.501843	-0.000009	-0.272287
C26	C	1.468426	-0.000002	-0.130273
H27	H	0.907314	0.000027	-0.381393
N28	N	0.999462	-0.000003	-0.716767
H29	H	1.055271	-0.075865	-0.734755
H30	H	1.055204	0.075909	-0.734672
N31	N	1.087390	-0.000023	-0.289718
H32	H	0.994312	-0.000025	-0.284681
H33	H	1.106206	0.075839	-0.245914
H34	H	1.421610	0.000002	-0.867117
N35	N	1.699226	-0.000005	-1.159705
H36	H	1.704263	-0.000006	-1.252783
H37	H	1.743015	-0.075873	-1.140884
H38	H	1.363855	0.000004	-1.067546
H39	H	1.723006	0.000037	-0.938934
H40	H	1.179555	-0.000011	-0.625061
