data_functionalizedCrystal
_audit_creation_method	'MofGen! by Chris Wilmer'
_symmetry_space_group_name_H-M	'P1'
_symmetry_Int_Tables_number	1
_symmetry_cell_setting	triclinic
loop_
_symmetry_equiv_pos_as_xyz
  x,y,z
_cell_length_a	10.654550
_cell_length_b	15.995350
_cell_length_c	9.130313
_cell_angle_alpha	90.000982
_cell_angle_beta	89.996220
_cell_angle_gamma	83.988639
loop_
_atom_site_label
_atom_site_type_symbol
_atom_site_fract_x
_atom_site_fract_y
_atom_site_fract_z
O1	O	1.666298	0.117599	-0.121912
O2	O	1.300673	0.128803	-0.121888
O3	O	1.493480	0.001371	-0.121899
O4	O	1.473491	0.245030	-0.121900
O5	O	1.493478	0.001375	0.121700
O6	O	1.300671	0.128807	0.121711
O7	O	1.666295	0.117602	0.121687
Cu8	Cu	1.483483	0.123205	0.143942
Cu9	Cu	1.483486	0.123201	-0.144142
O10	O	1.473488	0.245034	0.121698
C11	C	1.253885	0.127982	-0.000085
C12	C	1.114473	0.125521	-0.000076
C13	C	1.034008	0.200551	-0.000098
C14	C	0.903017	0.198233	-0.000123
C15	C	0.932971	0.045849	-0.000111
C16	C	1.063959	0.048168	-0.000075
C17	C	1.016713	0.288528	-0.000111
C18	C	0.885722	0.286211	-0.000137
C19	C	1.492652	-0.029827	-0.000102
C20	C	1.490175	-0.122791	-0.000110
C21	C	1.481278	-0.460591	-0.000105
C22	C	1.343964	-0.413954	-0.000642
C23	C	1.346442	-0.317249	-0.000093
C24	C	1.485691	-0.293004	-0.000108
C25	C	1.553417	-0.333687	0.138991
C26	C	1.549968	-0.430342	0.139108
C27	C	1.552807	-0.430688	-0.137910
C28	C	1.552775	-0.333743	-0.139748
C29	C	1.488192	-0.198292	-0.000106
C30	C	1.478780	-0.555303	-0.000098
C31	C	1.713084	0.118423	-0.000119
C32	C	1.852495	0.120884	-0.000137
C33	C	1.474316	0.276232	-0.000101
C34	C	1.476793	0.369197	-0.000103
N35	N	1.483490	0.123207	0.346564
N36	N	1.483488	0.123192	-0.346765
C37	C	1.568887	0.066800	0.423211
C38	C	1.568883	0.066789	0.576548
C39	C	1.398083	0.179602	0.576578
C40	C	1.398081	0.179607	0.423244
C41	C	1.667501	0.001671	0.423195
C42	C	1.667497	0.001661	0.576532
H43	H	1.045593	0.322938	0.101840
H44	H	1.646899	-0.062686	0.381577
H45	H	1.758418	0.022063	0.375631
C46	C	1.152473	-0.034362	-0.000038
H47	H	1.237720	-0.021905	-0.000004
H48	H	1.137183	-0.066056	-0.084984
H49	H	1.137135	-0.066038	0.084923
H50	H	1.637779	-0.059156	0.624082
H51	H	1.506376	-0.305577	0.242515
H52	H	1.763822	0.016007	0.618142
H53	H	1.328534	0.225531	0.360839
H54	H	1.293204	-0.289138	-0.099805
H55	H	1.328544	0.225521	0.639026
C56	C	0.877400	-0.039233	-0.000125
H57	H	0.787864	-0.029869	-0.000158
H58	H	0.905001	-0.070159	0.084827
H59	H	0.905041	-0.070156	-0.085081
H60	H	1.655720	-0.318967	0.144153
C61	C	1.689958	-0.312201	-0.151112
H62	H	1.708200	-0.277933	-0.070478
H63	H	1.700595	-0.282796	-0.239897
H64	H	1.745720	-0.362594	-0.149936
C65	C	1.064398	0.326395	-0.142158
H66	H	1.153417	0.326711	-0.137289
H67	H	1.025858	0.382320	-0.153377
H68	H	1.043356	0.293507	-0.223443
C69	C	0.823543	0.322130	0.141927
H70	H	0.886494	0.339734	0.205206
H71	H	0.781612	0.280006	0.189130
H72	H	0.764173	0.368822	0.119081
C73	C	1.483234	-0.455455	0.279574
H74	H	1.458478	-0.406605	0.336026
H75	H	1.539337	-0.493099	0.335189
H76	H	1.410693	-0.482139	0.254160
H77	H	1.289082	-0.432806	-0.100393
C78	C	0.828774	0.330875	-0.137971
H79	H	0.894242	0.350820	-0.194636
H80	H	0.770126	0.376915	-0.109834
H81	H	0.786844	0.292402	-0.194522
H82	H	1.292844	-0.289694	0.099796
C83	C	1.270148	-0.440838	0.133376
H84	H	1.322651	-0.480358	0.189659
H85	H	1.197858	-0.465803	0.101402
H86	H	1.244419	-0.392933	0.191770
H87	H	1.650782	-0.462005	0.145409
H88	H	1.507914	-0.451490	-0.243339
C89	C	1.485996	-0.297246	-0.278773
H90	H	1.527013	-0.322135	-0.362872
H91	H	1.489376	-0.238154	-0.281327
H92	H	1.400401	-0.308942	-0.277896
C93	C	1.689567	-0.472805	-0.139203
H94	H	1.703060	-0.508444	-0.056219
H95	H	1.746303	-0.430814	-0.136158
H96	H	1.703697	-0.505160	-0.226022
