data_functionalizedCrystal
_audit_creation_method	'MofGen! by Chris Wilmer'
_symmetry_space_group_name_H-M	'P1'
_symmetry_Int_Tables_number	1
_symmetry_cell_setting	triclinic
loop_
_symmetry_equiv_pos_as_xyz
  x,y,z
_cell_length_a	17.038272
_cell_length_b	27.732048
_cell_length_c	15.500227
_cell_angle_alpha	92.799543
_cell_angle_beta	86.956295
_cell_angle_gamma	86.877106
loop_
_atom_site_label
_atom_site_type_symbol
_atom_site_fract_x
_atom_site_fract_y
_atom_site_fract_z
O1	O	1.039801	0.102821	-0.071852
O2	O	1.539801	0.602821	0.428148
O3	O	0.812191	0.101155	-0.071877
O4	O	1.312191	0.601155	0.428123
O5	O	0.933065	0.031915	-0.071847
O6	O	1.433065	0.531915	0.428153
O7	O	0.918928	0.172061	-0.071882
O8	O	1.418928	0.672061	0.428118
O9	O	0.925730	0.036099	0.072040
O10	O	1.425730	0.536099	0.572040
O11	O	0.804857	0.105339	0.072010
O12	O	1.304857	0.605339	0.572010
O13	O	1.032467	0.107005	0.072035
O14	O	1.532467	0.607005	0.572035
Cu15	Cu	0.917992	0.106554	0.085161
Cu16	Cu	1.417992	0.606554	0.585161
Cu17	Cu	0.926666	0.101606	-0.085002
Cu18	Cu	1.426666	0.601606	0.414998
O19	O	0.911593	0.176245	0.072005
O20	O	1.411593	0.676245	0.572005
C21	C	0.779413	0.101732	0.000064
C22	C	1.279413	0.601732	0.500064
C23	C	0.692674	0.097211	0.000055
C24	C	1.192674	0.597211	0.500055
C25	C	0.642076	0.138713	0.000045
C26	C	1.142076	0.638713	0.500045
C27	C	0.560575	0.134463	0.000058
C28	C	1.060575	0.634463	0.500058
C29	C	0.529672	0.088710	0.000074
C30	C	1.029672	0.588710	0.500074
C31	C	0.580276	0.047205	0.000087
C32	C	1.080276	0.547205	0.500087
C33	C	0.661776	0.051455	0.000080
C34	C	1.161776	0.551455	0.500080
C35	C	0.284088	0.073694	0.000101
C36	C	0.784088	0.573694	0.500101
C37	C	0.202582	0.069447	0.000106
C38	C	0.702582	0.569447	0.500106
C39	C	0.182886	0.156706	0.000079
C40	C	0.682886	0.656706	0.500079
C41	C	0.264388	0.160952	0.000067
C42	C	0.764388	0.660952	0.500067
C43	C	0.314985	0.119447	0.000083
C44	C	0.814985	0.619447	0.500083
C45	C	0.446365	0.084365	0.000085
C46	C	0.946365	0.584365	0.500085
C47	C	0.398290	0.123792	0.000079
C48	C	0.898290	0.623792	0.500079
C49	C	0.929100	0.015987	0.000099
C50	C	1.429100	0.515987	0.500099
C51	C	0.928206	-0.037709	0.000106
C52	C	1.428206	0.462291	0.500106
C53	C	0.994011	-0.373515	0.000069
C54	C	1.494011	0.126485	0.500069
C55	C	0.990696	-0.575327	0.000056
C56	C	1.490696	-0.075327	0.500056
O57	O	1.050870	-0.603831	0.000025
O58	O	1.550870	-0.103831	0.500025
N59	N	0.919023	-0.597729	0.000049
N60	N	1.419023	-0.097729	0.500049
C61	C	0.848173	-0.569676	0.000039
C62	C	1.348173	-0.069676	0.500039
O63	O	0.787135	-0.593361	0.000024
O64	O	1.287135	-0.093361	0.500024
C65	C	0.851490	-0.367865	0.000046
C66	C	1.351490	0.132135	0.500046
C67	C	0.923167	-0.345465	0.000062
C68	C	1.423167	0.154535	0.500062
C69	C	1.065683	-0.351115	0.000084
C70	C	1.565683	0.148885	0.500084
C71	C	1.066511	-0.300665	0.000091
C72	C	1.566511	0.199335	0.500091
C73	C	0.995667	-0.272615	0.000084
C74	C	1.495667	0.227385	0.500084
C75	C	0.923995	-0.295015	0.000069
C76	C	1.423995	0.204985	0.500069
C77	C	0.780641	-0.339813	0.000030
C78	C	1.280641	0.160187	0.500030
C79	C	0.781477	-0.289357	0.000029
C80	C	1.281477	0.210643	0.500029
C81	C	0.853154	-0.266957	0.000045
C82	C	1.353154	0.233043	0.500045
C83	C	0.853979	-0.216515	0.000070
C84	C	1.353979	0.283485	0.500070
N85	N	0.925652	-0.194113	0.000077
N86	N	1.425652	0.305887	0.500077
C87	C	0.996496	-0.222163	0.000084
C88	C	1.496496	0.277837	0.500084
C89	C	0.846437	-0.675629	0.000038
C90	C	1.346437	-0.175629	0.500038
C91	C	0.845608	-0.726081	0.000038
C92	C	1.345608	-0.226081	0.500038
C93	C	0.988131	-0.731729	0.000053
C94	C	1.488131	-0.231729	0.500053
C95	C	0.988959	-0.681276	0.000059
C96	C	1.488959	-0.181276	0.500059
C97	C	0.918111	-0.653227	0.000045
C98	C	1.418111	-0.153227	0.500045
C99	C	0.998229	-0.116214	0.000101
C100	C	1.498229	0.383786	0.500101
C101	C	0.999050	-0.065759	0.000113
C102	C	1.499050	0.434241	0.500113
C103	C	0.856528	-0.060116	0.000093
C104	C	1.356528	0.439884	0.500093
C105	C	0.855706	-0.110566	0.000086
C106	C	1.355706	0.389434	0.500086
C107	C	0.926563	-0.138614	0.000087
C108	C	1.426563	0.361386	0.500087
O109	O	0.793838	-0.187981	0.000092
O110	O	1.293838	0.312019	0.500092
O111	O	1.057526	-0.198468	0.000080
O112	O	1.557526	0.301532	0.500080
C113	C	0.993183	-0.423965	0.000061
C114	C	1.493183	0.076035	0.500061
C115	C	0.921512	-0.446365	0.000046
C116	C	1.421512	0.053635	0.500046
C117	C	0.850668	-0.418315	0.000039
C118	C	1.350668	0.081685	0.500039
C119	C	0.920682	-0.496818	0.000046
C120	C	1.420682	0.003182	0.500046
C121	C	0.991526	-0.524867	0.000053
C122	C	1.491526	-0.024867	0.500053
C123	C	1.063200	-0.502465	0.000060
C124	C	1.563200	-0.002465	0.500060
C125	C	1.064027	-0.452015	0.000068
C126	C	1.564027	0.047985	0.500068
C127	C	0.778994	-0.440718	0.000032
C128	C	1.278994	0.059282	0.500032
C129	C	0.778172	-0.491168	0.000025
C130	C	1.278172	0.008832	0.500025
C131	C	0.849016	-0.519218	0.000032
C132	C	1.349016	-0.019218	0.500032
C133	C	1.065244	0.106429	0.000093
C134	C	1.565244	0.606429	0.500093
C135	C	1.151985	0.110949	0.000096
C136	C	1.651985	0.610949	0.500096
C137	C	0.915558	0.192173	0.000058
C138	C	1.415558	0.692173	0.500058
C139	C	0.916452	0.245869	0.000045
C140	C	1.416452	0.745869	0.500045
N141	N	0.911897	0.110034	0.204844
N142	N	1.411897	0.610034	0.704844
N143	N	0.932767	0.098122	-0.204686
N144	N	1.432767	0.598122	0.295314
C145	C	0.963132	0.080707	0.250133
C146	C	1.463132	0.580707	0.750133
C147	C	0.958530	0.083344	0.340705
C148	C	1.458530	0.583344	0.840705
C149	C	0.902695	0.115310	0.385986
C150	C	1.402695	0.615310	0.885986
C151	C	0.851454	0.144638	0.340690
C152	C	1.351454	0.644638	0.840690
C153	C	0.856053	0.141999	0.250120
C154	C	1.356053	0.641999	0.750120
C155	C	0.886126	0.124811	0.659449
C156	C	1.386126	0.624811	1.159449
C157	C	0.881532	0.127449	0.750025
C158	C	1.381532	0.627449	1.250025
C159	C	0.988608	0.066154	0.750034
C160	C	1.488608	0.566154	1.250034
C161	C	0.993205	0.063519	0.659462
C162	C	1.493205	0.563519	1.159462
C163	C	0.941961	0.092845	0.614174
C164	C	1.441961	0.592845	1.114174
C165	C	0.897990	0.118007	0.478565
C166	C	1.397990	0.618007	0.978565
C167	C	0.946662	0.090146	0.521597
C168	C	1.446662	0.590146	1.021597
H169	H	0.141682	0.190497	0.000067
H170	H	0.641682	0.690497	0.500067
H171	H	0.325274	0.039897	0.000116
H172	H	0.825274	0.539897	0.500116
H173	H	0.836062	0.153482	0.786888
H174	H	1.336062	0.653482	1.286888
H175	H	0.797339	-0.128804	0.000097
H176	H	1.297339	0.371196	0.500097
H177	H	0.421194	0.047113	0.000123
H178	H	0.921194	0.547113	0.500123
Cl179	Cl	1.156626	-0.272513	0.000087
Cl180	Cl	1.656626	0.227487	0.500087
H181	H	0.719799	-0.509401	0.000019
H182	H	1.219799	-0.009401	0.500019
Cl183	Cl	0.496969	0.186641	0.000041
Cl184	Cl	0.996969	0.686641	0.500041
H185	H	0.667230	0.175970	0.000031
H186	H	1.167230	0.675970	0.500031
Cl187	Cl	0.163734	0.011925	0.000146
Cl188	Cl	0.663734	0.511925	0.500146
H189	H	1.055928	-0.139045	0.000099
H190	H	1.555928	0.360955	0.500099
Cl191	Cl	0.757361	-0.640374	0.000021
Cl192	Cl	1.257361	-0.140374	0.500021
Cl193	Cl	0.767472	-0.024844	0.000082
Cl194	Cl	1.267472	0.475156	0.500082
H195	H	0.852530	0.144036	0.515440
H196	H	1.352530	0.644036	1.015440
H197	H	0.722274	-0.358042	0.000012
H198	H	1.222274	0.141958	0.500012
Cl199	Cl	0.437140	0.181309	0.000061
Cl200	Cl	0.937140	0.681309	0.500061
Cl201	Cl	1.089166	-0.037602	0.000131
Cl202	Cl	1.589166	0.462398	0.500131
Cl203	Cl	0.689923	-0.405462	0.000021
Cl204	Cl	1.189923	0.094538	0.500021
Cl205	Cl	1.154757	-0.386369	0.000094
Cl206	Cl	1.654757	0.113631	0.500094
H207	H	1.122395	-0.433782	0.000081
H208	H	1.622395	0.066218	0.500081
H209	H	1.047326	-0.663041	0.000071
H210	H	1.547326	-0.163041	0.500071
Cl211	Cl	1.077192	-0.767001	0.000058
Cl212	Cl	1.577192	-0.267001	0.500058
Cl213	Cl	0.755494	-0.754234	0.000034
Cl214	Cl	1.255494	-0.254234	0.500034
Cl215	Cl	0.692404	-0.254098	0.000010
Cl216	Cl	1.192404	0.245902	0.500010
Cl217	Cl	0.541427	-0.010314	0.000113
Cl218	Cl	1.041427	0.489686	0.500113
Cl219	Cl	1.033333	0.040521	0.193218
Cl220	Cl	1.533333	0.540521	0.693218
Cl221	Cl	0.303231	0.218472	0.000040
Cl222	Cl	0.803231	0.718472	0.500040
Cl223	Cl	1.053022	0.029287	0.806970
Cl224	Cl	1.553022	0.529287	1.306970
H225	H	0.844402	0.148691	0.622582
H226	H	1.344402	0.648691	1.122582
H227	H	0.702972	0.017660	0.000087
H228	H	1.202972	0.517660	0.500087
Cl229	Cl	1.152260	-0.537737	0.000073
Cl230	Cl	1.652260	-0.037737	0.500073
Cl231	Cl	1.022941	0.046475	0.397642
Cl232	Cl	1.522941	0.546475	0.897642
H233	H	1.038671	0.037490	0.622596
H234	H	1.538671	0.537490	1.122596
Cl235	Cl	0.781256	0.184823	0.397613
Cl236	Cl	1.281256	0.684823	0.897613
H237	H	0.814330	0.165879	0.213246
H238	H	1.314330	0.665879	0.713246
H239	H	0.992121	0.064117	0.484727
H240	H	1.492121	0.564117	0.984727
