data_functionalizedCrystal
_audit_creation_method	'MofGen! by Chris Wilmer'
_symmetry_space_group_name_H-M	'P1'
_symmetry_Int_Tables_number	1
_symmetry_cell_setting	triclinic
loop_
_symmetry_equiv_pos_as_xyz
  x,y,z
_cell_length_a	18.050591
_cell_length_b	19.120786
_cell_length_c	18.050582
_cell_angle_alpha	92.465003
_cell_angle_beta	90.020922
_cell_angle_gamma	92.460873
loop_
_atom_site_label
_atom_site_type_symbol
_atom_site_fract_x
_atom_site_fract_y
_atom_site_fract_z
Zn1	Zn	1.122689	-0.279748	0.407398
Zn2	Zn	1.622689	0.220252	0.907398
Zn3	Zn	1.117309	-0.397198	0.277904
Zn4	Zn	1.617309	0.102802	0.777904
Zn5	Zn	0.998508	-0.279751	0.283209
Zn6	Zn	1.498508	0.220249	0.783209
Zn7	Zn	0.993167	-0.397160	0.402042
Zn8	Zn	1.493167	0.102840	0.902042
O9	O	1.057918	-0.338464	0.342638
O10	O	1.557918	0.161536	0.842638
O11	O	1.225899	-0.295342	0.390242
O12	O	1.725899	0.204658	0.890242
O13	O	1.101533	-0.381635	0.174683
O14	O	1.601533	0.118365	0.674683
O15	O	1.019469	-0.181461	0.304145
O16	O	1.519469	0.318539	0.804145
O17	O	1.221946	-0.381632	0.295104
O18	O	1.721946	0.118368	0.795104
O19	O	1.110704	-0.181458	0.395386
O20	O	1.610704	0.318542	0.895386
O21	O	1.014251	-0.295347	0.178580
O22	O	1.514251	0.204653	0.678580
O23	O	0.893876	-0.295311	0.298951
O24	O	1.393876	0.204689	0.798951
O25	O	1.010365	-0.381569	0.506677
O26	O	1.510365	0.118431	1.006677
O27	O	0.889951	-0.381571	0.386256
O28	O	1.389951	0.118429	0.886256
O29	O	1.105524	-0.295306	0.510613
O30	O	1.605524	0.204694	1.010613
O31	O	1.096354	-0.495482	0.289909
O32	O	1.596354	0.004518	0.789909
O33	O	1.005147	-0.495455	0.381112
O34	O	1.505147	0.004545	0.881112
C35	C	0.864967	-0.338438	0.342598
C36	C	1.364967	0.161562	0.842598
C37	C	0.782421	-0.338444	0.342598
C38	C	1.282421	0.161556	0.842598
C39	C	1.049607	-0.520954	0.334370
C40	C	1.549607	-0.020954	0.834370
C41	C	1.046119	-0.599024	0.330858
C42	C	1.546119	-0.099024	0.830858
C43	C	0.585086	-0.291481	0.295238
C44	C	1.085086	0.208519	0.795238
C45	C	0.532780	-0.355544	0.274069
C46	C	1.032780	0.144456	0.774069
C47	C	0.631290	-0.338465	0.342631
C48	C	1.131290	0.161535	0.842631
C49	C	0.536513	-0.274424	0.363797
C50	C	1.036513	0.225576	0.863797
C51	C	0.485304	-0.338480	0.342661
C52	C	0.985304	0.161520	0.842661
C53	C	0.580070	-0.402562	0.321425
C54	C	1.080070	0.097438	0.821425
C55	C	0.583809	-0.321399	0.411186
C56	C	1.083809	0.178601	0.911186
C57	C	0.531524	-0.385506	0.390041
C58	C	1.031524	0.114494	0.890041
C59	C	0.715389	-0.338455	0.342612
C60	C	1.215389	0.161545	0.842612
C61	C	0.401207	-0.338497	0.342680
C62	C	0.901207	0.161503	0.842680
C63	C	1.091947	-0.635640	0.376751
C64	C	1.591947	-0.135640	0.876751
C65	C	1.088667	-0.708995	0.373452
C66	C	1.588667	-0.208995	0.873452
C67	C	1.039563	-0.745733	0.324256
C68	C	1.539563	-0.245733	0.824256
C69	C	0.993730	-0.709112	0.278361
C70	C	1.493730	-0.209112	0.778361
C71	C	0.997007	-0.635758	0.281664
C72	C	1.497007	-0.135758	0.781664
C73	C	1.027291	-0.967217	0.311907
C74	C	1.527291	-0.467217	0.811907
C75	C	1.024019	-1.040576	0.308606
C76	C	1.524019	-0.540576	0.808606
C77	C	1.118955	-1.040454	0.403698
C78	C	1.618955	-0.540454	0.903698
C79	C	1.122231	-0.967099	0.406994
C80	C	1.622231	-0.467099	0.906994
C81	C	1.076395	-0.930484	0.361102
C82	C	1.576395	-0.430484	0.861102
C83	C	1.036210	-0.820713	0.320881
C84	C	1.536210	-0.320713	0.820881
C85	C	1.079744	-0.855505	0.364481
C86	C	1.579744	-0.355505	0.864481
C87	C	1.251623	-0.338491	0.342679
C88	C	1.751623	0.161509	0.842679
C89	C	1.334168	-0.338502	0.342696
C90	C	1.834168	0.161498	0.842696
C91	C	1.057949	-0.338433	0.536345
C92	C	1.557949	0.161567	1.036345
C93	C	1.057962	-0.338420	0.618892
C94	C	1.557962	0.161580	1.118892
C95	C	1.066282	-0.155262	0.350955
C96	C	1.566282	0.344738	0.850955
C97	C	1.069846	-0.077191	0.354499
C98	C	1.569846	0.422809	0.854499
C99	C	1.057933	-0.338444	0.149687
C100	C	1.557933	0.161556	0.649687
C101	C	1.058073	-0.338260	0.067150
C102	C	1.558073	0.161740	0.567150
C103	C	1.006255	-0.385265	0.816205
C104	C	1.506255	0.114735	1.316205
C105	C	1.073236	-0.402439	0.864828
C106	C	1.573236	0.097561	1.364828
C107	C	1.058001	-0.338366	0.770025
C108	C	1.558001	0.161634	1.270025
C109	C	0.991057	-0.321173	0.868484
C110	C	1.491057	0.178827	1.368484
C111	C	1.058032	-0.338316	0.916012
C112	C	1.558032	0.161684	1.416012
C113	C	1.125016	-0.355573	0.817559
C114	C	1.625016	0.144427	1.317559
C115	C	1.042793	-0.274278	0.821212
C116	C	1.542793	0.225722	1.321212
C117	C	1.109822	-0.291427	0.869814
C118	C	1.609822	0.208573	1.369814
C119	C	1.057981	-0.338397	0.685925
C120	C	1.557981	0.161603	1.185925
C121	C	1.058059	-0.338285	1.000110
C122	C	1.558059	0.161715	1.500110
H123	H	0.608531	-0.251791	0.255112
H124	H	1.108531	0.248209	0.755112
H125	H	0.962532	-0.424978	0.792735
H126	H	1.462532	0.075022	1.292735
H127	H	0.996232	-0.850634	0.280823
H128	H	1.496232	-0.350634	0.780823
H129	H	1.156270	-1.070273	0.441062
H130	H	1.656270	-0.570273	0.941062
H131	H	0.934431	-0.306652	0.890828
H132	H	1.434431	0.193348	1.390828
O133	O	1.088481	-0.467111	0.887768
O134	O	1.588481	0.032889	1.387768
C135	C	1.033790	-0.516430	0.860376
C136	C	1.533790	-0.016430	1.360376
H137	H	0.980986	-0.488495	0.847770
H138	H	1.480986	0.011505	1.347770
H139	H	1.021537	-0.556958	0.903736
H140	H	1.521537	-0.056958	1.403736
H141	H	1.054620	-0.543716	0.807474
H142	H	1.554620	-0.043716	1.307474
O143	O	1.192534	-0.372996	0.790890
O144	O	1.692534	0.127004	1.290890
C145	C	1.191698	-0.372824	0.712792
C146	C	1.691698	0.127176	1.212792
H147	H	1.132156	-0.380634	0.691985
H148	H	1.632156	0.119366	1.191985
H149	H	1.226122	-0.417145	0.689227
H150	H	1.726122	0.082855	1.189227
H151	H	1.216139	-0.320558	0.694011
H152	H	1.716139	0.179442	1.194011
H153	H	0.606217	-0.306933	0.469133
H154	H	1.106217	0.193067	0.969133
H155	H	1.029890	-0.220116	0.801941
H156	H	1.529890	0.279884	1.301941
H157	H	0.953745	-0.739029	0.238308
H158	H	1.453745	-0.239029	0.738308
O159	O	0.506104	-0.372663	0.204882
O160	O	1.006104	0.127337	0.704882
C161	C	0.533482	-0.323000	0.155069
C162	C	1.033482	0.177000	0.655069
H163	H	0.549679	-0.271894	0.187003
H164	H	1.049679	0.228106	0.687003
H165	H	0.488713	-0.313102	0.112674
H166	H	0.988713	0.186898	0.612674
H167	H	0.584192	-0.343847	0.125248
H168	H	1.084192	0.156153	0.625248
H169	H	1.153644	-0.251744	0.893146
H170	H	1.653644	0.248256	1.393146
O171	O	0.952461	-0.600296	0.237010
O172	O	1.452461	-0.100296	0.737010
C173	C	0.908403	-0.648449	0.192894
C174	C	1.408403	-0.148449	0.692894
H175	H	0.936490	-0.700715	0.187994
H176	H	1.436490	-0.200715	0.687994
H177	H	0.901458	-0.627286	0.135328
H178	H	1.401458	-0.127286	0.635328
H179	H	0.851635	-0.656282	0.219684
H180	H	1.351635	-0.156282	0.719684
O181	O	0.976210	-1.076235	0.260898
O182	O	1.476210	-0.576235	0.760898
C183	C	0.902979	-1.058354	0.277849
C184	C	1.402979	-0.558354	0.777849
H185	H	0.900093	-1.038160	0.338082
H186	H	1.400093	-0.538160	0.838082
H187	H	0.864144	-1.106630	0.269246
H188	H	1.364144	-0.606630	0.769246
H189	H	0.885484	-1.015815	0.239926
H190	H	1.385484	-0.515815	0.739926
H191	H	1.131936	-0.605733	0.416808
H192	H	1.631936	-0.105733	0.916808
O193	O	0.603020	-0.467150	0.299983
O194	O	1.103020	0.032850	0.799983
C195	C	0.681162	-0.466359	0.300215
C196	C	1.181162	0.033641	0.800215
H197	H	0.704143	-0.410375	0.294582
H198	H	1.204143	0.089625	0.794582
H199	H	0.701142	-0.500775	0.251746
H200	H	1.201142	-0.000775	0.751746
H201	H	0.701389	-0.487289	0.354502
H202	H	1.201389	0.012711	0.854502
H203	H	1.119722	-0.825591	0.404539
H204	H	1.619722	-0.325591	0.904539
O205	O	0.503733	-0.433061	0.437779
O206	O	1.003733	0.066939	0.937779
C207	C	0.525983	-0.500472	0.415219
C208	C	1.025983	-0.000472	0.915219
H209	H	0.539680	-0.501725	0.353542
H210	H	1.039680	-0.001725	0.853542
H211	H	0.479100	-0.540645	0.425803
H212	H	0.979100	-0.040645	0.925803
H213	H	0.577158	-0.513556	0.448070
H214	H	1.077158	-0.013556	0.948070
H215	H	0.517245	-0.220266	0.381661
H216	H	1.017245	0.279734	0.881661
H217	H	1.125990	-0.738805	0.410817
H218	H	1.625990	-0.238805	0.910817
H219	H	0.989971	-0.937411	0.274539
H220	H	1.489971	-0.437411	0.774539
O221	O	1.169952	-0.931522	0.454846
O222	O	1.669952	-0.431522	0.954846
C223	C	1.209715	-0.979571	0.494630
C224	C	1.709715	-0.479571	0.994630
H225	H	1.176956	-1.031880	0.494824
H226	H	1.676956	-0.531880	0.994824
H227	H	1.218556	-0.958338	0.554104
H228	H	1.718556	-0.458338	1.054104
H229	H	1.265784	-0.987348	0.467134
H230	H	1.765784	-0.487348	0.967134
