data_functionalizedCrystal
_audit_creation_method	'MofGen! by Chris Wilmer'
_symmetry_space_group_name_H-M	'P1'
_symmetry_Int_Tables_number	1
_symmetry_cell_setting	triclinic
loop_
_symmetry_equiv_pos_as_xyz
  x,y,z
_cell_length_a	16.109301
_cell_length_b	10.540539
_cell_length_c	15.186229
_cell_angle_alpha	89.998389
_cell_angle_beta	89.999362
_cell_angle_gamma	83.993486
loop_
_atom_site_label
_atom_site_type_symbol
_atom_site_fract_x
_atom_site_fract_y
_atom_site_fract_z
O1	O	1.104128	0.163159	-0.073169
O2	O	0.862191	0.183464	-0.073182
O3	O	0.988679	-0.011474	-0.073174
O4	O	0.977640	0.358096	-0.073177
O5	O	0.988671	-0.011477	0.073283
O6	O	0.862182	0.183461	0.073275
O7	O	1.104120	0.163156	0.073289
Zn8	Zn	0.983150	0.173308	0.096535
Zn9	Zn	0.983161	0.173312	-0.096429
O10	O	0.977631	0.358094	0.073280
C11	C	0.831206	0.182640	0.000045
C12	C	0.738896	0.180174	0.000039
C13	C	0.517296	0.290112	0.000049
C14	C	0.430561	0.287785	0.000054
C15	C	0.449021	0.056499	0.000053
C16	C	0.535754	0.058827	0.000053
C17	C	0.569889	0.175637	0.000047
C18	C	0.396421	0.170982	0.000052
C19	C	0.302380	0.168459	0.000058
C20	C	0.663936	0.178162	0.000042
C21	C	0.987847	-0.058767	0.000053
C22	C	0.985370	-0.199679	0.000048
C23	C	0.890460	-0.381753	-0.000286
C24	C	0.892971	-0.235171	0.000044
C25	C	1.029832	-0.261972	0.083685
C26	C	1.026678	-0.408472	0.083755
C27	C	1.028567	-0.409014	-0.082794
C28	C	1.029418	-0.262044	-0.083900
C29	C	1.135104	0.163980	0.000060
C30	C	1.227414	0.166446	0.000059
C31	C	0.978463	0.405386	0.000052
C32	C	0.980940	0.546299	0.000051
N33	N	0.983148	0.173305	0.228228
N34	N	0.983169	0.173305	-0.228121
C35	C	1.039177	0.087015	0.453954
C36	C	1.039179	0.087012	0.546144
C37	C	0.927134	0.259598	0.546146
C38	C	0.927128	0.259594	0.453958
C39	C	0.983154	0.173304	0.407864
C40	C	0.983163	0.173305	0.592242
C41	C	0.983165	0.173303	0.692198
C42	C	0.983151	0.173305	0.307902
H43	H	0.545085	0.385227	0.000050
H44	H	0.387743	0.381003	0.000058
C45	C	1.100797	-0.007911	0.403251
C46	C	1.162416	-0.102832	0.453954
C47	C	1.224036	-0.197764	0.403254
C48	C	1.224037	-0.197775	0.301851
C49	C	1.162415	-0.102851	0.251142
C50	C	1.100795	-0.007918	0.301842
H51	H	1.162418	-0.102826	0.529024
H52	H	1.269653	-0.268033	0.440793
H53	H	1.269652	-0.268050	0.264320
H54	H	1.162414	-0.102856	0.176072
H55	H	1.055179	0.062351	0.264304
H56	H	0.421218	-0.038605	0.000063
H57	H	0.881504	0.329861	0.416429
H58	H	1.084796	0.016747	0.583668
C59	C	0.865514	0.354524	0.596849
C60	C	0.865562	0.354609	0.698252
C61	C	0.803942	0.449542	0.748952
C62	C	0.742274	0.544389	0.698249
C63	C	0.742224	0.544307	0.596840
C64	C	0.803844	0.449375	0.546140
H65	H	0.911215	0.284394	0.735791
H66	H	0.803980	0.449601	0.824022
H67	H	0.696659	0.614663	0.735780
H68	H	0.696571	0.614522	0.559301
H69	H	0.803806	0.449315	0.471070
C70	C	0.593613	-0.067105	0.000049
C71	C	0.589302	-0.162835	0.076098
C72	C	0.647161	-0.288760	0.076099
C73	C	0.709331	-0.318955	0.000050
C74	C	0.713644	-0.223222	-0.076005
C75	C	0.655786	-0.097297	-0.076005
H76	H	0.543278	-0.140485	0.132400
H77	H	0.643967	-0.359628	0.132400
H78	H	0.752161	-0.412172	0.000050
H79	H	0.759668	-0.245572	-0.132306
H80	H	0.658979	-0.026430	-0.132306
C81	C	0.841345	-0.421852	0.080282
C82	C	0.873339	-0.398802	0.173882
C83	C	0.824227	-0.438905	0.254451
C84	C	0.743122	-0.502059	0.241420
C85	C	0.711124	-0.525113	0.147816
C86	C	0.760236	-0.485009	0.067247
H87	H	0.933381	-0.352049	0.183532
H88	H	0.847914	-0.421839	0.323744
H89	H	0.706766	-0.531746	0.301062
H90	H	0.651081	-0.571866	0.138165
H91	H	0.736548	-0.502075	-0.002046
C92	C	0.845547	-0.178107	0.081285
C93	C	0.838488	-0.033236	0.097810
C94	C	0.791146	0.023811	0.179111
C95	C	0.750863	-0.064014	0.243886
C96	C	0.757921	-0.208894	0.227362
C97	C	0.805263	-0.265941	0.146062
H98	H	0.868309	0.031786	0.049858
H99	H	0.785922	0.131061	0.191342
H100	H	0.715818	-0.021785	0.304070
H101	H	0.728099	-0.273916	0.275315
H102	H	0.810487	-0.373191	0.133830
C103	C	0.982269	-0.445944	0.168203
C104	C	1.018316	-0.416881	0.259043
C105	C	0.973902	-0.454344	0.343492
C106	C	0.893441	-0.520870	0.337100
C107	C	0.857390	-0.549936	0.246257
C108	C	0.901804	-0.512473	0.161808
H109	H	1.077881	-0.367632	0.263778
H110	H	1.000590	-0.432827	0.410741
H111	H	0.860564	-0.548602	0.399614
H112	H	0.797824	-0.599186	0.241522
H113	H	0.875116	-0.533991	0.094560
H114	H	0.857986	-0.192068	-0.059910
H115	H	0.853964	-0.409832	-0.060263
H116	H	1.093130	-0.457388	0.087553
H117	H	0.998939	-0.218934	0.145921
C118	C	1.121495	-0.233064	0.087923
C119	C	1.192258	-0.343254	0.087604
C120	C	1.283919	-0.314336	0.091850
C121	C	1.304817	-0.175228	0.096416
C122	C	1.234052	-0.065030	0.096735
C123	C	1.142391	-0.093948	0.092488
H124	H	1.176790	-0.446238	0.084224
H125	H	1.336304	-0.395913	0.091614
H126	H	1.372670	-0.153821	0.099559
H127	H	1.249520	0.037954	0.100115
H128	H	1.090006	-0.012371	0.092725
C129	C	0.985537	-0.206114	-0.167492
C130	C	0.910062	-0.104293	-0.159603
C131	C	0.866180	-0.048353	-0.243193
C132	C	0.897772	-0.094233	-0.334674
C133	C	0.973250	-0.196059	-0.342567
C134	C	1.017133	-0.252000	-0.258977
H135	H	0.886673	-0.070325	-0.091880
H136	H	0.810306	0.027026	-0.237350
H137	H	0.865288	-0.052823	-0.396553
H138	H	0.996640	-0.230027	-0.410290
H139	H	1.073007	-0.327378	-0.264820
H140	H	0.998666	-0.440139	-0.146185
H141	H	1.095307	-0.457191	-0.083353
C142	C	1.120428	-0.230628	-0.090717
C143	C	1.192359	-0.339039	-0.090984
C144	C	1.283373	-0.307624	-0.097792
C145	C	1.302457	-0.167798	-0.104331
C146	C	1.230524	-0.059378	-0.104065
C147	C	1.139510	-0.090793	-0.097257
H148	H	1.178234	-0.442554	-0.086143
H149	H	1.336622	-0.387885	-0.097989
H150	H	1.369831	-0.144543	-0.109370
H151	H	1.244649	0.044138	-0.108906
H152	H	1.086261	-0.010532	-0.097060
