data_functionalizedCrystal
_audit_creation_method	'MofGen! by Chris Wilmer'
_symmetry_space_group_name_H-M	'P1'
_symmetry_Int_Tables_number	1
_symmetry_cell_setting	triclinic
loop_
_symmetry_equiv_pos_as_xyz
  x,y,z
_cell_length_a	16.959455
_cell_length_b	19.120786
_cell_length_c	19.120904
_cell_angle_alpha	89.866497
_cell_angle_beta	92.417981
_cell_angle_gamma	92.461932
loop_
_atom_site_label
_atom_site_type_symbol
_atom_site_fract_x
_atom_site_fract_y
_atom_site_fract_z
Zn1	Zn	1.175686	-0.296106	-0.384560
Zn2	Zn	1.176074	-0.408350	-0.262319
Zn3	Zn	1.049380	-0.291118	-0.267329
Zn4	Zn	1.038083	-0.413306	-0.379505
O5	O	1.109806	-0.352220	-0.323428
O6	O	1.286347	-0.311009	-0.368363
O7	O	1.164157	-0.388638	-0.164879
O8	O	1.070700	-0.193670	-0.287092
O9	O	1.286632	-0.393474	-0.278553
O10	O	1.163497	-0.197334	-0.373221
O11	O	1.071075	-0.302508	-0.168560
O12	O	0.937272	-0.307313	-0.282191
O13	O	1.051447	-0.401920	-0.478280
O14	O	0.928972	-0.397084	-0.364606
O15	O	1.152543	-0.315814	-0.481994
O16	O	1.153204	-0.507118	-0.273652
O17	O	1.051823	-0.510759	-0.359748
C18	C	0.904442	-0.352196	-0.323394
C19	C	0.816585	-0.352203	-0.323395
C20	C	0.445248	-0.395114	-0.276644
C21	C	0.444960	-0.309388	-0.370296
C22	C	0.527507	-0.309375	-0.370280
C23	C	0.568928	-0.352234	-0.323445
C24	C	0.527803	-0.395105	-0.276627
C25	C	0.568638	-0.266511	-0.417102
C26	C	0.651190	-0.266497	-0.417087
C27	C	0.692614	-0.309353	-0.370249
C28	C	0.651483	-0.352225	-0.323428
C29	C	0.692905	-0.395083	-0.276594
C30	C	0.651776	-0.437952	-0.229769
C31	C	0.569226	-0.437960	-0.229788
C32	C	0.775164	-0.309344	-0.370230
C33	C	0.775460	-0.395074	-0.276577
C34	C	1.101350	-0.534378	-0.315624
C35	C	1.097804	-0.612307	-0.312308
C36	C	1.144413	-0.650767	-0.355630
C37	C	1.141078	-0.723989	-0.352516
C38	C	1.091137	-0.758750	-0.306076
C39	C	1.044523	-0.720285	-0.262753
C40	C	1.047855	-0.647064	-0.265871
C41	C	1.078659	-0.979738	-0.294419
C42	C	1.075332	-1.052964	-0.291303
C43	C	1.171886	-1.056663	-0.381067
C44	C	1.175217	-0.983441	-0.384178
C45	C	1.128600	-0.944982	-0.340858
C46	C	1.087728	-0.833595	-0.302890
C47	C	1.132005	-0.870138	-0.344047
C48	C	1.315971	-0.352245	-0.323463
C49	C	1.403826	-0.352256	-0.323478
C50	C	1.100692	-0.359976	-0.506286
C51	C	1.096808	-0.363281	-0.584208
C52	C	1.118315	-0.169352	-0.331279
C53	C	1.121941	-0.091424	-0.334625
C54	C	1.147616	-0.320005	-0.622751
C55	C	1.143957	-0.323108	-0.695968
C56	C	1.089494	-0.369491	-0.730641
C57	C	1.038680	-0.412769	-0.692093
C58	C	1.042336	-0.409662	-0.618877
C59	C	1.075820	-0.381112	-0.951607
C60	C	1.072170	-0.384217	-1.024828
C61	C	1.177447	-0.294555	-1.028698
C62	C	1.181100	-0.291455	-0.955481
C63	C	1.130284	-0.334730	-0.916940
C64	C	1.085754	-0.372666	-0.805480
C65	C	1.134020	-0.331552	-0.842102
C66	C	1.118932	-0.344444	-0.141285
C67	C	1.122978	-0.340941	-0.063371
H68	H	0.411229	-0.274498	-0.408430
Br69	Br	0.513405	-0.496135	-0.166248
H70	H	1.041413	-0.410434	-0.833719
Br71	Br	1.015382	-0.927553	-0.235635
H72	H	1.179038	-0.755300	-0.387787
Br73	Br	1.255021	-0.228507	-0.908430
H74	H	1.172664	-0.841834	-0.381861
H75	H	1.215883	-0.955140	-0.421993
H76	H	0.534906	-0.231622	-0.455236
H77	H	1.218817	-0.259322	-1.060087
H78	H	1.185333	-0.287870	-0.727347
Br79	Br	0.831669	-0.453236	-0.213007
Br80	Br	0.976735	-0.767460	-0.199736
Br81	Br	0.998247	-0.447167	-1.071884
H82	H	0.684671	-0.231590	-0.455214
H83	H	0.685512	-0.472851	-0.191640
Br84	Br	0.973374	-0.468392	-0.566568
Br85	Br	0.389435	-0.453286	-0.213094
H86	H	0.808647	-0.274443	-0.408355
H87	H	1.185083	-0.622469	-0.393443
H88	H	1.209839	-1.087984	-0.416337
H89	H	1.034453	-0.416360	-0.920235
H90	H	0.994332	-0.450532	-0.720329
H91	H	1.034661	-1.081264	-0.253486
H92	H	1.009900	-0.615750	-0.230595
H93	H	1.178361	-0.293784	-0.813869
H94	H	1.047069	-0.861906	-0.265077
H95	H	1.191969	-0.282238	-0.594526
