data_functionalizedCrystal
_audit_creation_method	'MofGen! by Chris Wilmer'
_symmetry_space_group_name_H-M	'P1'
_symmetry_Int_Tables_number	1
_symmetry_cell_setting	triclinic
loop_
_symmetry_equiv_pos_as_xyz
  x,y,z
_cell_length_a	14.044220
_cell_length_b	13.262390
_cell_length_c	11.804365
_cell_angle_alpha	117.342394
_cell_angle_beta	77.072943
_cell_angle_gamma	88.642105
loop_
_atom_site_label
_atom_site_type_symbol
_atom_site_fract_x
_atom_site_fract_y
_atom_site_fract_z
O1	O	0.013854	1.520669	0.591547
O2	O	0.513854	2.020669	1.091547
O3	O	0.047998	1.195741	0.486312
O4	O	0.547998	1.695741	0.986312
O5	O	-0.106770	1.353325	0.537338
O6	O	0.393230	1.853325	1.037338
O7	O	0.168622	1.363085	0.540522
O8	O	0.668622	1.863085	1.040522
O9	O	-0.066064	1.311836	0.325847
O10	O	0.433936	1.811836	0.825847
O11	O	0.088704	1.154251	0.274822
O12	O	0.588704	1.654251	0.774822
O13	O	0.054560	1.479179	0.380057
O14	O	0.554560	1.979179	0.880057
Cu15	Cu	0.075349	1.312927	0.308129
Cu16	Cu	0.575349	1.812927	0.808129
Cu17	Cu	0.027209	1.361993	0.558240
Cu18	Cu	0.527209	1.861993	1.058240
O19	O	0.209328	1.321595	0.329032
O20	O	0.709328	1.821595	0.829032
C21	C	0.070181	1.133161	0.367017
C22	C	0.570181	1.633161	0.867017
C23	C	0.075622	1.008505	0.326644
C24	C	0.575622	1.508505	0.826644
C25	C	0.002186	0.747596	0.673992
C26	C	0.502186	1.247596	1.173992
C27	C	-0.002931	0.864717	0.711926
C28	C	0.497069	1.364717	1.211926
C29	C	0.016707	0.900670	0.615609
C30	C	0.516707	1.400670	1.115609
C31	C	0.041463	0.819490	0.481351
C32	C	0.541463	1.319490	0.981351
C33	C	0.046573	0.702358	0.443412
C34	C	0.546573	1.202358	0.943412
C35	C	0.061093	0.855432	0.385030
C36	C	0.561093	1.355432	0.885030
C37	C	0.085849	0.774252	0.250771
C38	C	0.585849	1.274252	0.750771
C39	C	0.090958	0.657132	0.212839
C40	C	0.590958	1.157132	0.712839
C41	C	0.071320	0.621179	0.309157
C42	C	0.571320	1.121179	0.809157
C43	C	0.055984	0.972564	0.422968
C44	C	0.555984	1.472564	0.922968
C45	C	0.100370	0.927326	0.192389
C46	C	0.600370	1.427326	0.692389
C47	C	0.105487	0.810205	0.154454
C48	C	0.605487	1.310205	0.654454
C49	C	-0.121481	1.328311	0.430209
C50	C	0.378519	1.828311	0.930209
C51	C	-0.225960	1.315574	0.426083
C52	C	0.274040	1.815574	0.926083
C53	C	-0.417259	1.292293	0.418560
C54	C	0.082741	1.792293	0.918560
C55	C	-0.480190	1.382624	0.447819
C56	C	0.019810	1.882624	0.947819
C57	C	-0.586636	1.369670	0.443633
C58	C	-0.086636	1.869670	0.943633
C59	C	-0.310803	1.305245	0.422745
C60	C	0.189197	1.805245	0.922745
C61	C	0.224039	1.346610	0.436163
C62	C	0.724039	1.846610	0.936163
C63	C	0.328516	1.359348	0.440298
C64	C	0.828516	1.859348	0.940298
C65	C	0.032377	1.541759	0.499355
C66	C	0.532377	2.041759	0.999355
C67	C	0.026934	1.666417	0.539736
C68	C	0.526934	2.166417	1.039736
N69	N	0.109207	1.278424	0.132216
N70	N	0.609207	1.778424	0.632216
C71	C	-0.087980	1.479355	-0.176671
C72	C	0.412020	1.979355	0.323329
C73	C	-0.113597	1.505455	-0.043559
C74	C	0.386403	2.005455	0.456441
C75	C	-0.057898	1.448699	0.000392
C76	C	0.442102	1.948699	0.500392
C77	C	0.023422	1.365840	-0.088784
C78	C	0.523422	1.865840	0.411216
C79	C	0.049047	1.339744	-0.221907
C80	C	0.549047	1.839744	0.278093
C81	C	0.079128	1.309088	-0.044844
C82	C	0.579128	1.809088	0.455156
C83	C	0.160449	1.226229	-0.134020
C84	C	0.660449	1.726229	0.365980
C85	C	0.186069	1.200137	-0.267130
C86	C	0.686069	1.700137	0.232870
C87	C	0.130370	1.256893	-0.311081
C88	C	0.630370	1.756893	0.188919
C89	C	0.053503	1.335184	0.088279
C90	C	0.553503	1.835184	0.588279
C91	C	0.190530	1.195573	0.043043
C92	C	0.690530	1.695573	0.543043
C93	C	0.216147	1.169473	-0.090070
C94	C	0.716147	1.669473	0.409930
N95	N	-0.006657	1.396504	0.734156
N96	N	0.493343	1.896504	1.234156
H97	H	0.075489	0.525811	0.278277
H98	H	0.575489	1.025811	0.778277
F99	F	-0.451327	1.178503	0.381712
F100	F	0.048673	1.678503	0.881712
H101	H	-0.012708	1.402648	0.160875
H102	H	0.487292	1.902648	0.660875
F103	F	0.302694	1.081290	-0.184990
F104	F	0.802694	1.581290	0.315010
F105	F	-0.085165	1.476477	0.142063
F106	F	0.414835	1.976477	0.642063
H107	H	-0.179807	1.572919	0.029044
H108	H	0.320193	2.072919	0.529044
H109	H	-0.133318	1.525565	-0.212464
H110	H	0.366682	2.025565	0.287536
H111	H	-0.023091	0.930806	0.821239
H112	H	0.476909	1.430806	1.321239
H113	H	0.151225	1.235640	-0.419472
H114	H	0.651225	1.735640	0.080528
F115	F	0.117300	0.570737	0.069949
F116	F	0.617300	1.070737	0.569949
H117	H	0.252291	1.132678	-0.339736
H118	H	0.752291	1.632678	0.160264
F119	F	-0.018750	0.709325	0.776484
F120	F	0.481250	1.209325	1.276484
F121	F	0.131832	0.723795	0.011569
F122	F	0.631832	1.223795	0.511569
F123	F	0.249816	1.135169	0.089813
F124	F	0.749816	1.635169	0.589813
F125	F	-0.446123	1.496421	0.484666
F126	F	0.053877	1.996421	0.984666
F127	F	0.011263	1.025322	0.655986
F128	F	0.511263	1.525322	1.155986
F129	F	0.029638	1.058949	0.565851
F130	F	0.529638	1.558949	1.065851
F131	F	0.121265	0.965583	0.089873
F132	F	0.621265	1.465583	0.589873
