data_functionalizedCrystal
_audit_creation_method	'MofGen! by Chris Wilmer'
_symmetry_space_group_name_H-M	'P1'
_symmetry_Int_Tables_number	1
_symmetry_cell_setting	triclinic
loop_
_symmetry_equiv_pos_as_xyz
  x,y,z
_cell_length_a	14.519709
_cell_length_b	8.965430
_cell_length_c	10.489716
_cell_angle_alpha	90.004464
_cell_angle_beta	95.895360
_cell_angle_gamma	89.998201
loop_
_atom_site_label
_atom_site_type_symbol
_atom_site_fract_x
_atom_site_fract_y
_atom_site_fract_z
O1	O	1.224768	0.123831	-0.167194
O2	O	1.724768	0.623831	0.332806
O3	O	0.956397	0.123875	-0.186884
O4	O	1.456397	0.623875	0.313116
O5	O	1.096701	0.123858	0.008625
O6	O	1.596701	0.623858	0.508625
O7	O	1.084464	0.123849	-0.362702
O8	O	1.584464	0.623849	0.137298
O9	O	1.096689	-0.124221	0.008612
O10	O	1.596689	0.375779	0.508612
O11	O	0.956385	-0.124204	-0.186897
O12	O	1.456385	0.375796	0.313103
O13	O	1.224756	-0.124248	-0.167207
O14	O	1.724756	0.375752	0.332793
Cu15	Cu	1.090569	-0.146877	-0.177053
Cu16	Cu	1.590569	0.353123	0.322947
Cu17	Cu	1.090583	0.146505	-0.177038
Cu18	Cu	1.590583	0.646505	0.322962
O19	O	1.084452	-0.124230	-0.362715
O20	O	1.584452	0.375770	0.137285
C21	C	0.922026	-0.000158	-0.185973
C22	C	1.422026	0.499842	0.314027
C23	C	0.819630	-0.000141	-0.183223
C24	C	1.319630	0.499859	0.316777
N25	N	1.090566	-0.353226	-0.177063
N26	N	1.590566	0.146774	0.322937
C27	C	0.444680	-0.000209	-0.173100
C28	C	0.944680	0.499791	0.326900
C29	C	0.549003	-0.000189	-0.175911
C30	C	1.049003	0.499811	0.324089
C31	C	0.632152	-0.000173	-0.178161
C32	C	1.132152	0.499827	0.321839
C33	C	0.736481	-0.000157	-0.180973
C34	C	1.236481	0.499843	0.319027
C35	C	1.025660	-0.450524	-0.267450
C36	C	1.525660	0.049476	0.232550
C37	C	1.109161	-0.549953	-0.292390
C38	C	1.609161	-0.049953	0.207610
C39	C	1.007101	-0.549925	-0.152133
C40	C	1.507101	-0.049925	0.347867
C41	C	1.174109	-0.450466	-0.202061
C42	C	1.674109	0.049534	0.297939
C43	C	1.071994	-0.450430	-0.061754
C44	C	1.571994	0.049570	0.438246
C45	C	1.155555	-0.549814	-0.086646
C46	C	1.655555	-0.049814	0.413354
C47	C	1.259126	-0.000211	-0.168118
C48	C	1.759126	0.499789	0.331882
C49	C	1.361523	-0.000218	-0.170868
C50	C	1.861523	0.499782	0.329132
C51	C	1.095775	-0.000177	0.056141
C52	C	1.595775	0.499823	0.556141
C53	C	1.093025	-0.000163	0.197743
C54	C	1.593025	0.499837	0.697743
N55	N	1.090594	0.352854	-0.177018
N56	N	1.590594	0.852854	0.322982
C57	C	1.085377	-0.000192	-0.410232
C58	C	1.585377	0.499808	0.089768
C59	C	1.088128	-0.000196	-0.551834
C60	C	1.588128	0.499804	-0.051834
C61	C	1.179063	-0.000191	0.296314
C62	C	1.679063	0.499809	0.796314
C63	C	1.133604	0.122129	0.373207
C64	C	1.633604	0.622129	0.873207
C65	C	1.133573	-0.122458	0.373158
C66	C	1.633573	0.377542	0.873158
C67	C	1.047602	0.122257	0.272771
C68	C	1.547602	0.622257	0.772771
C69	C	1.047583	-0.122439	0.272717
C70	C	1.547583	0.377561	0.772717
C71	C	1.002060	-0.000090	0.349560
C72	C	1.502060	0.499910	0.849560
H73	H	0.970822	-0.406928	-0.343957
H74	H	1.470822	0.093072	0.156043
H75	H	0.936504	-0.593618	-0.131068
H76	H	1.436504	-0.093618	0.368932
H77	H	1.124889	-0.593666	-0.389885
H78	H	1.624889	-0.093666	0.110115
N79	N	1.224507	-0.604150	0.009271
N80	N	1.724507	-0.104150	0.509271
N81	N	1.307778	-0.571954	0.003877
N82	N	1.807778	-0.071954	0.503877
H83	H	1.356479	-0.610330	0.071615
H84	H	1.856479	-0.110330	0.571615
H85	H	1.011289	-0.225845	0.228815
H86	H	1.511289	0.274155	0.728815
N87	N	1.179160	-0.252178	0.428156
N88	N	1.679160	0.247822	0.928156
N89	N	1.262827	-0.273949	0.415909
N90	N	1.762827	0.226051	0.915909
H91	H	1.295030	-0.365557	0.454749
H92	H	1.795030	0.134443	0.954749
H93	H	1.244723	-0.406961	-0.223244
H94	H	1.744723	0.093039	0.276756
H95	H	1.253902	-0.000079	0.272417
H96	H	1.753902	0.499921	0.772417
N97	N	1.052225	-0.395560	0.060515
N98	N	1.552225	0.104440	0.560515
N99	N	0.977127	-0.427366	0.102458
N100	N	1.477127	0.072634	0.602458
H101	H	0.963156	-0.388614	0.188812
H102	H	1.463156	0.111386	0.688812
H103	H	1.169930	0.225531	0.417086
H104	H	1.669930	0.725531	0.917086
H105	H	1.011306	0.225783	0.229094
H106	H	1.511306	0.725783	0.729094
H107	H	0.927165	-0.000011	0.373210
H108	H	1.427165	0.499989	0.873210
