data_functionalizedCrystal
_audit_creation_method	'MofGen! by Chris Wilmer'
_symmetry_space_group_name_H-M	'P1'
_symmetry_Int_Tables_number	1
_symmetry_cell_setting	triclinic
loop_
_symmetry_equiv_pos_as_xyz
  x,y,z
_cell_length_a	23.096457
_cell_length_b	20.016444
_cell_length_c	20.016444
_cell_angle_alpha	90.002879
_cell_angle_beta	60.002889
_cell_angle_gamma	60.004171
loop_
_atom_site_label
_atom_site_type_symbol
_atom_site_fract_x
_atom_site_fract_y
_atom_site_fract_z
Zr1	Zr	0.633752	-0.087641	0.643598
O2	O	0.754529	-0.194307	0.536929
O3	O	0.512969	-0.054946	0.676296
O4	O	0.633749	-0.194313	0.676299
O5	O	0.633754	0.055000	0.536927
O6	O	0.633754	-0.194313	0.786239
O7	O	0.633749	-0.054940	0.536926
O8	O	0.417700	0.054989	0.786233
O9	O	0.849807	-0.194302	0.536932
O10	O	0.562655	-0.040997	0.772291
O11	O	0.562655	0.041050	0.690244
O12	O	0.704858	-0.123037	0.690248
O13	O	0.704858	-0.040990	0.608201
Zr14	Zr	0.633767	0.087701	0.818941
Zr15	Zr	0.633759	-0.087641	0.818940
Zr16	Zr	0.633759	0.087701	0.643599
Zr17	Zr	0.785710	-0.087633	0.643603
Zr18	Zr	0.481809	0.087693	0.818936
O19	O	0.754550	0.055006	0.786243
O20	O	0.754540	-0.194307	0.786242
O21	O	0.754540	0.055006	0.536930
O22	O	0.512990	0.194367	0.925610
O23	O	0.512979	-0.054946	0.925609
O24	O	0.512979	0.194367	0.676297
O25	O	0.633765	-0.054940	0.925612
O26	O	0.633770	0.194373	0.786240
O27	O	0.633765	0.194373	0.676300
O28	O	0.633770	0.055000	0.925613
O29	O	0.849813	-0.194302	0.676305
O30	O	0.417706	0.194362	0.786234
O31	O	0.417712	0.194362	0.925607
O32	O	0.417706	0.054989	0.925606
O33	O	0.849813	-0.054929	0.536933
O34	O	0.849819	-0.054929	0.676306
O35	O	0.562661	0.123097	0.772291
O36	O	0.562661	0.041050	0.854338
O37	O	0.704864	-0.040990	0.772295
O38	O	0.704864	0.041057	0.690248
C39	C	0.443684	0.000021	0.731264
C40	C	0.379174	0.000018	0.731262
C41	C	0.633750	0.000030	0.511944
C42	C	0.633747	0.000030	0.437507
C43	C	0.633769	0.219355	0.731270
C44	C	0.633772	0.293792	0.731271
C45	C	0.348873	-0.042813	0.774084
C46	C	0.288251	-0.042806	0.774092
C47	C	0.257943	0.000020	0.731262
C48	C	0.288248	0.042860	0.688438
C49	C	0.348864	0.042859	0.688438
N50	N	0.195545	-0.005919	0.661564
N51	N	0.137964	-0.005922	0.661566
C52	C	0.075311	0.000027	0.731261
N53	N	0.072422	0.005964	0.800954
N54	N	0.130011	0.005963	0.800951
C55	C	0.192216	0.000026	0.731258
C56	C	-0.020724	-0.042798	0.774096
C57	C	-0.081351	-0.042786	0.774106
C58	C	-0.081346	0.042875	0.688444
C59	C	-0.020726	0.042868	0.688442
C60	C	0.009584	0.000027	0.731266
C61	C	0.823835	0.000039	0.731275
C62	C	0.888345	0.000042	0.731277
C63	C	0.633750	-0.219295	0.731269
C64	C	0.633747	-0.293732	0.731268
C65	C	0.707991	0.422235	0.688442
C66	C	0.707987	0.492181	0.688439
C67	C	0.559523	0.577823	0.774098
C68	C	0.559527	0.507878	0.774096
C69	C	0.633763	0.430085	0.731269
C70	C	0.633756	0.569975	0.731270
C71	C	0.633751	0.645813	0.731267
C72	C	0.633768	0.354242	0.731270
C73	C	0.559528	0.042856	0.309066
C74	C	0.559532	0.042858	0.239120
C75	C	0.707996	-0.042798	0.153475
C76	C	0.707992	-0.042794	0.223419
C77	C	0.633756	0.000031	0.301214
C78	C	0.633763	0.000029	0.161325
C79	C	0.633768	0.000031	0.085487
C80	C	0.633751	0.000030	0.377057
C81	C	0.633769	0.000030	0.950595
C82	C	0.633772	0.000030	1.025032
C83	C	0.443693	0.000020	0.950589
C84	C	0.379186	0.000017	1.025024
C85	C	0.443693	0.219346	0.731265
C86	C	0.379186	0.293780	0.731263
C87	C	0.443702	0.219346	0.950590
C88	C	0.379198	0.293780	1.025026
C89	C	0.823817	-0.219286	0.511949
C90	C	0.888320	-0.293720	0.437513
C91	C	0.823826	0.000039	0.511950
C92	C	0.888333	0.000043	0.437515
C93	C	0.823826	-0.219286	0.731274
C94	C	0.888333	-0.293720	0.731276
C95	C	0.348890	-0.042819	1.017152
C96	C	0.288287	-0.042839	1.087085
C97	C	0.257978	-0.000016	1.164890
C98	C	0.288281	0.042821	1.172760
C99	C	0.348886	0.042835	1.102828
C100	C	0.348897	0.371570	0.774090
C101	C	0.288294	0.441515	0.774086
C102	C	0.257978	0.433669	0.731258
C103	C	0.288274	0.355871	0.688426
C104	C	0.348879	0.285927	0.688426
C105	C	0.348907	0.285907	1.102816
C106	C	0.288307	0.355838	1.172763
C107	C	0.257996	0.433642	1.164917
C108	C	0.288294	0.441513	1.087118
C109	C	0.348896	0.371582	1.017173
C110	C	0.918619	-0.285847	0.359723
C111	C	0.979238	-0.355779	0.289776
C112	C	1.009552	-0.433582	0.297622
C113	C	0.979251	-0.441454	0.375421
C114	C	0.918637	-0.371523	0.445365
C115	C	0.918636	0.042872	0.445387
C116	C	0.979255	0.042872	0.375454
C117	C	1.009566	0.000047	0.297649
C118	C	0.979261	-0.042787	0.289779
C119	C	0.918647	-0.042792	0.359711
C120	C	0.918629	-0.285847	0.774112
C121	C	0.979232	-0.355779	0.774129
C122	C	1.009542	-0.433583	0.731306
C123	C	0.979239	-0.441454	0.688469
C124	C	0.918633	-0.371523	0.688456
H125	H	0.373548	-0.077695	0.808956
O126	O	1.068528	-0.501535	0.229699
C127	C	1.138649	-0.548411	0.229822
H128	H	1.138585	-0.507361	0.269377
H129	H	1.138136	-0.599044	0.255611
C130	C	1.216105	-0.637089	0.093106
C131	C	1.216029	-0.586669	0.141683
H132	H	1.263837	-0.660692	0.038738
H133	H	1.168862	-0.605510	0.093024
H134	H	1.215674	-0.679276	0.114606
H135	H	1.216450	-0.544478	0.120189
H136	H	1.263274	-0.618242	0.141760
H137	H	0.263635	0.504855	0.808968
O138	O	0.889139	-0.084373	0.352203
C139	C	0.829119	-0.075181	0.430604
H140	H	0.839065	-0.059422	0.476978
H141	H	0.765729	-0.023900	0.448413
C142	C	0.823534	-0.175055	0.372586
C143	C	0.835755	-0.155706	0.429542
H144	H	0.827624	-0.224725	0.371931
H145	H	0.863969	-0.181246	0.319765
H146	H	0.770710	-0.132314	0.387433
H147	H	0.888582	-0.198441	0.414689
H148	H	0.795329	-0.149524	0.482361
H149	H	0.893969	-0.377943	0.508704
O150	O	1.008632	-0.517074	0.382941
C151	C	0.993815	-0.560028	0.344977
H152	H	0.940670	-0.514595	0.341804
H153	H	1.051005	-0.601465	0.280441
C154	C	1.037442	-0.668147	0.398868
C155	C	0.972163	-0.612345	0.394977
H156	H	1.024089	-0.700422	0.429707
H157	H	1.047427	-0.639210	0.424442
H158	H	1.085094	-0.702669	0.345084
H159	H	0.924515	-0.577817	0.448759
H160	H	0.962169	-0.641278	0.369413
O161	O	0.780028	-0.084325	0.215940
C162	C	0.764103	-0.075150	0.294357
H163	H	0.700306	-0.017309	0.340709
H164	H	0.767618	-0.130485	0.312178
C165	C	0.906493	-0.139556	0.236400
C166	C	0.828140	-0.068510	0.293329
H167	H	0.945995	-0.135463	0.235765
H168	H	0.917223	-0.145740	0.183568
H169	H	0.909411	-0.185660	0.251257
H170	H	0.825220	-0.022408	0.278465
H171	H	0.817410	-0.062318	0.346158
O172	O	0.008600	-0.084415	0.815773
C173	C	-0.031140	-0.122227	0.853564
H174	H	-0.092576	-0.088634	0.862043
H175	H	0.008601	-0.188701	0.813432
C176	C	0.030214	-0.160374	0.927187
C177	C	-0.045246	-0.119110	0.937608
H178	H	0.021516	-0.158456	0.979028
H179	H	0.056991	-0.134903	0.901725
H180	H	0.063324	-0.215766	0.893741
H181	H	-0.078350	-0.063718	0.971045
H182	H	-0.072029	-0.144573	0.963078
H183	H	0.208649	0.490578	1.221877
H184	H	0.893961	0.077750	0.508733
O185	O	0.487470	0.515398	0.815760
C186	C	0.483027	0.477517	0.875878
H187	H	0.547479	0.429863	0.857878
H188	H	0.446393	0.525603	0.937312
C189	C	0.361435	0.494081	0.904982
C190	C	0.440597	0.435548	0.882871
H191	H	0.335259	0.468196	0.909299
H192	H	0.364426	0.519606	0.864482
H193	H	0.330917	0.534149	0.956175
H194	H	0.471116	0.395487	0.831674
H195	H	0.437610	0.410016	0.923363
H196	H	1.003919	0.077756	0.381878
O197	O	0.378261	-0.084493	0.941640
C198	C	0.338502	-0.122285	0.949704
H199	H	0.313531	-0.130765	1.012116
H200	H	0.285858	-0.082156	0.943973
C201	C	0.430588	-0.195907	0.805292
C202	C	0.399924	-0.206329	0.881945
H203	H	0.468473	-0.247747	0.763493
H204	H	0.457372	-0.170443	0.799858
H205	H	0.386711	-0.162463	0.800528
H206	H	0.443799	-0.239764	0.886712
H207	H	0.373148	-0.231800	0.887379
H208	H	0.768431	0.485782	0.653564
O209	O	0.378432	0.084331	1.110436
C210	C	0.463366	0.029380	1.072532
H211	H	0.479978	-0.035154	1.069293
H212	H	0.498020	0.030899	1.008026
C213	C	0.466486	0.133738	1.126621
C214	C	0.486889	0.054478	1.122649
H215	H	0.480998	0.149221	1.157533
H216	H	0.409266	0.170762	1.152156
H217	H	0.495367	0.134994	1.072862
H218	H	0.458001	0.053226	1.176406
H219	H	0.544106	0.017455	1.097125
H220	H	1.058891	-0.490519	0.731322
H221	H	0.499080	0.077736	0.372407
O222	O	1.008673	-0.348018	0.214253
C223	C	1.043732	-0.304868	0.205296
H224	H	1.016353	-0.266276	0.268260
H225	H	1.112767	-0.350151	0.171863
C226	C	1.059384	-0.296095	0.078288
C227	C	1.025752	-0.248690	0.155621
H228	H	1.048297	-0.261444	0.047642
H229	H	1.035767	-0.325168	0.084320
H230	H	1.116912	-0.333828	0.050437
H231	H	0.968225	-0.210965	0.183474
H232	H	1.049359	-0.219609	0.149592
O233	O	0.258711	-0.084326	1.079531
C234	C	0.173785	-0.029346	1.117407
H235	H	0.148078	0.027014	1.165086
H236	H	0.162221	-0.010168	1.069321
C237	C	0.162940	-0.140550	1.100767
C238	C	0.131365	-0.071331	1.159333
H239	H	0.136773	-0.166449	1.126627
H240	H	0.220157	-0.177592	1.075247
H241	H	0.153301	-0.124558	1.060701
H242	H	0.141013	-0.087325	1.199393
H243	H	0.074149	-0.034293	1.184861
H244	H	1.058922	0.000057	0.240713
O245	O	0.199124	0.000029	1.232903
C246	C	0.178844	0.047031	1.303269
H247	H	0.231997	0.050255	1.287239
H248	H	0.121896	0.111472	1.326812
C249	C	0.096536	0.003007	1.389674
C250	C	0.161822	0.006962	1.369987
H251	H	0.086032	-0.021706	1.430831
H252	H	0.110196	-0.028656	1.342268
H253	H	0.049087	0.056711	1.409288
H254	H	0.209272	-0.046742	1.350364
H255	H	0.148170	0.038615	1.417392
O256	O	0.487354	0.084469	0.246893
C257	C	0.421835	0.122284	0.330556
H258	H	0.443594	0.088692	0.367858
H259	H	0.399013	0.188758	0.351165
C260	C	0.324977	0.160429	0.297899
C261	C	0.351700	0.119166	0.343714
H262	H	0.281712	0.158510	0.306017
H263	H	0.369117	0.134955	0.241534
H264	H	0.305964	0.215820	0.315079
H265	H	0.370722	0.063774	0.326528
H266	H	0.307561	0.144630	0.400077
O267	O	0.258956	0.084322	1.248323
C268	C	0.323623	0.052869	1.257308
H269	H	0.375153	-0.012410	1.213029
H270	H	0.347520	0.092597	1.243429
C271	C	0.229085	0.133204	1.400072
C272	C	0.292372	0.053025	1.345691
H273	H	0.209808	0.133303	1.454591
H274	H	0.185518	0.154397	1.394018
H275	H	0.249008	0.166302	1.388496
H276	H	0.272446	0.019931	1.357261
H277	H	0.335936	0.031826	1.351749
O278	O	0.199077	0.501700	0.731379
C279	C	0.178863	0.572039	0.778351
H280	H	0.195573	0.555970	0.823632
H281	H	0.214308	0.595587	0.736186
C282	C	0.065805	0.658503	0.769838
C283	C	0.086322	0.638769	0.825458
H284	H	0.008723	0.699667	0.798893
H285	H	0.079425	0.611115	0.738190
H286	H	0.095349	0.678122	0.734705
H287	H	0.056786	0.619141	0.860583
H288	H	0.072695	0.686155	0.857114
H289	H	0.768439	0.358896	0.653568
H290	H	0.263645	0.349415	1.236103
O291	O	1.008629	-0.084248	0.214178
C292	C	0.993836	-0.029252	0.171167
H293	H	0.940711	0.035265	0.216559
H294	H	1.051043	-0.030743	0.129686
C295	C	1.037411	-0.133554	0.063151
C296	C	0.972157	-0.054315	0.118903
H297	H	1.024042	-0.149016	0.030909
H298	H	1.047380	-0.170608	0.092126
H299	H	1.085078	-0.134787	0.028591
H300	H	0.924494	-0.053086	0.153468
H301	H	0.962179	-0.017261	0.089932
O302	O	0.258692	0.348401	0.646913
C303	C	0.198713	0.426822	0.656097
H304	H	0.172239	0.473170	0.713930
H305	H	0.227698	0.444639	0.600756
C306	C	0.162316	0.368882	0.591731
C307	C	0.129796	0.425806	0.662767
H308	H	0.119807	0.368255	0.595842
H309	H	0.202728	0.316048	0.585540
H310	H	0.186470	0.383737	0.545621
H311	H	0.105653	0.410945	0.708874
H312	H	0.089379	0.478638	0.668965
H313	H	0.373573	0.377974	0.808966
O314	O	0.889051	-0.210231	0.815776
C315	C	0.804126	-0.167225	0.875892
H316	H	0.778419	-0.193932	0.857883
H317	H	0.792562	-0.173050	0.937323
C318	C	0.793276	-0.043501	0.905024
C319	C	0.761702	-0.076299	0.882901
H320	H	0.767107	0.012587	0.909350
H321	H	0.850493	-0.072475	0.864525
H322	H	0.783638	-0.048363	0.956214
H323	H	0.771350	-0.071446	0.831706
H324	H	0.704486	-0.047321	0.923391
O325	O	1.008731	-0.348268	0.815723
C326	C	1.068736	-0.426669	0.806544
H327	H	1.058784	-0.473037	0.790786
H328	H	1.132133	-0.444489	0.755268
C329	C	1.074311	-0.368650	0.906428
C330	C	1.062083	-0.425600	0.887079
H331	H	1.070210	-0.367991	0.956103
H332	H	1.033887	-0.315830	0.912610
H333	H	1.127141	-0.383507	0.863691
H334	H	1.009249	-0.410736	0.929810
H335	H	1.102498	-0.478418	0.880906
O336	O	0.378177	0.210425	0.646817
C337	C	0.338430	0.218509	0.609007
H338	H	0.277006	0.280927	0.642600
H339	H	0.378179	0.212775	0.542531
C340	C	0.399733	0.074105	0.570866
C341	C	0.324288	0.150766	0.612130
H342	H	0.391012	0.032316	0.572789
H343	H	0.426514	0.068657	0.596337
H344	H	0.432849	0.069338	0.515473
H345	H	0.291177	0.155535	0.667524
H346	H	0.297501	0.156213	0.586669
H347	H	0.499082	0.641169	0.808967
H348	H	0.768437	-0.077665	0.090127
H349	H	0.263575	-0.077685	0.808964
O350	O	0.258853	0.517140	1.079612
C351	C	0.273684	0.560148	1.117495
H352	H	0.281254	0.533419	1.165140
H353	H	0.331951	0.554354	1.069407
C354	C	0.191651	0.683889	1.100958
C355	C	0.200942	0.651065	1.159480
H356	H	0.146783	0.739972	1.126853
H357	H	0.181661	0.654914	1.075432
H358	H	0.240211	0.679053	1.060889
H359	H	0.152387	0.655892	1.199542
H360	H	0.210922	0.680043	1.185014
O361	O	1.008677	-0.517079	0.646987
C362	C	0.993852	-0.560091	0.701975
H363	H	0.986287	-0.533365	0.758355
H364	H	0.935584	-0.554296	0.721119
C365	C	1.075879	-0.683828	0.590776
C366	C	1.066594	-0.651007	0.660019
H367	H	1.120747	-0.739911	0.564895
H368	H	1.085865	-0.654851	0.553729
H369	H	1.027317	-0.678992	0.606739
H370	H	1.115151	-0.655835	0.644054
H371	H	1.056618	-0.679988	0.697062
H372	H	0.373552	0.378004	0.953836
O373	O	0.889328	-0.379322	0.646763
C374	C	0.929069	-0.462992	0.608988
H375	H	0.990495	-0.500275	0.600530
H376	H	0.889318	-0.483602	0.649120
C377	C	0.867756	-0.430391	0.535326
C378	C	0.943204	-0.476182	0.524931
H379	H	0.876472	-0.438528	0.483477
H380	H	0.840979	-0.374021	0.560778
H381	H	0.834638	-0.447571	0.568772
H382	H	0.976316	-0.458994	0.491494
H383	H	0.969987	-0.532549	0.499471
H384	H	0.893941	-0.222501	0.353319
O385	O	0.258648	0.084523	0.646968
C386	C	0.173724	0.144626	0.701979
H387	H	0.148048	0.126607	0.758345
H388	H	0.162155	0.206062	0.721142
C389	C	0.162802	0.173761	0.590815
C390	C	0.131266	0.151626	0.660041
H391	H	0.136611	0.178082	0.564945
H392	H	0.220017	0.133270	0.553752
H393	H	0.153159	0.224955	0.606794
H394	H	0.140917	0.100428	0.644060
H395	H	0.074050	0.192108	0.697100
H396	H	-0.106026	-0.077660	0.808982
O397	O	-0.110845	0.084407	0.646853
C398	C	-0.170862	0.075245	0.656055
H399	H	-0.160914	0.017402	0.671826
H400	H	-0.234253	0.130580	0.707332
C401	C	-0.176445	0.139670	0.556164
C402	C	-0.164223	0.068622	0.575528
H403	H	-0.172353	0.135588	0.506494
H404	H	-0.136013	0.145846	0.549967
H405	H	-0.229270	0.185775	0.598901
H406	H	-0.111394	0.022520	0.532796
H407	H	-0.204646	0.062438	0.581717
H408	H	0.373535	0.077737	0.653565
O409	O	0.008654	0.084480	0.646765
C410	C	-0.031108	0.122299	0.608980
H411	H	-0.056090	0.088710	0.600500
H412	H	-0.083744	0.188773	0.649116
C413	C	0.060992	0.160445	0.535357
C414	C	0.030314	0.119185	0.524936
H415	H	0.098878	0.158528	0.483516
H416	H	0.087778	0.134968	0.560815
H417	H	0.017121	0.215835	0.568806
H418	H	0.074183	0.063794	0.491496
H419	H	0.003536	0.144653	0.499470
H420	H	0.373577	0.222561	1.109220
