data_functionalizedCrystal
_audit_creation_method	'MofGen! by Chris Wilmer'
_symmetry_space_group_name_H-M	'P1'
_symmetry_Int_Tables_number	1
_symmetry_cell_setting	triclinic
loop_
_symmetry_equiv_pos_as_xyz
  x,y,z
_cell_length_a	16.992694
_cell_length_b	15.995350
_cell_length_c	16.053802
_cell_angle_alpha	92.567808
_cell_angle_beta	87.249047
_cell_angle_gamma	87.080299
loop_
_atom_site_label
_atom_site_type_symbol
_atom_site_fract_x
_atom_site_fract_y
_atom_site_fract_z
O1	O	1.043694	0.174244	-0.069318
O2	O	1.543694	0.674244	0.430682
O3	O	0.815410	0.172295	-0.069342
O4	O	1.315410	0.672295	0.430658
O5	O	0.935792	0.051799	-0.069329
O6	O	1.435792	0.551799	0.430671
O7	O	0.923312	0.294739	-0.069332
O8	O	1.423312	0.794739	0.430668
O9	O	0.929166	0.058403	0.069530
O10	O	1.429166	0.558403	0.569530
O11	O	0.808784	0.178898	0.069516
O12	O	1.308784	0.678898	0.569516
O13	O	1.037068	0.180847	0.069540
O14	O	1.537068	0.680847	0.569540
Zn15	Zn	0.921874	0.180921	0.091575
Zn16	Zn	1.421874	0.680921	0.591575
Zn17	Zn	0.930604	0.172221	-0.091377
Zn18	Zn	1.430604	0.672221	0.408623
O19	O	0.916685	0.301343	0.069527
O20	O	1.416685	0.801343	0.569527
C21	C	0.782884	0.173091	0.000083
C22	C	1.282884	0.673091	0.500083
C23	C	0.695841	0.165614	0.000074
C24	C	1.195841	0.665614	0.500074
C25	C	0.645600	0.237749	0.000074
C26	C	1.145600	0.737749	0.500074
C27	C	0.563813	0.230720	0.000085
C28	C	1.063813	0.730720	0.500085
C29	C	0.532268	0.151555	0.000091
C30	C	1.032268	0.651555	0.500091
C31	C	0.582515	0.079414	0.000094
C32	C	1.082515	0.579414	0.500094
C33	C	0.664300	0.086444	0.000088
C34	C	1.164300	0.586444	0.500088
C35	C	0.288669	0.122417	0.000114
C36	C	0.788669	0.622417	0.500114
C37	C	0.206878	0.115392	0.000117
C38	C	0.706878	0.615392	0.500117
C39	C	0.188181	0.266699	0.000110
C40	C	0.688181	0.766699	0.500110
C41	C	0.269969	0.273722	0.000099
C42	C	0.769969	0.773722	0.500099
C43	C	0.320209	0.201582	0.000106
C44	C	0.820209	0.701582	0.500106
N45	N	0.448669	0.144368	0.000100
N46	N	0.948669	0.644368	0.500100
N47	N	0.403806	0.208770	0.000103
N48	N	0.903806	0.708770	0.500103
C49	C	0.931963	0.023872	0.000099
C50	C	1.431963	0.523872	0.500099
C51	C	0.930417	-0.069182	0.000094
C52	C	1.430417	0.430818	0.500094
C53	C	0.924861	-0.407302	0.000096
C54	C	1.424861	0.092698	0.500096
C55	C	0.839142	-0.365620	-0.000225
C56	C	1.339142	0.134380	0.499775
C57	C	0.840674	-0.268811	0.000089
C58	C	1.340674	0.231189	0.500089
C59	C	0.927617	-0.239557	0.000095
C60	C	1.427617	0.260443	0.500095
C61	C	0.966120	-0.274034	0.079392
C62	C	1.466120	0.225966	0.579392
C63	C	0.963963	-0.370810	0.079459
C64	C	1.463963	0.129190	0.579459
C65	C	0.973269	-0.378559	-0.078449
C66	C	1.473269	0.121441	0.421551
C67	C	0.973299	-0.281665	-0.079497
C68	C	1.473299	0.218335	0.420503
C69	C	0.929179	-0.144755	0.000096
C70	C	1.429179	0.355245	0.500096
C71	C	0.923302	-0.502103	0.000100
C72	C	1.423302	-0.002103	0.500100
C73	C	1.069593	0.180051	0.000113
C74	C	1.569593	0.680051	0.500113
C75	C	1.156637	0.187528	0.000117
C76	C	1.656637	0.687528	0.500117
C77	C	0.920515	0.329270	0.000097
C78	C	1.420515	0.829270	0.500097
C79	C	0.922061	0.422324	0.000097
C80	C	1.422061	0.922324	0.500097
N81	N	0.915921	0.186859	0.216434
N82	N	1.415921	0.686859	0.716434
N83	N	0.936563	0.166277	-0.216236
N84	N	1.436563	0.666277	0.283764
C85	C	0.967163	0.135608	0.260134
C86	C	1.467163	0.635608	0.760134
C87	C	0.963006	0.139770	0.347541
C88	C	1.463006	0.639770	0.847541
C89	C	0.907611	0.195187	0.391245
C90	C	1.407611	0.695187	0.891245
C91	C	0.856364	0.246439	0.347539
C92	C	1.356364	0.746439	0.847539
C93	C	0.860518	0.242273	0.260135
C94	C	1.360518	0.742273	0.760135
C95	C	0.889469	0.213363	0.652653
C96	C	1.389469	0.713363	1.152653
C97	C	0.885321	0.217528	0.740064
C98	C	1.385321	0.717528	1.240064
C99	C	0.991962	0.110857	0.740059
C100	C	1.491962	0.610857	1.240059
C101	C	0.996114	0.106699	0.652652
C102	C	1.496114	0.606699	1.152652
C103	C	0.944864	0.157948	0.608954
C104	C	1.444864	0.657948	1.108954
N105	N	0.903363	0.199444	0.480589
N106	N	1.403363	0.699444	0.980589
N107	N	0.949109	0.153686	0.519612
N108	N	1.449109	0.653686	1.019612
H109	H	0.522910	0.289461	0.000084
H110	H	1.022910	0.789461	0.500084
O111	O	0.303997	0.359106	0.000094
O112	O	0.803997	0.859106	0.500094
H113	H	0.338126	0.368612	0.056684
H114	H	0.838126	0.868612	0.556684
H115	H	0.181198	0.050923	0.000121
H116	H	0.681198	0.550923	0.500121
O117	O	0.825568	0.277295	0.787212
O118	O	1.325568	0.777295	1.287212
H119	H	0.765243	0.261686	0.770459
H120	H	1.265243	0.761686	1.270459
H121	H	0.556824	0.014956	0.000111
H122	H	1.056824	0.514956	0.500111
H123	H	0.811257	0.291558	0.383129
H124	H	1.311257	0.791558	0.883129
O125	O	0.834203	0.268644	0.605525
O126	O	1.334203	0.768644	1.105525
H127	H	0.794995	0.307885	0.650603
H128	H	1.294995	0.807885	1.150603
H129	H	0.329565	0.063675	0.000120
H130	H	0.829565	0.563675	0.500120
H131	H	0.818790	0.284005	0.224555
H132	H	1.318790	0.784005	0.724555
O133	O	1.018287	0.084510	0.394677
O134	O	1.518287	0.584510	0.894677
H135	H	1.057516	0.045288	0.349602
H136	H	1.557516	0.545288	0.849602
O137	O	0.718495	0.008643	0.000086
O138	O	1.218495	0.508643	0.500086
H139	H	0.682822	-0.047588	0.000083
H140	H	1.182822	0.452412	0.500083
O141	O	0.679621	0.323136	0.000065
O142	O	1.179621	0.823136	0.500065
H143	H	0.713749	0.332645	0.056656
H144	H	1.213749	0.832645	0.556656
O145	O	0.133997	0.344507	0.000120
O146	O	0.633997	0.844507	0.500120
H147	H	0.071825	0.326323	0.000135
H148	H	0.571825	0.826323	0.500135
H149	H	0.810146	-0.245316	-0.056756
H150	H	1.310146	0.254684	0.443244
O151	O	0.797328	-0.396797	-0.075536
O152	O	1.297328	0.103203	0.424464
H153	H	0.837189	-0.442337	-0.113544
H154	H	1.337189	0.057663	0.386456
H155	H	0.802329	-0.384808	0.056318
H156	H	1.302329	0.115192	0.556318
O157	O	0.919365	-0.394054	0.157967
O158	O	1.419365	0.105946	0.657967
H159	H	0.958577	-0.433909	0.194974
H160	H	1.458577	0.066091	0.694974
O161	O	1.050539	-0.249467	0.083319
O162	O	1.550539	0.250533	0.583319
H163	H	1.085068	-0.275682	0.026841
H164	H	1.585068	0.224318	0.526841
H165	H	0.933934	-0.244811	0.138399
H166	H	1.433934	0.255189	0.638399
O167	O	0.939968	-0.412030	-0.158080
O168	O	1.439968	0.087970	0.341920
H169	H	0.877702	-0.388196	-0.160906
H170	H	1.377702	0.111804	0.339094
H171	H	0.804493	-0.240478	0.057023
H172	H	1.304493	0.259522	0.557023
H173	H	0.945181	-0.259275	-0.138159
H174	H	1.445181	0.240725	0.361841
H175	H	1.036930	-0.262288	-0.084280
H176	H	1.536930	0.237712	0.415720
O177	O	1.057033	-0.415063	-0.079163
O178	O	1.557033	0.084937	0.420837
H179	H	1.064192	-0.453495	-0.023880
H180	H	1.564192	0.046505	0.476120
O181	O	1.047106	-0.407731	0.084250
O182	O	1.547106	0.092269	0.584250
H183	H	1.088674	-0.356447	0.086517
H184	H	1.588674	0.143553	0.586517
O185	O	1.047234	0.055585	0.787195
O186	O	1.547234	0.555585	1.287195
H187	H	1.086455	0.016356	0.742119
H188	H	1.586455	0.516356	1.242119
O189	O	1.026907	0.075833	0.212996
O190	O	1.526907	0.575833	0.712996
H191	H	1.061834	0.040889	0.258071
H192	H	1.561834	0.540889	0.758071
H193	H	1.041221	0.061574	0.617070
H194	H	1.541221	0.561574	1.117070
