data_functionalizedCrystal
_audit_creation_method	'MofGen! by Chris Wilmer'
_symmetry_space_group_name_H-M	'P1'
_symmetry_Int_Tables_number	1
_symmetry_cell_setting	triclinic
loop_
_symmetry_equiv_pos_as_xyz
  x,y,z
_cell_length_a	10.967926
_cell_length_b	11.792241
_cell_length_c	10.065875
_cell_angle_alpha	98.849501
_cell_angle_beta	93.120479
_cell_angle_gamma	84.458031
loop_
_atom_site_label
_atom_site_type_symbol
_atom_site_fract_x
_atom_site_fract_y
_atom_site_fract_z
O1	O	1.614181	0.197973	0.266151
O2	O	1.264158	0.201215	0.183825
O3	O	1.447662	0.034735	0.226995
O4	O	1.430677	0.364453	0.222981
O5	O	1.412671	0.066614	0.445752
O6	O	1.229167	0.233093	0.402582
O7	O	1.579190	0.229852	0.484908
Zn8	Zn	1.398623	0.236534	0.478477
Zn9	Zn	1.444725	0.194532	0.190256
O10	O	1.395686	0.396331	0.441738
C11	C	1.201852	0.214509	0.282664
C12	C	1.068330	0.206616	0.251260
C13	C	0.990675	0.219610	0.350581
C14	C	0.852673	0.211452	0.318126
C15	C	1.429099	0.008344	0.336122
C16	C	1.425905	-0.117786	0.335370
C17	C	1.420036	-0.348716	0.333966
C18	C	1.423297	-0.220210	0.334746
C19	C	1.641496	0.216557	0.386066
C20	C	1.775019	0.224449	0.417462
C21	C	1.414249	0.422722	0.332608
C22	C	1.417444	0.548851	0.333352
N23	N	1.367168	0.265199	0.675183
N24	N	1.476189	0.165859	-0.006448
C25	C	1.433773	0.204498	0.758631
C26	C	1.409574	0.226568	0.910106
H27	H	0.816996	0.194283	0.209058
H28	H	1.334626	0.294876	0.950795
C29	C	1.577459	0.073604	0.938603
H30	H	1.580459	0.070887	0.844008
H31	H	1.560139	0.000573	0.957871
H32	H	1.654276	0.092461	0.980019
H33	H	0.810696	0.241611	0.526530
H34	H	1.032646	0.189447	0.142200
C35	C	1.265933	0.357479	0.730150
H36	H	1.262956	0.360212	0.824748
H37	H	1.189105	0.338666	0.688749
H38	H	1.283300	0.430501	0.710877
H39	H	1.508707	0.136186	0.717935
H40	H	1.026360	0.236769	0.459642
