data_functionalizedCrystal
_audit_creation_method	'MofGen! by Chris Wilmer'
_symmetry_space_group_name_H-M	'P1'
_symmetry_Int_Tables_number	1
_symmetry_cell_setting	triclinic
loop_
_symmetry_equiv_pos_as_xyz
  x,y,z
_cell_length_a	14.519731
_cell_length_b	14.519709
_cell_length_c	11.804365
_cell_angle_alpha	101.851959
_cell_angle_beta	78.128556
_cell_angle_gamma	83.684499
loop_
_atom_site_label
_atom_site_type_symbol
_atom_site_fract_x
_atom_site_fract_y
_atom_site_fract_z
O1	O	1.242457	0.102395	-0.099032
O2	O	1.575790	0.435729	0.234302
O3	O	1.909123	0.769062	0.567635
O4	O	0.973983	0.116611	-0.099034
O5	O	1.307316	0.449944	0.234300
O6	O	1.640650	0.783277	0.567633
O7	O	1.115336	-0.024733	-0.099022
O8	O	1.448669	0.308600	0.234312
O9	O	1.782003	0.641934	0.567645
O10	O	1.101104	0.243739	-0.099043
O11	O	1.434437	0.577072	0.234290
O12	O	1.767770	0.910406	0.567623
O13	O	1.078123	0.012440	0.099031
O14	O	1.411456	0.345773	0.432364
O15	O	1.744790	0.679107	0.765698
O16	O	0.936770	0.153784	0.099019
O17	O	1.270103	0.487117	0.432353
O18	O	1.603437	0.820450	0.765686
O19	O	1.205244	0.139568	0.099021
O20	O	1.538577	0.472901	0.432355
O21	O	1.871910	0.806235	0.765688
Cu22	Cu	1.067609	0.150070	0.117104
Cu23	Cu	1.400942	0.483403	0.450437
Cu24	Cu	1.734276	0.816737	0.783771
Cu25	Cu	1.111618	0.106109	-0.117116
Cu26	Cu	1.444951	0.439442	0.216217
Cu27	Cu	1.778284	0.772776	0.549550
O28	O	1.063891	0.280912	0.099009
O29	O	1.397224	0.614245	0.432343
O30	O	1.730557	0.947578	0.765676
C31	C	0.921017	0.134531	-0.000007
C32	C	1.254350	0.467864	0.333326
C33	C	1.587684	0.801198	0.666659
C34	C	0.818637	0.132535	-0.000008
C35	C	1.151970	0.465868	0.333325
C36	C	1.485304	0.799202	0.666659
C37	C	1.096066	-0.040506	0.000005
C38	C	1.429399	0.292827	0.333338
C39	C	1.762733	0.626160	0.666671
C40	C	1.094078	-0.142888	0.000005
C41	C	1.427411	0.190446	0.333339
C42	C	1.760744	0.523779	0.666672
C43	C	0.735494	0.130912	-0.000013
C44	C	1.068827	0.464246	0.333321
C45	C	1.402160	0.797579	0.666654
C46	C	0.631185	0.128886	-0.000013
C47	C	0.964518	0.462219	0.333320
C48	C	1.297852	0.795552	0.666654
C49	C	0.548046	0.127277	-0.000013
C50	C	0.881379	0.460610	0.333321
C51	C	1.214712	0.793944	0.666654
C52	C	0.443731	0.125250	-0.000015
C53	C	0.777064	0.458584	0.333318
C54	C	1.110398	0.791917	0.666652
C55	C	1.086764	-0.517790	-0.000026
C56	C	1.420097	-0.184456	0.333308
C57	C	1.753431	0.148877	0.666641
C58	C	1.088795	-0.413480	-0.000017
C59	C	1.422128	-0.080147	0.333317
C60	C	1.755462	0.253187	0.666650
C61	C	1.090420	-0.330342	-0.000009
C62	C	1.423754	0.002992	0.333324
C63	C	1.757087	0.336325	0.666658
C64	C	1.092452	-0.226026	-0.000002
C65	C	1.425786	0.107308	0.333331
C66	C	1.759119	0.440641	0.666665
C67	C	1.258210	0.121647	-0.000008
C68	C	1.591543	0.454981	0.333326
C69	C	1.924877	0.788314	0.666659
C70	C	1.360592	0.123642	-0.000015
C71	C	1.693925	0.456975	0.333318
C72	C	2.027258	0.790309	0.666652
C73	C	1.083161	0.296685	-0.000020
C74	C	1.416495	0.630018	0.333314
C75	C	1.749828	0.963351	0.666647
C76	C	1.085151	0.399064	-0.000028
C77	C	1.418484	0.732398	0.333305
C78	C	1.751818	1.065731	0.666638
N79	N	1.036662	0.180989	0.281842
N80	N	1.369996	0.514323	0.615175
N81	N	1.703329	0.847656	0.948509
N82	N	1.142571	0.075182	-0.281854
N83	N	1.475905	0.408516	0.051479
N84	N	1.809238	0.741849	0.384812
C85	C	1.216885	0.000916	0.655806
C86	C	1.550219	0.334249	0.989139
C87	C	1.883552	0.667582	1.322473
C88	C	1.240295	-0.022479	0.531146
C89	C	1.573629	0.310855	0.864479
C90	C	1.906962	0.644188	1.197813
C91	C	1.189389	0.028386	0.468814
C92	C	1.522722	0.361719	0.802147
C93	C	1.856056	0.695053	1.135481
C94	C	1.115069	0.102650	0.531154
C95	C	1.448402	0.435983	0.864487
C96	C	1.781736	0.769316	1.197820
C97	C	1.091662	0.126051	0.655826
C98	C	1.424995	0.459385	0.989159
C99	C	1.758328	0.792718	1.322492
C100	C	1.064165	0.153522	0.468834
C101	C	1.397498	0.486855	0.802167
C102	C	1.730832	0.820188	1.135501
C103	C	0.989845	0.227785	0.531174
C104	C	1.323178	0.561119	0.864507
C105	C	1.656512	0.894452	1.197840
C106	C	0.966441	0.251183	0.655833
C107	C	1.299774	0.584516	0.989167
C108	C	1.633108	0.917849	1.322500
C109	C	1.017348	0.200318	0.718166
C110	C	1.350681	0.533651	1.051499
C111	C	1.684014	0.866985	1.384832
C112	C	1.087572	0.130120	0.344162
C113	C	1.420906	0.463454	0.677495
C114	C	1.754239	0.796787	1.010829
C115	C	0.962349	0.255256	0.344182
C116	C	1.295682	0.588589	0.677515
C117	C	1.629015	0.921923	1.010848
C118	C	0.938939	0.278650	0.468842
C119	C	1.272272	0.611984	0.802175
C120	C	1.605605	0.945317	1.135508
H121	H	1.148084	0.069655	0.293416
H122	H	1.481417	0.402988	0.626749
H123	H	1.814751	0.736322	0.960083
H124	H	1.258332	-0.040487	0.706565
H125	H	1.591665	0.292846	1.039898
H126	H	1.924998	0.626179	1.373231
H127	H	0.998285	0.219363	0.819674
H128	H	1.331618	0.552696	1.153007
H129	H	1.664952	0.886029	1.486340
H130	H	0.920897	0.296677	0.293432
H131	H	1.254231	0.630010	0.626765
H132	H	1.587564	0.963343	0.960099
H133	H	1.208453	0.009335	0.367310
H134	H	1.541786	0.342668	0.700644
H135	H	1.875119	0.676002	1.033977
H136	H	0.878426	0.339118	0.519614
H137	H	1.211759	0.672451	0.852947
H138	H	1.545092	1.005785	1.186281
H139	H	1.300807	-0.082942	0.480394
H140	H	1.634140	0.250391	0.813727
H141	H	1.967473	0.583724	1.147060
H142	H	0.905933	0.311659	0.706591
H143	H	1.239266	0.644993	1.039924
H144	H	1.572599	0.978326	1.373257
