data_functionalizedCrystal
_audit_creation_method	'MofGen! by Chris Wilmer'
_symmetry_space_group_name_H-M	'P1'
_symmetry_Int_Tables_number	1
_symmetry_cell_setting	triclinic
loop_
_symmetry_equiv_pos_as_xyz
  x,y,z
_cell_length_a	17.640112
_cell_length_b	16.625546
_cell_length_c	16.625539
_cell_angle_alpha	89.971468
_cell_angle_beta	101.178335
_cell_angle_gamma	101.247770
loop_
_atom_site_label
_atom_site_type_symbol
_atom_site_fract_x
_atom_site_fract_y
_atom_site_fract_z
Zn1	Zn	1.208323	-0.071554	-0.207110
Zn2	Zn	1.708323	0.428446	0.292890
Zn3	Zn	1.208236	-0.206410	-0.072290
Zn4	Zn	1.708236	0.293590	0.427710
Zn5	Zn	1.076154	-0.098864	-0.099504
Zn6	Zn	1.576154	0.401136	0.400496
Zn7	Zn	1.076117	-0.233642	-0.234283
Zn8	Zn	1.576117	0.266358	0.265717
O9	O	1.142208	-0.152618	-0.153297
O10	O	1.642208	0.347382	0.346703
O11	O	1.318917	-0.066617	-0.166465
O12	O	1.818917	0.433383	0.333535
O13	O	1.190695	-0.192177	0.036928
O14	O	1.690695	0.307823	0.536928
O15	O	1.093739	0.017602	-0.113795
O16	O	1.593739	0.517602	0.386205
O17	O	1.318853	-0.165695	-0.067414
O18	O	1.818853	0.334305	0.432586
O19	O	1.190842	0.037667	-0.192853
O20	O	1.690842	0.537667	0.307147
O21	O	1.093655	-0.113163	0.016934
O22	O	1.593655	0.386837	0.516934
O23	O	0.965544	-0.139569	-0.140143
O24	O	1.465544	0.360431	0.359857
O25	O	1.093675	-0.212108	-0.343507
O26	O	1.593675	0.287892	0.156493
O27	O	0.965517	-0.238590	-0.239165
O28	O	1.465517	0.261410	0.260835
O29	O	1.190806	-0.093022	-0.323543
O30	O	1.690806	0.406978	0.176457
O31	O	1.190659	-0.322866	-0.093762
O32	O	1.690659	0.177134	0.406238
O33	O	1.093591	-0.342873	-0.212777
O34	O	1.593591	0.157127	0.287223
C35	C	0.936852	-0.194998	-0.195556
C36	C	1.436852	0.305002	0.304444
C37	C	0.848999	-0.213149	-0.213654
C38	C	1.348999	0.286851	0.286346
C39	C	1.142133	-0.362124	-0.153278
C40	C	1.642133	0.137876	0.346722
C41	C	1.142173	-0.451737	-0.153283
C42	C	1.642173	0.048263	0.346717
C43	C	0.560026	-0.014719	-0.015816
C44	C	1.060026	0.485281	0.484184
C45	C	0.477475	-0.031790	-0.032833
C46	C	0.977475	0.468210	0.467167
C47	C	0.477501	-0.135043	-0.135767
C48	C	0.977501	0.364957	0.364233
C49	C	0.560054	-0.117977	-0.118761
C50	C	1.060054	0.382023	0.381239
C51	C	0.601309	-0.057815	-0.058785
C52	C	1.101309	0.442185	0.441215
C53	C	0.601337	-0.161074	-0.161730
C54	C	1.101337	0.338926	0.338270
C55	C	0.683882	-0.144012	-0.144723
C56	C	1.183882	0.355988	0.355277
C57	C	0.725144	-0.083855	-0.084747
C58	C	1.225144	0.416145	0.415253
C59	C	0.683854	-0.040754	-0.041778
C60	C	1.183854	0.459246	0.458222
C61	C	0.560080	-0.221239	-0.221702
C62	C	1.060080	0.278761	0.278298
C63	C	0.601363	-0.264336	-0.264670
C64	C	1.101363	0.235664	0.235330
C65	C	0.683910	-0.247271	-0.247668
C66	C	1.183910	0.252729	0.252332
C67	C	0.725171	-0.187113	-0.187692
C68	C	1.225171	0.312887	0.312308
C69	C	0.725199	-0.290372	-0.290637
C70	C	1.225199	0.209628	0.209363
C71	C	0.807744	-0.273310	-0.273630
C72	C	1.307744	0.226690	0.226370
C73	C	0.807716	-0.170052	-0.170685
C74	C	1.307716	0.329948	0.329315
C75	C	1.142311	-0.779884	-0.153338
C76	C	1.642311	-0.279884	0.346662
C77	C	1.142270	-0.688584	-0.153325
C78	C	1.642270	-0.188584	0.346675
C79	C	1.142242	-0.615813	-0.153310
C80	C	1.642242	-0.115813	0.346690
C81	C	1.142202	-0.524507	-0.153298
C82	C	1.642202	-0.024507	0.346702
C83	C	1.348366	-0.110072	-0.110873
C84	C	1.848366	0.389928	0.389127
C85	C	1.436218	-0.091941	-0.092795
C86	C	1.936218	0.408059	0.407205
C87	C	1.142246	-0.152556	-0.363598
C88	C	1.642246	0.347444	0.136402
C89	C	1.142263	-0.152530	-0.453216
C90	C	1.642263	0.347470	0.046784
C91	C	1.142304	0.057711	-0.153328
C92	C	1.642304	0.557711	0.346672
C93	C	1.142346	0.147341	-0.153342
C94	C	1.642346	0.647341	0.346658
C95	C	1.142276	-0.152510	-0.525995
C96	C	1.642276	0.347490	-0.025995
C97	C	1.142294	-0.152476	-0.617300
C98	C	1.642294	0.347524	-0.117300
C99	C	1.142313	-0.152444	-0.690073
C100	C	1.642313	0.347556	-0.190073
C101	C	1.142333	-0.152410	-0.781383
C102	C	1.642333	0.347590	-0.281383
C103	C	1.142215	-0.152611	0.056195
C104	C	1.642215	0.347389	0.556195
C105	C	1.142351	-0.152378	0.145844
C106	C	1.642351	0.347622	0.645844
H107	H	0.841309	-0.121050	-0.121858
H108	H	1.341309	0.378950	0.378142
H109	H	0.717447	0.008248	0.007049
H110	H	1.217447	0.508248	0.507049
Cl111	Cl	0.611897	0.060920	0.059579
Cl112	Cl	1.111897	0.560920	0.559579
Cl113	Cl	0.673325	-0.366016	-0.366017
Cl114	Cl	1.173325	0.133984	0.133983
H115	H	0.567761	-0.313322	-0.313501
H116	H	1.067761	0.186678	0.186499
Cl117	Cl	0.828916	-0.062409	-0.063361
Cl118	Cl	1.328916	0.437591	0.436639
Cl119	Cl	0.425579	0.022390	0.021198
Cl120	Cl	0.925579	0.522390	0.521198
Cl121	Cl	0.859647	-0.327491	-0.327646
Cl122	Cl	1.359647	0.172509	0.172354
H123	H	0.443900	-0.184029	-0.184597
H124	H	0.943900	0.315971	0.315403
H125	H	0.492866	-0.235129	-0.235547
H126	H	0.992866	0.264871	0.264453
