data_functionalizedCrystal
_audit_creation_method	'MofGen! by Chris Wilmer'
_symmetry_space_group_name_H-M	'P1'
_symmetry_Int_Tables_number	1
_symmetry_cell_setting	triclinic
loop_
_symmetry_equiv_pos_as_xyz
  x,y,z
_cell_length_a	13.262402
_cell_length_b	13.339070
_cell_length_c	11.804365
_cell_angle_alpha	105.112168
_cell_angle_beta	93.583660
_cell_angle_gamma	99.431904
loop_
_atom_site_label
_atom_site_type_symbol
_atom_site_fract_x
_atom_site_fract_y
_atom_site_fract_z
O1	O	1.378769	0.207921	0.347569
O2	O	1.091846	0.203639	0.254631
O3	O	1.202377	0.056178	0.290437
O4	O	1.268237	0.355383	0.311763
O5	O	1.173267	0.094957	0.479063
O6	O	1.062735	0.242418	0.443257
O7	O	1.349659	0.246700	0.536195
Cu8	Cu	1.203539	0.248100	0.506949
Cu9	Cu	1.237965	0.202240	0.283877
O10	O	1.239127	0.394162	0.500389
C11	C	1.039817	0.219701	0.336806
C12	C	0.928155	0.209772	0.300637
C13	C	0.891564	0.183967	0.180821
C14	C	0.786653	0.174649	0.146841
C15	C	0.718322	0.191127	0.232673
C16	C	0.754913	0.216925	0.352490
C17	C	0.859835	0.226252	0.386474
C18	C	0.686594	0.233412	0.438326
C19	C	0.723184	0.259210	0.558143
C20	C	0.828096	0.268535	0.592121
C21	C	0.896426	0.252057	0.506290
C22	C	0.581671	0.224085	0.404342
C23	C	0.549943	0.266370	0.609995
C24	C	0.654853	0.275688	0.643975
C25	C	1.176698	0.037088	0.381145
C26	C	1.143538	-0.077571	0.370399
C27	C	1.401377	-0.424046	0.453918
C28	C	1.432535	-0.316317	0.464021
C29	C	1.360288	-0.256626	0.440616
C30	C	1.256879	-0.304673	0.407107
C31	C	1.225717	-0.412410	0.397011
C32	C	1.184627	-0.244990	0.383710
C33	C	1.081218	-0.293037	0.350200
C34	C	1.050061	-0.400764	0.340105
C35	C	1.122308	-0.460456	0.363510
C36	C	1.215790	-0.137252	0.393805
C37	C	1.040129	-0.125617	0.336899
C38	C	1.008971	-0.233345	0.326795
C39	C	1.401688	0.230638	0.454018
C40	C	1.513351	0.240565	0.490179
C41	C	1.264807	0.413251	0.409679
C42	C	1.297969	0.527909	0.420417
N43	N	1.179333	0.280356	0.663848
N44	N	1.262177	0.169976	0.126980
C45	C	1.320301	0.092498	1.083463
C46	C	1.338610	0.068093	0.964732
C47	C	1.298792	0.121156	0.889506
C48	C	1.240662	0.198630	0.933021
C49	C	1.222357	0.223044	1.051765
C50	C	1.200849	0.251702	0.857808
C51	C	1.142718	0.329176	0.901323
C52	C	1.124416	0.353586	1.020055
C53	C	1.164234	0.300522	1.095282
C54	C	1.219153	0.227288	0.739063
C55	C	1.121210	0.357834	0.707365
C56	C	1.102900	0.382239	0.826096
H57	H	0.756869	0.153645	0.049286
H58	H	0.947207	0.170562	0.110951
H59	H	0.632900	0.183539	0.204999
H60	H	1.385940	0.005015	0.929307
H61	H	0.684660	0.296695	0.741532
H62	H	1.096945	-0.548179	0.355281
H63	H	0.494307	0.279791	0.679887
H64	H	1.266483	0.164209	0.703645
H65	H	0.981854	0.259636	0.533950
H66	H	1.299986	-0.098143	0.421089
H67	H	0.857885	0.289552	0.689685
H68	H	1.385663	-0.168908	0.448845
H69	H	0.981298	-0.077014	0.317846
H70	H	1.313703	0.101281	0.792831
H71	H	1.077092	0.416677	1.055487
H72	H	1.516730	-0.277205	0.491306
H73	H	0.551891	0.203081	0.306786
H74	H	1.460188	-0.472654	0.472980
H75	H	0.965857	-0.439879	0.312828
H76	H	1.352722	0.049307	1.144721
H77	H	0.924773	-0.272480	0.299512
H78	H	1.149323	0.320390	1.191962
H79	H	1.055569	0.445321	0.861541
H80	H	1.088788	0.401045	0.646116
