data_functionalizedCrystal
_audit_creation_method	'MofGen! by Chris Wilmer'
_symmetry_space_group_name_H-M	'P1'
_symmetry_Int_Tables_number	1
_symmetry_cell_setting	triclinic
loop_
_symmetry_equiv_pos_as_xyz
  x,y,z
_cell_length_a	14.971491
_cell_length_b	12.837938
_cell_length_c	14.048226
_cell_angle_alpha	89.995851
_cell_angle_beta	90.003182
_cell_angle_gamma	90.777563
loop_
_atom_site_label
_atom_site_type_symbol
_atom_site_fract_x
_atom_site_fract_y
_atom_site_fract_z
O1	O	1.198330	-0.135133	0.079196
O2	O	1.698330	0.364867	0.579196
O3	O	0.939294	-0.151307	0.079188
O4	O	1.439294	0.348693	0.579188
O5	O	1.063069	0.007690	0.079192
O6	O	1.563069	0.507690	0.579192
O7	O	1.074556	-0.294130	0.079191
O8	O	1.574556	0.205870	0.579191
O9	O	1.063065	0.007703	-0.079129
O10	O	1.563065	0.507703	0.420871
O11	O	0.939290	-0.151294	-0.079133
O12	O	1.439290	0.348706	0.420867
O13	O	1.198326	-0.135120	-0.079126
O14	O	1.698326	0.364880	0.420874
Zn15	Zn	1.068807	-0.143205	-0.104266
Zn16	Zn	1.568807	0.356795	0.395734
Zn17	Zn	1.068813	-0.143222	0.104329
Zn18	Zn	1.568813	0.356778	0.604329
O19	O	1.074552	-0.294117	-0.079130
O20	O	1.574552	0.205883	0.420870
C21	C	0.905906	-0.150576	0.000026
C22	C	1.405906	0.349424	0.500026
C23	C	0.806427	-0.148405	0.000024
C24	C	1.306427	0.351595	0.500024
C25	C	0.377934	-0.139047	0.086347
C26	C	0.877934	0.360953	0.586347
C27	C	0.471406	-0.141083	0.086343
C28	C	0.971406	0.358917	0.586343
C29	C	0.518136	-0.142101	0.000039
C30	C	1.018136	0.357899	0.500039
C31	C	0.471389	-0.141072	-0.086268
C32	C	0.971389	0.358928	0.413732
C33	C	0.377919	-0.139028	-0.086263
C34	C	0.877919	0.360972	0.413737
C35	C	0.666210	-0.145334	-0.086271
C36	C	1.166210	0.354666	0.413729
C37	C	0.759687	-0.147380	-0.086276
C38	C	1.259687	0.352620	0.413724
C39	C	0.759697	-0.147389	0.086335
C40	C	1.259697	0.352611	0.586335
C41	C	0.666227	-0.145345	0.086340
C42	C	1.166227	0.354655	0.586340
C43	C	0.619487	-0.144318	0.000033
C44	C	1.119487	0.355682	0.500033
C45	C	1.059186	0.046322	0.000033
C46	C	1.559186	0.546322	0.500033
C47	C	1.047612	0.161414	0.000040
C48	C	1.547612	0.661414	0.500040
C49	C	1.186755	0.402197	0.000073
C50	C	1.686755	0.902197	0.500073
C51	C	1.175884	0.510336	0.000079
C52	C	1.675884	1.010336	0.500079
C53	C	1.015001	0.485835	0.000064
C54	C	1.515001	0.985835	0.500064
C55	C	1.025872	0.377695	0.000058
C56	C	1.525872	0.877695	0.500058
C57	C	1.111751	0.335881	0.000061
C58	C	1.611751	0.835881	0.500061
C59	C	1.122621	0.227739	0.000049
C60	C	1.622621	0.727739	0.500049
C61	C	0.961739	0.203239	0.000040
C62	C	1.461739	0.703239	0.500040
C63	C	0.950868	0.311379	0.000046
C64	C	1.450868	0.811379	0.500046
C65	C	1.231714	-0.135851	0.000038
C66	C	1.731714	0.364149	0.500038
C67	C	1.331194	-0.138021	0.000047
C68	C	1.831194	0.361979	0.500047
C69	C	1.078435	0.667251	0.000041
C70	C	1.578435	1.167251	0.500041
C71	C	1.090010	0.552160	0.000073
C72	C	1.590010	1.052160	0.500073
N73	N	1.068816	-0.143226	0.246689
N74	N	1.568816	0.356774	0.746689
N75	N	1.068810	-0.143192	-0.246627
N76	N	1.568810	0.356808	0.253373
C77	C	1.123749	-0.072961	0.296509
C78	C	1.623749	0.427039	0.796509
C79	C	1.123752	-0.072958	0.396167
C80	C	1.623752	0.427042	0.896167
C81	C	1.068818	-0.143215	0.446003
C82	C	1.568818	0.356785	0.946003
C83	C	1.013883	-0.213488	0.396176
C84	C	1.513883	0.286512	0.896176
C85	C	1.013885	-0.213496	0.296520
C86	C	1.513885	0.286504	0.796520
C87	C	1.013881	-0.213466	0.603890
C88	C	1.513881	0.286534	1.103890
C89	C	1.013878	-0.213457	0.703553
C90	C	1.513878	0.286543	1.203553
C91	C	1.123748	-0.072928	0.703537
C92	C	1.623748	0.427072	1.203537
C93	C	1.123750	-0.072936	0.603881
C94	C	1.623750	0.427064	1.103881
C95	C	1.068814	-0.143207	0.554061
C96	C	1.568814	0.356793	1.054061
H97	H	0.509457	-0.141912	0.156617
H98	H	1.009457	0.358088	0.656617
Br99	Br	0.823106	-0.148755	-0.203404
Br100	Br	1.323106	0.351245	0.296596
Br101	Br	1.198300	0.022402	0.228885
Br102	Br	1.698300	0.522402	0.728885
H103	H	0.339864	-0.138204	-0.156537
H104	H	0.839864	0.361796	0.343463
Br105	Br	0.602807	-0.143977	0.203468
Br106	Br	1.102807	0.356023	0.703468
Br107	Br	0.834324	0.368137	0.000054
Br108	Br	1.334324	0.868137	0.500054
H109	H	1.236960	0.564328	0.000092
H110	H	1.736960	1.064328	0.500092
H111	H	0.969150	-0.270692	0.563330
H112	H	1.469150	0.229308	1.063330
Br113	Br	0.602778	-0.143924	-0.203403
Br114	Br	1.102778	0.356076	0.296597
H115	H	0.797757	-0.148227	0.156609
H116	H	1.297757	0.351773	0.656609
Br117	Br	1.303301	0.345443	0.000048
Br118	Br	1.803301	0.845443	0.500048
H119	H	0.339893	-0.138226	0.156626
H120	H	0.839893	0.361774	0.656626
Br121	Br	0.534807	-0.142448	-0.203397
Br122	Br	1.034807	0.357552	0.296603
H123	H	0.969155	-0.270714	0.255958
H124	H	1.469155	0.229286	0.755958
Br125	Br	0.859942	0.113232	0.000007
Br126	Br	1.359942	0.613232	0.500007
H127	H	1.192548	0.193696	0.000048
H128	H	1.692548	0.693696	0.500048
Br129	Br	0.898460	0.542602	0.000094
Br130	Br	1.398460	1.042602	0.500094
Br131	Br	1.198308	0.022399	0.463783
Br132	Br	1.698308	0.522399	0.963783
Br133	Br	1.198299	0.022443	0.771152
Br134	Br	1.698299	0.522443	1.271152
Br135	Br	1.198295	0.022422	0.536243
Br136	Br	1.698295	0.522422	1.036243
Br137	Br	0.939321	-0.308812	0.771180
Br138	Br	1.439321	0.191188	1.271180
Br139	Br	0.939334	-0.308848	0.463807
Br140	Br	1.439334	0.191152	0.963807
