data_functionalizedCrystal
_audit_creation_method	'MofGen! by Chris Wilmer'
_symmetry_space_group_name_H-M	'P1'
_symmetry_Int_Tables_number	1
_symmetry_cell_setting	triclinic
loop_
_symmetry_equiv_pos_as_xyz
  x,y,z
_cell_length_a	22.610064
_cell_length_b	19.288864
_cell_length_c	19.288865
_cell_angle_alpha	83.136245
_cell_angle_beta	89.998829
_cell_angle_gamma	89.977953
loop_
_atom_site_label
_atom_site_type_symbol
_atom_site_fract_x
_atom_site_fract_y
_atom_site_fract_z
O1	O	0.049381	-0.921353	-0.086638
O2	O	0.382714	-0.588020	0.246695
O3	O	0.716048	-0.254687	0.580028
O4	O	0.049341	-0.719093	-0.098327
O5	O	0.382675	-0.385759	0.235006
O6	O	0.716008	-0.052426	0.568340
O7	O	0.049351	-0.826067	0.008648
O8	O	0.382684	-0.492734	0.341981
O9	O	0.716017	-0.159401	0.675314
O10	O	0.049372	-0.814378	-0.193613
O11	O	0.382705	-0.481045	0.139720
O12	O	0.716038	-0.147712	0.473054
O13	O	-0.049019	-0.826048	0.008632
O14	O	0.284315	-0.492715	0.341965
O15	O	0.617648	-0.159382	0.675299
O16	O	-0.049028	-0.719074	-0.098343
O17	O	0.284306	-0.385740	0.234991
O18	O	0.617639	-0.052407	0.568324
O19	O	-0.048988	-0.921334	-0.086654
O20	O	0.284345	-0.588001	0.246680
O21	O	0.617678	-0.254668	0.580013
Zn22	Zn	-0.064626	-0.820201	-0.092501
Zn23	Zn	0.268707	-0.486868	0.240833
Zn24	Zn	0.602040	-0.153534	0.574166
Zn25	Zn	0.064979	-0.820226	-0.092480
Zn26	Zn	0.398313	-0.486893	0.240853
Zn27	Zn	0.731646	-0.153559	0.574187
O28	O	-0.048997	-0.814360	-0.193628
O29	O	0.284336	-0.481026	0.139705
O30	O	0.617669	-0.147693	0.473038
C31	C	0.000164	-0.825682	0.034516
C32	C	0.333498	-0.492348	0.367850
C33	C	0.666831	-0.159015	0.701183
C34	C	0.000159	-0.824553	0.111620
C35	C	0.333492	-0.491219	0.444953
C36	C	0.666825	-0.157886	0.778287
C37	C	0.000152	-0.693207	-0.097959
C38	C	0.333485	-0.359873	0.235375
C39	C	0.666818	-0.026540	0.568708
C40	C	0.000136	-0.616103	-0.096830
C41	C	0.333469	-0.282770	0.236504
C42	C	0.666803	0.050564	0.569837
N43	N	-0.153079	-0.820189	-0.092514
N44	N	0.180255	-0.486856	0.240819
N45	N	0.513588	-0.153522	0.574152
C46	C	-0.561716	-0.867596	-0.045119
C47	C	-0.228383	-0.534263	0.288214
C48	C	0.104951	-0.200930	0.621548
C49	C	-0.623636	-0.867600	-0.045114
C50	C	-0.290303	-0.534267	0.288219
C51	C	0.043031	-0.200933	0.621553
O52	O	-0.655651	-0.907878	-0.004827
O53	O	-0.322318	-0.574544	0.328506
O54	O	0.011015	-0.241211	0.661840
N55	N	-0.654616	-0.820225	-0.092466
N56	N	-0.321283	-0.486892	0.240868
N57	N	0.012051	-0.153559	0.574201
C58	C	-0.623673	-0.772839	-0.139821
C59	C	-0.290339	-0.439506	0.193512
C60	C	0.042994	-0.106173	0.526846
O61	O	-0.655709	-0.732544	-0.180096
O62	O	-0.322376	-0.399210	0.153237
O63	O	0.010957	-0.065877	0.486570
C64	C	-0.561754	-0.772833	-0.139822
C65	C	-0.228421	-0.439500	0.193511
C66	C	0.104913	-0.106166	0.526845
C67	C	-0.530777	-0.820215	-0.092472
C68	C	-0.197444	-0.486882	0.240861
C69	C	0.135890	-0.153549	0.574195
C70	C	-0.530739	-0.914974	0.002228
C71	C	-0.197406	-0.581641	0.335561
C72	C	0.135927	-0.248308	0.668895
C73	C	-0.468824	-0.914971	0.002222
C74	C	-0.135490	-0.581638	0.335555
C75	C	0.197843	-0.248305	0.668888
C76	C	-0.437885	-0.867591	-0.045131
C77	C	-0.104551	-0.534257	0.288202
C78	C	0.228782	-0.200924	0.621536
C79	C	-0.468861	-0.820213	-0.092478
C80	C	-0.135528	-0.486879	0.240855
C81	C	0.197805	-0.153546	0.574189
C82	C	-0.530812	-0.725444	-0.187173
C83	C	-0.197478	-0.392111	0.146160
C84	C	0.135855	-0.058778	0.479493
C85	C	-0.468889	-0.725442	-0.187170
C86	C	-0.135555	-0.392108	0.146163
C87	C	0.197778	-0.058775	0.479497
C88	C	-0.437912	-0.772824	-0.139820
C89	C	-0.104579	-0.439491	0.193513
C90	C	0.228755	-0.106158	0.526847
C91	C	-0.376007	-0.772829	-0.139837
C92	C	-0.042674	-0.439495	0.193496
C93	C	0.290660	-0.106162	0.526830
N94	N	-0.345027	-0.820203	-0.092485
N95	N	-0.011694	-0.486870	0.240848
N96	N	0.321640	-0.153537	0.574181
C97	C	-0.375966	-0.867584	-0.045132
C98	C	-0.042633	-0.534251	0.288201
C99	C	0.290701	-0.200918	0.621534
C100	C	-0.753706	-0.772855	-0.139814
C101	C	-0.420373	-0.439522	0.193519
C102	C	-0.087040	-0.106189	0.526853
C103	C	-0.815624	-0.772865	-0.139817
C104	C	-0.482291	-0.439531	0.193517
C105	C	-0.148957	-0.106198	0.526850
C106	C	-0.815583	-0.867624	-0.045109
C107	C	-0.482250	-0.534291	0.288225
C108	C	-0.148916	-0.200958	0.621558
C109	C	-0.753664	-0.867618	-0.045110
C110	C	-0.420331	-0.534285	0.288224
C111	C	-0.086997	-0.200951	0.621557
C112	C	-0.722726	-0.820230	-0.092462
C113	C	-0.389393	-0.486897	0.240871
C114	C	-0.056060	-0.153563	0.574204
C115	C	-0.245939	-0.867575	-0.045149
C116	C	0.087395	-0.534242	0.288184
C117	C	0.420728	-0.200908	0.621518
C118	C	-0.184018	-0.867570	-0.045161
C119	C	0.149316	-0.534237	0.288172
C120	C	0.482649	-0.200903	0.621505
C121	C	-0.184064	-0.772808	-0.139867
C122	C	0.149269	-0.439475	0.193467
C123	C	0.482603	-0.106141	0.526800
C124	C	-0.245980	-0.772815	-0.139857
C125	C	0.087354	-0.439482	0.193476
C126	C	0.420687	-0.106149	0.526810
C127	C	-0.276915	-0.820201	-0.092493
C128	C	0.056418	-0.486868	0.240841
C129	C	0.389751	-0.153535	0.574174
O130	O	-0.343952	-0.732570	-0.180101
O131	O	-0.010619	-0.399236	0.153232
O132	O	0.322714	-0.065903	0.486565
O133	O	-0.343922	-0.907867	-0.004857
O134	O	-0.010589	-0.574534	0.328476
O135	O	0.322745	-0.241201	0.661809
N136	N	0.153432	-0.820243	-0.092461
N137	N	0.486765	-0.486910	0.240872
N138	N	0.820099	-0.153577	0.574206
C139	C	0.000203	-0.947220	-0.087022
C140	C	0.333536	-0.613887	0.246311
C141	C	0.666870	-0.280554	0.579645
C142	C	0.000222	-1.024324	-0.088151
C143	C	0.333556	-0.690990	0.245182
C144	C	0.666889	-0.357657	0.578516
C145	C	0.000152	-0.571407	-0.159598
C146	C	0.333485	-0.238073	0.173736
C147	C	0.666819	0.095260	0.507069
C148	C	0.000158	-0.498960	-0.158537
C149	C	0.333492	-0.165626	0.174796
C150	C	0.666825	0.167707	0.508130
C151	C	0.000161	-0.471212	-0.094705
C152	C	0.333494	-0.137879	0.238629
C153	C	0.666827	0.195455	0.571962
C154	C	0.000142	-0.515918	-0.031929
C155	C	0.333475	-0.182585	0.301405
C156	C	0.666808	0.150748	0.634738
C157	C	0.000129	-0.588364	-0.032991
C158	C	0.333462	-0.255030	0.300342
C159	C	0.666796	0.078303	0.633676
C160	C	0.034638	-0.362957	-0.044520
C161	C	0.367972	-0.029623	0.288813
C162	C	0.701305	0.303710	0.622147
C163	C	0.034654	-0.290512	-0.043460
C164	C	0.367988	0.042821	0.289873
C165	C	0.701321	0.376154	0.623206
C166	C	0.000196	-0.247767	-0.091425
C167	C	0.333530	0.085567	0.241908
C168	C	0.666863	0.418900	0.575242
C169	C	-0.034270	-0.277473	-0.140462
C170	C	0.299063	0.055861	0.192872
C171	C	0.632396	0.389194	0.526205
C172	C	-0.034283	-0.349918	-0.141524
C173	C	0.299050	-0.016585	0.191809
C174	C	0.632384	0.316749	0.525143
C175	C	0.000174	-0.392658	-0.093546
C176	C	0.333507	-0.059325	0.239788
C177	C	0.666840	0.274009	0.573121
C178	C	0.000218	-0.124514	-0.153047
C179	C	0.333551	0.208819	0.180286
C180	C	0.666885	0.542152	0.513619
C181	C	0.000221	-0.052066	-0.151984
C182	C	0.333554	0.281267	0.181350
C183	C	0.666888	0.614600	0.514683
C184	C	0.000210	-0.069026	-0.025374
C185	C	0.333543	0.264307	0.307960
C186	C	0.666877	0.597640	0.641293
C187	C	0.000201	-0.141473	-0.026439
C188	C	0.333535	0.191860	0.306894
C189	C	0.666868	0.525194	0.640228
C190	C	0.000208	-0.169212	-0.090277
C191	C	0.333542	0.164121	0.243056
C192	C	0.666875	0.497454	0.576389
C193	C	0.000190	-0.814745	-0.219497
C194	C	0.333524	-0.481412	0.113836
C195	C	0.666857	-0.148078	0.447170
C196	C	0.000200	-0.815874	-0.296601
C197	C	0.333533	-0.482541	0.036733
C198	C	0.666866	-0.149207	0.370066
C199	C	0.000168	-0.887321	0.156316
C200	C	0.333501	-0.553987	0.489650
C201	C	0.666835	-0.220654	0.822983
C202	C	0.000177	-0.886260	0.228763
C203	C	0.333511	-0.552927	0.562097
C204	C	0.666844	-0.219593	0.895430
C205	C	0.000165	-0.822428	0.256511
C206	C	0.333499	-0.489094	0.589844
C207	C	0.666832	-0.155761	0.923178
C208	C	0.000159	-0.759652	0.211805
C209	C	0.333492	-0.426318	0.545138
C210	C	0.666826	-0.092985	0.878471
C211	C	0.000156	-0.760714	0.139359
C212	C	0.333489	-0.427381	0.472693
C213	C	0.666823	-0.094047	0.806026
C214	C	-0.034301	-0.772242	0.364793
C215	C	0.299032	-0.438908	0.698126
C216	C	0.632365	-0.105575	1.031459
C217	C	-0.034302	-0.771182	0.437237
C218	C	0.299032	-0.437848	0.770571
C219	C	0.632365	-0.104515	1.103904
C220	C	0.000178	-0.819148	0.479956
C221	C	0.333511	-0.485815	0.813290
C222	C	0.666844	-0.152481	1.146623
C223	C	0.034650	-0.868186	0.450224
C224	C	0.367983	-0.534853	0.783557
C225	C	0.701317	-0.201519	1.116891
C226	C	0.034647	-0.869249	0.377778
C227	C	0.367980	-0.535915	0.711112
C228	C	0.701313	-0.202582	1.044445
C229	C	0.000169	-0.821269	0.335065
C230	C	0.333502	-0.487935	0.668398
C231	C	0.666836	-0.154602	1.001732
C232	C	0.000198	-0.880770	0.603209
C233	C	0.333531	-0.547437	0.936542
C234	C	0.666865	-0.214104	1.269875
C235	C	0.000211	-0.879707	0.675657
C236	C	0.333544	-0.546374	1.008990
C237	C	0.666877	-0.213040	1.342323
C238	C	0.000187	-0.753097	0.658697
C239	C	0.333520	-0.419763	0.992030
C240	C	0.666853	-0.086430	1.325363
C241	C	0.000180	-0.754162	0.586250
C242	C	0.333513	-0.420829	0.919583
C243	C	0.666846	-0.087495	1.252917
C244	C	0.000183	-0.818001	0.558511
C245	C	0.333516	-0.484667	0.891844
C246	C	0.666849	-0.151334	1.225178
H247	H	-0.158798	-0.906157	-0.006603
H248	H	0.174535	-0.572823	0.326730
H249	H	0.507869	-0.239490	0.660064
N250	N	0.000146	-0.485988	0.036916
N251	N	0.333479	-0.152654	0.370249
N252	N	0.666813	0.180679	0.703582
H253	H	0.036605	-0.502329	0.064414
H254	H	0.369939	-0.168995	0.397747
H255	H	0.703272	0.164338	0.731080
H256	H	-0.036350	-0.502280	0.064344
H257	H	0.296984	-0.168947	0.397677
H258	H	0.630317	0.164386	0.731011
H259	H	-0.443702	-0.686851	-0.225730
H260	H	-0.110369	-0.353517	0.107604
H261	H	0.222964	-0.020184	0.440937
N262	N	0.071804	-0.409059	0.007219
N263	N	0.405138	-0.075725	0.340552
N264	N	0.738471	0.257608	0.673885
H265	H	0.093644	-0.379248	0.038439
H266	H	0.426977	-0.045915	0.371772
H267	H	0.760310	0.287418	0.705105
H268	H	0.101238	-0.435714	-0.018778
H269	H	0.434571	-0.102380	0.314555
H270	H	0.767904	0.230953	0.647888
H271	H	0.062716	-0.909176	0.353573
H272	H	0.396050	-0.575842	0.686906
H273	H	0.729383	-0.242509	1.020240
H274	H	0.000117	-0.624756	0.018124
H275	H	0.333450	-0.291423	0.351457
H276	H	0.666783	0.041910	0.684790
N277	N	0.000175	-0.956176	0.126406
N278	N	0.333509	-0.622843	0.459739
N279	N	0.666842	-0.289510	0.793072
H280	H	0.036646	-0.983672	0.142722
H281	H	0.369980	-0.650339	0.476055
H282	H	0.703313	-0.317005	0.809388
H283	H	0.000150	-0.947275	0.073733
H284	H	0.333483	-0.613941	0.407067
H285	H	0.666816	-0.280608	0.740400
H286	H	-0.158864	-0.734233	-0.178423
H287	H	0.174469	-0.400900	0.154910
H288	H	0.507803	-0.067566	0.488244
N289	N	0.000156	-0.686460	0.538039
N290	N	0.333489	-0.353127	0.871372
N291	N	0.666823	-0.019794	1.204705
H292	H	0.000155	-0.696819	0.487935
H293	H	0.333489	-0.363485	0.821268
H294	H	0.666822	-0.030152	1.154602
H295	H	0.036617	-0.658636	0.546995
H296	H	0.369951	-0.325303	0.880328
H297	H	0.703284	0.008031	1.213662
N298	N	0.000151	-0.601315	-0.228454
N299	N	0.333484	-0.267982	0.104879
N300	N	0.666818	0.065351	0.438212
H301	H	-0.036320	-0.630967	-0.231727
H302	H	0.297013	-0.297634	0.101607
H303	H	0.630347	0.035699	0.434940
H304	H	0.036635	-0.630986	-0.231675
H305	H	0.369969	-0.297653	0.101659
H306	H	0.703302	0.035680	0.434992
N307	N	0.000184	-0.450738	-0.226237
N308	N	0.333517	-0.117404	0.107096
N309	N	0.666851	0.215929	0.440429
H310	H	-0.036274	-0.420273	-0.228630
H311	H	0.297059	-0.086940	0.104704
H312	H	0.630392	0.246393	0.438037
H313	H	0.000209	-0.479351	-0.266801
H314	H	0.333542	-0.146018	0.066533
H315	H	0.666876	0.187315	0.399866
H316	H	-0.062349	-0.374102	-0.181449
H317	H	0.270985	-0.040769	0.151884
H318	H	0.604318	0.292565	0.485218
H319	H	0.000203	-0.932751	0.580622
H320	H	0.333536	-0.599418	0.913956
H321	H	0.666870	-0.266085	1.247289
H322	H	-0.271201	-0.734239	-0.178421
H323	H	0.062132	-0.400906	0.154913
H324	H	0.395465	-0.067572	0.488246
N325	N	0.000217	-0.154434	-0.221900
N326	N	0.333551	0.178899	0.111433
N327	N	0.666884	0.512232	0.444767
H328	H	-0.036251	-0.184092	-0.225167
H329	H	0.297082	0.149242	0.108166
H330	H	0.630416	0.482575	0.441499
H331	H	0.036704	-0.184102	-0.225118
H332	H	0.370037	0.149232	0.108216
H333	H	0.703371	0.482565	0.441549
N334	N	-0.071436	-0.231379	-0.192204
N335	N	0.261897	0.101954	0.141129
N336	N	0.595230	0.435287	0.474463
H337	H	-0.066202	-0.180978	-0.184091
H338	H	0.267131	0.152355	0.149243
H339	H	0.600464	0.485689	0.482576
H340	H	-0.114426	-0.244885	-0.185904
H341	H	0.218908	0.088449	0.147429
H342	H	0.552241	0.421782	0.480762
H343	H	-0.840785	-0.906204	-0.006550
H344	H	-0.507451	-0.572870	0.326783
H345	H	-0.174118	-0.239537	0.660116
H346	H	0.000187	-0.937375	0.265162
H347	H	0.333521	-0.604041	0.598495
H348	H	0.666854	-0.270708	0.931829
H349	H	-0.271120	-0.906160	-0.006580
H350	H	0.062214	-0.572827	0.326754
H351	H	0.395547	-0.239494	0.660087
N352	N	0.000146	-0.693012	0.091146
N353	N	0.333480	-0.359679	0.424479
N354	N	0.666813	-0.026345	0.757812
H355	H	0.000142	-0.652411	0.119713
H356	H	0.333475	-0.319078	0.453047
H357	H	0.666809	0.014255	0.786380
H358	H	-0.036324	-0.690688	0.060723
H359	H	0.297010	-0.357354	0.394056
H360	H	0.630343	-0.024021	0.727389
H361	H	-0.443606	-0.953552	0.040780
H362	H	-0.110273	-0.620219	0.374114
H363	H	0.223061	-0.286886	0.707447
H364	H	0.000230	-0.015674	-0.203099
H365	H	0.333564	0.317659	0.130234
H366	H	0.666897	0.650992	0.463567
N367	N	0.000206	-0.039110	0.043476
N368	N	0.333539	0.294224	0.376809
N369	N	0.666873	0.627557	0.710142
H370	H	0.000214	0.013567	0.034626
H371	H	0.333548	0.346900	0.367959
H372	H	0.666881	0.680234	0.701292
H373	H	0.036667	-0.055499	0.070941
H374	H	0.370001	0.277834	0.404274
H375	H	0.703334	0.611167	0.737607
N376	N	0.000164	-0.684249	0.688616
N377	N	0.333497	-0.350915	1.021949
N378	N	0.666831	-0.017582	1.355283
H379	H	0.000153	-0.644645	0.649304
H380	H	0.333486	-0.311312	0.982637
H381	H	0.666820	0.022021	1.315971
H382	H	0.036630	-0.681052	0.718303
H383	H	0.369964	-0.347719	1.051637
H384	H	0.703297	-0.014385	1.384970
N385	N	0.000223	-0.947410	0.723869
N386	N	0.333557	-0.614076	1.057203
N387	N	0.666890	-0.280743	1.390536
H388	H	0.000223	-0.988009	0.695300
H389	H	0.333556	-0.654676	1.028634
H390	H	0.666889	-0.321343	1.361967
H391	H	-0.036241	-0.949713	0.754300
H392	H	0.297092	-0.616380	1.087633
H393	H	0.630426	-0.283047	1.420967
N394	N	0.000196	-0.189690	0.041259
N395	N	0.333529	0.143643	0.374592
N396	N	0.666862	0.476976	0.707925
H397	H	-0.036275	-0.220101	0.043634
H398	H	0.297058	0.113233	0.376967
H399	H	0.630392	0.446566	0.710301
H400	H	0.000222	-0.161076	0.081822
H401	H	0.333555	0.172257	0.415155
H402	H	0.666888	0.505590	0.748488
H403	H	-0.062368	-0.731249	0.461439
H404	H	0.270966	-0.397916	0.794773
H405	H	0.604299	-0.064582	1.128106
H406	H	-0.062382	-0.733180	0.330016
H407	H	0.270952	-0.399846	0.663349
H408	H	0.604285	-0.066513	0.996683
N409	N	0.000149	-0.690803	0.241727
N410	N	0.333483	-0.357470	0.575060
N411	N	0.666816	-0.024136	0.908394
H412	H	0.000151	-0.699654	0.294404
H413	H	0.333484	-0.366320	0.627737
H414	H	0.666818	-0.032987	0.961071
H415	H	-0.036322	-0.663337	0.225362
H416	H	0.297011	-0.330004	0.558695
H417	H	0.630345	0.003330	0.892029
H418	H	0.062727	-0.907245	0.485005
H419	H	0.396060	-0.573911	0.818338
H420	H	0.729393	-0.240578	1.151671
N421	N	-0.564103	-0.966093	0.053295
N422	N	-0.230770	-0.632760	0.386628
N423	N	0.102564	-0.299426	0.719962
H424	H	-0.535075	-0.996105	0.083280
H425	H	-0.201742	-0.662771	0.416613
H426	H	0.131592	-0.329438	0.749947
H427	H	-0.589773	-0.996714	0.026769
H428	H	-0.256439	-0.663381	0.360102
H429	H	0.076894	-0.330047	0.693436
H430	H	0.062722	-0.266331	-0.003535
H431	H	0.396055	0.067002	0.329799
H432	H	0.729388	0.400335	0.663132
H433	H	-0.728446	-0.906200	-0.006553
H434	H	-0.395113	-0.572867	0.326780
H435	H	-0.061780	-0.239534	0.660114
H436	H	-0.840841	-0.734289	-0.178381
H437	H	-0.507508	-0.400955	0.154953
H438	H	-0.174174	-0.067622	0.488286
H439	H	-0.728520	-0.734268	-0.178380
H440	H	-0.395186	-0.400935	0.154954
H441	H	-0.061853	-0.067601	0.488287
H442	H	-0.556024	-0.686861	-0.225730
H443	H	-0.222691	-0.353528	0.107604
H444	H	0.110642	-0.020194	0.440937
