data_functionalizedCrystal
_audit_creation_method	'MofGen! by Chris Wilmer'
_symmetry_space_group_name_H-M	'P1'
_symmetry_Int_Tables_number	1
_symmetry_cell_setting	triclinic
loop_
_symmetry_equiv_pos_as_xyz
  x,y,z
_cell_length_a	12.759401
_cell_length_b	12.759399
_cell_length_c	12.759393
_cell_angle_alpha	90.032031
_cell_angle_beta	89.983561
_cell_angle_gamma	89.982835
loop_
_atom_site_label
_atom_site_type_symbol
_atom_site_fract_x
_atom_site_fract_y
_atom_site_fract_z
Zn1	Zn	1.606252	0.418146	-0.593922
Zn2	Zn	1.606145	0.593865	-0.418241
Zn3	Zn	1.430554	0.418207	-0.418267
Zn4	Zn	1.430541	0.593790	-0.593888
O5	O	1.518373	0.506002	-0.506080
O6	O	1.753259	0.441462	-0.570620
O7	O	1.582813	0.570621	-0.271223
O8	O	1.453911	0.271178	-0.441594
O9	O	1.753180	0.570562	-0.441548
O10	O	1.582995	0.271133	-0.570646
O11	O	1.453807	0.441566	-0.271243
O12	O	1.283531	0.441493	-0.441561
O13	O	1.453889	0.570434	-0.740914
O14	O	1.283522	0.570493	-0.570589
O15	O	1.582983	0.441389	-0.740939
O16	O	1.582801	0.740876	-0.441516
O17	O	1.453785	0.740821	-0.570563
C18	C	1.245406	0.505992	-0.506075
C19	C	1.128629	0.506013	-0.506098
C20	C	1.518309	0.778970	-0.506056
C21	C	1.518377	0.895746	-0.506081
C22	C	1.518446	0.505896	-0.780113
C23	C	1.518478	0.505851	-0.896890
C24	C	1.792406	0.506014	-0.506085
C25	C	1.909183	0.506018	-0.506087
C26	C	2.073737	0.573228	-0.438895
C27	C	1.964013	0.573234	-0.438891
C28	C	1.964083	0.438800	-0.573298
C29	C	2.073805	0.438800	-0.573305
C30	C	1.814017	0.697154	-0.401324
C31	C	1.759121	0.764361	-0.334104
C32	C	1.794705	0.780532	-0.231589
C33	C	1.885182	0.729482	-0.196274
C34	C	1.940073	0.662268	-0.263488
C35	C	1.904491	0.646117	-0.366017
C36	C	2.223803	0.314878	-0.610863
C37	C	2.278695	0.247658	-0.678072
C38	C	2.243114	0.231476	-0.780588
C39	C	2.152632	0.282507	-0.815900
C40	C	2.097740	0.349728	-0.748691
C41	C	2.133329	0.365912	-0.646175
C42	C	1.518466	0.231969	-0.506127
C43	C	1.518506	0.115192	-0.506147
C44	C	1.585632	0.950602	-0.438962
C45	C	1.585700	1.060326	-0.438997
C46	C	1.451248	1.060329	-0.573273
C47	C	1.451187	0.950607	-0.573242
C48	C	1.709709	1.210201	-0.401602
C49	C	1.776955	1.265061	-0.334467
C50	C	1.793119	1.229522	-0.231956
C51	C	1.742023	1.139126	-0.196559
C52	C	1.674769	1.084272	-0.263689
C53	C	1.658625	1.119809	-0.366214
C54	C	1.327176	0.800730	-0.610626
C55	C	1.259916	0.745874	-0.677751
C56	C	1.243741	0.781411	-0.780264
C57	C	1.294819	0.871811	-0.815657
C58	C	1.362079	0.926666	-0.748532
C59	C	1.378256	0.891122	-0.646020
C60	C	1.451328	0.438639	-0.951762
C61	C	1.451353	0.438607	-1.061486
C62	C	1.585685	0.573000	-1.061457
C63	C	1.585654	0.573037	-0.951735
C64	C	1.327503	0.401011	-1.211443
C65	C	1.260363	0.333784	-1.266319
C66	C	1.244259	0.231280	-1.230731
C67	C	1.295311	0.195984	-1.140269
C68	C	1.362459	0.263206	-1.085399
C69	C	1.378542	0.365724	-1.120986
C70	C	1.709506	0.610622	-0.801775
C71	C	1.776660	0.677840	-0.746903
C72	C	1.792774	0.780345	-0.782489
C73	C	1.741741	0.815638	-0.872954
C74	C	1.674587	0.748420	-0.927826
C75	C	1.658471	0.645916	-0.892233
C76	C	1.518360	0.506032	-0.233112
C77	C	1.518533	0.505782	-0.116336
H78	H	2.118371	0.627960	-0.384172
H79	H	1.640344	0.905937	-0.384277
H80	H	2.252790	0.328060	-0.527389
H81	H	1.281649	0.900745	-0.899132
O82	O	1.171197	0.722247	-0.852669
H83	H	1.138392	0.653415	-0.810842
H84	H	1.340349	0.771781	-0.527154
H85	H	1.640379	0.627700	-1.106125
H86	H	1.914141	0.742646	-0.112792
O87	O	1.204822	0.648367	-0.639585
H88	H	1.227380	0.632858	-0.557028
H89	H	1.696564	1.239139	-0.485078
O90	O	1.904952	0.366302	-0.645779
H91	H	1.926044	0.283855	-0.627777
H92	H	1.685453	0.805924	-0.362867
H93	H	1.696362	0.527165	-0.772771
H94	H	1.818225	0.649091	-0.673249
H95	H	1.633170	1.010671	-0.234870
O96	O	1.205299	0.371856	-1.363882
H97	H	1.155917	0.307884	-1.396066
O98	O	1.344864	0.511578	-1.249820
H99	H	1.298098	0.524816	-1.321947
O100	O	2.000151	0.404773	-0.786782
H101	H	1.932588	0.381601	-0.737129
O102	O	1.759459	1.100794	-0.085988
H103	H	1.734678	1.162394	-0.029737
O104	O	2.037660	0.607215	-0.225419
H105	H	2.053188	0.629753	-0.142839
H106	H	1.785043	0.684004	-0.484803
O107	O	1.619524	0.786484	-1.025392
H108	H	1.641999	0.869060	-1.040917
H109	H	1.750003	0.835257	-0.176860
O110	O	1.832067	1.362552	-0.372650
H111	H	1.808931	1.430179	-0.323011
O112	O	2.376294	0.192629	-0.639982
H113	H	2.443844	0.215798	-0.689653
H114	H	1.754866	0.899104	-0.901933
H115	H	1.396629	0.383932	-0.907110
O116	O	1.417170	1.024169	-0.786713
H117	H	1.394040	1.091789	-0.737061
O118	O	2.114245	0.265048	-0.926471
H119	H	2.042100	0.311817	-0.939729
O120	O	2.302315	0.158973	-0.853085
H121	H	2.371211	0.126202	-0.811313
H122	H	1.847874	1.274196	-0.177295
O123	O	1.417523	0.225154	-0.987835
H124	H	1.395047	0.142580	-0.972303
H125	H	1.396542	1.105010	-0.627952
H126	H	1.847467	0.835069	-0.737808
H127	H	1.282203	0.112511	-1.111307
H128	H	1.189592	0.176543	-1.275418
