data_functionalizedCrystal
_audit_creation_method	'MofGen! by Chris Wilmer'
_symmetry_space_group_name_H-M	'P1'
_symmetry_Int_Tables_number	1
_symmetry_cell_setting	triclinic
loop_
_symmetry_equiv_pos_as_xyz
  x,y,z
_cell_length_a	19.188879
_cell_length_b	19.188930
_cell_length_c	14.472310
_cell_angle_alpha	89.973109
_cell_angle_beta	90.010885
_cell_angle_gamma	96.865574
loop_
_atom_site_label
_atom_site_type_symbol
_atom_site_fract_x
_atom_site_fract_y
_atom_site_fract_z
O1	O	-0.087165	0.926138	-0.077158
O2	O	0.412835	1.426138	0.422842
O3	O	-0.098899	0.722825	-0.077097
O4	O	0.401101	1.222825	0.422903
O5	O	0.008626	0.830367	-0.077100
O6	O	0.508626	1.330367	0.422900
O7	O	-0.194690	0.818596	-0.077155
O8	O	0.305310	1.318596	0.422845
O9	O	0.008620	0.830339	0.076582
O10	O	0.508620	1.330339	0.576582
O11	O	-0.098906	0.722797	0.076585
O12	O	0.401094	1.222797	0.576585
O13	O	-0.087171	0.926111	0.076524
O14	O	0.412829	1.426111	0.576524
Cu15	Cu	-0.093039	0.824451	0.090587
Cu16	Cu	0.406961	1.324451	0.590587
Cu17	Cu	-0.093032	0.824484	-0.091160
Cu18	Cu	0.406968	1.324484	0.408840
O19	O	-0.194697	0.818568	0.076527
O20	O	0.305303	1.318568	0.576527
C21	C	-0.098523	0.696800	-0.000248
C22	C	0.401477	1.196800	0.499752
C23	C	-0.097382	0.619296	-0.000223
C24	C	0.402618	1.119296	0.499777
C25	C	-0.160474	0.574360	-0.000255
C26	C	0.339526	1.074360	0.499745
C27	C	-0.159403	0.501537	-0.000264
C28	C	0.340597	1.001537	0.499736
C29	C	-0.095235	0.473652	-0.000262
C30	C	0.404765	0.973652	0.499738
C31	C	-0.032134	0.518597	-0.000225
C32	C	0.467866	1.018597	0.499775
C33	C	-0.033208	0.591419	-0.000206
C34	C	0.466792	1.091419	0.499794
N35	N	-0.046185	0.365690	-0.052590
N36	N	0.453815	0.865690	0.447410
N37	N	-0.045169	0.296511	-0.052610
N38	N	0.454831	0.796511	0.447390
C39	C	-0.091997	0.254244	-0.000317
C40	C	0.408003	0.754244	0.499683
N41	N	-0.139889	0.283766	0.051985
N42	N	0.360111	0.783766	0.551985
N43	N	-0.140906	0.352951	0.052001
N44	N	0.359094	0.852951	0.552001
C45	C	-0.094064	0.394689	-0.000282
C46	C	0.405936	0.894689	0.499718
C47	C	-0.153931	0.130344	-0.000358
C48	C	0.346069	0.630344	0.499642
C49	C	-0.152857	0.057519	-0.000362
C50	C	0.347143	0.557519	0.499638
C51	C	-0.025587	0.074581	-0.000332
C52	C	0.474413	0.574581	0.499668
C53	C	-0.026663	0.147404	-0.000318
C54	C	0.473337	0.647404	0.499682
C55	C	-0.090837	0.175281	-0.000336
C56	C	0.409163	0.675281	0.499664
C57	C	-0.220705	0.818957	-0.000321
C58	C	0.279295	1.318957	0.499679
C59	C	-0.298212	0.820084	-0.000344
C60	C	0.201788	1.320084	0.499656
C61	C	-0.334597	0.820616	0.083433
C62	C	0.165403	1.320616	0.583433
C63	C	-0.407420	0.821693	0.083448
C64	C	0.092580	1.321693	0.583448
C65	C	-0.443853	0.822253	-0.000317
C66	C	0.056147	1.322253	0.499683
C67	C	-0.407459	0.821718	-0.084105
C68	C	0.092541	1.321718	0.415895
C69	C	-0.334638	0.820633	-0.084118
C70	C	0.165362	1.320633	0.415882
N71	N	-0.552870	0.863701	-0.062662
N72	N	-0.052870	1.363701	0.437338
N73	N	-0.622047	0.864733	-0.062644
N74	N	-0.122047	1.364733	0.437356
C75	C	-0.663258	0.825520	-0.000282
C76	C	-0.163258	1.325520	0.499718
N77	N	-0.632678	0.785245	0.062075
N78	N	-0.132678	1.285245	0.562075
N79	N	-0.563495	0.784216	0.062059
N80	N	-0.063495	1.284216	0.562059
C81	C	-0.522815	0.823429	-0.000312
C82	C	-0.022815	1.323429	0.499688
C83	C	-0.778607	0.827219	0.083517
C84	C	-0.278607	1.327219	0.583517
C85	C	-0.851432	0.828293	0.083530
C86	C	-0.351432	1.328293	0.583530
C87	C	-0.851468	0.828324	-0.084026
C88	C	-0.351468	1.328324	0.415974
C89	C	-0.778645	0.827244	-0.084036
C90	C	-0.278645	1.327244	0.415964
C91	C	-0.742218	0.826695	-0.000262
C92	C	-0.242218	1.326695	0.499738
C93	C	0.034634	0.829978	-0.000254
C94	C	0.534634	1.329978	0.499746
C95	C	0.112141	0.828851	-0.000237
C96	C	0.612141	1.328851	0.499763
C97	C	-0.087548	0.952135	-0.000327
C98	C	0.412452	1.452135	0.499673
C99	C	-0.088689	1.029640	-0.000358
C100	C	0.411311	1.529640	0.499642
N101	N	-0.093044	0.824433	0.218418
N102	N	0.406956	1.324433	0.718418
N103	N	-0.093021	0.824507	-0.218991
N104	N	0.406979	1.324507	0.281009
C105	C	-0.093029	0.824483	0.592509
C106	C	0.406971	1.324483	1.092509
C107	C	-0.150372	0.766748	0.553345
C108	C	0.349628	1.266748	1.053345
C109	C	-0.150580	0.766880	0.446257
C110	C	0.349420	1.266880	0.946257
C111	C	-0.093036	0.824458	0.406918
C112	C	0.406964	1.324458	0.906918
C113	C	-0.108726	0.897257	0.445728
C114	C	0.391274	1.397257	0.945728
C115	C	-0.109133	0.896933	0.552849
C116	C	0.390867	1.396933	1.052849
C117	C	-0.019825	0.810070	0.553064
C118	C	0.480175	1.310070	1.053064
C119	C	-0.020318	0.808397	0.445937
C120	C	0.479682	1.308397	0.945937
C121	C	-0.093039	0.824448	0.302030
C122	C	0.406961	1.324448	0.802030
C123	C	-0.093027	0.824498	0.697397
C124	C	0.406973	1.324498	1.197397
H125	H	0.024714	0.183992	-0.000298
H126	H	0.524714	0.683992	0.499702
H127	H	-0.305013	0.820199	-0.152341
H128	H	0.194987	1.320199	0.347659
H129	H	-0.748947	0.826766	0.151731
H130	H	-0.248947	1.326766	0.651731
H131	H	-0.881056	0.828724	0.151753
H132	H	-0.381056	1.328724	0.651753
H133	H	-0.437127	0.822171	-0.152308
H134	H	0.062873	1.322171	0.347692
H135	H	0.026660	0.051879	-0.000387
H136	H	0.526660	0.551879	0.499613
O137	O	-0.222542	0.779042	0.412272
O138	O	0.277458	1.279042	0.912272
H139	H	-0.244805	0.733639	0.369733
H140	H	0.255195	1.233639	0.869733
H141	H	-0.881131	0.828772	-0.152230
H142	H	-0.381131	1.328772	0.347770
O143	O	-0.221933	0.778738	0.588958
O144	O	0.278067	1.278738	1.088958
H145	H	-0.244744	0.732073	0.628810
H146	H	0.255256	1.232073	1.128810
O147	O	-0.446675	0.822279	0.173812
O148	O	0.053325	1.322279	0.673812
H149	H	-0.439075	0.774494	0.214012
H150	H	0.060925	1.274494	0.714012
H151	H	-0.212730	0.597052	-0.000271
H152	H	0.287270	1.097052	0.499729
O153	O	-0.004537	0.737463	0.412344
O154	O	0.495463	1.237463	0.912344
H155	H	0.046935	0.726502	0.440222
H156	H	0.546935	1.226502	0.940222
O157	O	0.034844	0.639893	-0.000176
O158	O	0.534844	1.139893	0.499824
H159	H	0.079646	0.608272	-0.000178
H160	H	0.579646	1.108272	0.499822
H161	H	-0.749019	0.826815	-0.152256
H162	H	-0.249019	1.326815	0.347744
O163	O	-0.138256	0.695189	0.411492
O164	O	0.361744	1.195189	0.911492
H165	H	-0.132096	0.660112	0.471192
H166	H	0.367904	1.160112	0.971192
H167	H	-0.210782	0.464943	-0.000287
H168	H	0.289218	0.964943	0.499713
O169	O	0.036689	0.865825	0.586676
O170	O	0.536689	1.365825	1.086676
H171	H	0.076186	0.840797	0.626985
H172	H	0.576186	1.340797	1.126985
O173	O	0.000224	0.741286	0.588922
O174	O	0.500224	1.241286	1.088922
H175	H	0.052016	0.732337	0.560118
H176	H	0.552016	1.232337	1.060118
H177	H	-0.161496	0.910305	0.418871
H178	H	0.338504	1.410305	0.918871
H179	H	-0.204237	0.020933	-0.000382
H180	H	0.295763	0.520933	0.499618
O181	O	-0.138257	0.694822	0.587539
O182	O	0.361743	1.194822	1.087539
H183	H	-0.091239	0.699452	0.632819
H184	H	0.408761	1.199452	1.132819
H185	H	-0.206186	0.153042	-0.000359
H186	H	0.293814	0.653042	0.499641
H187	H	-0.162514	0.909670	0.577806
H188	H	0.337486	1.409670	1.077806
H189	H	-0.304943	0.820168	0.151648
H190	H	0.195057	1.320168	0.651648
H191	H	-0.069002	0.941225	0.578753
H192	H	0.430998	1.441225	1.078753
O193	O	-0.054868	0.955521	0.411975
O194	O	0.445132	1.455521	0.911975
H195	H	-0.016256	0.933155	0.367069
H196	H	0.483744	1.433155	0.867069
O197	O	0.038829	0.860517	0.410489
O198	O	0.538829	1.360517	0.910489
H199	H	0.040520	0.857882	0.333922
H200	H	0.540520	1.357882	0.833922
H201	H	0.020112	0.495889	-0.000235
H202	H	0.520112	0.995889	0.499765
