data_functionalizedCrystal
_audit_creation_method	'MofGen! by Chris Wilmer'
_symmetry_space_group_name_H-M	'P1'
_symmetry_Int_Tables_number	1
_symmetry_cell_setting	triclinic
loop_
_symmetry_equiv_pos_as_xyz
  x,y,z
_cell_length_a	10.908878
_cell_length_b	22.010155
_cell_length_c	11.026607
_cell_angle_alpha	89.999825
_cell_angle_beta	84.335404
_cell_angle_gamma	90.015108
loop_
_atom_site_label
_atom_site_type_symbol
_atom_site_fract_x
_atom_site_fract_y
_atom_site_fract_z
O1	O	1.662479	0.050515	-0.179082
O2	O	1.309544	0.050518	-0.088542
O3	O	1.456760	0.050515	-0.304562
O4	O	1.515262	0.050518	0.036938
O5	O	1.456704	-0.050536	-0.304551
O6	O	1.309487	-0.050532	-0.088531
O7	O	1.662422	-0.050535	-0.179071
Cu8	Cu	1.485949	-0.059761	-0.133800
Cu9	Cu	1.486016	0.059743	-0.133813
O10	O	1.515205	-0.050532	0.036949
C11	C	1.263630	-0.000007	-0.080075
C12	C	1.126902	-0.000006	-0.054876
C13	C	1.056640	-0.000007	-0.146821
C14	C	0.915324	-0.000005	-0.120779
N15	N	1.485911	-0.143813	-0.133793
C16	C	1.576688	-0.563592	-0.078481
C17	C	1.576702	-0.627200	-0.078487
O18	O	1.653838	-0.660091	-0.031457
N19	N	1.486037	-0.659020	-0.133831
C20	C	1.395360	-0.627230	-0.189184
O21	O	1.318245	-0.660136	-0.236261
C22	C	1.395353	-0.563623	-0.189185
C23	C	1.486016	-0.531806	-0.133827
C24	C	1.667345	-0.531775	-0.023128
C25	C	1.667330	-0.468172	-0.023120
C26	C	1.576657	-0.436386	-0.078466
C27	C	1.486000	-0.468203	-0.133819
C28	C	1.304682	-0.531834	-0.244545
C29	C	1.304682	-0.468223	-0.244543
C30	C	1.395346	-0.436406	-0.189184
C31	C	1.395313	-0.372813	-0.189157
N32	N	1.485977	-0.340993	-0.133813
C33	C	1.576650	-0.372779	-0.078467
C34	C	1.395384	-0.760807	-0.189180
C35	C	1.395386	-0.824413	-0.189172
C36	C	1.576729	-0.824379	-0.078476
C37	C	1.576722	-0.760772	-0.078477
C38	C	1.486049	-0.728987	-0.133835
C39	C	1.576610	-0.239208	-0.078455
C40	C	1.576583	-0.175599	-0.078448
C41	C	1.395244	-0.175639	-0.189149
C42	C	1.395266	-0.239242	-0.189150
C43	C	1.485959	-0.271025	-0.133802
O44	O	1.318219	-0.339882	-0.236167
O45	O	1.653762	-0.339865	-0.031412
C46	C	1.708336	-0.000009	-0.187538
C47	C	1.845063	-0.000006	-0.212737
C48	C	1.445939	-0.000010	-0.347589
C49	C	1.413766	-0.000007	-0.475811
N50	N	1.486062	0.143796	-0.133831
C51	C	1.502601	-0.000007	-0.567544
C52	C	1.469351	-0.000005	-0.700068
C53	C	1.526026	-0.000006	0.079976
C54	C	1.558199	-0.000005	0.208198
H55	H	1.650413	-0.149697	-0.033362
H56	H	0.870864	-0.000002	-0.022776
H57	H	1.313096	-0.000003	-0.495386
H58	H	1.082437	-0.000002	0.043120
H59	H	1.741161	-0.442272	0.021953
H60	H	1.101105	-0.000005	-0.244817
H61	H	1.230855	-0.557728	-0.289626
H62	H	1.603272	-0.000012	-0.547968
O63	O	0.898231	0.000074	-0.329606
C64	C	0.971974	0.052417	-0.349724
H65	H	0.999612	0.069866	-0.258959
H66	H	1.058231	0.040647	-0.412225
H67	H	0.917713	0.089063	-0.394255
H68	H	1.658877	0.000040	-0.772236
O69	O	1.664762	-0.269982	-0.024585
C70	C	1.744782	-0.228250	0.024241
H71	H	1.695530	-0.182920	0.041220
H72	H	1.773467	-0.246617	0.113888
H73	H	1.830055	-0.221466	-0.042901
O74	O	1.755487	-0.562552	0.030745
C75	C	1.835507	-0.520818	0.079564
H76	H	1.786256	-0.475487	0.096531
H77	H	1.864187	-0.539180	0.169217
H78	H	1.920782	-0.514038	0.012424
H79	H	1.650547	-0.734871	-0.033398
O80	O	1.349304	-0.000029	-0.723615
C81	C	1.342830	-0.000009	-0.850691
H82	H	1.432051	-0.019141	-0.898299
H83	H	1.262022	-0.029344	-0.873356
H84	H	1.329180	0.048471	-0.883174
H85	H	1.650559	-0.850270	-0.033408
H86	H	1.321428	-0.265149	-0.234210
O87	O	1.307144	-0.144687	-0.242737
C88	C	1.239731	-0.107914	-0.155191
H89	H	1.297782	-0.098384	-0.076831
H90	H	1.215310	-0.063186	-0.199051
H91	H	1.151591	-0.132436	-0.118902
O92	O	1.307251	-0.855223	-0.243035
C93	C	1.227203	-0.813522	-0.291851
H94	H	1.276429	-0.768173	-0.308830
H95	H	1.198522	-0.831899	-0.381497
H96	H	1.141931	-0.806773	-0.224704
H97	H	1.321537	-0.734932	-0.234252
O98	O	1.216476	-0.437442	-0.298324
C99	C	1.136485	-0.479170	-0.347207
H100	H	1.140431	-0.524510	-0.297769
H101	H	1.038333	-0.460813	-0.334988
H102	H	1.166007	-0.485928	-0.448388
