data_functionalizedCrystal
_audit_creation_method	'MofGen! by Chris Wilmer'
_symmetry_space_group_name_H-M	'P1'
_symmetry_Int_Tables_number	1
_symmetry_cell_setting	triclinic
loop_
_symmetry_equiv_pos_as_xyz
  x,y,z
_cell_length_a	15.944545
_cell_length_b	23.532407
_cell_length_c	14.421503
_cell_angle_alpha	89.999621
_cell_angle_beta	89.995153
_cell_angle_gamma	83.172425
loop_
_atom_site_label
_atom_site_type_symbol
_atom_site_fract_x
_atom_site_fract_y
_atom_site_fract_z
O1	O	1.113914	0.073425	-0.077061
O2	O	0.869287	0.082484	-0.077078
O3	O	0.998977	-0.004949	-0.077052
O4	O	0.984224	0.160858	-0.077087
O5	O	0.998956	-0.004936	0.077171
O6	O	0.869266	0.082497	0.077146
O7	O	1.113892	0.073438	0.077162
Cu8	Cu	0.991577	0.077969	0.091236
Cu9	Cu	0.991602	0.077953	-0.091151
O10	O	0.984202	0.160871	0.077136
C11	C	0.837986	0.082115	0.000032
C12	C	0.744749	0.080990	0.000027
C13	C	0.998591	-0.026160	0.000062
C14	C	0.997461	-0.089381	0.000069
C15	C	0.474601	0.023431	0.000049
C16	C	0.524938	0.051188	0.076085
C17	C	0.409139	0.076975	0.000044
C18	C	0.524940	0.051189	-0.075967
C19	C	0.574036	0.078945	0.000034
C20	C	0.458248	0.104718	0.076143
C21	C	0.458246	0.104711	-0.075978
C22	C	0.508550	0.132507	0.000078
C23	C	0.314146	0.075839	0.000050
C24	C	0.669025	0.080085	0.000034
C25	C	1.067124	-0.488215	0.000023
C26	C	1.066075	-0.547620	0.000016
O27	O	1.130653	-0.584115	-0.000014
N28	N	0.988974	-0.570543	0.000011
C29	C	0.912918	-0.534059	0.000005
O30	O	0.847241	-0.559012	-0.000001
C31	C	0.913968	-0.474656	0.000005
C32	C	0.991074	-0.451736	0.000019
C33	C	1.144224	-0.465295	0.000036
C34	C	1.145273	-0.405894	0.000045
C35	C	1.069222	-0.369415	0.000041
C36	C	0.992123	-0.392336	0.000028
C37	C	0.837913	-0.438173	-0.000008
C38	C	0.838970	-0.378766	-0.000009
C39	C	0.916075	-0.355846	0.000005
C40	C	0.917121	-0.296456	0.000033
N41	N	0.994222	-0.273532	0.000037
C42	C	1.070272	-0.310012	0.000041
C43	C	0.910718	-0.658810	0.000002
C44	C	0.909667	-0.718212	0.000008
C45	C	1.062825	-0.731768	0.000018
C46	C	1.063875	-0.672365	0.000018
C47	C	0.987819	-0.635886	0.000006
C48	C	1.072470	-0.185267	0.000060
C49	C	1.073512	-0.125860	0.000073
C50	C	0.920355	-0.112309	0.000059
C51	C	0.919312	-0.171710	0.000051
C52	C	0.995376	-0.208188	0.000049
O53	O	0.852577	-0.259926	0.000059
O54	O	1.135938	-0.285050	0.000034
C55	C	1.145194	0.073807	0.000050
C56	C	1.238431	0.074933	0.000049
C57	C	0.984589	0.182082	0.000020
C58	C	0.985718	0.245303	0.000007
N59	N	0.991565	0.077979	0.219517
N60	N	0.991621	0.077938	-0.219433
C61	C	0.931586	0.118390	0.469159
C62	C	1.007393	0.129445	0.530964
C63	C	0.991586	0.077966	0.408678
C64	C	0.915798	0.066924	0.530967
C65	C	0.991599	0.077954	0.591400
C66	C	1.067431	0.089047	0.469123
C67	C	0.975786	0.026503	0.469121
C68	C	1.051648	0.037536	0.530898
C69	C	0.991577	0.077974	0.303417
C70	C	0.991616	0.077945	0.696659
H71	H	0.459336	-0.022681	0.000132
H72	H	0.554057	0.028562	-0.140246
H73	H	0.554051	0.028580	0.140378
H74	H	0.962387	-0.017000	0.441935
H75	H	0.880898	0.152603	0.442051
H76	H	1.020769	0.172961	0.558128
H77	H	0.856526	-0.190372	0.000065
H78	H	0.429239	0.127319	0.140495
H79	H	0.523653	0.178656	0.000112
H80	H	1.136303	-0.107203	0.000087
H81	H	1.124749	-0.761481	0.000017
H82	H	1.134408	-0.214960	0.000055
H83	H	0.851701	0.057590	0.558136
H84	H	1.131542	0.098433	0.442071
H85	H	0.846880	-0.736868	0.000013
H86	H	1.208060	-0.387239	0.000052
H87	H	0.429118	0.127299	-0.140272
H88	H	0.848781	-0.629111	0.000000
H89	H	1.102449	0.003343	0.557836
H90	H	1.126661	-0.653708	0.000029
H91	H	0.777034	-0.349067	-0.000019
H92	H	1.206157	-0.494991	0.000036
H93	H	0.858437	-0.082597	0.000059
H94	H	0.775125	-0.456824	-0.000025
