data_functionalizedCrystal
_audit_creation_method	'MofGen! by Chris Wilmer'
_symmetry_space_group_name_H-M	'P1'
_symmetry_Int_Tables_number	1
_symmetry_cell_setting	triclinic
loop_
_symmetry_equiv_pos_as_xyz
  x,y,z
_cell_length_a	11.026607
_cell_length_b	11.792241
_cell_length_c	10.065875
_cell_angle_alpha	98.849501
_cell_angle_beta	79.302338
_cell_angle_gamma	96.389716
loop_
_atom_site_label
_atom_site_type_symbol
_atom_site_fract_x
_atom_site_fract_y
_atom_site_fract_z
O1	O	1.630965	0.462836	-0.113504
O2	O	2.130965	0.962836	0.386496
O3	O	1.277303	0.408644	-0.113505
O4	O	1.777303	0.908644	0.386495
O5	O	1.462715	0.272275	-0.113495
O6	O	1.962715	0.772275	0.386505
O7	O	1.445553	0.599205	-0.113514
O8	O	1.945553	1.099205	0.386486
O9	O	1.427360	0.298412	0.113492
O10	O	1.927360	0.798412	0.613492
O11	O	1.241948	0.434781	0.113482
O12	O	1.741948	0.934781	0.613482
O13	O	1.595611	0.488973	0.113483
O14	O	2.095611	0.988973	0.613483
Zn15	Zn	1.413166	0.466027	0.149522
Zn16	Zn	1.913166	0.966027	0.649522
Zn17	Zn	1.459747	0.431590	-0.149543
Zn18	Zn	1.959747	0.931590	0.350457
O19	O	1.410198	0.625342	0.113473
O20	O	1.910198	1.125342	0.613473
C21	C	1.214349	0.411715	-0.000011
C22	C	1.714349	0.911715	0.499989
C23	C	1.079439	0.381912	-0.000011
C24	C	1.579439	0.881912	0.499989
C25	C	1.443960	0.242838	-0.000002
C26	C	1.943960	0.742838	0.499998
C27	C	1.440732	0.116183	-0.000003
C28	C	1.940732	0.616183	0.499997
C29	C	1.006175	0.464202	-0.000017
C30	C	1.506175	0.964202	0.499983
C31	C	0.866738	0.433401	-0.000017
C32	C	1.366738	0.933401	0.499983
C33	C	1.434802	-0.115710	-0.000026
C34	C	1.934802	0.384290	0.499974
C35	C	1.438097	0.013332	-0.000013
C36	C	1.938097	0.513332	0.499987
C37	C	1.658565	0.485901	-0.000014
C38	C	2.158565	0.985901	0.499986
C39	C	1.793477	0.515703	-0.000023
C40	C	2.293477	1.015703	0.499977
C41	C	1.428954	0.654778	-0.000023
C42	C	1.928954	1.154778	0.499977
C43	C	1.432183	0.781432	-0.000031
C44	C	1.932183	1.281432	0.499969
N45	N	1.381384	0.489530	0.353626
N46	N	1.881384	0.989530	0.853626
N47	N	1.491539	0.408079	-0.353647
N48	N	1.991539	0.908079	0.146353
C49	C	1.448682	0.439759	0.421408
C50	C	1.948682	0.939759	0.921408
C51	C	1.424231	0.457858	0.578574
C52	C	1.924231	0.957858	1.078574
H53	H	0.826244	0.340138	-0.000046
H54	H	1.326244	0.840138	0.499954
H55	H	0.833974	0.608964	-0.000019
H56	H	1.333974	1.108964	0.499981
O57	O	1.025804	0.258382	-0.000004
O58	O	1.525804	0.758382	0.499996
H59	H	0.924702	0.253574	-0.000013
H60	H	1.424702	0.753574	0.499987
O61	O	1.323947	0.532084	0.655801
O62	O	1.823947	1.032084	1.155801
H63	H	1.233276	0.495322	0.628491
H64	H	1.733276	0.995322	1.128491
O65	O	1.591839	0.333871	0.569125
O66	O	2.091839	0.833871	1.069125
H67	H	1.595309	0.331300	0.457800
H68	H	2.095309	0.831300	0.957800
H69	H	1.524395	0.383742	0.363088
H70	H	2.024395	0.883742	0.863088
O71	O	1.281094	0.563743	0.430852
O72	O	1.781094	1.063743	0.930852
H73	H	1.211482	0.511416	0.495984
H74	H	1.711482	1.011416	0.995984
O75	O	1.059810	0.587733	-0.000023
O76	O	1.559810	1.087733	0.499977
H77	H	1.160914	0.592539	-0.000030
H78	H	1.660914	1.092539	0.499970
