data_functionalizedCrystal
_audit_creation_method	'MofGen! by Chris Wilmer'
_symmetry_space_group_name_H-M	'P1'
_symmetry_Int_Tables_number	1
_symmetry_cell_setting	triclinic
loop_
_symmetry_equiv_pos_as_xyz
  x,y,z
_cell_length_a	15.297475
_cell_length_b	18.215404
_cell_length_c	18.215399
_cell_angle_alpha	89.972485
_cell_angle_beta	99.684492
_cell_angle_gamma	99.673678
loop_
_atom_site_label
_atom_site_type_symbol
_atom_site_fract_x
_atom_site_fract_y
_atom_site_fract_z
Zn1	Zn	1.379216	0.488000	0.610484
Zn2	Zn	1.712550	0.821333	0.943817
Zn3	Zn	2.045883	1.154666	1.277150
Zn4	Zn	1.379107	0.611055	0.487403
Zn5	Zn	1.712440	0.944389	0.820736
Zn6	Zn	2.045773	1.277722	1.154070
Zn7	Zn	1.228350	0.466692	0.466170
Zn8	Zn	1.561683	0.800025	0.799504
Zn9	Zn	1.895016	1.133358	1.132837
Zn10	Zn	1.228311	0.589692	0.589177
Zn11	Zn	1.561644	0.923026	0.922510
Zn12	Zn	1.894977	1.256359	1.255844
O13	O	1.303746	0.538860	0.538309
O14	O	1.637079	0.872193	0.871642
O15	O	1.970412	1.205526	1.204975
O16	O	1.505449	0.522181	0.611960
O17	O	1.838782	0.855514	0.945293
O18	O	2.172115	1.188848	1.278626
O19	O	1.359079	0.591928	0.381598
O20	O	1.692412	0.925262	0.714931
O21	O	2.025746	1.258595	1.048265
O22	O	1.248425	0.366543	0.485345
O23	O	1.581758	0.699876	0.818678
O24	O	1.915091	1.033209	1.152011
O25	O	1.505368	0.612590	0.521533
O26	O	1.838701	0.945923	0.854866
O27	O	2.172035	1.279256	1.188199
O28	O	1.359266	0.382197	0.591371
O29	O	1.692599	0.715531	0.924705
O30	O	2.025932	1.048864	1.258038
O31	O	1.248318	0.485865	0.365998
O32	O	1.581652	0.819198	0.699332
O33	O	1.914985	1.152531	1.032665
O34	O	1.102097	0.465150	0.464684
O35	O	1.435431	0.798483	0.798018
O36	O	1.768764	1.131817	1.131351
O37	O	1.248358	0.576179	0.694992
O38	O	1.581691	0.909513	1.028325
O39	O	1.915025	1.242846	1.361659
O40	O	1.102069	0.555518	0.555057
O41	O	1.435402	0.888851	0.888390
O42	O	1.768735	1.222185	1.221724
O43	O	1.359228	0.501466	0.710646
O44	O	1.692561	0.834800	1.043979
O45	O	2.025894	1.168133	1.377313
O46	O	1.359041	0.711197	0.500873
O47	O	1.692374	1.044530	0.834206
O48	O	2.025708	1.377864	1.167539
O49	O	1.248252	0.695502	0.575645
O50	O	1.581585	1.028835	0.908979
O51	O	1.914918	1.362168	1.242312
C52	C	1.303655	0.730053	0.538270
C53	C	1.636988	1.063386	0.871604
C54	C	1.970321	1.396720	1.204937
C55	C	1.303698	0.811858	0.538290
C56	C	1.637032	1.145191	0.871624
C57	C	1.970365	1.478525	1.204957
C58	C	1.069349	0.505704	0.505255
C59	C	1.402682	0.839037	0.838588
C60	C	1.736015	1.172371	1.171922
C61	C	0.969073	0.491538	0.491132
C62	C	1.302406	0.824871	0.824465
C63	C	1.635739	1.158204	1.157799
C64	C	1.361526	1.008220	0.499472
C65	C	1.694860	1.341553	0.832806
C66	C	2.028193	1.674887	1.166139
C67	C	1.361568	1.085085	0.499500
C68	C	1.694902	1.418418	0.832834
C69	C	2.028235	1.751751	1.166167
C70	C	1.246103	1.068767	0.577270
C71	C	1.579437	1.402100	0.910603
C72	C	1.912770	1.735434	1.243937
C73	C	1.246067	0.991904	0.577246
C74	C	1.579400	1.325238	0.910579
C75	C	1.912733	1.658571	1.243913
C76	C	1.303777	0.961633	0.538343
C77	C	1.637110	1.294966	0.871676
C78	C	1.970443	1.628299	1.205010
C79	C	1.303856	1.115360	0.538395
C80	C	1.637189	1.448693	0.871728
C81	C	1.970522	1.782027	1.205061
C82	C	1.303901	1.198700	0.538425
C83	C	1.637234	1.532033	0.871758
C84	C	1.970567	1.865367	1.205092
C85	C	1.303733	0.878288	0.538313
C86	C	1.637066	1.211621	0.871647
C87	C	1.970400	1.544954	1.204980
C88	C	0.686451	0.640114	0.639249
C89	C	1.019785	0.973447	0.972583
C90	C	1.353118	1.306781	1.305916
C91	C	0.780666	0.653430	0.652516
C92	C	1.113999	0.986763	0.985850
C93	C	1.447332	1.320096	1.319183
C94	C	0.827772	0.612958	0.612172
C95	C	1.161105	0.946291	0.945505
C96	C	1.494439	1.279624	1.278838
C97	C	0.780655	0.559168	0.558557
C98	C	1.113988	0.892502	0.891890
C99	C	1.447321	1.225835	1.225224
C100	C	0.686431	0.545856	0.545285
C101	C	1.019765	0.879189	0.878618
C102	C	1.353098	1.212522	1.211951
C103	C	0.827752	0.518699	0.518207
C104	C	1.161085	0.852032	0.851540
C105	C	1.494419	1.185366	1.184874
C106	C	0.780635	0.464910	0.464592
C107	C	1.113968	0.798243	0.797926
C108	C	1.447301	1.131576	1.131259
C109	C	0.686420	0.451599	0.451323
C110	C	1.019754	0.784932	0.784656
C111	C	1.353087	1.118266	1.117989
C112	C	0.639314	0.492071	0.491667
C113	C	0.972647	0.825404	0.825001
C114	C	1.305981	1.158738	1.158334
C115	C	0.921976	0.532012	0.531480
C116	C	1.255309	0.865345	0.864813
C117	C	1.588642	1.198678	1.198146
C118	C	0.921955	0.437753	0.437515
C119	C	1.255289	0.771087	0.770848
C120	C	1.588622	1.104420	1.104182
C121	C	0.827741	0.424438	0.424248
C122	C	1.161074	0.757771	0.757581
C123	C	1.494408	1.091104	1.090914
C124	C	1.539058	0.572145	0.571491
C125	C	1.872391	0.905479	0.904825
C126	C	2.205725	1.238812	1.238158
C127	C	1.639334	0.586330	0.585632
C128	C	1.972667	0.919663	0.918965
C129	C	2.306001	1.252996	1.252299
C130	C	1.303801	0.538817	0.730269
C131	C	1.637134	0.872150	1.063603
C132	C	1.970467	1.205483	1.396936
C133	C	1.303824	0.538798	0.812071
C134	C	1.637157	0.872132	1.145405
C135	C	1.970491	1.205465	1.478738
C136	C	1.303867	1.346924	0.538380
C137	C	1.637201	1.680257	0.871714
C138	C	1.970534	2.013591	1.205047
C139	C	1.303934	1.265134	0.538447
C140	C	1.637267	1.598468	0.871780
C141	C	1.970600	1.931801	1.205114
C142	C	1.303743	0.538857	0.347102
C143	C	1.637076	0.872190	0.680435
C144	C	1.970410	1.205523	1.013769
C145	C	1.303894	0.538692	0.265325
C146	C	1.637228	0.872026	0.598658
C147	C	1.970561	1.205359	0.931991
C148	C	1.361575	0.499854	1.008421
C149	C	1.694908	0.833187	1.341754
C150	C	2.028241	1.166521	1.675087
C151	C	1.361586	0.499834	1.085281
C152	C	1.694919	0.833168	1.418614
C153	C	2.028252	1.166501	1.751948
C154	C	1.246137	0.577638	1.068969
C155	C	1.579471	0.910971	1.402303
C156	C	1.912804	1.244305	1.735636
C157	C	1.246123	0.577653	0.992110
C158	C	1.579456	0.910986	1.325443
C159	C	1.912789	1.244320	1.658776
C160	C	1.303847	0.538763	0.961838
C161	C	1.637180	0.872096	1.295172
C162	C	1.970513	1.205430	1.628505
C163	C	1.303872	0.538728	1.115558
C164	C	1.637205	0.872061	1.448891
C165	C	1.970539	1.205395	1.782225
C166	C	1.303883	0.538707	1.198893
C167	C	1.637217	0.872040	1.532227
C168	C	1.970550	1.205373	1.865560
C169	C	1.303834	0.538783	0.878497
C170	C	1.637168	0.872116	1.211831
C171	C	1.970501	1.205450	1.545164
H172	H	1.408518	0.983575	0.467796
H173	H	1.741852	1.316909	0.801130
H174	H	2.075185	1.650242	1.134463
N175	N	0.776914	0.366438	0.366409
N176	N	1.110248	0.699771	0.699743
N177	N	1.443581	1.033105	1.033076
H178	H	0.737843	0.326854	0.390869
H179	H	1.071176	0.660187	0.724202
H180	H	1.404510	0.993521	1.057536
H181	H	0.737853	0.390849	0.326767
H182	H	1.071186	0.724182	0.660101
H183	H	1.404520	1.057516	0.993434
N184	N	0.972782	0.590022	0.589307
N185	N	1.306116	0.923355	0.922640
N186	N	1.639449	1.256688	1.255973
H187	H	1.011903	0.565689	0.628977
H188	H	1.345236	0.899022	0.962310
H189	H	1.678570	1.232356	1.295643
H190	H	1.011792	0.629590	0.564781
H191	H	1.345126	0.962923	0.898115
H192	H	1.678459	1.296257	1.231448
N193	N	1.183853	1.101413	0.619222
N194	N	1.517186	1.434746	0.952555
N195	N	1.850519	1.768080	1.285889
H196	H	1.220502	1.138437	0.658528
H197	H	1.553835	1.471770	0.991861
H198	H	1.887168	1.805104	1.325194
H199	H	1.142094	1.127401	0.583350
H200	H	1.475427	1.460734	0.916683
H201	H	1.808760	1.794067	1.250017
N202	N	1.183879	0.619570	1.101632
N203	N	1.517212	0.952903	1.434965
N204	N	1.850545	1.286237	1.768298
H205	H	1.220523	0.658850	1.138685
H206	H	1.553856	0.992183	1.472018
H207	H	1.887190	1.325517	1.805351
H208	H	1.147307	0.644172	1.060418
H209	H	1.480640	0.977505	1.393752
H210	H	1.813973	1.310839	1.727085
H211	H	0.648089	0.673065	0.672088
H212	H	0.981422	1.006398	1.005421
H213	H	1.314755	1.339732	1.338754
H214	H	1.408595	1.123014	0.467849
H215	H	1.741928	1.456347	0.801183
H216	H	2.075262	1.789680	1.134516
N217	N	0.972750	0.394100	0.393992
N218	N	1.306084	0.727433	0.727325
N219	N	1.639417	1.060766	1.060659
H220	H	1.039586	0.410693	0.410537
H221	H	1.372920	0.744026	0.743870
H222	H	1.706253	1.077360	1.077203
H223	H	0.956307	0.339231	0.403222
H224	H	1.289640	0.672565	0.736555
H225	H	1.622974	1.005898	1.069889
H226	H	1.408575	0.468185	0.983776
H227	H	1.741908	0.801518	1.317109
H228	H	2.075241	1.134852	1.650443
N229	N	1.183838	0.619603	0.941858
N230	N	1.517171	0.952937	1.275191
N231	N	1.850504	1.286270	1.608524
H232	H	1.147272	0.644237	0.972696
H233	H	1.480605	0.977571	1.306029
H234	H	1.813938	1.310904	1.639362
H235	H	1.220521	0.658859	0.915127
H236	H	1.553854	0.992192	1.248460
H237	H	1.887187	1.325525	1.581794
H238	H	1.199040	0.953970	0.608903
H239	H	1.532373	1.287303	0.942236
H240	H	1.865706	1.620637	1.275569
N241	N	1.423857	0.457867	1.135515
N242	N	1.757190	0.791201	1.468849
N243	N	2.090523	1.124534	1.802182
H244	H	1.465654	0.493676	1.173295
H245	H	1.798987	0.827009	1.506629
H246	H	2.132321	1.160343	1.839962
H247	H	1.387158	0.418570	1.162189
H248	H	1.720491	0.751903	1.495522
H249	H	2.053825	1.085237	1.828856
H250	H	0.904486	0.623802	0.622977
H251	H	1.237819	0.957135	0.956311
H252	H	1.571152	1.290469	1.289644
H253	H	0.819022	0.697227	0.696168
H254	H	1.152355	1.030560	1.029501
H255	H	1.485688	1.363893	1.362835
N256	N	0.537694	0.477718	0.477346
N257	N	0.871027	0.811052	0.810679
N258	N	1.204361	1.144385	1.144012
H259	H	0.515007	0.511521	0.511039
H260	H	0.848340	0.844854	0.844372
H261	H	1.181673	1.178188	1.177706
H262	H	0.515053	0.487963	0.423620
H263	H	0.848387	0.821297	0.756953
H264	H	1.181720	1.154630	1.090287
N265	N	0.635598	0.393594	0.393488
N266	N	0.968932	0.726928	0.726821
N267	N	1.302265	1.060261	1.060155
H268	H	0.679733	0.369975	0.369943
H269	H	1.013066	0.703308	0.703276
H270	H	1.346400	1.036641	1.036610
H271	H	0.596532	0.354057	0.418002
H272	H	0.929866	0.687390	0.751335
H273	H	1.263199	1.020724	1.084668
