data_functionalizedCrystal
_audit_creation_method	'MofGen! by Chris Wilmer'
_symmetry_space_group_name_H-M	'P1'
_symmetry_Int_Tables_number	1
_symmetry_cell_setting	triclinic
loop_
_symmetry_equiv_pos_as_xyz
  x,y,z
_cell_length_a	17.077404
_cell_length_b	12.827892
_cell_length_c	17.077396
_cell_angle_alpha	89.974933
_cell_angle_beta	89.978556
_cell_angle_gamma	90.013639
loop_
_atom_site_label
_atom_site_type_symbol
_atom_site_fract_x
_atom_site_fract_y
_atom_site_fract_z
Zn1	Zn	1.200096	-0.416082	-0.443902
Zn2	Zn	1.200020	-0.590844	-0.312644
Zn3	Zn	1.068827	-0.416113	-0.312646
Zn4	Zn	1.068812	-0.590776	-0.443863
O5	O	1.134439	-0.503454	-0.378264
O6	O	1.309932	-0.439280	-0.426506
O7	O	1.182591	-0.567707	-0.202797
O8	O	1.086278	-0.269872	-0.330074
O9	O	1.309877	-0.567677	-0.330071
O10	O	1.182720	-0.269850	-0.426508
O11	O	1.086205	-0.439332	-0.202798
O12	O	0.958978	-0.439266	-0.330036
O13	O	1.086253	-0.567561	-0.553715
O14	O	0.958968	-0.567591	-0.426441
O15	O	1.182706	-0.439214	-0.553744
O16	O	1.182577	-0.737071	-0.330033
O17	O	1.086179	-0.737021	-0.426439
C18	C	0.930491	-0.503425	-0.378235
C19	C	0.843241	-0.503438	-0.378241
C20	C	0.467453	-0.436746	-0.428586
C21	C	0.549433	-0.436739	-0.428577
C22	C	0.590392	-0.503476	-0.378283
C23	C	0.549367	-0.570232	-0.328000
C24	C	0.467388	-0.570244	-0.328013
C25	C	0.720237	-0.570201	-0.327975
C26	C	0.802221	-0.570188	-0.327961
C27	C	0.802282	-0.436695	-0.428539
C28	C	0.720303	-0.436707	-0.428552
C29	C	0.679283	-0.503463	-0.378268
C30	C	1.134390	-0.774964	-0.378249
C31	C	1.134440	-0.891117	-0.378269
C32	C	1.182142	-0.942807	-0.426030
C33	C	1.182195	-1.062857	-0.426052
C34	C	1.339183	-0.503483	-0.378293
C35	C	1.426433	-0.503495	-0.378305
C36	C	1.134486	-0.503377	-0.583008
C37	C	1.134507	-0.503344	-0.670258
C38	C	1.134509	-0.230884	-0.378295
C39	C	1.134540	-0.114730	-0.378309
C40	C	1.184731	-0.436508	-0.711264
C41	C	1.184741	-0.436473	-0.793245
C42	C	1.134529	-0.503280	-0.834217
C43	C	1.084298	-0.570119	-0.793205
C44	C	1.084285	-0.570148	-0.711226
C45	C	1.084330	-0.570056	-0.964075
C46	C	1.084344	-0.570029	-1.046060
C47	C	1.184785	-0.436382	-1.046094
C48	C	1.184772	-0.436410	-0.964115
C49	C	1.134543	-0.503251	-0.923108
C50	C	1.134437	-0.503455	-0.174316
C51	C	1.134568	-0.503193	-0.087066
H52	H	0.433990	-0.624600	-0.287071
H53	H	1.043455	-0.624427	-1.079418
Br54	Br	1.250136	-0.868444	-0.494172
Br55	Br	0.604953	-0.660813	-0.259749
Br56	Br	1.016116	-0.660851	-0.655573
Br57	Br	0.857951	-0.346089	-0.496775
Br58	Br	0.411874	-0.346161	-0.496840
Br59	Br	1.066472	-1.040654	-0.310143
Br60	Br	1.250274	-1.136941	-0.494203
H61	H	1.093638	-0.935740	-0.337399
H62	H	1.225623	-0.382109	-0.677910
Br63	Br	0.664716	-0.346127	-0.496804
Br64	Br	0.857809	-0.660791	-0.259727
H65	H	0.686841	-0.624565	-0.287032
H66	H	1.043415	-0.624469	-0.930690
Br67	Br	1.252958	-0.345673	-1.101744
Br68	Br	1.252943	-0.345812	-0.848894
H69	H	1.043412	-0.624511	-0.826572
Br70	Br	1.252925	-0.345752	-0.908509
H71	H	0.582828	-0.382388	-0.469524
