data_functionalizedCrystal
_audit_creation_method	'MofGen! by Chris Wilmer'
_symmetry_space_group_name_H-M	'P1'
_symmetry_Int_Tables_number	1
_symmetry_cell_setting	triclinic
loop_
_symmetry_equiv_pos_as_xyz
  x,y,z
_cell_length_a	14.853567
_cell_length_b	19.188924
_cell_length_c	17.666332
_cell_angle_alpha	89.992981
_cell_angle_beta	89.993399
_cell_angle_gamma	83.388448
loop_
_atom_site_label
_atom_site_type_symbol
_atom_site_fract_x
_atom_site_fract_y
_atom_site_fract_z
O1	O	1.195862	0.091155	-0.062900
O2	O	1.695862	0.591155	0.437100
O3	O	0.933341	0.102014	-0.062913
O4	O	1.433341	0.602014	0.437087
O5	O	1.072181	-0.005046	-0.062897
O6	O	1.572181	0.494954	0.437103
O7	O	1.057023	0.198216	-0.062916
O8	O	1.557023	0.698216	0.437084
O9	O	1.072155	-0.005048	0.063000
O10	O	1.572155	0.494952	0.563000
O11	O	0.933316	0.102012	0.062984
O12	O	1.433316	0.602012	0.562984
O13	O	1.195836	0.091153	0.062997
O14	O	1.695836	0.591153	0.562997
Cu15	Cu	1.064574	0.096582	0.074486
Cu16	Cu	1.564574	0.596582	0.574486
Cu17	Cu	1.064604	0.096585	-0.074402
Cu18	Cu	1.564604	0.596585	0.425598
O19	O	1.056997	0.198213	0.062981
O20	O	1.556997	0.698213	0.562981
C21	C	0.899743	0.101521	0.000034
C22	C	1.399743	0.601521	0.500034
C23	C	0.799667	0.100047	0.000029
C24	C	1.299667	0.600047	0.500029
C25	C	1.071678	-0.031060	0.000052
C26	C	1.571678	0.468940	0.500052
C27	C	1.070208	-0.108570	0.000054
C28	C	1.570208	0.391430	0.500054
C29	C	0.387524	0.030218	0.000052
C30	C	0.887524	0.530218	0.500052
C31	C	0.365532	0.157408	0.000040
C32	C	0.865532	0.657408	0.500040
C33	C	0.459558	0.158794	0.000037
C34	C	0.959558	0.658794	0.500037
C35	C	0.517571	0.095891	0.000041
C36	C	1.017571	0.595891	0.500041
C37	C	0.481559	0.031602	0.000047
C38	C	0.981559	0.531602	0.500047
C39	C	0.495577	0.223082	0.000023
C40	C	0.995577	0.723082	0.500023
C41	C	0.589609	0.224471	0.000020
C42	C	1.089609	0.724471	0.500020
C43	C	0.647624	0.161567	0.000029
C44	C	1.147624	0.661567	0.500029
C45	C	0.611606	0.097276	0.000036
C46	C	1.111606	0.597276	0.500036
C47	C	0.669620	0.034373	0.000040
C48	C	1.169620	0.534373	0.500040
C49	C	0.633604	-0.029919	0.000053
C50	C	1.133604	0.470081	0.500053
C51	C	0.539575	-0.031301	0.000057
C52	C	1.039575	0.468699	0.500057
C53	C	0.741654	0.162949	0.000025
C54	C	1.241654	0.662949	0.500025
C55	C	0.763655	0.035758	0.000035
C56	C	1.263655	0.535758	0.500035
C57	C	1.069535	-0.144969	-0.068573
C58	C	1.569535	0.355031	0.431427
C59	C	1.068141	-0.217797	-0.068578
C60	C	1.568141	0.282203	0.431422
C61	C	1.067437	-0.254223	0.000046
C62	C	1.567437	0.245777	0.500046
C63	C	1.068105	-0.217814	0.068682
C64	C	1.568105	0.282186	0.568682
C65	C	1.069490	-0.144987	0.068686
C66	C	1.569490	0.355013	0.568686
N67	N	1.116555	-0.373724	0.051124
N68	N	1.616555	0.126276	0.551124
N69	N	1.115241	-0.442906	0.051116
N70	N	1.615241	0.057094	0.551116
C71	C	1.063261	-0.473646	0.000039
C72	C	1.563261	0.026354	0.500039
N73	N	1.012657	-0.432591	-0.051042
N74	N	1.512657	0.067409	0.448958
N75	N	1.013975	-0.363403	-0.051035
N76	N	1.513975	0.136597	0.448965
C77	C	1.065934	-0.333192	0.000050
C78	C	1.565934	0.166808	0.500050
C79	C	1.061075	-0.589014	-0.068599
C80	C	1.561075	-0.089014	0.431401
C81	C	1.059675	-0.661842	-0.068602
C82	C	1.559675	-0.161842	0.431398
C83	C	1.059648	-0.661859	0.068660
C84	C	1.559648	-0.161859	0.568660
C85	C	1.061039	-0.589031	0.068661
C86	C	1.561039	-0.089031	0.568661
C87	C	1.061757	-0.552613	0.000030
C88	C	1.561757	-0.052613	0.500030
C89	C	1.229435	0.091646	0.000049
C90	C	1.729435	0.591646	0.500049
C91	C	1.329510	0.093121	0.000048
C92	C	1.829510	0.593121	0.500048
C93	C	1.057500	0.224227	0.000030
C94	C	1.557500	0.724227	0.500030
C95	C	1.058970	0.301737	0.000023
C96	C	1.558970	0.801737	0.500023
N97	N	1.064559	0.096580	0.179205
N98	N	1.564559	0.596580	0.679205
C99	C	1.119059	0.139007	0.218807
C100	C	1.619059	0.639007	0.718807
C101	C	1.119073	0.139006	0.298055
C102	C	1.619073	0.639006	0.798055
C103	C	1.064570	0.096584	0.337697
C104	C	1.564570	0.596584	0.837697
C105	C	1.010068	0.054148	0.298085
C106	C	1.510068	0.554148	0.798085
C107	C	1.010062	0.054146	0.218839
C108	C	1.510062	0.554146	0.718839
N109	N	0.985613	0.094602	0.462133
N110	N	1.485613	0.594602	0.962133
N111	N	0.985621	0.094608	0.537414
N112	N	1.485621	0.594608	1.037414
C113	C	1.064585	0.096588	0.576461
C114	C	1.564585	0.596588	1.076461
N115	N	1.143542	0.098575	0.537385
N116	N	1.643542	0.598575	1.037385
N117	N	1.143533	0.098573	0.462097
N118	N	1.643533	0.598573	0.962097
C119	C	1.064571	0.096582	0.423626
C120	C	1.564571	0.596582	0.923626
C121	C	1.119104	0.139016	0.701993
C122	C	1.619104	0.639016	1.201993
C123	C	1.119120	0.139010	0.781242
C124	C	1.619120	0.639010	1.281242
C125	C	1.010106	0.054156	0.781271
C126	C	1.510106	0.554156	1.281271
C127	C	1.010099	0.054159	0.702023
C128	C	1.510099	0.554159	1.202023
C129	C	1.064596	0.096593	0.662389
C130	C	1.564596	0.596593	1.162389
N131	N	1.064618	0.096587	0.820879
N132	N	1.564618	0.596587	1.320879
H133	H	0.680851	-0.081134	0.000051
H134	H	1.180851	0.418866	0.500051
H135	H	1.059068	-0.691516	0.124536
H136	H	1.559068	-0.191516	0.624536
H137	H	0.965716	0.019613	0.669779
H138	H	1.465716	0.519613	1.169779
H139	H	0.965680	0.019595	0.186596
H140	H	1.465680	0.519595	0.686596
N141	N	1.061728	-0.551857	0.138769
N142	N	1.561728	-0.051857	0.638769
N143	N	1.061096	-0.584385	0.200038
N144	N	1.561096	-0.084385	0.700038
H145	H	1.061580	-0.558131	0.249556
H146	H	1.561580	-0.058131	0.749556
N147	N	1.070271	-0.107762	-0.138670
N148	N	1.570271	0.392238	0.361330
N149	N	1.134582	-0.073497	-0.153976
N150	N	1.634582	0.426503	0.346024
H151	H	1.135101	-0.047218	-0.203482
H152	H	1.635101	0.452782	0.296518
H153	H	0.618924	0.276822	0.000010
H154	H	1.118924	0.776822	0.500010
H155	H	1.059123	-0.691477	-0.124488
H156	H	1.559123	-0.191477	0.375512
H157	H	0.510241	-0.083645	0.000085
H158	H	1.010241	0.416355	0.500085
H159	H	1.163506	0.173557	0.813485
H160	H	1.663506	0.673557	1.313485
N161	N	1.174716	0.182365	0.178335
N162	N	1.674716	0.682365	0.678335
N163	N	1.223365	0.220252	0.213710
N164	N	1.723365	0.720252	0.713710
H165	H	1.262669	0.250878	0.185126
H166	H	1.762669	0.750878	0.685126
H167	H	0.358196	-0.022127	0.000065
H168	H	0.858196	0.477873	0.500065
H169	H	0.770974	0.215295	0.000016
H170	H	1.270974	0.715295	0.500016
H171	H	1.163453	0.173557	0.330305
H172	H	1.663453	0.673557	0.830305
H173	H	0.810885	-0.015466	0.000041
H174	H	1.310885	0.484534	0.500041
N175	N	0.954429	0.010834	0.821765
N176	N	1.454429	0.510834	1.321765
N177	N	0.894722	0.038017	0.865990
N178	N	1.394722	0.538017	1.365990
H179	H	0.855398	0.007418	0.894593
H180	H	1.355398	0.507418	1.394593
N181	N	0.306264	0.221651	0.000020
N182	N	0.806264	0.721651	0.500020
N183	N	0.222311	0.220405	0.000014
N184	N	0.722311	0.720405	0.500014
H185	H	0.180448	0.265780	-0.000002
H186	H	0.680448	0.765780	0.499998
N187	N	1.174801	0.182336	0.661505
N188	N	1.674801	0.682336	1.161505
N189	N	1.258847	0.174077	0.670345
N190	N	1.758847	0.674077	1.170345
H191	H	1.298190	0.204666	0.641750
H192	H	1.798190	0.704666	1.141750
N193	N	0.436308	0.287325	-0.000004
N194	N	0.936308	0.787325	0.499996
N195	N	0.352356	0.286076	-0.000007
N196	N	0.852356	0.786076	0.499993
H197	H	0.310491	0.331450	-0.000032
H198	H	0.810491	0.831450	0.499968
H199	H	1.067529	-0.247477	0.124556
H200	H	1.567529	0.252523	0.624556
N201	N	1.067451	-0.254977	-0.138689
N202	N	1.567451	0.245023	0.361311
N203	N	1.068088	-0.222453	-0.199959
N204	N	1.568088	0.277547	0.300041
H205	H	1.067601	-0.248709	-0.249475
H206	H	1.567601	0.251291	0.250525
N207	N	1.070172	-0.107812	0.138796
N208	N	1.570172	0.392188	0.638796
N209	N	1.069535	-0.140339	0.200065
N210	N	1.569535	0.359661	0.700065
H211	H	1.070017	-0.114084	0.249583
H212	H	1.570017	0.385916	0.749583
N213	N	0.954405	0.010816	0.338587
N214	N	1.454405	0.510816	0.838587
N215	N	0.954416	0.010824	0.409342
N216	N	1.454416	0.510824	0.909342
H217	H	0.915107	-0.019783	0.437946
H218	H	1.415107	0.480217	0.937946
H219	H	1.061655	-0.559360	-0.124483
H220	H	1.561655	-0.059360	0.375517
