data_functionalizedCrystal
_audit_creation_method	'MofGen! by Chris Wilmer'
_symmetry_space_group_name_H-M	'P1'
_symmetry_Int_Tables_number	1
_symmetry_cell_setting	triclinic
loop_
_symmetry_equiv_pos_as_xyz
  x,y,z
_cell_length_a	13.897448
_cell_length_b	10.685909
_cell_length_c	10.686551
_cell_angle_alpha	90.350469
_cell_angle_beta	85.592616
_cell_angle_gamma	94.348259
loop_
_atom_site_label
_atom_site_type_symbol
_atom_site_fract_x
_atom_site_fract_y
_atom_site_fract_z
Zn1	Zn	-0.466500	-1.972195	-0.561925
Zn2	Zn	0.033500	-1.472195	-0.061925
Zn3	Zn	-0.639184	-1.955955	-0.352164
Zn4	Zn	-0.139184	-1.455955	0.147836
Zn5	Zn	-0.464680	-1.746320	-0.368294
Zn6	Zn	0.035320	-1.246320	0.131706
Zn7	Zn	-0.614525	-1.762393	-0.577986
Zn8	Zn	-0.114525	-1.262393	-0.077986
O9	O	-0.546222	-1.859216	-0.465092
O10	O	-0.046222	-1.359216	0.034908
O11	O	-0.500488	-2.145576	-0.520628
O12	O	-0.000488	-1.645576	-0.020628
O13	O	-0.625594	-1.914624	-0.178761
O14	O	-0.125594	-1.414624	0.321239
O15	O	-0.329943	-1.776353	-0.394008
O16	O	0.170057	-1.276353	0.105992
O17	O	-0.627358	-2.133645	-0.366517
O18	O	-0.127358	-1.633645	0.133483
O19	O	-0.331279	-1.942302	-0.536269
O20	O	0.168721	-1.442302	-0.036269
O21	O	-0.497387	-1.760606	-0.190611
O22	O	0.002613	-1.260606	0.309389
O23	O	-0.473476	-1.572917	-0.409581
O24	O	0.026524	-1.072917	0.090419
O25	O	-0.585330	-1.803746	-0.751398
O26	O	-0.085330	-1.303746	-0.251398
O27	O	-0.583566	-1.584725	-0.563641
O28	O	-0.083566	-1.084725	-0.063641
O29	O	-0.476577	-1.957887	-0.739599
O30	O	0.023423	-1.457887	-0.239599
O31	O	-0.770892	-1.930208	-0.382090
O32	O	-0.270892	-1.430208	0.117910
O33	O	-0.752775	-1.787999	-0.548001
O34	O	-0.252775	-1.287999	-0.048001
C35	C	-0.525648	-1.533307	-0.490105
C36	C	-0.025648	-1.033307	0.009895
C37	C	-0.516869	-1.393883	-0.500836
C38	C	-0.016869	-0.893883	-0.000836
C39	C	-0.796833	-1.859121	-0.465063
C40	C	-0.296833	-1.359121	0.034937
C41	C	-0.904050	-1.859199	-0.465083
C42	C	-0.404050	-1.359199	0.034917
C43	C	-1.100349	-1.859337	-0.465152
C44	C	-0.600349	-1.359337	0.034848
C45	C	-0.991114	-1.859257	-0.465118
C46	C	-0.491114	-1.359257	0.034882
C47	C	-0.294634	-1.859347	-0.465146
C48	C	0.205366	-1.359347	0.034854
C49	C	-0.187422	-1.859402	-0.465169
C50	C	0.312578	-1.359402	0.034831
C51	C	-0.528406	-1.884421	-0.792287
C52	C	-0.028406	-1.384421	-0.292287
C53	C	-0.520814	-1.895162	-0.931718
C54	C	-0.020814	-1.395162	-0.431718
C55	C	-0.566869	-1.186397	-0.439973
C56	C	-0.066869	-0.686397	0.060027
C57	C	-0.575646	-1.325820	-0.429247
C58	C	-0.075646	-0.825820	0.070753
C59	C	-0.563904	-1.834181	-0.139164
C60	C	-0.063904	-1.334181	0.360836
C61	C	-0.571240	-1.823683	0.000285
C62	C	-0.071240	-1.323683	0.500285
H63	H	-0.459831	-1.345487	-0.570342
H64	H	0.040169	-0.845487	-0.070342
H65	H	-0.620223	-1.754273	-0.951261
H66	H	-0.120223	-1.254273	-0.451261
O67	O	-0.651198	-1.389903	-0.337177
O68	O	-0.151198	-0.889903	0.162823
H69	H	-0.646461	-1.493027	-0.342906
H70	H	-0.146461	-0.993027	0.157094
H71	H	-0.471835	-1.964585	-0.980178
H72	H	0.028165	-1.464585	-0.480178
