data_functionalizedCrystal
_audit_creation_method	'MofGen! by Chris Wilmer'
_symmetry_space_group_name_H-M	'P1'
_symmetry_Int_Tables_number	1
_symmetry_cell_setting	triclinic
loop_
_symmetry_equiv_pos_as_xyz
  x,y,z
_cell_length_a	11.169416
_cell_length_b	11.169417
_cell_length_c	11.169409
_cell_angle_alpha	90.019824
_cell_angle_beta	90.030874
_cell_angle_gamma	90.011219
loop_
_atom_site_label
_atom_site_type_symbol
_atom_site_fract_x
_atom_site_fract_y
_atom_site_fract_z
Zn1	Zn	-0.477682	1.834962	0.678555
Zn2	Zn	-0.144348	2.168296	1.011888
Zn3	Zn	0.188985	2.501629	1.345222
Zn4	Zn	-0.678422	1.834852	0.477877
Zn5	Zn	-0.345089	2.168185	0.811210
Zn6	Zn	-0.011756	2.501518	1.144544
Zn7	Zn	-0.477755	1.634248	0.477889
Zn8	Zn	-0.144422	1.967582	0.811223
Zn9	Zn	0.188912	2.300915	1.144556
Zn10	Zn	-0.678325	1.634256	0.678522
Zn11	Zn	-0.344991	1.967589	1.011855
Zn12	Zn	-0.011658	2.300922	1.345189
O13	O	-0.578046	1.734579	0.578211
O14	O	-0.244713	2.067913	0.911544
O15	O	0.088621	2.401246	1.244877
O16	O	-0.504321	2.002897	0.651943
O17	O	-0.170987	2.336231	0.985277
O18	O	0.162346	2.669564	1.318610
O19	O	-0.651875	1.808192	0.309929
O20	O	-0.318542	2.141525	0.643262
O21	O	0.014792	2.474858	0.976595
O22	O	-0.309796	1.660917	0.504527
O23	O	0.023538	1.994250	0.837860
O24	O	0.356871	2.327583	1.171194
O25	O	-0.651804	2.002816	0.504506
O26	O	-0.318471	2.336149	0.837839
O27	O	0.014863	2.669483	1.171173
O28	O	-0.309742	1.808380	0.651955
O29	O	0.023592	2.141714	0.985289
O30	O	0.356925	2.475047	1.318622
O31	O	-0.504445	1.660809	0.309938
O32	O	-0.171112	1.994143	0.643271
O33	O	0.162221	2.327476	0.976605
O34	O	-0.504351	1.466300	0.504495
O35	O	-0.171017	1.799633	0.837828
O36	O	0.162316	2.132966	1.171162
O37	O	-0.651637	1.660929	0.846476
O38	O	-0.318304	1.994263	1.179809
O39	O	0.015029	2.327596	1.513143
O40	O	-0.651708	1.466305	0.651899
O41	O	-0.318375	1.799638	0.985232
O42	O	0.014958	2.132972	1.318565
O43	O	-0.504226	1.808388	0.846500
O44	O	-0.170893	2.141721	1.179834
O45	O	0.162441	2.475054	1.513167
O46	O	-0.846359	1.808199	0.504474
O47	O	-0.513026	2.141532	0.837807
O48	O	-0.179692	2.474866	1.171141
O49	O	-0.846287	1.660822	0.651887
O50	O	-0.512954	1.994155	0.985220
O51	O	-0.179621	2.327489	1.318554
C52	C	-0.578028	1.422755	0.578195
C53	C	-0.244694	1.756088	0.911529
C54	C	0.088639	2.089421	1.244862
C55	C	-0.578049	1.289355	0.578217
C56	C	-0.244716	1.622688	0.911551
C57	C	0.088618	1.956021	1.244884
C58	C	-0.889871	1.734532	0.578202
C59	C	-0.556537	2.067865	0.911535
C60	C	-0.223204	2.401199	1.244868
C61	C	-1.023271	1.734621	0.578238
C62	C	-0.689937	2.067955	0.911571
C63	C	-0.356604	2.401288	1.244905
C64	C	-0.265004	1.734660	0.578246
C65	C	0.068330	2.067993	0.911580
C66	C	0.401663	2.401327	1.244913
C67	C	-0.131604	1.734694	0.578261
C68	C	0.201730	2.068028	0.911595
C69	C	0.535063	2.401361	1.244928
C70	C	-0.577913	1.734672	0.891253
C71	C	-0.244579	2.068005	1.224587
C72	C	0.088754	2.401338	1.557920
C73	C	-0.577856	1.734711	1.024653
C74	C	-0.244523	2.068044	1.357987
C75	C	0.088811	2.401378	1.691320
C76	C	-0.578065	2.047622	0.578227
C77	C	-0.244732	2.380955	0.911560
C78	C	0.088602	2.714288	1.244894
C79	C	-0.578073	2.181022	0.578234
C80	C	-0.244740	2.514355	0.911567
C81	C	0.088593	2.847688	1.244901
C82	C	-0.578092	1.734557	0.266386
C83	C	-0.244759	2.067890	0.599719
C84	C	0.088575	2.401223	0.933053
C85	C	-0.577811	1.734750	0.132987
C86	C	-0.244477	2.068083	0.466320
C87	C	0.088856	2.401417	0.799653
