data_functionalizedCrystal
_audit_creation_method	'MofGen! by Chris Wilmer'
_symmetry_space_group_name_H-M	'P1'
_symmetry_Int_Tables_number	1
_symmetry_cell_setting	triclinic
loop_
_symmetry_equiv_pos_as_xyz
  x,y,z
_cell_length_a	12.759394
_cell_length_b	21.395362
_cell_length_c	21.395355
_cell_angle_alpha	89.956060
_cell_angle_beta	90.014577
_cell_angle_gamma	89.969284
loop_
_atom_site_label
_atom_site_type_symbol
_atom_site_fract_x
_atom_site_fract_y
_atom_site_fract_z
Zn1	Zn	-0.417943	-0.957929	0.354603
Zn2	Zn	-0.593608	-0.957860	0.249833
Zn3	Zn	-0.417992	-0.853143	0.249804
Zn4	Zn	-0.593629	-0.853142	0.354537
O5	O	-0.505793	-0.905518	0.302194
O6	O	-0.441216	-1.045597	0.340744
O7	O	-0.570323	-0.943941	0.162151
O8	O	-0.270964	-0.867073	0.263721
O9	O	-0.570276	-1.045547	0.263770
O10	O	-0.270928	-0.944058	0.340717
O11	O	-0.441299	-0.867006	0.162130
O12	O	-0.441320	-0.765465	0.263658
O13	O	-0.570313	-0.867070	0.442224
O14	O	-0.570360	-0.765464	0.340605
O15	O	-0.441237	-0.944056	0.442272
O16	O	-0.740632	-0.943940	0.263706
O17	O	-0.740647	-0.867003	0.340632
C18	C	-0.505848	-0.742731	0.302121
C19	C	-0.505897	-0.673089	0.302105
C20	C	-0.778760	-0.905481	0.302179
C21	C	-0.895537	-0.905522	0.302193
C22	C	-0.505772	-0.905570	0.465618
C23	C	-0.505762	-0.905593	0.535259
C24	C	-0.895467	-0.985696	0.222150
C25	C	-0.950293	-1.025799	0.182136
C26	C	-1.060015	-1.025836	0.182153
C27	C	-1.114913	-0.985766	0.222190
C28	C	-1.060087	-0.945663	0.262204
C29	C	-0.950363	-0.945629	0.262182
C30	C	-1.060157	-0.865493	0.342250
C31	C	-0.950435	-0.865453	0.342230
C32	C	-1.115055	-0.825424	0.382286
C33	C	-1.060229	-0.785317	0.422298
C34	C	-0.950501	-0.785281	0.422279
C35	C	-0.895609	-0.825349	0.382244
C36	C	-0.231759	-0.905573	0.302223
C37	C	-0.114983	-0.905597	0.302235
C38	C	-0.505738	-1.068942	0.302267
C39	C	-0.505714	-1.138583	0.302299
C40	C	-0.573178	-0.640392	0.342112
C41	C	-0.573152	-0.574957	0.342139
C42	C	-0.505857	-0.542221	0.302150
C43	C	-0.438564	-0.574927	0.262141
C44	C	-0.438584	-0.640361	0.262118
C45	C	-0.497393	-0.438495	0.245744
C46	C	-0.497380	-0.373062	0.245766
C47	C	-0.505788	-0.340401	0.302219
C48	C	-0.514231	-0.373180	0.358653
C49	C	-0.514252	-0.438614	0.358631
C50	C	-0.505827	-0.471269	0.302170
C51	C	-0.573044	-0.236751	0.342259
C52	C	-0.573011	-0.171314	0.342288
C53	C	-0.438429	-0.171285	0.262284
C54	C	-0.438456	-0.236720	0.262260
C55	C	-0.505770	-0.269449	0.302247
C56	C	-0.505738	-0.905503	0.139407
C57	C	-0.505451	-0.905602	0.069766
C58	C	-0.438550	-0.945678	0.567998
C59	C	-0.438505	-0.945677	0.633433
C60	C	-0.505691	-0.905597	0.666127
C61	C	-0.572908	-0.865505	0.633380
C62	C	-0.572944	-0.865502	0.567946
C63	C	-0.600292	-0.900637	0.769795
C64	C	-0.600258	-0.900644	0.835228
C65	C	-0.505580	-0.905601	0.867948
C66	C	-0.410933	-0.910565	0.835227
C67	C	-0.410968	-0.910563	0.769793
C68	C	-0.505659	-0.905595	0.737080
C69	C	-0.438313	-0.945688	0.971640
C70	C	-0.438266	-0.945682	1.037076
C71	C	-0.572679	-0.865513	1.037022
C72	C	-0.572716	-0.865515	0.971586
C73	C	-0.505535	-0.905606	0.938899
H74	H	-0.905585	-1.058425	0.149540
N75	N	-0.702418	-0.895296	0.734508
H76	H	-0.712261	-0.933464	0.707388
H77	H	-0.700971	-0.856665	0.707365
N78	N	-0.645358	-0.822265	0.668638
H79	H	-0.635135	-0.828348	0.715059
H80	H	-0.720400	-0.831992	0.657214
N81	N	-0.366074	-0.988899	0.532736
H82	H	-0.408767	-1.017925	0.505606
H83	H	-0.323492	-1.014251	0.563443
N84	N	-0.366025	-0.675630	0.218959
H85	H	-0.376254	-0.722048	0.225011
H86	H	-0.291010	-0.664239	0.228792
H87	H	-1.104936	-0.752698	0.454896
H88	H	-0.333904	-0.914603	0.743154
N89	N	-0.645149	-0.822287	1.072277
H90	H	-0.687738	-0.796894	1.041604
H91	H	-0.602377	-0.793301	1.099402
N92	N	-0.308800	-0.915905	0.870503
H93	H	-0.273041	-0.956461	0.859145
H94	H	-0.323209	-0.915121	0.916909
H95	H	-0.521123	-0.465300	0.404581
N96	N	-0.645214	-0.822290	0.936261
H97	H	-0.602534	-0.793266	0.909090
H98	H	-0.687764	-0.796936	0.966931
H99	H	-0.627675	-0.832857	0.541290
N100	N	-0.365906	-0.271998	0.219105
H101	H	-0.317293	-0.299196	0.244611
H102	H	-0.323336	-0.241298	0.193781
H103	H	-0.521076	-0.346588	0.404623
N104	N	-0.645587	-0.136044	0.385436
H105	H	-0.629400	-0.147490	0.430218
H106	H	-0.720600	-0.147403	0.375560
N107	N	-0.366008	-0.988913	0.668756
H108	H	-0.323454	-1.014308	0.638120
H109	H	-0.408759	-1.017897	0.695927
N110	N	-0.645638	-0.272057	0.385387
H111	H	-0.688252	-0.241411	0.410739
H112	H	-0.602954	-0.299259	0.414415
N113	N	-0.891380	-0.742022	0.465438
H114	H	-0.845935	-0.712980	0.439935
H115	H	-0.845841	-0.767499	0.494489
H116	H	-0.383631	-0.144633	0.229726
N117	N	-0.777268	-0.825310	0.382218
H118	H	-0.750751	-0.868279	0.393778
H119	H	-0.750946	-0.793798	0.413635
N120	N	-0.645776	-0.675692	0.385238
H121	H	-0.688394	-0.645045	0.410587
H122	H	-0.603094	-0.702892	0.414271
N123	N	-1.233397	-0.825456	0.382306
H124	H	-1.259770	-0.836965	0.425304
H125	H	-1.259718	-0.856933	0.350853
N126	N	-0.365854	-0.988923	0.936379
H127	H	-0.323261	-1.014314	0.967051
H128	H	-0.317260	-0.963429	0.909206
H129	H	-0.383527	-0.978324	1.063732
N130	N	-0.702336	-0.895295	0.870517
H131	H	-0.762318	-0.892147	0.839862
H132	H	-0.700817	-0.856692	0.897640
H133	H	-0.490512	-0.346378	0.199814
H134	H	-1.204254	-0.985805	0.222206
H135	H	-0.806126	-0.985662	0.222124
H136	H	-1.104654	-1.058494	0.149573
N137	N	-0.488319	-0.473720	0.184852
H138	H	-0.482977	-0.443028	0.149106
H139	H	-0.552327	-0.500835	0.178960
H140	H	-0.627939	-0.548329	0.374720
H141	H	-0.383770	-0.548269	0.229582
