data_functionalizedCrystal
_audit_creation_method	'MofGen! by Chris Wilmer'
_symmetry_space_group_name_H-M	'P1'
_symmetry_Int_Tables_number	1
_symmetry_cell_setting	triclinic
loop_
_symmetry_equiv_pos_as_xyz
  x,y,z
_cell_length_a	18.215407
_cell_length_b	16.959454
_cell_length_c	18.215399
_cell_angle_alpha	90.026105
_cell_angle_beta	90.016824
_cell_angle_gamma	90.020523
loop_
_atom_site_label
_atom_site_type_symbol
_atom_site_fract_x
_atom_site_fract_y
_atom_site_fract_z
Zn1	Zn	1.125075	-0.314661	0.416138
Zn2	Zn	1.458408	0.018672	0.749471
Zn3	Zn	1.791741	0.352005	1.082804
Zn4	Zn	1.125000	-0.446852	0.293080
Zn5	Zn	1.458333	-0.113519	0.626414
Zn6	Zn	1.791667	0.219814	0.959747
Zn7	Zn	1.002014	-0.314693	0.293085
Zn8	Zn	1.335347	0.018641	0.626418
Zn9	Zn	1.668680	0.351974	0.959752
Zn10	Zn	1.001983	-0.446803	0.416105
Zn11	Zn	1.335317	-0.113470	0.749439
Zn12	Zn	1.668650	0.219864	1.082772
O13	O	1.063518	-0.380752	0.354602
O14	O	1.396851	-0.047419	0.687935
O15	O	1.730185	0.285914	1.021269
O16	O	1.228049	-0.332204	0.399825
O17	O	1.561382	0.001129	0.733159
O18	O	1.894716	0.334462	1.066492
O19	O	1.108667	-0.429355	0.190097
O20	O	1.442000	-0.096022	0.523430
O21	O	1.775334	0.237312	0.856763
O22	O	1.018382	-0.204078	0.309424
O23	O	1.351715	0.129256	0.642757
O24	O	1.685049	0.462589	0.976090
O25	O	1.227994	-0.429325	0.309416
O26	O	1.561327	-0.095991	0.642749
O27	O	1.894661	0.237342	0.976083
O28	O	1.108794	-0.204055	0.399830
O29	O	1.442128	0.129279	0.733163
O30	O	1.775461	0.462612	1.066496
O31	O	1.018309	-0.332258	0.190100
O32	O	1.351643	0.001075	0.523433
O33	O	1.684976	0.334409	0.856767
O34	O	0.899025	-0.332210	0.309392
O35	O	1.232359	0.001123	0.642726
O36	O	1.565692	0.334457	0.976059
O37	O	1.018330	-0.429240	0.519094
O38	O	1.351664	-0.095907	0.852427
O39	O	1.684997	0.237427	1.185761
O40	O	0.899003	-0.429271	0.399775
O41	O	1.232337	-0.095937	0.733108
O42	O	1.565670	0.237396	1.066442
O43	O	1.108765	-0.332156	0.519118
O44	O	1.442098	0.001177	0.852451
O45	O	1.775432	0.334510	1.185784
O46	O	1.108638	-0.557457	0.309385
O47	O	1.441971	-0.224123	0.642718
O48	O	1.775304	0.109210	0.976051
O49	O	1.018258	-0.557420	0.399770
O50	O	1.351591	-0.224087	0.733104
O51	O	1.684925	0.109246	1.066437
C52	C	0.872312	-0.380739	0.354581
C53	C	1.205645	-0.047406	0.687914
C54	C	1.538978	0.285928	1.021248
C55	C	0.790513	-0.380752	0.354589
C56	C	1.123846	-0.047419	0.687923
C57	C	1.457179	0.285915	1.021256
C58	C	1.063456	-0.586119	0.354590
C59	C	1.396790	-0.252785	0.687923
C60	C	1.730123	0.080548	1.021256
C61	C	1.063497	-0.673975	0.354609
C62	C	1.396831	-0.340642	0.687942
C63	C	1.730164	-0.007309	1.021276
C64	C	0.602327	-0.431371	0.401593
C65	C	0.935660	-0.098038	0.734926
C66	C	1.268993	0.235296	1.068259
C67	C	0.525468	-0.431374	0.401602
C68	C	0.858801	-0.098040	0.734935
C69	C	1.192134	0.235293	1.068268
C70	C	0.525461	-0.330148	0.307628
C71	C	0.858795	0.003185	0.640961
C72	C	1.192128	0.336519	0.974294
C73	C	0.602319	-0.330142	0.307623
C74	C	0.935652	0.003191	0.640956
C75	C	1.268985	0.336525	0.974289
C76	C	0.640749	-0.380758	0.354604
C77	C	0.974083	-0.047425	0.687937
C78	C	1.307416	0.285909	1.021271
C79	C	0.487033	-0.380766	0.354618
C80	C	0.820367	-0.047433	0.687952
C81	C	1.153700	0.285900	1.021285
C82	C	0.403700	-0.380769	0.354628
C83	C	0.737033	-0.047435	0.687961
C84	C	1.070366	0.285898	1.021294
C85	C	0.724088	-0.380755	0.354596
C86	C	1.057422	-0.047422	0.687929
C87	C	1.390755	0.285912	1.021262
C88	C	1.016526	-1.045462	0.401661
C89	C	1.349859	-0.712128	0.734994
C90	C	1.683192	-0.378795	1.068328
C91	C	1.110715	-1.045440	0.307618
C92	C	1.444049	-0.712106	0.640952
C93	C	1.777382	-0.378773	0.974285
C94	C	1.110690	-0.962894	0.307611
C95	C	1.444023	-0.629561	0.640945
C96	C	1.777356	-0.296227	0.974278
C97	C	1.063580	-0.921628	0.354629
C98	C	1.396914	-0.588295	0.687963
C99	C	1.730247	-0.254961	1.021296
C100	C	1.016497	-0.962908	0.401654
C101	C	1.349830	-0.629575	0.734987
C102	C	1.683164	-0.296242	1.068321
C103	C	1.157767	-0.921608	0.260582
C104	C	1.491100	-0.588274	0.593916
C105	C	1.824434	-0.254941	0.927249
C106	C	1.157743	-0.839057	0.260573
C107	C	1.491076	-0.505723	0.593906
C108	C	1.824409	-0.172390	0.927240
C109	C	1.110637	-0.797789	0.307595
C110	C	1.443970	-0.464456	0.640929
C111	C	1.777303	-0.131123	0.974262
C112	C	1.063552	-0.839075	0.354622
C113	C	1.396885	-0.505741	0.687956
C114	C	1.730218	-0.172408	1.021289
C115	C	1.016442	-0.797809	0.401640
C116	C	1.349776	-0.464476	0.734974
C117	C	1.683109	-0.131142	1.068307
C118	C	0.969361	-0.839093	0.448672
C119	C	1.302694	-0.505759	0.782005
C120	C	1.636027	-0.172426	1.115339
C121	C	0.969391	-0.921641	0.448676
C122	C	1.302724	-0.588308	0.782010
C123	C	1.636057	-0.254974	1.115343
C124	C	1.110606	-0.715241	0.307591
C125	C	1.443940	-0.381908	0.640924
C126	C	1.777273	-0.048574	0.974258
C127	C	1.016414	-0.715255	0.401634
C128	C	1.349747	-0.381922	0.734967
C129	C	1.683080	-0.048589	1.068300
C130	C	1.255471	-0.380767	0.354624
C131	C	1.588804	-0.047433	0.687957
C132	C	1.922138	0.285900	1.021290
C133	C	1.337270	-0.380773	0.354633
C134	C	1.670603	-0.047439	0.687966
C135	C	2.003936	0.285894	1.021300
C136	C	1.063553	-0.380689	0.546555
C137	C	1.396886	-0.047356	0.879888
C138	C	1.730219	0.285977	1.213222
C139	C	1.063568	-0.380662	0.628354
C140	C	1.396901	-0.047329	0.961687
C141	C	1.730234	0.286004	1.295021
C142	C	1.063600	-0.174584	0.354631
C143	C	1.396933	0.158749	0.687964
C144	C	1.730267	0.492083	1.021297
C145	C	1.063635	-0.086728	0.354643
C146	C	1.396968	0.246606	0.687976
C147	C	1.730301	0.579939	1.021310
C148	C	1.063526	-0.380758	0.163396
C149	C	1.396859	-0.047425	0.496729
C150	C	1.730192	0.285908	0.830063
C151	C	1.063653	-0.380562	0.081597
C152	C	1.396987	-0.047229	0.414931
C153	C	1.730320	0.286104	0.748264
C154	C	1.016558	-0.330070	0.816551
C155	C	1.349892	0.003264	1.149884
C156	C	1.683225	0.336597	1.483217
C157	C	1.016571	-0.330054	0.893409
C158	C	1.349904	0.003280	1.226743
C159	C	1.683238	0.336613	1.560076
C160	C	1.110665	-0.431161	0.893395
C161	C	1.443998	-0.097827	1.226729
C162	C	1.777332	0.235506	1.560062
C163	C	1.110648	-0.431180	0.816538
C164	C	1.443981	-0.097847	1.149871
C165	C	1.777314	0.235487	1.483205
C166	C	1.063596	-0.380630	0.778118
C167	C	1.396929	-0.047297	1.111451
C168	C	1.730262	0.286037	1.444784
C169	C	1.063625	-0.380595	0.931834
C170	C	1.396959	-0.047261	1.265167
C171	C	1.730292	0.286072	1.598500
C172	C	1.063640	-0.380578	1.015168
C173	C	1.396973	-0.047245	1.348501
C174	C	1.730306	0.286089	1.681834
C175	C	1.063580	-0.380648	0.694779
C176	C	1.396914	-0.047314	1.028112
C177	C	1.730247	0.286019	1.361445
H178	H	0.633615	-0.472584	0.439850
H179	H	0.966948	-0.139251	0.773183
H180	H	1.300281	0.194083	1.106516
H181	H	0.494187	-0.472586	0.439866
H182	H	0.827521	-0.139253	0.773199
H183	H	1.160854	0.194080	1.106532
H184	H	0.978245	-0.288909	0.785271
H185	H	1.311578	0.044424	1.118604
H186	H	1.644912	0.377758	1.451938
F187	F	0.484554	-0.276283	0.257629
F188	F	0.817888	0.057050	0.590962
F189	F	1.151221	0.390384	0.924295
F190	F	1.160712	-0.484999	0.775632
F191	F	1.494045	-0.151665	1.108966
F192	F	1.827378	0.181668	1.442299
F193	F	1.160704	-0.671308	0.257534
F194	F	1.494037	-0.337974	0.590867
F195	F	1.827370	-0.004641	0.924200
H196	H	0.633603	-0.288922	0.269359
H197	H	0.966937	0.044411	0.602692
H198	H	1.300270	0.377745	0.936026
F199	F	0.966499	-0.276249	0.934309
F200	F	1.299833	0.057084	1.267643
F201	F	1.633166	0.390418	1.600976
H202	H	0.978054	-0.681662	0.439924
H203	H	1.311388	-0.348328	0.773258
H204	H	1.644721	-0.014995	1.106591
H205	H	0.931001	-0.805485	0.486951
H206	H	1.264334	-0.472151	0.820284
H207	H	1.597667	-0.138818	1.153618
F208	F	1.207903	-0.965529	0.210549
F209	F	1.541236	-0.632196	0.543882
F210	F	1.874570	-0.298862	0.877216
F211	F	0.919287	-0.965583	0.498725
F212	F	1.252620	-0.632250	0.832058
F213	F	1.585954	-0.298916	1.165392
H214	H	0.978195	-1.079079	0.439955
H215	H	1.311528	-0.745745	0.773288
H216	H	1.644862	-0.412412	1.106622
F217	F	1.160849	-1.089360	0.257581
F218	F	1.494182	-0.756026	0.590914
F219	F	1.827516	-0.422693	0.924248
H220	H	1.148974	-0.472316	0.924687
H221	H	1.482307	-0.138983	1.258020
H222	H	1.815640	0.194351	1.591353
F223	F	1.207855	-0.795127	0.210523
F224	F	1.541188	-0.461794	0.543857
F225	F	1.874522	-0.128460	0.877190
