data_functionalizedCrystal
_audit_creation_method	'MofGen! by Chris Wilmer'
_symmetry_space_group_name_H-M	'P1'
_symmetry_Int_Tables_number	1
_symmetry_cell_setting	triclinic
loop_
_symmetry_equiv_pos_as_xyz
  x,y,z
_cell_length_a	6.817900
_cell_length_b	15.300992
_cell_length_c	10.992410
_cell_angle_alpha	93.551494
_cell_angle_beta	108.764651
_cell_angle_gamma	104.175078
loop_
_atom_site_label
_atom_site_type_symbol
_atom_site_fract_x
_atom_site_fract_y
_atom_site_fract_z
V1	V	-4.090828	-0.124758	-0.400980
O2	O	-4.073501	0.005995	-0.392949
O3	O	-4.045389	-0.247374	-0.398621
O4	O	-4.068780	-0.122839	-0.575687
O5	O	-4.049948	-0.119402	-0.214657
V6	V	-4.570658	-0.109119	-0.378648
O7	O	-4.360188	-0.159065	-0.449968
O8	O	-4.751495	-0.074812	-0.329660
O9	O	-4.392890	0.013498	-0.381007
O10	O	-4.705381	-0.239872	-0.386679
O11	O	-4.728935	-0.114474	-0.564971
O12	O	-4.369499	-0.111038	-0.203941
C13	C	-3.890257	-0.277266	-0.392394
C14	C	-3.934567	-0.377506	-0.391629
C15	C	-3.896990	-0.411722	-0.273571
C16	C	-3.938645	-0.505909	-0.272857
C17	C	-4.017863	-0.565879	-0.390202
C18	C	-4.055448	-0.531657	-0.508269
C19	C	-4.013807	-0.437472	-0.508982
C20	C	-4.142230	-0.727969	-0.506774
C21	C	-4.183870	-0.822161	-0.506061
C22	C	-4.067068	-0.796406	-0.270649
C23	C	-4.025428	-0.702220	-0.271363
C24	C	-4.063012	-0.668005	-0.389430
C25	C	-3.920094	-0.118407	-0.618257
C26	C	-3.983371	-0.117650	-0.761083
C27	C	-3.851790	-0.110746	-0.956185
C28	C	-3.786022	-0.111908	-0.807706
C29	C	-4.164697	-0.206558	-0.838463
C30	C	-4.229158	-0.205772	-0.987027
C31	C	-4.139242	-0.033613	-0.948461
C32	C	-4.068612	-0.033192	-0.799447
C33	C	-4.211364	0.043384	-0.387231
C34	C	-4.146293	0.143624	-0.388004
C35	C	-4.181526	-0.115472	-0.161364
C36	C	-4.097487	-0.116225	-0.018536
H37	H	-3.832469	-0.362899	-0.178015
F38	F	-4.372390	-0.037833	-1.001859
H39	H	-3.908048	-0.533762	-0.176723
H40	H	-4.036459	-0.824267	-0.174514
H41	H	-3.960912	-0.653394	-0.175810
H42	H	-4.313681	-0.213970	-0.809683
H43	H	-4.201853	-0.268324	-1.033492
F44	F	-3.607623	-0.028361	-0.737724
H45	H	-3.746670	-0.046377	-0.974815
H46	H	-4.119965	-0.580493	-0.603813
F47	F	-4.089505	-0.288521	-0.805251
F48	F	-4.268337	-0.885987	-0.630958
H49	H	-4.409708	-0.213503	-1.029683
F50	F	-4.182246	-0.691558	-0.632436
F51	F	-4.053814	-0.401059	-0.634635
H52	H	-3.815709	-0.170104	-1.004362
H53	H	-3.717544	-0.172090	-0.783078
H54	H	-4.049002	0.033902	-0.968611
F55	F	-3.897505	0.052777	-0.730754
H56	H	-4.210921	-0.032148	-0.766932
