data_functionalizedCrystal
_audit_creation_method	'MofGen! by Chris Wilmer'
_symmetry_space_group_name_H-M	'P1'
_symmetry_Int_Tables_number	1
_symmetry_cell_setting	triclinic
loop_
_symmetry_equiv_pos_as_xyz
  x,y,z
_cell_length_a	17.699083
_cell_length_b	10.723023
_cell_length_c	16.176319
_cell_angle_alpha	89.994558
_cell_angle_beta	89.998611
_cell_angle_gamma	83.875281
loop_
_atom_site_label
_atom_site_type_symbol
_atom_site_fract_x
_atom_site_fract_y
_atom_site_fract_z
O1	O	1.005074	0.157797	-0.068628
O2	O	1.505074	0.657797	0.431372
O3	O	0.784825	0.178327	-0.068655
O4	O	1.284825	0.678327	0.431345
O5	O	0.900030	-0.013601	-0.068638
O6	O	1.400030	0.486399	0.431362
O7	O	0.889869	0.349726	-0.068645
O8	O	1.389869	0.849726	0.431355
O9	O	0.900014	-0.013613	0.068855
O10	O	1.400014	0.486387	0.568855
O11	O	0.784809	0.178315	0.068838
O12	O	1.284809	0.678315	0.568838
O13	O	1.005058	0.157785	0.068865
O14	O	1.505058	0.657785	0.568865
Cu15	Cu	0.894932	0.168049	0.081406
Cu16	Cu	1.394932	0.668049	0.581406
Cu17	Cu	0.894951	0.168063	-0.081196
Cu18	Cu	1.394951	0.668063	0.418804
O19	O	0.889853	0.349713	0.068848
O20	O	1.389853	0.849713	0.568848
C21	C	0.756615	0.177585	0.000088
C22	C	1.256615	0.677585	0.500088
C23	C	0.672583	0.175379	0.000078
C24	C	1.172583	0.675379	0.500078
C25	C	0.899283	-0.060094	0.000107
C26	C	1.399283	0.439906	0.500107
C27	C	0.897071	-0.198611	0.000104
C28	C	1.397071	0.301389	0.500104
C29	C	0.624673	0.288036	0.000076
C30	C	1.124673	0.788036	0.500076
C31	C	0.545716	0.285955	0.000087
C32	C	1.045716	0.785955	0.500087
C33	C	0.514672	0.171215	0.000094
C34	C	1.014672	0.671215	0.500094
C35	C	0.562589	0.058549	0.000098
C36	C	1.062589	0.558549	0.500098
C37	C	0.641544	0.060631	0.000093
C38	C	1.141544	0.560631	0.500093
C39	C	0.244173	0.050148	0.000118
C40	C	0.744173	0.550148	0.500118
C41	C	0.165212	0.048075	0.000121
C42	C	0.665212	0.548075	0.500121
C43	C	0.148345	0.275473	0.000112
C44	C	0.648345	0.775473	0.500112
C45	C	0.227300	0.277555	0.000107
C46	C	0.727300	0.777555	0.500107
C47	C	0.275210	0.164889	0.000116
C48	C	0.775210	0.664889	0.500116
C49	C	0.360823	0.167147	0.000106
C50	C	0.860823	0.667147	0.500106
C51	C	0.429060	0.168956	0.000098
C52	C	0.929060	0.668956	0.500098
C53	C	0.896076	-0.260378	0.071328
C54	C	1.396076	0.239622	0.571328
C55	C	0.893790	-0.403542	0.071326
C56	C	1.393790	0.096458	0.571326
C57	C	1.033267	0.158527	0.000120
C58	C	1.533267	0.658527	0.500120
C59	C	1.117299	0.160734	0.000125
C60	C	1.617299	0.660734	0.500125
C61	C	0.890600	0.396206	0.000101
C62	C	1.390600	0.896206	0.500101
C63	C	0.892812	0.534723	0.000099
C64	C	1.392812	1.034723	0.500099
N65	N	0.894924	0.168038	0.195771
N66	N	1.394924	0.668038	0.695771
N67	N	0.894965	0.168064	-0.195561
N68	N	1.394965	0.668064	0.304439
C69	C	0.945953	0.083087	0.239043
C70	C	1.445953	0.583087	0.739043
C71	C	0.945956	0.083086	0.325590
C72	C	1.445956	0.583086	0.825590
C73	C	0.894935	0.168042	0.368864
C74	C	1.394935	0.668042	0.868864
C75	C	0.843901	0.252998	0.325586
C76	C	1.343901	0.752998	0.825586
C77	C	0.843894	0.252992	0.239040
C78	C	1.343894	0.752992	0.739040
C79	C	0.843927	0.253021	0.674614
C80	C	1.343927	0.753021	1.174614
C81	C	0.843939	0.253022	0.761166
C82	C	1.343939	0.753022	1.261166
C83	C	0.945989	0.083115	0.761164
C84	C	1.445989	0.583115	1.261164
C85	C	0.945982	0.083109	0.674618
C86	C	1.445982	0.583109	1.174618
C87	C	0.894946	0.168059	0.631348
C88	C	1.394946	0.668059	1.131348
C89	C	0.894942	0.168058	0.537504
C90	C	1.394942	0.668058	1.037504
C91	C	0.894942	0.168050	0.462706
C92	C	1.394942	0.668050	0.962706
H93	H	0.649942	0.381471	0.000070
H94	H	1.149942	0.881471	0.500070
Cl95	Cl	0.894126	-0.383280	-0.094054
Cl96	Cl	1.394126	0.116720	0.405946
Cl97	Cl	0.266323	0.421805	0.000094
Cl98	Cl	0.766323	0.921805	0.500094
H99	H	0.987531	0.013933	0.639387
H100	H	1.487531	0.513933	1.139387
Cl101	Cl	0.897379	-0.178396	0.165480
Cl102	Cl	1.397379	0.321604	0.665480
Cl103	Cl	0.485489	0.427589	0.000079
Cl104	Cl	0.985489	0.927589	0.500079
Cl105	Cl	1.010107	-0.023713	0.379990
Cl106	Cl	1.510107	0.476287	0.879990
Cl107	Cl	0.088111	0.417112	0.000105
Cl108	Cl	0.588111	0.917112	0.500105
H109	H	0.987544	0.013939	0.796403
H110	H	1.487544	0.513939	1.296403
H111	H	0.896233	-0.251718	-0.060875
H112	H	1.396233	0.248282	0.439125
Cl113	Cl	1.010102	-0.023717	0.184650
Cl114	Cl	1.510102	0.476283	0.684650
H115	H	0.802388	0.322207	0.796398
H116	H	1.302388	0.822207	1.296398
H117	H	0.802373	0.322192	0.639391
H118	H	1.302373	0.822192	1.139391
Cl119	Cl	0.779754	0.359797	0.379986
Cl120	Cl	1.279754	0.859797	0.879986
H121	H	0.139939	-0.045366	0.000127
H122	H	0.639939	0.454634	0.500127
H123	H	0.802340	0.322166	0.203810
H124	H	1.302340	0.822166	0.703810
Cl125	Cl	0.304392	-0.091489	0.000128
Cl126	Cl	0.804392	0.408511	0.500128
Cl127	Cl	0.523561	-0.085697	0.000111
Cl128	Cl	1.023561	0.414303	0.500111
H129	H	0.680552	-0.031107	0.000094
H130	H	1.180552	0.468893	0.500094
Cl131	Cl	0.892463	-0.485544	0.165476
Cl132	Cl	1.392463	0.014456	0.665476
