data_functionalizedCrystal
_audit_creation_method	'MofGen! by Chris Wilmer'
_symmetry_space_group_name_H-M	'P1'
_symmetry_Int_Tables_number	1
_symmetry_cell_setting	triclinic
loop_
_symmetry_equiv_pos_as_xyz
  x,y,z
_cell_length_a	16.994747
_cell_length_b	19.077105
_cell_length_c	19.076919
_cell_angle_alpha	89.923776
_cell_angle_beta	92.295001
_cell_angle_gamma	92.291653
loop_
_atom_site_label
_atom_site_type_symbol
_atom_site_fract_x
_atom_site_fract_y
_atom_site_fract_z
Zn1	Zn	0.381612	1.058344	0.440556
Zn2	Zn	0.508442	1.063009	0.323095
Zn3	Zn	0.371045	0.945560	0.318345
Zn4	Zn	0.507966	0.940831	0.435847
O5	O	0.442266	1.001936	0.379461
O6	O	0.403058	1.157296	0.428932
O7	O	0.485993	1.051361	0.224132
O8	O	0.262066	0.960549	0.334540
O9	O	0.496239	1.160723	0.342634
O10	O	0.269830	1.043411	0.424327
O11	O	0.385048	0.965072	0.220642
O12	O	0.384587	0.846600	0.329974
O13	O	0.495428	0.952488	0.534805
O14	O	0.485182	0.843125	0.416302
O15	O	0.402596	1.038824	0.538264
O16	O	0.618759	1.046775	0.338069
O17	O	0.618410	0.957011	0.420907
C18	C	0.433687	0.819366	0.372112
C19	C	0.430036	0.741261	0.368985
C20	C	0.480768	0.702780	0.412392
C21	C	0.477328	0.629392	0.409457
C22	C	0.423158	0.594487	0.363111
C23	C	0.372420	0.632974	0.319703
C24	C	0.375857	0.706360	0.322642
C25	C	0.407250	0.375196	0.349513
C26	C	0.403818	0.301805	0.346576
C27	C	0.508725	0.298228	0.436331
C28	C	0.512161	0.371616	0.439263
C29	C	0.461420	0.410096	0.395857
N30	N	0.419642	0.519473	0.360109
N31	N	0.464934	0.485109	0.398864
C32	C	0.647206	1.001894	0.379491
C33	C	0.736528	1.001899	0.379489
C34	C	0.236527	1.001982	0.379427
C35	C	0.147205	1.002004	0.379413
Zn36	Zn	1.002132	0.945581	0.318326
Zn37	Zn	1.012677	1.058377	0.440526
Zn38	Zn	0.875359	0.940855	0.435836
Zn39	Zn	0.875697	1.063023	0.323072
O40	O	0.941466	1.001959	0.379440
O41	O	1.113912	0.960577	0.334513
O42	O	0.998734	1.038865	0.538237
O43	O	0.887621	0.843149	0.416300
O44	O	1.121660	1.043448	0.424292
O45	O	0.980760	0.846621	0.329965
O46	O	0.897847	0.952522	0.534792
O47	O	0.765022	0.957027	0.420902
O48	O	0.888196	1.051366	0.224110
O49	O	0.765270	1.046783	0.338054
O50	O	0.981088	0.965082	0.220623
O51	O	0.999061	1.157326	0.428894
O52	O	0.898422	1.160739	0.342602
C53	C	0.450138	0.994608	0.562744
C54	C	0.453492	0.991485	0.640848
C55	C	0.450880	1.185219	0.386838
C56	C	0.454551	1.263323	0.389982
C57	C	0.434370	1.009276	0.196892
C58	C	0.430800	1.012535	0.118794
C59	C	0.406738	1.034967	0.679344
C60	C	0.409886	1.032024	0.752731
C61	C	0.459794	0.985603	0.787621
C62	C	0.506550	0.942117	0.749120
C63	C	0.503397	0.945056	0.675734
C64	C	0.474403	0.971988	1.006907
C65	C	0.477554	0.969053	1.080298
C66	C	0.380889	1.058960	1.083904
C67	C	0.377744	1.061899	1.010517
C68	C	0.424497	1.018410	0.972022
N69	N	0.463015	0.982596	0.862634
N70	N	0.421271	1.021414	0.897010
C71	C	0.949925	1.184529	0.386774
C72	C	0.953567	1.262633	0.389932
C73	C	0.933503	1.009269	0.196157
C74	C	0.930110	1.012385	0.118052
C75	C	0.932977	0.818675	0.372080
C76	C	0.929359	0.740571	0.368943
C77	C	0.949440	0.994627	0.562009
C78	C	0.952975	0.991315	0.640105
C79	C	1.007720	1.297515	0.436305
C80	C	1.011157	1.370902	0.439273
C81	C	0.960438	1.409405	0.395869
C82	C	0.906283	1.374518	0.349490
C83	C	0.902850	1.301133	0.346520
C84	C	0.976880	0.968919	0.079554
C85	C	0.973691	0.971832	0.006166
C86	C	0.923736	1.018215	-0.028723
C87	C	0.876961	1.061683	0.009781
C88	C	0.880146	1.058765	0.083167
C89	C	0.879161	0.702081	0.412420
C90	C	0.875747	0.628693	0.409473
C91	C	0.922535	0.593797	0.363053
C92	C	0.972735	0.632293	0.319571
C93	C	0.976145	0.705679	0.322515
C94	C	0.901757	0.945130	0.674969
C95	C	0.905077	0.942005	0.748348
C96	C	0.959612	0.985070	0.786863
C97	C	1.010836	1.031258	0.751994
C98	C	1.007519	1.034378	0.678616
H99	H	0.334542	0.737691	0.287299
C100	C	1.031834	0.917887	0.117917
N101	N	1.073223	0.879444	0.146807
C102	C	0.843265	1.262770	0.295511
N103	N	0.798381	1.233879	0.257091
H104	H	1.049022	1.266175	0.471654
C105	C	0.964236	1.490132	0.399134
N106	N	0.967104	1.550935	0.401594
H107	H	0.359698	0.273387	0.308840
C108	C	0.571756	0.410006	0.490243
N109	N	0.616646	0.438921	0.528640
C110	C	0.564531	0.255893	0.484079
N111	N	0.606563	0.224006	0.520048
C112	C	0.540360	0.741168	0.463376
N113	N	0.585244	0.770080	0.501781
C114	C	0.848716	0.891200	0.786690
N115	N	0.806262	0.852937	0.815567
H116	H	1.049225	1.071993	0.650236
C117	C	1.070968	1.078487	0.794365
N118	N	1.116311	1.114012	0.826278
C119	C	1.070729	1.409264	0.490299
N120	N	1.115598	1.438155	0.528732
H121	H	0.337106	1.099702	0.982115
C122	C	1.025154	0.924015	-0.036175
N123	N	1.063918	0.888000	-0.068063
H124	H	1.017026	0.737013	0.287112
H125	H	0.834868	0.597360	0.444884
H126	H	0.962303	0.982522	0.846611
C127	C	0.822016	1.112704	-0.028608
N128	N	0.780635	1.151136	-0.057524
C129	C	0.533152	0.587065	0.457194
N130	N	0.575207	0.555186	0.493148
H131	H	0.842062	1.094164	0.114507
C132	C	0.850485	1.416882	0.301761
N133	N	0.808451	1.448793	0.265817
C134	C	0.329454	1.106786	1.126254
N135	N	0.290707	1.142807	1.158152
C136	C	0.920245	1.021419	-0.109451
N137	N	0.917620	1.023830	-0.170256
C138	C	0.532456	0.917982	1.118675
N139	N	0.573807	0.879517	1.147581
C140	C	0.827682	0.740452	0.463486
N141	N	0.788900	0.769349	0.501947
C142	C	0.351438	0.417516	0.301760
N143	N	0.309399	0.449393	0.265789
H144	H	0.857344	0.910061	0.643620
H145	H	0.366100	1.072771	0.650942
C146	C	0.312831	0.594576	0.268724
N147	N	0.267948	0.565655	0.230323
H148	H	0.512485	0.936586	0.975574
C149	C	0.358454	1.079859	0.795073
N150	N	0.319712	1.115891	0.826965
C151	C	1.024202	0.593896	0.268515
N152	N	1.062970	0.564973	0.230062
C153	C	0.561441	0.891046	0.787501
N154	N	0.602786	0.852578	0.816409
C155	C	0.554832	0.897224	0.633389
N156	N	0.593573	0.861194	0.601496
C157	C	0.918779	0.513069	0.359827
N158	N	0.915950	0.452264	0.357402
