data_functionalizedCrystal
_audit_creation_method	'MofGen! by Chris Wilmer'
_symmetry_space_group_name_H-M	'P1'
_symmetry_Int_Tables_number	1
_symmetry_cell_setting	triclinic
loop_
_symmetry_equiv_pos_as_xyz
  x,y,z
_cell_length_a	11.792254
_cell_length_b	16.109301
_cell_length_c	15.186229
_cell_angle_alpha	90.005167
_cell_angle_beta	90.003307
_cell_angle_gamma	83.830039
loop_
_atom_site_label
_atom_site_type_symbol
_atom_site_fract_x
_atom_site_fract_y
_atom_site_fract_z
O1	O	-1.505899	-0.114003	-0.073231
O2	O	-1.005899	0.385997	0.426769
O3	O	-1.175457	-0.125736	-0.073233
O4	O	-0.675457	0.374264	0.426767
O5	O	-1.349755	0.001118	-0.073223
O6	O	-0.849755	0.501118	0.426777
O7	O	-1.331600	-0.240858	-0.073241
O8	O	-0.831600	0.259142	0.426759
O9	O	-1.349743	0.001120	0.073234
O10	O	-0.849743	0.501120	0.573234
O11	O	-1.175445	-0.125735	0.073224
O12	O	-0.675445	0.374265	0.573224
O13	O	-1.505887	-0.114001	0.073226
O14	O	-1.005887	0.385999	0.573226
Zn15	Zn	-1.340664	-0.119868	0.096479
Zn16	Zn	-0.840664	0.380132	0.596479
Zn17	Zn	-1.340679	-0.119870	-0.096485
Zn18	Zn	-0.840679	0.380130	0.403515
O19	O	-1.331588	-0.240856	0.073216
O20	O	-0.831588	0.259144	0.573216
C21	C	-1.349014	0.032097	0.000006
C22	C	-0.849014	0.532097	0.500006
C23	C	-1.346809	0.124403	0.000007
C24	C	-0.846809	0.624403	0.500007
C25	C	-1.133166	-0.124996	-0.000005
C26	C	-0.633166	0.375004	0.499995
C27	C	-1.007173	-0.122784	-0.000005
C28	C	-0.507173	0.377216	0.499995
C29	C	-1.548177	-0.114741	-0.000004
C30	C	-1.048177	0.385259	0.499996
C31	C	-1.674171	-0.116954	-0.000009
C32	C	-1.174171	0.383046	0.499991
C33	C	-0.904852	-0.120987	-0.000009
C34	C	-0.404852	0.379013	0.499991
C35	C	-0.776485	-0.118739	-0.000009
C36	C	-0.276485	0.381261	0.499991
C37	C	-1.332330	-0.271835	-0.000015
C38	C	-0.832330	0.228165	0.499985
C39	C	-1.334534	-0.364141	-0.000022
C40	C	-0.834534	0.135859	0.499978
N41	N	-1.340662	-0.119866	0.228171
N42	N	-0.840662	0.380134	0.728171
C43	C	-1.445108	0.346210	-0.000006
C44	C	-0.945108	0.846210	0.499994
C45	C	-1.443027	0.432940	-0.000013
C46	C	-0.943027	0.932940	0.499987
C47	C	-1.236228	0.414046	-0.000011
C48	C	-0.736228	0.914046	0.499989
C49	C	-1.238310	0.327317	-0.000010
C50	C	-0.738310	0.827317	0.499990
C51	C	-1.342753	0.293402	-0.000003
C52	C	-0.842753	0.793402	0.499997
C53	C	-1.338591	0.466860	-0.000011
C54	C	-0.838591	0.966860	0.499989
C55	C	-1.336334	0.560897	-0.000019
C56	C	-0.836334	1.060897	0.499981
C57	C	-1.345010	0.199359	0.000003
C58	C	-0.845010	0.699359	0.500003
N59	N	-1.340691	-0.119866	-0.228178
N60	N	-0.840691	0.380134	0.271822
C61	C	-1.417868	-0.063714	0.453899
C62	C	-0.917868	0.436286	0.953899
C63	C	-1.417871	-0.063712	0.546088
C64	C	-0.917871	0.436288	1.046088
C65	C	-1.263477	-0.176020	0.546088
C66	C	-0.763477	0.323980	1.046088
C67	C	-1.263469	-0.176018	0.453900
C68	C	-0.763469	0.323982	0.953900
C69	C	-1.340670	-0.119865	0.407808
C70	C	-0.840670	0.380135	0.907808
C71	C	-1.340682	-0.119866	0.592185
C72	C	-0.840682	0.380134	1.092185
C73	C	-1.340685	-0.119864	0.692142
C74	C	-0.840685	0.380136	1.192142
C75	C	-1.340666	-0.119866	0.307845
C76	C	-0.840666	0.380134	0.807845
H77	H	-1.530152	0.318599	-0.000002
H78	H	-1.030152	0.818599	0.499998
N79	N	-1.133751	0.273368	-0.000025
N80	N	-0.633751	0.773368	0.499975
N81	N	-1.064293	0.276722	-0.061764
N82	N	-0.564293	0.776722	0.438236
H83	H	-0.990451	0.238620	-0.061779
H84	H	-0.490451	0.738620	0.438221
N85	N	-1.496663	-0.006302	0.406829
N86	N	-0.996663	0.493698	0.906829
N87	N	-1.565536	0.043864	0.447997
N88	N	-1.065536	0.543864	0.947997
H89	H	-1.621161	0.084434	0.414758
H90	H	-1.121161	0.584434	0.914758
N91	N	-1.184612	-0.233368	0.593175
N92	N	-0.684612	0.266632	1.093175
N93	N	-1.114183	-0.206638	0.644627
N94	N	-0.614183	0.293362	1.144627
H95	H	-1.058483	-0.247140	0.677881
H96	H	-0.558483	0.252860	1.177881
H97	H	-1.526375	0.475933	-0.000017
H98	H	-1.026375	0.975933	0.499983
N99	N	-1.496728	-0.006344	0.593155
N100	N	-0.996728	0.493656	1.093155
N101	N	-1.565643	0.043788	0.551986
N102	N	-1.065643	0.543788	1.051986
H103	H	-1.621339	0.084308	0.585226
H104	H	-1.121339	0.584308	1.085226
H105	H	-1.151194	0.441671	-0.000015
H106	H	-0.651194	0.941671	0.499985
H107	H	-1.200600	-0.221744	0.416371
H108	H	-0.700600	0.278256	0.916371
