data_functionalizedCrystal
_audit_creation_method	'MofGen! by Chris Wilmer'
_symmetry_space_group_name_H-M	'P1'
_symmetry_Int_Tables_number	1
_symmetry_cell_setting	triclinic
loop_
_symmetry_equiv_pos_as_xyz
  x,y,z
_cell_length_a	12.759401
_cell_length_b	12.759394
_cell_length_c	12.759393
_cell_angle_alpha	90.029526
_cell_angle_beta	90.020938
_cell_angle_gamma	90.015381
loop_
_atom_site_label
_atom_site_type_symbol
_atom_site_fract_x
_atom_site_fract_y
_atom_site_fract_z
Zn1	Zn	1.606273	-0.418173	0.594027
Zn2	Zn	1.606166	-0.593889	0.418350
Zn3	Zn	1.430571	-0.418229	0.418362
Zn4	Zn	1.430566	-0.593815	0.593988
O5	O	1.518394	-0.506026	0.506182
O6	O	1.753279	-0.441489	0.570735
O7	O	1.582831	-0.570641	0.271331
O8	O	1.453925	-0.271200	0.441686
O9	O	1.753201	-0.570587	0.441666
O10	O	1.583012	-0.271159	0.570747
O11	O	1.453822	-0.441585	0.271340
O12	O	1.283550	-0.441513	0.441648
O13	O	1.453916	-0.570462	0.741014
O14	O	1.283545	-0.570516	0.570679
O15	O	1.583007	-0.441418	0.741043
O16	O	1.582826	-0.740900	0.441627
O17	O	1.453813	-0.740846	0.570667
C18	C	1.245427	-0.506013	0.506161
C19	C	1.128650	-0.506033	0.506177
C20	C	1.073813	-0.573307	0.573258
C21	C	0.964089	-0.573311	0.573279
C22	C	0.964048	-0.438765	0.439129
C23	C	1.073770	-0.438756	0.439114
C24	C	1.518336	-0.778994	0.506165
C25	C	1.518407	-0.895771	0.506192
C26	C	1.652724	-0.895570	0.640683
C27	C	1.719916	-0.950330	0.707937
C28	C	1.719979	-1.060051	0.707960
C29	C	1.652840	-1.115015	0.640724
C30	C	1.585648	-1.060255	0.573470
C31	C	1.585595	-0.950531	0.573453
C32	C	1.451326	-1.060456	0.438986
C33	C	1.451268	-0.950734	0.438956
C34	C	1.384187	-1.115420	0.371750
C35	C	1.316999	-1.060659	0.304490
C36	C	1.316940	-0.950931	0.304469
C37	C	1.384076	-0.895974	0.371703
C38	C	1.792427	-0.506040	0.506203
C39	C	1.909204	-0.506046	0.506213
C40	C	1.518473	-0.505925	0.780215
C41	C	1.518506	-0.505882	0.896992
C42	C	1.518481	-0.231993	0.506222
C43	C	1.518518	-0.115216	0.506239
C44	C	1.518376	-0.506051	0.233214
C45	C	1.518546	-0.505798	0.116438
C46	C	1.585729	-0.438679	0.951871
C47	C	1.585747	-0.438633	1.061595
C48	C	1.451316	-0.573005	1.061552
C49	C	1.451294	-0.573044	0.951830
H50	H	0.919446	-0.628091	0.627904
C51	C	0.903673	-0.364767	0.365362
C52	C	0.918781	-0.245340	0.374148
C53	C	0.858406	-0.171341	0.300381
C54	C	0.782924	-0.216768	0.217828
C55	C	0.767812	-0.336201	0.209038
C56	C	0.828187	-0.410201	0.282806
H57	H	0.974661	-0.211706	0.435262
H58	H	0.869593	-0.082928	0.306887
H59	H	0.738231	-0.161990	0.163220
H60	H	0.711932	-0.369835	0.147925
H61	H	0.817000	-0.498613	0.276299
H62	H	1.118419	-0.383967	0.384489
H63	H	1.652690	-0.806228	0.640662
C64	C	1.377340	-0.646965	0.891450
C65	C	1.422814	-0.729473	0.816000
C66	C	1.348859	-0.803383	0.755617
C67	C	1.229429	-0.794785	0.770684
C68	C	1.183949	-0.712274	0.846137
C69	C	1.257904	-0.638365	0.906520
H70	H	1.511228	-0.735840	0.804844
H71	H	1.382527	-0.864462	0.699762
H72	H	1.174683	-0.849498	0.725985
H73	H	1.095534	-0.705907	0.857293
H74	H	1.224236	-0.577285	0.962375
C75	C	1.243155	-1.121120	0.230537
C76	C	1.251777	-1.106123	0.111104
C77	C	1.177934	-1.166589	0.037148
C78	C	1.095469	-1.242052	0.082625
C79	C	1.086845	-1.257052	0.202065
C80	C	1.160688	-1.196586	0.276021
H81	H	1.312824	-1.050258	0.077433
H82	H	1.184319	-1.155485	-0.051269
H83	H	1.040807	-1.286812	0.027879
H84	H	1.025797	-1.312917	0.235736
H85	H	1.154303	-1.207690	0.364438
H86	H	1.640455	-0.383989	0.907225
H87	H	1.774578	-0.905569	0.762682
C88	C	1.377394	-0.646888	1.121876
C89	C	1.377418	-0.646854	1.242566
C90	C	1.303497	-0.720741	1.302887
C91	C	1.229550	-0.794663	1.242519
C92	C	1.229523	-0.794700	1.121822
C93	C	1.303444	-0.720812	1.061500
H94	H	1.432160	-0.592130	1.287261
H95	H	1.303517	-0.720713	1.392235
H96	H	1.174829	-0.849359	1.287172
H97	H	1.174781	-0.849423	1.077127
H98	H	1.303423	-0.720840	0.972152
H99	H	1.118493	-0.628086	0.627867
H100	H	1.384239	-1.204761	0.371777
H101	H	1.774681	-1.104637	0.762734
H102	H	1.384039	-0.806633	0.371688
H103	H	1.652888	-1.204356	0.640757
H104	H	1.262221	-0.906351	0.249707
H105	H	1.640484	-0.383908	1.106273
