data_functionalizedCrystal
_audit_creation_method	'MofGen! by Chris Wilmer'
_symmetry_space_group_name_H-M	'P1'
_symmetry_Int_Tables_number	1
_symmetry_cell_setting	triclinic
loop_
_symmetry_equiv_pos_as_xyz
  x,y,z
_cell_length_a	27.440280
_cell_length_b	23.196402
_cell_length_c	23.196401
_cell_angle_alpha	60.007332
_cell_angle_beta	90.017084
_cell_angle_gamma	60.002720
loop_
_atom_site_label
_atom_site_type_symbol
_atom_site_fract_x
_atom_site_fract_y
_atom_site_fract_z
Zr1	Zr	0.469540	0.630912	-0.075561
O2	O	0.391713	0.751186	-0.167620
O3	O	0.493391	0.510648	-0.047343
O4	O	0.493377	0.630911	-0.167609
O5	O	0.391746	0.630921	0.047517
O6	O	0.573580	0.630899	-0.167598
O7	O	0.391727	0.630923	-0.047354
O8	O	0.573605	0.415771	0.047536
O9	O	0.391721	0.846050	-0.167616
O10	O	0.563426	0.560103	-0.035296
O11	O	0.503586	0.560110	0.035496
O12	O	0.503570	0.701704	-0.106101
O13	O	0.443730	0.701711	-0.035309
Zr14	Zr	0.597485	0.630892	0.075767
Zr15	Zr	0.597454	0.630895	-0.075542
Zr16	Zr	0.469571	0.630910	0.075748
Zr17	Zr	0.469553	0.782210	-0.075556
Zr18	Zr	0.597472	0.479595	0.075761
O19	O	0.573634	0.751157	0.047549
O20	O	0.573590	0.751161	-0.167593
O21	O	0.391756	0.751182	0.047522
O22	O	0.675312	0.510619	0.167825
O23	O	0.675269	0.510622	-0.047317
O24	O	0.493435	0.510644	0.167798
O25	O	0.675279	0.630883	-0.047312
O26	O	0.573648	0.630894	0.167815
O27	O	0.493445	0.630905	0.167803
O28	O	0.675298	0.630882	0.047559
O29	O	0.493395	0.846036	-0.167601
O30	O	0.573629	0.415769	0.167807
O31	O	0.675304	0.415755	0.167822
O32	O	0.675280	0.415757	0.047551
O33	O	0.391745	0.846048	-0.047346
O34	O	0.493420	0.846034	-0.047331
O35	O	0.563455	0.560101	0.106307
O36	O	0.623295	0.560093	0.035514
O37	O	0.563438	0.701695	-0.035291
O38	O	0.503598	0.701702	0.035502
C39	C	0.533496	0.441653	0.000096
C40	C	0.533491	0.377423	0.000093
C41	C	0.577686	0.294988	0.052360
C42	C	0.577690	0.234627	0.052367
C43	C	0.533503	0.256707	0.000095
C44	C	0.489300	0.339157	-0.052176
C45	C	0.489294	0.399515	-0.052177
C46	C	0.519733	0.201123	-0.063699
C47	C	0.519743	0.140764	-0.063698
C48	C	0.533519	0.070545	0.000098
C49	C	0.547298	0.060684	0.063898
C50	C	0.547292	0.121042	0.063897
C51	C	0.533505	0.191265	0.000091
C52	C	0.577722	-0.077343	0.052377
C53	C	0.577722	-0.137703	0.052384
C54	C	0.489334	-0.033171	-0.052165
C55	C	0.489332	0.027186	-0.052167
C56	C	0.533529	0.005095	0.000104
C57	C	0.373511	0.630925	0.000079
C58	C	0.319208	0.630932	0.000071
C59	C	0.013755	0.556974	0.037082
C60	C	-0.037263	0.556970	0.037088
O61	O	-0.037079	0.494109	0.068542
N62	N	-0.094025	0.630884	0.000128
C63	C	-0.099767	0.704807	-0.036835
O64	O	-0.152731	0.767676	-0.068272
C65	C	-0.048749	0.704810	-0.036837
C66	C	0.008012	0.630892	0.000120
C67	C	0.070513	0.483062	0.074036
C68	C	0.121528	0.483067	0.074029
C69	C	0.115785	0.556984	0.037067
C70	C	0.059027	0.630897	0.000112
C71	C	-0.054492	0.778732	-0.073795
C72	C	-0.003468	0.778730	-0.073794
C73	C	0.053293	0.704811	-0.036837
C74	C	0.104298	0.704819	-0.036857
N75	N	0.161059	0.630905	0.000103
C76	C	0.166803	0.556988	0.037065
C77	C	-0.206905	0.704793	-0.036828
C78	C	-0.257923	0.704791	-0.036831
C79	C	-0.195416	0.556954	0.037094
C80	C	-0.144398	0.556957	0.037092
C81	C	-0.150144	0.630880	0.000132
C82	C	0.273935	0.557003	0.037046
C83	C	0.324952	0.557015	0.037033
C84	C	0.262440	0.704851	-0.036888
C85	C	0.211428	0.704840	-0.036878
C86	C	0.217179	0.630910	0.000094
O87	O	0.104160	0.767648	-0.068293
O88	O	0.219769	0.494129	0.068504
C89	C	0.693514	0.630880	0.000126
C90	C	0.747816	0.630873	0.000134
C91	C	0.533474	0.630905	-0.189162
C92	C	0.533461	0.630906	-0.253396
C93	C	0.533529	0.820152	0.000110
C94	C	0.533534	0.884382	0.000112
C95	C	0.502220	0.704819	-0.320529
C96	C	0.502235	0.704820	-0.380884
C97	C	0.533483	0.630904	-0.374103
C98	C	0.564732	0.556982	-0.306958
C99	C	0.564721	0.556983	-0.246605
C100	C	0.529040	0.574279	-0.441423
C101	C	0.529047	0.574281	-0.501776
C102	C	0.533521	0.630898	-0.560250
C103	C	0.537976	0.687527	-0.558370
C104	C	0.537965	0.687528	-0.498017
C105	C	0.533499	0.630895	-0.439541
C106	C	0.502294	0.704817	-0.692829
C107	C	0.502314	0.704815	-0.753184
C108	C	0.564807	0.556975	-0.679256
C109	C	0.564792	0.556979	-0.618903
C110	C	0.533532	0.630902	-0.625695
C111	C	0.533551	0.630899	0.189367
C112	C	0.533564	0.630898	0.253602
C113	C	0.693497	0.441630	0.000119
C114	C	0.747795	0.377393	0.000125
C115	C	0.533534	0.441650	0.189360
C116	C	0.533542	0.377419	0.253592
C117	C	0.693536	0.441627	0.189384
C118	C	0.747846	0.377389	0.253624
C119	C	0.373489	0.820177	-0.189178
C120	C	0.319179	0.884416	-0.253419
C121	C	0.373527	0.820174	0.000086
C122	C	0.319230	0.884412	0.000080
C123	C	0.533490	0.820155	-0.189155
C124	C	0.533483	0.884386	-0.253387
C125	C	0.742043	0.347232	-0.036841
C126	C	0.793056	0.286882	-0.036850
C127	C	0.849821	0.256692	0.000112
C128	C	0.855572	0.286859	0.037079
C129	C	0.804559	0.347211	0.037083
C130	C	0.564796	0.347251	0.320725
C131	C	0.564801	0.286908	0.381084
C132	C	0.533555	0.256730	0.374308
C133	C	0.502296	0.286904	0.307168
C134	C	0.502289	0.347250	0.246811
C135	C	0.804592	0.347219	0.246839
C136	C	0.855627	0.286868	0.307194
C137	C	0.849915	0.256686	0.374333
C138	C	0.793163	0.286863	0.381116
C139	C	0.742129	0.347216	0.320762
C140	C	0.262433	0.914594	-0.246634
C141	C	0.211397	0.974962	-0.306988
C142	C	0.217109	1.005148	-0.374127
C143	C	0.273861	0.974968	-0.380911
C144	C	0.324895	0.914604	-0.320557
C145	C	0.324982	0.914579	0.037040
C146	C	0.273969	0.974945	0.037032
C147	C	0.217204	1.005138	0.000068
C148	C	0.211453	0.974968	-0.036896
C149	C	0.262466	0.914607	-0.036892
C150	C	0.564735	0.914544	-0.246589
C151	C	0.564740	0.974888	-0.306936
C152	C	0.533488	1.005076	-0.374081
C153	C	0.502235	0.974911	-0.380877
C154	C	0.502234	0.914565	-0.320531
H155	H	0.613680	0.167496	0.094931
H156	H	0.371169	0.496819	0.067130
H157	H	0.590175	0.496800	-0.301440
H158	H	0.590184	0.889975	-0.191922
C159	C	0.467945	0.786120	-0.827034
H160	H	0.472433	0.775534	-0.862007
H161	H	0.426838	0.816489	-0.832347
H162	H	0.483371	0.816493	-0.832313
H163	H	0.695826	0.371812	-0.066948
C164	C	0.467911	0.380424	0.172969
H165	H	0.449310	0.353799	0.177585
H166	H	0.438342	0.437405	0.147875
H167	H	0.494878	0.370515	0.147895
H168	H	0.508509	0.258300	-0.115654
C169	C	0.599167	0.380441	0.328188
H170	H	0.594694	0.420699	0.282631
H171	H	0.583740	0.403989	0.353261
H172	H	0.640275	0.337106	0.353274
H173	H	0.891354	0.207548	0.000103
H174	H	0.809254	0.371784	0.192176
H175	H	0.590251	0.496792	-0.673733
H176	H	0.257774	0.890046	-0.066987
C177	C	0.786719	0.253700	-0.077507
H178	H	0.745605	0.280317	-0.099506
H179	H	0.805308	0.263593	-0.112486
H180	H	0.805327	0.196717	-0.045601
C181	C	0.918047	0.253677	0.299719
H182	H	0.914135	0.280289	0.251088
H183	H	0.939260	0.263568	0.321719
H184	H	0.939249	0.196693	0.321729
C185	C	0.440726	-0.008872	-0.109663
H186	H	0.414402	0.048873	-0.140791
H187	H	0.458872	-0.030243	-0.135477
H188	H	0.418907	-0.030245	-0.088189
C189	C	0.149010	1.008180	-0.077547
H190	H	0.119457	1.048441	-0.072244
H191	H	0.144515	1.031729	-0.126172
H192	H	0.144531	0.964854	-0.059288
H193	H	0.891475	0.207542	0.423471
C194	C	0.810894	0.380373	0.077758
H195	H	0.852008	0.353739	0.099774
H196	H	0.792290	0.437354	0.045870
H197	H	0.792302	0.370468	0.112737
H198	H	0.590229	0.496792	-0.564240
H199	H	0.558509	0.113010	0.115845
H200	H	0.590257	0.262347	0.435746
H201	H	0.901797	0.262269	0.067172
H202	H	0.476790	0.999500	-0.435555
H203	H	0.165210	0.765031	-0.066981
H204	H	0.590189	0.999442	-0.301388
H205	H	0.613674	0.276993	0.094924
H206	H	0.788521	0.262279	0.435789
H207	H	0.558511	0.003512	0.115847
H208	H	0.533493	1.054214	-0.423213
C209	C	0.524115	0.511999	-0.377106
H210	H	0.521454	0.478283	-0.386873
H211	H	0.558425	0.479246	-0.337170
H212	H	0.489418	0.540052	-0.367606
C213	C	0.467846	0.881406	-0.328017
H214	H	0.449230	0.908038	-0.376651
H215	H	0.494802	0.824425	-0.306011
H216	H	0.438277	0.891317	-0.306021
H217	H	0.525416	0.528173	-0.503302
H218	H	0.613707	-0.095332	0.094942
C219	C	0.542898	0.749811	-0.622683
H220	H	0.545545	0.783538	-0.612921
H221	H	0.577591	0.721769	-0.632190
H222	H	0.508582	0.782563	-0.662618
H223	H	0.167741	0.422875	0.104120
C224	C	-0.009792	0.860047	-0.114454
H225	H	-0.050904	0.904063	-0.136465
H226	H	0.008821	0.863123	-0.082559
H227	H	0.008797	0.863124	-0.149436
C228	C	0.679712	0.380388	0.328235
H229	H	0.683625	0.353758	0.376866
H230	H	0.658498	0.437368	0.306229
H231	H	0.658509	0.370484	0.306231
C232	C	0.256138	0.881409	-0.172788
H233	H	0.215029	0.908043	-0.177402
H234	H	0.274737	0.824430	-0.147700
H235	H	0.274752	0.891303	-0.147710
H236	H	0.278627	0.496802	0.067153
C237	C	0.387417	0.881377	0.077704
H238	H	0.383528	0.908002	0.099706
H239	H	0.408622	0.824398	0.112682
H240	H	0.408615	0.891268	0.045804
C241	C	0.626340	-0.228385	0.109879
H242	H	0.652663	-0.232893	0.141003
H243	H	0.608202	-0.254110	0.135699
H244	H	0.648161	-0.254096	0.088404
C245	C	0.533572	0.190345	0.440705
H246	H	0.556668	0.176699	0.481655
H247	H	0.493770	0.210124	0.440713
H248	H	0.550304	0.143248	0.440716
H249	H	0.453346	0.094311	-0.094732
C250	C	0.467931	0.253702	0.299721
H251	H	0.449310	0.280312	0.251095
H252	H	0.494904	0.196720	0.321739
H253	H	0.438369	0.263603	0.321726
C254	C	0.504587	0.151615	-0.133874
H255	H	0.496371	0.202084	-0.171870
H256	H	0.537495	0.108249	-0.133148
H257	H	0.470534	0.151222	-0.139904
C258	C	0.148978	1.008143	-0.299514
H259	H	0.152890	0.981506	-0.250883
H260	H	0.127772	1.065121	-0.321510
H261	H	0.127768	0.998254	-0.321527
H262	H	0.278505	0.999553	-0.435583
H263	H	0.590162	0.496793	-0.191941
H264	H	0.175549	1.054300	-0.423266
H265	H	0.453322	0.357131	-0.094736
C266	C	0.387314	0.881383	-0.328026
H267	H	0.416895	0.841105	-0.282469
H268	H	0.391755	0.857852	-0.353108
H269	H	0.391803	0.924697	-0.353102
C270	C	0.440680	0.490197	-0.109677
H271	H	0.414365	0.494706	-0.140811
H272	H	0.418859	0.515917	-0.088212
H273	H	0.458829	0.515912	-0.135494
H274	H	0.541594	0.733636	-0.496489
C275	C	0.280306	1.008114	0.077702
H276	H	0.321420	0.981473	0.099726
H277	H	0.261708	1.065092	0.045809
H278	H	0.261706	0.998221	0.112675
H279	H	-0.098184	0.496766	0.067192
C280	C	0.076842	0.401746	0.114693
H281	H	0.117955	0.357734	0.136693
H282	H	0.058251	0.398656	0.149672
H283	H	0.058234	0.398671	0.082787
C284	C	-0.189105	0.475645	0.077761
H285	H	-0.227620	0.486235	0.072474
H286	H	-0.167913	0.445265	0.059519
H287	H	-0.167897	0.445281	0.126387
H288	H	-0.211593	0.764994	-0.066928
H289	H	0.476841	0.765009	-0.698360
H290	H	-0.100701	0.838925	-0.103889
C291	C	-0.320354	0.786101	-0.077488
H292	H	-0.316461	0.830120	-0.099496
H293	H	-0.341570	0.789179	-0.112461
H294	H	-0.341543	0.789173	-0.045581
C295	C	0.256132	0.786154	-0.077579
H296	H	0.294647	0.775563	-0.072292
H297	H	0.234923	0.816498	-0.126198
H298	H	0.234941	0.816553	-0.059348
C299	C	0.161093	1.071531	0.000070
H300	H	0.126459	1.085199	-0.027240
H301	H	0.161105	1.051744	0.047158
H302	H	0.161097	1.118616	-0.019719
C303	C	0.467861	0.786126	-0.454738
H304	H	0.449239	0.830151	-0.450138
H305	H	0.494827	0.789203	-0.479808
H306	H	0.438299	0.789189	-0.479827
H307	H	0.476768	0.765012	-0.326065
