data_functionalizedCrystal
_audit_creation_method	'MofGen! by Chris Wilmer'
_symmetry_space_group_name_H-M	'P1'
_symmetry_Int_Tables_number	1
_symmetry_cell_setting	triclinic
loop_
_symmetry_equiv_pos_as_xyz
  x,y,z
_cell_length_a	17.640280
_cell_length_b	18.215407
_cell_length_c	18.215399
_cell_angle_alpha	89.980167
_cell_angle_beta	78.775397
_cell_angle_gamma	78.800709
loop_
_atom_site_label
_atom_site_type_symbol
_atom_site_fract_x
_atom_site_fract_y
_atom_site_fract_z
Zn1	Zn	-0.314661	1.184366	-0.356963
Zn2	Zn	-0.446838	1.209181	-0.209048
Zn3	Zn	-0.314687	1.061303	-0.233905
Zn4	Zn	-0.446794	1.086163	-0.332082
O5	O	-0.380745	1.135253	-0.282999
O6	O	-0.332202	1.290643	-0.337352
O7	O	-0.429337	1.189546	-0.109356
O8	O	-0.204079	1.056838	-0.271045
O9	O	-0.429312	1.308875	-0.228680
O10	O	-0.204060	1.147252	-0.361454
O11	O	-0.332246	1.080901	-0.127618
O12	O	-0.332203	0.961615	-0.246918
O13	O	-0.429237	1.099208	-0.438372
O14	O	-0.429262	0.979879	-0.319048
O15	O	-0.332159	1.171357	-0.456652
O16	O	-0.557436	1.213652	-0.204553
O17	O	-0.557404	1.123271	-0.294945
C18	C	-0.380731	0.944044	-0.282981
C19	C	-0.380745	0.862248	-0.282987
C20	C	-0.431363	0.683598	-0.320471
C21	C	-0.431365	0.606740	-0.320479
C22	C	-0.330142	0.587662	-0.245542
C23	C	-0.330136	0.664519	-0.245538
C24	C	-0.380751	0.712485	-0.283000
C25	C	-0.380759	0.558771	-0.283013
C26	C	-0.380761	0.475438	-0.283022
C27	C	-0.380748	0.795824	-0.282993
C28	C	-0.586099	1.173871	-0.244368
C29	C	-0.673950	1.190460	-0.227866
C30	C	-0.962935	1.009534	-0.408631
C31	C	-1.045484	1.025123	-0.393101
C32	C	-1.045452	1.119295	-0.299071
C33	C	-0.962901	1.103717	-0.314596
C34	C	-0.921649	1.048835	-0.369375
C35	C	-0.921615	1.143018	-0.275340
C36	C	-0.839071	1.127438	-0.290861
C37	C	-0.797813	1.072557	-0.345636
C38	C	-0.839105	1.033255	-0.384896
C39	C	-0.962869	1.197896	-0.220557
C40	C	-0.921583	1.237196	-0.181301
C41	C	-0.839038	1.221620	-0.196825
C42	C	-0.797780	1.166739	-0.251601
C43	C	-0.797746	1.260922	-0.157566
C44	C	-0.715202	1.245342	-0.173086
C45	C	-0.715236	1.151159	-0.267122
C46	C	-0.174589	1.096504	-0.321798
C47	C	-0.086738	1.079991	-0.338331
C48	C	-0.380690	1.135288	-0.474963
C49	C	-0.380667	1.135302	-0.556766
C50	C	-0.380759	1.327209	-0.283018
C51	C	-0.380765	1.409009	-0.283027
C52	C	-0.330072	1.172878	-0.754489
C53	C	-0.330049	1.172883	-0.831352
C54	C	-0.431141	1.097755	-0.812304
C55	C	-0.431159	1.097747	-0.735444
C56	C	-0.380626	1.135313	-0.706537
C57	C	-0.380584	1.135326	-0.860261
C58	C	-0.380560	1.135330	-0.943600
C59	C	-0.380649	1.135307	-0.623194
C60	C	-0.380742	1.135250	-0.091794
C61	C	-0.380543	1.135336	-0.010033
H62	H	-0.681646	1.106474	-0.311735
H63	H	-1.030082	1.210581	-0.207924
H64	H	-0.955182	1.281879	-0.136698
C65	C	-0.843131	1.321286	-0.097307
C66	C	-0.899928	1.300144	-0.028820
C67	C	-0.945313	1.360508	0.031440
C68	C	-0.933900	1.442013	0.023214
C69	C	-0.877100	1.463159	-0.045276
C70	C	-0.831716	1.402795	-0.105537
H71	H	-0.908379	1.239805	-0.022728
H72	H	-0.987360	1.344854	0.082141
H73	H	-0.967497	1.486698	0.067822
H74	H	-0.868650	1.523497	-0.051369
H75	H	-0.789669	1.418449	-0.156237
H76	H	-1.079051	1.163978	-0.254467
C77	C	-0.487043	0.574965	-0.361694
C78	C	-0.487051	0.490427	-0.361705
C79	C	-0.542730	0.458652	-0.402922
C80	C	-0.598402	0.511416	-0.444128
C81	C	-0.598396	0.595960	-0.444118
C82	C	-0.542717	0.627734	-0.402901
H83	H	-0.445837	0.451363	-0.331201
H84	H	-0.542734	0.396067	-0.402929
H85	H	-0.639620	0.487895	-0.474639
H86	H	-0.639610	0.635024	-0.474622
H87	H	-0.542713	0.690320	-0.402894
H88	H	-0.472326	1.067151	-0.696400
H89	H	-0.288881	1.203471	-0.870391
H90	H	-0.472575	0.722651	-0.350978
H91	H	-0.288934	0.548599	-0.215039
C92	C	-0.274461	0.696302	-0.204316
C93	C	-0.308631	0.755547	-0.140061
C94	C	-0.252958	0.787332	-0.098845
C95	C	-0.163114	0.759872	-0.121884
C96	C	-0.128939	0.700623	-0.186142
C97	C	-0.184613	0.668839	-0.227359
H98	H	-0.375143	0.775878	-0.123004
H99	H	-0.278257	0.831191	-0.051277
H100	H	-0.121901	0.783401	-0.091373
H101	H	-0.062427	0.680293	-0.203200
H102	H	-0.159314	0.624979	-0.274927
C103	C	-0.486731	1.056441	-0.844102
C104	C	-0.486718	1.056452	-0.928645
C105	C	-0.542312	1.015139	-0.960440
C106	C	-0.597920	0.973816	-0.907693
C107	C	-0.597935	0.973803	-0.823145
C108	C	-0.542341	1.015116	-0.791350
H109	H	-0.445552	1.087044	-0.967696
H110	H	-0.542300	1.015149	-1.023028
H111	H	-0.639074	0.943233	-0.931230
H112	H	-0.639101	0.943212	-0.784094
H113	H	-0.542353	1.015107	-0.728762
C114	C	-0.274481	1.214193	-0.722692
C115	C	-0.274498	1.214190	-0.638148
C116	C	-0.218904	1.255504	-0.606355
C117	C	-0.163292	1.296822	-0.659104
C118	C	-0.163273	1.296827	-0.743653
C119	C	-0.218867	1.255513	-0.775446
H120	H	-0.315667	1.183602	-0.599095
H121	H	-0.218919	1.255500	-0.543766
H122	H	-0.122138	1.327405	-0.635569
H123	H	-0.122104	1.327414	-0.782706
H124	H	-0.218852	1.255517	-0.838035
C125	C	-0.707013	1.055469	-0.362715
C126	C	-0.661616	1.117646	-0.390271
C127	C	-0.570817	1.100584	-0.407350
C128	C	-0.525415	1.021347	-0.396874
C129	C	-0.570812	0.959165	-0.369316
C130	C	-0.661611	0.976227	-0.352237
H131	H	-0.695226	1.176307	-0.398027
H132	H	-0.537211	1.146616	-0.427750
H133	H	-0.458200	1.008717	-0.409517
H134	H	-0.537203	0.900504	-0.361560
H135	H	-0.695217	0.930195	-0.331837
C136	C	-0.793715	0.972885	-0.445154
C137	C	-0.805131	0.891380	-0.436924
C138	C	-0.759739	0.831012	-0.497177
C139	C	-0.702933	0.852148	-0.565660
C140	C	-0.691515	0.933656	-0.573893
C141	C	-0.736906	0.994024	-0.513640
H142	H	-0.847185	0.875731	-0.386226
H143	H	-0.768192	0.770674	-0.491082
H144	H	-0.669331	0.807459	-0.610263
H145	H	-0.649461	0.949305	-0.624591
H146	H	-0.728453	1.054362	-0.519735
C147	C	-0.917545	0.949164	-0.468889
C148	C	-0.928961	0.867660	-0.460659
C149	C	-0.883569	0.807291	-0.520912
C150	C	-0.826763	0.828427	-0.589395
C151	C	-0.815344	0.909935	-0.597628
C152	C	-0.860736	0.970304	-0.537375
H153	H	-0.971015	0.852010	-0.409961
H154	H	-0.892022	0.746953	-0.514817
H155	H	-0.793161	0.783738	-0.633997
H156	H	-0.773290	0.925584	-0.648325
H157	H	-0.852283	1.030641	-0.543470
C158	C	-1.090900	0.981889	-0.436288
C159	C	-1.045520	0.921522	-0.496540
C160	C	-1.090935	0.878288	-0.539723
C161	C	-1.181730	0.895420	-0.522653
C162	C	-1.227115	0.955790	-0.462397
C163	C	-1.181700	0.999025	-0.419215
H164	H	-0.978303	0.908837	-0.509179
H165	H	-1.057338	0.833598	-0.584328
H166	H	-1.215350	0.863415	-0.554619
H167	H	-1.294332	0.968475	-0.449758
H168	H	-1.215297	1.043714	-0.374609
C169	C	-0.669779	1.288572	-0.129911
C170	C	-0.681168	1.284771	-0.044101
C171	C	-0.635743	1.327999	-0.000923
C172	C	-0.578928	1.375028	-0.043555
C173	C	-0.567536	1.378830	-0.129369
C174	C	-0.612961	1.335602	-0.172547
H175	H	-0.723228	1.249956	-0.012538
H176	H	-0.644177	1.325184	0.062603
H177	H	-0.545302	1.407028	-0.011591
H178	H	-0.525476	1.413646	-0.160932
H179	H	-0.604528	1.338418	-0.236073
