data_functionalizedCrystal
_audit_creation_method	'MofGen! by Chris Wilmer'
_symmetry_space_group_name_H-M	'P1'
_symmetry_Int_Tables_number	1
_symmetry_cell_setting	triclinic
loop_
_symmetry_equiv_pos_as_xyz
  x,y,z
_cell_length_a	21.395364
_cell_length_b	21.295417
_cell_length_c	21.295411
_cell_angle_alpha	90.028718
_cell_angle_beta	90.016431
_cell_angle_gamma	90.045458
loop_
_atom_site_label
_atom_site_type_symbol
_atom_site_fract_x
_atom_site_fract_y
_atom_site_fract_z
Zn1	Zn	0.957810	-0.250386	0.355911
Zn2	Zn	1.457810	0.249614	0.855911
Zn3	Zn	0.957728	-0.355651	0.250637
Zn4	Zn	1.457728	0.144349	0.750637
Zn5	Zn	0.853040	-0.250427	0.250656
Zn6	Zn	1.353040	0.249573	0.750656
Zn7	Zn	0.852994	-0.355649	0.355868
Zn8	Zn	1.352994	0.144351	0.855868
O9	O	0.905393	-0.303028	0.303268
O10	O	1.405393	0.196972	0.803268
O11	O	1.045477	-0.264333	0.341956
O12	O	1.545477	0.235667	0.841956
O13	O	0.943825	-0.341711	0.162550
O14	O	1.443825	0.158289	0.662550
O15	O	0.866991	-0.162332	0.264645
O16	O	1.366991	0.337668	0.764645
O17	O	1.045416	-0.341671	0.264611
O18	O	1.545416	0.158329	0.764611
O19	O	0.943965	-0.162302	0.341975
O20	O	1.443965	0.337698	0.841975
O21	O	0.866911	-0.264403	0.162564
O22	O	1.366911	0.235597	0.662564
O23	O	0.765356	-0.264401	0.264603
O24	O	1.265356	0.235599	0.764603
O25	O	0.866914	-0.341667	0.443963
O26	O	1.366914	0.158333	0.943963
O27	O	0.765323	-0.341707	0.341902
O28	O	1.265323	0.158293	0.841902
O29	O	0.943921	-0.264331	0.443995
O30	O	1.443921	0.235669	0.943995
O31	O	0.943781	-0.443740	0.264570
O32	O	1.443781	0.056260	0.764570
O33	O	0.866834	-0.443738	0.341883
O34	O	1.366834	0.056262	0.841883
C35	C	0.742605	-0.303059	0.303250
C36	C	1.242605	0.196941	0.803250
C37	C	0.672964	-0.303087	0.303258
C38	C	1.172964	0.196913	0.803258
C39	C	0.640305	-0.262883	0.343594
C40	C	1.140305	0.237117	0.843594
C41	C	0.574869	-0.262866	0.343596
C42	C	1.074869	0.237134	0.843596
C43	C	0.542096	-0.303065	0.303269
C44	C	1.042096	0.196935	0.803269
C45	C	0.574763	-0.343271	0.262926
C46	C	1.074763	0.156729	0.762926
C47	C	0.640197	-0.343282	0.262920
C48	C	1.140197	0.156718	0.762920
C49	C	0.438372	-0.359755	0.298205
C50	C	0.938372	0.140245	0.798205
C51	C	0.372939	-0.359745	0.298215
C52	C	0.872939	0.140255	0.798215
C53	C	0.340275	-0.303030	0.303283
C54	C	0.840275	0.196970	0.803283
C55	C	0.373052	-0.246324	0.308354
C56	C	0.873052	0.253676	0.808354
C57	C	0.438486	-0.246335	0.308349
C58	C	0.938486	0.253665	0.808349
C59	C	0.471143	-0.303057	0.303271
C60	C	0.971143	0.196943	0.803271
C61	C	0.236663	-0.262805	0.343624
C62	C	0.736663	0.237195	0.843624
C63	C	0.171227	-0.262787	0.343622
C64	C	0.671227	0.237213	0.843622
C65	C	0.171121	-0.343197	0.262955
C66	C	0.671121	0.156803	0.762955
C67	C	0.236557	-0.343210	0.262954
C68	C	0.736557	0.156790	0.762954
C69	C	0.269324	-0.303014	0.303291
C70	C	0.769324	0.196986	0.803291
C71	C	0.905311	-0.466580	0.303233
C72	C	1.405311	0.033420	0.803233
C73	C	0.905333	-0.536548	0.303239
C74	C	1.405333	-0.036548	0.803239
C75	C	0.945435	-0.569394	0.263024
C76	C	1.445435	-0.069394	0.763024
C77	C	0.945464	-0.635137	0.263038
C78	C	1.445464	-0.135137	0.763038
C79	C	0.905381	-0.668030	0.303261
C80	C	1.405381	-0.168030	0.803261
C81	C	0.865276	-0.635176	0.343485
C82	C	1.365276	-0.135176	0.843485
C83	C	0.865252	-0.569435	0.343474
C84	C	1.365252	-0.069435	0.843474
N85	N	0.850570	-0.771311	0.308054
N86	N	1.350570	-0.271311	0.808054
N87	N	0.850594	-0.833762	0.308061
N88	N	1.350594	-0.333762	0.808061
C89	C	0.905451	-0.866105	0.303297
C90	C	1.405451	-0.366105	0.803297
N91	N	0.960283	-0.833637	0.298515
N92	N	1.460283	-0.333637	0.798515
N93	N	0.960258	-0.771180	0.298505
N94	N	1.460258	-0.271180	0.798505
C95	C	0.905402	-0.739316	0.303278
C96	C	1.405402	-0.239316	0.803278
C97	C	0.945588	-0.970237	0.263095
C98	C	1.445588	-0.470237	0.763095
C99	C	0.945618	-1.035981	0.263113
C100	C	1.445618	-0.535981	0.763113
C101	C	0.865424	-1.036018	0.343557
C102	C	1.365424	-0.536018	0.843557
C103	C	0.865399	-0.970276	0.343542
C104	C	1.365399	-0.470276	0.843542
C105	C	0.905480	-0.937389	0.303307
C106	C	1.405480	-0.437389	0.803307
C107	C	1.068816	-0.302998	0.303286
C108	C	1.568816	0.197002	0.803286
C109	C	1.138457	-0.302985	0.303294
C110	C	1.638457	0.197015	0.803294
C111	C	0.905422	-0.302994	0.467458
C112	C	1.405422	0.197006	0.967458
C113	C	0.905434	-0.302980	0.537427
C114	C	1.405434	0.197020	1.037427
C115	C	0.905492	-0.138838	0.303317
C116	C	1.405492	0.361162	0.803317
C117	C	0.905535	-0.068870	0.303338
C118	C	1.405535	0.431130	0.803338
C119	C	0.905400	-0.303016	0.139717
C120	C	1.405400	0.196984	0.639717
C121	C	0.905509	-0.302853	0.069749
C122	C	1.405509	0.197147	0.569749
C123	C	0.945553	-0.343104	1.036878
C124	C	1.445553	0.156896	1.536878
C125	C	0.945542	-0.343124	0.971135
C126	C	1.445542	0.156876	1.471135
C127	C	0.905493	-0.302882	0.938266
C128	C	1.405493	0.197118	1.438266
C129	C	0.865442	-0.262629	0.971145
C130	C	1.365442	0.237371	1.471145
C131	C	0.865450	-0.262614	1.036887
C132	C	1.365450	0.237386	1.536887
N133	N	0.900708	-0.247804	0.835061
N134	N	1.400708	0.252196	1.335061
N135	N	0.900704	-0.247819	0.772610
N136	N	1.400704	0.252181	1.272610
C137	C	0.905466	-0.302924	0.740191
C138	C	1.405466	0.197076	1.240191
N139	N	0.910244	-0.358014	0.772584
N140	N	1.410244	0.141986	1.272584
N141	N	0.910252	-0.357998	0.835041
N142	N	1.410252	0.142002	1.335041
C143	C	0.905480	-0.302894	0.866981
C144	C	1.405480	0.197106	1.366981
C145	C	0.945499	-0.343200	0.636035
C146	C	1.445499	0.156800	1.136035
C147	C	0.945484	-0.343222	0.570291
C148	C	1.445484	0.156778	1.070291
C149	C	0.865387	-0.262721	0.570302
C150	C	1.365387	0.237279	1.070302
C151	C	0.865400	-0.262705	0.636045
C152	C	1.365400	0.237295	1.136045
C153	C	0.905459	-0.302944	0.668907
C154	C	1.405459	0.197056	1.168907
H155	H	0.144636	-0.230044	0.376467
H156	H	0.644636	0.269956	0.876467
H157	H	0.465170	-0.200162	0.312476
H158	H	0.965170	0.299838	0.812476
Cl159	Cl	0.996042	-1.077274	0.212556
Cl160	Cl	1.496042	-0.577274	0.712556
Cl161	Cl	0.814833	-0.528140	0.394035
Cl162	Cl	1.314833	-0.028140	0.894035
H163	H	0.548074	-0.376001	0.230091
H164	H	1.048074	0.123999	0.730091
H165	H	0.548273	-0.230125	0.376441
H166	H	1.048273	0.269875	0.876441
H167	H	0.144438	-0.375928	0.230120
H168	H	0.644438	0.124072	0.730120
H169	H	0.832777	-0.229957	0.543541
H170	H	1.332777	0.270043	1.043541
H171	H	0.978089	-0.376004	0.543529
H172	H	1.478089	0.123996	1.043529
Cl173	Cl	0.681257	-0.393827	0.212207
Cl174	Cl	1.181257	0.106173	0.712207
H175	H	0.832841	-0.229836	1.063650
H176	H	1.332841	0.270164	1.563650
Cl177	Cl	0.995857	-0.393786	0.677351
Cl178	Cl	1.495857	0.106214	1.177351
H179	H	0.832742	-0.943531	0.376286
H180	H	1.332742	-0.443531	0.876286
H181	H	0.346458	-0.200141	0.312481
H182	H	0.846458	0.299859	0.812481
Cl183	Cl	0.815047	-0.212110	0.677371
Cl184	Cl	1.315047	0.287890	1.177371
Cl185	Cl	0.331741	-0.431032	0.291851
Cl186	Cl	0.831741	0.068968	0.791851
Cl187	Cl	0.681494	-0.212350	0.394302
Cl188	Cl	1.181494	0.287650	0.894302
H189	H	0.832640	-0.661962	0.376236
H190	H	1.332640	-0.161962	0.876236
Cl191	Cl	0.277859	-0.212270	0.394328
Cl192	Cl	0.777859	0.287730	0.894328
H193	H	0.464962	-0.405942	0.294078
H194	H	0.964962	0.094058	0.794078
H195	H	0.263148	-0.375951	0.230110
H196	H	0.763148	0.124049	0.730110
H197	H	0.978159	-0.375894	0.944367
H198	H	1.478159	0.124106	1.444367
H199	H	0.978073	-0.542620	0.230264
H200	H	1.478073	-0.042620	0.730264
H201	H	0.978122	-0.661886	0.230289
H202	H	1.478122	-0.161886	0.730289
H203	H	0.978171	-0.375871	1.063630
H204	H	1.478171	0.124129	1.563630
H205	H	0.832790	-1.062800	0.376310
H206	H	1.332790	-0.562800	0.876310
H207	H	0.978226	-0.943459	0.230335
H208	H	1.478226	-0.443459	0.730335
Cl209	Cl	0.815097	-0.212037	0.929825
Cl210	Cl	1.315097	0.287963	1.429825
