data_functionalizedCrystal
_audit_creation_method	'MofGen! by Chris Wilmer'
_symmetry_space_group_name_H-M	'P1'
_symmetry_Int_Tables_number	1
_symmetry_cell_setting	triclinic
loop_
_symmetry_equiv_pos_as_xyz
  x,y,z
_cell_length_a	12.837939
_cell_length_b	9.130313
_cell_length_c	12.837942
_cell_angle_alpha	90.001025
_cell_angle_beta	85.171210
_cell_angle_gamma	90.000284
loop_
_atom_site_label
_atom_site_type_symbol
_atom_site_fract_x
_atom_site_fract_y
_atom_site_fract_z
O1	O	-1.402330	0.121784	0.272131
O2	O	-1.099196	0.121790	0.258689
O3	O	-1.244041	0.121778	0.113843
O4	O	-1.257484	0.121796	0.416977
O5	O	-1.244040	-0.121821	0.113848
O6	O	-1.099194	-0.121809	0.258693
O7	O	-1.402328	-0.121815	0.272136
Cu8	Cu	-1.250761	-0.144054	0.265415
Cu9	Cu	-1.250763	0.144030	0.265410
O10	O	-1.257483	-0.121803	0.416981
C11	C	-1.060126	-0.000009	0.254150
C12	C	-0.943711	-0.000006	0.240606
C13	C	-0.718837	-0.000020	0.403436
C14	C	-0.609454	-0.000019	0.390714
C15	C	-0.615562	-0.000014	0.202443
C16	C	-0.724944	-0.000015	0.215164
C17	C	-0.776578	-0.000016	0.315664
C18	C	-0.885962	-0.000006	0.328384
C19	C	-0.892067	-0.000012	0.140114
C20	C	-0.782685	-0.000011	0.127393
N21	N	-1.250767	-0.346677	0.265418
C22	C	-1.314925	-0.423334	0.201306
C23	C	-1.314921	-0.576671	0.201294
C24	C	-1.186599	-0.576680	0.329513
C25	C	-1.186598	-0.423346	0.329520
C26	C	-1.379094	-0.346665	0.137205
C27	C	-1.443258	-0.423323	0.073089
C28	C	-1.443254	-0.576659	0.073076
C29	C	-1.379086	-0.653339	0.137179
C30	C	-0.441398	-0.000015	0.276675
C31	C	-0.557813	-0.000014	0.290222
C32	C	-1.239499	-0.000020	0.074776
C33	C	-1.225954	-0.000018	-0.041639
N34	N	-1.250764	0.346652	0.265399
C35	C	-1.388784	0.000010	-0.266513
C36	C	-1.376062	0.000012	-0.375896
C37	C	-1.187791	0.000001	-0.369788
C38	C	-1.200513	-0.000002	-0.260405
C39	C	-1.301012	0.000000	-0.208772
C40	C	-1.313733	-0.000013	-0.099388
C41	C	-1.125462	-0.000014	-0.093282
C42	C	-1.112741	-0.000011	-0.202664
C43	C	-1.262025	-0.000001	0.456048
C44	C	-1.275569	0.000006	0.572463
H45	H	-0.760878	-0.000018	0.485266
C46	C	-1.499325	0.000001	-0.209713
H47	H	-1.549778	0.000010	-0.259769
H48	H	-1.508197	-0.084948	-0.167171
H49	H	-1.508202	0.084959	-0.167169
H50	H	-0.740630	-0.000027	0.045569
C51	C	-1.077252	0.000027	-0.426592
H52	H	-1.026796	0.000038	-0.376539
H53	H	-1.068369	-0.084907	-0.469149
H54	H	-1.068391	0.085000	-0.469121
H55	H	-1.495491	-0.639072	0.020863
H56	H	-1.379106	-0.221811	0.137212
C57	C	-1.513841	-0.338982	0.002586
H58	H	-1.504665	-0.236683	0.011783
H59	H	-1.495585	-0.364096	-0.068415
H60	H	-1.584830	-0.364124	0.020912
C61	C	-1.379074	-0.822006	0.137163
H62	H	-1.331669	-0.856690	0.184520
H63	H	-1.447394	-0.856704	0.158134
H64	H	-1.358133	-0.856679	0.068824
H65	H	-1.134357	-0.639122	0.381705
H66	H	-1.030917	-0.000007	-0.244719
C67	C	-0.955584	-0.000005	0.043561
H68	H	-1.028124	-0.000012	0.065527
H69	H	-0.938908	0.084944	0.002801
H70	H	-0.938917	-0.084964	0.002796
C71	C	-1.116032	-0.339017	0.400047
H72	H	-1.077827	-0.406637	0.438234
H73	H	-1.068740	-0.279196	0.358061
H74	H	-1.158001	-0.279208	0.447371
H75	H	-1.447536	0.000025	-0.422905
H76	H	-0.562446	-0.000026	0.462188
C77	C	-0.558752	-0.000029	0.091906
H78	H	-0.485339	-0.000027	0.096906
H79	H	-0.577936	-0.084977	0.055313
H80	H	-0.577923	0.084930	0.055310
C81	C	-1.424273	-0.000010	-0.042587
H82	H	-1.419282	-0.000028	0.030828
H83	H	-1.460864	0.084941	-0.061765
H84	H	-1.460867	-0.084966	-0.061772
C85	C	-0.942758	-0.000011	0.438927
H86	H	-0.892700	-0.000028	0.489377
H87	H	-0.985302	0.084936	0.447810
H88	H	-0.985300	-0.084971	0.447797
C89	C	-1.028906	-0.000030	-0.029769
H90	H	-0.967234	-0.000044	-0.076190
H91	H	-1.029947	0.084910	0.013037
H92	H	-1.029963	-0.084997	0.013018
