data_functionalizedCrystal
_audit_creation_method	'MofGen! by Chris Wilmer'
_symmetry_space_group_name_H-M	'P1'
_symmetry_Int_Tables_number	1
_symmetry_cell_setting	triclinic
loop_
_symmetry_equiv_pos_as_xyz
  x,y,z
_cell_length_a	21.295419
_cell_length_b	18.050589
_cell_length_c	18.050582
_cell_angle_alpha	90.018205
_cell_angle_beta	90.014908
_cell_angle_gamma	90.043022
loop_
_atom_site_label
_atom_site_type_symbol
_atom_site_fract_x
_atom_site_fract_y
_atom_site_fract_z
Zn1	Zn	0.962306	-0.295413	0.419935
Zn2	Zn	1.212306	-0.045413	0.669935
Zn3	Zn	1.462306	0.204587	0.919935
Zn4	Zn	1.712306	0.454587	1.169935
Zn5	Zn	0.962230	-0.419597	0.295754
Zn6	Zn	1.212230	-0.169597	0.545754
Zn7	Zn	1.462230	0.080403	0.795754
Zn8	Zn	1.712230	0.330403	1.045754
Zn9	Zn	0.857047	-0.295457	0.295759
Zn10	Zn	1.107047	-0.045457	0.545759
Zn11	Zn	1.357047	0.204543	0.795759
Zn12	Zn	1.607047	0.454543	1.045759
Zn13	Zn	0.857003	-0.419598	0.419903
Zn14	Zn	1.107003	-0.169598	0.669903
Zn15	Zn	1.357003	0.080402	0.919903
Zn16	Zn	1.607003	0.330402	1.169903
O17	O	0.909646	-0.357516	0.357838
O18	O	1.159646	-0.107516	0.607838
O19	O	1.409646	0.142484	0.857838
O20	O	1.659646	0.392484	1.107838
O21	O	1.050385	-0.311868	0.403474
O22	O	1.300385	-0.061868	0.653474
O23	O	1.550385	0.188132	0.903474
O24	O	1.800385	0.438132	1.153474
O25	O	0.948264	-0.403147	0.191830
O26	O	1.198264	-0.153147	0.441830
O27	O	1.448264	0.096853	0.691830
O28	O	1.698264	0.346853	0.941830
O29	O	0.871060	-0.191527	0.312247
O30	O	1.121060	0.058473	0.562247
O31	O	1.371060	0.308473	0.812247
O32	O	1.621060	0.558473	1.062247
O33	O	1.050329	-0.403105	0.312239
O34	O	1.300329	-0.153105	0.562239
O35	O	1.550329	0.096895	0.812239
O36	O	1.800329	0.346895	1.062239
O37	O	0.948393	-0.191495	0.403478
O38	O	1.198393	0.058505	0.653478
O39	O	1.448393	0.308505	0.903478
O40	O	1.698393	0.558505	1.153478
O41	O	0.870986	-0.311942	0.191834
O42	O	1.120986	-0.061942	0.441834
O43	O	1.370986	0.188058	0.691834
O44	O	1.620986	0.438058	0.941834
O45	O	0.768951	-0.311944	0.312216
O46	O	1.018951	-0.061944	0.562216
O47	O	1.268951	0.188056	0.812216
O48	O	1.518951	0.438056	1.062216
O49	O	0.870984	-0.403107	0.523832
O50	O	1.120984	-0.153107	0.773832
O51	O	1.370984	0.096893	1.023832
O52	O	1.620984	0.346893	1.273832
O53	O	0.768919	-0.403149	0.403423
O54	O	1.018919	-0.153149	0.653423
O55	O	1.268919	0.096851	0.903423
O56	O	1.518919	0.346851	1.153423
O57	O	0.948350	-0.311869	0.523855
O58	O	1.198350	-0.061869	0.773855
O59	O	1.448350	0.188131	1.023855
O60	O	1.698350	0.438131	1.273855
O61	O	0.948221	-0.523521	0.312208
O62	O	1.198221	-0.273521	0.562208
O63	O	1.448221	-0.023521	0.812208
O64	O	1.698221	0.226479	1.062208
O65	O	0.870911	-0.523523	0.403419
O66	O	1.120911	-0.273523	0.653419
O67	O	1.370911	-0.023523	0.903419
O68	O	1.620911	0.226477	1.153419
C69	C	0.909570	-0.550469	0.357825
C70	C	1.159570	-0.300469	0.607825
C71	C	1.409570	-0.050469	0.857825
C72	C	1.659570	0.199531	1.107825
C73	C	0.909595	-0.633014	0.357845
C74	C	1.159595	-0.383014	0.607845
C75	C	1.409595	-0.133014	0.857845
C76	C	1.659595	0.116986	1.107845
C77	C	0.746095	-0.357552	0.357817
C78	C	0.996095	-0.107552	0.607817
C79	C	1.246095	0.142448	0.857817
C80	C	1.496095	0.392448	1.107817
C81	C	0.676126	-0.357585	0.357826
C82	C	0.926126	-0.107585	0.607826
C83	C	1.176126	0.142415	0.857826
C84	C	1.426126	0.392415	1.107826
C85	C	0.867595	-0.832492	0.407428
C86	C	1.117595	-0.582492	0.657428
C87	C	1.367595	-0.332492	0.907428
C88	C	1.617595	-0.082492	1.157428
C89	C	0.852255	-0.881931	0.339661
C90	C	1.102255	-0.631931	0.589661
C91	C	1.352255	-0.381931	0.839661
C92	C	1.602255	-0.131931	1.089661
C93	C	0.909657	-0.784145	0.357855
C94	C	1.159657	-0.534145	0.607855
C95	C	1.409657	-0.284145	0.857855
C96	C	1.659657	-0.034145	1.107855
C97	C	0.925028	-0.881788	0.425630
C98	C	1.175028	-0.631788	0.675630
C99	C	1.425028	-0.381788	0.925630
C100	C	1.675028	-0.131788	1.175630
C101	C	0.909716	-0.930130	0.357870
C102	C	1.159716	-0.680130	0.607870
C103	C	1.409716	-0.430130	0.857870
C104	C	1.659716	-0.180130	1.107870
C105	C	0.894287	-0.832496	0.290051
C106	C	1.144287	-0.582496	0.540051
C107	C	1.394287	-0.332496	0.790051
C108	C	1.644287	-0.082496	1.040051
C109	C	0.967087	-0.832348	0.376066
C110	C	1.217087	-0.582348	0.626066
C111	C	1.467087	-0.332348	0.876066
C112	C	1.717087	-0.082348	1.126066
C113	C	0.951768	-0.881764	0.308252
C114	C	1.201768	-0.631764	0.558252
C115	C	1.451768	-0.381764	0.808252
C116	C	1.701768	-0.131764	1.058252
C117	C	0.909622	-0.700046	0.357847
C118	C	1.159622	-0.450046	0.607847
C119	C	1.409622	-0.200046	0.857847
C120	C	1.659622	0.049954	1.107847
C121	C	0.909751	-1.014226	0.357870
C122	C	1.159751	-0.764226	0.607870
C123	C	1.409751	-0.514226	0.857870
C124	C	1.659751	-0.264226	1.107870
C125	C	0.643311	-0.310156	0.405405
C126	C	0.893311	-0.060156	0.655405
C127	C	1.143311	0.189844	0.905405
C128	C	1.393311	0.439844	1.155405
C129	C	0.577569	-0.310136	0.405408
C130	C	0.827569	-0.060136	0.655408
C131	C	1.077569	0.189864	0.905408
C132	C	1.327569	0.439864	1.155408
C133	C	0.544644	-0.357558	0.357839
C134	C	0.794644	-0.107558	0.607839
C135	C	1.044644	0.142442	0.857839
C136	C	1.294644	0.392442	1.107839
C137	C	0.577467	-0.404991	0.310250
C138	C	0.827467	-0.154991	0.560250
C139	C	1.077467	0.095009	0.810250
C140	C	1.327467	0.345009	1.060250
C141	C	0.643208	-0.405004	0.310244
C142	C	0.893208	-0.155004	0.560244
C143	C	1.143208	0.094996	0.810244
C144	C	1.393208	0.344996	1.060244
N145	N	0.441372	-0.422537	0.352045
N146	N	0.691372	-0.172537	0.602045
N147	N	0.941372	0.077463	0.852045
N148	N	1.191372	0.327463	1.102045
N149	N	0.378920	-0.422522	0.352056
N150	N	0.628920	-0.172522	0.602056
N151	N	0.878920	0.077478	0.852056
N152	N	1.128920	0.327478	1.102056
C153	C	0.346569	-0.357520	0.357856
C154	C	0.596569	-0.107520	0.607856
C155	C	0.846569	0.142480	0.857856
C156	C	1.096569	0.392480	1.107856
N157	N	0.379029	-0.292532	0.363659
N158	N	0.629029	-0.042532	0.613659
N159	N	0.879029	0.207468	0.863659
N160	N	1.129029	0.457468	1.113659
N161	N	0.441486	-0.292547	0.363652
N162	N	0.691486	-0.042547	0.613652
N163	N	0.941486	0.207453	0.863652
N164	N	1.191486	0.457453	1.113652
C165	C	0.473359	-0.357549	0.357841
C166	C	0.723359	-0.107549	0.607841
C167	C	0.973359	0.142451	0.857841
C168	C	1.223359	0.392451	1.107841
C169	C	0.242469	-0.310065	0.405441
C170	C	0.492469	-0.060065	0.655441
C171	C	0.742469	0.189935	0.905441
C172	C	0.992469	0.439935	1.155441
C173	C	0.176725	-0.310044	0.405438
C174	C	0.426725	-0.060044	0.655438
C175	C	0.676725	0.189956	0.905438
C176	C	0.926725	0.439956	1.155438
C177	C	0.176624	-0.404906	0.310285
C178	C	0.426624	-0.154906	0.560285
C179	C	0.676624	0.095094	0.810285
C180	C	0.926624	0.345094	1.060285
C181	C	0.242367	-0.404920	0.310283
C182	C	0.492367	-0.154920	0.560283
C183	C	0.742367	0.095080	0.810283
C184	C	0.992367	0.345080	1.060283
C185	C	0.275285	-0.357501	0.357865
C186	C	0.525285	-0.107501	0.607865
C187	C	0.775285	0.142499	0.857865
C188	C	1.025285	0.392499	1.107865
C189	C	1.073836	-0.357481	0.357859
C190	C	1.323836	-0.107481	0.607859
C191	C	1.573836	0.142519	0.857859
C192	C	1.823836	0.392519	1.107859
C193	C	1.143805	-0.357466	0.357868
C194	C	1.393805	-0.107466	0.607868
C195	C	1.643805	0.142534	0.857868
C196	C	1.893805	0.392534	1.107868
C197	C	0.909671	-0.357483	0.551543
C198	C	1.159671	-0.107483	0.801543
C199	C	1.409671	0.142517	1.051543
C200	C	1.659671	0.392517	1.301543
C201	C	0.909681	-0.357469	0.634089
C202	C	1.159681	-0.107469	0.884089
C203	C	1.409681	0.142531	1.134089
C204	C	1.659681	0.392531	1.384089
C205	C	0.909740	-0.163811	0.357866
C206	C	1.159740	0.086189	0.607866
C207	C	1.409740	0.336189	0.857866
C208	C	1.659740	0.586189	1.107866
C209	C	0.909779	-0.081265	0.357879
C210	C	1.159779	0.168735	0.607879
C211	C	1.409779	0.418735	0.857879
C212	C	1.659779	0.668735	1.107879
C213	C	0.909658	-0.357496	0.164886
C214	C	1.159658	-0.107496	0.414886
C215	C	1.409658	0.142504	0.664886
C216	C	1.659658	0.392504	0.914886
C217	C	0.909769	-0.357300	0.082340
C218	C	1.159769	-0.107300	0.332340
C219	C	1.409769	0.142700	0.582340
C220	C	1.659769	0.392700	0.832340
C221	C	0.867642	-0.407017	0.833527
C222	C	1.117642	-0.157017	1.083527
C223	C	1.367642	0.092983	1.333527
C224	C	1.617642	0.342983	1.583527
C225	C	0.925073	-0.425153	0.882920
C226	C	1.175073	-0.175153	1.132920
C227	C	1.425073	0.074847	1.382920
C228	C	1.675073	0.324847	1.632920
C229	C	0.909712	-0.357413	0.785220
C230	C	1.159712	-0.107413	1.035220
C231	C	1.409712	0.142587	1.285220
C232	C	1.659712	0.392587	1.535220
C233	C	0.852313	-0.339256	0.882909
C234	C	1.102313	-0.089256	1.132909
C235	C	1.352313	0.160744	1.382909
C236	C	1.602313	0.410744	1.632909
C237	C	0.909737	-0.357359	0.931205
C238	C	1.159737	-0.107359	1.181205
C239	C	1.409737	0.142641	1.431205
C240	C	1.659737	0.392641	1.681205
C241	C	0.967174	-0.375584	0.833525
C242	C	1.217174	-0.125584	1.083525
C243	C	1.467174	0.124416	1.333525
C244	C	1.717174	0.374416	1.583525
C245	C	0.894375	-0.289656	0.833510
C246	C	1.144375	-0.039656	1.083510
C247	C	1.394375	0.210344	1.333510
C248	C	1.644375	0.460344	1.583510
C249	C	0.951845	-0.307766	0.882880
C250	C	1.201845	-0.057766	1.132880
C251	C	1.451845	0.192234	1.382880
C252	C	1.701845	0.442234	1.632880
C253	C	0.909697	-0.357445	0.701121
C254	C	1.159697	-0.107445	0.951121
C255	C	1.409697	0.142555	1.201121
C256	C	1.659697	0.392555	1.451121
C257	C	0.909759	-0.357327	1.015301
C258	C	1.159759	-0.107327	1.265301
C259	C	1.409759	0.142673	1.515301
C260	C	1.659759	0.392673	1.765301
H261	H	0.831973	-0.810856	0.449292
H262	H	1.081973	-0.560856	0.699292
H263	H	1.331973	-0.310856	0.949292
H264	H	1.581973	-0.060856	1.199292
H265	H	0.803716	-0.903726	0.324272
H266	H	1.053716	-0.653726	0.574272
H267	H	1.303716	-0.403726	0.824272
H268	H	1.553716	-0.153726	1.074272
H269	H	0.550656	-0.443603	0.271519
H270	H	0.800656	-0.193603	0.521519
H271	H	1.050656	0.056397	0.771519
H272	H	1.300656	0.306397	1.021519
H273	H	1.015614	-0.810555	0.391488
H274	H	1.265614	-0.560555	0.641488
H275	H	1.515614	-0.310555	0.891488
H276	H	1.765614	-0.060555	1.141488
H277	H	0.881253	-0.810934	0.232725
H278	H	1.131253	-0.560934	0.482725
H279	H	1.381253	-0.310934	0.732725
H280	H	1.631253	-0.060934	0.982725
H281	H	0.550845	-0.271509	0.444152
H282	H	0.800845	-0.021509	0.694152
H283	H	1.050845	0.228491	0.944152
H284	H	1.300845	0.478491	1.194152
H285	H	0.987364	-0.903263	0.266287
H286	H	1.237364	-0.653263	0.516287
H287	H	1.487364	-0.403263	0.766287
H288	H	1.737364	-0.153263	1.016287
H289	H	0.803760	-0.323921	0.904602
H290	H	1.053760	-0.073921	1.154602
H291	H	1.303760	0.176079	1.404602
H292	H	1.553760	0.426079	1.654602
H293	H	0.938006	-0.903440	0.482940
H294	H	1.188006	-0.653440	0.732940
H295	H	1.438006	-0.403440	0.982940
H296	H	1.688006	-0.153440	1.232940
H297	H	0.670109	-0.271542	0.444150
H298	H	0.920109	-0.021542	0.694150
H299	H	1.170109	0.228458	0.944150
H300	H	1.420109	0.478458	1.194150
H301	H	0.669926	-0.443629	0.271498
H302	H	0.919926	-0.193629	0.521498
H303	H	1.169926	0.056371	0.771498
H304	H	1.419926	0.306371	1.021498
H305	H	0.987475	-0.265795	0.904413
H306	H	1.237475	-0.015795	1.154413
H307	H	1.487475	0.234205	1.404413
H308	H	1.737475	0.484205	1.654413
H309	H	1.015741	-0.390984	0.811924
H310	H	1.265741	-0.140984	1.061924
H311	H	1.515741	0.109016	1.311924
H312	H	1.765741	0.359016	1.561924
H313	H	0.269272	-0.271448	0.444180
H314	H	0.519272	-0.021448	0.694180
H315	H	0.769272	0.228552	0.944180
H316	H	1.019272	0.478552	1.194180
H317	H	0.881370	-0.232395	0.811790
H318	H	1.131370	0.017605	1.061790
H319	H	1.381370	0.267605	1.311790
H320	H	1.631370	0.517605	1.561790
H321	H	0.150008	-0.271417	0.444182
H322	H	0.400008	-0.021417	0.694182
H323	H	0.650008	0.228583	0.944182
H324	H	0.900008	0.478583	1.194182
H325	H	0.149818	-0.443518	0.271553
H326	H	0.399818	-0.193518	0.521553
H327	H	0.649818	0.056482	0.771553
H328	H	0.899818	0.306482	1.021553
H329	H	0.269085	-0.443546	0.271542
H330	H	0.519085	-0.193546	0.521542
H331	H	0.769085	0.056454	0.771542
H332	H	1.019085	0.306454	1.021542
H333	H	0.832098	-0.449020	0.811858
H334	H	1.082098	-0.199020	1.061858
H335	H	1.332098	0.050980	1.311858
H336	H	1.582098	0.300980	1.561858
H337	H	0.938061	-0.482431	0.904623
H338	H	1.188061	-0.232431	1.154623
H339	H	1.438061	0.017569	1.404623
H340	H	1.688061	0.267569	1.654623
