data_functionalizedCrystal
_audit_creation_method	'MofGen! by Chris Wilmer'
_symmetry_space_group_name_H-M	'P1'
_symmetry_Int_Tables_number	1
_symmetry_cell_setting	triclinic
loop_
_symmetry_equiv_pos_as_xyz
  x,y,z
_cell_length_a	10.654541
_cell_length_b	15.944551
_cell_length_c	9.730217
_cell_angle_alpha	89.995798
_cell_angle_beta	89.999932
_cell_angle_gamma	83.991333
loop_
_atom_site_label
_atom_site_type_symbol
_atom_site_fract_x
_atom_site_fract_y
_atom_site_fract_z
O1	O	1.666312	0.117965	-0.114251
O2	O	1.300688	0.129208	-0.114263
O3	O	1.493484	0.001369	-0.114245
O4	O	1.473516	0.245804	-0.114270
O5	O	1.493478	0.001368	0.114335
O6	O	1.300682	0.129206	0.114317
O7	O	1.666306	0.117964	0.114329
Zn8	Zn	1.483493	0.123585	0.150615
Zn9	Zn	1.483501	0.123587	-0.150549
O10	O	1.473510	0.245802	0.114310
C11	C	1.253897	0.128382	0.000025
C12	C	1.114486	0.125914	0.000021
C13	C	1.084537	0.278779	-0.000012
C14	C	1.004069	0.354048	-0.000034
C15	C	0.873081	0.351724	-0.000035
C16	C	0.822560	0.274122	-0.000010
C17	C	0.903028	0.198852	0.000012
C18	C	1.034017	0.201185	0.000009
C19	C	0.932976	0.045989	0.000055
C20	C	1.063965	0.048311	0.000046
C21	C	0.882455	-0.031613	0.000080
C22	C	0.962924	-0.106885	0.000092
C23	C	1.093919	-0.104557	0.000091
C24	C	1.144433	-0.026958	0.000068
C25	C	1.492652	-0.029930	0.000046
C26	C	1.490167	-0.123190	0.000046
C27	C	1.364722	-0.338772	0.000023
C28	C	1.422972	-0.399453	0.112729
C29	C	1.485671	-0.293942	0.000036
C30	C	1.423006	-0.399436	-0.112633
C31	C	1.481319	-0.458880	0.000019
C32	C	1.543954	-0.353395	0.112834
C33	C	1.543971	-0.353371	-0.112629
C34	C	1.602309	-0.414034	0.000104
C35	C	1.488175	-0.198925	0.000046
C36	C	1.478825	-0.553896	0.000019
C37	C	1.713097	0.118790	0.000037
C38	C	1.852508	0.121258	0.000033
C39	C	1.474342	0.277102	0.000017
C40	C	1.476827	0.370362	0.000007
N41	N	1.483497	0.123584	0.356151
N42	N	1.483507	0.123582	-0.356086
C43	C	1.654288	0.010416	0.356159
C44	C	1.739691	-0.046165	0.428102
C45	C	1.739704	-0.046166	0.571982
C46	C	1.654302	0.010420	0.643921
C47	C	1.568898	0.067001	0.571978
C48	C	1.568897	0.066997	0.428095
C49	C	1.398103	0.180163	0.571971
C50	C	1.398094	0.180169	0.428091
C51	C	1.312700	0.236748	0.643910
C52	C	1.227301	0.293335	0.571967
C53	C	1.227292	0.293334	0.428078
C54	C	1.312691	0.236750	0.356147
H55	H	0.775797	-0.033501	0.000086
O56	O	1.144397	0.348409	0.641692
C57	C	1.164815	0.431692	0.606563
H58	H	1.213219	0.431899	0.502096
H59	H	1.227317	0.458056	0.687542
C60	C	0.977852	0.486517	0.728223
C61	C	1.037293	0.486772	0.599910
H62	H	0.899192	0.520495	0.724125
H63	H	0.964097	0.430408	0.751895
H64	H	1.029950	0.508485	0.795692
H65	H	0.985202	0.464794	0.532447
H66	H	1.051035	0.542879	0.576226
H67	H	1.159430	-0.165851	0.000114
H68	H	1.312696	0.236747	0.238993
H69	H	1.654296	0.010418	0.239004
O70	O	0.913787	-0.182238	-0.000126
C71	C	0.838879	-0.188151	-0.118483
H72	H	0.869855	-0.144081	-0.201241
H73	H	0.735586	-0.169374	-0.091712
C74	C	0.816696	-0.333632	-0.070498
C75	C	0.854748	-0.279510	-0.172147
H76	H	0.826479	-0.389986	-0.103598
H77	H	0.867159	-0.329648	0.009244
H78	H	0.730621	-0.317974	-0.048198
H79	H	0.940825	-0.295161	-0.194432
H80	H	0.804300	-0.283498	-0.251894
O81	O	1.822506	-0.101128	0.358035
C82	C	1.755313	-0.153392	0.274798
H83	H	1.657016	-0.120589	0.253276
H84	H	1.746862	-0.215554	0.330201
C85	C	1.946844	-0.211110	0.164542
C86	C	1.826117	-0.170818	0.138098
H87	H	1.990520	-0.221863	0.080221
H88	H	1.992114	-0.175901	0.220623
H89	H	1.939784	-0.262907	0.210714
H90	H	1.833178	-0.119018	0.091943
H91	H	1.780849	-0.206019	0.082006
H92	H	1.809243	-0.092242	0.630559
H93	H	1.654307	0.010409	0.761076
H94	H	1.312709	0.236742	0.761065
H95	H	1.157742	0.339406	0.369509
H96	H	1.595086	-0.332944	-0.207914
O97	O	1.053355	0.429356	-0.000116
C98	C	1.186222	0.415273	-0.000075
H99	H	1.216984	0.349902	-0.043336
H100	H	1.222681	0.419561	0.109586
C101	C	1.202776	0.562694	-0.036595
C102	C	1.240557	0.482407	-0.089739
H103	H	1.236294	0.604107	-0.091898
H104	H	1.113260	0.572183	-0.036617
H105	H	1.233160	0.566255	0.054789
H106	H	1.210159	0.478844	-0.181114
H107	H	1.330069	0.472919	-0.089734
H108	H	1.191193	0.280679	-0.000042
O109	O	1.361744	-0.423747	0.226296
C110	C	1.236540	-0.385050	0.225912
H111	H	1.207397	-0.366972	0.116237
H112	H	1.229959	-0.326012	0.292705
C113	C	1.183824	-0.469158	0.418126
C114	C	1.148027	-0.446960	0.283419
H115	H	1.129224	-0.507345	0.453604
H116	H	1.268178	-0.495227	0.418388
H117	H	1.178339	-0.419954	0.473770
H118	H	1.153527	-0.496163	0.227774
H119	H	1.063671	-0.420901	0.283148
H120	H	0.807563	0.413015	-0.000043
O121	O	1.605130	-0.329259	0.226536
C122	C	1.729969	-0.368598	0.226820
H123	H	1.759311	-0.387012	0.117339
H124	H	1.735600	-0.427501	0.293891
C125	C	1.783053	-0.284508	0.418883
C126	C	1.819095	-0.307118	0.284415
H127	H	1.838031	-0.246587	0.454416
H128	H	1.698946	-0.258006	0.418696
H129	H	1.787747	-0.333600	0.474758
H130	H	1.814386	-0.258028	0.228539
H131	H	1.903204	-0.333610	0.284594
H132	H	0.715901	0.272236	0.000005
H133	H	1.251088	-0.025055	0.000051
H134	H	1.264329	-0.306045	0.000132
H135	H	1.702790	-0.446611	0.000171
H136	H	1.371836	-0.419808	-0.207924
