data_functionalizedCrystal
_audit_creation_method	'MofGen! by Chris Wilmer'
_symmetry_space_group_name_H-M	'P1'
_symmetry_Int_Tables_number	1
_symmetry_cell_setting	triclinic
loop_
_symmetry_equiv_pos_as_xyz
  x,y,z
_cell_length_a	17.019372
_cell_length_b	17.019294
_cell_length_c	15.455313
_cell_angle_alpha	88.788101
_cell_angle_beta	91.193254
_cell_angle_gamma	83.656821
loop_
_atom_site_label
_atom_site_type_symbol
_atom_site_fract_x
_atom_site_fract_y
_atom_site_fract_z
O1	O	1.046626	0.100398	-0.001519
O2	O	1.546626	0.600398	0.498481
O3	O	0.817812	0.112359	-0.019490
O4	O	1.317812	0.612359	0.480510
O5	O	0.938194	-0.008031	-0.001509
O6	O	1.438194	0.491969	0.498491
O7	O	0.926244	0.220788	-0.019500
O8	O	1.426244	0.720788	0.480500
O9	O	0.931310	-0.001175	0.141727
O10	O	1.431310	0.498825	0.641727
O11	O	0.810928	0.119215	0.123746
O12	O	1.310928	0.619215	0.623746
O13	O	1.039742	0.107254	0.141717
O14	O	1.539742	0.607254	0.641717
Cu15	Cu	0.924706	0.113861	0.145810
Cu16	Cu	1.424706	0.613861	0.645810
Cu17	Cu	0.932848	0.105753	-0.023583
Cu18	Cu	1.432848	0.605753	0.476417
O19	O	0.919359	0.227644	0.123736
O20	O	1.419359	0.727644	0.623736
C21	C	0.785084	0.115199	0.049986
C22	C	1.285084	0.615199	0.549986
C23	C	0.697823	0.113439	0.043605
C24	C	1.197823	0.613439	0.543605
C25	C	0.204485	0.103264	0.003541
C26	C	0.704485	0.603264	0.503541
C27	C	0.286476	0.104919	0.009548
C28	C	0.786476	0.604919	0.509548
C29	C	0.323710	0.109490	0.090630
C30	C	0.823710	0.609490	0.590630
C31	C	0.278950	0.112397	0.165710
C32	C	0.778950	0.612397	0.665710
C33	C	0.196962	0.110737	0.159702
C34	C	0.696962	0.610737	0.659702
C35	C	0.571075	0.114686	0.112677
C36	C	1.071075	0.614686	0.612677
C37	C	0.653069	0.116348	0.118679
C38	C	1.153069	0.616348	0.618679
C39	C	0.660589	0.108869	-0.037484
C40	C	1.160589	0.608869	0.462516
C41	C	0.578598	0.107213	-0.043485
C42	C	1.078598	0.607213	0.456515
C43	C	0.533846	0.110117	0.031595
C44	C	1.033846	0.610117	0.531595
C45	C	0.407517	0.111184	0.096773
C46	C	0.907517	0.611184	0.596773
C47	C	0.450041	0.108417	0.025452
C48	C	0.950041	0.608417	0.525452
C49	C	0.934164	-0.033889	0.072252
C50	C	1.434164	0.466111	0.572252
C51	C	0.932400	-0.121152	0.078636
C52	C	1.432400	0.378848	0.578636
C53	C	0.935325	-0.165881	0.003557
C54	C	1.435325	0.334119	0.503557
C55	C	0.933662	-0.247873	0.009558
C56	C	1.433662	0.252127	0.509558
C57	C	0.929080	-0.285135	0.090638
C58	C	1.429080	0.214865	0.590638
C59	C	0.926152	-0.240400	0.165721
C60	C	1.426152	0.259600	0.665721
C61	C	0.927809	-0.158409	0.159720
C62	C	1.427809	0.341591	0.659720
C63	C	0.923884	-0.532509	0.112665
C64	C	1.423884	-0.032509	0.612665
C65	C	0.922229	-0.614506	0.118662
C66	C	1.422229	-0.114506	0.618662
C67	C	0.929739	-0.621974	-0.037503
C68	C	1.429739	-0.121974	0.462497
C69	C	0.931400	-0.539981	-0.043497
C70	C	1.431400	-0.039981	0.456503
C71	C	0.928468	-0.495252	0.031586
C72	C	1.428468	0.004748	0.531586
C73	C	0.927383	-0.368945	0.096774
C74	C	1.427383	0.131055	0.596774
C75	C	0.930159	-0.411444	0.025449
C76	C	1.430159	0.088556	0.525449
C77	C	1.072470	0.104414	0.072239
C78	C	1.572470	0.604414	0.572239
C79	C	1.159731	0.106174	0.078615
C80	C	1.659731	0.606174	0.578615
C81	C	0.923390	0.253502	0.049973
C82	C	1.423390	0.753502	0.549973
C83	C	0.925155	0.340765	0.043584
C84	C	1.425155	0.840765	0.543584
N85	N	0.918986	0.119563	0.264952
N86	N	1.418986	0.619563	0.764952
N87	N	0.938574	0.100044	-0.142725
N88	N	1.438574	0.600044	0.357275
C89	C	0.970147	0.068436	0.317986
C90	C	1.470147	0.568436	0.817986
C91	C	0.965828	0.072756	0.408148
C92	C	1.465828	0.572756	0.908148
C93	C	0.910352	0.128206	0.445276
C94	C	1.410352	0.628206	0.945276
C95	C	0.859186	0.179336	0.392236
C96	C	1.359186	0.679336	0.892236
C97	C	0.863501	0.175012	0.302075
C98	C	1.363501	0.675012	0.802075
C99	C	0.891724	0.146849	0.714074
C100	C	1.391724	0.646849	1.214074
C101	C	0.887414	0.151171	0.804242
C102	C	1.387414	0.651171	1.304242
C103	C	0.994055	0.044589	0.820148
C104	C	1.494055	0.544589	1.320148
C105	C	0.998369	0.040273	0.729985
C106	C	1.498369	0.540273	1.229985
C107	C	0.947200	0.091400	0.676953
C108	C	1.447200	0.591400	1.176953
N109	N	0.905937	0.132625	0.537437
N110	N	1.405937	0.632625	1.037437
N111	N	0.951611	0.086977	0.584794
N112	N	1.451611	0.586977	1.084794
H113	H	0.548289	0.103490	-0.109510
H114	H	1.048289	0.603490	0.390490
H115	H	0.174175	0.099548	-0.062486
H116	H	0.674175	0.599548	0.437514
O117	O	1.021007	0.017615	0.465355
O118	O	1.521007	0.517615	0.965355
H119	H	1.057309	0.052794	0.506800
H120	H	1.557309	0.552794	1.006800
H121	H	0.923654	-0.399293	0.162789
H122	H	1.423654	0.100707	0.662789
O123	O	0.921214	-0.280596	0.253169
O124	O	1.421214	0.219404	0.753169
H125	H	0.866206	-0.256203	0.284951
H126	H	1.366206	0.243797	0.784951
O127	O	0.319108	0.117328	0.253164
O128	O	0.819108	0.617328	0.753164
H129	H	0.294681	0.172324	0.284934
H130	H	0.794681	0.672324	0.784934
O131	O	0.924664	-0.110164	0.240699
O132	O	1.424664	0.389836	0.740699
H133	H	0.869028	-0.117238	0.274789
H134	H	1.369028	0.382762	0.774789
H135	H	1.015324	0.023285	0.287763
H136	H	1.515324	0.523285	0.787763
H137	H	0.821840	0.216644	0.258896
H138	H	1.321840	0.716644	0.758896
O139	O	0.917299	-0.654707	0.206115
O140	O	1.417299	-0.154707	0.706115
H141	H	0.862852	-0.685024	0.208073
H142	H	1.362852	-0.185024	0.708073
O143	O	1.058197	-0.019541	0.689939
O144	O	1.558197	0.480459	1.189939
H145	H	1.093043	-0.054374	0.741964
H146	H	1.593043	0.445626	1.241964
H147	H	0.933885	-0.381101	-0.040566
H148	H	1.433885	0.118899	0.459434
H149	H	1.035714	0.002964	0.863335
H150	H	1.535714	0.502964	1.363335
H151	H	0.437842	0.114907	0.162790
H152	H	0.937842	0.614907	0.662790
O153	O	0.522879	0.117728	0.193701
O154	O	1.022879	0.617728	0.693701
H155	H	0.492286	0.063584	0.199188
H156	H	0.992286	0.563584	0.699188
O157	O	0.827573	0.210975	0.844297
O158	O	1.327573	0.710975	1.344297
H159	H	0.767105	0.199935	0.823211
H160	H	1.267105	0.699935	1.323211
O161	O	0.334749	0.101785	-0.071424
O162	O	0.834749	0.601785	0.428576
H163	H	0.295083	0.098339	-0.128815
H164	H	0.795083	0.598339	0.371185
O165	O	0.940259	-0.125694	-0.083896
O166	O	1.440259	0.374306	0.416104
H167	H	0.995258	-0.150103	-0.115685
H168	H	1.495258	0.349897	0.384315
O169	O	0.708863	0.105731	-0.118456
O170	O	1.208863	0.605731	0.381544
H171	H	0.669196	0.102279	-0.175846
H172	H	1.169196	0.602279	0.324154
O173	O	0.693235	0.121267	0.206136
O174	O	1.193235	0.621267	0.706136
H175	H	0.648344	0.122997	0.257336
H176	H	1.148344	0.622997	0.757336
H177	H	0.850061	0.188480	0.670902
H178	H	1.350061	0.688480	1.170902
O179	O	0.799351	0.239149	0.432274
O180	O	1.299351	0.739149	0.932274
H181	H	0.804951	0.233574	0.503879
H182	H	1.304951	0.733574	1.003879
O183	O	0.148529	0.113977	0.240561
O184	O	0.648529	0.613977	0.740561
H185	H	0.169189	0.062610	0.283796
H186	H	0.669189	0.562610	0.783796
O187	O	0.409894	0.103484	-0.062003
O188	O	0.909894	0.603484	0.437997
H189	H	0.365846	0.156074	-0.072993
H190	H	0.865846	0.656074	0.427007
H191	H	0.936048	-0.284289	-0.051578
H192	H	1.436048	0.215711	0.448422
H193	H	0.932124	-0.658400	-0.098631
H194	H	1.432124	-0.158400	0.401369
O195	O	0.936326	-0.499788	-0.130948
O196	O	1.436326	0.000212	0.369052
H197	H	0.938071	-0.544665	-0.182150
H198	H	1.438071	-0.044665	0.317850
H199	H	0.921512	-0.496102	0.173805
H200	H	1.421512	0.003898	0.673805
