data_functionalizedCrystal
_audit_creation_method	'MofGen! by Chris Wilmer'
_symmetry_space_group_name_H-M	'P1'
_symmetry_Int_Tables_number	1
_symmetry_cell_setting	triclinic
loop_
_symmetry_equiv_pos_as_xyz
  x,y,z
_cell_length_a	16.109302
_cell_length_b	10.654541
_cell_length_c	14.586319
_cell_angle_alpha	89.996435
_cell_angle_beta	89.994552
_cell_angle_gamma	83.972855
loop_
_atom_site_label
_atom_site_type_symbol
_atom_site_fract_x
_atom_site_fract_y
_atom_site_fract_z
O1	O	1.104089	0.161424	-0.076281
O2	O	1.604089	0.661424	0.423719
O3	O	0.862147	0.181511	-0.076274
O4	O	1.362147	0.681511	0.423726
O5	O	0.988682	-0.011348	-0.076272
O6	O	1.488682	0.488652	0.423728
O7	O	0.977554	0.354282	-0.076283
O8	O	1.477554	0.854282	0.423717
O9	O	0.988673	-0.011351	0.076209
O10	O	1.488673	0.488649	0.576209
O11	O	0.862138	0.181508	0.076207
O12	O	1.362138	0.681508	0.576207
O13	O	1.104080	0.161421	0.076200
O14	O	1.604080	0.661421	0.576200
Cu15	Cu	0.983108	0.171464	0.090126
Cu16	Cu	1.483108	0.671464	0.590126
Cu17	Cu	0.983119	0.171468	-0.090200
Cu18	Cu	1.483119	0.671468	0.409800
O19	O	0.977545	0.354279	0.076198
O20	O	1.477545	0.854279	0.576198
C21	C	0.831163	0.180696	-0.000033
C22	C	1.331163	0.680696	0.499967
C23	C	0.738853	0.178256	-0.000030
C24	C	1.238853	0.678256	0.499970
C25	C	0.526473	0.172612	0.083079
C26	C	1.026473	0.672612	0.583079
C27	C	0.439740	0.170306	0.083076
C28	C	0.939740	0.670306	0.583076
C29	C	0.439760	0.170316	-0.083167
C30	C	0.939760	0.670316	0.416833
C31	C	0.526493	0.172613	-0.083163
C32	C	1.026493	0.672613	0.416837
C33	C	0.569847	0.173767	-0.000038
C34	C	1.069847	0.673767	0.499962
C35	C	0.396380	0.169164	-0.000045
C36	C	0.896380	0.669164	0.499955
C37	C	0.302340	0.166664	-0.000049
C38	C	0.802340	0.666664	0.499951
C39	C	0.663894	0.176266	-0.000033
C40	C	1.163894	0.676266	0.499967
C41	C	0.987861	-0.058136	-0.000032
C42	C	1.487861	0.441864	0.499968
C43	C	0.985417	-0.197546	-0.000034
C44	C	1.485417	0.302454	0.499966
C45	C	1.136724	-0.227569	-0.000027
C46	C	1.636724	0.272431	0.499973
C47	C	1.211227	-0.308074	-0.000021
C48	C	1.711227	0.191926	0.499979
C49	C	1.208926	-0.439061	-0.000024
C50	C	1.708926	0.060939	0.499976
C51	C	1.132115	-0.489544	-0.000035
C52	C	1.632115	0.010456	0.499965
C53	C	1.057613	-0.409040	-0.000040
C54	C	1.557613	0.090960	0.499960
C55	C	1.059922	-0.278052	-0.000035
C56	C	1.559922	0.221948	0.499965
C57	C	0.906307	-0.379017	-0.000054
C58	C	1.406307	0.120983	0.499946
C59	C	0.908606	-0.248030	-0.000045
C60	C	1.408606	0.251970	0.499955
C61	C	0.829496	-0.429501	-0.000065
C62	C	1.329496	0.070499	0.499935
C63	C	0.754992	-0.348995	-0.000064
C64	C	1.254992	0.151005	0.499936
C65	C	0.757296	-0.218001	-0.000060
C66	C	1.257296	0.281999	0.499940
C67	C	0.834104	-0.167525	-0.000050
C68	C	1.334104	0.332475	0.499950
C69	C	1.135065	0.162236	-0.000044
C70	C	1.635065	0.662236	0.499956
C71	C	1.227374	0.164676	-0.000053
C72	C	1.727374	0.664676	0.499947
C73	C	0.978366	0.401068	-0.000044
C74	C	1.478366	0.901068	0.499956
C75	C	0.980810	0.540478	-0.000049
C76	C	1.480810	1.040478	0.499951
N77	N	0.983107	0.171461	0.216958
N78	N	1.483107	0.671461	0.716958
N79	N	0.983127	0.171461	-0.217032
N80	N	1.483127	0.671461	0.282968
C81	C	1.039156	0.086092	0.451965
C82	C	1.539156	0.586092	0.951965
C83	C	1.039158	0.086089	0.547946
C84	C	1.539158	0.586089	1.047946
C85	C	0.927072	0.256834	0.547954
C86	C	1.427072	0.756834	1.047954
C87	C	0.927066	0.256830	0.451975
C88	C	1.427066	0.756830	0.951975
C89	C	0.983113	0.171460	0.403983
C90	C	1.483113	0.671460	0.903983
C91	C	0.983121	0.171461	0.595943
C92	C	1.483121	0.671461	1.095943
C93	C	0.983123	0.171459	0.700010
C94	C	1.483123	0.671459	1.200010
C95	C	0.983110	0.171461	0.299909
C96	C	1.483110	0.671461	0.799909
H97	H	0.404429	0.169366	0.150757
H98	H	0.904429	0.669366	0.650757
Cl99	Cl	0.826604	-0.594171	-0.000127
Cl100	Cl	1.326604	-0.094171	0.499873
H101	H	0.696627	-0.152460	-0.000068
H102	H	1.196627	0.347540	0.499932
Cl103	Cl	1.129225	-0.654215	-0.000101
Cl104	Cl	1.629225	-0.154215	0.499899
Cl105	Cl	1.302586	-0.540271	-0.000025
Cl106	Cl	1.802586	-0.040271	0.499975
Cl107	Cl	1.139623	-0.062900	-0.000002
Cl108	Cl	1.639623	0.437100	0.499998
Cl109	Cl	0.580973	0.174056	0.187579
Cl110	Cl	1.080973	0.674056	0.687579
Cl111	Cl	1.307784	-0.244603	-0.000013
Cl112	Cl	1.807784	0.255397	0.499987
H113	H	0.404450	0.169377	-0.150845
H114	H	0.904450	0.669377	0.349155
H115	H	0.881441	0.326342	0.587039
H116	H	1.381441	0.826342	1.087039
H117	H	0.561809	0.173550	-0.150851
H118	H	1.061809	0.673550	0.349149
Cl119	Cl	0.658441	-0.412467	-0.000089
Cl120	Cl	1.158441	0.087533	0.499911
H121	H	0.881426	0.326348	0.412905
H122	H	1.381426	0.826348	0.912905
H123	H	0.835987	-0.060871	-0.000041
H124	H	1.335987	0.439129	0.499959
H125	H	1.084792	0.016573	0.587011
H126	H	1.584792	0.516573	1.087011
H127	H	1.084791	0.016577	0.412892
H128	H	1.584791	0.516577	0.912892
