data_functionalizedCrystal
_audit_creation_method	'MofGen! by Chris Wilmer'
_symmetry_space_group_name_H-M	'P1'
_symmetry_Int_Tables_number	1
_symmetry_cell_setting	triclinic
loop_
_symmetry_equiv_pos_as_xyz
  x,y,z
_cell_length_a	8.559649
_cell_length_b	7.681481
_cell_length_c	8.559649
_cell_angle_alpha	94.930900
_cell_angle_beta	69.778664
_cell_angle_gamma	85.086760
loop_
_atom_site_label
_atom_site_type_symbol
_atom_site_fract_x
_atom_site_fract_y
_atom_site_fract_z
O1	O	2.109661	0.146402	-0.037797
O2	O	2.609661	0.646402	0.462203
O3	O	1.634175	0.146408	0.045985
O4	O	2.134175	0.646408	0.545985
O5	O	1.913809	0.146402	-0.233649
O6	O	2.413809	0.646402	0.266351
O7	O	1.830027	0.146407	0.241837
O8	O	2.330027	0.646407	0.741837
O9	O	1.948236	-0.146456	-0.268136
O10	O	2.448236	0.353544	0.231864
O11	O	1.668602	-0.146450	0.011497
O12	O	2.168602	0.353550	0.511497
O13	O	2.144088	-0.146457	-0.072285
O14	O	2.644088	0.353543	0.427715
Zn15	Zn	1.911811	-0.192951	-0.035869
Zn16	Zn	2.411811	0.307049	0.464131
Zn17	Zn	1.866452	0.192902	0.009570
Zn18	Zn	2.366452	0.692902	0.509570
O19	O	1.864454	-0.146451	0.207349
O20	O	2.364454	0.353549	0.707349
C21	C	1.591080	-0.000020	0.035090
C22	C	2.091080	0.499980	0.535090
C23	C	1.411380	-0.000017	0.053990
C24	C	1.911380	0.499983	0.553990
N25	N	1.942779	-0.456286	-0.066883
N26	N	2.442779	0.043714	0.433117
C27	C	2.187183	-0.000025	-0.061390
C28	C	2.687183	0.499975	0.438610
C29	C	2.366881	-0.000016	-0.080288
C30	C	2.866881	0.499984	0.419712
C31	C	1.937371	-0.000024	-0.311201
C32	C	2.437371	0.499976	0.188799
C33	C	1.956269	-0.000014	-0.490899
C34	C	2.456269	0.499986	0.009101
N35	N	1.835499	0.456237	0.040569
N36	N	2.335499	0.956237	0.540569
C37	C	1.840891	-0.000021	0.284902
C38	C	2.340891	0.499979	0.784902
C39	C	1.821992	-0.000019	0.464601
C40	C	2.321992	0.499981	0.964601
H41	H	1.466259	-0.000009	-0.209706
H42	H	1.966259	0.499991	0.290294
Br43	Br	2.125339	-0.581625	-0.249679
Br44	Br	2.625339	-0.081625	0.250321
Br45	Br	1.245736	0.000010	0.269720
Br46	Br	1.745736	0.500010	0.769720
Br47	Br	1.652970	-0.418430	0.223379
Br48	Br	2.152970	0.081570	0.723379
Br49	Br	1.606275	-0.000027	-0.369766
Br50	Br	2.106275	0.499973	0.130234
H51	H	2.085699	-0.000030	-0.590289
H52	H	2.585699	0.499970	-0.090289
