data_functionalizedCrystal
_audit_creation_method	'MofGen! by Chris Wilmer'
_symmetry_space_group_name_H-M	'P1'
_symmetry_Int_Tables_number	1
_symmetry_cell_setting	triclinic
loop_
_symmetry_equiv_pos_as_xyz
  x,y,z
_cell_length_a	11.792241
_cell_length_b	13.330367
_cell_length_c	11.792254
_cell_angle_alpha	90.004796
_cell_angle_beta	95.803993
_cell_angle_gamma	89.996651
loop_
_atom_site_label
_atom_site_type_symbol
_atom_site_fract_x
_atom_site_fract_y
_atom_site_fract_z
O1	O	1.506921	-0.083327	-0.155566
O2	O	1.176581	-0.083350	-0.171599
O3	O	1.349760	-0.083331	0.001587
O4	O	1.333742	-0.083346	-0.328752
O5	O	1.349734	0.083517	0.001591
O6	O	1.176555	0.083497	-0.171595
O7	O	1.506896	0.083521	-0.155562
Cu8	Cu	1.341723	0.098743	-0.163578
Cu9	Cu	1.341753	-0.098573	-0.163583
O10	O	1.333717	0.083501	-0.328748
C11	C	1.134277	0.000071	-0.170590
C12	C	1.008263	0.000062	-0.167576
N13	N	1.341710	0.237525	-0.163574
N14	N	1.341775	-0.237354	-0.163578
C15	C	0.777551	0.000091	-0.162033
C16	C	0.905936	0.000075	-0.165112
C17	C	1.549199	0.000098	-0.156571
C18	C	1.675213	0.000100	-0.159586
C19	C	1.348738	0.000093	0.043880
C20	C	1.345718	0.000091	0.169893
C21	C	1.265066	0.710139	-0.240239
C22	C	1.418471	0.710124	-0.086918
C23	C	1.418458	0.605106	-0.086914
C24	C	1.341749	0.552599	-0.163576
C25	C	1.265053	0.605111	-0.240241
C26	C	1.495160	0.552586	-0.010259
C27	C	1.495151	0.447562	-0.010253
C28	C	1.418436	0.395053	-0.086910
C29	C	1.341736	0.447571	-0.163577
C30	C	1.265027	0.395065	-0.240238
C31	C	1.188321	0.447581	-0.316901
C32	C	1.188338	0.552603	-0.316897
C33	C	1.418419	0.290031	-0.086913
C34	C	1.265014	0.290037	-0.240239
C35	C	1.334738	0.000076	-0.371041
C36	C	1.337758	0.000070	-0.497054
C37	C	1.343264	0.000088	0.272229
C38	C	1.340196	0.000078	0.400616
H39	H	1.202544	0.247292	-0.302662
O40	O	1.113965	0.396461	-0.391417
C41	C	1.175179	0.335723	-0.461869
H42	H	1.263714	0.319993	-0.417263
H43	H	1.183401	0.376190	-0.545809
C44	C	1.002603	0.255281	-0.540477
C45	C	1.111341	0.235954	-0.485687
H46	H	0.963224	0.193740	-0.555175
H47	H	0.961361	0.296203	-0.493016
H48	H	1.009470	0.289005	-0.610421
H49	H	1.104472	0.202241	-0.415739
H50	H	1.152581	0.195023	-0.533137
O51	O	1.113880	0.603502	-0.391520
C52	C	1.133031	0.577845	-0.504004
H53	H	1.176767	0.501584	-0.504160
H54	H	1.189748	0.636940	-0.539488
C55	C	0.964535	0.666668	-0.578542
C56	C	1.018245	0.573000	-0.578735
H57	H	0.893731	0.663684	-0.624642
H58	H	0.951634	0.683958	-0.502761
H59	H	1.011811	0.715904	-0.608109
H60	H	0.970975	0.523768	-0.549155
H61	H	1.031135	0.555701	-0.654514
O62	O	1.190601	0.761034	-0.314861
C63	C	1.209753	0.735381	-0.427346
H64	H	1.253502	0.659126	-0.427504
H65	H	1.266459	0.794484	-0.462830
C66	C	1.041241	0.824184	-0.501878
C67	C	1.094966	0.730523	-0.502073
H68	H	0.970437	0.821191	-0.547976
H69	H	1.028340	0.841470	-0.426096
H70	H	1.088508	0.873427	-0.531446
H71	H	1.047706	0.681284	-0.472492
H72	H	1.107857	0.713228	-0.577853
H73	H	1.480931	0.752879	-0.024508
H74	H	1.557608	0.404809	0.052170
H75	H	1.557620	0.595341	0.052152
O76	O	1.492810	0.239051	-0.012309
C77	C	1.473718	0.264730	0.100185
H78	H	1.382857	0.293624	0.101376
H79	H	1.536444	0.325673	0.133099
C80	C	1.602466	0.135938	0.175532
C81	C	1.490866	0.171418	0.176996
H82	H	1.613049	0.078381	0.222915
H83	H	1.615333	0.118639	0.099743
H84	H	1.654725	0.186732	0.202958
H85	H	1.438610	0.120629	0.149557
H86	H	1.477991	0.188707	0.252782
