data_functionalizedCrystal
_audit_creation_method	'MofGen! by Chris Wilmer'
_symmetry_space_group_name_H-M	'P1'
_symmetry_Int_Tables_number	1
_symmetry_cell_setting	triclinic
loop_
_symmetry_equiv_pos_as_xyz
  x,y,z
_cell_length_a	15.995350
_cell_length_b	10.540514
_cell_length_c	9.016244
_cell_angle_alpha	89.992124
_cell_angle_beta	89.998117
_cell_angle_gamma	95.996233
loop_
_atom_site_label
_atom_site_type_symbol
_atom_site_fract_x
_atom_site_fract_y
_atom_site_fract_z
O1	O	-0.117894	1.684291	-0.123344
O2	O	-0.129033	1.314721	-0.123341
O3	O	-0.001636	1.509609	-0.123348
O4	O	-0.245291	1.489404	-0.123337
O5	O	-0.001639	1.509580	0.123332
O6	O	-0.129036	1.314693	0.123339
O7	O	-0.117896	1.684263	0.123337
Cu8	Cu	-0.123467	1.499475	0.145862
Cu9	Cu	-0.123463	1.499509	-0.145867
O10	O	-0.245294	1.489375	0.123344
C11	C	-0.128204	1.267415	-0.000001
C12	C	-0.125718	1.126499	-0.000001
C13	C	-0.216831	1.054541	0.000001
C14	C	-0.214276	0.907963	-0.000567
C15	C	-0.076165	0.934859	-0.140604
C16	C	-0.079366	1.081354	-0.140714
C17	C	-0.078021	1.081743	0.139817
C18	C	-0.077142	0.934776	0.141657
C19	C	-0.276492	1.490225	0.000005
C20	C	-0.369458	1.492729	0.000009
C21	C	-0.707258	1.501722	-0.000014
C22	C	-0.660646	1.640518	-0.000566
C23	C	-0.563941	1.638013	-0.000002
C24	C	-0.539671	1.497262	-0.000004
C25	C	-0.580351	1.428787	0.140858
C26	C	-0.677007	1.432273	0.140968
C27	C	-0.677334	1.429438	-0.139554
C28	C	-0.580389	1.429471	-0.141408
C29	C	-0.444959	1.494733	0.000007
C30	C	-0.801971	1.504247	-0.000015
C31	C	0.029563	1.508759	-0.000013
C32	C	0.122528	1.506255	-0.000027
C33	C	-0.118726	1.731569	-0.000007
C34	C	-0.121212	1.872485	-0.000017
N35	N	-0.123468	1.499461	0.351048
N36	N	-0.123455	1.499533	-0.351053
C37	C	-0.191389	1.394895	0.586085
C38	C	-0.191644	1.395121	0.414193
C39	C	-0.143336	1.631912	0.413387
C40	C	-0.143817	1.631340	0.585332
C41	C	-0.035458	1.472896	0.585588
C42	C	-0.036028	1.469843	0.413634
H43	H	-0.010815	1.129923	0.141171
N44	N	-0.277388	1.417145	0.643224
H45	H	-0.272533	1.494707	0.709662
H46	H	-0.315427	1.431448	0.556748
H47	H	-0.565613	1.325379	0.146095
N48	N	-0.687030	1.713648	0.132509
H49	H	-0.636129	1.741319	0.195414
H50	H	-0.713609	1.791300	0.098020
N51	N	0.009284	1.146176	-0.148660
H52	H	0.050267	1.079547	-0.152082
H53	H	0.015824	1.200627	-0.240946
H54	H	-0.009307	0.911523	0.150562
H55	H	-0.708652	1.330372	0.147371
H56	H	-0.698141	1.474825	-0.246323
H57	H	-0.179620	1.296130	0.627478
N58	N	-0.278197	1.417397	0.359849
H59	H	-0.293163	1.502337	0.397677
H60	H	-0.278773	1.417510	0.247838
H61	H	-0.007812	0.913484	-0.145438
N62	N	-0.265074	1.093924	-0.133343
H63	H	-0.282739	1.016536	-0.196365
H64	H	-0.316601	1.133474	-0.099135
H65	H	-0.553381	1.479471	-0.245616
H66	H	-0.107041	0.891840	-0.245626
H67	H	-0.564415	1.326833	-0.149919
H68	H	-0.536402	1.692172	0.101152
H69	H	-0.249554	0.865759	-0.101936
N70	N	-0.718597	1.293886	-0.140826
H71	H	-0.756492	1.279314	-0.051503
H72	H	-0.752946	1.278736	-0.234341
N73	N	-0.118191	1.122888	0.281019
H74	H	-0.167720	1.170965	0.255778
H75	H	-0.138001	1.045141	0.342014
H76	H	-0.096330	1.711635	0.626911
N77	N	-0.175815	1.264712	0.358353
H78	H	-0.168610	1.206560	0.445436
H79	H	-0.225138	1.228229	0.296301
N80	N	-0.228853	1.662420	0.638467
H81	H	-0.239684	1.749422	0.600693
H82	H	-0.273784	1.596229	0.599823
H83	H	0.015106	1.549204	0.626237
H84	H	-0.095206	1.711630	0.372480
N85	N	-0.120768	0.879912	0.279436
H86	H	-0.168875	0.814969	0.250221
H87	H	-0.079420	0.837450	0.342225
H88	H	-0.552264	1.476334	0.245690
H89	H	-0.535832	1.691845	-0.100972
N90	N	-0.010422	1.347728	0.643092
H91	H	-0.053713	1.276081	0.611829
H92	H	0.046222	1.332639	0.601044
N93	N	-0.685603	1.714021	-0.134387
H94	H	-0.727372	1.658070	-0.195953
H95	H	-0.712004	1.792064	-0.100679
N96	N	-0.227411	1.663752	0.356334
H97	H	-0.252746	1.592574	0.290123
H98	H	-0.266221	1.674148	0.442848
H99	H	-0.020969	1.372411	0.372891
N100	N	0.034157	1.564235	0.356730
H101	H	0.010159	1.627820	0.289274
H102	H	0.063523	1.610601	0.443236
N103	N	-0.265802	1.091664	0.133512
H104	H	-0.324073	1.044427	0.131364
H105	H	-0.235953	1.068882	0.226998
N106	N	-0.261200	0.850778	0.132897
H107	H	-0.283736	0.920781	0.192629
H108	H	-0.309440	0.788074	0.098842
H109	H	-0.695609	1.482184	0.246267
H110	H	-0.112265	1.109139	-0.246204
