data_functionalizedCrystal
_audit_creation_method	'MofGen! by Chris Wilmer'
_symmetry_space_group_name_H-M	'P1'
_symmetry_Int_Tables_number	1
_symmetry_cell_setting	triclinic
loop_
_symmetry_equiv_pos_as_xyz
  x,y,z
_cell_length_a	10.654545
_cell_length_b	16.109301
_cell_length_c	15.186229
_cell_angle_alpha	89.997109
_cell_angle_beta	89.997915
_cell_angle_gamma	96.026546
loop_
_atom_site_label
_atom_site_type_symbol
_atom_site_fract_x
_atom_site_fract_y
_atom_site_fract_z
O1	O	0.161412	-1.104094	0.073168
O2	O	0.181500	-0.862152	0.073182
O3	O	-0.011359	-0.988685	0.073174
O4	O	0.354271	-0.977561	0.073176
O5	O	-0.011348	-0.988670	-0.073283
O6	O	0.181511	-0.862137	-0.073276
O7	O	0.161423	-1.104079	-0.073289
Zn8	Zn	0.171469	-0.983105	-0.096536
Zn9	Zn	0.171454	-0.983125	0.096428
O10	O	0.354282	-0.977546	-0.073281
C11	C	0.180692	-0.831164	-0.000045
C12	C	0.178253	-0.738855	-0.000040
C13	C	-0.058140	-0.987860	-0.000053
C14	C	-0.197550	-0.985416	-0.000048
C15	C	0.162231	-1.135066	-0.000060
C16	C	0.164671	-1.227376	-0.000060
C17	C	-0.197571	-0.985442	0.159625
C18	C	-0.263075	-0.984310	0.239460
C19	C	-0.394063	-0.982014	0.239462
C20	C	-0.459548	-0.980847	0.159618
C21	C	-0.394044	-0.981979	0.079783
C22	C	-0.263054	-0.984278	0.079790
C23	C	-0.394022	-0.981947	-0.079888
C24	C	-0.263035	-0.984249	-0.079891
C25	C	-0.459507	-0.980780	-0.159731
C26	C	-0.394004	-0.981918	-0.239569
C27	C	-0.263008	-0.984215	-0.239567
C28	C	-0.197531	-0.985381	-0.159727
C29	C	0.401063	-0.978370	-0.000053
C30	C	0.540473	-0.980815	-0.000052
N31	N	0.171478	-0.983098	-0.228228
C32	C	0.287019	-0.517229	-0.000050
C33	C	0.284717	-0.430495	-0.000055
C34	C	0.055896	-0.449008	-0.000053
C35	C	0.058199	-0.535741	-0.000053
C36	C	0.173764	-0.569849	-0.000047
C37	C	0.169159	-0.396382	-0.000052
C38	C	0.166662	-0.302341	-0.000058
C39	C	0.176262	-0.663895	-0.000043
C40	C	0.247649	-1.033975	-0.453954
C41	C	0.247640	-1.033984	-0.546143
C42	C	0.095256	-0.932260	-0.546147
C43	C	0.095259	-0.932256	-0.453959
C44	C	0.171463	-0.983112	-0.407865
C45	C	0.171451	-0.983125	-0.592242
C46	C	0.171440	-0.983134	-0.692199
C47	C	0.171472	-0.983104	-0.307902
N48	N	0.171435	-0.983139	0.228121
H49	H	-0.090915	-0.987322	0.159632
Br50	Br	0.351034	-1.103019	-0.608689
Br51	Br	-0.174118	-0.985743	-0.347922
H52	H	0.033213	-0.890837	-0.416433
H53	H	-0.034032	-0.578586	-0.000054
H54	H	0.376940	-0.387655	-0.000059
Br55	Br	0.443855	-0.563516	-0.000044
Br56	Br	-0.174203	-0.985916	0.347814
H57	H	-0.038193	-0.421227	-0.000063
Br58	Br	-0.008150	-0.863239	-0.608710
H59	H	-0.090875	-0.987256	-0.159717
H60	H	0.309698	-1.075385	-0.416426
H61	H	-0.447395	-0.981084	0.304471
H62	H	-0.566203	-0.978967	0.159626
Br63	Br	-0.482878	-0.980321	-0.347915
Br64	Br	-0.637275	-0.977652	-0.159731
