data_functionalizedCrystal
_audit_creation_method	'MofGen! by Chris Wilmer'
_symmetry_space_group_name_H-M	'P1'
_symmetry_Int_Tables_number	1
_symmetry_cell_setting	triclinic
loop_
_symmetry_equiv_pos_as_xyz
  x,y,z
_cell_length_a	16.956995
_cell_length_b	16.956984
_cell_length_c	15.455313
_cell_angle_alpha	92.464369
_cell_angle_beta	87.515363
_cell_angle_gamma	76.053945
loop_
_atom_site_label
_atom_site_type_symbol
_atom_site_fract_x
_atom_site_fract_y
_atom_site_fract_z
O1	O	1.059593	0.029455	-0.072191
O2	O	1.559593	0.529455	0.427809
O3	O	0.825582	0.057571	-0.072179
O4	O	1.325582	0.557571	0.427821
O5	O	0.956647	-0.073492	-0.072180
O6	O	1.456647	0.426508	0.427820
O7	O	0.928529	0.160518	-0.072190
O8	O	1.428529	0.660518	0.427810
O9	O	0.949154	-0.066026	0.072083
O10	O	1.449154	0.433974	0.572083
O11	O	0.818089	0.065037	0.072083
O12	O	1.318089	0.565037	0.572083
O13	O	1.052100	0.036921	0.072072
O14	O	1.552100	0.536921	0.572072
Cu15	Cu	0.934411	0.051661	0.085249
Cu16	Cu	1.434411	0.551661	0.585249
Cu17	Cu	0.943272	0.042832	-0.085357
Cu18	Cu	1.443272	0.542832	0.414643
O19	O	0.921036	0.167984	0.072072
O20	O	1.421036	0.667984	0.572072
C21	C	0.792033	0.062744	-0.000047
C22	C	1.292033	0.562744	0.499953
C23	C	0.703230	0.067024	-0.000042
C24	C	1.203230	0.567024	0.499958
C25	C	0.201821	0.099040	-0.000076
C26	C	0.701821	0.599040	0.499924
C27	C	0.285261	0.095013	-0.000075
C28	C	0.785261	0.595013	0.499925
C29	C	0.341333	0.019412	-0.000065
C30	C	0.841333	0.519412	0.499935
C31	C	0.313960	-0.052166	-0.000065
C32	C	0.813960	0.447834	0.499935
C33	C	0.230521	-0.048138	-0.000072
C34	C	0.730521	0.451862	0.499928
C35	C	0.592419	-0.000526	-0.000049
C36	C	1.092419	0.499474	0.499951
C37	C	0.675862	-0.004548	-0.000039
C38	C	1.175862	0.495452	0.499961
C39	C	0.647158	0.142631	-0.000051
C40	C	1.147158	0.642631	0.499949
C41	C	0.563718	0.146652	-0.000053
C42	C	1.063718	0.646652	0.499947
C43	C	0.536353	0.075074	-0.000057
C44	C	1.036353	0.575074	0.499943
N45	N	0.426623	0.015294	-0.000062
N46	N	0.926623	0.515294	0.499938
N47	N	0.451065	0.079193	-0.000067
N48	N	0.951065	0.579193	0.499933
C49	C	0.954340	-0.099562	-0.000049
C50	C	1.454340	0.400438	0.499951
C51	C	0.958621	-0.188365	-0.000050
C52	C	1.458621	0.311635	0.499950
C53	C	0.887048	-0.215732	-0.000050
C54	C	1.387048	0.284268	0.499950
C55	C	0.891074	-0.299172	-0.000048
C56	C	1.391074	0.200828	0.499952
C57	C	0.966675	-0.355245	-0.000052
C58	C	1.466675	0.144755	0.499948
C59	C	1.038254	-0.327873	-0.000049
C60	C	1.538254	0.172127	0.499951
C61	C	1.034226	-0.244434	-0.000045
C62	C	1.534226	0.255566	0.499955
C63	C	0.986613	-0.606332	-0.000058
C64	C	1.486613	-0.106332	0.499942
C65	C	0.990635	-0.689776	-0.000065
C66	C	1.490635	-0.189776	0.499935
C67	C	0.843455	-0.661070	-0.000063
C68	C	1.343455	-0.161070	0.499937
C69	C	0.839434	-0.577630	-0.000064
C70	C	1.339434	-0.077630	0.499936
C71	C	0.911012	-0.550265	-0.000056
C72	C	1.411012	-0.050265	0.499944
N73	N	0.970794	-0.440535	-0.000052
N74	N	1.470794	0.059465	0.499948
N75	N	0.906893	-0.464976	-0.000050
N76	N	1.406893	0.035024	0.499950
C77	C	1.085650	0.031748	-0.000063
C78	C	1.585650	0.531748	0.499937
C79	C	1.174453	0.027468	-0.000073
C80	C	1.674453	0.527468	0.499927
C81	C	0.923343	0.194054	-0.000061
C82	C	1.423343	0.694054	0.499939
C83	C	0.919062	0.282857	-0.000066
C84	C	1.419062	0.782857	0.499934
N85	N	0.928184	0.057870	0.205245
N86	N	1.428184	0.557870	0.705245
N87	N	0.949505	0.036616	-0.205353
N88	N	1.449505	0.536616	0.294647
C89	C	0.983882	0.002208	0.250639
C90	C	1.483882	0.502208	0.750639
C91	C	0.979180	0.006910	0.341447
C92	C	1.479180	0.506910	0.841447
C93	C	0.918783	0.067279	0.386859
C94	C	1.418783	0.567279	0.886859
C95	C	0.863080	0.122944	0.341459
C96	C	1.363080	0.622944	0.841459
C97	C	0.867779	0.118237	0.250653
C98	C	1.367779	0.618237	0.750653
C99	C	0.898501	0.087574	0.658441
C100	C	1.398501	0.587574	1.158441
C101	C	0.893808	0.092278	0.749253
C102	C	1.393808	0.592278	1.249253
C103	C	1.009907	-0.023758	0.749235
C104	C	1.509907	0.476242	1.249235
C105	C	1.014604	-0.028456	0.658427
C106	C	1.514604	0.471544	1.158427
C107	C	0.958898	0.027206	0.613035
C108	C	1.458898	0.527206	1.113035
N109	N	0.913977	0.072089	0.479679
N110	N	1.413977	0.572089	0.979679
N111	N	0.963701	0.022392	0.520216
N112	N	1.463701	0.522392	1.020216
H113	H	0.208241	-0.106420	-0.000071
H114	H	0.708241	0.393580	0.499929
F115	F	0.373638	-0.132627	-0.000057
F116	F	0.873638	0.367373	0.499943
F117	F	0.814896	-0.328294	-0.000050
F118	F	1.314896	0.171706	0.499950
F119	F	0.806582	-0.156062	-0.000052
F120	F	1.306582	0.343938	0.499948
F121	F	0.758970	-0.517959	-0.000068
F122	F	1.258970	-0.017959	0.499932
F123	F	1.038458	-0.052333	0.389759
F124	F	1.538458	0.447667	0.889759
F125	F	1.078885	-0.092706	0.610097
F126	F	1.578885	0.407294	1.110097
H127	H	0.721516	-0.066115	-0.000035
H128	H	1.221516	0.433885	0.499965
F129	F	0.767282	-0.690200	-0.000070
F130	F	1.267282	-0.190200	0.499930
F131	F	1.071104	-0.749453	-0.000074
F132	F	1.571104	-0.249453	0.499926
H133	H	1.055260	-0.069076	0.786202
H134	H	1.555260	0.430924	1.286202
F135	F	1.110403	-0.215309	-0.000037
F136	F	1.610403	0.284691	0.499963
H137	H	1.044897	-0.584062	-0.000055
H138	H	1.544897	-0.084062	0.499945
F139	F	1.118714	-0.387551	-0.000043
F140	F	1.618714	0.112449	0.499957
H141	H	0.156172	0.160603	-0.000078
H142	H	0.656172	0.660603	0.499922
H143	H	1.033066	-0.046948	0.213670
H144	H	1.533066	0.453052	0.713670
H145	H	0.813899	0.172096	0.378439
H146	H	1.313899	0.672096	0.878439
H147	H	0.844623	0.141441	0.786224
H148	H	1.344623	0.641441	1.286224
H149	H	0.853144	0.132898	0.621489
H150	H	1.353144	0.632898	1.121489
H151	H	0.570149	-0.058810	-0.000050
H152	H	1.070149	0.441190	0.499950
F153	F	0.808495	0.177479	0.202342
F154	F	1.308495	0.677479	0.702342
H155	H	0.669448	0.200906	-0.000049
H156	H	1.169448	0.700906	0.499951
F157	F	0.314384	0.171190	-0.000083
F158	F	0.814384	0.671190	0.499917
H159	H	0.518069	0.208215	-0.000064
H160	H	1.018069	0.708215	0.499936
