data_functionalizedCrystal
_audit_creation_method	'MofGen! by Chris Wilmer'
_symmetry_space_group_name_H-M	'P1'
_symmetry_Int_Tables_number	1
_symmetry_cell_setting	triclinic
loop_
_symmetry_equiv_pos_as_xyz
  x,y,z
_cell_length_a	14.519709
_cell_length_b	14.519709
_cell_length_c	12.996460
_cell_angle_alpha	90.007090
_cell_angle_beta	89.999966
_cell_angle_gamma	83.680145
loop_
_atom_site_label
_atom_site_type_symbol
_atom_site_fract_x
_atom_site_fract_y
_atom_site_fract_z
O1	O	-1.223869	-0.120893	-0.085435
O2	O	-0.973869	0.129107	0.164565
O3	O	-0.723869	0.379107	0.414565
O4	O	-0.473869	0.629107	0.664565
O5	O	-0.955392	-0.135129	-0.085467
O6	O	-0.705392	0.114871	0.164533
O7	O	-0.455392	0.364871	0.414533
O8	O	-0.205392	0.614871	0.664533
O9	O	-1.096749	0.006227	-0.085441
O10	O	-0.846749	0.256227	0.164559
O11	O	-0.596749	0.506227	0.414559
O12	O	-0.346749	0.756227	0.664559
O13	O	-1.082512	-0.262250	-0.085461
O14	O	-0.832512	-0.012250	0.164539
O15	O	-0.582512	0.237750	0.414539
O16	O	-0.332512	0.487750	0.664539
O17	O	-1.096734	0.006235	0.085693
O18	O	-0.846734	0.256235	0.335693
O19	O	-0.596734	0.506235	0.585693
O20	O	-0.346734	0.756235	0.835693
O21	O	-0.955377	-0.135122	0.085667
O22	O	-0.705377	0.114878	0.335667
O23	O	-0.455377	0.364878	0.585667
O24	O	-0.205377	0.614878	0.835667
O25	O	-1.223854	-0.120885	0.085699
O26	O	-0.973854	0.129115	0.335699
O27	O	-0.723854	0.379115	0.585699
O28	O	-0.473854	0.629115	0.835699
Cu29	Cu	-1.089614	-0.128003	0.101309
Cu30	Cu	-0.839614	0.121997	0.351309
Cu31	Cu	-0.589614	0.371997	0.601309
Cu32	Cu	-0.339614	0.621997	0.851309
Cu33	Cu	-1.089632	-0.128012	-0.101077
Cu34	Cu	-0.839632	0.121988	0.148923
Cu35	Cu	-0.589632	0.371988	0.398923
Cu36	Cu	-0.339632	0.621988	0.648923
O37	O	-1.082497	-0.262242	0.085673
O38	O	-0.832497	-0.012242	0.335673
O39	O	-0.582497	0.237758	0.585673
O40	O	-0.332497	0.487758	0.835673
C41	C	-0.921025	-0.134462	0.000096
C42	C	-0.671025	0.115538	0.250096
C43	C	-0.421025	0.365538	0.500096
C44	C	-0.171025	0.615538	0.750096
C45	C	-0.818643	-0.132474	0.000084
C46	C	-0.568643	0.117526	0.250084
C47	C	-0.318643	0.367526	0.500084
C48	C	-0.068643	0.617526	0.750084
C49	C	-1.096078	0.040591	0.000126
C50	C	-0.846078	0.290591	0.250126
C51	C	-0.596078	0.540591	0.500126
C52	C	-0.346078	0.790591	0.750126
C53	C	-1.094090	0.142972	0.000126
C54	C	-0.844090	0.392972	0.250126
C55	C	-0.594090	0.642972	0.500126
C56	C	-0.344090	0.892972	0.750126
C57	C	-1.258221	-0.121553	0.000134
C58	C	-1.008221	0.128447	0.250134
C59	C	-0.758221	0.378447	0.500134
C60	C	-0.508221	0.628447	0.750134
C61	C	-1.360602	-0.123541	0.000139
C62	C	-1.110602	0.126459	0.250139
C63	C	-0.860602	0.376459	0.500139
C64	C	-0.610602	0.626459	0.750139
C65	C	-1.083168	-0.296605	0.000103
C66	C	-0.833168	-0.046605	0.250103
C67	C	-0.583168	0.203395	0.500103
C68	C	-0.333168	0.453395	0.750103
C69	C	-1.085156	-0.398987	0.000096
C70	C	-0.835156	-0.148987	0.250096
C71	C	-0.585156	0.101013	0.500096
C72	C	-0.335156	0.351013	0.750096
C73	C	-0.443748	-0.125154	0.000132
C74	C	-0.193748	0.124846	0.250132
C75	C	0.056252	0.374846	0.500132
C76	C	0.306252	0.624846	0.750132
C77	C	-0.548056	-0.127187	0.000118
C78	C	-0.298056	0.122813	0.250118
C79	C	-0.048056	0.372813	0.500118
C80	C	0.201944	0.622813	0.750118
C81	C	-0.631192	-0.128814	0.000107
C82	C	-0.381192	0.121186	0.250107
C83	C	-0.131192	0.371186	0.500107
C84	C	0.118808	0.621186	0.750107
C85	C	-0.735507	-0.130847	0.000095
C86	C	-0.485507	0.119153	0.250095
C87	C	-0.235507	0.369153	0.500095
C88	C	0.014493	0.619153	0.750095
N89	N	-1.089609	-0.127996	0.243656
N90	N	-0.839609	0.122004	0.493656
N91	N	-0.589609	0.372004	0.743656
N92	N	-0.339609	0.622004	0.993656
C93	C	-1.086770	0.517868	0.000099
C94	C	-0.836770	0.767868	0.250099
C95	C	-0.586770	1.017868	0.500099
C96	C	-0.336770	1.267868	0.750099
C97	C	-1.088803	0.413560	0.000107
C98	C	-0.838803	0.663560	0.250107
C99	C	-0.588803	0.913560	0.500107
C100	C	-0.338803	1.163560	0.750107
C101	C	-1.090430	0.330423	0.000114
C102	C	-0.840430	0.580423	0.250114
C103	C	-0.590430	0.830423	0.500114
C104	C	-0.340430	1.080423	0.750114
C105	C	-1.092463	0.226109	0.000120
C106	C	-0.842463	0.476109	0.250120
C107	C	-0.592463	0.726109	0.500120
C108	C	-0.342463	0.976109	0.750120
N109	N	-1.089644	-0.128012	-0.243424
N110	N	-0.839644	0.121988	0.006576
N111	N	-0.589644	0.371988	0.256576
N112	N	-0.339644	0.621988	0.506576
C113	C	-1.089630	-0.128013	0.663470
C114	C	-0.839630	0.121987	0.913470
C115	C	-0.589630	0.371987	1.163470
C116	C	-0.339630	0.621987	1.413470
C117	C	-1.089622	-0.128011	0.546665
C118	C	-0.839622	0.121989	0.796665
C119	C	-0.589622	0.371989	1.046665
C120	C	-0.339622	0.621989	1.296665
C121	C	-1.089620	-0.128005	0.453567
C122	C	-0.839620	0.121995	0.703567
C123	C	-0.589620	0.371995	0.953567
C124	C	-0.339620	0.621995	1.203567
C125	C	-1.089610	-0.128002	0.336754
C126	C	-0.839610	0.121998	0.586754
C127	C	-0.589610	0.371998	0.836754
C128	C	-0.339610	0.621998	1.086754
