data_functionalizedCrystal
_audit_creation_method	'MofGen! by Chris Wilmer'
_symmetry_space_group_name_H-M	'P1'
_symmetry_Int_Tables_number	1
_symmetry_cell_setting	triclinic
loop_
_symmetry_equiv_pos_as_xyz
  x,y,z
_cell_length_a	16.109301
_cell_length_b	14.586319
_cell_length_c	16.109295
_cell_angle_alpha	90.000675
_cell_angle_beta	96.539666
_cell_angle_gamma	89.999213
loop_
_atom_site_label
_atom_site_type_symbol
_atom_site_fract_x
_atom_site_fract_y
_atom_site_fract_z
O1	O	1.103129	-0.076176	-0.106866
O2	O	0.861066	-0.076190	-0.120166
O3	O	0.988750	-0.076184	0.007515
O4	O	0.975445	-0.076182	-0.234547
O5	O	0.988741	0.076297	0.007517
O6	O	0.861058	0.076291	-0.120164
O7	O	1.103120	0.076305	-0.106864
Cu8	Cu	0.982088	0.090221	-0.113514
Cu9	Cu	0.982098	-0.090106	-0.113516
O10	O	0.975437	0.076299	-0.234545
C11	C	0.830087	0.000049	-0.119626
C12	C	0.737792	0.000043	-0.118011
N13	N	0.982087	0.217052	-0.113512
N14	N	0.982106	-0.216937	-0.113512
C15	C	0.515518	0.000054	-0.190019
C16	C	0.428798	0.000060	-0.188495
C17	C	0.448675	0.000055	-0.037006
C18	C	0.535394	0.000056	-0.038531
C19	C	0.568813	0.000051	-0.115040
C20	C	0.395374	0.000056	-0.111991
C21	C	0.301348	0.000062	-0.110338
C22	C	0.662845	0.000046	-0.116693
C23	C	1.134099	0.000064	-0.107404
C24	C	1.226394	0.000064	-0.109019
C25	C	0.988207	0.000054	0.038491
C26	C	0.986594	0.000048	0.130787
C27	C	1.038643	0.452062	-0.056994
C28	C	1.038646	0.548043	-0.056992
C29	C	0.925543	0.548047	-0.170033
C30	C	0.925538	0.452067	-0.170030
C31	C	0.982092	0.404077	-0.113512
C32	C	0.982100	0.596038	-0.113512
C33	C	0.982103	0.700105	-0.113510
C34	C	0.982089	0.300003	-0.113512
C35	C	1.058606	0.000018	0.353060
C36	C	1.057084	0.000003	0.439780
C37	C	0.905595	-0.000001	0.419906
C38	C	0.907118	0.000007	0.333187
C39	C	0.983626	0.000022	0.299766
C40	C	0.980580	-0.000002	0.473206
C41	C	0.978929	-0.000019	0.567232
C42	C	0.985277	0.000037	0.205734
C43	C	0.975984	0.000037	0.734479
C44	C	0.977612	-0.000028	0.642186
H45	H	0.385408	0.000065	-0.249551
H46	H	1.120904	0.000028	0.325852
H47	H	0.843304	-0.000011	0.447128
O48	O	0.587254	-0.000072	0.034254
C49	C	0.696668	-0.079098	0.120465
C50	C	0.637999	-0.079060	0.038002
H51	H	0.737698	-0.142962	0.123530
H52	H	0.737821	-0.015327	0.123550
H53	H	0.657870	-0.079057	0.175395
H54	H	0.676731	-0.079133	-0.016975
H55	H	0.596843	-0.142825	0.034990
O56	O	1.129898	-0.000162	0.491582
C57	C	1.216081	-0.079143	0.601045
C58	C	1.133594	-0.079079	0.542414
H59	H	1.219088	-0.142930	0.642169
H60	H	1.271053	-0.079192	0.562299
H61	H	1.219144	-0.015308	0.642112
H62	H	1.130449	-0.142903	0.501335
H63	H	1.078661	-0.078982	0.581210
H64	H	0.542724	0.000057	-0.252317
O65	O	0.416251	0.000212	0.037333
C66	C	0.406747	0.079164	0.167306
C67	C	0.443503	0.079117	0.083137
H68	H	0.428780	0.142942	0.204370
H69	H	0.335608	0.079219	0.155569
H70	H	0.428689	0.015320	0.204316
H71	H	0.421625	0.142951	0.046084
H72	H	0.514638	0.079015	0.094933
H73	H	1.084692	0.412990	-0.010972
O74	O	1.093661	0.594512	-0.002061
C75	C	1.205811	0.584373	0.110092
C76	C	1.143563	0.531633	0.047911
H77	H	1.246161	0.533558	0.150521
H78	H	1.247391	0.629280	0.074227
H79	H	1.169918	0.629335	0.151601
H80	H	1.179388	0.486621	0.006386
H81	H	1.101984	0.486784	0.083827
H82	H	0.879483	0.412996	-0.216054
H83	H	0.846056	0.000008	0.289793
O84	O	0.870695	0.594808	-0.224906
C85	C	0.820548	0.742671	-0.274980
C86	C	0.882720	0.689832	-0.212801
H87	H	0.830237	0.819507	-0.265204
H88	H	0.831361	0.723862	-0.341593
H89	H	0.753970	0.723754	-0.264137
H90	H	0.949322	0.708721	-0.223568
H91	H	0.871835	0.708646	-0.146210
