data_functionalizedCrystal
_audit_creation_method	'MofGen! by Chris Wilmer'
_symmetry_space_group_name_H-M	'P1'
_symmetry_Int_Tables_number	1
_symmetry_cell_setting	triclinic
loop_
_symmetry_equiv_pos_as_xyz
  x,y,z
_cell_length_a	15.995350
_cell_length_b	26.210047
_cell_length_c	15.995350
_cell_angle_alpha	90.006733
_cell_angle_beta	96.507625
_cell_angle_gamma	90.005390
loop_
_atom_site_label
_atom_site_type_symbol
_atom_site_fract_x
_atom_site_fract_y
_atom_site_fract_z
O1	O	1.110992	0.042383	-0.107915
O2	O	0.867217	0.042393	-0.121242
O3	O	0.995769	0.042388	0.007309
O4	O	0.982441	0.042389	-0.236466
O5	O	0.995744	-0.042470	0.007289
O6	O	0.867192	-0.042465	-0.121262
O7	O	1.110968	-0.042475	-0.107935
Cu8	Cu	0.989078	-0.050218	-0.114600
Cu9	Cu	0.989107	0.050137	-0.114577
O10	O	0.982416	-0.042469	-0.236486
C11	C	0.836010	-0.000034	-0.120701
C12	C	0.743060	-0.000030	-0.119049
N13	N	0.989063	-0.120802	-0.114616
C14	C	0.405312	-0.000041	-0.113117
C15	C	0.452746	-0.000231	-0.021565
C16	C	0.549436	-0.000036	-0.023217
C17	C	0.572873	-0.000036	-0.116060
C18	C	0.531800	0.048420	-0.161205
C19	C	0.435164	0.048457	-0.158905
C20	C	0.434797	-0.048042	-0.160819
C21	C	0.531742	-0.048679	-0.160798
C22	C	0.667570	-0.000031	-0.117727
C23	C	0.310614	-0.000042	-0.111452
C24	C	1.046024	-0.473319	-0.057667
C25	C	1.046042	-0.686977	-0.057655
O26	O	1.094440	-0.714601	-0.009238
N27	N	0.989111	-0.713696	-0.114558
C28	C	0.932168	-0.686997	-0.171464
O29	O	0.883740	-0.714625	-0.219858
C30	C	0.932147	-0.473339	-0.171471
C31	C	0.989087	-0.446623	-0.114570
C32	C	1.102959	-0.446603	-0.000770
C33	C	1.102957	-0.393191	-0.000776
C34	C	1.046020	-0.366496	-0.057680
C35	C	0.989085	-0.393212	-0.114577
C36	C	0.875200	-0.446641	-0.228373
C37	C	0.875198	-0.393223	-0.228368
C38	C	0.932139	-0.366507	-0.171467
C39	C	0.932146	-0.313105	-0.171487
N40	N	0.989076	-0.286386	-0.114584
C41	C	1.046013	-0.313081	-0.057680
C42	C	0.932185	-0.799170	-0.171458
C43	C	0.932191	-0.852584	-0.171457
C44	C	1.046064	-0.852561	-0.057647
C45	C	1.046061	-0.799146	-0.057652
C46	C	0.989116	-0.772451	-0.114555
C47	C	1.046005	-0.200914	-0.057699
C48	C	1.046000	-0.147497	-0.057713
C49	C	0.932125	-0.147525	-0.171520
C50	C	0.932132	-0.200937	-0.171509
C51	C	0.989075	-0.227630	-0.114592
O52	O	0.883767	-0.285448	-0.219872
O53	O	1.094422	-0.285444	-0.009282
C54	C	1.046026	-0.526730	-0.057660
C55	C	0.989091	-0.553446	-0.114557
C56	C	0.932154	-0.526750	-0.171461
C57	C	0.989097	-0.606860	-0.114557
C58	C	1.046034	-0.633556	-0.057653
C59	C	1.102965	-0.606837	-0.000750
C60	C	1.102963	-0.553425	-0.000757
C61	C	0.875223	-0.553469	-0.228364
C62	C	0.875231	-0.606881	-0.228353
C63	C	0.932168	-0.633576	-0.171450
C64	C	1.142175	-0.000046	-0.108476
C65	C	1.235125	-0.000047	-0.110127
C66	C	0.995205	-0.000040	0.038494
C67	C	0.993553	-0.000038	0.131444
N68	N	0.989128	0.120720	-0.114554
C69	C	0.982980	-0.000040	-0.267671
C70	C	0.984631	-0.000039	-0.360621
C71	C	0.987621	-0.000039	0.469192
C72	C	0.896069	0.000155	0.421758
C73	C	0.897721	-0.000036	0.325068
C74	C	0.990564	-0.000038	0.301631
C75	C	1.035706	-0.048497	0.342697
C76	C	1.033406	-0.048538	0.439333
C77	C	1.035326	0.047962	0.439714
C78	C	1.035304	0.048602	0.342769
C79	C	0.992231	-0.000039	0.206934
C80	C	0.985956	-0.000041	0.563890
H81	H	0.577855	-0.034772	0.012270
H82	H	0.859629	-0.034399	0.441344
H83	H	1.149320	-0.371442	0.045559
H84	H	1.149329	-0.628581	0.045580
H85	H	0.859487	0.034906	0.440298
H86	H	0.559048	-0.084527	-0.127842
H87	H	0.828865	-0.628629	-0.274696
H88	H	0.828857	-0.531738	-0.274700
H89	H	0.861976	-0.034830	0.297195
H90	H	0.862235	0.034701	0.296654
H91	H	1.092371	-0.125747	-0.011377
H92	H	0.414251	-0.084771	-0.130897
H93	H	1.149324	-0.468333	0.045572
H94	H	0.885769	-0.125781	-0.217853
H95	H	0.433162	0.034327	0.014870
H96	H	0.434214	-0.034981	0.015022
H97	H	1.002299	0.084451	0.315529
H98	H	1.103009	0.051527	0.327408
H99	H	1.000467	-0.084760	0.457626
H100	H	0.403035	-0.048370	-0.228320
H101	H	1.100622	-0.050737	0.471581
H102	H	0.828824	-0.371491	-0.274704
H103	H	1.092426	-0.777397	-0.011318
H104	H	0.416866	0.084680	-0.125966
H105	H	1.103914	-0.050301	0.328571
H106	H	1.149329	-0.531677	0.045577
H107	H	1.092426	-0.874305	-0.011315
H108	H	0.577304	0.034760	0.012526
H109	H	1.102827	0.048286	0.471475
H110	H	1.004332	-0.084557	0.314307
H111	H	1.005404	0.084691	0.460262
H112	H	0.545925	0.050222	-0.229413
H113	H	0.560185	0.084483	-0.129832
H114	H	0.402916	0.050656	-0.226120
H115	H	0.547106	-0.051606	-0.228502
H116	H	0.885774	-0.222689	-0.217851
H117	H	0.885834	-0.874332	-0.217800
H118	H	1.092373	-0.222641	-0.011351
H119	H	0.885812	-0.777439	-0.217797
H120	H	0.828834	-0.468385	-0.274706
