data_functionalizedCrystal
_audit_creation_method	'MofGen! by Chris Wilmer'
_symmetry_space_group_name_H-M	'P1'
_symmetry_Int_Tables_number	1
_symmetry_cell_setting	triclinic
loop_
_symmetry_equiv_pos_as_xyz
  x,y,z
_cell_length_a	12.759395
_cell_length_b	12.759394
_cell_length_c	12.759393
_cell_angle_alpha	90.029526
_cell_angle_beta	90.020875
_cell_angle_gamma	90.014617
loop_
_atom_site_label
_atom_site_type_symbol
_atom_site_fract_x
_atom_site_fract_y
_atom_site_fract_z
Zn1	Zn	1.606273	-0.418194	0.594025
Zn2	Zn	1.606167	-0.593910	0.418349
Zn3	Zn	1.430572	-0.418248	0.418361
Zn4	Zn	1.430566	-0.593834	0.593986
O5	O	1.518395	-0.506047	0.506180
O6	O	1.753280	-0.441513	0.570733
O7	O	1.582832	-0.570662	0.271329
O8	O	1.453926	-0.271220	0.441685
O9	O	1.753202	-0.570610	0.441664
O10	O	1.583013	-0.271180	0.570745
O11	O	1.453823	-0.441604	0.271338
O12	O	1.283550	-0.441530	0.441646
O13	O	1.453916	-0.570481	0.741012
O14	O	1.283546	-0.570533	0.570677
O15	O	1.583008	-0.441439	0.741041
O16	O	1.582826	-0.740921	0.441626
O17	O	1.453813	-0.740865	0.570666
C18	C	1.245427	-0.506030	0.506160
C19	C	1.128650	-0.506048	0.506176
C20	C	0.909297	-0.371859	0.640827
C21	C	0.964204	-0.304743	0.708123
C22	C	1.073925	-0.304724	0.708105
C23	C	1.128743	-0.371833	0.640786
C24	C	1.073836	-0.438950	0.573490
C25	C	0.964112	-0.438958	0.573513
C26	C	1.073744	-0.573165	0.438880
C27	C	0.964022	-0.573180	0.438891
C28	C	1.128561	-0.640273	0.371561
C29	C	1.073654	-0.707387	0.304258
C30	C	0.963926	-0.707401	0.304278
C31	C	0.909115	-0.640296	0.371595
C32	C	1.518336	-0.779014	0.506163
C33	C	1.518407	-0.895791	0.506191
C34	C	1.652725	-0.895592	0.640682
C35	C	1.719917	-0.950353	0.707935
C36	C	1.719979	-1.060074	0.707958
C37	C	1.652840	-1.115037	0.640722
C38	C	1.585649	-1.060276	0.573468
C39	C	1.585596	-0.950552	0.573451
C40	C	1.451327	-1.060475	0.438984
C41	C	1.451268	-0.950754	0.438955
C42	C	1.384188	-1.115438	0.371749
C43	C	1.317000	-1.060677	0.304488
C44	C	1.316941	-0.950949	0.304468
C45	C	1.384076	-0.895992	0.371701
C46	C	1.792428	-0.506064	0.506201
C47	C	1.909205	-0.506071	0.506210
C48	C	1.518473	-0.505946	0.780214
C49	C	1.518507	-0.505903	0.896990
C50	C	1.518482	-0.232013	0.506221
C51	C	1.518519	-0.115236	0.506238
C52	C	1.518377	-0.506071	0.233213
C53	C	1.518547	-0.505818	0.116437
C54	C	1.585729	-0.438700	0.951869
C55	C	1.585747	-0.438655	1.061593
C56	C	1.451317	-0.573024	1.061550
C57	C	1.451294	-0.573063	0.951828
C58	C	1.623358	-0.314699	1.211569
C59	C	1.690597	-0.247505	1.266452
C60	C	1.793109	-0.231396	1.230860
C61	C	1.828404	-0.282495	1.140387
C62	C	1.761170	-0.349697	1.085511
C63	C	1.658643	-0.365786	1.121101
C64	C	1.413695	-0.697021	0.801850
C65	C	1.346466	-0.764228	0.746971
C66	C	1.243952	-0.780348	0.782561
C67	C	1.208661	-0.729267	0.873037
C68	C	1.275890	-0.662059	0.927916
C69	C	1.378403	-0.645938	0.892319
H70	H	0.819774	-0.640289	0.371605
H71	H	1.652888	-1.204378	0.640755
H72	H	1.247148	-0.620467	1.001587
H73	H	1.125187	-0.742396	0.902018
H74	H	1.497169	-0.683893	0.772859
H75	H	1.652691	-0.806250	0.640660
H76	H	1.384240	-1.204779	0.371776
H77	H	0.919560	-0.250107	0.762935
H78	H	1.640455	-0.384011	0.907224
H79	H	1.384039	-0.806651	0.371687
H80	H	1.189218	-0.835084	0.737874
H81	H	1.774579	-0.905592	0.762680
H82	H	0.919227	-0.762061	0.249482
H83	H	1.789908	-0.391305	1.011853
H84	H	1.911884	-0.269381	1.111421
H85	H	1.847856	-0.176684	1.275553
H86	H	1.217902	-0.640260	0.371557
H87	H	1.262336	-1.105436	0.249756
H88	H	1.262221	-0.906368	0.249706
H89	H	1.661850	-0.205899	1.340115
H90	H	1.118295	-0.762026	0.249457
H91	H	1.774682	-1.104661	0.762732
H92	H	0.819956	-0.371844	0.640826
H93	H	1.375213	-0.805831	0.673308
H94	H	1.539881	-0.327801	1.240552
H95	H	1.118631	-0.250074	0.762905
H96	H	1.218084	-0.371822	0.640787
H97	H	1.396597	-0.627706	1.106212
