data_functionalizedCrystal
_audit_creation_method	'MofGen! by Chris Wilmer'
_symmetry_space_group_name_H-M	'P1'
_symmetry_Int_Tables_number	1
_symmetry_cell_setting	triclinic
loop_
_symmetry_equiv_pos_as_xyz
  x,y,z
_cell_length_a	14.971486
_cell_length_b	10.654541
_cell_length_c	13.448316
_cell_angle_alpha	89.993648
_cell_angle_beta	89.998199
_cell_angle_gamma	84.049029
loop_
_atom_site_label
_atom_site_type_symbol
_atom_site_fract_x
_atom_site_fract_y
_atom_site_fract_z
O1	O	1.187837	0.163659	-0.082577
O2	O	0.927543	0.183258	-0.082604
O3	O	1.063676	-0.009345	-0.082584
O4	O	1.051704	0.356262	-0.082597
O5	O	1.063659	-0.009357	0.082800
O6	O	0.927526	0.183246	0.082780
O7	O	1.187820	0.163648	0.082807
Cu8	Cu	1.057671	0.173446	0.097894
Cu9	Cu	1.057692	0.173460	-0.097691
O10	O	1.051687	0.356251	0.082787
C11	C	0.894205	0.182376	0.000085
C12	C	0.794894	0.179749	0.000074
C13	C	0.738284	0.292898	0.000072
C14	C	0.644971	0.290423	0.000087
C15	C	0.608270	0.174797	0.000097
C16	C	0.664887	0.061639	0.000103
C17	C	0.758199	0.064116	0.000095
C18	C	0.470397	0.056485	0.000117
C19	C	0.377079	0.054008	0.000123
C20	C	0.357169	0.282792	0.000108
C21	C	0.450480	0.285268	0.000100
C22	C	0.507091	0.172110	0.000104
C23	C	1.062789	-0.056140	0.000107
C24	C	1.060160	-0.195555	0.000106
C25	C	1.222944	-0.225272	0.000135
C26	C	1.303097	-0.305626	0.000152
C27	C	1.300621	-0.436618	0.000148
C28	C	1.217984	-0.487256	0.000125
C29	C	1.137831	-0.406902	0.000109
C30	C	1.140315	-0.275909	0.000115
C31	C	0.975050	-0.377185	0.000072
C32	C	0.977523	-0.246194	0.000083
C33	C	0.892412	-0.427824	0.000049
C34	C	0.812257	-0.347470	0.000040
C35	C	0.814736	-0.216471	0.000044
C36	C	0.897370	-0.165839	0.000066
C37	C	1.221158	0.164530	0.000116
C38	C	1.320469	0.167157	0.000120
C39	C	1.052574	0.403045	0.000093
C40	C	1.055203	0.542460	0.000089
N41	N	1.057663	0.173435	0.235458
N42	N	1.057707	0.173461	-0.235256
C43	C	1.117962	0.088186	0.287508
C44	C	1.117968	0.088185	0.391611
C45	C	1.057678	0.173440	0.443663
C46	C	0.997373	0.258694	0.391606
C47	C	0.997364	0.258688	0.287505
C48	C	0.997398	0.258702	0.608587
C49	C	0.997408	0.258710	0.712695
C50	C	1.118002	0.088199	0.712692
C51	C	1.117992	0.088193	0.608591
C52	C	1.057688	0.173449	0.556542
H53	H	0.516488	-0.035661	0.000121
O54	O	0.490071	0.409974	0.000084
H55	H	0.532117	0.416556	0.067484
H56	H	0.948280	0.328106	0.433993
H57	H	0.899396	-0.059181	0.000076
H58	H	0.634998	-0.032506	0.000126
O59	O	0.819265	-0.057921	0.000101
H60	H	0.806139	-0.113245	-0.067305
O61	O	1.183049	-0.003763	0.768815
H62	H	1.145035	-0.064907	0.816248
O63	O	0.932366	0.350635	0.768844
H64	H	0.890416	0.409898	0.715164
O65	O	0.932362	0.350660	0.552441
H66	H	0.890448	0.409956	0.606123
O67	O	0.932333	0.350640	0.231358
H68	H	0.890417	0.409934	0.285040
H69	H	0.347201	-0.040145	0.000132
H70	H	0.311071	0.374929	0.000109
H71	H	0.768157	0.387054	0.000062
O72	O	1.225607	-0.083987	0.000153
H73	H	1.261404	-0.055837	-0.067245
H74	H	0.749465	-0.151052	0.000026
O75	O	1.392226	-0.251014	0.000178
H76	H	1.380486	-0.146428	0.000187
H77	H	1.365889	-0.502043	0.000154
O78	O	0.583909	0.412461	0.000084
H79	H	0.625106	0.493278	0.000064
H80	H	1.215976	-0.593918	0.000110
O81	O	1.182985	-0.003774	0.231367
H82	H	1.224908	-0.063062	0.285054
H83	H	0.890403	-0.534485	0.000040
O84	O	0.723134	-0.402081	0.000023
H85	H	0.734879	-0.506667	0.000026
H86	H	1.167066	0.018767	0.433989
O87	O	1.183013	-0.003762	0.552443
H88	H	1.224941	-0.063054	0.606123
