data_functionalizedCrystal
_audit_creation_method	'MofGen! by Chris Wilmer'
_symmetry_space_group_name_H-M	'P1'
_symmetry_Int_Tables_number	1
_symmetry_cell_setting	triclinic
loop_
_symmetry_equiv_pos_as_xyz
  x,y,z
_cell_length_a	11.792241
_cell_length_b	10.540539
_cell_length_c	10.268362
_cell_angle_alpha	89.996859
_cell_angle_beta	89.999626
_cell_angle_gamma	84.359454
loop_
_atom_site_label
_atom_site_type_symbol
_atom_site_fract_x
_atom_site_fract_y
_atom_site_fract_z
O1	O	1.507362	0.173992	-0.108167
O2	O	1.177067	0.191924	-0.108197
O3	O	1.349750	-0.001773	-0.108180
O4	O	1.334679	0.367689	-0.108184
O5	O	1.349735	-0.001781	0.108421
O6	O	1.177052	0.191916	0.108404
O7	O	1.507347	0.173984	0.108433
Cu8	Cu	1.342198	0.182949	0.128196
Cu9	Cu	1.342216	0.182959	-0.127959
O10	O	1.334664	0.367681	0.108416
C11	C	1.134766	0.190793	0.000100
C12	C	1.008743	0.187422	0.000088
C13	C	0.778015	0.181223	0.000126
C14	C	0.906409	0.184667	0.000105
C15	C	1.348612	-0.049076	0.000118
C16	C	1.345231	-0.190014	0.000111
C17	C	1.215660	-0.373018	-0.000387
C18	C	1.219087	-0.226411	0.000101
C19	C	1.405928	-0.251874	0.123806
C20	C	1.401623	-0.398404	0.123910
C21	C	1.404206	-0.398921	-0.122405
C22	C	1.405368	-0.251943	-0.124041
C23	C	1.549648	0.175114	0.000134
C24	C	1.675671	0.178486	0.000137
C25	C	1.335802	0.414984	0.000116
C26	C	1.339183	0.555921	0.000114
N27	N	1.342194	0.182942	0.308362
N28	N	1.342229	0.182956	-0.308125
C29	C	1.342210	0.182956	0.574032
C30	C	1.342197	0.182952	0.426195
H31	H	1.171327	-0.183649	-0.088569
H32	H	1.360956	-0.210937	-0.215547
O33	O	1.348264	-0.431976	0.234287
C34	C	1.362291	-0.554920	0.432493
C35	C	1.422870	-0.516990	0.307560
H36	H	1.422575	-0.623679	0.491757
H37	H	1.336198	-0.466036	0.492831
H38	H	1.283209	-0.603192	0.405329
H39	H	1.501992	-0.468746	0.334607
H40	H	1.448879	-0.605917	0.247256
H41	H	1.165836	-0.401453	-0.089091
O42	O	1.515017	-0.223154	-0.132881
C43	C	1.641060	-0.057375	-0.150684
C44	C	1.516833	-0.089817	-0.140676
H45	H	1.642568	0.050426	-0.157017
H46	H	1.690452	-0.094793	-0.060893
H47	H	1.682130	-0.103762	-0.241653
H48	H	1.475664	-0.043440	-0.049762
H49	H	1.467524	-0.052425	-0.230531
H50	H	1.495319	-0.446444	-0.123229
H51	H	1.498564	-0.229821	0.128413
H52	H	1.166026	-0.403067	0.087812
H53	H	1.363386	-0.430338	-0.216158
H54	H	1.170980	-0.184502	0.088910
O55	O	1.509915	-0.455788	0.130691
C56	C	1.709892	-0.427214	0.142706
C57	C	1.587313	-0.362071	0.135050
H58	H	1.772503	-0.351474	0.146204
H59	H	1.719789	-0.488488	0.234260
H60	H	1.728130	-0.489923	0.053218
H61	H	1.568992	-0.299299	0.224471
H62	H	1.577477	-0.300875	0.043439
O63	O	1.355611	-0.201124	0.233710
C64	C	1.255650	-0.240864	0.431974
C65	C	1.312629	-0.298505	0.307581
H66	H	1.220864	-0.319565	0.491720
H67	H	1.321055	-0.193639	0.492128
H68	H	1.182773	-0.166685	0.404110
H69	H	1.385498	-0.372734	0.335328
H70	H	1.247153	-0.345649	0.247459
