data_functionalizedCrystal
_audit_creation_method	'MofGen! by Chris Wilmer'
_symmetry_space_group_name_H-M	'P1'
_symmetry_Int_Tables_number	1
_symmetry_cell_setting	triclinic
loop_
_symmetry_equiv_pos_as_xyz
  x,y,z
_cell_length_a	10.723023
_cell_length_b	19.188924
_cell_length_c	9.198806
_cell_angle_alpha	89.994752
_cell_angle_beta	89.996191
_cell_angle_gamma	83.804756
loop_
_atom_site_label
_atom_site_type_symbol
_atom_site_fract_x
_atom_site_fract_y
_atom_site_fract_z
O1	O	1.655151	0.097920	-0.120896
O2	O	1.291804	0.107293	-0.120900
O3	O	1.483968	0.001019	-0.120881
O4	O	1.462988	0.204194	-0.120915
O5	O	1.483952	0.001018	0.120904
O6	O	1.291789	0.107293	0.120885
O7	O	1.655136	0.097919	0.120889
Cu8	Cu	1.473461	0.102606	0.142964
Cu9	Cu	1.473479	0.102607	-0.142975
O10	O	1.462973	0.204194	0.120870
C11	C	1.245311	0.106611	-0.000008
C12	C	1.106799	0.104571	-0.000009
C13	C	0.901886	0.101552	0.125238
C14	C	1.045045	0.103661	0.125242
C15	C	1.483282	-0.024997	0.000013
C16	C	1.481247	-0.102515	0.000017
C17	C	1.480305	-0.138920	-0.131780
C18	C	1.478375	-0.211755	-0.131792
C19	C	1.477412	-0.248184	0.000002
C20	C	1.478347	-0.211770	0.131817
C21	C	1.480264	-0.138936	0.131824
N22	N	1.545403	-0.367406	0.098094
N23	N	1.543584	-0.436596	0.098078
C24	C	1.471632	-0.467631	-0.000012
N25	N	1.401584	-0.426863	-0.098108
N26	N	1.403408	-0.357667	-0.098096
C27	C	1.475332	-0.327161	0.000009
C28	C	1.468596	-0.583012	-0.131830
C29	C	1.466659	-0.655848	-0.131836
C30	C	1.466643	-0.655863	0.131777
C31	C	1.468568	-0.583027	0.131778
C32	C	1.469550	-0.546607	-0.000029
C33	C	1.701629	0.098602	-0.000006
C34	C	1.840141	0.100642	-0.000015
C35	C	1.463658	0.230210	-0.000027
C36	C	1.465693	0.307728	-0.000041
N37	N	1.473458	0.102606	0.344078
N38	N	1.473492	0.102602	-0.344089
C39	C	1.554146	0.057787	0.416283
C40	C	1.554165	0.057785	0.583695
H41	H	0.848762	0.100773	0.232468
H42	H	0.893263	0.101429	-0.107245
H43	H	1.404413	0.140977	0.593827
Br44	Br	1.465367	-0.705256	-0.310720
Br45	Br	1.477093	-0.261173	-0.310672
H46	H	1.404387	0.140972	0.406199
H47	H	1.098145	0.104440	0.232475
H48	H	1.053708	0.103787	-0.107248
Br49	Br	1.465323	-0.705294	0.310644
H50	H	1.481026	-0.109295	0.239153
H51	H	1.477559	-0.241435	0.239124
Br52	Br	1.469923	-0.533580	-0.310706
Br53	Br	1.481633	-0.089495	-0.310661
H54	H	1.469345	-0.553387	0.239102
Br55	Br	1.668952	-0.006344	0.312757
H56	H	1.623250	0.019416	0.645789
