data_functionalizedCrystal
_audit_creation_method	'MofGen! by Chris Wilmer'
_symmetry_space_group_name_H-M	'P1'
_symmetry_Int_Tables_number	1
_symmetry_cell_setting	triclinic
loop_
_symmetry_equiv_pos_as_xyz
  x,y,z
_cell_length_a	19.076808
_cell_length_b	19.805407
_cell_length_c	19.077579
_cell_angle_alpha	87.685941
_cell_angle_beta	94.529153
_cell_angle_gamma	87.680447
loop_
_atom_site_label
_atom_site_type_symbol
_atom_site_fract_x
_atom_site_fract_y
_atom_site_fract_z
Zn1	Zn	-0.264741	-1.039457	0.387324
Zn2	Zn	0.068593	-0.706124	0.720657
Zn3	Zn	0.401926	-0.372791	1.053990
Zn4	Zn	-0.387373	-1.029904	0.264694
Zn5	Zn	-0.054040	-0.696571	0.598027
Zn6	Zn	0.279294	-0.363238	0.931361
Zn7	Zn	-0.269489	-0.921540	0.269447
Zn8	Zn	0.063845	-0.588207	0.602781
Zn9	Zn	0.397178	-0.254873	0.936114
Zn10	Zn	-0.382592	-0.921500	0.382543
Zn11	Zn	-0.049259	-0.588166	0.715877
Zn12	Zn	0.284074	-0.254833	1.049210
O13	O	-0.326049	-0.978100	0.326002
O14	O	0.007285	-0.644767	0.659335
O15	O	0.340618	-0.311434	0.992669
O16	O	-0.281022	-1.132906	0.371068
O17	O	0.052312	-0.799573	0.704401
O18	O	0.385645	-0.466240	1.037734
O19	O	-0.375723	-1.011549	0.166673
O20	O	-0.042390	-0.678215	0.500006
O21	O	0.290943	-0.344882	0.833339
O22	O	-0.170202	-0.941197	0.289074
O23	O	0.163131	-0.607863	0.622407
O24	O	0.496464	-0.274530	0.955740
O25	O	-0.371119	-1.125888	0.280972
O26	O	-0.037786	-0.792555	0.614306
O27	O	0.295547	-0.459221	0.947639
O28	O	-0.166714	-1.027830	0.375677
O29	O	0.166619	-0.694497	0.709010
O30	O	0.499953	-0.361163	1.042343
O31	O	-0.289114	-0.931934	0.170165
O32	O	0.044219	-0.598601	0.503498
O33	O	0.377552	-0.265267	0.836831
O34	O	-0.284478	-0.826818	0.284438
O35	O	0.048855	-0.493485	0.617772
O36	O	0.382188	-0.160152	0.951105
O37	O	-0.362971	-0.941128	0.481829
O38	O	-0.029638	-0.607795	0.815163
O39	O	0.303696	-0.274461	1.148496
O40	O	-0.367575	-0.826789	0.367530
O41	O	-0.034242	-0.493455	0.700863
O42	O	0.299092	-0.160122	1.034196
O43	O	-0.276386	-1.027791	0.485341
O44	O	0.056947	-0.694457	0.818675
O45	O	0.390281	-0.361124	1.152008
O46	O	-0.485395	-1.011509	0.276337
O47	O	-0.152062	-0.678176	0.609671
O48	O	0.181271	-0.344843	0.943004
O49	O	-0.481883	-0.931865	0.362921
O50	O	-0.148550	-0.598532	0.696254
O51	O	0.184784	-0.265198	1.029587
C52	C	-0.326024	-0.802244	0.325982
C53	C	0.007310	-0.468911	0.659315
C54	C	0.340643	-0.135578	0.992648
C55	C	-0.326029	-0.727013	0.325989
C56	C	0.007304	-0.393679	0.659322
C57	C	0.340637	-0.060346	0.992655
C58	C	-0.279192	-0.695323	0.372966
C59	C	0.054142	-0.361990	0.706299
C60	C	0.387475	-0.028656	1.039633
C61	C	-0.279194	-0.624635	0.372967
C62	C	0.054139	-0.291301	0.706300
C63	C	0.387473	0.042032	1.039633
C64	C	-0.326038	-0.585637	0.325993
C65	C	0.007296	-0.252303	0.659327
C66	C	0.340629	0.081030	0.992660
C67	C	-0.372877	-0.617331	0.279011
C68	C	-0.039544	-0.283998	0.612344
C69	C	0.293789	0.049336	0.945678
C70	C	-0.372871	-0.688018	0.279007
C71	C	-0.039538	-0.354685	0.612341
C72	C	0.293795	-0.021352	0.945674
C73	C	-0.372902	-0.332257	0.279025
C74	C	-0.039569	0.001076	0.612358
C75	C	0.293764	0.334409	0.945691
C76	C	-0.372906	-0.261565	0.279033
C77	C	-0.039573	0.071768	0.612367
C78	C	0.293760	0.405101	0.945700
C79	C	-0.279225	-0.268874	0.372984
C80	C	0.054108	0.064460	0.706317
C81	C	0.387441	0.397793	1.039651
C82	C	-0.279219	-0.339561	0.372980
C83	C	0.054114	-0.006227	0.706313
C84	C	0.387448	0.327106	1.039647
C85	C	-0.326056	-0.371249	0.325996
C86	C	0.007277	-0.037915	0.659329
C87	C	0.340611	0.295418	0.992662
C88	C	-0.326052	-0.447897	0.325994
C89	C	0.007281	-0.114564	0.659328
C90	C	0.340615	0.218769	0.992661
C91	C	-0.326045	-0.508990	0.325997
C92	C	0.007288	-0.175656	0.659331
C93	C	0.340621	0.157677	0.992664
C94	C	-0.509219	-0.970665	0.318610
C95	C	-0.175886	-0.637332	0.651943
C96	C	0.157448	-0.303999	0.985277
C97	C	-0.587579	-0.967547	0.315471
C98	C	-0.254246	-0.634214	0.648804
C99	C	0.079088	-0.300881	0.982138
C100	C	-0.622515	-1.011157	0.359123
C101	C	-0.289181	-0.677824	0.692456
C102	C	0.044152	-0.344490	1.025789
C103	C	-0.696142	-1.008225	0.356175
C104	C	-0.362809	-0.674891	0.689508
C105	C	-0.029476	-0.341558	1.022841
C106	C	-0.734833	-0.961686	0.309571
C107	C	-0.401500	-0.628352	0.642904
C108	C	-0.068166	-0.295019	0.976238
C109	C	-0.699893	-0.918071	0.265918
C110	C	-0.366559	-0.584738	0.599251
C111	C	-0.033226	-0.251405	0.932584
C112	C	-0.626266	-0.921001	0.268870
C113	C	-0.292933	-0.587668	0.602203
C114	C	0.040401	-0.254334	0.935536
C115	C	-0.955234	-0.948088	0.295906
C116	C	-0.621901	-0.614754	0.629240
C117	C	-0.288567	-0.281421	0.962573
C118	C	-1.028866	-0.945163	0.292956
C119	C	-0.695532	-0.611830	0.626289
C120	C	-0.362199	-0.278496	0.959623
C121	C	-1.025110	-1.035316	0.383214
C122	C	-0.691777	-0.701982	0.716548
C123	C	-0.358443	-0.368649	1.049881
C124	C	-0.951483	-1.038244	0.386159
C125	C	-0.618149	-0.704910	0.719492
C126	C	-0.284816	-0.371577	1.052826
C127	C	-0.916548	-0.994627	0.342509
C128	C	-0.583215	-0.661294	0.675842
C129	C	-0.249882	-0.327961	1.009175
N130	N	-0.810093	-0.958689	0.306555
N131	N	-0.476759	-0.625355	0.639888
N132	N	-0.143426	-0.292022	0.973222
N133	N	-0.841290	-0.997621	0.345529
N134	N	-0.507957	-0.664288	0.678862
N135	N	-0.174623	-0.330955	1.012195
C136	C	-0.142162	-0.985584	0.333439
C137	C	0.191171	-0.652250	0.666772
C138	C	0.524504	-0.318917	1.000105
C139	C	-0.063801	-0.988772	0.336608
C140	C	0.269532	-0.655439	0.669941
C141	C	0.602866	-0.322106	1.003274
C142	C	-0.318616	-0.985520	0.509880
C143	C	0.014718	-0.652187	0.843213
C144	C	0.348051	-0.318854	1.176547
C145	C	-0.315448	-0.988683	0.588238
C146	C	0.017885	-0.655349	0.921571
C147	C	0.351219	-0.322016	1.254905
C148	C	-0.326069	-0.154643	0.326017
C149	C	0.007264	0.178691	0.659350
C150	C	0.340598	0.512024	0.992684
C151	C	-0.326065	-0.229875	0.326008
C152	C	0.007268	0.103459	0.659341
C153	C	0.340602	0.436792	0.992674
C154	C	-0.333402	-0.970750	0.142842
C155	C	-0.000069	-0.637417	0.476175
C156	C	0.333265	-0.304083	0.809508
C157	C	-0.336371	-0.967727	0.064492
C158	C	-0.003038	-0.634394	0.397825
C159	C	0.330296	-0.301060	0.731159
C160	C	-0.292781	-1.011360	1.029506
C161	C	0.040552	-0.678026	1.362839
C162	C	0.373885	-0.344693	1.696172
C163	C	-0.295761	-1.008384	0.955880
C164	C	0.037572	-0.675051	1.289213
C165	C	0.370906	-0.341718	1.622547
C166	C	-0.342327	-0.961773	0.917242
C167	C	-0.008994	-0.628439	1.250576
C168	C	0.324340	-0.295106	1.583909
C169	C	-0.385921	-0.918138	0.952234
C170	C	-0.052588	-0.584805	1.285567
C171	C	0.280745	-0.251472	1.618900
C172	C	-0.382945	-0.921117	1.025858
C173	C	-0.049611	-0.587784	1.359191
C174	C	0.283722	-0.254451	1.692525
C175	C	-0.356066	-0.948027	0.696853
C176	C	-0.022733	-0.614694	1.030187
C177	C	0.310601	-0.281361	1.363520
C178	C	-0.359038	-0.945050	0.623224
C179	C	-0.025704	-0.611717	0.956558
C180	C	0.307629	-0.278383	1.289891
C181	C	-0.268878	-1.035297	0.626876
C182	C	0.064456	-0.701964	0.960209
C183	C	0.397789	-0.368631	1.293542
C184	C	-0.265902	-1.038269	0.700501
C185	C	0.067431	-0.704936	1.033834
C186	C	0.400764	-0.371603	1.367168
C187	C	-0.309499	-0.994638	0.735486
C188	C	0.023834	-0.661304	1.068819
C189	C	0.357167	-0.327971	1.402153
N190	N	-0.345372	-0.958729	0.841985
N191	N	-0.012039	-0.625395	1.175318
N192	N	0.321295	-0.292062	1.508652
N193	N	-0.306457	-0.997685	0.810742
N194	N	0.026876	-0.664352	1.144075
N195	N	0.360209	-0.331019	1.477409
H196	H	-0.241076	-0.371310	0.411233
H197	H	0.092257	-0.037976	0.744566
H198	H	0.425590	0.295357	1.077900
F199	F	-0.229375	-0.235143	0.422988
F200	F	0.103959	0.098190	0.756321
F201	F	0.437292	0.431523	1.089654
F202	F	-0.581343	-1.060694	0.408721
F203	F	-0.248010	-0.727361	0.742055
F204	F	0.085323	-0.394027	1.075388
F205	F	-0.422765	-0.220062	0.229034
F206	F	-0.089432	0.113271	0.562367
F207	F	0.243902	0.446605	0.895701
H208	H	-0.260267	-1.043916	0.927397
H209	H	0.073066	-0.710583	1.260731
H210	H	0.406399	-0.377249	1.594064
H211	H	-1.060366	-0.907262	0.255005
H212	H	-0.727033	-0.573929	0.588339
H213	H	-0.393699	-0.240595	0.921672
H214	H	-0.919982	-1.076139	0.424107
H215	H	-0.586648	-0.742806	0.757441
H216	H	-0.253315	-0.409473	1.090774
H217	H	-0.926796	-0.912575	0.260363
H218	H	-0.593463	-0.579241	0.593696
H219	H	-0.260130	-0.245908	0.927030
F220	F	-0.589086	-0.874585	0.222411
F221	F	-0.255752	-0.541251	0.555744
F222	F	0.077581	-0.207918	0.889077
H223	H	-0.391565	-0.912498	0.725329
H224	H	-0.058231	-0.579165	1.058663
H225	H	0.275102	-0.245832	1.391996
H226	H	-0.227986	-1.076228	0.731955
H227	H	0.105347	-0.742895	1.065288
H228	H	0.438680	-0.409562	1.398622
F229	F	-0.741072	-0.868535	0.216325
F230	F	-0.407739	-0.535202	0.549658
F231	F	-0.074405	-0.201868	0.882991
H232	H	-0.241048	-0.727070	0.411219
H233	H	0.092285	-0.393737	0.744552
H234	H	0.425619	-0.060404	1.077886
F235	F	-0.222478	-1.081727	0.589637
F236	F	0.110855	-0.748393	0.922970
F237	F	0.444188	-0.415060	1.256304
H238	H	-0.254858	-1.049312	1.060959
H239	H	0.078476	-0.715978	1.394293
H240	H	0.411809	-0.382645	1.727626
H241	H	-0.724584	-1.043741	0.391715
H242	H	-0.391250	-0.710408	0.725048
H243	H	-0.057917	-0.377074	1.058381
F244	F	-1.062295	-1.081730	0.429669
F245	F	-0.728962	-0.748397	0.763002
F246	F	-0.395628	-0.415064	1.096335
F247	F	-0.429340	-0.874679	1.063093
F248	F	-0.096007	-0.541345	1.396426
F249	F	0.237327	-0.208012	1.729759
F250	F	-0.422739	-0.365973	0.229008
F251	F	-0.089406	-0.032640	0.562341
F252	F	0.243928	0.300694	0.895675
F253	F	-0.408602	-0.895438	0.582104
F254	F	-0.075269	-0.562105	0.915438
F255	F	0.258064	-0.228771	1.248771
F256	F	-0.435482	-0.868532	0.911111
F257	F	-0.102149	-0.535199	1.244444
F258	F	0.231184	-0.201865	1.577777
F259	F	-0.422729	-0.575825	0.229015
F260	F	-0.089395	-0.242491	0.562348
F261	F	0.243938	0.090842	0.895681
H262	H	-0.241055	-0.598836	0.411222
H263	H	0.092278	-0.265503	0.744555
H264	H	0.425611	0.067830	1.077888
F265	F	-0.422723	-0.721744	0.229008
F266	F	-0.089389	-0.388411	0.562342
F267	F	0.243944	-0.055077	0.895675
