data_functionalizedCrystal
_audit_creation_method	'MofGen! by Chris Wilmer'
_symmetry_space_group_name_H-M	'P1'
_symmetry_Int_Tables_number	1
_symmetry_cell_setting	triclinic
loop_
_symmetry_equiv_pos_as_xyz
  x,y,z
_cell_length_a	16.956995
_cell_length_b	9.065218
_cell_length_c	8.140239
_cell_angle_alpha	89.998314
_cell_angle_beta	90.005865
_cell_angle_gamma	99.464822
loop_
_atom_site_label
_atom_site_type_symbol
_atom_site_fract_x
_atom_site_fract_y
_atom_site_fract_z
O1	O	1.058476	-0.061088	0.136724
O2	O	0.826693	-0.112834	0.136701
O3	O	0.947375	0.128384	0.136710
O4	O	0.937794	-0.302306	0.136715
O5	O	0.947369	0.128386	-0.136517
O6	O	0.826686	-0.112833	-0.136526
O7	O	1.058469	-0.061086	-0.136503
Zn8	Zn	0.942577	-0.086959	-0.179895
Zn9	Zn	0.942586	-0.086961	0.180093
O10	O	0.937787	-0.302305	-0.136512
C11	C	0.797001	-0.115483	0.000085
C12	C	0.708537	-0.123360	0.000076
C13	C	0.209662	-0.182288	0.000138
C14	C	0.292784	-0.174875	0.000136
C15	C	0.342867	-0.035734	0.000122
C16	C	0.309825	0.096004	0.000126
C17	C	0.226705	0.088590	0.000139
C18	C	0.592375	0.000963	0.000093
C19	C	0.675500	0.008368	0.000075
C20	C	0.658453	-0.262513	0.000088
C21	C	0.575332	-0.269915	0.000092
C22	C	0.542297	-0.138177	0.000104
N23	N	0.427831	-0.028153	0.000116
N24	N	0.457335	-0.145759	0.000122
C25	C	0.946451	0.183236	0.000099
C26	C	0.943698	0.346675	0.000106
C27	C	1.088162	-0.058438	0.000117
C28	C	1.176625	-0.050561	0.000137
C29	C	0.938711	-0.357157	0.000103
C30	C	0.941465	-0.520596	0.000106
N31	N	0.942576	-0.086956	-0.425578
N32	N	0.942592	-0.086952	0.425776
H33	H	0.716277	0.121680	0.000071
C34	C	0.329117	-0.319787	0.000121
C35	C	0.310640	-0.432528	-0.141766
C36	C	0.346968	-0.577450	-0.141783
C37	C	0.401773	-0.609632	0.000087
C38	C	0.420253	-0.496889	0.141985
C39	C	0.383925	-0.351966	0.142002
H40	H	0.270067	-0.408708	-0.246797
H41	H	0.333288	-0.660911	-0.246826
H42	H	0.428666	-0.716913	0.000074
H43	H	0.460826	-0.520709	0.247015
H44	H	0.397605	-0.268506	0.247045
C45	C	0.190362	0.233493	0.000133
C46	C	0.135578	0.265653	0.142025
C47	C	0.099237	0.410562	0.142028
C48	C	0.117680	0.523310	0.000139
C49	C	0.172466	0.491153	-0.141763
C50	C	0.208807	0.346245	-0.141766
H51	H	0.121924	0.182188	0.247069
H52	H	0.058680	0.434366	0.247074
H53	H	0.090778	0.630580	0.000141
H54	H	0.186121	0.574619	-0.246807
H55	H	0.249364	0.322440	-0.246813
C56	C	0.556048	0.145876	0.000100
C57	C	0.574497	0.258624	-0.141787
C58	C	0.538169	0.403547	-0.141777
C59	C	0.483392	0.435722	0.000121
C60	C	0.464940	0.322971	0.142019
C61	C	0.501268	0.178048	0.142009
H62	H	0.615048	0.234809	-0.246838
H63	H	0.551828	0.487013	-0.246820
H64	H	0.456500	0.543003	0.000128
H65	H	0.424389	0.346786	0.247069
H66	H	0.487609	0.094583	0.247052
H67	H	0.685359	-0.369766	0.000081
H68	H	0.168889	-0.295593	0.000137
H69	H	0.534559	-0.383219	0.000108
H70	H	0.350610	0.209296	0.000124
