data_functionalizedCrystal
_audit_creation_method	'MofGen! by Chris Wilmer'
_symmetry_space_group_name_H-M	'P1'
_symmetry_Int_Tables_number	1
_symmetry_cell_setting	triclinic
loop_
_symmetry_equiv_pos_as_xyz
  x,y,z
_cell_length_a	16.109302
_cell_length_b	10.489716
_cell_length_c	15.186229
_cell_angle_alpha	90.000291
_cell_angle_beta	89.994701
_cell_angle_gamma	83.995458
loop_
_atom_site_label
_atom_site_type_symbol
_atom_site_fract_x
_atom_site_fract_y
_atom_site_fract_z
O1	O	1.104131	0.163953	-0.073260
O2	O	1.604131	0.663953	0.426740
O3	O	0.862194	0.184355	-0.073252
O4	O	1.362194	0.684355	0.426748
O5	O	0.988679	-0.011526	-0.073260
O6	O	1.488679	0.488474	0.426740
O7	O	0.977647	0.359834	-0.073253
O8	O	1.477647	0.859834	0.426747
O9	O	0.988670	-0.011528	0.073198
O10	O	1.488670	0.488472	0.573198
O11	O	0.862186	0.184353	0.073205
O12	O	1.362186	0.684353	0.573205
O13	O	1.104123	0.163950	0.073197
O14	O	1.604123	0.663950	0.573197
Zn15	Zn	0.983153	0.174151	0.096454
Zn16	Zn	1.483153	0.674151	0.596454
Zn17	Zn	0.983164	0.174155	-0.096510
Zn18	Zn	1.483164	0.674155	0.403490
O19	O	0.977638	0.359831	0.073204
O20	O	1.477638	0.859831	0.573204
C21	C	0.831210	0.183527	-0.000023
C22	C	1.331210	0.683527	0.499977
C23	C	0.738900	0.181049	-0.000020
C24	C	1.238900	0.681049	0.499980
C25	C	0.526519	0.175317	0.079805
C26	C	1.026519	0.675317	0.579805
C27	C	0.439785	0.172975	0.079802
C28	C	0.939785	0.672975	0.579802
C29	C	0.439804	0.172985	-0.079874
C30	C	0.939804	0.672985	0.420126
C31	C	0.526538	0.175318	-0.079870
C32	C	1.026538	0.675318	0.420130
C33	C	0.569892	0.176491	-0.000028
C34	C	1.069892	0.676491	0.499972
C35	C	0.396425	0.171815	-0.000035
C36	C	0.896425	0.671815	0.499965
C37	C	0.302383	0.169276	-0.000039
C38	C	0.802383	0.669276	0.499961
C39	C	0.663940	0.179028	-0.000024
C40	C	1.163940	0.679028	0.499976
C41	C	0.987845	-0.059047	-0.000034
C42	C	1.487845	0.440953	0.499966
C43	C	0.985366	-0.200642	-0.000042
C44	C	1.485366	0.299358	0.499958
C45	C	1.062930	-0.299441	-0.000036
C46	C	1.562930	0.200559	0.499964
C47	C	1.021947	-0.376206	-0.072244
C48	C	1.521947	0.123794	0.427756
C49	C	1.021921	-0.376172	0.072152
C50	C	1.521921	0.123828	0.572152
C51	C	0.944416	-0.275542	-0.072309
C52	C	1.444416	0.224458	0.427691
C53	C	0.944401	-0.275503	0.072152
C54	C	1.444401	0.224497	0.572152
C55	C	0.903361	-0.352218	-0.000073
C56	C	1.403361	0.147782	0.499927
C57	C	1.135107	0.164778	-0.000034
C58	C	1.635107	0.664778	0.499966
C59	C	1.227417	0.167257	-0.000043
C60	C	1.727417	0.667257	0.499957
C61	C	0.978472	0.407353	-0.000024
C62	C	1.478472	0.907353	0.499976
C63	C	0.980951	0.548948	-0.000021
C64	C	1.480951	1.048948	0.499979
N65	N	0.983151	0.174148	0.228147
N66	N	1.483151	0.674148	0.728147
N67	N	0.983172	0.174148	-0.228202
N68	N	1.483172	0.674148	0.271798
C69	C	1.039178	0.087441	0.453867
C70	C	1.539178	0.587441	0.953867
C71	C	1.039181	0.087438	0.546056
C72	C	1.539181	0.587438	1.046056
C73	C	0.927140	0.260859	0.546072
C74	C	1.427140	0.760859	1.046072
C75	C	0.927134	0.260855	0.453884
C76	C	1.427134	0.760855	0.953884
C77	C	0.983157	0.174147	0.407784
C78	C	1.483157	0.674147	0.907784
C79	C	0.983166	0.174148	0.592161
C80	C	1.483166	0.674148	1.092161
C81	C	0.983168	0.174146	0.692117
C82	C	1.483168	0.674146	1.192117
C83	C	0.983154	0.174148	0.307821
C84	C	1.483154	0.674148	0.807821
H85	H	0.404494	0.172031	-0.144879
H86	H	0.904494	0.672031	0.355121
C87	C	0.900206	-0.216062	0.154625
C88	C	1.400206	0.283938	0.654625
H89	H	0.927858	-0.250688	0.205886
H90	H	1.427858	0.249312	0.705886
H91	H	0.843829	-0.235044	0.155149
H92	H	1.343829	0.264956	0.655149
H93	H	0.901687	-0.125772	0.153733
H94	H	1.401687	0.374228	0.653733
C95	C	1.066163	-0.435529	0.154623
C96	C	1.566163	0.064471	0.654623
H97	H	1.122811	-0.417847	0.154525
H98	H	1.622811	0.082153	0.654525
H99	H	1.063809	-0.525637	0.154323
H100	H	1.563809	-0.025637	0.654323
H101	H	1.039173	-0.399696	0.205902
H102	H	1.539173	0.100304	0.705902
H103	H	0.881527	0.331456	0.583616
H104	H	1.381527	0.831456	1.083616
H105	H	0.404474	0.172020	0.144810
H106	H	0.904474	0.672020	0.644810
C107	C	0.574252	0.176613	-0.167690
C108	C	1.074252	0.676613	0.332310
H109	H	0.536009	0.175599	-0.215242
H110	H	1.036009	0.675599	0.284758
H111	H	0.613988	0.103188	-0.171010
H112	H	1.113988	0.603188	0.328990
H113	H	0.602184	0.251870	-0.171000
H114	H	1.102184	0.751870	0.329000
H115	H	1.054694	-0.420175	-0.133293
H116	H	1.554694	0.079825	0.366707
H117	H	0.881511	0.331462	0.416360
H118	H	1.381511	0.831462	0.916360
C119	C	1.100800	-0.007930	0.403155
C120	C	1.600800	0.492070	0.903155
H121	H	1.092781	0.004493	0.341650
H122	H	1.592781	0.504493	0.841650
H123	H	1.091273	-0.093064	0.418264
H124	H	1.591273	0.406936	0.918264
H125	H	1.156368	0.005962	0.418258
H126	H	1.656368	0.505962	0.918258
C127	C	0.574209	0.176570	0.167627
C128	C	1.074209	0.676570	0.667627
H129	H	0.535954	0.175517	0.215171
H130	H	1.035954	0.675517	0.715171
H131	H	0.602150	0.251808	0.170965
H132	H	1.102150	0.751808	0.670965
H133	H	0.613938	0.103126	0.170931
H134	H	1.113938	0.603126	0.670931
C135	C	1.154068	-0.267415	-0.000135
C136	C	1.654068	0.232585	0.499865
H137	H	1.181508	-0.302077	-0.051508
H138	H	1.681508	0.197923	0.448492
H139	H	1.181880	-0.303376	0.050642
H140	H	1.681880	0.196624	0.550642
H141	H	1.155037	-0.177021	0.000379
H142	H	1.655037	0.322979	0.500379
H143	H	0.911694	-0.231762	-0.133422
H144	H	1.411694	0.268238	0.366578
H145	H	1.084796	0.016832	0.583574
H146	H	1.584796	0.516832	1.083574
H147	H	0.835843	-0.375669	-0.000110
H148	H	1.335843	0.124331	0.499890
