data_functionalizedCrystal
_audit_creation_method	'MofGen! by Chris Wilmer'
_symmetry_space_group_name_H-M	'P1'
_symmetry_Int_Tables_number	1
_symmetry_cell_setting	triclinic
loop_
_symmetry_equiv_pos_as_xyz
  x,y,z
_cell_length_a	12.759401
_cell_length_b	18.101395
_cell_length_c	12.759393
_cell_angle_alpha	89.968265
_cell_angle_beta	89.978442
_cell_angle_gamma	90.031366
loop_
_atom_site_label
_atom_site_type_symbol
_atom_site_fract_x
_atom_site_fract_y
_atom_site_fract_z
Zn1	Zn	1.606142	-0.294793	-0.594037
Zn2	Zn	1.605984	-0.418651	-0.418352
Zn3	Zn	1.430442	-0.294829	-0.418369
Zn4	Zn	1.430382	-0.418598	-0.593985
O5	O	1.518237	-0.356718	-0.506186
O6	O	1.753142	-0.311231	-0.570746
O7	O	1.582657	-0.402263	-0.271333
O8	O	1.453840	-0.191191	-0.441701
O9	O	1.753026	-0.402229	-0.441671
O10	O	1.582926	-0.191165	-0.570763
O11	O	1.453687	-0.311291	-0.271346
O12	O	1.283413	-0.311239	-0.441650
O13	O	1.453738	-0.402138	-0.741013
O14	O	1.283369	-0.402172	-0.570675
O15	O	1.582868	-0.311179	-0.741051
O16	O	1.582599	-0.522277	-0.441621
O17	O	1.453585	-0.522238	-0.570658
C18	C	1.245270	-0.356704	-0.506160
C19	C	1.128493	-0.356717	-0.506173
C20	C	1.073567	-0.404024	-0.438877
C21	C	0.963843	-0.404036	-0.438905
C22	C	0.963981	-0.309428	-0.573527
C23	C	1.073703	-0.309420	-0.573504
C24	C	0.813816	-0.491355	-0.401180
C25	C	0.758886	-0.538655	-0.333867
C26	C	0.794430	-0.549935	-0.231317
C27	C	0.884902	-0.513903	-0.196058
C28	C	0.939826	-0.466597	-0.263365
C29	C	0.904284	-0.455332	-0.365930
C30	C	1.223732	-0.222101	-0.611219
C31	C	1.278658	-0.174790	-0.678521
C32	C	1.243117	-0.163503	-0.781073
C33	C	1.152641	-0.199522	-0.816328
C34	C	1.097715	-0.246832	-0.749026
C35	C	1.133264	-0.258120	-0.646475
C36	C	1.518097	-0.549128	-0.506155
C37	C	1.518133	-0.631442	-0.506177
C38	C	1.518363	-0.930533	-0.506233
C39	C	1.437379	-0.899214	-0.587622
C40	C	1.436995	-0.813596	-0.587367
C41	C	1.518249	-0.782151	-0.506206
C42	C	1.488267	-0.813308	-0.395480
C43	C	1.487745	-0.898953	-0.395967
C44	C	1.629506	-0.898875	-0.534597
C45	C	1.628853	-0.813224	-0.537025
C46	C	1.518186	-0.698291	-0.506184
C47	C	1.518424	-1.014393	-0.506248
C48	C	1.792271	-0.356732	-0.506213
C49	C	1.909047	-0.356738	-0.506224
C50	C	1.518314	-0.356649	-0.780219
C51	C	1.518346	-0.356619	-0.896996
C52	C	1.518407	-0.163556	-0.506240
C53	C	1.518479	-0.081242	-0.506263
C54	C	1.585529	-0.403934	-1.061587
C55	C	1.585503	-0.403968	-0.951863
C56	C	1.451203	-0.309238	-0.951859
C57	C	1.451224	-0.309207	-1.061581
C58	C	1.622934	-0.491352	-0.801900
C59	C	1.690086	-0.538725	-0.747041
C60	C	1.792597	-0.550091	-0.782668
C61	C	1.827977	-0.514074	-0.873153
C62	C	1.760830	-0.466695	-0.928006
C63	C	1.658304	-0.455343	-0.892380
C64	C	1.413804	-0.221823	-1.211546
C65	C	1.346662	-0.174439	-1.266402
C66	C	1.244149	-0.163066	-1.230777
C67	C	1.208774	-0.199070	-1.140288
C68	C	1.275916	-0.246453	-1.085433
C69	C	1.378427	-0.257828	-1.121066
C70	C	1.518222	-0.356733	-0.233218
C71	C	1.518393	-0.356554	-0.116442
H72	H	1.352323	-0.145457	-0.649805
H73	H	1.013484	-0.437259	-0.234657
H74	H	1.407883	-0.791925	-0.371023
O75	O	0.735177	-0.600948	-0.158717
H76	H	0.787427	-0.646605	-0.133440
H77	H	1.189488	-0.124474	-1.275443
O78	O	1.563932	-0.786336	-0.312952
H79	H	1.561939	-0.725072	-0.309946
O80	O	1.938553	-0.526320	-0.911570
H81	H	1.979300	-0.565317	-0.858228
H82	H	1.847273	-0.588664	-0.737994
H83	H	1.651462	-0.792856	-0.618513
H84	H	1.406500	-0.918998	-0.371940
O85	O	1.114297	-0.187344	-0.926938
H86	H	1.042150	-0.220331	-0.940141
O87	O	1.000126	-0.285681	-0.787045
H88	H	1.011621	-0.346351	-0.781905
H89	H	1.375477	-0.145118	-1.340077
O90	O	0.661311	-0.577521	-0.371889
H91	H	0.645830	-0.561743	-0.454517
H92	H	1.497283	-0.231074	-1.240555
H93	H	1.539458	-0.482109	-0.772890
O94	O	1.132668	-0.455038	-0.366267
H95	H	1.076035	-0.487940	-0.319484
O96	O	1.651925	-0.577571	-0.649451
H97	H	1.715847	-0.612415	-0.617284
O98	O	1.462094	-0.926617	-0.696608
H99	H	1.477830	-0.878800	-0.748797
O100	O	1.665717	-0.927399	-0.639730
H101	H	1.604893	-0.964463	-0.672943
O102	O	1.461817	-0.785707	-0.696137
H103	H	1.533980	-0.751486	-0.693575
H104	H	1.396518	-0.270688	-0.907178
O105	O	1.237765	-0.285296	-0.987837
H106	H	1.155197	-0.269433	-0.972281
H107	H	1.692382	-0.791814	-0.482066
H108	H	0.913828	-0.523085	-0.112547
H109	H	0.784875	-0.482183	-0.484688
H110	H	0.919358	-0.270920	-0.628344
H111	H	1.287841	-0.124971	-0.835865
O112	O	1.262062	-0.234275	-0.500601
H113	H	1.334191	-0.201270	-0.487388
O114	O	1.562473	-0.926417	-0.312903
H115	H	1.536958	-0.905845	-0.235040
H116	H	1.689842	-0.919128	-0.475318
O117	O	1.328910	-0.927794	-0.563050
H118	H	1.332427	-0.964206	-0.493121
H119	H	1.640221	-0.442487	-1.106251
O120	O	1.327881	-0.786534	-0.562454
H121	H	1.275185	-0.834620	-0.550533
H122	H	1.125305	-0.189800	-1.111271
H123	H	1.789637	-0.437368	-1.001675
