data_functionalizedCrystal
_audit_creation_method	'MofGen! by Chris Wilmer'
_symmetry_space_group_name_H-M	'P1'
_symmetry_Int_Tables_number	1
_symmetry_cell_setting	triclinic
loop_
_symmetry_equiv_pos_as_xyz
  x,y,z
_cell_length_a	19.188925
_cell_length_b	19.188924
_cell_length_c	12.376457
_cell_angle_alpha	101.235232
_cell_angle_beta	78.745006
_cell_angle_gamma	83.142256
loop_
_atom_site_label
_atom_site_type_symbol
_atom_site_fract_x
_atom_site_fract_y
_atom_site_fract_z
O1	O	0.939580	0.073722	-0.094034
O2	O	0.736268	0.085460	-0.094032
O3	O	0.843792	-0.022063	-0.094019
O4	O	0.832056	0.181245	-0.094046
O5	O	0.816920	0.004781	0.093990
O6	O	0.709396	0.112305	0.093978
O7	O	0.912709	0.100566	0.093975
Zn8	Zn	0.806786	0.110697	0.123827
Zn9	Zn	0.842190	0.075329	-0.123883
O10	O	0.805185	0.208090	0.093963
C11	C	0.696821	0.098503	-0.000027
C12	C	0.619316	0.097364	-0.000025
C13	C	0.057546	0.152827	-0.000035
C14	C	0.130370	0.153902	-0.000041
C15	C	0.175305	0.090812	-0.000031
C16	C	0.147414	0.026636	-0.000043
C17	C	0.074593	0.025561	-0.000049
N18	N	0.286835	0.054274	0.063975
N19	N	0.356011	0.055300	0.063982
C20	C	0.394712	0.094048	-0.000018
N21	N	0.361620	0.131742	-0.064011
N22	N	0.292436	0.130719	-0.064014
C23	C	0.254268	0.091971	-0.000026
C24	C	0.501560	0.159384	-0.000020
C25	C	0.574386	0.160456	-0.000034
C26	C	0.591427	0.033189	-0.000024
C27	C	0.518603	0.032118	-0.000023
C28	C	0.473673	0.095218	-0.000015
C29	C	0.829977	-0.034652	-0.000014
C30	C	0.828837	-0.112156	-0.000011
C31	C	0.842954	-0.163188	-0.102495
C32	C	0.841875	-0.236012	-0.102503
C33	C	0.826693	-0.257802	-0.000022
C34	C	0.812571	-0.206759	0.102475
C35	C	0.813643	-0.133936	0.102481
N36	N	0.853840	-0.366576	0.076252
N37	N	0.852824	-0.435756	0.076239
C38	C	0.823461	-0.477213	-0.000033
N39	N	0.795163	-0.446880	-0.076310
N40	N	0.796183	-0.377695	-0.076301
C41	C	0.825529	-0.336765	-0.000017
C42	C	0.836407	-0.607210	-0.102533
C43	C	0.835324	-0.680034	-0.102538
C44	C	0.806027	-0.650780	0.102444
C45	C	0.807104	-0.577957	0.102445
C46	C	0.822298	-0.556177	-0.000046
C47	C	0.952156	0.087523	-0.000032
C48	C	1.029662	0.088661	-0.000041
C49	C	0.819000	0.220678	-0.000045
C50	C	0.820141	0.298181	-0.000055
N51	N	0.782629	0.134835	0.292882
N52	N	0.866353	0.051186	-0.292939
C53	C	0.922430	-0.004859	0.647883
C54	C	0.939334	-0.021753	0.529545
C55	C	0.900159	0.017392	0.470374
C56	C	0.844078	0.073435	0.529552
C57	C	0.827176	0.090334	0.647901
C58	C	0.804905	0.112586	0.470392
C59	C	0.748823	0.168629	0.529570
C60	C	0.731924	0.185525	0.647908
C61	C	0.771099	0.146379	0.707079
C62	C	0.821807	0.095686	0.352042
C63	C	0.726552	0.190880	0.352060
C64	C	0.709648	0.207774	0.470398
H65	H	0.020968	0.204207	-0.000034
H66	H	0.855324	-0.145460	-0.185952
H67	H	0.464975	0.210763	-0.000016
H68	H	0.153076	0.206157	-0.000026
H69	H	0.853366	-0.277569	-0.185961
H70	H	0.795615	-0.536406	0.185899
H71	H	0.867468	0.050056	0.303870
H72	H	0.984995	-0.067382	0.481367
H73	H	0.802145	-0.092384	0.185938
H74	H	0.757334	0.160132	0.803440
H75	H	0.848775	-0.589475	-0.185988
H76	H	0.913925	0.003634	0.374018
H77	H	0.597088	0.212708	-0.000038
H78	H	0.184005	-0.024733	-0.000038
H79	H	0.846816	-0.721584	-0.185996
H80	H	0.686265	0.231163	0.696091
H81	H	0.954325	-0.036723	0.696068
H82	H	0.663986	0.253406	0.518596
H83	H	0.051891	-0.026692	-0.000054
H84	H	0.628014	-0.018182	-0.000025
H85	H	0.694653	0.222757	0.303884
H86	H	0.495900	-0.020132	-0.000021
H87	H	0.793660	-0.668520	0.185886
H88	H	0.800208	-0.224505	0.185916
