data_functionalizedCrystal
_audit_creation_method	'MofGen! by Chris Wilmer'
_symmetry_space_group_name_H-M	'P1'
_symmetry_Int_Tables_number	1
_symmetry_cell_setting	triclinic
loop_
_symmetry_equiv_pos_as_xyz
  x,y,z
_cell_length_a	13.448316
_cell_length_b	14.971487
_cell_length_c	16.956984
_cell_angle_alpha	79.833911
_cell_angle_beta	89.992504
_cell_angle_gamma	90.004768
loop_
_atom_site_label
_atom_site_type_symbol
_atom_site_fract_x
_atom_site_fract_y
_atom_site_fract_z
O1	O	0.082551	-1.179132	-0.103913
O2	O	0.082584	-0.917797	-0.116356
O3	O	0.082559	-1.064165	0.005929
O4	O	0.082577	-1.032764	-0.226198
O5	O	-0.082825	-1.064163	0.005940
O6	O	-0.082800	-0.917794	-0.116345
O7	O	-0.082833	-1.179129	-0.103903
Cu8	Cu	-0.097917	-1.048462	-0.110123
Cu9	Cu	0.097668	-1.048464	-0.110135
O10	O	-0.082807	-1.032761	-0.226188
C11	C	-0.000103	-0.884513	-0.115794
C12	C	-0.000091	-0.785341	-0.114126
N13	N	-0.235481	-1.048466	-0.110114
C14	C	-0.000086	-0.722718	-0.185965
C15	C	-0.000098	-0.629536	-0.184393
C16	C	-0.000109	-0.598980	-0.110981
C17	C	-0.000118	-0.661611	-0.039137
C18	C	-0.000112	-0.754791	-0.040709
C19	C	-0.000127	-0.467395	-0.035864
C20	C	-0.000131	-0.374209	-0.034291
C21	C	-0.000113	-0.342140	-0.179548
C22	C	-0.000108	-0.435320	-0.181121
C23	C	-0.000114	-0.497945	-0.109275
N24	N	0.235233	-1.048467	-0.110138
C25	C	0.287262	-1.113384	-0.056097
C26	C	0.391365	-1.113388	-0.056095
C27	C	0.443437	-1.048470	-0.110131
C28	C	0.391401	-0.983550	-0.164177
C29	C	0.287300	-0.983551	-0.164183
C30	C	0.608381	-0.983551	-0.164161
C31	C	0.712490	-0.983549	-0.164155
C32	C	0.712446	-1.113389	-0.056073
C33	C	0.608345	-1.113390	-0.056078
C34	C	0.556316	-1.048468	-0.110125
C35	C	-0.000133	-1.065772	0.035641
C36	C	-0.000133	-1.070552	0.124157
C37	C	-0.000137	-0.212414	-0.104464
C38	C	-0.000125	-0.311586	-0.106130
C39	C	-0.000113	-1.031154	-0.255900
C40	C	-0.000107	-1.026374	-0.344416
C41	C	-0.000118	-0.990622	0.156318
C42	C	-0.000122	-0.995119	0.239489
C43	C	-0.000132	-1.079547	0.290498
C44	C	-0.000150	-1.159484	0.258332
C45	C	-0.000154	-1.154986	0.175163
C46	C	-0.000129	-1.101812	0.540249
C47	C	-0.000122	-1.106304	0.623424
C48	C	-0.000095	-0.941939	0.604575
C49	C	-0.000093	-0.937448	0.521405
C50	C	-0.000116	-1.017384	0.489246
N51	N	-0.000132	-1.084146	0.375512
N52	N	-0.000123	-1.012785	0.404233
H53	H	-0.000076	-0.747588	-0.245746
H54	H	0.566022	-0.930688	-0.208174
H55	H	0.565948	-1.166247	-0.012075
H56	H	-0.000167	-1.220074	0.148979
H57	H	0.433727	-1.166249	-0.012091
H58	H	-0.000141	-0.349334	0.025488
C59	C	-0.000087	-0.854015	0.639957
N60	N	-0.000088	-0.787787	0.666606
H61	H	-0.000116	-0.805779	0.017790
C62	C	-0.000099	-0.468929	-0.261877
N63	N	-0.000099	-0.494243	-0.322705
H64	H	0.433804	-0.930695	-0.208178
C65	C	0.230068	-0.912135	-0.223631
N66	N	0.186963	-0.858343	-0.268410
H67	H	-0.000134	-0.518383	0.022640
C68	C	-0.000132	-0.627997	0.041617
N69	N	-0.000138	-0.602679	0.102443
C70	C	-0.000103	-0.907189	0.274861
N71	N	-0.000090	-0.840955	0.301502
H72	H	-0.000124	-1.175060	0.664954
H73	H	0.244871	-1.166245	-0.012092
H74	H	-0.000105	-0.921871	0.114791
C75	C	0.769680	-1.184816	0.003367
N76	N	0.812793	-1.238614	0.048134
C77	C	-0.000068	-0.844570	0.465300
N78	N	-0.000040	-0.774613	0.423042
H79	H	0.754882	-0.930687	-0.208157
C80	C	-0.000148	-1.189745	0.504886
N81	N	-0.000162	-1.255981	0.478248
C82	C	-0.000164	-1.252356	0.314445
N83	N	-0.000171	-1.322310	0.356709
H84	H	-0.000093	-0.578551	-0.242892
H85	H	-0.000112	-0.291146	-0.238047
