data_functionalizedCrystal
_audit_creation_method	'MofGen! by Chris Wilmer'
_symmetry_space_group_name_H-M	'P1'
_symmetry_Int_Tables_number	1
_symmetry_cell_setting	triclinic
loop_
_symmetry_equiv_pos_as_xyz
  x,y,z
_cell_length_a	12.759401
_cell_length_b	11.169409
_cell_length_c	12.759400
_cell_angle_alpha	89.966206
_cell_angle_beta	90.014916
_cell_angle_gamma	89.978902
loop_
_atom_site_label
_atom_site_type_symbol
_atom_site_fract_x
_atom_site_fract_y
_atom_site_fract_z
Zn1	Zn	1.606271	-0.678571	-0.418175
Zn2	Zn	1.606161	-0.477883	-0.593900
Zn3	Zn	1.430568	-0.477901	-0.418237
Zn4	Zn	1.430562	-0.678524	-0.593813
O5	O	1.518390	-0.578220	-0.506031
O6	O	1.753277	-0.651962	-0.441496
O7	O	1.582825	-0.309936	-0.570661
O8	O	1.453925	-0.504548	-0.271208
O9	O	1.753196	-0.504517	-0.570601
O10	O	1.583013	-0.651980	-0.271162
O11	O	1.453818	-0.309949	-0.441602
O12	O	1.283546	-0.504502	-0.441517
O13	O	1.453913	-0.846480	-0.570452
O14	O	1.283541	-0.651898	-0.570512
O15	O	1.583006	-0.846515	-0.441411
O16	O	1.582818	-0.504471	-0.740910
O17	O	1.453806	-0.651881	-0.740846
C18	C	1.245423	-0.578197	-0.506012
C19	C	1.128646	-0.578216	-0.506029
C20	C	1.073746	-0.501337	-0.573147
C21	C	0.964022	-0.501358	-0.573165
C22	C	0.964109	-0.655141	-0.438939
C23	C	1.073831	-0.655125	-0.438927
C24	C	1.073695	-0.412548	-0.650637
C25	C	0.963971	-0.412569	-0.650656
C26	C	1.518471	-0.891262	-0.505915
C27	C	1.518505	-1.024663	-0.505865
C28	C	1.792424	-0.578243	-0.506051
C29	C	1.909200	-0.578253	-0.506060
C30	C	1.518328	-0.578195	-0.778999
C31	C	1.518397	-0.578224	-0.895775
C32	C	1.518370	-0.266395	-0.506072
C33	C	1.518540	-0.132996	-0.505825
C34	C	1.585649	-0.501553	-0.950636
C35	C	1.585713	-0.501590	-1.060360
C36	C	1.451266	-0.654973	-1.060353
C37	C	1.451208	-0.654941	-0.950631
C38	C	1.663267	-0.412995	-0.950641
C39	C	1.663332	-0.413032	-1.060365
C40	C	1.518482	-0.578271	-0.231998
C41	C	1.518520	-0.578293	-0.115221
H42	H	1.103469	-0.437275	-0.732030
Br43	Br	1.627104	-0.258089	-1.110153
H44	H	1.396457	-0.717384	-0.905964
H45	H	0.934154	-0.319664	-0.628770
H46	H	1.740636	-0.446404	-1.094308
Br47	Br	1.130373	-0.265481	-0.601892
H48	H	0.919464	-0.717757	-0.384308
Br49	Br	0.907246	-0.467814	-0.779546
Br50	Br	1.360088	-0.759087	-1.134806
H51	H	1.634140	-0.324660	-0.916696
H52	H	1.744611	-0.437958	-0.920782
H53	H	1.118526	-0.717740	-0.384285
