data_functionalizedCrystal
_audit_creation_method	'MofGen! by Chris Wilmer'
_symmetry_space_group_name_H-M	'P1'
_symmetry_Int_Tables_number	1
_symmetry_cell_setting	triclinic
loop_
_symmetry_equiv_pos_as_xyz
  x,y,z
_cell_length_a	8.140239
_cell_length_b	9.065218
_cell_length_c	15.944551
_cell_angle_alpha	95.742688
_cell_angle_beta	89.995530
_cell_angle_gamma	90.002802
loop_
_atom_site_label
_atom_site_type_symbol
_atom_site_fract_x
_atom_site_fract_y
_atom_site_fract_z
O1	O	-0.136622	-1.957519	0.123161
O2	O	-0.136625	-1.527998	0.133263
O3	O	-0.136608	-1.754488	0.006026
O4	O	-0.136638	-1.731029	0.250398
O5	O	0.136619	-1.754475	0.006024
O6	O	0.136603	-1.527986	0.133261
O7	O	0.136605	-1.957507	0.123159
Zn8	Zn	0.179985	-1.742744	0.128210
Zn9	Zn	-0.180004	-1.742761	0.128212
O10	O	0.136589	-1.731017	0.250396
C11	C	-0.000011	-1.473028	0.132291
C12	C	-0.000012	-1.309253	0.129388
C13	C	0.000005	-1.753508	-0.025276
C14	C	0.000006	-1.750588	-0.118544
N15	N	0.425667	-1.742744	0.128208
N16	N	-0.425687	-1.742773	0.128207
C17	C	-0.000012	-2.012477	0.124131
C18	C	-0.000022	-2.176252	0.127034
C19	C	-0.000017	-1.603221	-0.334518
C20	C	0.134701	-1.671647	-0.395017
C21	C	-0.000006	-1.745306	-0.289310
C22	C	-0.134680	-1.671693	-0.394999
C23	C	-0.000026	-1.740194	-0.454262
C24	C	0.134823	-1.813772	-0.348581
C25	C	-0.134679	-1.813798	-0.348557
C26	C	0.000072	-1.882327	-0.409038
C27	C	0.000006	-1.748247	-0.194286
C28	C	-0.000026	-1.737264	-0.549285
C29	C	-0.000028	-1.731997	0.281698
C30	C	-0.000040	-1.734917	0.374966
H31	H	0.000117	-1.485283	-0.302103
C32	C	-0.288540	-1.894916	-0.320737
H33	H	-0.384171	-1.844292	-0.336463
H34	H	-0.289509	-1.993510	-0.347285
H35	H	-0.286882	-1.896954	-0.261289
C36	C	0.288860	-1.894869	-0.320969
H37	H	0.287958	-1.896176	-0.261466
H38	H	0.289258	-1.993718	-0.347149
H39	H	0.384405	-1.844715	-0.337244
H40	H	0.000149	-2.000369	-0.441303
C41	C	0.288554	-1.590461	-0.422804
H42	H	0.288392	-1.491312	-0.397054
H43	H	0.384218	-1.639977	-0.406146
H44	H	0.287944	-1.589980	-0.482357
C45	C	-0.288539	-1.590493	-0.422746
H46	H	-0.288363	-1.491355	-0.396980
H47	H	-0.287976	-1.590004	-0.482294
H48	H	-0.384202	-1.640010	-0.406062
