data_functionalizedCrystal
_audit_creation_method	'MofGen! by Chris Wilmer'
_symmetry_space_group_name_H-M	'P1'
_symmetry_Int_Tables_number	1
_symmetry_cell_setting	triclinic
loop_
_symmetry_equiv_pos_as_xyz
  x,y,z
_cell_length_a	11.026607
_cell_length_b	12.503572
_cell_length_c	11.026607
_cell_angle_alpha	85.701682
_cell_angle_beta	108.586017
_cell_angle_gamma	94.293464
loop_
_atom_site_label
_atom_site_type_symbol
_atom_site_fract_x
_atom_site_fract_y
_atom_site_fract_z
O1	O	1.732471	0.089318	0.527857
O2	O	2.065805	0.422651	0.861190
O3	O	2.399138	0.755985	1.194524
O4	O	1.365891	0.089320	0.467093
O5	O	1.699225	0.422653	0.800427
O6	O	2.032558	0.755986	1.133760
O7	O	1.518799	0.089315	0.314185
O8	O	1.852133	0.422649	0.647519
O9	O	2.185466	0.755982	0.980852
O10	O	1.579563	0.089323	0.680765
O11	O	1.912897	0.422656	1.014098
O12	O	2.246230	0.755989	1.347431
O13	O	1.507305	-0.089326	0.325709
O14	O	1.840638	0.244007	0.659043
O15	O	2.173972	0.577340	0.992376
O16	O	1.354397	-0.089322	0.478617
O17	O	1.687730	0.244012	0.811951
O18	O	2.021064	0.577345	1.145284
O19	O	1.720977	-0.089323	0.539381
O20	O	2.054310	0.244010	0.872714
O21	O	2.387644	0.577343	1.206048
Cu22	Cu	1.536638	-0.105634	0.510051
Cu23	Cu	1.869971	0.227699	0.843385
Cu24	Cu	2.203304	0.561033	1.176718
Cu25	Cu	1.550231	0.105630	0.496423
Cu26	Cu	1.883564	0.438964	0.829756
Cu27	Cu	2.216897	0.772297	1.163090
O28	O	1.568069	-0.089319	0.692289
O29	O	1.901402	0.244014	1.025622
O30	O	2.234736	0.577348	1.358955
C31	C	1.312485	-0.000001	0.461645
C32	C	1.645818	0.333333	0.794979
C33	C	1.979151	0.666666	1.128312
C34	C	1.170471	-0.000000	0.428228
C35	C	1.503804	0.333333	0.761562
C36	C	1.837137	0.666667	1.094895
N37	N	1.527086	-0.254226	0.519638
N38	N	1.860419	0.079107	0.852971
N39	N	2.193752	0.412441	1.186305
C40	C	1.116822	0.000003	0.520498
C41	C	1.450155	0.333336	0.853831
C42	C	1.783488	0.666669	1.187164
C43	C	0.970043	0.000003	0.485962
C44	C	1.303376	0.333337	0.819295
C45	C	1.636710	0.666670	1.152629
C46	C	1.513037	-0.473341	0.533751
C47	C	1.846371	-0.140007	0.867084
C48	C	2.179704	0.193326	1.200418
C49	C	1.573836	-0.526670	0.472718
C50	C	1.907169	-0.193336	0.806052
C51	C	2.240502	0.139997	1.139385
C52	C	1.566019	-0.648593	0.480571
C53	C	1.899352	-0.315259	0.813904
C54	C	2.232686	0.018074	1.147238
C55	C	1.520853	-0.351407	0.525900
C56	C	1.854186	-0.018073	0.859233
C57	C	2.187519	0.315260	1.192566
C58	C	1.774384	-0.000001	0.544829
C59	C	2.107717	0.333333	0.878162
C60	C	2.441051	0.666666	1.211495
C61	C	1.916398	0.000006	0.578245
C62	C	2.249732	0.333339	0.911578
C63	C	2.583065	0.666672	1.244912
C64	C	1.501842	-0.000004	0.272288
C65	C	1.835176	0.333329	0.605621
C66	C	2.168509	0.666662	0.938954
C67	C	1.468426	-0.000000	0.130273
C68	C	1.801759	0.333333	0.463607
C69	C	2.135092	0.666666	0.796940
N70	N	1.559790	0.254222	0.486828
N71	N	1.893124	0.587556	0.820162
N72	N	2.226457	0.920889	1.153495
C73	C	1.560695	0.000001	0.076624
C74	C	1.894029	0.333334	0.409957
C75	C	2.227362	0.666667	0.743291
C76	C	1.526160	0.000005	-0.070155
C77	C	1.859493	0.333338	0.263178
C78	C	2.192827	0.666672	0.596512
C79	C	1.585026	0.000003	0.734186
C80	C	1.918359	0.333336	1.067520
C81	C	2.251693	0.666670	1.400853
C82	C	1.618443	0.000006	0.876200
C83	C	1.951776	0.333339	1.209533
C84	C	2.285110	0.666673	1.542867
H85	H	1.179554	-0.000001	0.625061
H86	H	1.512888	0.333332	0.958394
H87	H	1.846221	0.666665	1.291728
H88	H	1.665258	-0.000006	0.139358
H89	H	1.998591	0.333327	0.472691
H90	H	2.331925	0.666660	0.806024
H91	H	1.455120	-0.519246	0.591898
H92	H	1.788454	-0.185913	0.925231
H93	H	2.121787	0.147420	1.258564
Cl94	Cl	1.663856	-0.455793	0.383533
Cl95	Cl	1.997190	-0.122459	0.716866
Cl96	Cl	2.330523	0.210874	1.050200
H97	H	1.421591	0.000012	-0.132884
H98	H	1.754924	0.333346	0.200449
H99	H	2.088257	0.666679	0.533782
Cl100	Cl	1.013235	-0.000006	0.739696
Cl101	Cl	1.346568	0.333327	1.073029
Cl102	Cl	1.679902	0.666661	1.406363
Cl103	Cl	1.779894	0.000010	-0.026963
Cl104	Cl	2.113227	0.333344	0.306371
Cl105	Cl	2.446560	0.666677	0.639704
Cl106	Cl	0.873201	-0.000008	0.324514
Cl107	Cl	1.206535	0.333326	0.657847
Cl108	Cl	1.539868	0.666659	0.991180
H109	H	1.363863	0.000007	0.067540
H110	H	1.697197	0.333341	0.400873
H111	H	2.030530	0.666674	0.734206
H112	H	1.107739	0.000025	0.323664
H113	H	1.441072	0.333359	0.656997
H114	H	1.774406	0.666692	0.990331
