data_functionalizedCrystal
_audit_creation_method	'MofGen! by Chris Wilmer'
_symmetry_space_group_name_H-M	'P1'
_symmetry_Int_Tables_number	1
_symmetry_cell_setting	triclinic
loop_
_symmetry_equiv_pos_as_xyz
  x,y,z
_cell_length_a	18.215407
_cell_length_b	15.297327
_cell_length_c	18.215398
_cell_angle_alpha	99.650734
_cell_angle_beta	89.980536
_cell_angle_gamma	99.707397
loop_
_atom_site_label
_atom_site_type_symbol
_atom_site_fract_x
_atom_site_fract_y
_atom_site_fract_z
Zn1	Zn	1.074353	-0.359191	-0.466798
Zn2	Zn	1.574353	0.140809	0.033202
Zn3	Zn	1.052960	-0.510058	-0.365019
Zn4	Zn	1.552960	-0.010058	0.134981
Zn5	Zn	0.951283	-0.359214	-0.343748
Zn6	Zn	1.451283	0.140786	0.156252
Zn7	Zn	0.929956	-0.510014	-0.488037
Zn8	Zn	1.429956	-0.010014	0.011963
O9	O	1.002138	-0.434619	-0.415901
O10	O	1.502138	0.065381	0.084099
O11	O	1.174498	-0.379213	-0.453309
O12	O	1.674498	0.120787	0.046691
O13	O	1.039445	-0.490076	-0.259217
O14	O	1.539445	0.009924	0.240783
O15	O	0.985487	-0.232962	-0.342280
O16	O	1.485487	0.267038	0.157720
O17	O	1.158781	-0.490054	-0.378533
O18	O	1.658781	0.009946	0.121467
O19	O	1.075906	-0.232945	-0.432684
O20	O	1.575906	0.267055	0.067316
O21	O	0.964743	-0.379252	-0.243589
O22	O	1.464743	0.120748	0.256411
O23	O	0.845471	-0.379209	-0.362876
O24	O	1.345471	0.120791	0.137124
O25	O	0.949138	-0.489979	-0.588200
O26	O	1.449138	0.010021	-0.088200
O27	O	0.829802	-0.490002	-0.468884
O28	O	1.329802	0.009998	0.031116
O29	O	1.055226	-0.379170	-0.572596
O30	O	1.555226	0.120830	-0.072596
O31	O	1.018765	-0.636301	-0.399128
O32	O	1.518765	-0.136301	0.100872
O33	O	0.928394	-0.636269	-0.489509
O34	O	1.428394	-0.136269	0.010491
C35	C	0.810934	-0.434604	-0.415877
C36	C	1.310934	0.065396	0.084123
C37	C	0.729133	-0.434619	-0.415888
C38	C	1.229133	0.065381	0.084112
C39	C	0.532787	-0.492399	-0.471040
C40	C	1.032787	0.007601	0.028960
C41	C	0.455927	-0.492402	-0.471050
C42	C	0.955927	0.007598	0.028950
C43	C	0.472239	-0.376856	-0.360779
C44	C	0.972239	0.123144	0.139221
C45	C	0.549098	-0.376849	-0.360773
C46	C	1.049098	0.123151	0.139227
C47	C	0.579368	-0.434626	-0.415903
C48	C	1.079368	0.065374	0.084097
C49	C	0.425651	-0.434635	-0.415919
C50	C	0.925651	0.065365	0.084081
C51	C	0.342317	-0.434638	-0.415929
C52	C	0.842317	0.065362	0.084071
C53	C	0.662708	-0.434622	-0.415895
C54	C	1.162708	0.065378	0.084105
C55	C	0.968964	-0.669020	-0.448948
C56	C	1.468964	-0.169020	0.051052
C57	C	0.954839	-0.769297	-0.463110
C58	C	1.454839	-0.269297	0.036890
C59	C	1.103393	-1.051904	-0.314931
C60	C	1.603393	-0.551904	0.185069
C61	C	1.116663	-0.957688	-0.301621
C62	C	1.616663	-0.457688	0.198379
C63	C	1.076209	-0.910586	-0.341992
C64	C	1.576209	-0.410586	0.158008
C65	C	1.022481	-0.957708	-0.395676
C66	C	1.522481	-0.457708	0.104324
C67	C	1.009205	-1.051933	-0.408983
C68	C	1.509205	-0.551933	0.091017
C69	C	0.982021	-0.910615	-0.436044
C70	C	1.482021	-0.410615	0.063956
C71	C	0.928293	-0.957738	-0.489727
C72	C	1.428293	-0.457738	0.010273
C73	C	0.915020	-1.051953	-0.503032
C74	C	1.415020	-0.551953	-0.003032
C75	C	0.955474	-1.099056	-0.462661
C76	C	1.455474	-0.599056	0.037339
C77	C	0.995297	-0.816390	-0.422737
C78	C	1.495297	-0.316390	0.077263
C79	C	0.901109	-0.816419	-0.516788
C80	C	1.401109	-0.316419	-0.016788
C81	C	0.887838	-0.910635	-0.530098
C82	C	1.387838	-0.410635	-0.030098
C83	C	1.194089	-0.434635	-0.415924
C84	C	1.694089	0.065365	0.084076
C85	C	1.275887	-0.434642	-0.415935
C86	C	1.775887	0.065358	0.084065
C87	C	1.002189	-0.434567	-0.607846
C88	C	1.502189	0.065433	-0.107846
C89	C	1.002211	-0.434545	-0.689642
C90	C	1.502211	0.065455	-0.189642
C91	C	1.035462	-0.199304	-0.382740
C92	C	1.535462	0.300696	0.117260
C93	C	1.049662	-0.099026	-0.368610
C94	C	1.549662	0.400974	0.131390
C95	C	1.041157	-0.492140	-0.962826
C96	C	1.541157	0.007860	-0.462826
C97	C	1.041142	-0.492172	-0.885971
C98	C	1.541142	0.007828	-0.385971
C99	C	0.963344	-0.376776	-0.869683
C100	C	1.463344	0.123224	-0.369683
C101	C	0.963356	-0.376750	-0.946536
C102	C	1.463356	0.123250	-0.446536
C103	C	1.002267	-0.434431	-0.993106
C104	C	1.502267	0.065569	-0.493106
C105	C	1.002239	-0.434488	-0.839398
C106	C	1.502239	0.065512	-0.339398
C107	C	1.002222	-0.434522	-0.756069
C108	C	1.502222	0.065478	-0.256069
C109	C	1.002283	-0.434399	-1.076440
C110	C	1.502283	0.065601	-0.576440
C111	C	1.002139	-0.434606	-0.224692
C112	C	1.502139	0.065394	0.275308
C113	C	1.002296	-0.434374	-0.142861
C114	C	1.502296	0.065626	0.357139
H115	H	0.587027	-0.329797	-0.315874
H116	H	1.087027	0.170203	0.184126
C117	C	0.352321	-0.613775	-0.498233
C118	C	0.852321	-0.113775	0.001767
C119	C	0.404722	-0.555909	-0.531656
C120	C	0.904722	-0.055909	-0.031656
H121	H	0.320707	-0.652978	-0.535652
H122	H	0.820707	-0.152978	-0.035652
H123	H	0.377414	-0.648229	-0.470985
H124	H	0.877414	-0.148229	0.029015
H125	H	0.323295	-0.579360	-0.465404
H126	H	0.823295	-0.079360	0.034596
H127	H	0.433751	-0.590325	-0.564481
H128	H	0.933751	-0.090325	-0.064481
H129	H	0.379627	-0.521452	-0.558916
H130	H	0.879627	-0.021452	-0.058916
C131	C	0.387562	-0.364169	-0.260020
C132	C	0.887562	0.135831	0.239980
C133	C	0.438961	-0.313354	-0.300179
C134	C	0.938961	0.186646	0.199821
H135	H	0.367023	-0.324964	-0.222605
H136	H	0.867023	0.175036	0.277395
H137	H	0.348824	-0.398571	-0.292857
H138	H	0.848824	0.101429	0.207143
H139	H	0.411988	-0.403424	-0.237352
H140	H	0.911988	0.096576	0.262648
H141	H	0.414534	-0.274104	-0.322852
H142	H	0.914534	0.225896	0.177148
H143	H	0.477705	-0.278937	-0.267337
H144	H	0.977705	0.221063	0.232663
C145	C	0.866142	-0.364195	-1.031168
C146	C	1.366142	0.135805	-0.531168
C147	C	0.920597	-0.313315	-0.979822
C148	C	1.420597	0.186685	-0.479822
H149	H	0.839741	-0.325037	-1.051712
H150	H	1.339741	0.174963	-0.551712
H151	H	0.889316	-0.398534	-1.069898
H152	H	1.389316	0.101466	-0.569898
H153	H	0.832431	-0.403512	-1.006709
H154	H	1.332431	0.096488	-0.506709
H155	H	0.954312	-0.274003	-1.004282
H156	H	1.454312	0.225997	-0.504282
H157	H	0.897423	-0.278961	-0.941086
H158	H	1.397423	0.221039	-0.441086
H159	H	0.944674	-1.175774	-0.473497
H160	H	1.444674	-0.675774	0.026503
H161	H	1.039042	-0.778031	-0.379027
H162	H	1.539042	-0.278031	0.120973
C163	C	1.146505	-0.775608	-0.271729
C164	C	1.646505	-0.275608	0.228271
C165	C	1.090801	-0.807022	-0.327370
C166	C	1.590801	-0.307022	0.172630
H167	H	1.155519	-0.711669	-0.262706
H168	H	1.655519	-0.211669	0.237294
H169	H	1.130789	-0.796963	-0.227249
H170	H	1.630789	-0.296963	0.272751
H171	H	1.190989	-0.796876	-0.287504
H172	H	1.690989	-0.296876	0.212496
H173	H	1.046315	-0.785759	-0.311592
H174	H	1.546315	-0.285759	0.188408
H175	H	1.106514	-0.785658	-0.371858
H176	H	1.606514	-0.285658	0.128142
H177	H	1.072810	-0.539164	-0.861321
H178	H	1.572810	-0.039164	-0.361321
C179	C	0.508942	-0.606601	-0.580045
C180	C	1.008942	-0.106601	-0.080045
C181	C	0.566063	-0.555896	-0.531645
C182	C	1.066063	-0.055896	-0.031645
H183	H	0.529486	-0.645796	-0.617464
H184	H	1.029486	-0.145796	-0.117464
H185	H	0.474078	-0.641064	-0.552798
H186	H	0.974078	-0.141064	-0.052798
H187	H	0.484531	-0.567328	-0.602706
H188	H	0.984531	-0.067328	-0.102706
H189	H	0.590470	-0.595170	-0.508980
H190	H	1.090470	-0.095170	-0.008980
H191	H	0.600939	-0.521431	-0.558896
H192	H	1.100939	-0.021431	-0.058896
C193	C	1.208434	-0.967130	-0.210003
C194	C	1.708434	-0.467130	0.289997
C195	C	1.175725	-0.905894	-0.242624
C196	C	1.675725	-0.405894	0.257376
H197	H	1.244903	-0.935152	-0.173583
H198	H	1.744903	-0.435152	0.326417
H199	H	1.171203	-1.003928	-0.187019
H200	H	1.671203	-0.503928	0.312981
H201	H	1.231391	-1.003831	-0.247285
H202	H	1.731391	-0.503831	0.252715
H203	H	1.152763	-0.869198	-0.205342
H204	H	1.652763	-0.369198	0.294658
H205	H	1.212962	-0.869080	-0.265608
H206	H	1.712962	-0.369080	0.234392
C207	C	1.075728	-0.543333	-1.087869
C208	C	1.575728	-0.043333	-0.587869
C209	C	1.083924	-0.555544	-1.014016
C210	C	1.583924	-0.055544	-0.514016
H211	H	1.102135	-0.582475	-1.119468
H212	H	1.602135	-0.082475	-0.619468
H213	H	1.024420	-0.556535	-1.102312
H214	H	1.524420	-0.056535	-0.602312
H215	H	1.095083	-0.482709	-1.091912
H216	H	1.595083	0.017291	-0.591912
H217	H	1.064564	-0.616167	-1.009972
H218	H	1.564564	-0.116167	-0.509972
H219	H	1.135242	-0.542348	-0.999569
H220	H	1.635242	-0.042348	-0.499569
C221	C	1.124817	-1.196329	-0.293540
C222	C	1.624817	-0.696329	0.206460
C223	C	1.147829	-1.103679	-0.270534
C224	C	1.647829	-0.603679	0.229466
H225	H	1.152248	-1.228291	-0.266123
H226	H	1.652248	-0.728291	0.233877
H227	H	1.073192	-1.211800	-0.284934
H228	H	1.573192	-0.711800	0.215066
H229	H	1.133415	-1.211729	-0.345165
H230	H	1.633415	-0.711729	0.154835
H231	H	1.139225	-1.088278	-0.218910
H232	H	1.639225	-0.588278	0.281090
H233	H	1.199466	-1.088201	-0.279134
H234	H	1.699466	-0.588201	0.220866
C235	C	0.823255	-1.042517	-0.594665
C236	C	1.323255	-0.542517	-0.094665
C237	C	0.855959	-1.103752	-0.562037
C238	C	1.355959	-0.603752	-0.062037
H239	H	0.786796	-1.074496	-0.631094
H240	H	1.286796	-0.574496	-0.131094
H241	H	0.800293	-1.005821	-0.557394
H242	H	1.300293	-0.505821	-0.057394
H243	H	0.860496	-1.005713	-0.617645
H244	H	1.360496	-0.505713	-0.117645
H245	H	0.818718	-1.140551	-0.539052
H246	H	1.318718	-0.640551	-0.039052
H247	H	0.878920	-1.140463	-0.599314
H248	H	1.378920	-0.640463	-0.099314
H249	H	0.844092	-0.949016	-0.573807
H250	H	1.344092	-0.449016	-0.073807
C251	C	0.879642	-0.672004	-0.538160
C252	C	1.379642	-0.172004	-0.038160
C253	C	0.856639	-0.764654	-0.561172
C254	C	1.356639	-0.264654	-0.061172
H255	H	0.852192	-0.640044	-0.565562
H256	H	1.352192	-0.140044	-0.065562
H257	H	0.871065	-0.656614	-0.486537
H258	H	1.371065	-0.156614	0.013463
H259	H	0.931267	-0.656518	-0.546789
H260	H	1.431267	-0.156518	-0.046789
H261	H	0.805015	-0.780141	-0.552538
H262	H	1.305015	-0.280141	-0.052538
H263	H	0.865210	-0.780049	-0.612808
H264	H	1.365210	-0.280049	-0.112808
C265	C	0.928790	-0.325570	-0.744637
C266	C	1.428790	0.174430	-0.244637
C267	C	0.920584	-0.313367	-0.818490
C268	C	1.420584	0.186633	-0.318490
H269	H	0.902395	-0.286416	-0.713034
H270	H	1.402395	0.213584	-0.213034
H271	H	0.909434	-0.386183	-0.740585
H272	H	1.409434	0.113817	-0.240585
H273	H	0.980107	-0.312372	-0.730202
H274	H	1.480107	0.187628	-0.230202
H275	H	0.869267	-0.326572	-0.832927
H276	H	1.369267	0.173428	-0.332927
H277	H	0.939936	-0.252740	-0.822545
H278	H	1.439936	0.247260	-0.322545
