data_functionalizedCrystal
_audit_creation_method	'MofGen! by Chris Wilmer'
_symmetry_space_group_name_H-M	'P1'
_symmetry_Int_Tables_number	1
_symmetry_cell_setting	triclinic
loop_
_symmetry_equiv_pos_as_xyz
  x,y,z
_cell_length_a	12.784905
_cell_length_b	11.892113
_cell_length_c	12.837942
_cell_angle_alpha	86.039625
_cell_angle_beta	96.031870
_cell_angle_gamma	94.703417
loop_
_atom_site_label
_atom_site_type_symbol
_atom_site_fract_x
_atom_site_fract_y
_atom_site_fract_z
O1	O	1.417568	0.094010	-0.011754
O2	O	1.112569	0.094011	-0.055746
O3	O	1.258305	0.094004	0.116544
O4	O	1.271832	0.094018	-0.184043
O5	O	1.245089	-0.094004	0.127182
O6	O	1.099353	-0.093997	-0.045108
O7	O	1.404352	-0.093997	-0.001116
Zn8	Zn	1.249754	-0.123847	-0.021423
Zn9	Zn	1.267167	0.123861	-0.035439
O10	O	1.258616	-0.093990	-0.173405
C11	C	1.066651	0.000007	-0.053288
C12	C	0.949520	0.000007	-0.061801
N13	N	1.237877	-0.292902	-0.011856
C14	C	0.735570	0.000020	0.111641
C15	C	0.625514	0.000020	0.103647
C16	C	0.619352	0.000016	-0.085782
C17	C	0.729408	0.000016	-0.077788
C18	C	0.787512	0.000016	0.020927
C19	C	0.897569	0.000008	0.028920
C20	C	0.891406	0.000012	-0.160509
C21	C	0.781350	0.000012	-0.168502
C22	C	1.361687	-0.529546	-0.111620
C23	C	1.353393	-0.647888	-0.104923
C24	C	1.213001	-0.647931	0.008240
C25	C	1.221295	-0.529588	0.001543
C26	C	1.295639	-0.470400	-0.058390
C27	C	1.303928	-0.352056	-0.065092
C28	C	1.163541	-0.352101	0.048076
C29	C	1.155247	-0.470443	0.054773
C30	C	1.450270	0.000009	-0.003573
C31	C	1.567402	0.000016	0.004939
C32	C	1.247128	0.000001	0.160072
C33	C	1.233500	0.000002	0.273920
N34	N	1.279051	0.292916	-0.044997
C35	C	1.269793	0.000016	-0.216933
C36	C	1.283422	0.000021	-0.330782
C37	C	1.397333	0.000026	0.529645
C38	C	1.384534	0.000028	0.636617
C39	C	1.195103	0.000016	0.594838
C40	C	1.207902	0.000014	0.487866
C41	C	1.309021	0.000017	0.455274
C42	C	1.321819	0.000007	0.348300
C43	C	1.132389	0.000004	0.306523
C44	C	1.119590	0.000006	0.413495
H45	H	0.944876	0.000006	0.109299
H46	H	1.404154	0.000006	0.321767
O47	O	1.376001	-0.294507	-0.123443
C48	C	1.323679	-0.226042	-0.203153
H49	H	1.238482	-0.261724	-0.219678
H50	H	1.324972	-0.136355	-0.176647
C51	C	1.484507	-0.180383	-0.283412
C52	C	1.379869	-0.224214	-0.303714
H53	H	1.519169	-0.179249	-0.345442
H54	H	1.519759	-0.226505	-0.229707
H55	H	1.485570	-0.105648	-0.261321
H56	H	1.378808	-0.298952	-0.325791
H57	H	1.344619	-0.178103	-0.357425
O58	O	0.791862	0.000067	0.207605
C59	C	0.722412	0.000035	0.285963
H60	H	0.645558	0.035628	0.250486
H61	H	0.705317	-0.090163	0.319340
C62	C	0.867853	0.030049	0.417964
C63	C	0.773462	0.073773	0.374393
H64	H	0.899343	0.075529	0.472516
H65	H	0.914643	0.030066	0.365175
H66	H	0.853594	-0.045116	0.445771
H67	H	0.787724	0.148930	0.346576
H68	H	0.726675	0.073770	0.427180
H69	H	1.109755	-0.303932	0.091414
O70	O	1.140816	-0.705605	0.066377
C71	C	1.147614	-0.822741	0.060828
H72	H	1.184345	-0.838866	-0.013404
H73	H	1.198754	-0.856377	0.132499
C74	C	0.991229	-0.863667	0.149402
C75	C	1.036334	-0.883473	0.058223
H76	H	0.922587	-0.901132	0.147800
H77	H	0.986650	-0.784751	0.153144
H78	H	1.033856	-0.891698	0.209118
H79	H	0.993714	-0.855430	-0.001490
H80	H	1.040903	-0.962387	0.054471
H81	H	0.583227	0.000025	0.177516
H82	H	1.456447	0.000038	0.697167
H83	H	1.479667	0.000017	0.503109
H84	H	1.422212	-0.481354	-0.160430
H85	H	0.933709	0.000003	-0.234375
O86	O	0.724962	0.000211	-0.264423
C87	C	0.756846	0.097563	-0.325617
H88	H	0.793690	0.165623	-0.271860
H89	H	0.817257	0.075542	-0.378786
C90	C	0.615044	0.058121	-0.459281
C91	C	0.660288	0.141717	-0.393255
H92	H	0.555485	0.085355	-0.501007
H93	H	0.593565	-0.007469	-0.418056
H94	H	0.665397	0.039778	-0.503579
H95	H	0.609940	0.160048	-0.348950
H96	H	0.681756	0.207311	-0.434475
H97	H	1.407177	-0.696040	-0.148268
O98	O	1.096820	-0.000125	0.626385
C99	C	1.035484	-0.097511	0.593085
H100	H	1.069422	-0.129988	0.523199
H101	H	1.036614	-0.165685	0.660055
C102	C	0.879430	-0.028038	0.646487
C103	C	0.921109	-0.067922	0.560645
H104	H	0.808877	-0.009789	0.626481
H105	H	0.920753	0.037571	0.668926
H106	H	0.880381	-0.084857	0.702288
H107	H	0.920169	-0.011099	0.504852
H108	H	0.879783	-0.133521	0.538197
H109	H	1.094721	-0.518650	0.103572
H110	H	0.572026	0.000031	-0.166151
H111	H	1.037262	0.000008	0.440047
H112	H	1.060478	-0.000012	0.245958
