data_functionalizedCrystal
_audit_creation_method	'MofGen! by Chris Wilmer'
_symmetry_space_group_name_H-M	'P1'
_symmetry_Int_Tables_number	1
_symmetry_cell_setting	triclinic
loop_
_symmetry_equiv_pos_as_xyz
  x,y,z
_cell_length_a	10.654550
_cell_length_b	7.540329
_cell_length_c	10.654550
_cell_angle_alpha	89.996554
_cell_angle_beta	95.515069
_cell_angle_gamma	89.999719
loop_
_atom_site_label
_atom_site_type_symbol
_atom_site_fract_x
_atom_site_fract_y
_atom_site_fract_z
O1	O	1.667839	0.147350	-0.176397
O2	O	2.167839	0.647350	0.323603
O3	O	1.302360	0.147382	-0.193203
O4	O	1.802360	0.647382	0.306797
O5	O	1.493502	0.147354	-0.002061
O6	O	1.993502	0.647354	0.497939
O7	O	1.476696	0.147378	-0.367539
O8	O	1.976696	0.647378	0.132461
O9	O	1.493491	-0.147611	-0.002059
O10	O	1.993491	0.352389	0.497941
O11	O	1.302349	-0.147583	-0.193201
O12	O	1.802349	0.352417	0.306799
O13	O	1.667827	-0.147616	-0.176395
O14	O	2.167827	0.352384	0.323605
Cu15	Cu	1.485087	-0.174532	-0.184798
Cu16	Cu	1.985087	0.325468	0.315202
Cu17	Cu	1.485100	0.174298	-0.184800
Cu18	Cu	1.985100	0.674298	0.315200
O19	O	1.476685	-0.147587	-0.367537
O20	O	1.976685	0.352413	0.132463
C21	C	1.255556	-0.000096	-0.191968
C22	C	1.755556	0.499904	0.308032
C23	C	1.116113	-0.000084	-0.188276
C24	C	1.616113	0.499916	0.311724
N25	N	1.485086	-0.419880	-0.184795
N26	N	1.985086	0.080120	0.315205
C27	C	1.036628	-0.000082	-0.300818
C28	C	1.536628	0.499918	0.199182
C29	C	0.905607	-0.000113	-0.297341
C30	C	1.405607	0.499887	0.202659
C31	C	0.933570	-0.000141	-0.068772
C32	C	1.433570	0.499859	0.431228
C33	C	1.064588	-0.000123	-0.072250
C34	C	1.564588	0.499877	0.427750
C35	C	1.714631	-0.000133	-0.177630
C36	C	2.214631	0.499867	0.322370
C37	C	1.854074	-0.000134	-0.181322
C38	C	2.354074	0.499866	0.318678
C39	C	1.492263	-0.000128	0.044738
C40	C	1.992263	0.499872	0.544738
C41	C	1.488571	-0.000125	0.184181
C42	C	1.988571	0.499875	0.684181
N43	N	1.485111	0.419647	-0.184793
N44	N	1.985111	0.919647	0.315207
C45	C	1.477925	-0.000102	-0.414336
C46	C	1.977925	0.499898	0.085664
C47	C	1.481617	-0.000093	-0.553779
C48	C	1.981617	0.499907	-0.053779
C49	C	1.601112	-0.000134	0.263667
C50	C	2.101112	0.499866	0.763667
C51	C	1.597636	-0.000112	0.394688
C52	C	2.097636	0.499888	0.894688
C53	C	1.369066	-0.000079	0.366725
C54	C	1.869066	0.499921	0.866725
C55	C	1.372544	-0.000088	0.235706
C56	C	1.872544	0.499912	0.735706
H57	H	1.078574	-0.000064	-0.395294
H58	H	1.578574	0.499936	0.104706
H59	H	0.840894	-0.000115	-0.388984
H60	H	1.340894	0.499885	0.111016
H61	H	0.891602	-0.000183	0.025693
H62	H	1.391602	0.499817	0.525693
C63	C	1.728732	-0.000160	0.206986
C64	C	2.228732	0.499840	0.706986
H65	H	1.714689	-0.000182	0.117572
H66	H	2.214689	0.499818	0.617572
H67	H	1.775126	0.102696	0.234195
H68	H	2.275126	0.602696	0.734195
H69	H	1.775109	-0.103039	0.234213
H70	H	2.275109	0.396961	0.734213
C71	C	1.152028	-0.000117	0.051552
C72	C	1.652028	0.499883	0.551552
H73	H	1.102579	-0.000117	0.121151
H74	H	1.602579	0.499883	0.621151
H75	H	1.203729	-0.102970	0.054945
H76	H	1.703729	0.397030	0.554945
H77	H	1.203709	0.102765	0.054942
H78	H	1.703709	0.602765	0.554942
C79	C	1.721432	-0.000133	0.482117
C80	C	2.221432	0.499867	0.982117
H81	H	1.791026	-0.000170	0.432661
H82	H	2.291026	0.499830	0.932661
H83	H	1.724840	0.102730	0.533801
H84	H	2.224840	0.602730	1.033801
H85	H	1.724815	-0.103004	0.533814
H86	H	2.224815	0.396996	1.033814
C87	C	1.241448	-0.000063	0.423407
C88	C	1.741448	0.499937	0.923407
H89	H	1.255493	-0.000079	0.512821
H90	H	1.755493	0.499921	1.012821
H91	H	1.195061	0.102798	0.396187
H92	H	1.695061	0.602798	0.896187
H93	H	1.195062	-0.102936	0.396195
H94	H	1.695062	0.397064	0.896195
C95	C	1.248746	-0.000069	0.148261
C96	C	1.748746	0.499931	0.648261
H97	H	1.267437	-0.000057	0.062853
H98	H	1.767437	0.499943	0.562853
H99	H	1.201204	-0.102917	0.163987
H100	H	1.701204	0.397083	0.663987
H101	H	1.201233	0.102818	0.163984
H102	H	1.701233	0.602818	0.663984
