data_functionalizedCrystal
_audit_creation_method	'MofGen! by Chris Wilmer'
_symmetry_space_group_name_H-M	'P1'
_symmetry_Int_Tables_number	1
_symmetry_cell_setting	triclinic
loop_
_symmetry_equiv_pos_as_xyz
  x,y,z
_cell_length_a	14.395555
_cell_length_b	17.052863
_cell_length_c	17.052862
_cell_angle_alpha	79.480343
_cell_angle_beta	89.999061
_cell_angle_gamma	50.260680
loop_
_atom_site_label
_atom_site_type_symbol
_atom_site_fract_x
_atom_site_fract_y
_atom_site_fract_z
Zr1	Zr	0.731501	0.887054	0.027354
O2	O	0.574876	1.025959	-0.065094
O3	O	0.804048	0.723353	0.039498
O4	O	0.804047	0.851303	-0.088452
O5	O	0.546969	0.934857	0.182209
O6	O	0.956914	0.851308	-0.088454
O7	O	0.574877	0.898009	0.062856
O8	O	0.956915	0.622429	0.140425
O9	O	0.546969	1.163736	-0.046670
O10	O	0.919430	0.799873	0.064243
O11	O	0.784521	0.827369	0.153316
O12	O	0.784520	0.978013	0.002672
O13	O	0.649611	1.005508	0.091745
Zr14	Zr	0.930796	0.945831	0.217704
Zr15	Zr	0.975305	0.887062	0.027350
Zr16	Zr	0.686991	0.945822	0.217707
Zr17	Zr	0.686991	1.106793	0.056737
Zr18	Zr	0.975306	0.726092	0.188321
O19	O	0.858249	1.109532	0.205560
O20	O	0.921535	1.025971	-0.065098
O21	O	0.511590	1.109520	0.205565
O22	O	1.087420	0.806926	0.310151
O23	O	1.150706	0.723365	0.039493
O24	O	0.740762	0.806914	0.310156
O25	O	1.115327	0.898028	0.062849
O26	O	0.858249	0.981582	0.333510
O27	O	0.705382	0.981577	0.333512
O28	O	1.087420	0.934876	0.182202
O29	O	0.740761	1.163743	-0.046673
O30	O	0.921536	0.669142	0.291730
O31	O	1.115328	0.669149	0.291728
O32	O	1.150707	0.622436	0.140422
O33	O	0.511590	1.210449	0.104636
O34	O	0.705382	1.210456	0.104633
O35	O	0.877776	0.854872	0.242386
O36	O	1.012686	0.827377	0.153313
O37	O	0.877776	1.005516	0.091742
O38	O	0.742866	1.033012	0.180815
C39	C	0.886823	0.641583	0.085775
C40	C	0.905718	0.548298	0.073301
C41	C	0.985014	0.490126	0.020939
C42	C	1.002769	0.402481	0.009217
C43	C	0.941223	0.373003	0.049850
C44	C	0.861919	0.431179	0.102209
C45	C	0.844169	0.518829	0.113937
C46	C	0.800378	0.401705	0.142849
C47	C	0.721074	0.459882	0.195207
C48	C	0.703327	0.547523	0.206933
C49	C	0.764873	0.577001	0.166299
C50	C	0.818127	0.314056	0.131121
C51	C	0.677282	0.342759	0.224119
C52	C	0.659527	0.430404	0.235841
C53	C	0.526186	0.916432	0.122533
C54	C	0.422684	0.916428	0.122534
C55	C	0.435655	0.819298	0.156104
C56	C	0.323055	0.886216	0.198800
C57	C	0.350849	0.849522	0.079864
C58	C	0.311436	0.983362	0.165279
C59	C	0.339259	0.946638	0.046295
C60	C	0.226630	1.013631	0.088981
C61	C	1.136111	0.916453	0.122525
C62	C	1.239612	0.916457	0.122523
C63	C	0.886822	0.842932	-0.115575
C64	C	0.905718	0.817983	-0.196385
C65	C	0.775474	1.191302	0.159283
C66	C	0.756578	1.284587	0.171757
C67	C	0.677275	1.119614	-0.552737
C68	C	0.659514	1.143058	-0.476813
C69	C	0.721064	1.061792	-0.406702
C70	C	0.800376	0.957077	-0.412523
C71	C	0.818131	0.933631	-0.488454
C72	C	0.861920	0.875808	-0.342420
C73	C	0.941233	0.771093	-0.348240
C74	C	0.958985	0.747651	-0.424165
C75	C	0.897435	0.828918	-0.494275
C76	C	0.844165	0.899254	-0.266488
C77	C	0.985022	0.713271	-0.202206
C78	C	1.002782	0.689827	-0.278130
C79	C	0.775474	0.989953	0.360632
C80	C	0.756579	1.014902	0.441442
C81	C	1.191785	0.641594	0.085771
C82	C	1.314182	0.548312	0.073295
C83	C	0.831149	0.715093	0.323878
C84	C	0.831149	0.646757	0.392214
C85	C	1.136111	0.715104	0.323874
C86	C	1.239613	0.646772	0.392209
C87	C	0.526185	1.117781	-0.078816
C88	C	0.422684	1.186113	-0.147151
C89	C	0.470511	1.191291	0.159287
C90	C	0.348114	1.284572	0.171762
C91	C	0.831148	1.117792	-0.078820
C92	C	0.831148	1.186128	-0.147156
C93	C	1.322984	0.490148	0.020935
C94	C	1.437982	0.402507	0.009197
C95	C	1.544175	0.373028	0.049824
C96	C	1.535369	0.431202	0.102187
C97	C	1.420373	0.518845	0.113920
C98	C	0.879826	0.629025	0.470807
C99	C	0.879817	0.564831	0.535025
C100	C	0.831140	0.518363	0.520647
C101	C	0.782456	0.536102	0.442047
C102	C	0.782457	0.600301	0.377831
C103	C	1.358650	0.600330	0.377804
C104	C	1.455909	0.536134	0.442006
C105	C	1.434130	0.518376	0.520611
C106	C	1.315080	0.564826	0.535015
C107	C	1.217822	0.629026	0.470815
C108	C	0.303644	1.232566	-0.132745
C109	C	0.206380	1.296789	-0.196944
C110	C	0.228158	1.314552	-0.275548
C111	C	0.347209	1.268096	-0.289953
C112	C	0.444470	1.203880	-0.225754
C113	C	0.339312	1.342744	0.224116
C114	C	0.224315	1.430403	0.235836
C115	C	0.118121	1.459884	0.195207
C116	C	0.126928	1.401707	0.142847
C117	C	0.241924	1.314054	0.131123
C118	C	0.879836	1.232576	-0.132754
C119	C	0.879859	1.296775	-0.196957
C120	C	0.831185	1.314531	-0.275561
C121	C	0.782496	1.268075	-0.289963
C122	C	0.782482	1.203871	-0.225761
H123	H	1.035126	0.514129	-0.012136
H124	H	1.621847	0.407187	0.135262
F125	F	0.730654	0.486639	0.426757
H126	H	1.413222	0.566195	0.156561
F127	F	1.043381	0.636204	-0.430356
F128	F	0.745972	0.670288	0.178771
H129	H	0.955683	0.301637	0.040302
F130	F	0.214968	1.492302	0.291567
H131	H	0.366496	0.792931	0.043781
F132	F	0.931643	0.678466	0.486126
F133	F	0.575130	0.492328	0.291564
F134	F	0.552438	0.711970	0.193281
F135	F	-0.004260	1.553174	0.207693
F136	F	0.902527	0.252150	0.075399
F137	F	0.370369	1.287008	-0.373616
H138	H	0.919471	1.218131	-0.068755
F139	F	1.447328	0.340606	-0.046532
H140	H	0.779586	0.984515	-0.261758
F141	F	1.091136	0.678443	0.486157
H142	H	0.347191	0.972128	-0.018168
F143	F	0.571161	1.154440	-0.241099
H144	H	0.706598	1.080886	-0.344884
H145	H	0.831146	0.466091	0.572943
F146	F	0.931639	0.545962	0.618670
H147	H	0.831203	1.366813	-0.327831
F148	F	0.109976	1.121083	0.051889
H149	H	0.040449	1.425724	0.109770
F150	F	0.730687	1.286990	-0.373624
H151	H	0.249075	1.266693	0.088494
H152	H	0.148951	1.366842	-0.327816
H153	H	0.627165	0.318760	0.257206
F154	F	1.381855	0.619221	0.294152
F155	F	1.087150	0.340583	-0.046516
F156	F	1.666557	0.279745	0.037330
F157	F	1.291919	0.545916	0.618678
F158	F	0.931675	1.346212	-0.181613
H159	H	0.742824	0.614727	0.313838
H160	H	0.742828	1.166059	-0.237499
F161	F	1.582602	0.486705	0.426660
H162	H	0.295697	1.039923	0.201435
F163	F	1.537654	0.450044	0.588932
F164	F	0.312748	0.852856	0.283070
H165	H	1.035136	0.647097	-0.145120
H166	H	0.425767	1.318751	0.257209
H167	H	0.285890	1.218107	-0.068747
F168	F	0.611765	1.206091	-0.627353
F169	F	0.618942	0.609425	0.262670
F170	F	0.079687	1.346217	-0.181597
H171	H	0.594939	1.228317	-0.472080
H172	H	1.067358	0.604567	-0.282880
F173	F	1.209979	0.521506	-0.022314
F174	F	0.916334	0.803972	-0.575085
