data_functionalizedCrystal
_audit_creation_method	'MofGen! by Chris Wilmer'
_symmetry_space_group_name_H-M	'P1'
_symmetry_Int_Tables_number	1
_symmetry_cell_setting	triclinic
loop_
_symmetry_equiv_pos_as_xyz
  x,y,z
_cell_length_a	16.120490
_cell_length_b	19.805404
_cell_length_c	19.805399
_cell_angle_alpha	90.031217
_cell_angle_beta	87.085870
_cell_angle_gamma	92.872010
loop_
_atom_site_label
_atom_site_type_symbol
_atom_site_fract_x
_atom_site_fract_y
_atom_site_fract_z
Zn1	Zn	1.274456	0.322075	-0.435058
Zn2	Zn	1.274328	0.435258	-0.321857
Zn3	Zn	1.135042	0.316340	-0.316155
Zn4	Zn	1.134974	0.429471	-0.429279
O5	O	1.204700	0.375786	-0.375587
O6	O	1.391103	0.341910	-0.424846
O7	O	1.255826	0.419505	-0.226383
O8	O	1.153618	0.222387	-0.331960
O9	O	1.391009	0.425066	-0.341678
O10	O	1.256044	0.226601	-0.419317
O11	O	1.153494	0.332136	-0.222194
O12	O	1.018368	0.326525	-0.326357
O13	O	1.153502	0.415203	-0.524763
O14	O	1.018318	0.409642	-0.409468
O15	O	1.255978	0.336299	-0.529009
O16	O	1.255760	0.529203	-0.336075
O17	O	1.153378	0.524952	-0.414997
C18	C	0.988094	0.366834	-0.366667
C19	C	0.895428	0.363020	-0.362867
C20	C	0.684478	0.395561	-0.395300
C21	C	0.725773	0.356064	-0.355928
C22	C	0.820178	0.359936	-0.359790
C23	C	0.590064	0.391691	-0.391439
C24	C	1.204570	0.551636	-0.375543
C25	C	1.204591	0.626869	-0.375550
C26	C	1.258046	1.090800	-0.421152
C27	C	1.258023	1.020111	-0.421137
C28	C	1.204726	0.982636	-0.375615
C29	C	1.151455	1.015855	-0.330100
C30	C	1.151483	1.086544	-0.330112
C31	C	1.151343	0.730777	-0.330050
C32	C	1.151317	0.660084	-0.330043
C33	C	1.257883	0.664345	-0.421075
C34	C	1.257911	0.735033	-0.421087
C35	C	1.204643	0.768246	-0.375570
C36	C	1.204670	0.844895	-0.375586
C37	C	1.204695	0.905988	-0.375602
C38	C	1.422152	0.384773	-0.384543
C39	C	1.514817	0.388603	-0.388359
C40	C	1.204747	0.375745	-0.552132
C41	C	1.204767	0.375728	-0.627365
C42	C	1.204817	1.199248	-0.375639
C43	C	1.204777	1.124014	-0.375642
C44	C	1.258127	0.334640	-0.664921
C45	C	1.258136	0.334621	-0.735610
C46	C	1.204787	0.375693	-0.768741
C47	C	1.151421	0.416782	-0.731180
C48	C	1.151409	0.416797	-0.660493
C49	C	1.151468	0.416721	-1.016256
C50	C	1.151486	0.416704	-1.086948
C51	C	1.258195	0.334545	-1.091373
C52	C	1.258183	0.334560	-1.020685
C53	C	1.204814	0.375646	-0.983130
C54	C	1.204804	0.375665	-0.906481
C55	C	1.204801	0.375678	-0.845389
C56	C	1.204701	0.375779	-0.199731
C57	C	1.204843	0.375613	-0.124506
H58	H	0.690227	0.319341	-0.319321
H59	H	1.108063	0.985340	-0.293032
H60	H	1.301438	1.121307	-0.458228
H61	H	0.720021	0.432281	-0.431904
H62	H	1.301399	0.993068	-0.458195
H63	H	1.108024	0.450186	-0.985687
O64	O	1.099854	1.118845	-0.285838
C65	C	1.147368	1.161700	-0.244128
H66	H	1.213024	1.143059	-0.242692
H67	H	1.150246	1.215374	-0.265184
C68	C	1.026052	1.184083	-0.173826
C69	C	1.106690	1.161184	-0.172058
H70	H	1.000959	1.183768	-0.129371
H71	H	0.994040	1.155213	-0.201929
H72	H	1.028461	1.228810	-0.191376
H73	H	1.104279	1.116455	-0.154517
H74	H	1.138701	1.190047	-0.143951
O75	O	1.310004	0.294802	-0.772172
C76	C	1.363834	0.335549	-0.815264
H77	H	1.334392	0.385626	-0.824620
H78	H	1.425612	0.345541	-0.790576
C79	C	1.415116	0.237410	-0.871555
C80	C	1.378951	0.298913	-0.883051
H81	H	1.424444	0.214811	-0.913368
H82	H	1.378852	0.209958	-0.842522
H83	H	1.466593	0.245745	-0.850980
H84	H	1.327470	0.290577	-0.903618
H85	H	1.415207	0.326363	-0.912089
O86	O	1.099674	0.456660	-0.763470
C87	C	1.111112	0.447825	-0.833914
H88	H	1.175473	0.428318	-0.846230
H89	H	1.061698	0.409733	-0.851948
C90	C	1.024367	0.539943	-0.854738
C91	C	1.103419	0.515989	-0.869866
H92	H	1.019618	0.581988	-0.876916
H93	H	1.016658	0.545893	-0.807279
H94	H	0.983197	0.508193	-0.869767
H95	H	1.144587	0.547734	-0.854830
H96	H	1.111135	0.510045	-0.917324
O97	O	1.309762	0.771333	-0.465332
C98	C	1.356762	0.726858	-0.505509
H99	H	1.359649	0.676605	-0.477900
H100	H	1.326193	0.718068	-0.555635
C101	C	1.441950	0.819755	-0.552888
C102	C	1.445502	0.758035	-0.518976
H103	H	1.496688	0.838987	-0.561198
H104	H	1.410284	0.849720	-0.525822
H105	H	1.416473	0.812422	-0.594656
H106	H	1.470969	0.765371	-0.477205
H107	H	1.477174	0.728073	-0.546035
O108	O	1.309609	0.631975	-0.465223
C109	C	1.298148	0.561548	-0.455464
H110	H	1.270883	0.550823	-0.402086
H111	H	1.253713	0.539659	-0.493748
C112	C	1.415972	0.541844	-0.530755
C113	C	1.382491	0.528672	-0.465193
H114	H	1.467998	0.521563	-0.536759
H115	H	1.423692	0.589292	-0.537332
H116	H	1.378935	0.523603	-0.562650
H117	H	1.419524	0.546920	-0.433299
H118	H	1.374779	0.481226	-0.458611
O119	O	1.309954	0.294644	-1.127956
C120	C	1.298541	0.303444	-1.197452
H121	H	1.234184	0.322948	-1.204447
H122	H	1.347963	0.341526	-1.219541
C123	C	1.385293	0.211314	-1.225487
C124	C	1.306246	0.235263	-1.234079
H125	H	1.390050	0.169258	-1.248082
H126	H	1.392985	0.205387	-1.178667
H127	H	1.426470	0.243055	-1.243895
H128	H	1.265072	0.203526	-1.215665
H129	H	1.298547	0.241184	-1.280898
O130	O	1.099558	0.456781	-0.624112
C131	C	1.052464	0.493022	-0.668511
H132	H	1.086615	0.496758	-0.720309
H133	H	0.989163	0.465626	-0.673421
C134	C	0.998454	0.559981	-0.576787
C135	C	1.040402	0.564575	-0.640405
H136	H	0.991010	0.604117	-0.559449
H137	H	1.030180	0.535564	-0.546874
H138	H	0.945708	0.537148	-0.580887
H139	H	1.093151	0.587399	-0.636302
H140	H	1.008685	0.588998	-0.670316
H141	H	1.108040	0.450151	-1.113922
O142	O	1.099429	0.623750	-0.285846
C143	C	1.016330	0.637633	-0.297166
H144	H	1.014598	0.688871	-0.323115
H145	H	0.988207	0.596689	-0.330784
C146	C	0.968016	0.575963	-0.197196
C147	C	0.965887	0.638897	-0.229062
H148	H	0.936898	0.576740	-0.155187
H149	H	1.024001	0.566607	-0.189570
H150	H	0.944581	0.541849	-0.225217
H151	H	0.989331	0.673008	-0.201044
H152	H	0.909905	0.648259	-0.236682
O153	O	1.309834	0.294702	-0.632662
C154	C	1.262396	0.249023	-0.589846
H155	H	1.199196	0.270288	-0.576639
H156	H	1.253279	0.198483	-0.616731
C157	C	1.385890	0.212554	-0.540818
C158	C	1.308269	0.238674	-0.524593
H159	H	1.414187	0.206167	-0.500568
H160	H	1.417850	0.243326	-0.569666
H161	H	1.378281	0.170440	-0.563224
H162	H	1.315878	0.280791	-0.502195
H163	H	1.276310	0.207908	-0.495740
O164	O	1.099545	0.763102	-0.285937
C165	C	1.045671	0.801764	-0.322229
H166	H	1.075050	0.813517	-0.374749
H167	H	0.983881	0.772005	-0.327088
C168	C	0.994521	0.853884	-0.219859
C169	C	1.030609	0.868325	-0.284363
H170	H	0.985226	0.894941	-0.196501
H171	H	1.030814	0.827835	-0.195408
H172	H	0.943033	0.829084	-0.223918
H173	H	1.082100	0.893117	-0.280304
H174	H	0.994324	0.894379	-0.308813
H175	H	1.301628	0.301117	-0.993713
