data_functionalizedCrystal
_audit_creation_method	'MofGen! by Chris Wilmer'
_symmetry_space_group_name_H-M	'P1'
_symmetry_Int_Tables_number	1
_symmetry_cell_setting	triclinic
loop_
_symmetry_equiv_pos_as_xyz
  x,y,z
_cell_length_a	12.759400
_cell_length_b	12.759401
_cell_length_c	12.759393
_cell_angle_alpha	90.020011
_cell_angle_beta	90.030745
_cell_angle_gamma	90.017849
loop_
_atom_site_label
_atom_site_type_symbol
_atom_site_fract_x
_atom_site_fract_y
_atom_site_fract_z
Zn1	Zn	0.418314	-1.606204	-0.594030
Zn2	Zn	0.594033	-1.606076	-0.418352
Zn3	Zn	0.418357	-1.430506	-0.418364
Zn4	Zn	0.593940	-1.430473	-0.593989
O5	O	0.506161	-1.518315	-0.506184
O6	O	0.441645	-1.753208	-0.570738
O7	O	0.570786	-1.582747	-0.271333
O8	O	0.271330	-1.453880	-0.441689
O9	O	0.570745	-1.753114	-0.441668
O10	O	0.271299	-1.582964	-0.570749
O11	O	0.441717	-1.453756	-0.271342
O12	O	0.441627	-1.283480	-0.441650
O13	O	0.570586	-1.453823	-0.741016
O14	O	0.570627	-1.283456	-0.570680
O15	O	0.441554	-1.582932	-0.741045
O16	O	0.741042	-1.582715	-0.441629
O17	O	0.740973	-1.453700	-0.570669
C18	C	0.506122	-1.245347	-0.506162
C19	C	0.506131	-1.128571	-0.506178
C20	C	0.439033	-1.073750	-0.573487
C21	C	0.439047	-0.964026	-0.573491
C22	C	0.573267	-0.963952	-0.438874
C23	C	0.573247	-1.073675	-0.438865
C24	C	0.371917	-1.128646	-0.640800
C25	C	0.304814	-1.073826	-0.708116
C26	C	0.304828	-0.964102	-0.708120
C27	C	0.371946	-0.909198	-0.640808
C28	C	0.779128	-1.518219	-0.506166
C29	C	0.895905	-1.518274	-0.506193
C30	C	0.950769	-1.451074	-0.573329
C31	C	1.060494	-1.451115	-0.573336
C32	C	1.060479	-1.585565	-0.439067
C33	C	0.950757	-1.585518	-0.439056
C34	C	0.895918	-1.383830	-0.640466
C35	C	0.950782	-1.316625	-0.707609
C36	C	1.060506	-1.316666	-0.707615
C37	C	1.115366	-1.383912	-0.640479
C38	C	1.232128	-1.518407	-0.506217
C39	C	1.115351	-1.518362	-0.506211
C40	C	0.506055	-1.518388	-0.780217
C41	C	0.506010	-1.518420	-0.896994
C42	C	0.506188	-0.792348	-0.506200
C43	C	0.506166	-0.909125	-0.506190
C44	C	0.438817	-1.585656	-0.951873
C45	C	0.438779	-1.585681	-1.061598
C46	C	0.573136	-1.451230	-1.061554
C47	C	0.573168	-1.451201	-0.951831
C48	C	0.371659	-1.652875	-0.897036
C49	C	0.304461	-1.720117	-0.951916
C50	C	0.304423	-1.720142	-1.061640
C51	C	0.371583	-1.652924	-1.116484
C52	C	0.506191	-1.518302	-0.233217
C53	C	0.505940	-1.518474	-0.116440
H54	H	0.627884	-1.118310	-0.384056
N55	N	0.371920	-1.240725	-0.640787
N56	N	0.453898	-1.289690	-0.662592
H57	H	0.453905	-1.368847	-0.662581
N58	N	1.227447	-1.383929	-0.640485
N59	N	1.276424	-1.323916	-0.700426
H60	H	1.355580	-1.323927	-0.700433
H61	H	0.249776	-1.774836	-0.907254
H62	H	0.806575	-1.383790	-0.640471
N63	N	0.894734	-1.247936	-0.776166
N64	N	0.796769	-1.247904	-0.776152
H65	H	0.757185	-1.199390	-0.824570
H66	H	0.906086	-1.640237	-0.384387
H67	H	0.250163	-1.118536	-0.762912
N68	N	1.116551	-1.248034	-0.776206
N69	N	1.177707	-1.284992	-0.843191
H70	H	1.217288	-1.236522	-0.891639
N71	N	1.116529	-1.654242	-0.370499
N72	N	1.214494	-1.654274	-0.370519
H73	H	1.254081	-1.702779	-0.322093
H74	H	0.371684	-1.652864	-0.807693
H75	H	0.249700	-1.774886	-1.106320
H76	H	0.371534	-1.652938	-1.205829
H77	H	0.627814	-1.396505	-1.106217
N78	N	0.641788	-1.382510	-0.895763
N79	N	0.634795	-1.285571	-0.908005
H80	H	0.683255	-1.237052	-0.868405
N81	N	0.236271	-0.908119	-0.776871
N82	N	0.176351	-0.957151	-0.836958
H83	H	0.127931	-0.917616	-0.885520
H84	H	0.627913	-0.919241	-0.384074
N85	N	0.371932	-0.797118	-0.640808
N86	N	0.312007	-0.748180	-0.700901
H87	H	0.311996	-0.669024	-0.700903
