data_functionalizedCrystal
_audit_creation_method	'MofGen! by Chris Wilmer'
_symmetry_space_group_name_H-M	'P1'
_symmetry_Int_Tables_number	1
_symmetry_cell_setting	triclinic
loop_
_symmetry_equiv_pos_as_xyz
  x,y,z
_cell_length_a	16.120530
_cell_length_b	19.077068
_cell_length_c	19.076919
_cell_angle_alpha	94.470751
_cell_angle_beta	90.500157
_cell_angle_gamma	90.462149
loop_
_atom_site_label
_atom_site_type_symbol
_atom_site_fract_x
_atom_site_fract_y
_atom_site_fract_z
Zn1	Zn	1.235622	0.351862	0.464893
Zn2	Zn	1.235519	0.465010	0.351733
Zn3	Zn	1.102611	0.341206	0.341097
Zn4	Zn	1.090943	0.463251	0.463136
O5	O	1.166174	0.405332	0.405215
O6	O	1.351779	0.372067	0.455068
O7	O	1.222729	0.444865	0.251890
O8	O	1.125182	0.244190	0.353803
O9	O	1.351704	0.455197	0.371930
O10	O	1.222904	0.252019	0.444755
O11	O	1.125082	0.353906	0.244077
O12	O	0.984893	0.352200	0.352100
O13	O	1.105295	0.452198	0.561800
O14	O	0.976320	0.441866	0.441761
O15	O	1.211590	0.370361	0.563091
O16	O	1.211415	0.563206	0.370226
O17	O	1.105196	0.561914	0.452074
C18	C	1.157050	0.588083	0.412130
C19	C	1.153221	0.666269	0.415115
C20	C	0.950485	0.395686	0.395586
C21	C	0.858210	0.391577	0.391484
C22	C	1.157153	0.412272	0.588681
C23	C	1.153308	0.415229	0.666864
C24	C	0.689263	0.384058	0.384001
C25	C	0.643920	0.426660	0.426481
C26	C	0.549913	0.422477	0.422318
C27	C	0.783280	0.388241	0.388164
C28	C	1.382706	0.415017	0.414881
C29	C	1.474979	0.419144	0.419000
C30	C	1.175356	0.221869	0.398289
C31	C	1.179269	0.143688	0.395338
C32	C	1.206765	0.703654	0.373943
C33	C	1.203168	0.777118	0.376755
C34	C	1.146024	0.813196	0.420736
C35	C	1.092478	0.775806	0.461912
C36	C	1.096079	0.702343	0.459104
C37	C	1.129324	1.032836	0.433705
C38	C	1.125725	1.106304	0.436509
C39	C	1.236417	1.107611	0.351353
C40	C	1.240009	1.034146	0.348545
C41	C	1.186467	0.996763	0.389724
N42	N	1.142345	0.888288	0.423610
N43	N	1.190150	0.921673	0.386853
C44	C	1.175211	0.398371	0.222462
C45	C	1.179226	0.395223	0.144279
C46	C	1.206841	0.374012	0.704267
C47	C	1.203219	0.376787	0.777728
C48	C	1.146067	0.420784	0.813784
C49	C	1.092528	0.462002	0.776375
C50	C	1.096147	0.459223	0.702916
C51	C	1.129306	0.433662	1.033411
C52	C	1.125693	0.436440	1.106876
C53	C	1.236383	0.351224	1.108223
C54	C	1.240000	0.348451	1.034763
C55	C	1.186458	0.389667	0.997360
N56	N	1.142365	0.423623	0.888872
N57	N	1.190157	0.386823	0.922273
H58	H	0.675703	0.466273	0.465978
H59	H	0.657483	0.344448	0.344508
Br60	Br	1.309082	1.158349	0.295473
H61	H	1.085726	1.002404	0.467234
Br62	Br	1.275843	0.827853	0.320881
Br63	Br	1.284314	0.654698	0.314245
Br64	Br	1.048122	0.496151	1.155808
Br65	Br	1.014931	0.824768	0.521608
H66	H	1.286541	1.004773	0.312732
Br67	Br	1.023415	0.651606	0.514987
H68	H	1.079201	1.135677	0.472337
Br69	Br	1.284415	0.314305	0.655342
H70	H	1.246813	0.343226	0.808179
Br71	Br	1.317569	0.288742	0.985835
H72	H	1.279972	0.317667	1.138684
H73	H	1.085720	0.467234	1.002968
Br74	Br	1.014959	0.521708	0.825307
H75	H	1.052547	0.492779	0.672462
