data_functionalizedCrystal
_audit_creation_method	'MofGen! by Chris Wilmer'
_symmetry_space_group_name_H-M	'P1'
_symmetry_Int_Tables_number	1
_symmetry_cell_setting	triclinic
loop_
_symmetry_equiv_pos_as_xyz
  x,y,z
_cell_length_a	16.120490
_cell_length_b	16.120444
_cell_length_c	17.077396
_cell_angle_alpha	92.869489
_cell_angle_beta	87.084783
_cell_angle_gamma	90.165174
loop_
_atom_site_label
_atom_site_type_symbol
_atom_site_fract_x
_atom_site_fract_y
_atom_site_fract_z
Zn1	Zn	1.254466	-0.395674	-0.522512
Zn2	Zn	1.247307	-0.534735	-0.397540
Zn3	Zn	1.115406	-0.388634	-0.384296
Zn4	Zn	1.108316	-0.527620	-0.521799
O5	O	1.181374	-0.461666	-0.456537
O6	O	1.369882	-0.420045	-0.511776
O7	O	1.229782	-0.515386	-0.285936
O8	O	1.139816	-0.273205	-0.397387
O9	O	1.364622	-0.522212	-0.419958
O10	O	1.241983	-0.278377	-0.498934
O11	O	1.132875	-0.408046	-0.276206
O12	O	0.998100	-0.401147	-0.396695
O13	O	1.127732	-0.510085	-0.631740
O14	O	0.992891	-0.503259	-0.497718
O15	O	1.235108	-0.413146	-0.632265
O16	O	1.222906	-0.650154	-0.419266
O17	O	1.120790	-0.644927	-0.510559
C18	C	0.965323	-0.450668	-0.445693
C19	C	0.872895	-0.445983	-0.441073
C20	C	0.659924	-0.485961	-0.480501
C21	C	0.703671	-0.437437	-0.432638
C22	C	0.797836	-0.442193	-0.437332
C23	C	0.565751	-0.481206	-0.475807
C24	C	1.170325	-0.677713	-0.466291
C25	C	1.165674	-0.770143	-0.470493
C26	C	1.205704	-0.983119	-0.434914
C27	C	1.157198	-0.939369	-0.478176
C28	C	1.161915	-0.845203	-0.473900
C29	C	1.200988	-1.077294	-0.439189
C30	C	1.398268	-0.472707	-0.467424
C31	C	1.490696	-0.477413	-0.472063
C32	C	1.181427	-0.461607	-0.661281
C33	C	1.181450	-0.461582	-0.748531
C34	C	1.192489	-0.244776	-0.446763
C35	C	1.197226	-0.152350	-0.442598
C36	C	1.237363	-0.411101	-0.789795
C37	C	1.237374	-0.411074	-0.871775
C38	C	1.181476	-0.461533	-0.912489
C39	C	1.125557	-0.512016	-0.871219
C40	C	1.125543	-0.512038	-0.789240
C41	C	1.125593	-0.511967	-1.042088
C42	C	1.125609	-0.511947	-1.124073
C43	C	1.237425	-0.411004	-1.124623
C44	C	1.237410	-0.411026	-1.042644
C45	C	1.181492	-0.461510	-1.001380
C46	C	1.181372	-0.461667	-0.252589
C47	C	1.181522	-0.461466	-0.165337
H48	H	1.112127	-0.972635	-0.518424
H49	H	0.670405	-0.392322	-0.388135
H50	H	0.693188	-0.531073	-0.524999
F51	F	1.296862	-0.357400	-0.746471
H52	H	1.250771	-0.949857	-0.394667
F53	F	1.296912	-0.357375	-0.915691
H54	H	1.282932	-0.369943	-1.009497
F55	F	1.296938	-0.357275	-1.168540
H56	H	1.080090	-0.553033	-1.157220
H57	H	1.080047	-0.553063	-1.008492
H58	H	1.080041	-0.553097	-0.904375
F59	F	1.066031	-0.565764	-0.745324
