data_functionalizedCrystal
_audit_creation_method	'MofGen! by Chris Wilmer'
_symmetry_space_group_name_H-M	'P1'
_symmetry_Int_Tables_number	1
_symmetry_cell_setting	triclinic
loop_
_symmetry_equiv_pos_as_xyz
  x,y,z
_cell_length_a	10.654550
_cell_length_b	13.339070
_cell_length_c	9.730223
_cell_angle_alpha	90.000235
_cell_angle_beta	89.996251
_cell_angle_gamma	100.057099
loop_
_atom_site_label
_atom_site_type_symbol
_atom_site_fract_x
_atom_site_fract_y
_atom_site_fract_z
O1	O	1.715926	0.142430	-0.114401
O2	O	1.355030	0.156000	-0.114379
O3	O	1.494059	0.001661	-0.114383
O4	O	1.576897	0.296769	-0.114397
O5	O	1.494058	0.001665	0.114196
O6	O	1.355029	0.156004	0.114201
O7	O	1.715925	0.142434	0.114179
Zn8	Zn	1.535477	0.149220	0.150482
Zn9	Zn	1.535478	0.149214	-0.150682
O10	O	1.576896	0.296773	0.114183
C11	C	1.307895	0.155006	-0.000086
C12	C	1.167445	0.152025	-0.000078
C13	C	1.118643	0.242897	-0.000102
C14	C	0.986674	0.240090	-0.000125
C15	C	0.952320	0.055530	-0.000106
C16	C	1.084286	0.058338	-0.000073
C17	C	1.138476	0.349452	-0.000119
C18	C	1.006507	0.346644	-0.000142
C19	C	1.480065	-0.036124	-0.000094
C20	C	1.438355	-0.148719	-0.000098
C21	C	1.762670	-0.511236	-0.000117
C22	C	1.801862	-0.405449	-0.000106
C23	C	1.710989	-0.341261	-0.000105
C24	C	1.580916	-0.382872	-0.000112
C25	C	1.541720	-0.488670	-0.000112
C26	C	1.490039	-0.318694	-0.000100
C27	C	1.359966	-0.360305	-0.000108
C28	C	1.320776	-0.466093	-0.000109
C29	C	1.411650	-0.530280	-0.000110
C30	C	1.529235	-0.212896	-0.000100
C31	C	1.308285	-0.190329	-0.000096
C32	C	1.269093	-0.296117	-0.000106
C33	C	1.763060	0.143428	-0.000117
C34	C	1.903510	0.146409	-0.000135
C35	C	1.590890	0.334559	-0.000109
C36	C	1.632600	0.447153	-0.000115
N37	N	1.535485	0.149223	0.356018
N38	N	1.535477	0.149204	-0.356218
C39	C	1.597077	0.080904	0.427942
C40	C	1.597069	0.080892	0.571825
C41	C	1.473877	0.217525	0.571847
C42	C	1.473878	0.217531	0.427967
C43	C	1.668206	0.002023	0.427931
C44	C	1.668198	0.002011	0.571814
H45	H	1.635141	-0.179028	-0.000093
H46	H	1.124015	-0.015659	-0.000034
H47	H	1.163185	-0.330012	-0.000112
H48	H	1.423711	0.273153	0.369408
H49	H	1.234288	-0.138068	-0.000087
C50	C	1.202142	0.395315	-0.133409
H51	H	1.291293	0.395696	-0.128840
H52	H	1.187203	0.463048	-0.143939
H53	H	1.167220	0.355482	-0.209681
C54	C	1.406124	0.292664	0.650995
H55	H	1.414950	0.282880	0.746987
H56	H	1.318261	0.281024	0.627418
H57	H	1.443386	0.360454	0.627421
C58	C	0.959486	0.390176	0.133140
H59	H	0.869768	0.386750	0.128574
H60	H	0.999861	0.459087	0.143646
H61	H	0.979802	0.351532	0.209424
H62	H	1.767729	0.026722	0.383298
H63	H	1.379745	-0.616422	-0.000124
C64	C	1.603677	-0.103266	0.375168
H65	H	1.577126	-0.146570	0.451106
H66	H	1.662442	-0.132082	0.320923
H67	H	1.531630	-0.096098	0.320938
H68	H	1.770577	0.019386	0.610858
C69	C	0.860843	-0.047517	-0.000115
H70	H	0.775258	-0.036176	-0.000147
H71	H	0.875393	-0.084973	0.079600
H72	H	0.875434	-0.084970	-0.079832
C73	C	1.197120	0.405759	0.129099
H74	H	1.131683	0.427001	0.182229
H75	H	1.257441	0.463621	0.102523
H76	H	1.238398	0.361383	0.182276
H77	H	0.978331	0.386791	-0.095812
C78	C	1.593384	-0.097487	0.632111
H79	H	1.595922	-0.094097	0.729621
H80	H	1.630715	-0.153319	0.601960
H81	H	1.507343	-0.106414	0.601968
C82	C	1.754099	-0.224898	-0.000111
H83	H	1.844578	-0.209309	-0.000120
H84	H	1.722159	-0.196789	0.079593
H85	H	1.722172	-0.196805	-0.079839
H86	H	1.907767	-0.371577	-0.000098
H87	H	1.836644	-0.563506	-0.000107
H88	H	1.214863	-0.499968	-0.000105
