data_functionalizedCrystal
_audit_creation_method	'MofGen! by Chris Wilmer'
_symmetry_space_group_name_H-M	'P1'
_symmetry_Int_Tables_number	1
_symmetry_cell_setting	triclinic
loop_
_symmetry_equiv_pos_as_xyz
  x,y,z
_cell_length_a	10.540539
_cell_length_b	10.654550
_cell_length_c	9.730223
_cell_angle_alpha	90.000193
_cell_angle_beta	89.998168
_cell_angle_gamma	84.505197
loop_
_atom_site_label
_atom_site_type_symbol
_atom_site_fract_x
_atom_site_fract_y
_atom_site_fract_z
O1	O	-1.685816	-0.176987	-0.114221
O2	O	-1.316397	-0.193663	-0.114238
O3	O	-1.509600	-0.002588	-0.114224
O4	O	-1.492613	-0.368061	-0.114235
O5	O	-1.509598	-0.002593	0.114356
O6	O	-1.316395	-0.193668	0.114342
O7	O	-1.685814	-0.176991	0.114359
Zn8	Zn	-1.501104	-0.185330	0.150642
Zn9	Zn	-1.501107	-0.185324	-0.150522
O10	O	-1.492611	-0.368066	0.114345
C11	C	-1.269094	-0.192415	0.000050
C12	C	-1.128147	-0.188673	0.000044
C13	C	-1.508352	0.044208	0.000064
C14	C	-1.504620	0.183652	0.000059
C15	C	-1.733118	-0.178240	0.000068
C16	C	-1.874064	-0.181981	0.000065
C17	C	-0.944772	-0.045302	0.000581
C18	C	-1.091388	-0.049095	0.000052
C19	C	-1.066451	-0.255841	-0.130484
C20	C	-0.919909	-0.251078	-0.130579
C21	C	-0.919417	-0.253923	0.129359
C22	C	-1.066398	-0.255208	0.131070
C23	C	-1.493859	-0.414862	0.000054
C24	C	-1.497591	-0.554306	0.000050
N25	N	-1.501111	-0.185334	0.356179
C26	C	-1.618375	0.263098	0.000068
C27	C	-1.614861	0.394120	0.000059
C28	C	-1.383827	0.366238	0.000036
C29	C	-1.387343	0.235218	0.000036
C30	C	-1.735653	0.211532	0.000092
C31	C	-1.849417	0.290979	0.000102
C32	C	-1.845903	0.422001	0.000093
C33	C	-1.728625	0.473576	0.000072
N34	N	-1.501110	-0.185310	-0.356058
C35	C	-1.586684	-0.100755	0.428111
C36	C	-1.586681	-0.100740	0.571994
C37	C	-1.415528	-0.269893	0.572000
C38	C	-1.415526	-0.269901	0.428119
C39	C	-1.672269	-0.016188	0.356170
C40	C	-1.757850	0.068397	0.428102
C41	C	-1.757846	0.068412	0.571985
C42	C	-1.672262	-0.016157	0.643936
H43	H	-0.916205	0.009838	0.094190
H44	H	-1.672258	-0.016129	0.761095
O45	O	-1.850137	0.159642	0.649578
H46	H	-1.912279	0.106179	0.715147
H47	H	-1.738527	0.104849	0.000104
O48	O	-1.098431	-0.390008	0.141507
H49	H	-1.053400	-0.434141	0.235041
O50	O	-1.146728	0.021402	-0.124100
H51	H	-1.105476	-0.023798	-0.218914
H52	H	-1.107377	-0.206140	0.227634
H53	H	-1.672282	-0.016195	0.239013
H54	H	-1.944901	0.248977	0.000085
H55	H	-0.872153	-0.354739	0.130238
H56	H	-1.294713	0.170531	0.000030
H57	H	-0.891717	-0.201430	-0.228146
H58	H	-1.288345	0.408241	0.000021
H59	H	-1.827522	0.137258	0.369513
O60	O	-0.856304	-0.384036	-0.138459
H61	H	-0.930253	-0.451448	-0.142196
O62	O	-1.968596	0.507696	0.000110
H63	H	-2.050731	0.449822	0.000140
O64	O	-1.323237	-0.361118	0.649594
H65	H	-1.337625	-0.346912	0.761728
O66	O	-0.877683	-0.194084	0.260424
H67	H	-0.824144	-0.112391	0.234868
O68	O	-1.724837	0.614894	0.000067
H69	H	-1.674054	0.643425	-0.093106
O70	O	-1.147874	0.020895	0.123999
H71	H	-1.070475	0.057770	0.184854
O72	O	-0.904783	0.027454	-0.122702
H73	H	-0.834772	-0.033311	-0.184345
H74	H	-1.345844	-0.338772	0.369552
H75	H	-1.088767	-0.358344	-0.135343
O76	O	-1.122862	-0.194030	-0.259166
H77	H	-1.194822	-0.115483	-0.230487
