data_functionalizedCrystal
_audit_creation_method	'MofGen! by Chris Wilmer'
_symmetry_space_group_name_H-M	'P1'
_symmetry_Int_Tables_number	1
_symmetry_cell_setting	triclinic
loop_
_symmetry_equiv_pos_as_xyz
  x,y,z
_cell_length_a	10.540539
_cell_length_b	10.540539
_cell_length_c	9.016244
_cell_angle_alpha	90.000732
_cell_angle_beta	90.005301
_cell_angle_gamma	95.474509
loop_
_atom_site_label
_atom_site_type_symbol
_atom_site_fract_x
_atom_site_fract_y
_atom_site_fract_z
O1	O	-1.685893	0.178895	-0.123260
O2	O	-1.316480	0.195751	-0.123277
O3	O	-1.509614	0.002617	-0.123269
O4	O	-1.492759	0.372030	-0.123268
O5	O	-1.509586	0.002621	0.123412
O6	O	-1.316452	0.195755	0.123404
O7	O	-1.685865	0.178900	0.123421
Cu8	Cu	-1.501156	0.187328	0.145936
Cu9	Cu	-1.501189	0.187323	-0.145792
O10	O	-1.492730	0.372034	0.123413
C11	C	-1.269163	0.194489	0.000061
C12	C	-1.128215	0.190707	0.000054
C13	C	-1.508336	-0.044684	0.000068
C14	C	-1.504554	-0.185632	0.000057
C15	C	-1.494008	0.419335	0.000073
C16	C	-1.497790	0.560283	0.000074
C17	C	-1.733182	0.180161	0.000080
C18	C	-1.874130	0.183943	0.000077
C19	C	-0.944788	0.045790	0.000629
C20	C	-1.091406	0.049624	0.000058
C21	C	-1.066558	0.258600	-0.140807
C22	C	-0.920014	0.253785	-0.140910
C23	C	-0.919493	0.256660	0.139612
C24	C	-1.066475	0.257960	0.141459
N25	N	-1.501141	0.187331	0.351122
C26	C	-1.642708	0.743710	-0.000490
C27	C	-1.638874	0.597092	0.000077
C28	C	-1.429879	0.621951	0.140933
C29	C	-1.434694	0.768496	0.141039
C30	C	-1.431856	0.768993	-0.139483
C31	C	-1.430557	0.622011	-0.141333
N32	N	-1.501213	0.187310	-0.350979
C33	C	-1.397510	0.290298	0.586151
C34	C	-1.397739	0.290684	0.414260
C35	C	-1.633864	0.217464	0.413467
C36	C	-1.633298	0.218193	0.585412
C37	C	-1.473367	0.053892	0.585664
C38	C	-1.470322	0.054757	0.413709
H39	H	-1.134008	-0.003797	0.101033
Cl40	Cl	-1.728390	0.790353	0.154599
H41	H	-0.872266	0.358564	0.140564
H42	H	-1.415639	0.389668	0.373114
H43	H	-0.916191	-0.009944	0.101649
Cl44	Cl	-1.245460	0.262774	0.349178
Cl45	Cl	-1.507167	0.558795	-0.302226
H46	H	-1.088912	0.362208	-0.146048
Cl47	Cl	-1.512147	0.812052	0.303613
H48	H	-1.109159	0.211434	-0.245640
H49	H	-1.333228	0.816465	0.147439
H50	H	-1.372684	0.031916	0.372963
H51	H	-0.891816	0.203602	-0.246205
H52	H	-1.326270	0.599598	0.146168
Cl53	Cl	-1.579223	-0.069256	0.347386
H54	H	-1.657653	0.315531	0.625503
H55	H	-1.327700	0.597782	-0.149846
Cl56	Cl	-1.721907	0.532627	0.156257
Cl57	Cl	-1.721792	0.531248	-0.155512
Cl58	Cl	-1.502685	0.556211	0.302793
H59	H	-1.329945	0.816199	-0.140422
H60	H	-0.914592	-0.009712	-0.099828
H61	H	-1.477526	0.800543	-0.246252
Cl62	Cl	-1.590102	-0.064457	0.648433
Cl63	Cl	-1.244765	0.262720	0.650015
Cl64	Cl	-1.155840	-0.033078	-0.156377
Cl65	Cl	-0.845949	0.410434	-0.150784
Cl66	Cl	-1.672310	0.366048	0.346967
Cl67	Cl	-1.755998	0.106759	0.649625
H68	H	-1.698443	0.772286	-0.101521
H69	H	-1.415177	0.388722	0.629345
H70	H	-1.712919	0.144501	0.372566
H71	H	-0.887935	0.211004	0.246384
Cl72	Cl	-1.129540	0.181256	0.302349
Cl73	Cl	-1.327074	0.009637	0.652683
H74	H	-1.090700	0.360819	0.149964
