data_functionalizedCrystal
_audit_creation_method	'MofGen! by Chris Wilmer'
_symmetry_space_group_name_H-M	'P1'
_symmetry_Int_Tables_number	1
_symmetry_cell_setting	triclinic
loop_
_symmetry_equiv_pos_as_xyz
  x,y,z
_cell_length_a	19.077068
_cell_length_b	18.215407
_cell_length_c	18.215399
_cell_angle_alpha	90.016860
_cell_angle_beta	92.268164
_cell_angle_gamma	87.676929
loop_
_atom_site_label
_atom_site_type_symbol
_atom_site_fract_x
_atom_site_fract_y
_atom_site_fract_z
Zn1	Zn	-0.280281	-1.113285	-0.427814
Zn2	Zn	-0.030281	-0.863285	-0.177814
Zn3	Zn	0.219719	-0.613285	0.072186
Zn4	Zn	0.469719	-0.363285	0.322186
Zn5	Zn	-0.397982	-1.108243	-0.309685
Zn6	Zn	-0.147982	-0.858243	-0.059685
Zn7	Zn	0.102018	-0.608243	0.190315
Zn8	Zn	0.352018	-0.358243	0.440315
Zn9	Zn	-0.280295	-0.990216	-0.304769
Zn10	Zn	-0.030295	-0.740216	-0.054769
Zn11	Zn	0.219705	-0.490216	0.195231
Zn12	Zn	0.469705	-0.240216	0.445231
Zn13	Zn	-0.397934	-0.985235	-0.432714
Zn14	Zn	-0.147934	-0.735235	-0.182714
Zn15	Zn	0.102066	-0.485235	0.067286
Zn16	Zn	0.352066	-0.235235	0.317286
O17	O	-0.339123	-1.049245	-0.368746
O18	O	-0.089123	-0.799245	-0.118746
O19	O	0.160877	-0.549245	0.131254
O20	O	0.410877	-0.299245	0.381254
O21	O	-0.295908	-1.215599	-0.412151
O22	O	-0.045908	-0.965599	-0.162151
O23	O	0.204092	-0.715599	0.087849
O24	O	0.454092	-0.465599	0.337849
O25	O	-0.382397	-1.092561	-0.206050
O26	O	-0.132397	-0.842561	0.043950
O27	O	0.117603	-0.592561	0.293950
O28	O	0.367603	-0.342561	0.543950
O29	O	-0.181802	-1.010736	-0.316983
O30	O	0.068198	-0.760736	-0.066983
O31	O	0.318198	-0.510736	0.183017
O32	O	0.568198	-0.260736	0.433017
O33	O	-0.382383	-1.211895	-0.325362
O34	O	-0.132383	-0.961895	-0.075362
O35	O	0.117617	-0.711895	0.174638
O36	O	0.367617	-0.461895	0.424638
O37	O	-0.181792	-1.101154	-0.407384
O38	O	0.068208	-0.851154	-0.157384
O39	O	0.318208	-0.601154	0.092616
O40	O	0.568208	-0.351154	0.342616
O41	O	-0.295932	-1.005848	-0.202438
O42	O	-0.045932	-0.755848	0.047562
O43	O	0.204068	-0.505848	0.297562
O44	O	0.454068	-0.255848	0.547562
O45	O	-0.295886	-0.886572	-0.321734
O46	O	-0.045886	-0.636572	-0.071734
O47	O	0.204114	-0.386572	0.178266
O48	O	0.454114	-0.136572	0.428266
O49	O	-0.382301	-1.002246	-0.535048
O50	O	-0.132301	-0.752246	-0.285048
O51	O	0.117699	-0.502246	-0.035048
O52	O	0.367699	-0.252246	0.214952
O53	O	-0.382315	-0.882912	-0.415735
O54	O	-0.132315	-0.632912	-0.165735
O55	O	0.117685	-0.382912	0.084265
O56	O	0.367685	-0.132912	0.334265
O57	O	-0.295862	-1.096324	-0.531447
O58	O	-0.045862	-0.846324	-0.281447
O59	O	0.204138	-0.596324	-0.031447
O60	O	0.454138	-0.346324	0.218553
O61	O	-0.496466	-1.087731	-0.330113
O62	O	-0.246466	-0.837731	-0.080113
O63	O	0.003534	-0.587731	0.169887
O64	O	0.253534	-0.337731	0.419887
O65	O	-0.496431	-0.997358	-0.420503
O66	O	-0.246431	-0.747358	-0.170503
O67	O	0.003569	-0.497358	0.079497
O68	O	0.253569	-0.247358	0.329497
C69	C	-0.339097	-0.858040	-0.368733
C70	C	-0.089097	-0.608040	-0.118733
C71	C	0.160903	-0.358040	0.131267
C72	C	0.410903	-0.108040	0.381267
C73	C	-0.339103	-0.776240	-0.368746
C74	C	-0.089103	-0.526240	-0.118746
C75	C	0.160897	-0.276240	0.131254
C76	C	0.410897	-0.026240	0.381254
C77	C	-0.384188	-0.509293	-0.417630
C78	C	-0.134188	-0.259293	-0.167630
C79	C	0.115812	-0.009293	0.082370
C80	C	0.365812	0.240707	0.332370
C81	C	-0.384184	-0.586152	-0.417627
C82	C	-0.134184	-0.336152	-0.167627
C83	C	0.115816	-0.086152	0.082373
C84	C	0.365816	0.163848	0.332373
C85	C	-0.294051	-0.589938	-0.319874
C86	C	-0.044051	-0.339938	-0.069874
C87	C	0.205949	-0.089938	0.180126
C88	C	0.455949	0.160062	0.430126
C89	C	-0.294059	-0.513080	-0.319875
C90	C	-0.044059	-0.263080	-0.069875
C91	C	0.205941	-0.013080	0.180125
C92	C	0.455941	0.236920	0.430125
C93	C	-0.339127	-0.472760	-0.368757
C94	C	-0.089127	-0.222760	-0.118757
C95	C	0.160873	0.027240	0.131243
C96	C	0.410873	0.277240	0.381243
C97	C	-0.339114	-0.626476	-0.368753
C98	C	-0.089114	-0.376476	-0.118753
C99	C	0.160886	-0.126476	0.131247
C100	C	0.410886	0.123524	0.381247
C101	C	-0.339109	-0.709810	-0.368748
C102	C	-0.089109	-0.459810	-0.118748
C103	C	0.160891	-0.209810	0.131252
C104	C	0.410891	0.040190	0.381252
C105	C	-0.339133	-0.389421	-0.368761
C106	C	-0.089133	-0.139421	-0.118761
C107	C	0.160867	0.110579	0.131239
C108	C	0.410867	0.360579	0.381239
C109	C	-0.521986	-1.041477	-0.376389
C110	C	-0.271986	-0.791477	-0.126389
C111	C	-0.021986	-0.541477	0.123611
C112	C	0.228014	-0.291477	0.373611
C113	C	-0.600216	-1.038221	-0.379684
C114	C	-0.350216	-0.788221	-0.129684
C115	C	-0.100216	-0.538221	0.120316
C116	C	0.149784	-0.288221	0.370316
C117	C	-0.636964	-1.083780	-0.334210
C118	C	-0.386964	-0.833780	-0.084210
C119	C	-0.136964	-0.583780	0.165790
C120	C	0.113036	-0.333780	0.415790
C121	C	-0.710469	-1.080722	-0.337313
C122	C	-0.460469	-0.830722	-0.087313
C123	C	-0.210469	-0.580722	0.162687
C124	C	0.039531	-0.330722	0.412687
C125	C	-0.747225	-1.032100	-0.385887
C126	C	-0.497225	-0.782100	-0.135887
C127	C	-0.247225	-0.532100	0.114113
C128	C	0.002775	-0.282100	0.364113
C129	C	-0.710473	-0.986539	-0.431366
C130	C	-0.460473	-0.736539	-0.181366
C131	C	-0.210473	-0.486539	0.068634
C132	C	0.039527	-0.236539	0.318634
C133	C	-0.636969	-0.989601	-0.428266
C134	C	-0.386969	-0.739601	-0.178266
C135	C	-0.136969	-0.489601	0.071734
C136	C	0.113031	-0.239601	0.321734
C137	C	-0.967059	-1.017896	-0.400204
C138	C	-0.717059	-0.767896	-0.150204
C139	C	-0.467059	-0.517896	0.099796
C140	C	-0.217059	-0.267896	0.349796
C141	C	-1.040568	-1.014836	-0.403299
C142	C	-0.790568	-0.764836	-0.153299
C143	C	-0.540568	-0.514836	0.096701
C144	C	-0.290568	-0.264836	0.346701
C145	C	-1.040559	-1.109020	-0.309247
C146	C	-0.790559	-0.859020	-0.059247
C147	C	-0.540559	-0.609020	0.190753
C148	C	-0.290559	-0.359020	0.440753
C149	C	-0.967054	-1.112075	-0.306148
C150	C	-0.717054	-0.862075	-0.056148
C151	C	-0.467054	-0.612075	0.193852
C152	C	-0.217054	-0.362075	0.443852
C153	C	-0.930308	-1.066516	-0.351630
C154	C	-0.680308	-0.816516	-0.101630
C155	C	-0.430308	-0.566516	0.148370
C156	C	-0.180308	-0.316516	0.398370
N157	N	-0.822359	-1.028972	-0.389058
N158	N	-0.572359	-0.778972	-0.139058
N159	N	-0.322359	-0.528972	0.110942
N160	N	-0.072359	-0.278972	0.360942
N161	N	-0.855175	-1.069649	-0.348461
N162	N	-0.605175	-0.819649	-0.098461
N163	N	-0.355175	-0.569649	0.151539
N164	N	-0.105175	-0.319649	0.401539
C165	C	-0.155545	-1.057063	-0.361088
C166	C	0.094455	-0.807063	-0.111088
C167	C	0.344455	-0.557063	0.138912
C168	C	0.594455	-0.307063	0.388912
C169	C	-0.077315	-1.060395	-0.357825
C170	C	0.172685	-0.810395	-0.107825
C171	C	0.422685	-0.560395	0.142175
C172	C	0.672685	-0.310395	0.392175
C173	C	-0.339074	-1.049292	-0.560697
C174	C	-0.089074	-0.799292	-0.310697
C175	C	0.160926	-0.549292	-0.060697
C176	C	0.410926	-0.299292	0.189303
C177	C	-0.339054	-1.049312	-0.642495
C178	C	-0.089054	-0.799312	-0.392495
C179	C	0.160946	-0.549312	-0.142495
C180	C	0.410946	-0.299312	0.107505
C181	C	-0.339144	-0.241197	-0.368758
C182	C	-0.089144	0.008803	-0.118758
C183	C	0.160856	0.258803	0.131242
C184	C	0.410856	0.508803	0.381242
C185	C	-0.339138	-0.322996	-0.368764
C186	C	-0.089138	-0.072996	-0.118764
C187	C	0.160862	0.177004	0.131236
C188	C	0.410862	0.427004	0.381236
C189	C	-0.294003	-1.098316	-0.828813
C190	C	-0.044003	-0.848316	-0.578813
C191	C	0.205997	-0.598316	-0.328813
C192	C	0.455997	-0.348316	-0.078813
C193	C	-0.293982	-1.098326	-0.905671
C194	C	-0.043982	-0.848326	-0.655671
C195	C	0.206018	-0.598326	-0.405671
C196	C	0.456018	-0.348326	-0.155671
C197	C	-0.383996	-1.000363	-0.909409
C198	C	-0.133996	-0.750363	-0.659409
C199	C	0.116004	-0.500363	-0.409409
C200	C	0.366004	-0.250363	-0.159409
C201	C	-0.384012	-1.000351	-0.832552
C202	C	-0.134012	-0.750351	-0.582552
C203	C	0.115988	-0.500351	-0.332552
C204	C	0.365988	-0.250351	-0.082552
C205	C	-0.339017	-1.049331	-0.792257
C206	C	-0.089017	-0.799331	-0.542257
C207	C	0.160983	-0.549331	-0.292257
C208	C	0.410983	-0.299331	-0.042257
C209	C	-0.338980	-1.049354	-0.945971
C210	C	-0.088980	-0.799354	-0.695971
C211	C	0.161020	-0.549354	-0.445971
C212	C	0.411020	-0.299354	-0.195971
C213	C	-0.338958	-1.049364	-1.029304
C214	C	-0.088958	-0.799364	-0.779304
C215	C	0.161042	-0.549364	-0.529304
C216	C	0.411042	-0.299364	-0.279304
C217	C	-0.339037	-1.049321	-0.708918
C218	C	-0.089037	-0.799321	-0.458918
C219	C	0.160963	-0.549321	-0.208918
C220	C	0.410963	-0.299321	0.041082
C221	C	-0.339120	-1.049243	-0.177539
C222	C	-0.089120	-0.799243	0.072461
C223	C	0.160880	-0.549243	0.322461
C224	C	0.410880	-0.299243	0.572461
C225	C	-0.338943	-1.049373	-0.095733
C226	C	-0.088943	-0.799373	0.154267
C227	C	0.161057	-0.549373	0.404267
C228	C	0.411057	-0.299373	0.654267
H229	H	-0.257357	-0.622776	-0.280077
H230	H	-0.007357	-0.372776	-0.030077
H231	H	0.242643	-0.122776	0.219923
H232	H	0.492643	0.127224	0.469923
H233	H	-0.740405	-0.946953	-0.470919
H234	H	-0.490405	-0.696953	-0.220919
H235	H	-0.240405	-0.446953	0.029081
H236	H	0.009595	-0.196953	0.279081
H237	H	-0.257326	-1.138213	-0.935432
H238	H	-0.007326	-0.888213	-0.685432
H239	H	0.242674	-0.638213	-0.435432
H240	H	0.492674	-0.388213	-0.185432
H241	H	-0.937128	-1.151666	-0.266595
H242	H	-0.687128	-0.901666	-0.016595
H243	H	-0.437128	-0.651666	0.233405
H244	H	-0.187128	-0.401666	0.483405
Br245	Br	-0.232905	-0.463495	-0.253537
Br246	Br	0.017095	-0.213495	-0.003537
Br247	Br	0.267095	0.036505	0.246463
Br248	Br	0.517095	0.286505	0.496463
Br249	Br	-1.090432	-1.170850	-0.247529
Br250	Br	-0.840432	-0.920850	0.002471
Br251	Br	-0.590432	-0.670850	0.252471
Br252	Br	-0.340432	-0.420850	0.502471
Br253	Br	-0.445061	-0.933895	-0.964101
Br254	Br	-0.195061	-0.683895	-0.714101
Br255	Br	0.054939	-0.433895	-0.464101
Br256	Br	0.304939	-0.183895	-0.214101
Br257	Br	-0.760338	-1.142560	-0.275600
Br258	Br	-0.510338	-0.892560	-0.025600
Br259	Br	-0.260338	-0.642560	0.224400
Br260	Br	-0.010338	-0.392560	0.474400
H261	H	-0.420668	-0.960456	-0.802787
H262	H	-0.170668	-0.710456	-0.552787
H263	H	0.079332	-0.460456	-0.302787
H264	H	0.329332	-0.210456	-0.052787
Br265	Br	-0.587087	-1.149763	-0.268278
Br266	Br	-0.337087	-0.899763	-0.018278
Br267	Br	-0.087087	-0.649763	0.231722
Br268	Br	0.162913	-0.399763	0.481722
H269	H	-1.070493	-0.975251	-0.442866
H270	H	-0.820493	-0.725251	-0.192866
H271	H	-0.570493	-0.475251	0.057134
H272	H	-0.320493	-0.225251	0.307134
H273	H	-0.420878	-0.615894	-0.457423
H274	H	-0.170878	-0.365894	-0.207423
H275	H	0.079122	-0.115894	0.042577
H276	H	0.329122	0.134106	0.292577
Br277	Br	-0.445352	-0.454574	-0.483969
Br278	Br	-0.195352	-0.204574	-0.233969
Br279	Br	0.054648	0.045426	0.016031
Br280	Br	0.304648	0.295426	0.266031
H281	H	-0.937146	-0.980799	-0.437235
H282	H	-0.687146	-0.730799	-0.187235
H283	H	-0.437146	-0.480799	0.062765
H284	H	-0.187146	-0.230799	0.312765
Br285	Br	-0.232936	-1.164788	-0.774128
Br286	Br	0.017064	-0.914788	-0.524128
Br287	Br	0.267064	-0.664788	-0.274128
Br288	Br	0.517064	-0.414788	-0.024128
Br289	Br	-0.587096	-0.927773	-0.489988
Br290	Br	-0.337096	-0.677773	-0.239988
Br291	Br	-0.087096	-0.427773	0.010012
Br292	Br	0.162904	-0.177773	0.260012
