data_functionalizedCrystal
_audit_creation_method	'MofGen! by Chris Wilmer'
_symmetry_space_group_name_H-M	'P1'
_symmetry_Int_Tables_number	1
_symmetry_cell_setting	triclinic
loop_
_symmetry_equiv_pos_as_xyz
  x,y,z
_cell_length_a	10.654550
_cell_length_b	14.971494
_cell_length_c	9.130313
_cell_angle_alpha	89.997198
_cell_angle_beta	89.999724
_cell_angle_gamma	84.051244
loop_
_atom_site_label
_atom_site_type_symbol
_atom_site_fract_x
_atom_site_fract_y
_atom_site_fract_z
O1	O	1.666497	0.125631	-0.121684
O2	O	1.300891	0.137600	-0.121710
O3	O	1.493488	0.001469	-0.121693
O4	O	1.473900	0.261762	-0.121701
O5	O	1.493474	0.001465	0.121906
O6	O	1.300877	0.137596	0.121889
O7	O	1.666484	0.125627	0.121915
Cu8	Cu	1.483679	0.131611	0.144144
Cu9	Cu	1.483695	0.131616	-0.143940
O10	O	1.473887	0.261758	0.121898
C11	C	1.254095	0.136719	0.000086
C12	C	1.114680	0.134090	0.000076
C13	C	1.034338	0.214241	0.000077
C14	C	0.903344	0.211765	0.000103
C15	C	0.933047	0.048979	0.000119
C16	C	1.064038	0.051456	0.000104
C17	C	1.492603	-0.031862	0.000104
C18	C	1.489972	-0.131173	0.000097
C19	C	1.488747	-0.177823	-0.132691
C20	C	1.486267	-0.271135	-0.132693
C21	C	1.485022	-0.317798	0.000095
C22	C	1.486244	-0.271141	0.132892
C23	C	1.488715	-0.177830	0.132893
C24	C	1.481097	-0.465633	0.132882
C25	C	1.478628	-0.558951	0.132882
C26	C	1.478649	-0.558938	-0.132703
C27	C	1.481120	-0.465626	-0.132703
C28	C	1.482344	-0.418977	0.000096
C29	C	1.713279	0.126507	0.000116
C30	C	1.852694	0.129137	0.000116
C31	C	1.474771	0.295089	0.000097
C32	C	1.477402	0.394400	0.000095
N33	N	1.483678	0.131607	0.346767
N34	N	1.483707	0.131612	-0.346562
C35	C	1.568988	0.071354	0.423426
C36	C	1.569000	0.071354	0.576763
C37	C	1.398387	0.191868	0.576768
C38	C	1.398370	0.191863	0.423434
H39	H	1.489767	-0.139837	-0.240821
O40	O	1.150703	-0.034999	0.000115
H41	H	1.211099	-0.037765	-0.099167
H42	H	1.485274	-0.309113	-0.240821
O43	O	1.490051	-0.127509	0.276112
H44	H	1.488785	-0.175632	0.368448
H45	H	1.638449	0.022288	0.361008
O46	O	0.816689	0.298216	0.000114
H47	H	0.756276	0.300980	-0.099155
H48	H	1.482066	-0.427651	0.241021
H49	H	1.328933	0.240929	0.639205
H50	H	1.328894	0.240929	0.361013
H51	H	1.075566	0.281527	0.000065
H52	H	1.482143	-0.427637	-0.240830
H53	H	1.477649	-0.596924	-0.240832
O54	O	1.484908	-0.321477	0.276107
H55	H	1.399845	-0.296142	0.339777
O56	O	0.878428	-0.040146	0.000139
H57	H	0.773843	-0.028404	0.000136
O58	O	1.477265	-0.609284	0.276097
H59	H	1.478509	-0.561169	0.368441
O60	O	1.661028	0.006379	0.659452
H61	H	1.720351	-0.035512	0.580375
