data_functionalizedCrystal
_audit_creation_method	'MofGen! by Chris Wilmer'
_symmetry_space_group_name_H-M	'P1'
_symmetry_Int_Tables_number	1
_symmetry_cell_setting	triclinic
loop_
_symmetry_equiv_pos_as_xyz
  x,y,z
_cell_length_a	10.654556
_cell_length_b	10.489716
_cell_length_c	9.730223
_cell_angle_alpha	89.999635
_cell_angle_beta	89.998368
_cell_angle_gamma	84.508336
loop_
_atom_site_label
_atom_site_type_symbol
_atom_site_fract_x
_atom_site_fract_y
_atom_site_fract_z
O1	O	1.667903	0.179203	-0.114224
O2	O	1.302432	0.196264	-0.114237
O3	O	1.493499	0.002129	-0.114236
O4	O	1.476835	0.373337	-0.114226
O5	O	1.493487	0.002124	0.114344
O6	O	1.302419	0.196258	0.114343
O7	O	1.667890	0.179197	0.114355
Zn8	Zn	1.485153	0.187727	0.150641
Zn9	Zn	1.485169	0.187734	-0.150523
O10	O	1.476823	0.373331	0.114354
C11	C	1.255627	0.195007	0.000051
C12	C	1.116183	0.191253	0.000045
C13	C	0.919642	0.185972	-0.124543
C14	C	1.050666	0.189491	-0.124552
C15	C	1.050671	0.189485	0.124659
C16	C	0.919651	0.185957	0.124666
C17	C	1.492241	-0.045405	0.000050
C18	C	1.488495	-0.187034	0.000038
C19	C	1.605664	-0.284762	0.000054
C20	C	1.543755	-0.362091	-0.112646
C21	C	1.543716	-0.362061	0.112716
C22	C	1.426636	-0.262498	-0.112756
C23	C	1.426614	-0.262462	0.112707
C24	C	1.364619	-0.339743	-0.000021
C25	C	1.714695	0.180454	0.000064
C26	C	1.854139	0.184207	0.000061
C27	C	1.478081	0.420866	0.000065
C28	C	1.481827	0.562495	0.000068
N29	N	1.485151	0.187721	0.356177
N30	N	1.485181	0.187729	-0.356059
C31	C	1.569785	0.101795	0.428104
C32	C	1.569797	0.101796	0.571987
C33	C	1.400538	0.273660	0.572004
C34	C	1.400521	0.273652	0.428124
H35	H	1.103993	0.190926	-0.226017
H36	H	1.707580	-0.260132	-0.000057
H37	H	0.866317	0.184519	0.226139
H38	H	1.638712	0.031826	0.630546
H39	H	1.104027	0.190912	0.226108
O40	O	1.367658	-0.210725	0.226478
C41	C	1.323662	-0.309004	0.306940
H42	H	1.380855	-0.403709	0.282358
H43	H	1.334583	-0.285684	0.420492
H44	H	1.219975	-0.317089	0.283036
H45	H	1.262625	-0.364126	-0.000085
O46	O	1.602967	-0.413982	-0.226209
C47	C	1.729930	-0.386468	-0.225828
H48	H	1.760082	-0.366347	-0.116155
H49	H	1.791968	-0.471984	-0.268392
H50	H	1.740406	-0.298829	-0.292629
O51	O	1.367586	-0.211024	-0.226604
C52	C	1.322724	-0.309391	-0.306233
H53	H	1.310605	-0.395703	-0.238000
H54	H	1.228029	-0.273645	-0.353715
H55	H	1.393259	-0.338365	-0.391372
O56	O	1.318461	0.357089	0.642108
C57	C	1.336604	0.338655	0.784525
H58	H	1.436029	0.291925	0.804161
H59	H	1.323500	0.435130	0.839199
H60	H	1.264958	0.274005	0.825378
O61	O	1.602912	-0.413817	0.226348
C62	C	1.729888	-0.386347	0.225897
H63	H	1.739827	-0.298073	0.159916
H64	H	1.760959	-0.367291	0.335501
H65	H	1.791552	-0.471461	0.181910
O66	O	1.318354	0.357009	0.358032
C67	C	1.336509	0.338593	0.215613
H68	H	1.382540	0.237617	0.195967
H69	H	1.241525	0.351883	0.160941
H70	H	1.400139	0.411387	0.174767
O71	O	0.856205	0.184214	-0.245702
C72	C	0.942119	0.186559	-0.355681
H73	H	1.040352	0.148757	-0.319155
H74	H	0.911680	0.123723	-0.442828
H75	H	0.943796	0.289090	-0.393991
O76	O	1.652029	0.018195	0.358427
C77	C	1.726751	-0.057624	0.452773
H78	H	1.675259	-0.059545	0.555345
H79	H	1.744998	-0.159318	0.411208
H80	H	1.820415	-0.015321	0.468056
