data_functionalizedCrystal
_audit_creation_method	'MofGen! by Chris Wilmer'
_symmetry_space_group_name_H-M	'P1'
_symmetry_Int_Tables_number	1
_symmetry_cell_setting	triclinic
loop_
_symmetry_equiv_pos_as_xyz
  x,y,z
_cell_length_a	13.339070
_cell_length_b	10.540539
_cell_length_c	11.804365
_cell_angle_alpha	101.953828
_cell_angle_beta	74.875130
_cell_angle_gamma	100.077393
loop_
_atom_site_label
_atom_site_type_symbol
_atom_site_fract_x
_atom_site_fract_y
_atom_site_fract_z
O1	O	1.367200	0.619505	-0.099049
O2	O	1.072067	0.535766	-0.099045
O3	O	1.226367	0.395225	-0.099046
O4	O	1.212901	0.760047	-0.099049
O5	O	1.185745	0.432172	0.099010
O6	O	1.031446	0.572714	0.099011
O7	O	1.326579	0.656453	0.099007
Cu8	Cu	1.175303	0.617957	0.117093
Cu9	Cu	1.223343	0.574262	-0.117131
O10	O	1.172279	0.796994	0.099007
C11	C	1.013965	0.540095	-0.000017
C12	C	0.901358	0.497931	-0.000015
C13	C	1.205047	0.366051	-0.000020
C14	C	1.202026	0.224072	-0.000026
C15	C	0.538938	0.825770	-0.000037
C16	C	0.644738	0.865388	-0.000042
C17	C	0.708898	0.773527	-0.000035
C18	C	0.667248	0.642042	-0.000023
C19	C	0.561440	0.602418	-0.000028
C20	C	0.731400	0.550175	-0.000026
C21	C	0.689750	0.418690	-0.000014
C22	C	0.583951	0.379073	-0.000018
C23	C	0.519791	0.470934	-0.000025
C24	C	0.837208	0.589799	-0.000021
C25	C	0.859710	0.366447	-0.000012
C26	C	0.753910	0.326829	-0.000007
C27	C	1.086340	0.001099	-0.000469
C28	C	1.089311	0.148845	-0.000023
C29	C	1.233073	0.202001	0.113073
C30	C	1.229207	0.054163	0.113168
C31	C	1.277693	0.012410	-0.112059
C32	C	1.279038	0.159467	-0.113554
C33	C	1.384682	0.652124	-0.000024
C34	C	1.497290	0.694286	-0.000034
C35	C	1.193600	0.826168	-0.000021
C36	C	1.196622	0.968145	-0.000023
N37	N	1.141522	0.648691	0.281834
N38	N	1.257132	0.543521	-0.281872
C39	C	1.338253	0.469692	0.655781
C40	C	1.363807	0.446436	0.531120
C41	C	1.308237	0.496997	0.468792
C42	C	1.227110	0.570820	0.531138
C43	C	1.201559	0.594087	0.655812
C44	C	1.171544	0.621392	0.468823
C45	C	1.090417	0.695214	0.531169
C46	C	1.064869	0.718477	0.655831
C47	C	1.120438	0.667916	0.718159
C48	C	1.197095	0.598125	0.344149
C49	C	1.060402	0.722520	0.344180
C50	C	1.034847	0.745776	0.468842
H51	H	0.871108	0.696856	-0.000026
C52	C	1.399370	0.414079	0.724336
H53	H	1.451347	0.366783	0.669354
H54	H	1.352538	0.357310	0.772982
H55	H	1.431953	0.483843	0.772954
H56	H	1.063258	0.161776	-0.081097
C57	C	0.999268	0.778144	0.275638
H58	H	0.947304	0.825458	0.330623
H59	H	0.966689	0.708393	0.227016
H60	H	1.046107	0.834923	0.226998
H61	H	1.058450	-0.057807	-0.081574
H62	H	1.025454	-0.029177	0.080183
H63	H	0.486693	0.900547	-0.000052
C64	C	1.391955	0.228268	-0.122773
H65	H	1.436730	0.187224	-0.192120
H66	H	1.414664	0.222401	-0.054374
H67	H	1.394136	0.317623	-0.127523
C68	C	1.008762	0.205943	0.109692
H69	H	0.974100	0.138830	0.154170
H70	H	0.958858	0.240923	0.084479
H71	H	1.043642	0.273292	0.158134
H72	H	1.256509	0.171189	-0.197222
H73	H	1.329047	0.478058	0.367287
H74	H	0.795045	0.805792	-0.000042
C75	C	0.708094	0.182200	-0.000004
H76	H	0.761450	0.133160	0.000008
H77	H	0.681453	0.149218	-0.069070
H78	H	0.653120	0.174995	0.069071
C79	C	0.403412	0.427349	-0.000025
H80	H	0.387793	0.335886	-0.000016
H81	H	0.389486	0.446749	-0.069090
H82	H	0.361155	0.472514	0.069052
H83	H	1.099630	0.686846	0.819669
C84	C	1.252171	-0.068606	-0.227866
H85	H	1.302017	-0.040339	-0.294385
H86	H	1.184062	-0.057014	-0.231341
H87	H	1.254699	-0.158455	-0.229319
C88	C	1.151617	0.018904	0.227369
H89	H	1.122748	0.094887	0.273264
H90	H	1.187233	-0.014413	0.272589
H91	H	1.096983	-0.045500	0.206701
H92	H	1.359263	-0.007208	-0.112821
H93	H	1.263149	0.538019	0.293398
H94	H	1.309217	0.034782	0.118298
C95	C	0.690544	1.010011	-0.000040
H96	H	0.637180	1.059048	-0.000031
H97	H	0.745520	1.017232	-0.069103
H98	H	0.717177	1.042990	0.069039
H99	H	1.178130	0.247459	0.197238
C100	C	0.538139	0.234443	-0.000010
H101	H	0.591498	0.185409	0.000005
H102	H	0.511499	0.201454	-0.069076
H103	H	0.483165	0.227239	0.069066
C104	C	1.343728	0.271363	0.118763
H105	H	1.360921	0.256739	0.187807
H106	H	1.345626	0.362560	0.122151
H107	H	1.392911	0.237555	0.049840
C108	C	1.453032	0.365229	0.462547
H109	H	1.482461	0.338437	0.517519
H110	H	1.505546	0.416828	0.413901
H111	H	1.426127	0.290298	0.413928
C112	C	0.975640	0.799689	0.724415
H113	H	0.968388	0.806313	0.807588
H114	H	0.912040	0.758171	0.704003
H115	H	0.991457	0.884701	0.703978
C116	C	0.945619	0.826987	0.537431
H117	H	0.938370	0.833606	0.620603
H118	H	0.882018	0.785473	0.517020
H119	H	0.961437	0.912002	0.516998
H120	H	0.911950	0.291645	-0.000012
