data_functionalizedCrystal
_audit_creation_method	'MofGen! by Chris Wilmer'
_symmetry_space_group_name_H-M	'P1'
_symmetry_Int_Tables_number	1
_symmetry_cell_setting	triclinic
loop_
_symmetry_equiv_pos_as_xyz
  x,y,z
_cell_length_a	12.759401
_cell_length_b	18.215405
_cell_length_c	12.759393
_cell_angle_alpha	90.037569
_cell_angle_beta	90.018496
_cell_angle_gamma	90.025046
loop_
_atom_site_label
_atom_site_type_symbol
_atom_site_fract_x
_atom_site_fract_y
_atom_site_fract_z
Zn1	Zn	1.606181	-0.292938	0.593937
Zn2	Zn	1.606044	-0.416024	0.418239
Zn3	Zn	1.430483	-0.292976	0.418277
Zn4	Zn	1.430440	-0.415967	0.593881
O5	O	1.518287	-0.354476	0.506084
O6	O	1.753184	-0.309273	0.570639
O7	O	1.582716	-0.399741	0.271223
O8	O	1.453865	-0.189987	0.441618
O9	O	1.753083	-0.399704	0.441554
O10	O	1.582949	-0.189959	0.570675
O11	O	1.453732	-0.309339	0.271251
O12	O	1.283456	-0.309284	0.441563
O13	O	1.453792	-0.399607	0.740909
O14	O	1.283425	-0.399645	0.570578
O15	O	1.582908	-0.309218	0.740951
O16	O	1.582675	-0.519001	0.441499
O17	O	1.453660	-0.518959	0.570542
C18	C	1.245320	-0.354463	0.506069
C19	C	1.128543	-0.354475	0.506088
C20	C	1.073692	-0.401601	0.573155
C21	C	0.963968	-0.401610	0.573167
C22	C	0.963956	-0.307365	0.439035
C23	C	1.073678	-0.307353	0.439029
C24	C	1.073699	-0.456015	0.650592
C25	C	0.963975	-0.456025	0.650604
C26	C	1.518176	-0.545683	0.506033
C27	C	1.518225	-0.627482	0.506047
C28	C	1.585561	-0.815673	0.438977
C29	C	1.585608	-0.892531	0.439003
C30	C	1.451148	-0.892528	0.573265
C31	C	1.451107	-0.815671	0.573244
C32	C	1.518312	-0.777245	0.506094
C33	C	1.518400	-0.930961	0.506141
C34	C	1.518450	-1.014295	0.506169
C35	C	1.518263	-0.693906	0.506067
C36	C	1.792320	-0.354491	0.506098
C37	C	1.909097	-0.354497	0.506105
C38	C	1.518361	-0.354402	0.780117
C39	C	1.518392	-0.354370	0.896894
C40	C	1.518427	-0.162523	0.506157
C41	C	1.518487	-0.080724	0.506189
C42	C	1.518274	-0.354497	0.233116
C43	C	1.518447	-0.354322	0.116340
C44	C	1.585632	-0.307300	0.951779
C45	C	1.585657	-0.307274	1.061503
C46	C	1.451199	-0.401394	1.061447
C47	C	1.451170	-0.401416	0.951725
C48	C	1.663263	-0.252963	0.951813
C49	C	1.663288	-0.252936	1.061537
H50	H	0.919271	-0.268999	0.384439
H51	H	1.640370	-0.923816	0.384351
H52	H	1.640285	-0.784388	0.384302
O53	O	1.385725	-0.778256	0.638299
C54	C	1.243790	-0.691582	0.652279
C55	C	1.317776	-0.733895	0.578488
H56	H	1.188820	-0.655717	0.603950
H57	H	1.291922	-0.655491	0.707229
H58	H	1.195807	-0.732260	0.700295
H59	H	1.365775	-0.693269	0.530404
H60	H	1.269584	-0.769997	0.523607
O61	O	1.385895	-0.929970	0.638385
C62	C	1.326404	-1.048371	0.697960
C63	C	1.400343	-1.006062	0.624143
H64	H	1.338075	-1.109899	0.686487
H65	H	1.241668	-1.033371	0.679425
H66	H	1.344782	-1.033156	0.782678
H67	H	1.382059	-1.021254	0.539400
H68	H	1.485056	-1.021065	0.642768
H69	H	1.396413	-0.439743	0.907041
O70	O	1.109098	-0.437837	0.747755
C71	C	1.063358	-0.404824	0.924833
C72	C	1.023127	-0.425385	0.814845
H73	H	0.993872	-0.394766	0.979112
H74	H	1.112974	-0.352885	0.919727
H75	H	1.113026	-0.451656	0.957106
H76	H	0.973417	-0.378601	0.782508
H77	H	0.973568	-0.477347	0.820017
O78	O	1.386008	-0.447072	1.114874
C79	C	1.326415	-0.488719	1.283882
C80	C	1.400314	-0.436961	1.223510
H81	H	1.337940	-0.480551	1.371724
H82	H	1.344817	-0.548082	1.262359
H83	H	1.241715	-0.475803	1.262244
H84	H	1.485039	-0.449810	1.245114
H85	H	1.381822	-0.377613	1.245037
H86	H	1.107699	-0.510128	0.621300
O87	O	1.637243	-0.184941	0.916491
C88	C	1.590000	-0.060953	0.962371
C89	C	1.619432	-0.137954	1.002515
H90	H	1.575612	-0.022938	1.031901
H91	H	1.515849	-0.064630	0.912768
H92	H	1.656830	-0.038273	0.912712
H93	H	1.552670	-0.160679	1.052217
H94	H	1.693614	-0.134230	1.052061
O95	O	1.628727	-0.188336	1.102306
C96	C	1.668984	-0.083586	1.210529
C97	C	1.708257	-0.156733	1.164442
H98	H	1.733272	-0.058007	1.260759
H99	H	1.596708	-0.094040	1.260872
H100	H	1.647913	-0.044533	1.144004
H101	H	1.729387	-0.195823	1.230900
H102	H	1.780496	-0.146224	1.114072
H103	H	1.740530	-0.273395	0.917774
H104	H	1.744655	-0.268201	1.091313
H105	H	0.929982	-0.435680	0.727959
O106	O	1.126798	-0.261543	0.373792
C107	C	1.115202	-0.168020	0.240819
C108	C	1.054913	-0.219878	0.314628
H109	H	1.057110	-0.134309	0.192982
H110	H	1.166512	-0.201711	0.185714
H111	H	1.166629	-0.129610	0.289182
H112	H	1.003429	-0.258298	0.266350
H113	H	1.003669	-0.186140	0.369736
H114	H	0.934165	-0.513008	0.628663
