data_functionalizedCrystal
_audit_creation_method	'MofGen! by Chris Wilmer'
_symmetry_space_group_name_H-M	'P1'
_symmetry_Int_Tables_number	1
_symmetry_cell_setting	triclinic
loop_
_symmetry_equiv_pos_as_xyz
  x,y,z
_cell_length_a	14.519709
_cell_length_b	15.072220
_cell_length_c	14.519731
_cell_angle_alpha	90.002099
_cell_angle_beta	83.684499
_cell_angle_gamma	90.006889
loop_
_atom_site_label
_atom_site_type_symbol
_atom_site_fract_x
_atom_site_fract_y
_atom_site_fract_z
O1	O	1.223888	0.073669	0.120884
O2	O	1.473888	0.323669	0.370884
O3	O	1.723888	0.573669	0.620884
O4	O	1.973888	0.823669	0.870884
O5	O	0.955412	0.073696	0.135120
O6	O	1.205412	0.323696	0.385120
O7	O	1.455412	0.573696	0.635120
O8	O	1.705412	0.823696	0.885120
O9	O	1.096758	0.073674	-0.006235
O10	O	1.346758	0.323674	0.243765
O11	O	1.596758	0.573674	0.493765
O12	O	1.846758	0.823674	0.743765
O13	O	1.082542	0.073691	0.262239
O14	O	1.332542	0.323691	0.512239
O15	O	1.582542	0.573691	0.762239
O16	O	1.832542	0.823691	1.012239
O17	O	1.096723	-0.073891	-0.006227
O18	O	1.346723	0.176109	0.243773
O19	O	1.596723	0.426109	0.493773
O20	O	1.846723	0.676109	0.743773
O21	O	0.955377	-0.073869	0.135128
O22	O	1.205377	0.176131	0.385128
O23	O	1.455377	0.426131	0.635128
O24	O	1.705377	0.676131	0.885128
O25	O	1.223853	-0.073896	0.120892
O26	O	1.473853	0.176104	0.370892
O27	O	1.723853	0.426104	0.620892
O28	O	1.973853	0.676104	0.870892
Zn29	Zn	1.089610	-0.097312	0.128011
Zn30	Zn	1.339610	0.152688	0.378011
Zn31	Zn	1.589610	0.402688	0.628011
Zn32	Zn	1.839610	0.652688	0.878011
Zn33	Zn	1.089656	0.097112	0.128001
Zn34	Zn	1.339656	0.347112	0.378001
Zn35	Zn	1.589656	0.597112	0.628001
Zn36	Zn	1.839656	0.847112	0.878001
O37	O	1.082507	-0.073874	0.262247
O38	O	1.332507	0.176126	0.512247
O39	O	1.582507	0.426126	0.762247
O40	O	1.832507	0.676126	1.012247
C41	C	0.921035	-0.000083	0.134461
C42	C	1.171035	0.249917	0.384461
C43	C	1.421035	0.499917	0.634461
C44	C	1.671035	0.749917	0.884461
C45	C	0.818654	-0.000073	0.132473
C46	C	1.068654	0.249927	0.382473
C47	C	1.318654	0.499927	0.632473
C48	C	1.568654	0.749927	0.882473
N49	N	1.089585	-0.230000	0.128018
N50	N	1.339585	0.020000	0.378018
N51	N	1.589585	0.270000	0.628018
N52	N	1.839585	0.520000	0.878018
C53	C	0.443757	-0.000113	0.125153
C54	C	0.693757	0.249887	0.375153
C55	C	0.943757	0.499887	0.625153
C56	C	1.193757	0.749887	0.875153
C57	C	0.548065	-0.000102	0.127186
C58	C	0.798065	0.249898	0.377186
C59	C	1.048065	0.499898	0.627186
C60	C	1.298065	0.749898	0.877186
C61	C	0.631202	-0.000092	0.128813
C62	C	0.881202	0.249908	0.378813
C63	C	1.131202	0.499908	0.628813
C64	C	1.381202	0.749908	0.878813
C65	C	0.735517	-0.000082	0.130846
C66	C	0.985517	0.249918	0.380846
C67	C	1.235517	0.499918	0.630846
C68	C	1.485517	0.749918	0.880846
C69	C	1.089654	-0.589202	0.127997
C70	C	1.339654	-0.339202	0.377997
C71	C	1.589654	-0.089202	0.627997
C72	C	1.839654	0.160798	0.877997
C73	C	1.013768	-0.551583	0.203379
C74	C	1.263768	-0.301583	0.453379
C75	C	1.513768	-0.051583	0.703379
C76	C	1.763768	0.198417	0.953379
C77	C	1.013942	-0.448757	0.203655
C78	C	1.263942	-0.198757	0.453655
C79	C	1.513942	0.051243	0.703655
C80	C	1.763942	0.301243	0.953655
C81	C	1.089619	-0.410998	0.128007
C82	C	1.339619	-0.160998	0.378007
C83	C	1.589619	0.089002	0.628007
C84	C	1.839619	0.339002	0.878007
C85	C	1.185881	-0.448297	0.149183
C86	C	1.435881	-0.198297	0.399183
C87	C	1.685881	0.051703	0.649183
C88	C	1.935881	0.301703	0.899183
C89	C	1.185456	-0.551155	0.149719
C90	C	1.435456	-0.301155	0.399719
C91	C	1.685456	-0.051155	0.649719
C92	C	1.935456	0.198845	0.899719
C93	C	1.070135	-0.551306	0.031217
C94	C	1.320135	-0.301306	0.281217
C95	C	1.570135	-0.051306	0.531217
C96	C	1.820135	0.198694	0.781217
C97	C	1.067929	-0.448442	0.031859
C98	C	1.317929	-0.198442	0.281859
C99	C	1.567929	0.051558	0.531859
C100	C	1.817929	0.301558	0.781859
C101	C	1.089605	-0.310284	0.128011
C102	C	1.339605	-0.060284	0.378011
C103	C	1.589605	0.189716	0.628011
C104	C	1.839605	0.439716	0.878011
C105	C	1.089674	-0.689915	0.127995
C106	C	1.339674	-0.439915	0.377995
C107	C	1.589674	-0.189915	0.627995
C108	C	1.839674	0.060085	0.877995
C109	C	1.258230	-0.000115	0.121551
C110	C	1.508230	0.249885	0.371551
C111	C	1.758230	0.499885	0.621551
C112	C	2.008230	0.749885	0.871551
C113	C	1.360612	-0.000119	0.123539
C114	C	1.610612	0.249881	0.373539
C115	C	1.860612	0.499881	0.623539
C116	C	2.110612	0.749881	0.873539
C117	C	1.096075	-0.000109	-0.040591
C118	C	1.346075	0.249891	0.209409
C119	C	1.596075	0.499891	0.459409
C120	C	1.846075	0.749891	0.709409
C121	C	1.094079	-0.000109	-0.142971
C122	C	1.344079	0.249891	0.107029
C123	C	1.594079	0.499891	0.357029
C124	C	1.844079	0.749891	0.607029
N125	N	1.089688	0.229801	0.127987
N126	N	1.339688	0.479801	0.377987
N127	N	1.589688	0.729801	0.627987
N128	N	1.839688	0.979801	0.877987
C129	C	1.092457	-0.000107	-0.226115
C130	C	1.342457	0.249893	0.023885
C131	C	1.592457	0.499893	0.273885
C132	C	1.842457	0.749893	0.523885
C133	C	1.090430	-0.000100	-0.330424
C134	C	1.340430	0.249900	-0.080424
C135	C	1.590430	0.499900	0.169576
C136	C	1.840430	0.749900	0.419576
C137	C	1.088822	-0.000094	-0.413563
C138	C	1.338822	0.249906	-0.163563
C139	C	1.588822	0.499906	0.086437
C140	C	1.838822	0.749906	0.336437
C141	C	1.086795	-0.000089	-0.517878
C142	C	1.336795	0.249911	-0.267878
C143	C	1.586795	0.499911	-0.017878
C144	C	1.836795	0.749911	0.232122
C145	C	1.083191	-0.000089	0.296603
C146	C	1.333191	0.249911	0.546603
C147	C	1.583191	0.499911	0.796603
C148	C	1.833191	0.749911	1.046603
C149	C	1.085187	-0.000083	0.398983
C150	C	1.335187	0.249917	0.648983
C151	C	1.585187	0.499917	0.898983
C152	C	1.835187	0.749917	1.148983
H153	H	0.942394	-0.423540	0.191015
H154	H	1.192394	-0.173540	0.441015
H155	H	1.442394	0.076460	0.691015
H156	H	1.692394	0.326460	0.941015
Br157	Br	1.162368	-0.591850	-0.062285
Br158	Br	1.412368	-0.341850	0.187715
Br159	Br	1.662368	-0.091850	0.437715
Br160	Br	1.912368	0.158150	0.687715
H161	H	1.001456	-0.577291	0.010895
H162	H	1.251456	-0.327291	0.260895
H163	H	1.501456	-0.077291	0.510895
H164	H	1.751456	0.172709	0.760895
H165	H	0.941988	-0.576338	0.190945
H166	H	1.191988	-0.326338	0.440945
H167	H	1.441988	-0.076338	0.690945
H168	H	1.691988	0.173662	0.940945
H169	H	0.997116	-0.424064	0.015793
H170	H	1.247116	-0.174064	0.265793
H171	H	1.497116	0.075936	0.515793
H172	H	1.747116	0.325936	0.765793
Br173	Br	1.154055	-0.405622	-0.066042
Br174	Br	1.404055	-0.155622	0.183958
Br175	Br	1.654055	0.094378	0.433958
Br176	Br	1.904055	0.344378	0.683958
H177	H	1.026423	-0.424140	0.275471
H178	H	1.276423	-0.174140	0.525471
H179	H	1.526423	0.075860	0.775471
H180	H	1.776423	0.325860	1.025471
Br181	Br	1.034293	-0.594622	0.322409
Br182	Br	1.284293	-0.344622	0.572409
Br183	Br	1.534293	-0.094622	0.822409
Br184	Br	1.784293	0.155378	1.072409
H185	H	1.202631	-0.575134	0.220305
H186	H	1.452631	-0.325134	0.470305
H187	H	1.702631	-0.075134	0.720305
H188	H	1.952631	0.174866	0.970305
Br189	Br	1.282265	-0.407538	0.060117
Br190	Br	1.532265	-0.157538	0.310117
Br191	Br	1.782265	0.092462	0.560117
Br192	Br	2.032265	0.342462	0.810117
H193	H	1.243698	-0.576039	0.096988
H194	H	1.493698	-0.326039	0.346988
H195	H	1.743698	-0.076039	0.596988
H196	H	1.993698	0.173961	0.846988
H197	H	1.203462	-0.422526	0.218965
H198	H	1.453462	-0.172526	0.468965
H199	H	1.703462	0.077474	0.718965
H200	H	1.953462	0.327474	0.968965
