data_functionalizedCrystal
_audit_creation_method	'MofGen! by Chris Wilmer'
_symmetry_space_group_name_H-M	'P1'
_symmetry_Int_Tables_number	1
_symmetry_cell_setting	triclinic
loop_
_symmetry_equiv_pos_as_xyz
  x,y,z
_cell_length_a	8.559649
_cell_length_b	9.482900
_cell_length_c	8.559649
_cell_angle_alpha	81.982926
_cell_angle_beta	69.778664
_cell_angle_gamma	97.965061
loop_
_atom_site_label
_atom_site_type_symbol
_atom_site_fract_x
_atom_site_fract_y
_atom_site_fract_z
O1	O	2.155278	0.120873	-0.083533
O2	O	1.679795	0.120878	0.000246
O3	O	1.959426	0.120874	-0.279385
O4	O	1.875646	0.120878	0.196098
O5	O	1.902602	-0.120918	-0.222383
O6	O	1.622970	-0.120913	0.057249
O7	O	2.098454	-0.120919	-0.026531
Cu8	Cu	1.855523	-0.142993	0.020564
Cu9	Cu	1.922725	0.142953	-0.046848
O10	O	1.818822	-0.120914	0.253101
C11	C	1.591073	-0.000017	0.035097
C12	C	1.411375	-0.000014	0.053995
N13	N	1.808269	-0.344113	0.067975
C14	C	1.908777	-0.416314	-0.032871
C15	C	1.869471	-0.583730	0.006587
C16	C	2.187175	-0.000020	-0.061382
C17	C	2.366876	-0.000013	-0.080283
C18	C	1.937364	-0.000019	-0.311194
C19	C	1.956265	-0.000012	-0.490895
N20	N	1.969993	0.344073	-0.094274
C21	C	1.840885	-0.000018	0.284909
C22	C	1.821986	-0.000016	0.464607
H23	H	1.311989	-0.000005	0.183421
H24	H	2.023920	-0.354187	-0.148428
C25	C	1.713901	-0.667642	0.162702
C26	C	1.737997	-0.772308	0.303312
C27	C	1.582431	-0.856221	0.459423
C28	C	1.402769	-0.835467	0.474923
C29	C	1.378667	-0.730795	0.334308
C30	C	1.534233	-0.646883	0.178198
H31	H	1.870999	-0.787676	0.291842
H32	H	1.600274	-0.933705	0.563515
H33	H	1.287610	-0.897584	0.590486
H34	H	1.245664	-0.715428	0.345779
H35	H	1.516389	-0.569398	0.074105
C36	C	1.652707	-0.428029	0.224083
C37	C	1.676802	-0.532696	0.364693
C38	C	1.521236	-0.616609	0.520804
C39	C	1.341575	-0.595854	0.536304
C40	C	1.317472	-0.491183	0.395689
C41	C	1.473038	-0.407271	0.239578
H42	H	1.809805	-0.548064	0.353223
H43	H	1.539080	-0.694093	0.624896
H44	H	1.226416	-0.657971	0.651867
H45	H	1.184470	-0.475815	0.407159
H46	H	1.455195	-0.329786	0.135486
H47	H	1.466256	-0.000007	-0.209704
H48	H	2.085143	-0.593805	-0.209838
H49	H	1.692566	-0.000019	-0.436014
H50	H	2.085690	-0.000025	-0.590280
