data_functionalizedCrystal
_audit_creation_method	'MofGen! by Chris Wilmer'
_symmetry_space_group_name_H-M	'P1'
_symmetry_Int_Tables_number	1
_symmetry_cell_setting	triclinic
loop_
_symmetry_equiv_pos_as_xyz
  x,y,z
_cell_length_a	12.645330
_cell_length_b	12.759401
_cell_length_c	12.759386
_cell_angle_alpha	90.042716
_cell_angle_beta	89.939121
_cell_angle_gamma	89.986338
loop_
_atom_site_label
_atom_site_type_symbol
_atom_site_fract_x
_atom_site_fract_y
_atom_site_fract_z
Zn1	Zn	-0.421768	-1.606468	-0.594039
Zn2	Zn	-0.599168	-1.606284	-0.418363
Zn3	Zn	-0.421906	-1.430701	-0.418373
Zn4	Zn	-0.598978	-1.430749	-0.594000
O5	O	-0.510455	-1.518550	-0.506194
O6	O	-0.445322	-1.753464	-0.570747
O7	O	-0.575791	-1.582895	-0.271343
O8	O	-0.273541	-1.454073	-0.441695
O9	O	-0.575657	-1.753329	-0.441679
O10	O	-0.273439	-1.583209	-0.570756
O11	O	-0.445557	-1.453895	-0.271350
O12	O	-0.445373	-1.283686	-0.441658
O13	O	-0.575333	-1.454156	-0.741026
O14	O	-0.575467	-1.283722	-0.570690
O15	O	-0.445138	-1.583256	-0.741055
O16	O	-0.747490	-1.582942	-0.441641
O17	O	-0.747350	-1.453978	-0.570681
C18	C	-0.510415	-1.245583	-0.506172
C19	C	-0.510424	-1.128806	-0.506187
C20	C	-0.442684	-1.074008	-0.573495
C21	C	-0.442698	-0.964284	-0.573499
C22	C	-0.578202	-0.964166	-0.438883
C23	C	-0.578181	-1.073888	-0.438875
C24	C	-0.364455	-1.074075	-0.651218
C25	C	-0.364469	-0.964351	-0.651222
C26	C	-0.785885	-1.518474	-0.506179
C27	C	-0.903715	-1.518537	-0.506208
C28	C	-1.071235	-1.437740	-0.587637
C29	C	-0.948676	-1.437327	-0.587375
C30	C	-0.948377	-1.488520	-0.395485
C31	C	-1.070975	-1.488027	-0.395980
C32	C	-1.070794	-1.629845	-0.534603
C33	C	-0.948185	-1.629164	-0.537024
C34	C	-0.233950	-1.518656	-0.506231
C35	C	-0.116120	-1.518701	-0.506247
C36	C	-0.510199	-1.518732	-0.780227
C37	C	-0.510090	-1.518809	-0.897004
C38	C	-0.510482	-0.792584	-0.506209
C39	C	-0.510459	-0.909360	-0.506199
C40	C	-0.510633	-1.518430	-0.233226
C41	C	-0.510444	-1.518556	-0.116450
C42	C	-0.443048	-1.450967	-0.061641
C43	C	-0.442868	-1.451096	0.048083
C44	C	-0.577489	-1.586406	0.048179
C45	C	-0.577662	-1.586281	-0.061542
C46	C	-0.365329	-1.372844	-0.061696
C47	C	-0.365149	-1.372973	0.048028
H48	H	-0.918471	-1.456112	-0.669475
Cl49	Cl	-0.409933	-1.126723	-0.770467
H50	H	-1.101589	-1.657218	-0.613969
H51	H	-1.100596	-1.456354	-0.670006
Cl52	Cl	-0.901140	-1.364383	-0.357726
Cl53	Cl	-0.903541	-1.310112	-0.558376
Cl54	Cl	-0.244032	-0.911772	-0.606441
H55	H	-1.102142	-1.355859	-0.569091
H56	H	-1.099676	-1.406778	-0.371958
Cl57	Cl	-0.398510	-0.918466	-0.776792
Cl58	Cl	-0.399934	-1.247637	0.094340
Cl59	Cl	-0.903103	-1.664117	-0.662832
Cl60	Cl	-0.237665	-1.120034	-0.617788
Cl61	Cl	-0.663313	-1.142775	-0.354224
H62	H	-0.633368	-0.919439	-0.384080
H63	H	-1.100676	-1.544434	-0.333270
Cl64	Cl	-0.662382	-1.671263	-0.130442
Cl65	Cl	-0.661986	-1.671543	0.117213
H66	H	-0.919262	-1.545616	-0.333187
Cl67	Cl	-0.900918	-1.727209	-0.452172
H68	H	-1.099824	-1.690163	-0.475324
H69	H	-0.283115	-1.394033	-0.091726
H70	H	-0.395350	-1.295716	-0.095505
H71	H	-0.286892	-1.401622	0.081800
