data_functionalizedCrystal
_audit_creation_method	'MofGen! by Chris Wilmer'
_symmetry_space_group_name_H-M	'P1'
_symmetry_Int_Tables_number	1
_symmetry_cell_setting	triclinic
loop_
_symmetry_equiv_pos_as_xyz
  x,y,z
_cell_length_a	14.044209
_cell_length_b	12.503572
_cell_length_c	14.044209
_cell_angle_alpha	86.158573
_cell_angle_beta	93.187953
_cell_angle_gamma	93.834595
loop_
_atom_site_label
_atom_site_type_symbol
_atom_site_fract_x
_atom_site_fract_y
_atom_site_fract_z
O1	O	-1.282198	-0.089202	-0.225106
O2	O	-0.948865	0.244132	0.108227
O3	O	-0.615532	0.577465	0.441560
O4	O	-1.005528	-0.089232	-0.216801
O5	O	-0.672195	0.244101	0.116532
O6	O	-0.338862	0.577435	0.449865
O7	O	-1.139711	-0.089202	-0.082619
O8	O	-0.806378	0.244131	0.250714
O9	O	-0.473044	0.577465	0.584048
O10	O	-1.148016	-0.089232	-0.359289
O11	O	-0.814683	0.244102	-0.025955
O12	O	-0.481349	0.577435	0.307378
O13	O	-1.129621	0.089438	-0.092728
O14	O	-0.796288	0.422771	0.240605
O15	O	-0.462954	0.756104	0.573938
O16	O	-0.995439	0.089408	-0.226911
O17	O	-0.662105	0.422741	0.106423
O18	O	-0.328772	0.756074	0.439756
O19	O	-1.272109	0.089438	-0.235216
O20	O	-0.938775	0.422771	0.098117
O21	O	-0.605442	0.756105	0.431451
Cu22	Cu	-1.132852	0.105734	-0.231986
Cu23	Cu	-0.799519	0.439067	0.101347
Cu24	Cu	-0.466186	0.772401	0.434680
Cu25	Cu	-1.144785	-0.105528	-0.220031
Cu26	Cu	-0.811451	0.227805	0.113303
Cu27	Cu	-0.478118	0.561139	0.446636
O28	O	-1.137926	0.089408	-0.369398
O29	O	-0.804593	0.422741	-0.036065
O30	O	-0.471259	0.756075	0.297268
C31	C	-0.964862	0.000084	-0.218220
C32	C	-0.631529	0.333418	0.115113
C33	C	-0.298195	0.666751	0.448446
C34	C	-0.858720	0.000073	-0.207376
C35	C	-0.525387	0.333407	0.125957
C36	C	-0.192053	0.666740	0.459291
N37	N	-1.124467	0.254324	-0.240395
N38	N	-0.791133	0.587658	0.092938
N39	N	-0.457800	0.920991	0.426271
C40	C	-0.664381	0.000094	-0.187553
C41	C	-0.331048	0.333428	0.145781
C42	C	0.002286	0.666761	0.479114
C43	C	-0.613251	0.000090	-0.264467
C44	C	-0.279917	0.333423	0.068866
C45	C	0.053416	0.666757	0.402200
C46	C	-0.505114	0.000102	-0.253437
C47	C	-0.171781	0.333435	0.079896
C48	C	0.161553	0.666768	0.413230
C49	C	-0.772528	0.000083	-0.198581
C50	C	-0.439194	0.333416	0.134752
C51	C	-0.105861	0.666749	0.468085
C52	C	-1.131031	0.000119	-0.052052
C53	C	-0.797697	0.333452	0.281281
C54	C	-0.464364	0.666786	0.614615
C55	C	-1.120187	0.000123	0.054091
C56	C	-0.786853	0.333456	0.387424
C57	C	-0.453520	0.666789	0.720757
C58	C	-0.312775	0.000116	-0.233798
C59	C	0.020558	0.333450	0.099535
C60	C	0.353891	0.666783	0.432868
C61	C	-0.418918	0.000111	-0.244648
C62	C	-0.085585	0.333444	0.088685
C63	C	0.247749	0.666778	0.422019
N64	N	-1.153177	-0.254119	-0.211615
N65	N	-0.819844	0.079215	0.121719
N66	N	-0.486511	0.412548	0.455052
C67	C	-1.112132	0.473437	-0.252774
C68	C	-0.778798	0.806770	0.080560
C69	C	-0.445465	1.140104	0.413893
C70	C	-1.165509	0.526776	-0.199240
C71	C	-0.832176	0.860109	0.134094
C72	C	-0.498843	1.193443	0.467427
C73	C	-1.158646	0.648698	-0.206127
C74	C	-0.825313	0.982031	0.127206
C75	C	-0.491979	1.315364	0.460540
C76	C	-1.118994	0.351504	-0.245887
C77	C	-0.785661	0.684838	0.087446
C78	C	-0.452327	1.018171	0.420779
C79	C	-1.100363	0.000112	0.248429
C80	C	-0.767029	0.333445	0.581762
C81	C	-0.433696	0.666778	0.915095
C82	C	-1.177277	0.000119	0.299559
C83	C	-0.843944	0.333452	0.632892
C84	C	-0.510610	0.666785	0.966226
C85	C	-1.166247	0.000112	0.407695
C86	C	-0.832913	0.333446	0.741029
C87	C	-0.499580	0.666779	1.074362
C88	C	-1.111391	0.000118	0.140282
C89	C	-0.778058	0.333451	0.473616
C90	C	-0.444725	0.666784	0.806949
C91	C	-1.146608	0.000093	0.600035
C92	C	-0.813275	0.333426	0.933368
C93	C	-0.479942	0.666760	1.266701
C94	C	-1.157457	0.000107	0.493891
C95	C	-0.824124	0.333441	0.827225
C96	C	-0.490790	0.666774	1.160558
H97	H	-0.650690	0.000077	-0.338600
H98	H	-0.317357	0.333410	-0.005266
H99	H	0.015976	0.666744	0.328067
H100	H	-0.626944	0.000108	-0.113426
H101	H	-0.293611	0.333441	0.219907
H102	H	0.039723	0.666774	0.553241
H103	H	-1.216363	0.480874	-0.148236
H104	H	-0.883029	0.814208	0.185097
H105	H	-0.549696	1.147541	0.518431
Cl106	Cl	-0.985914	0.000096	0.306229
Cl107	Cl	-0.652581	0.333429	0.639562
Cl108	Cl	-0.319247	0.666762	0.972896
Cl109	Cl	-1.033626	0.544299	-0.331520
Cl110	Cl	-0.700293	0.877632	0.001814
Cl111	Cl	-0.366960	1.210965	0.335147
H112	H	-1.251414	0.000053	0.262124
H113	H	-0.918080	0.333387	0.595457
H114	H	-0.584747	0.666720	0.928791
