data_functionalizedCrystal
_audit_creation_method	'MofGen! by Chris Wilmer'
_symmetry_space_group_name_H-M	'P1'
_symmetry_Int_Tables_number	1
_symmetry_cell_setting	triclinic
loop_
_symmetry_equiv_pos_as_xyz
  x,y,z
_cell_length_a	12.827893
_cell_length_b	29.839131
_cell_length_c	12.827885
_cell_angle_alpha	89.963179
_cell_angle_beta	89.980728
_cell_angle_gamma	90.041391
loop_
_atom_site_label
_atom_site_type_symbol
_atom_site_fract_x
_atom_site_fract_y
_atom_site_fract_z
Zn1	Zn	1.597481	-0.178832	-0.590798
Zn2	Zn	1.597295	-0.253969	-0.416036
Zn3	Zn	1.422722	-0.178854	-0.416071
Zn4	Zn	1.422628	-0.253936	-0.590736
O5	O	1.510031	-0.216398	-0.503410
O6	O	1.743692	-0.188804	-0.567626
O7	O	1.574100	-0.244028	-0.269805
O8	O	1.446021	-0.115984	-0.439289
O9	O	1.743556	-0.244007	-0.439230
O10	O	1.574415	-0.115968	-0.567660
O11	O	1.445841	-0.188841	-0.269830
O12	O	1.276473	-0.188809	-0.439230
O13	O	1.445861	-0.243950	-0.736981
O14	O	1.276404	-0.243971	-0.567556
O15	O	1.574324	-0.188771	-0.737026
O16	O	1.574008	-0.316832	-0.439170
O17	O	1.445681	-0.316807	-0.567522
C18	C	1.238522	-0.216389	-0.503390
C19	C	1.122368	-0.216396	-0.503407
C20	C	1.070577	-0.243735	-0.566808
C21	C	0.950527	-0.243743	-0.566827
C22	C	1.509843	-0.333120	-0.503359
C23	C	1.509858	-0.383055	-0.503371
C24	C	1.576973	-0.692698	-0.436675
C25	C	1.577102	-0.880371	-0.436716
O26	O	1.634016	-0.904636	-0.379969
N27	N	1.510248	-0.903840	-0.503489
C28	C	1.443362	-0.880387	-0.570262
O29	O	1.386509	-0.904655	-0.627065
C30	C	1.443239	-0.692715	-0.570226
C31	C	1.510090	-0.669249	-0.503441
C32	C	1.643819	-0.669232	-0.369897
C33	C	1.643782	-0.622317	-0.369883
C34	C	1.576899	-0.598867	-0.436648
C35	C	1.510053	-0.622333	-0.503427
C36	C	1.376359	-0.669263	-0.637003
C37	C	1.376336	-0.622342	-0.636990
C38	C	1.443187	-0.598876	-0.570205
C39	C	1.443133	-0.551969	-0.570179
N40	N	1.509987	-0.528500	-0.503406
C41	C	1.576870	-0.551949	-0.436641
C42	C	1.443430	-0.978918	-0.570274
C43	C	1.443459	-1.025835	-0.570282
C44	C	1.577201	-1.025816	-0.436738
C45	C	1.577165	-0.978898	-0.436725
C46	C	1.510284	-0.955449	-0.503501
C47	C	1.576787	-0.453424	-0.436617
C48	C	1.576741	-0.406504	-0.436606
C49	C	1.443004	-0.406527	-0.570154
C50	C	1.443045	-0.453443	-0.570161
C51	C	1.509945	-0.476890	-0.503389
O52	O	1.386257	-0.527675	-0.626905
O53	O	1.633731	-0.527674	-0.379862
C54	C	1.577010	-0.739614	-0.436689
C55	C	1.510164	-0.763080	-0.503468
C56	C	1.443281	-0.739630	-0.570233
C57	C	1.510193	-0.809997	-0.503476
C58	C	1.577076	-0.833447	-0.436710
C59	C	1.643930	-0.809978	-0.369937
C60	C	1.643893	-0.763063	-0.369924
C61	C	1.376427	-0.763099	-0.637006
C62	C	1.376468	-0.810014	-0.637013
C63	C	1.443351	-0.833464	-0.570248
C64	C	1.782602	-0.216407	-0.503431
C65	C	1.898755	-0.216410	-0.503440
C66	C	1.510103	-0.216354	-0.775981
C67	C	1.510133	-0.216336	-0.892134
C68	C	1.510249	-0.099219	-0.503485
C69	C	1.510342	-0.049285	-0.503517
C70	C	1.573708	-0.189027	-0.943941
C71	C	1.573740	-0.189007	-1.063991
C72	C	1.510021	-0.216408	-0.231900
C73	C	1.510193	-0.216300	-0.115748
H74	H	1.631178	-0.387399	-0.382218
H75	H	1.455765	-0.239683	-1.071202
C76	C	1.369848	-0.953127	-0.643726
C77	C	1.415050	-0.920829	-0.725816
C78	C	1.341465	-0.895040	-0.799263
C79	C	1.222677	-0.901548	-0.790619
C80	C	1.177469	-0.933847	-0.708526
C81	C	1.251054	-0.959637	-0.635079
H82	H	1.502989	-0.916009	-0.732217
H83	H	1.374932	-0.871129	-0.860034
H84	H	1.168205	-0.882457	-0.844989
H85	H	1.089530	-0.938667	-0.702125
H86	H	1.217588	-0.983547	-0.574308
C87	C	1.436631	-0.247904	-0.952270
C88	C	1.481936	-0.283135	-1.027313
C89	C	1.408431	-0.314704	-1.087446
C90	C	1.289622	-0.311043	-1.072536
C91	C	1.244311	-0.275810	-0.997489
C92	C	1.317816	-0.244241	-0.937356
H93	H	1.569891	-0.285847	-1.038354
H94	H	1.441974	-0.340786	-1.143001
H95	H	1.235210	-0.334412	-1.117050
H96	H	1.156356	-0.273099	-0.986448
H97	H	1.284273	-0.218160	-0.881801
H98	H	1.322021	-0.829116	-0.691397
H99	H	1.389013	-1.044938	-0.624656
C100	C	0.958908	-0.184788	-0.430102
C101	C	0.943940	-0.188388	-0.311277
C102	C	1.004102	-0.156766	-0.237939
C103	C	1.079233	-0.121542	-0.283427
C104	C	1.094205	-0.117940	-0.402258
C105	C	1.034042	-0.149563	-0.475596
H106	H	0.888320	-0.214464	-0.277599
H107	H	0.993019	-0.159432	-0.149972
H108	H	1.123769	-0.098133	-0.229138
H109	H	1.149824	-0.091864	-0.435936
H110	H	1.045126	-0.146896	-0.563563
C111	C	0.890367	-0.275364	-0.640161
C112	C	0.905200	-0.326437	-0.631429
C113	C	0.845038	-0.358060	-0.704766
C114	C	0.770042	-0.338610	-0.786836
C115	C	0.755205	-0.287536	-0.795572
C116	C	0.815367	-0.255913	-0.722235
H117	H	0.960720	-0.340836	-0.570672
H118	H	0.856022	-0.395869	-0.698298
H119	H	0.725506	-0.362019	-0.841125
H120	H	0.699685	-0.273136	-0.856329
H121	H	0.804383	-0.218104	-0.728703
C122	C	1.130733	-0.275348	-0.640125
C123	C	1.205728	-0.310560	-0.594615
C124	C	1.265882	-0.342174	-0.667935
C125	C	1.251041	-0.338574	-0.786765
C126	C	1.176042	-0.303360	-0.832281
C127	C	1.115888	-0.271747	-0.758961
H128	H	1.216717	-0.313226	-0.506645
H129	H	1.321401	-0.368242	-0.634240
H130	H	1.295570	-0.361977	-0.841040
H131	H	1.165053	-0.300694	-0.920251
H132	H	1.060370	-0.245678	-0.792656
C133	C	1.650369	-0.479211	-0.363162
C134	C	1.641888	-0.472796	-0.244357
C135	C	1.715462	-0.498584	-0.170896
C136	C	1.797519	-0.530786	-0.216240
C137	C	1.806004	-0.537202	-0.335051
C138	C	1.732429	-0.511415	-0.408512
H139	H	1.581142	-0.448957	-0.210785
H140	H	1.709181	-0.493834	-0.082944
H141	H	1.851983	-0.549875	-0.161860
H142	H	1.866750	-0.561041	-0.368623
H143	H	1.738710	-0.516164	-0.496464
C144	C	1.647210	-0.157458	-0.883807
C145	C	1.766019	-0.161120	-0.898720
C146	C	1.839525	-0.129550	-0.838590
C147	C	1.794221	-0.094318	-0.763548
C148	C	1.675406	-0.090655	-0.748632
C149	C	1.601901	-0.122225	-0.808761
H150	H	1.799561	-0.187201	-0.954274
H151	H	1.927480	-0.132262	-0.849632
H152	H	1.848634	-0.070948	-0.719036
H153	H	1.641864	-0.064574	-0.693078
H154	H	1.513946	-0.119513	-0.797719
H155	H	1.077832	-0.192995	-0.449144
C156	C	1.647275	-0.157419	-1.124169
C157	C	1.647203	-0.157445	-1.244215
C158	C	1.720741	-0.125856	-1.304395
C159	C	1.794350	-0.094241	-1.244530
C160	C	1.794425	-0.094215	-1.124478
C161	C	1.720888	-0.125804	-1.064298
H162	H	1.592711	-0.180849	-1.288537
H163	H	1.720685	-0.125876	-1.393266
H164	H	1.848787	-0.070857	-1.289079
H165	H	1.848918	-0.070811	-1.080156
H166	H	1.720943	-0.125784	-0.975427
H167	H	1.698221	-0.603213	-0.315504
C168	C	1.717397	-0.695020	-0.296444
C169	C	1.708919	-0.688600	-0.177640
C170	C	1.782496	-0.714384	-0.104176
C171	C	1.864551	-0.746588	-0.149514
C172	C	1.873033	-0.753010	-0.268324
C173	C	1.799456	-0.727226	-0.341789
H174	H	1.648173	-0.664760	-0.144073
H175	H	1.776217	-0.709631	-0.016225
H176	H	1.919018	-0.765675	-0.095131
H177	H	1.933779	-0.776850	-0.301892
H178	H	1.805735	-0.731979	-0.429740
C179	C	1.650709	-0.953087	-0.363269
C180	C	1.605462	-0.920877	-0.281174
C181	C	1.679011	-0.895069	-0.207717
C182	C	1.797807	-0.901471	-0.216354
C183	C	1.843060	-0.933683	-0.298453
C184	C	1.769511	-0.959491	-0.371910
H185	H	1.517517	-0.916136	-0.274777
H186	H	1.645511	-0.871223	-0.146942
H187	H	1.852253	-0.882367	-0.161977
H188	H	1.931006	-0.938424	-0.304850
H189	H	1.803011	-0.983336	-0.432685
C190	C	1.302825	-0.695065	-0.710477
C191	C	1.184028	-0.688661	-0.701858
C192	C	1.110489	-0.714461	-0.775341
C193	C	1.155748	-0.746666	-0.857442
C194	C	1.274551	-0.753072	-0.866064
C195	C	1.348089	-0.727271	-0.792581
H196	H	1.150519	-0.664820	-0.641079
H197	H	1.022543	-0.709719	-0.768958
H198	H	1.101310	-0.765765	-0.911838
H199	H	1.308060	-0.776913	-0.926843
H200	H	1.436035	-0.732013	-0.798964
H201	H	1.631660	-1.044917	-0.382375
C202	C	1.302759	-0.596549	-0.710442
C203	C	1.183971	-0.603058	-0.701811
C204	C	1.110392	-0.577266	-0.775259
C205	C	1.155602	-0.544964	-0.857337
C206	C	1.274396	-0.538454	-0.865971
C207	C	1.347975	-0.564246	-0.792524
H208	H	1.150498	-0.626971	-0.641049
H209	H	1.022452	-0.582085	-0.768867
H210	H	1.101135	-0.525871	-0.911708
H211	H	1.307869	-0.514541	-0.926734
H212	H	1.435915	-0.559426	-0.798915
H213	H	1.321964	-0.744010	-0.691376
H214	H	1.388613	-0.472550	-0.624546
H215	H	1.698329	-0.743960	-0.315541
H216	H	1.388545	-0.387427	-0.624511
H217	H	1.698386	-0.829079	-0.315572
