data_functionalizedCrystal
_audit_creation_method	'MofGen! by Chris Wilmer'
_symmetry_space_group_name_H-M	'P1'
_symmetry_Int_Tables_number	1
_symmetry_cell_setting	triclinic
loop_
_symmetry_equiv_pos_as_xyz
  x,y,z
_cell_length_a	16.109302
_cell_length_b	14.044190
_cell_length_c	15.186229
_cell_angle_alpha	90.004941
_cell_angle_beta	90.007553
_cell_angle_gamma	88.326779
loop_
_atom_site_label
_atom_site_type_symbol
_atom_site_fract_x
_atom_site_fract_y
_atom_site_fract_z
O1	O	1.112201	0.121833	0.073279
O2	O	0.871267	0.136994	0.073273
O3	O	0.988114	-0.008570	0.073258
O4	O	0.995353	0.267397	0.073293
O5	O	0.988100	-0.008562	-0.073199
O6	O	0.871253	0.137003	-0.073184
O7	O	1.112186	0.121841	-0.073179
Zn8	Zn	0.991717	0.129423	-0.096435
Zn9	Zn	0.991736	0.129412	0.096529
O10	O	0.995339	0.267406	-0.073164
C11	C	0.840239	0.136384	0.000043
C12	C	0.747807	0.134543	0.000040
C13	C	0.535141	0.130289	-0.079785
C14	C	0.448292	0.128548	-0.079782
C15	C	0.448318	0.128544	0.079893
C16	C	0.535166	0.130278	0.079890
C17	C	0.578576	0.131155	0.000048
C18	C	0.404878	0.127681	0.000054
C19	C	0.310712	0.125793	0.000058
C20	C	0.672748	0.133040	0.000044
C21	C	0.984940	-0.043879	0.000027
C22	C	0.975494	-0.149103	0.000019
C23	C	1.025219	-0.399404	0.000055
C24	C	0.958238	-0.341755	0.000047
C25	C	0.967842	-0.234553	0.000032
C26	C	1.015617	-0.506616	0.000070
C27	C	1.143214	0.122451	0.000053
C28	C	1.235646	0.124293	0.000062
C29	C	0.998513	0.302715	0.000069
C30	C	1.007959	0.407938	0.000083
N31	N	0.991710	0.129430	-0.228127
C32	C	1.046413	0.186922	-0.453841
C33	C	1.046421	0.186915	-0.546031
C34	C	0.937044	0.071900	-0.546058
C35	C	0.937040	0.071902	-0.453870
C36	C	0.991723	0.129419	-0.407764
C37	C	0.991736	0.129409	-0.592142
C38	C	0.991745	0.129402	-0.692098
C39	C	0.991716	0.129425	-0.307802
N40	N	0.991749	0.129398	0.228222
H41	H	0.412931	0.127843	-0.144790
C42	C	0.877703	0.009564	-0.596274
C43	C	0.889346	0.021939	-0.686872
C44	C	0.834685	-0.035458	-0.733155
H45	H	0.888312	-0.055325	-0.581308
H46	H	0.822108	0.027139	-0.581189
H47	H	0.944928	0.004359	-0.701952
H48	H	0.878730	0.086816	-0.701864
H49	H	0.779091	-0.017883	-0.718069
H50	H	0.845299	-0.100343	-0.718182
H51	H	0.842572	-0.027063	-0.794630
C52	C	0.582278	0.131415	0.166598
C53	C	0.557871	0.212504	0.214764
C54	C	0.601261	0.213587	0.294634
H55	H	0.570328	0.075955	0.199503
H56	H	0.640225	0.132622	0.155196
H57	H	0.499938	0.211289	0.226169
H58	H	0.569823	0.267978	0.181886
H59	H	0.659207	0.214794	0.283233
H60	H	0.589307	0.158123	0.327532
H61	H	0.584712	0.268609	0.327321
H62	H	0.892505	0.025071	-0.416353
C63	C	0.582308	0.131426	-0.166441
C64	C	0.628841	0.213931	-0.171118
C65	C	0.672290	0.215014	-0.250940
H66	H	0.618495	0.076927	-0.169851
H67	H	0.544022	0.130710	-0.214011
H68	H	0.667123	0.214638	-0.123561
H69	H	0.592674	0.268444	-0.167724
H70	H	0.634004	0.214298	-0.298510
H71	H	0.708472	0.160511	-0.254342
H72	H	0.703861	0.270997	-0.254127
H73	H	1.089770	-0.368250	0.000047
H74	H	0.412964	0.127831	0.144898
H75	H	0.893681	-0.372910	0.000051
H76	H	1.090940	0.233755	-0.416305
C77	C	1.105831	0.249453	-0.595899
C78	C	1.153702	0.299837	-0.535785
C79	C	1.208435	0.357467	-0.581690
H80	H	1.141293	0.210724	-0.631858
H81	H	1.075018	0.293113	-0.631847
H82	H	1.184513	0.256183	-0.499852
H83	H	1.118262	0.338584	-0.499824
H84	H	1.177622	0.401127	-0.617639
H85	H	1.243891	0.318731	-0.617648
H86	H	1.240916	0.391666	-0.540911
