data_functionalizedCrystal
_audit_creation_method	'MofGen! by Chris Wilmer'
_symmetry_space_group_name_H-M	'P1'
_symmetry_Int_Tables_number	1
_symmetry_cell_setting	triclinic
loop_
_symmetry_equiv_pos_as_xyz
  x,y,z
_cell_length_a	8.559649
_cell_length_b	14.519709
_cell_length_c	7.088929
_cell_angle_alpha	83.763835
_cell_angle_beta	95.325015
_cell_angle_gamma	76.729405
loop_
_atom_site_label
_atom_site_type_symbol
_atom_site_fract_x
_atom_site_fract_y
_atom_site_fract_z
O1	O	2.103670	-0.020642	-0.158956
O2	O	2.603670	0.479358	0.341044
O3	O	1.638600	0.026977	-0.158968
O4	O	2.138600	0.526977	0.341032
O5	O	1.883467	-0.131957	-0.158944
O6	O	2.383467	0.368043	0.341056
O7	O	1.858803	0.138292	-0.158979
O8	O	2.358803	0.638292	0.341021
O9	O	1.916191	-0.153240	0.159034
O10	O	2.416191	0.346760	0.659034
O11	O	1.671324	0.005694	0.159010
O12	O	2.171324	0.505694	0.659010
O13	O	2.136393	-0.041925	0.159023
O14	O	2.636393	0.458075	0.659023
Cu15	Cu	1.906847	-0.020059	0.188050
Cu16	Cu	2.406847	0.479941	0.688050
Cu17	Cu	1.868147	0.005111	-0.187996
Cu18	Cu	2.368147	0.505111	0.312004
O19	O	1.891526	0.117009	0.158999
O20	O	2.391526	0.617009	0.658999
C21	C	1.595443	0.019944	0.000020
C22	C	2.095443	0.519944	0.500020
C23	C	1.418093	0.030686	0.000015
C24	C	1.918093	0.530686	0.500015
C25	C	1.898680	-0.176876	0.000045
C26	C	2.398680	0.323124	0.500045
C27	C	1.895236	-0.279010	0.000046
C28	C	2.395236	0.220990	0.500046
C29	C	1.882552	-0.652993	-0.000004
C30	C	2.382552	-0.152993	0.499996
C31	C	1.886074	-0.548938	0.000011
C32	C	2.386074	-0.048938	0.500011
C33	C	1.888894	-0.466005	0.000023
C34	C	2.388894	0.033995	0.500023
C35	C	1.892417	-0.361944	0.000034
C36	C	2.392417	0.138056	0.500034
C37	C	2.179551	-0.034892	0.000031
C38	C	2.679551	0.465108	0.500031
C39	C	2.356899	-0.045633	0.000022
C40	C	2.856899	0.454367	0.500022
C41	C	1.876313	0.161928	0.000005
C42	C	2.376313	0.661928	0.500005
C43	C	1.879756	0.264063	-0.000008
C44	C	2.379756	0.764063	0.499992
N45	N	1.934078	-0.037763	0.452541
N46	N	2.434078	0.462237	0.952541
N47	N	1.840929	0.022807	-0.452487
N48	N	2.340929	0.522807	0.047513
H49	H	1.334795	0.104249	-0.000005
H50	H	1.834795	0.604249	0.499995
C51	C	1.710509	0.107600	0.437213
C52	C	2.210509	0.607600	0.937213
H53	H	1.712362	0.106380	0.303707
H54	H	2.212362	0.606380	0.803707
H55	H	1.731524	0.165708	0.469915
H56	H	2.231524	0.665708	0.969915
H57	H	1.607167	0.103014	0.469941
H58	H	2.107167	0.603014	0.969941
C59	C	2.064505	-0.122561	0.562850
C60	C	2.564505	0.377439	1.062850
H61	H	2.062642	-0.121349	0.696357
H62	H	2.562642	0.378651	1.196357
H63	H	2.167841	-0.117983	0.530115
H64	H	2.667841	0.382017	1.030115
H65	H	2.043473	-0.180670	0.530150
H66	H	2.543473	0.319330	1.030150
C67	C	1.469405	-0.145006	0.000041
C68	C	1.969405	0.354994	0.500041
H69	H	1.577845	-0.139433	0.000057
H70	H	2.077845	0.360567	0.500057
H71	H	1.438492	-0.171025	-0.110838
H72	H	1.938492	0.328975	0.389162
H73	H	1.461313	-0.185863	0.110948
H74	H	1.961313	0.314137	0.610948
