data_functionalizedCrystal
_audit_creation_method	'MofGen! by Chris Wilmer'
_symmetry_space_group_name_H-M	'P1'
_symmetry_Int_Tables_number	1
_symmetry_cell_setting	triclinic
loop_
_symmetry_equiv_pos_as_xyz
  x,y,z
_cell_length_a	21.295418
_cell_length_b	16.994748
_cell_length_c	12.022245
_cell_angle_alpha	44.973341
_cell_angle_beta	89.951513
_cell_angle_gamma	89.984648
loop_
_atom_site_label
_atom_site_type_symbol
_atom_site_fract_x
_atom_site_fract_y
_atom_site_fract_z
Zn1	Zn	0.962550	0.760715	-0.892967
Zn2	Zn	0.962492	0.760585	-0.629198
Zn3	Zn	0.857256	0.628680	-0.629088
Zn4	Zn	0.857300	0.892555	-0.892843
O5	O	0.909900	0.760634	-0.761024
O6	O	1.050632	0.760725	-0.858076
O7	O	0.948490	0.632601	-0.408413
O8	O	0.871230	0.535817	-0.664097
O9	O	1.050589	0.760630	-0.664286
O10	O	0.948589	0.632822	-0.857969
O11	O	0.871173	0.535691	-0.408332
O12	O	0.769172	0.663657	-0.663977
O13	O	0.871304	0.985553	-1.113630
O14	O	0.769205	0.857524	-0.857757
O15	O	0.948631	0.888691	-1.113721
O16	O	0.948532	0.888470	-0.664166
O17	O	0.871248	0.985427	-0.857864
C18	C	0.746348	0.760584	-0.760842
C19	C	0.676380	0.760601	-0.760802
C20	C	0.909906	0.554897	-0.761030
C21	C	0.909911	0.465577	-0.761034
C22	C	0.643546	0.861539	-0.861552
C23	C	0.577804	0.861555	-0.861623
C24	C	0.544897	0.760627	-0.760916
C25	C	0.577739	0.659676	-0.660158
C26	C	0.643480	0.659663	-0.660101
N27	N	0.441609	0.685390	-0.622926
N28	N	0.379158	0.685409	-0.622985
C29	C	0.346823	0.760661	-0.761083
N30	N	0.379298	0.835909	-0.899124
N31	N	0.441755	0.835893	-0.899063
C32	C	0.473612	0.760630	-0.760967
C33	C	0.242704	0.861623	-0.861919
C34	C	0.176960	0.861635	-0.861992
C35	C	0.176896	0.659753	-0.660513
C36	C	0.242638	0.659744	-0.660453
C37	C	0.275538	0.760682	-0.761154
Zn38	Zn	0.962557	0.391771	-0.892953
Zn39	Zn	0.857314	0.259845	-0.892785
Zn40	Zn	0.857272	0.259750	-0.629050
Zn41	Zn	0.962516	0.127896	-0.629164
O42	O	0.909915	0.259815	-0.760988
O43	O	0.948631	0.484743	-1.113701
O44	O	0.769219	0.259803	-0.857681
O45	O	0.871238	0.387655	-0.664079
O46	O	0.871309	0.387818	-1.113578
O47	O	0.948590	0.484650	-0.857968
O48	O	0.769188	0.259732	-0.663916
O49	O	0.871198	0.131786	-0.408294
O50	O	1.050611	0.162930	-0.664274
O51	O	0.948520	0.034914	-0.408378
O52	O	1.050641	0.356797	-0.858079
O53	O	0.871270	0.131950	-0.857792
O54	O	0.948561	0.035007	-0.664111
C55	C	1.074090	0.760685	-0.761207
C56	C	1.144058	0.760706	-0.761285
C57	C	0.909896	0.965566	-0.761009
C58	C	0.909915	1.054867	-0.760966
C59	C	0.909855	0.555435	-0.351129
C60	C	0.909945	0.465801	-0.172479
C61	C	0.909982	0.966567	-1.172520
C62	C	0.910021	1.055981	-1.351171
C63	C	1.074105	0.259872	-0.761208
C64	C	1.144073	0.259895	-0.761302
C65	C	0.746363	0.259859	-0.760856
C66	C	0.676395	0.260200	-0.761058
C67	C	1.176950	0.360850	-0.862250
C68	C	1.242692	0.360888	-0.862339
C69	C	1.275557	0.259971	-0.761486
C70	C	1.242675	0.159009	-0.660526
C71	C	1.176934	0.158972	-0.660431
C72	C	0.643549	0.259597	-0.659540
C73	C	0.577807	0.259935	-0.659730
C74	C	0.544912	0.260867	-0.761432
C75	C	0.577763	0.261473	-0.862961
C76	C	0.643504	0.261144	-0.862778
H77	H	0.670329	0.943731	-0.943553
H78	H	1.329088	0.260017	-0.761580
C79	C	1.278829	0.048007	-0.549617
H80	H	1.249838	-0.012133	-0.489470
H81	H	1.304483	0.043872	-0.610027
H82	H	1.304466	0.043795	-0.480913
C83	C	0.278760	0.548713	-0.549618
H84	H	0.322625	0.563160	-0.564016
H85	H	0.267929	0.507107	-0.443590
H86	H	0.268017	0.507378	-0.572897
H87	H	1.150200	0.443032	-0.944385
C88	C	1.278850	0.471950	-0.973414
H89	H	1.249858	0.532041	-1.033479
H90	H	1.304484	0.476156	-0.913129
H91	H	1.304507	0.476177	-1.042186
H92	H	1.150171	0.076760	-0.578231
C93	C	0.278899	0.972645	-0.972699
H94	H	0.322755	0.958182	-0.958223
H95	H	0.268184	1.014249	-1.078744
H96	H	0.268093	1.013992	-0.949451
H97	H	0.670323	0.258837	-0.576717
C98	C	0.541682	0.259253	-0.548029
H99	H	0.570692	0.258630	-0.487418
H100	H	0.516157	0.323917	-0.607936
H101	H	0.515919	0.194770	-0.479792
H102	H	0.491382	0.261135	-0.761565
H103	H	0.670243	0.261629	-0.945443
C104	C	0.140840	0.972670	-0.972824
H105	H	0.096974	0.958224	-0.958452
H106	H	0.151580	1.014007	-0.949553
H107	H	0.151675	1.014275	-1.078858
C108	C	0.541679	0.972592	-0.972544
H109	H	0.570689	1.032703	-1.032532
H110	H	0.516098	0.976867	-1.041370
H111	H	0.515973	0.976712	-0.912178
H112	H	0.550971	0.262233	-0.945765
H113	H	0.670212	0.577464	-0.578058
C114	C	0.541544	0.548658	-0.549383
H115	H	0.497688	0.563122	-0.563835
H116	H	0.552348	0.507315	-0.572631
H117	H	0.552261	0.507051	-0.443330
H118	H	0.150104	0.577575	-0.578522
