data_functionalizedCrystal
_audit_creation_method	'MofGen! by Chris Wilmer'
_symmetry_space_group_name_H-M	'P1'
_symmetry_Int_Tables_number	1
_symmetry_cell_setting	triclinic
loop_
_symmetry_equiv_pos_as_xyz
  x,y,z
_cell_length_a	17.639617
_cell_length_b	17.640280
_cell_length_c	12.759393
_cell_angle_alpha	78.768965
_cell_angle_beta	78.756784
_cell_angle_gamma	87.821186
loop_
_atom_site_label
_atom_site_type_symbol
_atom_site_fract_x
_atom_site_fract_y
_atom_site_fract_z
Zn1	Zn	1.222298	-0.067878	-0.904846
Zn2	Zn	1.247903	-0.194903	-0.701958
Zn3	Zn	1.095291	-0.093556	-0.688097
Zn4	Zn	1.120950	-0.220473	-0.836554
O5	O	1.171610	-0.144203	-0.782864
O6	O	1.331977	-0.063281	-0.912314
O7	O	1.227636	-0.181504	-0.553080
O8	O	1.090684	0.016125	-0.739629
O9	O	1.350789	-0.156605	-0.763253
O10	O	1.183996	0.034991	-0.898874
O11	O	1.115512	-0.107045	-0.542896
O12	O	0.992411	-0.131840	-0.673409
O13	O	1.134416	-0.200186	-0.992652
O14	O	1.011263	-0.225085	-0.782479
O15	O	1.208876	-0.088075	-1.042826
O16	O	1.252516	-0.304570	-0.697032
O17	O	1.159244	-0.323357	-0.795920
C18	C	0.974279	-0.184024	-0.719030
C19	C	0.889864	-0.201078	-0.691742
C20	C	1.211464	-0.341515	-0.740599
C21	C	1.228583	-0.425913	-0.722576
C22	C	0.563315	-0.014629	-0.990427
C23	C	0.483998	-0.030673	-0.964761
C24	C	0.503576	-0.127691	-0.809384
C25	C	0.582897	-0.111657	-0.835040
C26	C	0.612760	-0.055125	-0.925562
C27	C	0.632342	-0.152154	-0.770176
C28	C	0.711655	-0.136119	-0.795827
C29	C	0.741524	-0.079588	-0.886342
C30	C	0.692073	-0.039090	-0.951213
C31	C	0.602477	-0.208682	-0.679650
C32	C	0.651921	-0.249178	-0.614785
C33	C	0.731237	-0.233148	-0.640440
C34	C	0.761106	-0.176616	-0.730956
C35	C	0.780688	-0.273645	-0.575569
C36	C	0.860001	-0.257610	-0.601220
C37	C	0.840419	-0.160582	-0.756607
C38	C	1.041870	-0.752568	-0.920268
C39	C	1.057958	-0.831872	-0.903299
C40	C	1.155142	-0.812233	-0.800483
C41	C	1.139065	-0.732925	-0.817448
C42	C	1.082428	-0.703100	-0.877340
C43	C	1.179623	-0.683456	-0.774520
C44	C	1.163545	-0.604156	-0.791479
C45	C	1.106909	-0.574325	-0.851365
C46	C	1.066350	-0.623800	-0.894299
C47	C	1.236256	-0.713284	-0.714622
C48	C	1.276814	-0.663815	-0.671694
C49	C	1.260740	-0.584513	-0.688658
C50	C	1.204103	-0.554681	-0.748545
C51	C	1.301298	-0.535038	-0.645725
C52	C	1.285220	-0.455738	-0.662684
C53	C	1.188025	-0.475381	-0.765504
C54	C	1.369712	-0.104226	-0.846947
C55	C	1.454131	-0.087191	-0.874256
C56	C	1.171652	-0.144118	-1.056931
C57	C	1.171670	-0.144082	-1.173722
C58	C	1.131622	0.053885	-0.825323
C59	C	1.114581	0.138298	-0.843417
C60	C	1.210443	-0.085698	-1.254714
C61	C	1.210450	-0.085662	-1.364450
C62	C	1.132909	-0.202403	-1.312189
C63	C	1.132898	-0.202435	-1.202456
C64	C	1.171601	-0.144223	-0.509888
C65	C	1.171687	-0.144015	-0.393191
H66	H	0.864735	-0.114550	-0.830322
H67	H	1.242021	-0.038119	-1.430391
H68	H	1.101344	-0.249913	-1.335598
C69	C	0.748237	-0.335119	-0.477431
C70	C	0.712585	-0.393052	-0.511654
C71	C	0.682693	-0.449700	-0.421279
H72	H	0.711359	-0.312386	-0.427878
H73	H	0.789029	-0.356992	-0.442472
H74	H	0.671798	-0.371182	-0.546595
H75	H	0.749448	-0.415806	-0.561194
H76	H	0.723485	-0.471573	-0.386321
H77	H	0.645818	-0.426959	-0.371733
H78	H	0.658506	-0.489018	-0.444488
C79	C	1.338404	-0.696086	-0.606791
C80	C	1.409616	-0.661555	-0.658184
C81	C	1.466369	-0.691258	-0.598420
H82	H	1.342271	-0.750390	-0.602805
H83	H	1.324733	-0.685340	-0.535372
H84	H	1.423284	-0.672307	-0.729584
H85	H	1.405774	-0.607253	-0.662170
H86	H	1.452698	-0.680512	-0.527001
H87	H	1.470229	-0.745561	-0.594438
H88	H	1.514691	-0.667828	-0.633277
C89	C	0.913811	-0.301467	-0.530902
C90	C	0.989658	-0.275308	-0.572726
C91	C	1.039246	-0.315681	-0.507965
H92	H	0.911240	-0.355143	-0.530989
H93	H	0.898575	-0.292910	-0.458511
H94	H	1.004890	-0.283871	-0.645098
H95	H	0.992253	-0.221637	-0.572636
H96	H	1.024010	-0.307124	-0.435573
H97	H	1.036668	-0.369355	-0.508056
H98	H	1.090713	-0.297933	-0.536326
C99	C	0.724590	0.022348	-1.049372
C100	C	0.760268	0.080267	-1.015157
C101	C	0.790239	0.136868	-1.105547
H102	H	0.683855	0.044258	-1.084403
H103	H	0.761467	-0.000456	-1.098863
H104	H	0.723394	0.103069	-0.965684
H105	H	0.801013	0.058381	-0.980137
H106	H	0.827117	0.114064	-1.155038
H107	H	0.749500	0.158771	-1.140571
H108	H	0.814457	0.176169	-1.082345
H109	H	0.806106	-0.066531	-0.907223
H110	H	1.101319	-0.249979	-1.136506
C111	C	1.252542	-0.022252	-1.223732
C112	C	1.286481	0.028898	-1.318153
C113	C	1.325258	0.087362	-1.289658
H114	H	1.291546	-0.044538	-1.185443
H115	H	1.216813	0.005007	-1.178653
H116	H	1.322208	0.001642	-1.363213
H117	H	1.247493	0.051203	-1.356454
H118	H	1.289529	0.114621	-1.244579
H119	H	1.364259	0.065069	-1.251367
H120	H	1.348284	0.122078	-1.353716
H121	H	0.587631	0.031403	-1.064142
H122	H	1.347407	-0.559335	-0.596952
C123	C	1.329361	-0.402143	-0.616032
C124	C	1.382416	-0.445233	-0.559976
C125	C	1.423096	-0.395887	-0.516991
H126	H	1.294142	-0.377094	-0.567371
H127	H	1.356200	-0.364495	-0.673569
H128	H	1.355579	-0.482867	-0.502446
H129	H	1.417651	-0.470281	-0.608614
H130	H	1.449934	-0.358239	-0.574528
H131	H	1.387871	-0.370840	-0.468334
H132	H	1.459103	-0.425114	-0.478960
C133	C	0.430371	0.013207	-1.035363
C134	C	0.453045	0.000474	-1.141959
C135	C	0.403655	0.040874	-1.207019
H136	H	0.433002	0.066891	-1.035368
H137	H	0.378852	-0.004448	-1.007189
H138	H	0.504551	0.018133	-1.170126
H139	H	0.450410	-0.053202	-1.141988
H140	H	0.352136	0.023219	-1.178846
H141	H	0.406290	0.094556	-1.207015
H142	H	0.419028	0.032234	-1.279349
H143	H	0.537891	-0.221719	-0.658748
C144	C	0.471007	-0.189067	-0.711185
C145	C	0.390967	-0.194455	-0.702615
C146	C	0.360943	-0.250996	-0.612177
H147	H	0.481645	-0.175340	-0.647124
H148	H	0.494291	-0.237499	-0.719722
H149	H	0.367691	-0.146034	-0.694070
H150	H	0.380308	-0.208192	-0.766653
H151	H	0.384226	-0.299428	-0.620714
H152	H	0.371585	-0.237264	-0.548124
H153	H	0.306634	-0.254665	-0.606357
H154	H	1.141911	-0.451096	-0.814284
C155	C	0.619473	-0.310658	-0.516652
C156	C	0.583827	-0.368589	-0.550885
C157	C	0.553938	-0.425244	-0.460518
H158	H	0.582593	-0.287931	-0.467094
H159	H	0.660267	-0.332531	-0.481696
H160	H	0.543038	-0.346719	-0.585823
H161	H	0.620691	-0.391337	-0.600430
H162	H	0.594732	-0.447117	-0.425563
H163	H	0.517061	-0.402510	-0.410967
H164	H	0.529755	-0.464561	-0.483734
H165	H	1.093813	-0.509754	-0.865162
C166	C	1.004915	-0.591255	-0.959347
C167	C	0.999531	-0.511217	-0.965027
C168	C	0.942956	-0.481209	-1.024948
H169	H	0.956484	-0.614511	-0.924699
H170	H	1.018632	-0.601928	-1.030802
H171	H	0.985811	-0.500552	-0.893585
H172	H	1.047947	-0.487942	-0.999684
H173	H	0.956673	-0.491881	-1.096404
H174	H	0.894530	-0.504470	-0.990295
H175	H	0.939301	-0.426900	-1.028819
H176	H	0.995756	-0.728283	-0.969048
H177	H	1.024936	-0.872147	-0.938277
C178	C	1.216620	-0.844763	-0.735517
C179	C	1.222028	-0.924798	-0.729864
C180	C	1.278657	-0.954788	-0.670031
H181	H	1.202963	-0.834118	-0.664056
H182	H	1.265030	-0.821468	-0.770244
H183	H	1.173629	-0.948085	-0.695135
H184	H	1.235695	-0.935464	-0.801308
H185	H	1.327067	-0.931493	-0.704757
H186	H	1.264994	-0.944138	-0.598574
H187	H	1.282339	-1.009093	-0.666196
H188	H	1.249347	-0.777855	-0.700819
