data_functionalizedCrystal
_audit_creation_method	'MofGen! by Chris Wilmer'
_symmetry_space_group_name_H-M	'P1'
_symmetry_Int_Tables_number	1
_symmetry_cell_setting	triclinic
loop_
_symmetry_equiv_pos_as_xyz
  x,y,z
_cell_length_a	18.050591
_cell_length_b	21.295417
_cell_length_c	21.295411
_cell_angle_alpha	89.978356
_cell_angle_beta	89.969449
_cell_angle_gamma	90.026512
loop_
_atom_site_label
_atom_site_type_symbol
_atom_site_fract_x
_atom_site_fract_y
_atom_site_fract_z
Zn1	Zn	1.135351	-0.250748	-0.356012
Zn2	Zn	1.385351	-0.000748	-0.106012
Zn3	Zn	1.635351	0.249252	0.143988
Zn4	Zn	1.885351	0.499252	0.393988
Zn5	Zn	1.135236	-0.356000	-0.250737
Zn6	Zn	1.385236	-0.106000	-0.000737
Zn7	Zn	1.635236	0.144000	0.249263
Zn8	Zn	1.885236	0.394000	0.499263
Zn9	Zn	1.011150	-0.250741	-0.250746
Zn10	Zn	1.261150	-0.000741	-0.000746
Zn11	Zn	1.511150	0.249259	0.249254
Zn12	Zn	1.761150	0.499259	0.499254
Zn13	Zn	1.011114	-0.355976	-0.355958
Zn14	Zn	1.261114	-0.105976	-0.105958
Zn15	Zn	1.511114	0.144024	0.144042
Zn16	Zn	1.761114	0.394024	0.394042
O17	O	1.073213	-0.303366	-0.303363
O18	O	1.323213	-0.053366	-0.053363
O19	O	1.573213	0.196634	0.196637
O20	O	1.823213	0.446634	0.446637
O21	O	1.239261	-0.264723	-0.342066
O22	O	1.489261	-0.014723	-0.092066
O23	O	1.739261	0.235277	0.157934
O24	O	1.989261	0.485277	0.407934
O25	O	1.118743	-0.342044	-0.162649
O26	O	1.368743	-0.092044	0.087351
O27	O	1.618743	0.157956	0.337351
O28	O	1.868743	0.407956	0.587351
O29	O	1.027689	-0.162653	-0.264736
O30	O	1.277689	0.087347	-0.014736
O31	O	1.527689	0.337347	0.235264
O32	O	1.777689	0.587347	0.485264
O33	O	1.239176	-0.342051	-0.264721
O34	O	1.489176	-0.092051	-0.014721
O35	O	1.739176	0.157949	0.235279
O36	O	1.989176	0.407949	0.485279
O37	O	1.118939	-0.162658	-0.342074
O38	O	1.368939	0.087342	-0.092074
O39	O	1.618939	0.337342	0.157926
O40	O	1.868939	0.587342	0.407926
O41	O	1.027577	-0.264711	-0.162655
O42	O	1.277577	-0.014711	0.087345
O43	O	1.527577	0.235289	0.337345
O44	O	1.777577	0.485289	0.587345
O45	O	0.907220	-0.264688	-0.264684
O46	O	1.157220	-0.014688	-0.014684
O47	O	1.407220	0.235312	0.235316
O48	O	1.657220	0.485312	0.485316
O49	O	1.027627	-0.342010	-0.444055
O50	O	1.277627	-0.092010	-0.194055
O51	O	1.527627	0.157990	0.055945
O52	O	1.777627	0.407990	0.305945
O53	O	0.907194	-0.342003	-0.341983
O54	O	1.157194	-0.092003	-0.091983
O55	O	1.407194	0.157997	0.158017
O56	O	1.657194	0.407997	0.408017
O57	O	1.118904	-0.264700	-0.444094
O58	O	1.368904	-0.014700	-0.194094
O59	O	1.618904	0.235300	0.055906
O60	O	1.868904	0.485300	0.305906
O61	O	1.118708	-0.444086	-0.264669
O62	O	1.368708	-0.194086	-0.014669
O63	O	1.618708	0.055914	0.235331
O64	O	1.868708	0.305914	0.485331
O65	O	1.027515	-0.444068	-0.341974
O66	O	1.277515	-0.194068	-0.091974
O67	O	1.527515	0.055932	0.158026
O68	O	1.777515	0.305932	0.408026
C69	C	0.880261	-0.303343	-0.303329
C70	C	1.130261	-0.053343	-0.053329
C71	C	1.380261	0.196657	0.196671
C72	C	1.630261	0.446657	0.446671
C73	C	0.797715	-0.303348	-0.303329
C74	C	1.047715	-0.053348	-0.053329
C75	C	1.297715	0.196652	0.196671
C76	C	1.547715	0.446652	0.446671
C77	C	0.598257	-0.261255	-0.261390
C78	C	0.848257	-0.011255	-0.011390
C79	C	1.098257	0.238745	0.238610
C80	C	1.348257	0.488745	0.488610
C81	C	0.548832	-0.318668	-0.245895
C82	C	0.798832	-0.068668	0.004105
C83	C	1.048832	0.181332	0.254105
C84	C	1.298832	0.431332	0.504105
C85	C	0.646584	-0.303367	-0.303357
C86	C	0.896584	-0.053367	-0.053357
C87	C	1.146584	0.196633	0.196643
C88	C	1.396584	0.446633	0.446643
C89	C	0.548928	-0.245973	-0.318851
C90	C	0.798928	0.004027	-0.068851
C91	C	1.048928	0.254027	0.181149
C92	C	1.298928	0.504027	0.431149
C93	C	0.500599	-0.303380	-0.303383
C94	C	0.750599	-0.053380	-0.053383
C95	C	1.000599	0.196620	0.196617
C96	C	1.250599	0.446620	0.446617
C97	C	0.598246	-0.360811	-0.287832
C98	C	0.848246	-0.110811	-0.037832
C99	C	1.098246	0.139189	0.212168
C100	C	1.348246	0.389189	0.462168
C101	C	0.598347	-0.288077	-0.360814
C102	C	0.848347	-0.038077	-0.110814
C103	C	1.098347	0.211923	0.139186
C104	C	1.348347	0.461923	0.389186
C105	C	0.548944	-0.345530	-0.345341
C106	C	0.798944	-0.095530	-0.095341
C107	C	1.048944	0.154470	0.154659
C108	C	1.298944	0.404470	0.404659
C109	C	0.730683	-0.303358	-0.303340
C110	C	0.980683	-0.053358	-0.053340
C111	C	1.230683	0.196642	0.196660
C112	C	1.480683	0.446642	0.446660
C113	C	0.416503	-0.303395	-0.303400
C114	C	0.666503	-0.053395	-0.053400
C115	C	0.916503	0.196605	0.196600
C116	C	1.166503	0.446605	0.446600
C117	C	1.073115	-0.466918	-0.303329
C118	C	1.323115	-0.216918	-0.053329
C119	C	1.573115	0.033082	0.196671
C120	C	1.823115	0.283082	0.446671
C121	C	1.073142	-0.536886	-0.303335
C122	C	1.323142	-0.286886	-0.053335
C123	C	1.573142	-0.036886	0.196665
C124	C	1.823142	0.213114	0.446665
C125	C	1.120668	-0.569741	-0.263123
C126	C	1.370668	-0.319741	-0.013123
C127	C	1.620668	-0.069741	0.236877
C128	C	1.870668	0.180259	0.486877
C129	C	1.120702	-0.635483	-0.263137
C130	C	1.370702	-0.385483	-0.013137
C131	C	1.620702	-0.135483	0.236863
C132	C	1.870702	0.114517	0.486863
C133	C	1.073198	-0.668368	-0.303356
C134	C	1.323198	-0.418368	-0.053356
C135	C	1.573198	-0.168368	0.196644
C136	C	1.823198	0.081632	0.446644
C137	C	1.025669	-0.635506	-0.343576
C138	C	1.275669	-0.385506	-0.093576
C139	C	1.525669	-0.135506	0.156424
C140	C	1.775669	0.114494	0.406424
C141	C	1.025640	-0.569764	-0.343565
C142	C	1.275640	-0.319764	-0.093565
C143	C	1.525640	-0.069764	0.156435
C144	C	1.775640	0.180236	0.406435
N145	N	1.008232	-0.771631	-0.308144
N146	N	1.258232	-0.521631	-0.058144
N147	N	1.508232	-0.271631	0.191856
N148	N	1.758232	-0.021631	0.441856
N149	N	1.008261	-0.834083	-0.308150
N150	N	1.258261	-0.584083	-0.058150
N151	N	1.508261	-0.334083	0.191850
N152	N	1.758261	-0.084083	0.441850
C153	C	1.073281	-0.866443	-0.303392
C154	C	1.323281	-0.616443	-0.053392
C155	C	1.573281	-0.366443	0.196608
C156	C	1.823281	-0.116443	0.446608
N157	N	1.138273	-0.833993	-0.298616
N158	N	1.388273	-0.583993	-0.048616
N159	N	1.638273	-0.333993	0.201384
N160	N	1.888273	-0.083993	0.451384
N161	N	1.138243	-0.771536	-0.298606
N162	N	1.388243	-0.521536	-0.048606
N163	N	1.638243	-0.271536	0.201394
N164	N	1.888243	-0.021536	0.451394
C165	C	1.073224	-0.739654	-0.303373
C166	C	1.323224	-0.489654	-0.053373
C167	C	1.573224	-0.239654	0.196627
C168	C	1.823224	0.010346	0.446627
C169	C	1.120849	-0.970584	-0.263194
C170	C	1.370849	-0.720584	-0.013194
C171	C	1.620849	-0.470584	0.236806
C172	C	1.870849	-0.220584	0.486806
C173	C	1.120885	-1.036327	-0.263213
C174	C	1.370885	-0.786327	-0.013213
C175	C	1.620885	-0.536327	0.236787
C176	C	1.870885	-0.286327	0.486787
C177	C	1.025844	-1.036348	-0.343648
C178	C	1.275844	-0.786348	-0.093648
C179	C	1.525844	-0.536348	0.156352
C180	C	1.775844	-0.286348	0.406352
C181	C	1.025815	-0.970606	-0.343633
C182	C	1.275815	-0.720606	-0.093633
C183	C	1.525815	-0.470606	0.156367
C184	C	1.775815	-0.220606	0.406367
C185	C	1.073316	-0.937727	-0.303402
C186	C	1.323316	-0.687727	-0.053402
C187	C	1.573316	-0.437727	0.196598
C188	C	1.823316	-0.187727	0.446598
C189	C	1.266918	-0.303390	-0.303399
C190	C	1.516918	-0.053390	-0.053399
C191	C	1.766918	0.196610	0.196601
C192	C	2.016918	0.446610	0.446601
C193	C	1.349464	-0.303400	-0.303414
C194	C	1.599464	-0.053400	-0.053414
C195	C	1.849464	0.196600	0.196586
C196	C	2.099464	0.446600	0.446586
C197	C	1.073274	-0.303353	-0.467554
C198	C	1.323274	-0.053353	-0.217554
C199	C	1.573274	0.196647	0.032446
C200	C	1.823274	0.446647	0.282446
C201	C	1.073301	-0.303347	-0.537522
C202	C	1.323301	-0.053347	-0.287522
C203	C	1.573301	0.196653	-0.037522
C204	C	1.823301	0.446653	0.212478
C205	C	1.073331	-0.139176	-0.303412
C206	C	1.323331	0.110824	-0.053412
C207	C	1.573331	0.360824	0.196588
C208	C	1.823331	0.610824	0.446588
C209	C	1.073381	-0.069208	-0.303433
C210	C	1.323381	0.180792	-0.053433
C211	C	1.573381	0.430792	0.196567
C212	C	1.823381	0.680792	0.446567
C213	C	1.120826	-0.263090	-0.570410
C214	C	1.370826	-0.013090	-0.320410
C215	C	1.620826	0.236910	-0.070410
C216	C	1.870826	0.486910	0.179590
C217	C	1.120825	-0.263063	-0.636153
C218	C	1.370825	-0.013063	-0.386153
C219	C	1.620825	0.236937	-0.136153
C220	C	1.870825	0.486937	0.113847
C221	C	1.073306	-0.303304	-0.669004
C222	C	1.323306	-0.053304	-0.419004
C223	C	1.573306	0.196696	-0.169004
C224	C	1.823306	0.446696	0.080996
C225	C	1.025771	-0.343564	-0.636108
C226	C	1.275771	-0.093564	-0.386108
C227	C	1.525771	0.156436	-0.136108
C228	C	1.775771	0.406436	0.113892
C229	C	1.025768	-0.343586	-0.570367
C230	C	1.275768	-0.093586	-0.320367
C231	C	1.525768	0.156414	-0.070367
C232	C	1.775768	0.406414	0.179633
N233	N	1.067577	-0.358371	-0.772219
N234	N	1.317577	-0.108371	-0.522219
N235	N	1.567577	0.141629	-0.272219
N236	N	1.817577	0.391629	-0.022219
N237	N	1.067584	-0.358349	-0.834671
N238	N	1.317584	-0.108349	-0.584671
N239	N	1.567584	0.141651	-0.334671
N240	N	1.817584	0.391651	-0.084671
C241	C	1.073311	-0.303240	-0.867079
C242	C	1.323311	-0.053240	-0.617079
C243	C	1.573311	0.196760	-0.367079
C244	C	1.823311	0.446760	-0.117079
N245	N	1.079046	-0.248153	-0.834677
N246	N	1.329046	0.001847	-0.584677
N247	N	1.579046	0.251847	-0.334677
N248	N	1.829046	0.501847	-0.084677
N249	N	1.079042	-0.248176	-0.772220
N250	N	1.329042	0.001824	-0.522220
N251	N	1.579042	0.251824	-0.272220
N252	N	1.829042	0.501824	-0.022220
C253	C	1.073304	-0.303285	-0.740290
C254	C	1.323304	-0.053285	-0.490290
C255	C	1.573304	0.196715	-0.240290
C256	C	1.823304	0.446715	0.009710
C257	C	1.120838	-0.262950	-0.971253
C258	C	1.370838	-0.012950	-0.721253
C259	C	1.620838	0.237050	-0.471253
C260	C	1.870838	0.487050	-0.221253
C261	C	1.120832	-0.262921	-1.036997
C262	C	1.370832	-0.012921	-0.786997
C263	C	1.620832	0.237079	-0.536997
C264	C	1.870832	0.487079	-0.286997
C265	C	1.025782	-0.343429	-1.036951
C266	C	1.275782	-0.093429	-0.786951
C267	C	1.525782	0.156571	-0.536951
C268	C	1.775782	0.406571	-0.286951
C269	C	1.025784	-0.343451	-0.971209
C270	C	1.275784	-0.093451	-0.721209
C271	C	1.525784	0.156549	-0.471209
C272	C	1.775784	0.406549	-0.221209
C273	C	1.073316	-0.303213	-0.938364
C274	C	1.323316	-0.053213	-0.688364
C275	C	1.573316	0.196787	-0.438364
C276	C	1.823316	0.446787	-0.188364
C277	C	1.073194	-0.303334	-0.139812
C278	C	1.323194	-0.053334	0.110188
C279	C	1.573194	0.196666	0.360188
C280	C	1.823194	0.446666	0.610188
C281	C	1.073312	-0.303162	-0.069844
C282	C	1.323312	-0.053162	0.180156
C283	C	1.573312	0.196838	0.430156
C284	C	1.823312	0.446838	0.680156
H285	H	0.619820	-0.409368	-0.274684
H286	H	0.869820	-0.159368	-0.024684
H287	H	1.119820	0.090632	0.225316
H288	H	1.369820	0.340632	0.475316
H289	H	0.987169	-1.063123	-0.376398
H290	H	1.237169	-0.813123	-0.126398
H291	H	1.487169	-0.563123	0.123602
H292	H	1.737169	-0.313123	0.373602
H293	H	0.619909	-0.225681	-0.225862
H294	H	0.869909	0.024319	0.024138
H295	H	1.119909	0.274319	0.274138
H296	H	1.369909	0.524319	0.524138
Cl297	Cl	0.966030	-0.394151	-0.677407
Cl298	Cl	1.216030	-0.144151	-0.427407
Cl299	Cl	1.466030	0.105849	-0.177407
Cl300	Cl	1.716030	0.355849	0.072593
Cl301	Cl	0.515721	-0.400583	-0.400152
Cl302	Cl	0.765721	-0.150583	-0.150152
Cl303	Cl	1.015721	0.099417	0.099848
Cl304	Cl	1.265721	0.349417	0.349848
Cl305	Cl	1.180563	-0.929248	-0.212620
Cl306	Cl	1.430563	-0.679248	0.037380
Cl307	Cl	1.680563	-0.429248	0.287380
Cl308	Cl	1.930563	-0.179248	0.537380
Cl309	Cl	0.631952	-0.268069	-0.435797
Cl310	Cl	0.881952	-0.018069	-0.185797
Cl311	Cl	1.131952	0.231931	0.064203
Cl312	Cl	1.381952	0.481931	0.314203
Cl313	Cl	0.515475	-0.171029	-0.339066
Cl314	Cl	0.765475	0.078971	-0.089066
Cl315	Cl	1.015475	0.328971	0.160934
Cl316	Cl	1.265475	0.578971	0.410934
H317	H	1.159348	-0.542973	-0.230367
H318	H	1.409348	-0.292973	0.019633
H319	H	1.659348	-0.042973	0.269633
H320	H	1.909348	0.207027	0.519633
Cl321	Cl	1.180453	-0.676795	-0.212580
Cl322	Cl	1.430453	-0.426795	0.037420
Cl323	Cl	1.680453	-0.176795	0.287420
Cl324	Cl	1.930453	0.073205	0.537420
Cl325	Cl	0.966017	-0.394200	-0.529019
Cl326	Cl	1.216017	-0.144200	-0.279019
Cl327	Cl	1.466017	0.105800	-0.029019
Cl328	Cl	1.716017	0.355800	0.220981
H329	H	0.986991	-0.662285	-0.376324
H330	H	1.236991	-0.412285	-0.126324
H331	H	1.486991	-0.162285	0.123676
H332	H	1.736991	0.087715	0.373676
H333	H	1.159538	-0.230182	-0.944509
H334	H	1.409538	0.019818	-0.694509
H335	H	1.659538	0.269818	-0.444509
H336	H	1.909538	0.519818	-0.194509
H337	H	0.987112	-0.943854	-0.376374
H338	H	1.237112	-0.693854	-0.126374
H339	H	1.487112	-0.443854	0.123626
H340	H	1.737112	-0.193854	0.373626
Cl341	Cl	1.180577	-0.212501	-0.529123
Cl342	Cl	1.430577	0.037499	-0.279123
Cl343	Cl	1.680577	0.287499	-0.029123
Cl344	Cl	1.930577	0.537499	0.220877
Cl345	Cl	1.180643	-1.077631	-0.212661
Cl346	Cl	1.430643	-0.827631	0.037339
Cl347	Cl	1.680643	-0.577631	0.287339
Cl348	Cl	1.930643	-0.327631	0.537339
H349	H	0.986938	-0.543013	-0.376311
H350	H	1.236938	-0.293013	-0.126311
H351	H	1.486938	-0.043013	0.123689
H352	H	1.736938	0.206987	0.373689
Cl353	Cl	1.180562	-0.212437	-0.677507
Cl354	Cl	1.430562	0.037563	-0.427507
Cl355	Cl	1.680562	0.287563	-0.177507
Cl356	Cl	1.930562	0.537563	0.072493
H357	H	1.159532	-0.230135	-1.063773
H358	H	1.409532	0.019865	-0.813773
H359	H	1.659532	0.269865	-0.563773
H360	H	1.909532	0.519865	-0.313773
H361	H	0.987083	-0.376187	-1.063698
H362	H	1.237083	-0.126187	-0.813698
H363	H	1.487083	0.123813	-0.563698
H364	H	1.737083	0.373813	-0.313698
Cl365	Cl	0.966037	-0.394066	-0.929861
Cl366	Cl	1.216037	-0.144066	-0.679861
Cl367	Cl	1.466037	0.105934	-0.429861
Cl368	Cl	1.716037	0.355934	-0.179861
H369	H	0.527084	-0.331611	-0.197315
H370	H	0.777084	-0.081611	0.052685
H371	H	1.027084	0.168389	0.302685
H372	H	1.277084	0.418389	0.552685
