data_functionalizedCrystal
_audit_creation_method	'MofGen! by Chris Wilmer'
_symmetry_space_group_name_H-M	'P1'
_symmetry_Int_Tables_number	1
_symmetry_cell_setting	triclinic
loop_
_symmetry_equiv_pos_as_xyz
  x,y,z
_cell_length_a	11.169417
_cell_length_b	13.897448
_cell_length_c	13.897441
_cell_angle_alpha	89.969401
_cell_angle_beta	89.981458
_cell_angle_gamma	90.018571
loop_
_atom_site_label
_atom_site_type_symbol
_atom_site_fract_x
_atom_site_fract_y
_atom_site_fract_z
Zn1	Zn	1.834886	-0.383962	-0.545325
Zn2	Zn	1.834754	-0.545283	-0.384026
Zn3	Zn	1.634176	-0.384006	-0.384049
Zn4	Zn	1.634153	-0.545219	-0.545285
O5	O	1.734492	-0.464617	-0.464671
O6	O	2.002818	-0.405369	-0.523935
O7	O	1.808101	-0.523935	-0.249048
O8	O	1.660865	-0.249019	-0.405469
O9	O	2.002721	-0.523892	-0.405430
O10	O	1.808326	-0.248986	-0.523958
O11	O	1.660738	-0.405446	-0.249065
O12	O	1.466223	-0.405383	-0.405431
O13	O	1.660827	-0.523782	-0.680272
O14	O	1.466207	-0.523825	-0.523890
O15	O	1.808304	-0.405307	-0.680301
O16	O	1.808079	-0.680256	-0.405391
O17	O	1.660699	-0.680209	-0.523867
C18	C	1.422668	-0.464603	-0.464659
C19	C	1.289268	-0.464620	-0.464676
C20	C	1.734405	-0.715232	-0.464643
C21	C	1.734477	-0.822446	-0.464664
C22	C	1.734603	-1.018741	-0.464724
C23	C	1.734530	-0.909508	-0.464693
C24	C	2.047535	-0.464633	-0.464684
C25	C	2.180935	-0.464639	-0.464690
C26	C	1.734577	-0.464532	-0.716264
C27	C	1.734614	-0.464496	-0.823478
C28	C	1.734613	-0.213024	-0.464720
C29	C	1.734664	-0.105811	-0.464741
C30	C	1.734646	-0.464431	-1.019774
C31	C	1.734625	-0.464470	-0.910541
C32	C	1.734477	-0.464633	-0.214057
C33	C	1.734673	-0.464397	-0.106844
