data_functionalizedCrystal
_audit_creation_method	'MofGen! by Chris Wilmer'
_symmetry_space_group_name_H-M	'P1'
_symmetry_Int_Tables_number	1
_symmetry_cell_setting	triclinic
loop_
_symmetry_equiv_pos_as_xyz
  x,y,z
_cell_length_a	17.038272
_cell_length_b	17.038272
_cell_length_c	14.421503
_cell_angle_alpha	90.004327
_cell_angle_beta	89.997443
_cell_angle_gamma	91.111556
loop_
_atom_site_label
_atom_site_type_symbol
_atom_site_fract_x
_atom_site_fract_y
_atom_site_fract_z
O1	O	1.048759	0.170526	-0.076996
O2	O	0.820947	0.167818	-0.077024
O3	O	0.933499	0.055267	-0.077003
O4	O	0.936207	0.283078	-0.077017
O5	O	0.933480	0.055283	0.077221
O6	O	0.820928	0.167835	0.077200
O7	O	1.048740	0.170543	0.077227
Cu8	Cu	0.934832	0.169190	0.091295
Cu9	Cu	0.934855	0.169171	-0.091092
O10	O	0.936188	0.283095	0.077206
C11	C	0.791645	0.165364	0.000085
C12	C	0.704361	0.158016	0.000074
C13	C	0.658752	0.225479	0.000071
C14	C	0.576740	0.218570	0.000084
C15	C	0.540339	0.144197	0.000094
C16	C	0.585954	0.076728	0.000100
C17	C	0.667965	0.083638	0.000094
C18	C	0.292951	0.119787	0.000120
C19	C	0.210935	0.112882	0.000124
C20	C	0.201726	0.254725	0.000110
C21	C	0.283739	0.261628	0.000097
C22	C	0.329347	0.194159	0.000109
C23	C	0.456510	0.137133	0.000105
C24	C	0.413174	0.201224	0.000105
C25	C	0.931027	0.025982	0.000108
C26	C	0.923679	-0.061301	0.000107
C27	C	0.991142	-0.106911	0.000116
C28	C	0.984233	-0.188923	0.000107
C29	C	0.909860	-0.225324	0.000095
C30	C	0.842391	-0.179708	0.000083
C31	C	0.849301	-0.097698	0.000086
C32	C	0.885449	-0.472712	0.000079
C33	C	0.878545	-0.554728	0.000079
C34	C	1.020387	-0.563937	0.000101
C35	C	1.027291	-0.481924	0.000109
C36	C	0.959822	-0.436316	0.000093
C37	C	0.902796	-0.309153	0.000088
C38	C	0.966886	-0.352488	0.000093
C39	C	1.078042	0.172997	0.000117
C40	C	1.165326	0.180346	0.000121
C41	C	0.938660	0.312379	0.000093
C42	C	0.946008	0.399663	0.000088
N43	N	0.934822	0.169204	0.219576
N44	N	0.934870	0.169151	-0.219373
C45	C	0.882767	0.221222	0.469220
C46	C	0.954743	0.241185	0.531031
C47	C	0.934840	0.169187	0.408738
C48	C	0.862884	0.149244	0.531022
C49	C	0.934851	0.169171	0.591459
C50	C	1.006854	0.189187	0.469187
C51	C	0.914947	0.097212	0.469173
C52	C	0.986972	0.117148	0.530955
C53	C	0.934833	0.169198	0.303477
C54	C	0.934867	0.169160	0.696718
H55	H	0.539608	0.273507	0.000080
H56	H	0.313370	0.322190	0.000078
C57	C	0.759386	0.051634	0.535121
C58	C	0.780732	0.126471	0.567689
H59	H	0.708670	0.037579	0.557761
H60	H	0.758678	0.051952	0.469266
H61	H	0.796327	0.014616	0.556263
H62	H	0.743794	0.163491	0.546541
H63	H	0.781434	0.126158	0.633558
C64	C	0.745625	0.315531	-0.079233
C65	C	0.698758	0.307235	0.000055
H66	H	0.770316	0.366008	-0.079243
H67	H	0.784525	0.276349	-0.079226
H68	H	0.713813	0.309877	-0.133003
H69	H	0.730571	0.312884	0.053825
H70	H	0.659852	0.346429	0.000056
C71	C	0.071921	0.307117	0.000122
C72	C	0.151592	0.328883	0.000110
H73	H	0.040973	0.352903	0.000130
H74	H	0.060375	0.276847	-0.053655
H75	H	0.060383	0.276850	0.053908
H76	H	0.163131	0.359146	-0.053681
H77	H	0.163143	0.359165	0.053891
H78	H	1.027441	-0.322847	0.000082
H79	H	1.031065	0.073137	0.557891
H80	H	0.817978	-0.584363	0.000084
C81	C	0.893136	0.015816	0.335368
C82	C	0.892193	0.015077	0.432452
H83	H	0.879087	-0.034892	0.312699
H84	H	0.856665	0.052918	0.313321
H85	H	0.944304	0.029912	0.314246
H86	H	0.841023	0.000986	0.453575
H87	H	0.928666	-0.022037	0.454509
C88	C	0.765543	0.009116	-0.079186
C89	C	0.718105	0.009482	0.000095
H90	H	0.796500	-0.036664	-0.079177
H91	H	0.733358	0.009356	-0.132955
H92	H	0.798952	0.054404	-0.079182
H93	H	0.684691	-0.035803	0.000087
H94	H	0.750293	0.009235	0.053878
H95	H	0.426863	0.076578	0.000139
C96	C	0.395836	0.340738	0.000090
C97	C	0.453183	0.282974	0.000094
H98	H	0.420543	0.391206	0.000086
H99	H	0.364042	0.335087	-0.053686
H100	H	0.364039	0.335100	0.053877
H101	H	0.484977	0.288608	-0.053697
H102	H	0.484990	0.288627	0.053875
H103	H	0.330076	0.064848	0.000130
C104	C	0.228270	-0.026637	0.000148
C105	C	0.170921	0.031125	0.000137
H106	H	0.203565	-0.077106	0.000159
H107	H	0.260067	-0.021003	-0.053629
H108	H	0.260065	-0.020981	0.053933
H109	H	0.139130	0.025472	-0.053652
H110	H	0.139111	0.025488	0.053920
C111	C	1.114172	-0.089514	-0.079155
C112	C	1.072895	-0.066900	0.000124
H113	H	1.164642	-0.064809	-0.079154
H114	H	1.119712	-0.144877	-0.079148
H115	H	1.086161	-0.074179	-0.132931
H116	H	1.100904	-0.082240	0.053901
H117	H	1.067359	-0.011525	0.000126
H118	H	1.087853	-0.452293	0.000119
H119	H	0.971579	0.302046	0.558201
H120	H	0.556310	0.016172	0.000122
C121	C	0.748240	0.260532	0.465175
C122	C	0.823389	0.280679	0.432617
H123	H	0.711588	0.297243	0.442579
H124	H	0.733984	0.209432	0.443989
H125	H	0.748181	0.261273	0.531039
H126	H	0.823449	0.279932	0.366752
H127	H	0.837649	0.331792	0.453797
C128	C	0.730542	-0.064603	-0.079209
C129	C	0.775142	-0.047562	0.000077
H130	H	0.684756	-0.033654	-0.079213
H131	H	0.760822	-0.053055	-0.132975
H132	H	0.715788	-0.118656	-0.079200
H133	H	0.789901	0.006491	0.000065
H134	H	0.744856	-0.059103	0.053857
H135	H	1.067729	0.206120	0.442140
H136	H	1.039170	-0.226054	0.000116
C137	C	1.161284	-0.564800	0.000120
C138	C	1.094546	-0.614070	0.000110
H139	H	1.207068	-0.595751	0.000128
H140	H	1.161033	-0.532625	-0.053656
H141	H	1.161017	-0.532618	0.053907
H142	H	1.094811	-0.646248	-0.053681
H143	H	1.094798	-0.646258	0.053891
C144	C	0.719351	-0.197094	0.079337
C145	C	0.760636	-0.219714	0.000066
H146	H	0.668876	-0.221787	0.079323
H147	H	0.747347	-0.212430	0.133113
H148	H	0.713820	-0.141722	0.079326
H149	H	0.766172	-0.275086	0.000080
H150	H	0.732633	-0.204384	-0.053724
H151	H	0.842241	-0.338800	0.000080
C152	C	0.744553	-0.471859	0.000079
C153	C	0.811288	-0.422586	0.000078
H154	H	0.698767	-0.440909	0.000087
H155	H	0.744812	-0.504036	-0.053701
H156	H	0.744814	-0.504039	0.053861
H157	H	0.811030	-0.390410	-0.053708
H158	H	0.811028	-0.390395	0.053864
