data_functionalizedCrystal
_audit_creation_method	'MofGen! by Chris Wilmer'
_symmetry_space_group_name_H-M	'P1'
_symmetry_Int_Tables_number	1
_symmetry_cell_setting	triclinic
loop_
_symmetry_equiv_pos_as_xyz
  x,y,z
_cell_length_a	27.732064
_cell_length_b	27.732048
_cell_length_c	17.766277
_cell_angle_alpha	89.988664
_cell_angle_beta	89.998268
_cell_angle_gamma	82.646040
loop_
_atom_site_label
_atom_site_type_symbol
_atom_site_fract_x
_atom_site_fract_y
_atom_site_fract_z
O1	O	0.640925	0.057556	-0.062468
O2	O	1.140925	0.557556	0.437532
O3	O	0.500133	0.066293	-0.062500
O4	O	1.000133	0.566293	0.437500
O5	O	0.574902	-0.008472	-0.062469
O6	O	1.074902	0.491528	0.437531
O7	O	0.566156	0.132321	-0.062499
O8	O	1.066156	0.632321	0.437501
O9	O	0.574889	-0.008476	0.062720
O10	O	1.074889	0.491524	0.562720
O11	O	0.500120	0.066289	0.062688
O12	O	1.000120	0.566289	0.562688
O13	O	0.640912	0.057552	0.062721
O14	O	1.140912	0.557552	0.562721
Cu15	Cu	0.570515	0.061920	0.074135
Cu16	Cu	1.070515	0.561920	0.574135
Cu17	Cu	0.570530	0.061925	-0.073915
Cu18	Cu	1.070530	0.561925	0.426085
O19	O	0.566143	0.132317	0.062689
O20	O	1.066143	0.632317	0.562689
C21	C	0.482120	0.066106	0.000090
C22	C	0.982120	0.566106	0.500090
C23	C	0.428465	0.065551	0.000079
C24	C	0.928465	0.565551	0.500079
C25	C	0.051392	0.017583	0.000132
C26	C	0.551392	0.517583	0.500132
C27	C	0.253053	0.019630	0.000112
C28	C	0.753053	0.519630	0.500112
O29	O	0.284305	-0.017591	0.000148
O30	O	0.784305	0.482409	0.500148
N31	N	0.272180	0.063964	0.000099
N32	N	0.772180	0.563964	0.500099
C33	C	0.240889	0.107790	0.000096
C34	C	0.740889	0.607790	0.500096
O35	O	0.261785	0.145546	0.000092
O36	O	0.761785	0.645546	0.500092
C37	C	0.039230	0.105743	0.000121
C38	C	0.539230	0.605743	0.500121
C39	C	0.020105	0.061406	0.000127
C40	C	0.520105	0.561406	0.500127
C41	C	0.032267	-0.026750	0.000138
C42	C	0.532267	0.473250	0.500138
C43	C	-0.018145	-0.027261	0.000139
C44	C	0.481855	0.472739	0.500139
C45	C	-0.049432	0.016561	0.000134
C46	C	0.450568	0.516561	0.500134
C47	C	-0.030307	0.060895	0.000128
C48	C	0.469693	0.560895	0.500128
C49	C	0.007940	0.149568	0.000124
C50	C	0.507940	0.649568	0.500124
C51	C	-0.042478	0.149053	0.000132
C52	C	0.457522	0.649053	0.500132
C53	C	-0.061602	0.104716	0.000137
C54	C	0.438398	0.604716	0.500137
C55	C	-0.112006	0.104206	0.000123
C56	C	0.387994	0.604206	0.500123
N57	N	-0.131134	0.059872	0.000136
N58	N	0.368866	0.559872	0.500136
C59	C	-0.099846	0.016049	0.000142
C60	C	0.400154	0.516049	0.500142
C61	C	0.346763	0.108861	0.000081
C62	C	0.846763	0.608861	0.500081
C63	C	0.397178	0.109373	0.000073
C64	C	0.897178	0.609373	0.500073
C65	C	0.409338	0.021213	0.000091
C66	C	0.909338	0.521213	0.500091
C67	C	0.358923	0.020701	0.000093
C68	C	0.858923	0.520701	0.500093
C69	C	0.327636	0.064527	0.000094
C70	C	0.827636	0.564527	0.500094
C71	C	-0.205716	0.014979	0.000143
C72	C	0.294284	0.514979	0.500143
C73	C	-0.256133	0.014472	0.000141
C74	C	0.243867	0.514472	0.500141
C75	C	-0.268289	0.102632	0.000127
C76	C	0.231711	0.602632	0.500127
C77	C	-0.217876	0.103140	0.000125
C78	C	0.282124	0.603140	0.500125
C79	C	-0.186590	0.059309	0.000136
C80	C	0.313410	0.559309	0.500136
O81	O	-0.143287	0.141407	0.000095
O82	O	0.356713	0.641407	0.500095
O83	O	-0.120752	-0.021701	0.000162
O84	O	0.379248	0.478299	0.500162
C85	C	0.101804	0.018094	0.000131
C86	C	0.601804	0.518094	0.500131
C87	C	0.120930	0.062428	0.000125
C88	C	0.620930	0.562428	0.500125
C89	C	0.089642	0.106250	0.000120
C90	C	0.589642	0.606250	0.500120
C91	C	0.171344	0.062940	0.000117
C92	C	0.671344	0.562940	0.500117
C93	C	0.202631	0.019117	0.000123
C94	C	0.702631	0.519117	0.500123
C95	C	0.183504	-0.025217	0.000136
C96	C	0.683504	0.474783	0.500136
C97	C	0.133092	-0.025728	0.000136
C98	C	0.633092	0.474272	0.500136
C99	C	0.108770	0.150585	0.000107
C100	C	0.608770	0.650585	0.500107
C101	C	0.159183	0.151092	0.000105
C102	C	0.659183	0.651092	0.500105
C103	C	0.190470	0.107270	0.000110
C104	C	0.690470	0.607270	0.500110
C105	C	0.574712	-0.026481	0.000128
C106	C	1.074712	0.473519	0.500128
C107	C	0.574159	-0.080136	0.000134
C108	C	1.074159	0.419864	0.500134
C109	C	0.614862	-0.418948	0.000104
C110	C	1.114862	0.081052	0.500104
C111	C	0.612811	-0.620608	0.000093
C112	C	1.112811	-0.120608	0.500093
O113	O	0.650032	-0.651862	0.000069
O114	O	1.150032	-0.151862	0.500069
N115	N	0.568476	-0.639735	0.000084
N116	N	1.068476	-0.139735	0.500084
C117	C	0.524651	-0.608442	0.000072
C118	C	1.024651	-0.108442	0.500072
O119	O	0.486895	-0.629338	0.000056
O120	O	0.986895	-0.129338	0.500056
C121	C	0.526703	-0.406784	0.000078
C122	C	1.026703	0.093216	0.500078
C123	C	0.571040	-0.387660	0.000095
C124	C	1.071040	0.112340	0.500095
C125	C	0.659196	-0.399824	0.000121
C126	C	1.159196	0.100176	0.500121
C127	C	0.659709	-0.349412	0.000127
C128	C	1.159709	0.150588	0.500127
C129	C	0.615887	-0.318124	0.000118
C130	C	1.115887	0.181876	0.500118
C131	C	0.571553	-0.337248	0.000102
C132	C	1.071553	0.162752	0.500102
C133	C	0.482878	-0.375493	0.000061
C134	C	0.982878	0.124507	0.500061
C135	C	0.483395	-0.325075	0.000060
C136	C	0.983395	0.174925	0.500060
C137	C	0.527733	-0.305952	0.000077
C138	C	1.027733	0.194048	0.500077
C139	C	0.528243	-0.255548	0.000099
C140	C	1.028243	0.244452	0.500099
N141	N	0.572578	-0.236422	0.000109
N142	N	1.072578	0.263578	0.500109
C143	C	0.616400	-0.267710	0.000118
C144	C	1.116400	0.232290	0.500118
C145	C	0.523577	-0.714317	0.000071
C146	C	1.023577	-0.214317	0.500071
C147	C	0.523064	-0.764731	0.000071
C148	C	1.023064	-0.264731	0.500071
C149	C	0.611225	-0.776893	0.000090
C150	C	1.111225	-0.276893	0.500090
C151	C	0.611737	-0.726478	0.000096
C152	C	1.111737	-0.226478	0.500096
C153	C	0.567912	-0.695190	0.000080
C154	C	1.067912	-0.195190	0.500080
C155	C	0.617472	-0.161841	0.000133
C156	C	1.117472	0.338159	0.500133
C157	C	0.617981	-0.111424	0.000143
C158	C	1.117981	0.388576	0.500143
C159	C	0.529821	-0.099266	0.000119
C160	C	1.029821	0.400734	0.500119
C161	C	0.529312	-0.149679	0.000113
C162	C	1.029312	0.350321	0.500113
C163	C	0.573142	-0.180965	0.000118
C164	C	1.073142	0.319035	0.500118
O165	O	0.491043	-0.224267	0.000115
O166	O	0.991043	0.275733	0.500115
O167	O	0.654151	-0.246805	0.000117
O168	O	1.154151	0.253195	0.500117
C169	C	0.614350	-0.469360	0.000097
C170	C	1.114350	0.030640	0.500097
C171	C	0.570016	-0.488484	0.000081
C172	C	1.070016	0.011516	0.500081
C173	C	0.526194	-0.457196	0.000072
C174	C	1.026194	0.042804	0.500072
C175	C	0.569503	-0.538899	0.000081
C176	C	1.069503	-0.038899	0.500081
C177	C	0.613325	-0.570187	0.000091
C178	C	1.113325	-0.070187	0.500091
C179	C	0.657660	-0.551060	0.000100
C180	C	1.157660	-0.051060	0.500100
C181	C	0.658172	-0.500648	0.000107
C182	C	1.158172	-0.000648	0.500107
C183	C	0.481859	-0.476323	0.000063
C184	C	0.981859	0.023677	0.500063
C185	C	0.481351	-0.526735	0.000057
C186	C	0.981351	-0.026735	0.500057
C187	C	0.525172	-0.558023	0.000066
C188	C	1.025172	-0.058023	0.500066
C189	C	0.658925	0.057739	0.000129
C190	C	1.158925	0.557739	0.500129
C191	C	0.712580	0.058295	0.000135
C192	C	1.212580	0.558295	0.500135
C193	C	0.566333	0.150326	0.000091
C194	C	1.066333	0.650326	0.500091
C195	C	0.566886	0.203981	0.000080
C196	C	1.066886	0.703981	0.500080
N197	N	0.570508	0.061917	0.178266
N198	N	1.070508	0.561917	0.678266
N199	N	0.570541	0.061924	-0.178045
N200	N	1.070541	0.561924	0.321955
C201	C	0.603626	0.028827	0.217666
C202	C	1.103626	0.528827	0.717666
C203	C	0.603629	0.028825	0.296468
C204	C	1.103629	0.528825	0.796468
C205	C	0.570518	0.061921	0.335866
C206	C	1.070518	0.561921	0.835866
C207	C	0.537393	0.095013	0.296456
C208	C	1.037393	0.595013	0.796456
C209	C	0.537388	0.095011	0.217656
C210	C	1.037388	0.595011	0.717656
C211	C	0.563855	0.105992	0.460694
C212	C	1.063855	0.605992	0.960694
C213	C	0.563864	0.105994	0.539492
C214	C	1.063864	0.605994	1.039492
C215	C	0.570531	0.061927	0.578912
C216	C	1.070531	0.561927	1.078912
C217	C	0.577199	0.017854	0.539524
C218	C	1.077199	0.517854	1.039524
C219	C	0.577194	0.017852	0.460724
C220	C	1.077194	0.517852	0.960724
C221	C	0.570519	0.061926	0.421312
C222	C	1.070519	0.561926	0.921312
C223	C	0.603654	0.028831	0.703759
C224	C	1.103654	0.528831	1.203759
C225	C	0.603653	0.028829	0.782562
C226	C	1.103653	0.528829	1.282562
C227	C	0.537420	0.095021	0.782549
C228	C	1.037420	0.595021	1.282549
C229	C	0.537418	0.095020	0.703747
C230	C	1.037418	0.595020	1.203747
C231	C	0.570538	0.061926	0.664357
C232	C	1.070538	0.561926	1.164357
H233	H	-0.033711	-0.063365	0.000147
H234	H	0.466289	0.436635	0.500147
C235	C	0.481621	-0.064843	0.000105
C236	C	0.981621	0.435157	0.500105
H237	H	0.488280	-0.032081	0.000102
H238	H	0.988280	0.467919	0.500102
H239	H	0.463415	-0.070608	0.043752
H240	H	0.963415	0.429392	0.543752
H241	H	0.463434	-0.070599	-0.043566
H242	H	0.963434	0.429401	0.456434
C243	C	-0.277167	-0.034301	0.000151
C244	C	0.222833	0.465699	0.500151
H245	H	-0.251310	-0.060325	0.000162
H246	H	0.248690	0.439675	0.500162
H247	H	-0.296581	-0.036333	-0.043503
H248	H	0.203419	0.463667	0.456497
H249	H	-0.296580	-0.036334	0.043815
H250	H	0.203420	0.463666	0.543815
C251	C	0.584529	-0.030623	0.582875
C252	C	1.084529	0.469377	1.082875
H253	H	0.583571	-0.024312	0.635446
H254	H	1.083571	0.475688	1.135446
H255	H	0.615143	-0.048071	0.569965
H256	H	1.115143	0.451929	1.069965
H257	H	0.559387	-0.049390	0.569968
H258	H	1.059387	0.450610	1.069968
C259	C	0.640066	-0.007562	0.174338
C260	C	1.140066	0.492438	0.674338
H261	H	0.635328	-0.002819	0.121763
H262	H	1.135328	0.497181	0.621763
H263	H	0.635078	-0.039795	0.187254
H264	H	1.135078	0.460205	0.687254
H265	H	0.672281	-0.002512	0.187257
H266	H	1.172281	0.497488	0.687257
C267	C	0.432576	-0.547765	0.000035
C268	C	0.932576	-0.047765	0.500035
H269	H	0.406553	-0.521906	0.000023
H270	H	0.906553	-0.021906	0.500023
H271	H	0.430531	-0.567188	0.043685
H272	H	0.930531	-0.067188	0.543685
H273	H	0.430550	-0.567168	-0.043633
H274	H	0.930550	-0.067168	0.456367
H275	H	0.630620	0.001883	0.671687
H276	H	1.130620	0.501883	1.171687
C277	C	0.028966	0.198340	0.000129
C278	C	0.528966	0.698340	0.500129
H279	H	0.003105	0.224361	0.000138
H280	H	0.503105	0.724361	0.500138
H281	H	0.048380	0.200385	-0.043525
H282	H	0.548380	0.700385	0.456475
H283	H	0.048377	0.200367	0.043792
H284	H	0.548377	0.700367	0.543792
C285	C	0.112061	-0.074499	0.000150
C286	C	0.612061	0.425501	0.500150
H287	H	0.137920	-0.100521	0.000160
H288	H	0.637920	0.399479	0.500160
H289	H	0.092646	-0.076535	-0.043502
H290	H	0.592646	0.423465	0.456498
H291	H	0.092650	-0.076535	0.043815
H292	H	0.592650	0.423465	0.543815
H293	H	0.446774	-0.391054	0.000043
H294	H	0.946774	0.108946	0.500043
H295	H	0.694276	-0.485083	0.000120
H296	H	1.194276	0.014917	0.500120
H297	H	0.083300	0.186271	0.000103
H298	H	0.583300	0.686271	0.500103
C299	C	0.217924	-0.073422	0.000139
C300	C	0.717924	0.426578	0.500139
H301	H	0.199317	-0.099903	0.000139
H302	H	0.699317	0.400097	0.500139
H303	H	0.237845	-0.075054	0.043793
H304	H	0.737845	0.424946	0.543793
H305	H	0.237841	-0.075048	-0.043524
H306	H	0.737841	0.424952	0.456476
H307	H	-0.180248	-0.020712	0.000151
H308	H	0.319752	0.479288	0.500151
H309	H	-0.067950	0.184742	0.000136
H310	H	0.432050	0.684742	0.500136
H311	H	0.057737	-0.062438	0.000145
H312	H	0.557737	0.437562	0.500145
H313	H	0.630620	0.001880	0.814643
H314	H	1.130620	0.501880	1.314643
H315	H	-0.202304	0.139243	0.000120
H316	H	0.297696	0.639243	0.500120
C317	C	0.640061	-0.007575	0.339818
C318	C	1.140061	0.492425	0.839818
H319	H	0.659786	-0.027283	0.305073
H320	H	1.159786	0.472717	0.805073
H321	H	0.622828	-0.027578	0.370572
H322	H	1.122828	0.472422	0.870572
H323	H	0.660052	0.009685	0.370545
H324	H	1.160052	0.509685	0.870545
C325	C	0.500999	0.131426	0.825877
C326	C	1.000999	0.631426	1.325877
H327	H	0.505746	0.126690	0.878451
H328	H	1.005746	0.626690	1.378451
H329	H	0.468778	0.126397	0.812970
H330	H	0.968778	0.626397	1.312970
H331	H	0.506008	0.163653	0.812950
H332	H	1.006008	0.663653	1.312950
C333	C	0.705862	-0.585484	0.000105
C334	C	1.205862	-0.085484	0.500105
H335	H	0.699202	-0.618246	0.000092
H336	H	1.199202	-0.118246	0.500092
H337	H	0.724059	-0.579733	0.043762
H338	H	1.224059	-0.079733	0.543762
H339	H	0.724059	-0.579715	-0.043555
H340	H	1.224059	-0.079715	0.456445
C341	C	0.665684	-0.196249	0.000144
C342	C	1.165684	0.303751	0.500144
H343	H	0.692157	-0.177633	0.000162
H344	H	1.192157	0.322367	0.500162
H345	H	0.667328	-0.216164	-0.043512
H346	H	1.167328	0.283836	0.456488
H347	H	0.667312	-0.216173	0.043806
H348	H	1.167312	0.283827	0.543806
C349	C	0.180214	0.199866	0.000101
C350	C	0.680214	0.699866	0.500101
H351	H	0.154356	0.225890	0.000105
H352	H	0.654356	0.725890	0.500105
H353	H	0.199629	0.201908	-0.043553
H354	H	0.699629	0.701908	0.456447
H355	H	0.199624	0.201894	0.043765
H356	H	0.699624	0.701894	0.543765
C357	C	0.666753	-0.090389	0.000162
C358	C	1.166753	0.409611	0.500162
H359	H	0.660785	-0.055882	0.000173
H360	H	1.160785	0.444118	0.500173
H361	H	0.684786	-0.101143	-0.043489
H362	H	1.184786	0.398857	0.456511
H363	H	0.684773	-0.101159	0.043829
H364	H	1.184773	0.398841	0.543829
H365	H	0.582623	-0.018033	0.428657
H366	H	1.082623	0.481967	0.928657
H367	H	0.646906	-0.802377	0.000098
H368	H	1.146906	-0.302377	0.500098
C369	C	0.433652	-0.441912	0.000060
C370	C	0.933652	0.058088	0.500060
H371	H	0.407178	-0.460528	0.000060
H372	H	0.907178	0.039472	0.500060
H373	H	0.432017	-0.421982	-0.043591
H374	H	0.932017	0.078018	0.456409
H375	H	0.432016	-0.422003	0.043727
H376	H	0.932016	0.077997	0.543727
H377	H	0.343355	-0.015402	0.000098
H378	H	0.843355	0.484598	0.500098
H379	H	0.321293	0.144551	0.000081
H380	H	0.821293	0.644551	0.500081
C381	C	-0.302710	0.150833	0.000127
C382	C	0.197290	0.650833	0.500127
H383	H	-0.335473	0.144175	0.000138
H384	H	0.164527	0.644175	0.500138
H385	H	-0.296953	0.169037	-0.043528
H386	H	0.203047	0.669037	0.456472
H387	H	-0.296946	0.169021	0.043789
H388	H	0.203054	0.669021	0.543789
C389	C	0.474293	-0.785761	0.000058
C390	C	0.974293	-0.285761	0.500058
H391	H	0.448270	-0.759903	0.000045
H392	H	0.948270	-0.259903	0.500045
H393	H	0.472251	-0.805181	0.043711
H394	H	0.972251	-0.305181	0.543711
H395	H	0.472265	-0.805168	-0.043606
H396	H	0.972265	-0.305168	0.456394
C397	C	0.556532	0.154471	0.582813
C398	C	1.056532	0.654471	1.082813
H399	H	0.552553	0.180716	0.548052
H400	H	1.052553	0.680716	1.048052
H401	H	0.584133	0.156967	0.613544
H402	H	1.084133	0.656967	1.113544
H403	H	0.528379	0.155640	0.613560
H404	H	1.028379	0.655640	1.113560
C405	C	0.500998	0.131427	0.660400
C406	C	1.000998	0.631427	1.160400
H407	H	0.505736	0.126685	0.607828
H408	H	1.005736	0.626685	1.107828
H409	H	0.506009	0.163651	0.673305
H410	H	1.006009	0.663651	1.173305
H411	H	0.468775	0.126399	0.673318
H412	H	0.968775	0.626399	1.173318
H413	H	0.487888	-0.688846	0.000058
H414	H	0.987888	-0.188846	0.500058
H415	H	0.434821	-0.014469	0.000092
H416	H	0.934821	0.485531	0.500092
C417	C	0.556525	0.154470	0.417339
C418	C	1.056525	0.654470	0.917339
H419	H	0.552563	0.180717	0.452081
H420	H	1.052563	0.680717	0.952081
H421	H	0.528371	0.155643	0.386602
H422	H	1.028371	0.655643	0.886602
H423	H	0.584127	0.156959	0.386596
H424	H	1.084127	0.656959	0.886596
C425	C	0.500974	0.131419	0.339790
C426	C	1.000974	0.631419	0.839790
H427	H	0.505723	0.126685	0.392364
H428	H	1.005723	0.626685	0.892364
H429	H	0.468753	0.126390	0.326887
H430	H	0.968753	0.626390	0.826887
H431	H	0.505983	0.163646	0.326860
H432	H	1.005983	0.663646	0.826860
C433	C	0.418210	0.158144	0.000060
C434	C	0.918210	0.658144	0.500060
H435	H	0.392352	0.184167	0.000065
H436	H	0.892352	0.684167	0.500065
H437	H	0.437622	0.160182	-0.043598
H438	H	0.937622	0.660182	0.456402
H439	H	0.437623	0.160174	0.043720
H440	H	0.937623	0.660174	0.543720
H441	H	0.447706	-0.299603	0.000047
H442	H	0.947706	0.200397	0.500047
H443	H	0.695813	-0.333847	0.000138
H444	H	1.195813	0.166153	0.500138
H445	H	0.694883	-0.425295	0.000125
H446	H	1.194883	0.074705	0.500125
C447	C	0.480542	-0.170716	0.000093
C448	C	0.980542	0.329284	0.500093
H449	H	0.454517	-0.144859	0.000084
H450	H	0.954517	0.355141	0.500084
H451	H	0.478500	-0.190141	0.043740
H452	H	0.978500	0.309859	0.543740
H453	H	0.478518	-0.190117	-0.043578
H454	H	0.978518	0.309883	0.456422
C455	C	0.500960	0.131415	0.174313
C456	C	1.000960	0.631415	0.674313
H457	H	0.481241	0.151128	0.209060
H458	H	0.981241	0.651128	0.709060
H459	H	0.480969	0.114164	0.143579
H460	H	0.980969	0.614164	0.643579
H461	H	0.518199	0.151420	0.143567
H462	H	1.018199	0.651420	0.643567
H463	H	0.647841	-0.710911	0.000109
H464	H	1.147841	-0.210911	0.500109
