data_functionalizedCrystal
_audit_creation_method	'MofGen! by Chris Wilmer'
_symmetry_space_group_name_H-M	'P1'
_symmetry_Int_Tables_number	1
_symmetry_cell_setting	triclinic
loop_
_symmetry_equiv_pos_as_xyz
  x,y,z
_cell_length_a	12.759395
_cell_length_b	16.625545
_cell_length_c	12.759387
_cell_angle_alpha	90.033270
_cell_angle_beta	90.020509
_cell_angle_gamma	90.027095
loop_
_atom_site_label
_atom_site_type_symbol
_atom_site_fract_x
_atom_site_fract_y
_atom_site_fract_z
Zn1	Zn	1.606189	-0.320926	0.593987
Zn2	Zn	1.606047	-0.455781	0.418300
Zn3	Zn	1.430488	-0.320970	0.418324
Zn4	Zn	1.430447	-0.455724	0.593939
O5	O	1.518293	-0.388350	0.506137
O6	O	1.753192	-0.338821	0.570692
O7	O	1.582716	-0.437941	0.271282
O8	O	1.453872	-0.208132	0.441656
O9	O	1.753087	-0.437898	0.441615
O10	O	1.582959	-0.208099	0.570715
O11	O	1.453733	-0.338895	0.271300
O12	O	1.283461	-0.338840	0.441610
O13	O	1.453802	-0.437800	0.740967
O14	O	1.283431	-0.437843	0.570633
O15	O	1.582919	-0.338765	0.741002
O16	O	1.582676	-0.568606	0.441569
O17	O	1.453664	-0.568564	0.570610
C18	C	1.245325	-0.388341	0.506119
C19	C	1.128548	-0.388356	0.506137
C20	C	1.128556	-0.491615	0.640272
C21	C	1.073698	-0.543250	0.707342
C22	C	0.963977	-0.543260	0.707355
C23	C	0.909110	-0.491627	0.640292
C24	C	0.963967	-0.439991	0.573222
C25	C	1.073691	-0.439989	0.573214
C26	C	0.963960	-0.336730	0.439094
C27	C	1.073681	-0.336723	0.439074
C28	C	0.909093	-0.285096	0.372031
C29	C	0.963950	-0.233463	0.304954
C30	C	1.073678	-0.233456	0.304943
C31	C	1.128539	-0.285087	0.372003
C32	C	1.518178	-0.597841	0.506104
C33	C	1.518226	-0.687462	0.506125
C34	C	1.518267	-0.760245	0.506146
C35	C	1.518328	-0.851553	0.506169
C36	C	1.518382	-0.924330	0.506183
C37	C	1.518442	-1.015644	0.506204
C38	C	1.792326	-0.388361	0.506156
C39	C	1.909103	-0.388365	0.506164
C40	C	1.518372	-0.388271	0.780171
C41	C	1.518406	-0.388238	0.896948
C42	C	1.518436	-0.178041	0.506194
C43	C	1.518497	-0.088420	0.506218
C44	C	1.518274	-0.388371	0.233170
C45	C	1.518444	-0.388177	0.116394
C46	C	1.652865	-0.285119	0.897004
C47	C	1.720109	-0.233547	0.951893
C48	C	1.720135	-0.233518	1.061615
C49	C	1.652907	-0.285064	1.116450
C50	C	1.585662	-0.336635	1.061561
C51	C	1.585646	-0.336661	0.951837
C52	C	1.451200	-0.439749	1.061505
C53	C	1.451178	-0.439784	0.951783
C54	C	1.383971	-0.491295	1.116340
C55	C	1.316731	-0.542872	1.061451
C56	C	1.316709	-0.542900	0.951722
C57	C	1.383934	-0.491355	0.896894
H58	H	0.819769	-0.491633	0.640318
C59	C	1.679546	-0.361870	0.739809
C60	C	1.652839	-0.285154	0.776397
H61	H	1.679534	-0.361888	0.665350
H62	H	1.629886	-0.399937	0.764610
H63	H	1.747339	-0.375808	0.764642
H64	H	1.585041	-0.271219	0.751570
H65	H	1.702501	-0.247075	0.751585
C66	C	1.779803	-0.187814	0.783719
C67	C	1.794013	-0.176897	0.891617
H68	H	1.825434	-0.152844	0.746512
H69	H	1.709230	-0.176002	0.765732
H70	H	1.795125	-0.242000	0.765737
H71	H	1.778683	-0.122712	0.909601
H72	H	1.864603	-0.188703	0.909612
C73	C	0.751961	-0.208437	0.399021
C74	C	0.788485	-0.285108	0.372047
H75	H	0.677502	-0.208449	0.399034
H76	H	0.776773	-0.170303	0.349481
H77	H	0.776825	-0.194569	0.466853
H78	H	0.763627	-0.298974	0.304211
H79	H	0.763662	-0.323254	0.421589
H80	H	0.919269	-0.191424	0.250362
C81	C	1.771434	-0.096982	1.095459
C82	C	1.794050	-0.176830	1.121954
H83	H	1.817071	-0.061988	1.132706
H84	H	1.700865	-0.085176	1.113438
H85	H	1.781046	-0.089629	1.022265
H86	H	1.784430	-0.184185	1.195148
H87	H	1.864636	-0.188640	1.103982
C88	C	1.062640	-0.131389	0.172353
C89	C	1.133974	-0.176700	0.231209
H90	H	1.099863	-0.096355	0.126828
H91	H	1.019889	-0.100594	0.218210
H92	H	1.019801	-0.166493	0.132094
H93	H	1.176808	-0.141597	0.271475
H94	H	1.176742	-0.207498	0.185347
H95	H	1.261994	-0.584832	1.106106
C96	C	1.285661	-0.361757	0.345021
C97	C	1.249146	-0.285082	0.371991
H98	H	1.360119	-0.361754	0.345022
H99	H	1.260805	-0.375623	0.277196
H100	H	1.260833	-0.399891	0.394568
H101	H	1.273968	-0.246948	0.322439
H102	H	1.274013	-0.271206	0.439825
C103	C	1.410715	-0.567966	1.273489
C104	C	1.383996	-0.491266	1.236948
H105	H	1.410724	-0.567950	1.347948
H106	H	1.478491	-0.581915	1.248675
H107	H	1.361039	-0.606047	1.248639
H108	H	1.433678	-0.453185	1.261792
H109	H	1.316211	-0.477307	1.261772
C110	C	1.183813	-0.644836	0.962698
C111	C	1.242803	-0.599600	0.891392
H112	H	1.138194	-0.679846	0.925453
H113	H	1.143655	-0.609690	1.005487
H114	H	1.229586	-0.675661	1.005501
H115	H	1.197030	-0.568769	0.848594
H116	H	1.282963	-0.634750	0.848585
H117	H	1.652925	-0.285028	1.205791
C118	C	1.310715	-0.547551	0.739682
C119	C	1.383926	-0.491397	0.776286
H120	H	1.310721	-0.547580	0.665224
H121	H	1.242939	-0.533586	0.764479
H122	H	1.328847	-0.599575	0.764509
H123	H	1.365789	-0.439373	0.751466
H124	H	1.451717	-0.505358	0.751479
C125	C	1.107428	-0.679835	0.758191
C126	C	1.134005	-0.600005	0.781057
H127	H	1.144651	-0.714870	0.803707
H128	H	1.125379	-0.691560	0.687580
H129	H	1.034228	-0.687216	0.767796
H130	H	1.207204	-0.592623	0.771445
H131	H	1.116060	-0.588277	0.851685
H132	H	1.217897	-0.491618	0.640260
H133	H	0.919312	-0.585302	0.761975
