data_functionalizedCrystal
_audit_creation_method	'MofGen! by Chris Wilmer'
_symmetry_space_group_name_H-M	'P1'
_symmetry_Int_Tables_number	1
_symmetry_cell_setting	triclinic
loop_
_symmetry_equiv_pos_as_xyz
  x,y,z
_cell_length_a	10.654562
_cell_length_b	13.262508
_cell_length_c	9.130313
_cell_angle_alpha	105.917062
_cell_angle_beta	89.996930
_cell_angle_gamma	84.462496
loop_
_atom_site_label
_atom_site_type_symbol
_atom_site_fract_x
_atom_site_fract_y
_atom_site_fract_z
O1	O	1.667059	0.147483	-0.063139
O2	O	1.301510	0.161515	-0.057531
O3	O	1.493480	0.001776	-0.121170
O4	O	1.475088	0.307222	0.000499
O5	O	1.493478	0.001780	0.122431
O6	O	1.301507	0.161519	0.186069
O7	O	1.667057	0.147487	0.180461
Cu8	Cu	1.484282	0.154503	0.205508
Cu9	Cu	1.484284	0.154498	-0.082578
O10	O	1.475086	0.307226	0.244100
C11	C	1.254716	0.160484	0.063860
C12	C	1.115290	0.157393	0.062636
C13	C	1.049765	0.155954	0.194837
C14	C	0.918758	0.153058	0.193659
C15	C	0.918811	0.153045	-0.071931
C16	C	1.049817	0.155933	-0.070755
C17	C	1.115238	0.157413	0.328227
C18	C	1.049713	0.155975	0.460439
C19	C	0.918706	0.153079	0.459261
C20	C	0.853224	0.151621	0.325871
C21	C	1.492448	-0.037333	-0.014952
C22	C	1.489362	-0.153872	-0.061382
C23	C	1.480649	-0.482380	0.338902
C24	C	1.483539	-0.372885	0.382527
C25	C	1.484995	-0.318126	0.271554
C26	C	1.483560	-0.372873	0.116947
C27	C	1.480660	-0.482378	0.073318
C28	C	1.485006	-0.318125	0.005970
C29	C	1.483571	-0.372872	-0.148637
C30	C	1.480671	-0.482366	-0.192258
C31	C	1.479215	-0.537125	-0.081285
C32	C	1.487907	-0.208620	0.049599
C33	C	1.487917	-0.208618	-0.215985
C34	C	1.485027	-0.318114	-0.259610
C35	C	1.713850	0.148518	0.059067
C36	C	1.853276	0.151609	0.060281
C37	C	1.476118	0.346335	0.137879
C38	C	1.479205	0.462874	0.184299
N39	N	1.484289	0.154506	0.408132
N40	N	1.484287	0.154487	-0.285205
C41	C	1.569315	0.083798	0.456614
C42	C	1.569312	0.083786	0.609946
C43	C	1.399252	0.225199	0.666303
C44	C	1.399250	0.225205	0.512972
C45	C	1.654354	0.013100	0.351774
C46	C	1.739388	-0.057613	0.400255
C47	C	1.739385	-0.057626	0.553586
C48	C	1.654347	0.013074	0.658438
H49	H	0.746549	0.149261	0.324922
H50	H	1.808617	-0.115181	0.314875
H51	H	1.808615	-0.115210	0.593054
C52	C	1.489520	-0.148397	-0.338072
C53	C	1.598042	-0.174571	-0.458057
C54	C	1.599639	-0.114342	-0.580133
C55	C	1.492714	-0.027940	-0.582223
C56	C	1.384184	-0.001763	-0.462233
C57	C	1.382586	-0.061991	-0.340157
H58	H	1.677202	-0.238535	-0.456514
H59	H	1.679982	-0.133721	-0.668957
H60	H	1.493897	0.016644	-0.672591
H61	H	1.305024	0.062201	-0.463776
H62	H	1.302244	-0.042612	-0.251333
H63	H	0.865484	0.151861	-0.180530
H64	H	1.654367	0.013105	0.226922
C65	C	1.305723	0.302987	0.459635
C66	C	1.212245	0.380802	0.574973
C67	C	1.118711	0.458582	0.521636
C68	C	1.118656	0.458549	0.352961
C69	C	1.212137	0.380732	0.237613
C70	C	1.305671	0.302951	0.290949
H71	H	1.212283	0.380829	0.699845
H72	H	1.049510	0.516187	0.607026
H73	H	1.049416	0.516127	0.313478
H74	H	1.212099	0.380704	0.112740
H75	H	1.374872	0.245346	0.205560
H76	H	1.103167	0.157111	-0.178402
H77	H	1.221910	0.159774	0.329202
C78	C	1.489494	-0.148406	0.219656
C79	C	1.380172	-0.152349	0.327638
C80	C	1.381762	-0.092136	0.497706
C81	C	1.492676	-0.027981	0.559792
C82	C	1.602007	-0.024035	0.451809
C83	C	1.600416	-0.084248	0.281741
H84	H	1.298059	-0.199843	0.281680
H85	H	1.300828	-0.095057	0.577642
H86	H	1.493854	0.016592	0.685687
H87	H	1.684120	0.023459	0.497767
H88	H	1.681351	-0.081327	0.201804
C89	C	1.479032	-0.542625	0.460944
C90	C	1.368104	-0.606782	0.471861
C91	C	1.366479	-0.667033	0.593907
C92	C	1.475783	-0.663127	0.705036
C93	C	1.586720	-0.598968	0.694124
C94	C	1.588344	-0.538717	0.572077
H95	H	1.287183	-0.609675	0.389593
H96	H	1.284356	-0.714528	0.601985
H97	H	1.474581	-0.707729	0.795382
H98	H	1.667640	-0.596074	0.776392
H99	H	1.670467	-0.491222	0.564000
H100	H	1.103039	0.157154	0.569037
H101	H	1.487347	-0.228970	0.307083
H102	H	0.865361	0.151900	0.566911
H103	H	1.476868	-0.626285	-0.116797
H104	H	1.484721	-0.328319	0.508407
H105	H	1.479492	-0.526937	-0.318149
H106	H	1.483857	-0.362704	-0.385493
H107	H	1.654343	0.013051	0.783286
H108	H	1.330018	0.282761	0.751682
