data_functionalizedCrystal
_audit_creation_method	'MofGen! by Chris Wilmer'
_symmetry_space_group_name_H-M	'P1'
_symmetry_Int_Tables_number	1
_symmetry_cell_setting	triclinic
loop_
_symmetry_equiv_pos_as_xyz
  x,y,z
_cell_length_a	14.908571
_cell_length_b	16.959454
_cell_length_c	14.908694
_cell_angle_alpha	93.271572
_cell_angle_beta	83.592472
_cell_angle_gamma	86.716421
loop_
_atom_site_label
_atom_site_type_symbol
_atom_site_fract_x
_atom_site_fract_y
_atom_site_fract_z
Zn1	Zn	1.413345	-0.416138	-0.591530
Zn2	Zn	1.913345	0.083862	-0.091530
Zn3	Zn	1.404514	-0.540230	-0.440172
Zn4	Zn	1.904514	-0.040230	0.059828
Zn5	Zn	1.253246	-0.399970	-0.431464
Zn6	Zn	1.753246	0.100030	0.068536
Zn7	Zn	1.261946	-0.540169	-0.582770
Zn8	Zn	1.761946	-0.040169	-0.082770
O9	O	1.333263	-0.474127	-0.511484
O10	O	1.833263	0.025873	-0.011484
O11	O	1.538840	-0.439390	-0.578762
O12	O	2.038840	0.060610	-0.078762
O13	O	1.377112	-0.514884	-0.312351
O14	O	1.877112	-0.014884	0.187649
O15	O	1.274539	-0.291508	-0.452719
O16	O	1.774539	0.208492	0.047281
O17	O	1.532352	-0.530561	-0.467560
O18	O	2.032352	-0.030561	0.032440
O19	O	1.392162	-0.303386	-0.570319
O20	O	1.892162	0.196614	-0.070319
O21	O	1.265976	-0.411835	-0.305953
O22	O	1.765976	0.088165	0.194047
O23	O	1.127733	-0.411776	-0.444225
O24	O	1.627733	0.088224	0.055775
O25	O	1.289365	-0.530456	-0.710598
O26	O	1.789365	-0.030456	-0.210598
O27	O	1.134125	-0.514779	-0.555389
O28	O	1.634125	-0.014779	-0.055389
O29	O	1.400598	-0.439331	-0.717034
O30	O	1.900598	0.060669	-0.217034
O31	O	1.385547	-0.650829	-0.459065
O32	O	1.885547	-0.150829	0.040935
O33	O	1.280802	-0.650784	-0.563832
O34	O	1.780802	-0.150784	-0.063832
C35	C	1.098086	-0.461517	-0.497912
C36	C	1.598086	0.038483	0.002088
C37	C	0.997477	-0.456143	-0.492127
C38	C	1.497477	0.043857	0.007873
C39	C	0.815118	-0.553450	-0.596856
C40	C	1.315118	-0.053450	-0.096856
C41	C	0.720587	-0.548404	-0.591424
C42	C	1.220587	-0.048404	-0.091424
C43	C	0.713885	-0.440999	-0.475836
C44	C	1.213885	0.059001	0.024164
C45	C	0.808415	-0.446046	-0.481268
C46	C	1.308415	0.053954	0.018732
C47	C	0.859028	-0.502274	-0.541780
C48	C	1.359028	-0.002274	-0.041780
C49	C	0.953560	-0.507325	-0.547206
C50	C	1.453560	-0.007325	-0.047206
C51	C	0.946856	-0.399917	-0.431624
C52	C	1.446856	0.100083	0.068376
C53	C	0.852326	-0.394870	-0.426192
C54	C	1.352326	0.105130	0.073808
C55	C	1.333186	-0.679488	-0.511464
C56	C	1.833186	-0.179488	-0.011464
C57	C	1.333238	-0.767349	-0.511491
C58	C	1.833238	-0.267349	-0.011491
C59	C	1.278806	-1.138836	-0.566034
C60	C	1.778806	-0.638836	-0.066034
C61	C	1.387977	-1.138833	-0.457040
C62	C	1.887977	-0.638833	0.042960
C63	C	1.387945	-1.056285	-0.457030
C64	C	1.887945	-0.556285	0.042970
C65	C	1.333341	-1.015008	-0.511522
C66	C	1.833341	-0.515008	-0.011522
C67	C	1.278770	-1.056280	-0.566024
C68	C	1.778770	-0.556280	-0.066024
C69	C	1.442508	-1.015006	-0.402522
C70	C	1.942508	-0.515006	0.097478
C71	C	1.442477	-0.932453	-0.402509
C72	C	1.942477	-0.432453	0.097491
C73	C	1.387878	-0.891176	-0.457006
C74	C	1.887878	-0.391176	0.042994
C75	C	1.333306	-0.932452	-0.511511
C76	C	1.833306	-0.432452	-0.011511
C77	C	1.278702	-0.891176	-0.566003
C78	C	1.778702	-0.391176	-0.066003
C79	C	1.224134	-0.932452	-0.620514
C80	C	1.724134	-0.432452	-0.120514
C81	C	1.224171	-1.015002	-0.620521
C82	C	1.724171	-0.515002	-0.120521
C83	C	1.387841	-0.808625	-0.456999
C84	C	1.887841	-0.308625	0.043001
C85	C	1.278666	-0.808620	-0.565993
C86	C	1.778666	-0.308620	-0.065993
C87	C	1.569358	-0.486786	-0.525109
C88	C	2.069358	0.013214	-0.025109
C89	C	1.669968	-0.492181	-0.530916
C90	C	2.169968	0.007819	-0.030916
C91	C	1.346937	-0.486690	-0.747577
C92	C	1.846937	0.013310	-0.247577
C93	C	1.352764	-0.492044	-0.848186
C94	C	1.852764	0.007956	-0.348186
C95	C	1.333365	-0.267966	-0.511525
C96	C	1.833365	0.232034	-0.011525
C97	C	1.333409	-0.180112	-0.511542
C98	C	1.833409	0.319888	-0.011542
C99	C	1.247967	-0.394801	-1.030580
C100	C	1.747967	0.105199	-0.530580
C101	C	1.253439	-0.399829	-1.125110
C102	C	1.753439	0.100171	-0.625110
C103	C	1.369175	-0.507130	-1.131780
C104	C	1.869175	-0.007130	-0.631780
C105	C	1.363703	-0.502103	-1.037249
C106	C	1.863703	-0.002103	-0.537249
C107	C	1.303098	-0.445935	-0.986652
C108	C	1.803098	0.054065	-0.486652
C109	C	1.297631	-0.440904	-0.892120
C110	C	1.797631	0.059096	-0.392120
C111	C	1.413361	-0.548209	-0.898791
C112	C	1.913361	-0.048209	-0.398791
C113	C	1.418833	-0.553237	-0.993322
C114	C	1.918833	-0.053237	-0.493322
C115	C	1.319694	-0.461558	-0.276312
C116	C	1.819694	0.038442	0.223688
C117	C	1.314042	-0.455991	-0.175714
C118	C	1.814042	0.044009	0.324286
H119	H	0.856328	-0.599238	-0.646122
H120	H	1.356328	-0.099238	-0.146122
N121	N	1.008149	-0.567972	-0.612466
N122	N	1.508149	-0.067972	-0.112466
H123	H	0.995465	-0.558343	-0.676219
H124	H	1.495465	-0.058343	-0.176219
H125	H	1.074677	-0.563378	-0.607473
H126	H	1.574677	-0.063378	-0.107473
H127	H	0.684839	-0.590075	-0.636276
H128	H	1.184839	-0.090075	-0.136276
H129	H	1.458256	-0.589844	-0.863015
H130	H	1.958256	-0.089844	-0.363015
N131	N	1.434518	-0.567721	-1.186358
N132	N	1.934518	-0.067721	-0.686358
H133	H	1.429609	-0.563149	-1.252907
H134	H	1.929609	-0.063149	-0.752907
H135	H	1.498220	-0.558016	-1.173584
H136	H	1.998220	-0.058016	-0.673584
N137	N	1.165311	-1.059516	-0.679304
N138	N	1.665311	-0.559516	-0.179304
H139	H	1.204504	-1.097941	-0.723403
H140	H	1.704504	-0.597941	-0.223403
H141	H	1.121285	-1.089543	-0.639999
H142	H	1.621285	-0.589543	-0.139999
H143	H	1.179671	-0.898834	-0.664877
H144	H	1.679671	-0.398834	-0.164877
N145	N	0.659284	-0.380360	-0.410576
N146	N	1.159284	0.119640	0.089424
H147	H	0.701443	-0.348703	-0.376505
H148	H	1.201443	0.151297	0.123495
H149	H	0.622221	-0.343701	-0.445242
H150	H	1.122221	0.156299	0.054758
H151	H	0.811104	-0.349089	-0.376928
H152	H	1.311104	0.150911	0.123072
N153	N	1.484188	-0.613821	-1.047895
N154	N	1.984188	-0.113821	-0.547895
H155	H	1.479288	-0.609251	-1.114446
H156	H	1.979288	-0.109251	-0.614446
H157	H	1.547885	-0.604105	-1.035111
H158	H	2.047885	-0.104105	-0.535111
N159	N	0.994215	-0.344720	-0.372208
N160	N	1.494215	0.155280	0.127792
H161	H	1.061780	-0.356449	-0.384826
H162	H	1.561780	0.143551	0.115174
H163	H	0.978532	-0.288159	-0.385450
H164	H	1.478532	0.211841	0.114550
N165	N	1.219776	-0.764103	-0.624771
N166	N	1.719776	-0.264103	-0.124771
H167	H	1.185216	-0.802779	-0.659301
H168	H	1.685216	-0.302779	-0.159301
H169	H	1.175763	-0.725684	-0.585472
H170	H	1.675763	-0.225684	-0.085472
H171	H	1.234380	-1.172446	-0.610418
H172	H	1.734380	-0.672446	-0.110418
H173	H	1.432427	-1.172445	-0.412670
H174	H	1.932427	-0.672445	0.087330
H175	H	1.198629	-0.349061	-0.989383
H176	H	1.698629	0.150939	-0.489383
H177	H	1.486956	-1.048619	-0.358151
H178	H	1.986956	-0.548619	0.141849
H179	H	1.486910	-0.898852	-0.358125
H180	H	1.986910	-0.398852	0.141875
N181	N	1.446682	-0.764105	-0.398207
N182	N	1.946682	-0.264105	0.101793
H183	H	1.481274	-0.802779	-0.363685
H184	H	1.981274	-0.302779	0.136315
H185	H	1.490667	-0.734025	-0.437495
H186	H	1.990667	-0.234025	0.062505
H187	H	1.248287	-0.395167	-0.850925
H188	H	1.748287	0.104833	-0.350925
H189	H	1.208546	-0.358190	-1.160872
H190	H	1.708546	0.141810	-0.660872
