data_functionalizedCrystal
_audit_creation_method	'MofGen! by Chris Wilmer'
_symmetry_space_group_name_H-M	'P1'
_symmetry_Int_Tables_number	1
_symmetry_cell_setting	triclinic
loop_
_symmetry_equiv_pos_as_xyz
  x,y,z
_cell_length_a	19.805407
_cell_length_b	12.759393
_cell_length_c	19.805405
_cell_angle_alpha	90.036578
_cell_angle_beta	89.973590
_cell_angle_gamma	89.978535
loop_
_atom_site_label
_atom_site_type_symbol
_atom_site_fract_x
_atom_site_fract_y
_atom_site_fract_z
Zn1	Zn	1.034748	-0.594053	0.269430
Zn2	Zn	1.034659	-0.418355	0.382633
Zn3	Zn	0.921559	-0.418380	0.269463
Zn4	Zn	0.921526	-0.593983	0.382583
O5	O	0.978123	-0.506193	0.326027
O6	O	1.129453	-0.570765	0.284454
O7	O	1.019633	-0.271337	0.367656
O8	O	0.936625	-0.441723	0.174742
O9	O	1.129388	-0.441680	0.367624
O10	O	1.019784	-0.570789	0.174718
O11	O	0.936539	-0.271355	0.284510
O12	O	0.826838	-0.441655	0.284462
O13	O	0.936569	-0.741014	0.367538
O14	O	0.826814	-0.570670	0.367570
O15	O	1.019753	-0.741065	0.284405
O16	O	1.019601	-0.441612	0.477343
O17	O	0.936483	-0.570646	0.477306
C18	C	0.802267	-0.506159	0.326014
C19	C	0.727035	-0.506169	0.326025
C20	C	0.691696	-0.573239	0.369365
C21	C	0.621008	-0.573253	0.369366
C22	C	0.585660	-0.506193	0.326030
C23	C	0.621004	-0.439120	0.282686
C24	C	0.691691	-0.439111	0.282682
C25	C	0.335930	-0.439155	0.282701
C26	C	0.265238	-0.439167	0.282710
C27	C	0.265248	-0.573297	0.369385
C28	C	0.335935	-0.573288	0.369381
C29	C	0.371272	-0.506220	0.326034
C30	C	0.447921	-0.506206	0.326033
C31	C	0.509013	-0.506200	0.326035
C32	C	0.978167	-0.780226	0.325962
C33	C	0.978186	-0.897003	0.325935
C34	C	0.934887	-0.951840	0.369201
C35	C	0.934911	-1.061564	0.369176
C36	C	1.021535	-1.061604	0.282612
C37	C	1.021514	-0.951882	0.282641
C38	C	0.910712	-1.211483	0.448959
C39	C	0.867402	-1.266324	0.492220
C40	C	0.801346	-1.230702	0.502615
C41	C	0.778586	-1.140241	0.469739
C42	C	0.821892	-1.085406	0.426473
C43	C	0.887958	-1.121026	0.416091
C44	C	1.045706	-0.801961	0.202857
C45	C	1.089009	-0.747124	0.159587
C46	C	1.155066	-0.782744	0.149185
C47	C	1.177824	-0.873209	0.182049
C48	C	1.134521	-0.928046	0.225319
C49	C	1.068464	-0.892418	0.235722
C50	C	1.154666	-0.506227	0.326041
C51	C	1.229898	-0.506242	0.326047
C52	C	0.978047	-0.506142	0.501883
C53	C	0.978077	-0.506155	0.577115
C54	C	0.978119	-0.233225	0.326043
C55	C	0.978231	-0.116449	0.325880
C56	C	0.978218	-0.506267	0.149485
C57	C	0.978259	-0.506298	0.074253
C58	C	1.021398	-0.439038	0.612456
C59	C	1.021427	-0.439061	0.683145
C60	C	0.978130	-0.506197	0.718491
C61	C	0.934806	-0.573322	0.683145
C62	C	0.934782	-0.573303	0.612458
C63	C	0.934906	-0.573400	0.968218
C64	C	0.934933	-0.573411	1.038910
C65	C	1.021552	-0.439157	1.038905
C66	C	1.021527	-0.439139	0.968218
C67	C	0.978206	-0.506267	0.932878
C68	C	0.978176	-0.506243	0.856230
C69	C	0.978156	-0.506217	0.795138
H70	H	0.236460	-0.384558	0.247417
H71	H	0.803360	-1.011756	0.399704
H72	H	0.720472	-0.627844	0.404656
H73	H	0.899556	-0.627990	0.711929
H74	H	0.899602	-0.907160	0.404450
C75	C	0.887675	-0.646219	0.574207
C76	C	0.849750	-0.705001	0.620289
C77	C	0.806345	-0.772179	0.585078
H78	H	0.913469	-0.692116	0.546587
H79	H	0.858150	-0.606009	0.546688
H80	H	0.879271	-0.745208	0.647796
H81	H	0.823942	-0.659131	0.647910
H82	H	0.776821	-0.731970	0.557560
H83	H	0.832145	-0.818070	0.557460
H84	H	0.780604	-0.812064	0.616340
H85	H	0.724793	-1.111252	0.478200
H86	H	0.236467	-0.627911	0.404677
C87	C	1.068622	-0.366252	0.721368
C88	C	1.135545	-0.389283	0.704019
C89	C	1.179065	-0.322224	0.739182
H90	H	1.062586	-0.375756	0.768551
H91	H	1.058790	-0.295629	0.709795
H92	H	1.145374	-0.459888	0.715596
H93	H	1.141603	-0.379773	0.656842
H94	H	1.169233	-0.251602	0.727609
H95	H	1.173023	-0.331733	0.786363
H96	H	1.224477	-0.337835	0.727411
H97	H	0.964503	-1.240488	0.440506
H98	H	0.592218	-0.384523	0.247398
C99	C	0.887843	-0.646139	1.077324
C100	C	0.844482	-0.586602	1.117957
C101	C	0.801091	-0.653557	1.153347
H102	H	0.913654	-0.691973	1.104911
H103	H	0.862001	-0.686100	1.046175
H104	H	0.870321	-0.546658	1.149103
H105	H	0.818656	-0.540771	1.090387
H106	H	0.775248	-0.693518	1.122198
H107	H	0.826907	-0.699387	1.180930
H108	H	0.771661	-0.613171	1.180916
H109	H	0.592238	-0.627867	0.404658
H110	H	1.056781	-0.384467	0.939441
C111	C	0.887901	-0.646437	0.929946
C112	C	0.902588	-0.750413	0.947091
C113	C	0.859289	-0.817723	0.911854
H114	H	0.894038	-0.636964	0.882773
H115	H	0.842425	-0.631048	0.941596
H116	H	0.948053	-0.765797	0.935436
H117	H	0.896448	-0.759920	0.994258
H118	H	0.813814	-0.802334	0.923504
H119	H	0.865429	-0.808240	0.864683
H120	H	0.869245	-0.888277	0.923487
H121	H	0.766083	-1.275362	0.537839
H122	H	1.153055	-1.001710	0.252076
C123	C	0.730096	-0.366463	0.235545
C124	C	0.770698	-0.426069	0.192192
C125	C	0.806077	-0.359183	0.148751
H126	H	0.757703	-0.320588	0.261320
H127	H	0.698941	-0.326543	0.209698
H128	H	0.801849	-0.465971	0.218036
H129	H	0.743107	-0.471941	0.166402
H130	H	0.774922	-0.319262	0.122904
H131	H	0.833680	-0.313311	0.174531
H132	H	0.833625	-0.399615	0.119327
H133	H	1.056810	-1.106301	0.247362
C134	C	0.892056	-1.364456	0.528042
C135	C	0.887889	-1.349688	0.597977
C136	C	0.910581	-1.440070	0.630995
H137	H	0.937609	-1.377903	0.515747
H138	H	0.864712	-1.422339	0.515302
H139	H	0.915234	-1.291822	0.610712
H140	H	0.842343	-1.336255	0.610292
H141	H	0.883237	-1.497954	0.618255
H142	H	0.956132	-1.453510	0.618695
H143	H	0.907751	-1.430066	0.678449
H144	H	1.056653	-0.384363	0.583682
H145	H	1.231612	-0.902216	0.173575
C146	C	1.068581	-0.366416	1.077397
C147	C	1.059360	-0.380828	1.146868
C148	C	1.102680	-0.313855	1.182345
H149	H	1.058750	-0.295759	1.065946
H150	H	1.114058	-0.381883	1.065797
H151	H	1.013893	-0.365353	1.158463
H152	H	1.069196	-0.451471	1.158339
H153	H	1.148158	-0.329323	1.170745
H154	H	1.092846	-0.243203	1.170889
H155	H	1.096434	-0.323631	1.229484
C156	C	1.201994	-0.723024	0.102213
C157	C	1.167935	-0.636161	0.075666
C158	C	1.211149	-0.581114	0.032407
H159	H	1.215932	-0.767622	0.066399
H160	H	1.240473	-0.699990	0.126696
H161	H	1.129469	-0.659195	0.051183
H162	H	1.153999	-0.591538	0.111464
H163	H	1.249627	-0.558080	0.056891
H164	H	1.225083	-0.625720	-0.003402
H165	H	1.188048	-0.522166	0.014395
H166	H	0.364712	-0.627892	0.404672
C167	C	0.374169	-0.366226	0.235614
C168	C	0.328080	-0.307483	0.197678
C169	C	0.363284	-0.240279	0.154298
H170	H	0.401767	-0.406383	0.206091
H171	H	0.401709	-0.320313	0.261448
H172	H	0.300552	-0.353390	0.171846
H173	H	0.300482	-0.267304	0.227184
H174	H	0.390824	-0.194366	0.180132
H175	H	0.390880	-0.280445	0.124779
H176	H	0.332018	-0.200407	0.128558
C177	C	0.973946	-0.763399	0.214084
C178	C	0.939476	-0.761975	0.152387
C179	C	0.873368	-0.726490	0.162731
H180	H	0.974994	-0.694652	0.232486
H181	H	0.951432	-0.809058	0.244546
H182	H	0.961984	-0.716316	0.121936
H183	H	0.938409	-0.830710	0.133976
H184	H	0.850854	-0.772150	0.193192
H185	H	0.874423	-0.657745	0.181134
H186	H	0.849970	-0.725528	0.120873
H187	H	1.070472	-0.673468	0.132823
