data_functionalizedCrystal
_audit_creation_method	'MofGen! by Chris Wilmer'
_symmetry_space_group_name_H-M	'P1'
_symmetry_Int_Tables_number	1
_symmetry_cell_setting	triclinic
loop_
_symmetry_equiv_pos_as_xyz
  x,y,z
_cell_length_a	12.837943
_cell_length_b	16.109301
_cell_length_c	15.186229
_cell_angle_alpha	90.005167
_cell_angle_beta	90.002255
_cell_angle_gamma	89.145210
loop_
_atom_site_label
_atom_site_type_symbol
_atom_site_fract_x
_atom_site_fract_y
_atom_site_fract_z
O1	O	-1.375379	-0.216129	-0.073219
O2	O	-1.073577	-0.205453	-0.073224
O3	O	-1.232769	-0.090419	-0.073212
O4	O	-1.216187	-0.331163	-0.073230
O5	O	-1.232758	-0.090416	0.073245
O6	O	-1.073567	-0.205450	0.073234
O7	O	-1.375369	-0.216127	0.073238
Zn8	Zn	-1.224466	-0.210788	0.096489
Zn9	Zn	-1.224480	-0.210791	-0.096475
O10	O	-1.216177	-0.331161	0.073227
C11	C	-1.034953	-0.201845	0.000004
C12	C	-0.919879	-0.191088	0.000003
N13	N	-1.224464	-0.210786	0.228182
C14	C	-1.413993	-0.219735	0.000008
C15	C	-1.529067	-0.230491	0.000004
C16	C	-0.678877	-0.320405	0.000006
C17	C	-0.570755	-0.310302	0.000005
C18	C	-0.595510	-0.160779	0.000007
C19	C	-0.703632	-0.170882	0.000008
C20	C	-0.745312	-0.250698	0.000006
C21	C	-0.853436	-0.260800	0.000000
C22	C	-0.878189	-0.111278	0.000008
C23	C	-0.770067	-0.101175	0.000008
C24	C	-1.232092	-0.059389	0.000017
C25	C	-1.230078	0.033066	0.000018
C26	C	-1.216854	-0.362190	-0.000004
C27	C	-1.218868	-0.454645	-0.000011
C28	C	-1.319857	0.248206	0.000006
C29	C	-1.317957	0.335078	-0.000002
C30	C	-1.129081	0.330208	-0.000001
C31	C	-1.130983	0.243338	-0.000000
C32	C	-1.226374	0.202340	0.000008
C33	C	-1.222572	0.376081	-0.000001
C34	C	-1.220511	0.470271	-0.000009
C35	C	-1.228435	0.108144	0.000014
N36	N	-1.224490	-0.210788	-0.228167
C37	C	-1.294978	-0.159869	0.453910
C38	C	-1.294981	-0.159868	0.546099
C39	C	-1.153968	-0.261706	0.546098
C40	C	-1.153961	-0.261703	0.453910
C41	C	-1.224472	-0.210786	0.407818
C42	C	-1.224482	-0.210787	0.592196
C43	C	-1.224485	-0.210786	0.692152
C44	C	-1.224468	-0.210786	0.307856
H45	H	-0.712813	-0.385393	0.000003
H46	H	-1.054852	0.205992	-0.000001
H47	H	-0.887369	-0.325790	0.000000
C48	C	-0.805397	0.045606	0.000004
C49	C	-0.724248	-0.013445	0.000006
H50	H	-0.777110	0.099767	0.000006
H51	H	-0.847053	0.038548	-0.051066
H52	H	-0.847053	0.038557	0.051081
H53	H	-0.682596	-0.006399	-0.051074
H54	H	-0.682574	-0.006384	0.051081
H55	H	-1.352391	-0.118409	0.416384
H56	H	-0.932293	-0.054518	0.000002
C57	C	-1.434373	-0.059215	0.536835
C58	C	-1.372489	-0.103902	0.596763
H59	H	-1.482228	-0.024667	0.568114
H60	H	-1.391237	-0.025871	0.500887
H61	H	-1.471638	-0.096804	0.500869
H62	H	-1.335218	-0.066314	0.632724
H63	H	-1.415630	-0.137248	0.632726
H64	H	-1.397531	0.214828	0.000010
H65	H	-1.096562	-0.303163	0.583636
C66	C	-1.014578	-0.362377	0.463162
C67	C	-1.076457	-0.317677	0.403240
H68	H	-0.966737	-0.396933	0.431878
H69	H	-0.977308	-0.324803	0.499125
H70	H	-1.057727	-0.395722	0.499111
H71	H	-1.033309	-0.284327	0.367294
H72	H	-1.113730	-0.355256	0.367261
H73	H	-1.394081	0.372419	-0.000005
C74	C	-0.557151	-0.459111	-0.000006
C75	C	-0.497728	-0.386926	-0.000003
H76	H	-0.512065	-0.506417	-0.000016
H77	H	-0.599829	-0.459940	0.051065
H78	H	-0.599846	-0.459938	-0.051081
H79	H	-0.455039	-0.386096	0.051076
H80	H	-0.455032	-0.386097	-0.051079
C81	C	-0.488265	-0.062684	-0.075269
C82	C	-0.549680	-0.073053	0.000015
H83	H	-0.459976	-0.008523	-0.075263
H84	H	-0.433235	-0.102754	-0.075262
H85	H	-0.529940	-0.069730	-0.126339
H86	H	-0.508002	-0.066012	0.051086
H87	H	-0.604717	-0.032971	0.000016
C88	C	-1.042301	0.461212	0.000009
C89	C	-1.024231	0.375277	0.000003
H90	H	-0.977568	0.489032	0.000019
H91	H	-1.080783	0.476441	-0.051063
H92	H	-1.080794	0.476443	0.051084
H93	H	-0.985744	0.360045	-0.051076
H94	H	-0.985734	0.360041	0.051080
