data_functionalizedCrystal
_audit_creation_method	'MofGen! by Chris Wilmer'
_symmetry_space_group_name_H-M	'P1'
_symmetry_Int_Tables_number	1
_symmetry_cell_setting	triclinic
loop_
_symmetry_equiv_pos_as_xyz
  x,y,z
_cell_length_a	19.077236
_cell_length_b	19.077068
_cell_length_c	19.076919
_cell_angle_alpha	94.470751
_cell_angle_beta	89.887323
_cell_angle_gamma	94.708605
loop_
_atom_site_label
_atom_site_type_symbol
_atom_site_fract_x
_atom_site_fract_y
_atom_site_fract_z
Zn1	Zn	1.047584	-0.256314	-0.450390
Zn2	Zn	1.380917	0.077019	-0.117057
Zn3	Zn	1.714251	0.410352	0.216276
Zn4	Zn	1.047497	-0.369471	-0.337231
Zn5	Zn	1.380830	-0.036138	-0.003898
Zn6	Zn	1.714163	0.297196	0.329435
Zn7	Zn	0.934815	-0.255944	-0.328156
Zn8	Zn	1.268148	0.077389	0.005177
Zn9	Zn	1.601482	0.410723	0.338511
Zn10	Zn	0.924923	-0.378891	-0.450332
Zn11	Zn	1.258256	-0.045558	-0.116998
Zn12	Zn	1.591589	0.287776	0.216335
O13	O	0.988705	-0.315155	-0.391527
O14	O	1.322038	0.018178	-0.058194
O15	O	1.655371	0.351511	0.275139
O16	O	1.146064	-0.267537	-0.439202
O17	O	1.479398	0.065796	-0.105869
O18	O	1.812731	0.399129	0.227465
O19	O	1.036653	-0.350314	-0.237539
O20	O	1.369986	-0.016981	0.095794
O21	O	1.703320	0.316352	0.429127
O22	O	0.953950	-0.157183	-0.340597
O23	O	1.287284	0.176150	-0.007264
O24	O	1.620617	0.509484	0.326070
O25	O	1.146000	-0.350673	-0.356065
O26	O	1.479334	-0.017340	-0.022731
O27	O	1.812667	0.315993	0.310602
O28	O	1.036801	-0.157455	-0.430402
O29	O	1.370135	0.175878	-0.097069
O30	O	1.703468	0.509212	0.236265
O31	O	0.953866	-0.266906	-0.230872
O32	O	1.287199	0.066427	0.102462
O33	O	1.620533	0.399760	0.435795
O34	O	0.835011	-0.276041	-0.340540
O35	O	1.168344	0.057293	-0.007207
O36	O	1.501677	0.390626	0.326126
O37	O	0.937090	-0.366728	-0.548828
O38	O	1.270424	-0.033395	-0.215494
O39	O	1.603757	0.299938	0.117839
O40	O	0.827743	-0.366369	-0.430302
O41	O	1.161076	-0.033036	-0.096969
O42	O	1.494410	0.300297	0.236365
O43	O	1.027209	-0.276672	-0.548871
O44	O	1.360542	0.056662	-0.215537
O45	O	1.693876	0.389995	0.117796
O46	O	1.027061	-0.469531	-0.356008
O47	O	1.360394	-0.136198	-0.022675
O48	O	1.693727	0.197136	0.310659
O49	O	0.937006	-0.476452	-0.439102
O50	O	1.270339	-0.143118	-0.105769
O51	O	1.603673	0.190215	0.227565
C52	C	0.805839	-0.322188	-0.384430
C53	C	1.139172	0.011146	-0.051097
C54	C	1.472506	0.344479	0.282236
C55	C	0.727607	-0.325214	-0.381412
C56	C	1.060940	0.008120	-0.048078
C57	C	1.394273	0.341453	0.285255
C58	C	0.690881	-0.283426	-0.423350
C59	C	1.024215	0.049908	-0.090017
C60	C	1.357548	0.383241	0.243317
C61	C	0.617374	-0.286266	-0.420507
C62	C	0.950708	0.047068	-0.087174
C63	C	1.284041	0.380401	0.246159
C64	C	0.580594	-0.330898	-0.375730
C65	C	0.913927	0.002436	-0.042396
C66	C	1.247260	0.335769	0.290937
C67	C	0.617325	-0.372687	-0.333787
C68	C	0.950658	-0.039354	-0.000453
C69	C	1.283991	0.293979	0.332880
C70	C	0.690831	-0.369843	-0.336626
C71	C	1.024164	-0.036510	-0.003293
C72	C	1.357497	0.296823	0.330041
C73	C	0.360752	-0.344033	-0.362585
C74	C	0.694085	-0.010700	-0.029252
C75	C	1.027418	0.322633	0.304082
C76	C	0.287240	-0.346876	-0.359750
C77	C	0.620574	-0.013542	-0.026417
C78	C	0.953907	0.319791	0.306916
C79	C	0.287295	-0.260453	-0.446471
C80	C	0.620629	0.072881	-0.113137
C81	C	0.953962	0.406214	0.220196
C82	C	0.360802	-0.257616	-0.449309
C83	C	0.694136	0.075718	-0.115976
C84	C	1.027469	0.409051	0.217358
C85	C	0.397527	-0.299403	-0.407363
C86	C	0.730860	0.033931	-0.074030
C87	C	1.064194	0.367264	0.259303
N88	N	0.505458	-0.333803	-0.372825
N89	N	0.838791	-0.000470	-0.039491
N90	N	1.172124	0.332864	0.293842
N91	N	0.472662	-0.296493	-0.410265
N92	N	0.805995	0.036840	-0.076932
N93	N	1.139329	0.370174	0.256402
C94	C	0.980969	-0.498612	-0.398550
C95	C	1.314302	-0.165278	-0.065216
C96	C	1.647635	0.168055	0.268117
C97	C	0.977723	-0.577094	-0.401580
C98	C	1.311056	-0.243760	-0.068246
C99	C	1.644390	0.089573	0.265087
C100	C	1.023118	-0.610338	-0.359779
C101	C	1.356451	-0.277005	-0.026446
C102	C	1.689785	0.056329	0.306887
C103	C	1.020069	-0.684080	-0.362634
C104	C	1.353402	-0.350747	-0.029300
C105	C	1.686736	-0.017414	0.304033
C106	C	0.971621	-0.724577	-0.407285
C107	C	1.304954	-0.391244	-0.073952
C108	C	1.638288	-0.057910	0.259382
C109	C	0.926224	-0.691328	-0.449090
C110	C	1.259557	-0.357994	-0.115757
C111	C	1.592891	-0.024661	0.217576
C112	C	0.929277	-0.617587	-0.446239
C113	C	1.262610	-0.284253	-0.112906
C114	C	1.595943	0.049080	0.220428
C115	C	0.957462	-0.945508	-0.420451
C116	C	1.290795	-0.612175	-0.087117
C117	C	1.624129	-0.278842	0.246216
C118	C	0.954411	-1.019254	-0.423297
C119	C	1.287745	-0.685921	-0.089964
C120	C	1.621078	-0.352588	0.243370
C121	C	1.048258	-1.012002	-0.336841
C122	C	1.381591	-0.678669	-0.003508
C123	C	1.714924	-0.345335	0.329826
C124	C	1.051303	-0.938260	-0.333991
C125	C	1.384637	-0.604927	-0.000657
C126	C	1.717970	-0.271593	0.332676
C127	C	1.005909	-0.905017	-0.375798
C128	C	1.339242	-0.571684	-0.042465
C129	C	1.672575	-0.238350	0.290868
N130	N	0.968502	-0.799954	-0.410202
N131	N	1.301835	-0.466620	-0.076869
N132	N	1.635168	-0.133287	0.256465
N133	N	1.009032	-0.829642	-0.372885
N134	N	1.342365	-0.496308	-0.039551
N135	N	1.675699	-0.162975	0.293782
C136	C	1.172284	-0.308096	-0.398652
C137	C	1.505618	0.025237	-0.065319
C138	C	1.838951	0.358571	0.268014
C139	C	1.250515	-0.305088	-0.401689
C140	C	1.583848	0.028246	-0.068355
C141	C	1.917182	0.361579	0.264978
C142	C	0.981056	-0.322792	-0.575100
C143	C	1.314389	0.010541	-0.241767
C144	C	1.647723	0.343875	0.091567
C145	C	0.977797	-0.326047	-0.653328
C146	C	1.311130	0.007287	-0.319994
C147	C	1.644463	0.340620	0.013339
C148	C	0.996489	-0.130982	-0.384494
C149	C	1.329822	0.202351	-0.051160
C150	C	1.663156	0.535684	0.282173
C151	C	0.999806	-0.052499	-0.381497
C152	C	1.333140	0.280835	-0.048163
C153	C	1.666473	0.614168	0.285170
C154	C	1.023183	-0.280690	-0.690103
C155	C	1.356516	0.052643	-0.356770
C156	C	1.689850	0.385977	-0.023436
C157	C	1.020112	-0.283745	-0.763606
C158	C	1.353445	0.049588	-0.430272
C159	C	1.686779	0.382921	-0.096939
C160	C	0.971657	-0.332161	-0.800332
C161	C	1.304991	0.001172	-0.466999
C162	C	1.638324	0.334505	-0.133666
C163	C	0.926266	-0.377520	-0.763552
C164	C	1.259600	-0.044187	-0.430219
C165	C	1.592933	0.289147	-0.096885
C166	C	0.929334	-0.374461	-0.690050
C167	C	1.262668	-0.041127	-0.356717
C168	C	1.596001	0.292206	-0.023384
C169	C	0.957447	-0.346336	-1.020156
C170	C	1.290780	-0.013003	-0.686823
C171	C	1.624114	0.320331	-0.353490
C172	C	0.954384	-0.349393	-1.093664
C173	C	1.287717	-0.016060	-0.760330
C174	C	1.621050	0.317273	-0.426997
C175	C	1.048229	-0.255618	-1.093712
C176	C	1.381562	0.077716	-0.760379
C177	C	1.714896	0.411049	-0.427045
C178	C	1.051296	-0.252565	-1.020209
C179	C	1.384629	0.080768	-0.686876
C180	C	1.717962	0.414101	-0.353542
C181	C	1.005902	-0.297921	-0.983435
C182	C	1.339235	0.035412	-0.650102
C183	C	1.672569	0.368745	-0.316768
N184	N	0.968519	-0.335287	-0.875464
N185	N	1.301852	-0.001954	-0.542131
N186	N	1.635185	0.331379	-0.208798
N187	N	1.009038	-0.294792	-0.908304
N188	N	1.342371	0.038542	-0.574971
N189	N	1.675704	0.371875	-0.241638
C190	C	0.996366	-0.307495	-0.208668
C191	C	1.329699	0.025838	0.124665
C192	C	1.663033	0.359171	0.457998
C193	C	0.999770	-0.304037	-0.130439
C194	C	1.333103	0.029296	0.202895
C195	C	1.666437	0.362630	0.536228
H196	H	0.390744	-0.221274	-0.485775
H197	H	0.724077	0.112059	-0.152441
H198	H	1.057410	0.445392	0.180892
H199	H	0.914967	-1.052225	-0.459670
H200	H	1.248300	-0.718892	-0.126337
H201	H	1.581634	-0.385559	0.206996
H202	H	0.892312	-0.590520	-0.480278
H203	H	1.225646	-0.257187	-0.146945
H204	H	1.558979	0.076147	0.186388
H205	H	0.914924	-0.388821	-1.123564
H206	H	1.248257	-0.055488	-0.790231
H207	H	1.581591	0.277845	-0.456898
Br208	Br	0.860502	-0.443224	-0.813394
Br209	Br	1.193835	-0.109891	-0.480061
Br210	Br	1.527168	0.223442	-0.146727
H211	H	0.587372	-0.409024	-0.297324
H212	H	0.920706	-0.075691	0.036009
H213	H	1.254039	0.257643	0.369343
Br214	Br	0.237451	-0.203745	-0.503393
Br215	Br	0.570785	0.129589	-0.170060
Br216	Br	0.904118	0.462922	0.163273
Br217	Br	0.237322	-0.407473	-0.298997
Br218	Br	0.570656	-0.074139	0.034336
Br219	Br	0.903989	0.259194	0.367670
Br220	Br	1.081684	-0.729195	-0.305906
Br221	Br	1.415017	-0.395862	0.027427
Br222	Br	1.748350	-0.062529	0.360760
H223	H	0.390644	-0.378060	-0.328430
H224	H	0.723977	-0.044726	0.004903
H225	H	1.057311	0.288607	0.338236
H226	H	0.720732	-0.403871	-0.302475
H227	H	1.054065	-0.070538	0.030859
H228	H	1.387398	0.262796	0.364192
H229	H	1.057072	-0.246813	-0.793545
H230	H	1.390405	0.086520	-0.460212
H231	H	1.723739	0.419854	-0.126878
H232	H	1.062567	-0.577370	-0.323416
H233	H	1.395900	-0.244037	0.009917
H234	H	1.729233	0.089296	0.343251
H235	H	1.090754	-0.905289	-0.297632
H236	H	1.424087	-0.571955	0.035701
H237	H	1.757420	-0.238622	0.369035
H238	H	1.085216	-1.039077	-0.302805
H239	H	1.418549	-0.705743	0.030529
H240	H	1.751883	-0.372410	0.363862
H241	H	1.062642	-0.241266	-0.660206
H242	H	1.395975	0.092067	-0.326872
H243	H	1.729309	0.425400	0.006461
H244	H	0.920499	-0.918448	-0.454491
H245	H	1.253832	-0.585114	-0.121157
H246	H	1.587165	-0.251781	0.212176
Br247	Br	0.860478	-0.746286	-0.509696
Br248	Br	1.193811	-0.412953	-0.176363
Br249	Br	1.527144	-0.079620	0.156971
Br250	Br	0.895840	-0.407890	-0.970258
Br251	Br	1.229173	-0.074556	-0.636924
Br252	Br	1.562506	0.258777	-0.303591
H253	H	0.892369	-0.411388	-0.660108
H254	H	1.225702	-0.078055	-0.326775
H255	H	1.559036	0.255279	0.006558
Br256	Br	1.117060	-0.186858	-0.970371
Br257	Br	1.450393	0.146476	-0.637038
Br258	Br	1.783727	0.479809	-0.303704
Br259	Br	1.109830	-0.194065	-1.143623
Br260	Br	1.443163	0.139268	-0.810290
Br261	Br	1.776497	0.472601	-0.476957
H262	H	0.720822	-0.247083	-0.459815
H263	H	1.054156	0.086250	-0.126482
H264	H	1.387489	0.419583	0.206852
Br265	Br	0.567535	-0.229551	-0.477427
Br266	Br	0.900868	0.103782	-0.144094
Br267	Br	1.234201	0.437116	0.189240
