data_functionalizedCrystal
_audit_creation_method	'MofGen! by Chris Wilmer'
_symmetry_space_group_name_H-M	'P1'
_symmetry_Int_Tables_number	1
_symmetry_cell_setting	triclinic
loop_
_symmetry_equiv_pos_as_xyz
  x,y,z
_cell_length_a	14.908571
_cell_length_b	19.121063
_cell_length_c	14.908308
_cell_angle_alpha	95.554627
_cell_angle_beta	90.175053
_cell_angle_gamma	89.303906
loop_
_atom_site_label
_atom_site_type_symbol
_atom_site_fract_x
_atom_site_fract_y
_atom_site_fract_z
Zn1	Zn	1.324072	-0.366417	-0.606393
Zn2	Zn	1.824072	0.133583	-0.106393
Zn3	Zn	1.326220	-0.477475	-0.461735
Zn4	Zn	1.826220	0.022525	0.038265
Zn5	Zn	1.183168	-0.352931	-0.446699
Zn6	Zn	1.683168	0.147069	0.053301
Zn7	Zn	1.167296	-0.476641	-0.603344
Zn8	Zn	1.667296	0.023359	-0.103344
O9	O	1.250189	-0.418366	-0.529543
O10	O	1.750189	0.081634	-0.029543
O11	O	1.449836	-0.387142	-0.594773
O12	O	1.949836	0.112858	-0.094773
O13	O	1.314785	-0.455659	-0.333644
O14	O	1.814785	0.044341	0.166356
O15	O	1.207604	-0.256469	-0.462866
O16	O	1.707604	0.243531	0.037134
O17	O	1.451414	-0.468736	-0.488493
O18	O	1.951414	0.031264	0.011507
O19	O	1.311125	-0.266377	-0.580193
O20	O	1.811125	0.233623	-0.080193
O21	O	1.209686	-0.364157	-0.322597
O22	O	1.709686	0.135843	0.177403
O23	O	1.055584	-0.363348	-0.459909
O24	O	1.555584	0.136652	0.040091
O25	O	1.180551	-0.467315	-0.729845
O26	O	1.680551	0.032685	-0.229845
O27	O	1.043922	-0.454238	-0.574995
O28	O	1.543922	0.045762	-0.074995
O29	O	1.295734	-0.386334	-0.732085
O30	O	1.795734	0.113666	-0.232085
O31	O	1.299394	-0.575616	-0.485536
O32	O	1.799394	-0.075616	0.014464
O33	O	1.182633	-0.575003	-0.589576
O34	O	1.682633	-0.075003	-0.089576
C35	C	1.017218	-0.407239	-0.515490
C36	C	1.517218	0.092761	-0.015490
C37	C	0.917550	-0.402497	-0.509501
C38	C	1.417550	0.097503	-0.009501
C39	C	0.718169	-0.488362	-0.617938
C40	C	1.218169	0.011638	-0.117938
C41	C	0.624521	-0.483909	-0.612314
C42	C	1.124521	0.016091	-0.112314
C43	C	0.636605	-0.389134	-0.492633
C44	C	1.136605	0.110866	0.007367
C45	C	0.730253	-0.393588	-0.498257
C46	C	1.230253	0.106412	0.001743
C47	C	0.771031	-0.443204	-0.560911
C48	C	1.271031	0.056796	-0.060911
C49	C	0.864680	-0.447660	-0.566530
C50	C	1.364680	0.052340	-0.066530
C51	C	0.876762	-0.352883	-0.446854
C52	C	1.376762	0.147117	0.053146
C53	C	0.783115	-0.348429	-0.441230
C54	C	1.283115	0.151571	0.058770
C55	C	1.239548	-0.600787	-0.538878
C56	C	1.739548	-0.100787	-0.038878
C57	C	1.235075	-0.678833	-0.542906
C58	C	1.735075	-0.178833	-0.042906
C59	C	1.293807	-0.715799	-0.490682
C60	C	1.793807	-0.215799	0.009318
C61	C	1.289606	-0.789131	-0.494476
C62	C	1.789606	-0.289131	0.005524
C63	C	1.226668	-0.825496	-0.550491
C64	C	1.726668	-0.325496	-0.050491
C65	C	1.167934	-0.788525	-0.602722
C66	C	1.667934	-0.288525	-0.102722
C67	C	1.172140	-0.715194	-0.598932
C68	C	1.672140	-0.215194	-0.098932
C69	C	1.210929	-1.046893	-0.564648
C70	C	1.710929	-0.546893	-0.064648
C71	C	1.206726	-1.120229	-0.568432
C72	C	1.706726	-0.620229	-0.068432
C73	C	1.328400	-1.120830	-0.460187
C74	C	1.828400	-0.620830	0.039813
C75	C	1.332596	-1.047498	-0.456398
C76	C	1.832596	-0.547498	0.043602
C77	C	1.273865	-1.010533	-0.508632
C78	C	1.773865	-0.510533	-0.008632
C79	C	1.222371	-0.900454	-0.554369
C80	C	1.722371	-0.400454	-0.054369
C81	C	1.278168	-0.935578	-0.504758
C82	C	1.778168	-0.435578	-0.004758
C83	C	1.484070	-0.429537	-0.543650
C84	C	1.984070	0.070463	-0.043650
C85	C	1.583736	-0.434297	-0.549662
C86	C	2.083736	0.065703	-0.049662
C87	C	1.236132	-0.428235	-0.764574
C88	C	1.736132	0.071765	-0.264574
C89	C	1.230142	-0.432441	-0.864731
C90	C	1.730142	0.067559	-0.364731
C91	C	1.260895	-0.235235	-0.520192
C92	C	1.760895	0.264765	-0.020192
C93	C	1.265458	-0.157195	-0.516207
C94	C	1.765458	0.342805	-0.016207
C95	C	1.338824	-0.356002	-1.055270
C96	C	1.838824	0.143998	-0.555270
C97	C	1.333199	-0.359951	-1.149376
C98	C	1.833199	0.140049	-0.649376
C99	C	1.213262	-0.444285	-1.147051
C100	C	1.713262	0.055715	-0.647051
C101	C	1.218888	-0.440335	-1.052945
C102	C	1.718888	0.059665	-0.552945
C103	C	1.281672	-0.396193	-1.007057
C104	C	1.781672	0.103807	-0.507057
C105	C	1.287301	-0.392248	-0.912950
C106	C	1.787301	0.107752	-0.412950
C107	C	1.167360	-0.476578	-0.910626
C108	C	1.667360	0.023422	-0.410626
C109	C	1.161735	-0.480527	-1.004732
C110	C	1.661735	0.019473	-0.504732
C111	C	1.264246	-0.408487	-0.295425
C112	C	1.764246	0.091513	0.204575
C113	C	1.270421	-0.404092	-0.195270
C114	C	1.770421	0.095908	0.304730
H115	H	0.581483	-0.520680	-0.658753
H116	H	1.081483	-0.020680	-0.158753
H117	H	1.383845	-1.017891	-0.410786
H118	H	1.883845	-0.517891	0.089214
H119	H	0.919813	-0.316113	-0.400417
H120	H	1.419813	0.183887	0.099583
C121	C	1.347396	-0.895582	-0.443144
C122	C	1.847396	-0.395582	0.056856
H123	H	1.381779	-0.928098	-0.412583
H124	H	1.881779	-0.428098	0.087417
H125	H	1.317111	-0.863724	-0.400317
H126	H	1.817111	-0.363724	0.099683
H127	H	1.386021	-0.870252	-0.478527
H128	H	1.886021	-0.370252	0.021473
C129	C	0.591742	-0.334556	-0.423727
C130	C	1.091742	0.165444	0.076273
H131	H	0.636636	-0.308293	-0.390571
H132	H	1.136636	0.191707	0.109429
H133	H	0.555985	-0.357976	-0.383591
H134	H	1.055985	0.142024	0.116409
H135	H	0.554937	-0.303717	-0.454516
H136	H	1.054937	0.196283	0.045484
C137	C	1.393004	-1.161493	-0.402743
C138	C	1.893004	-0.661493	0.097257
H139	H	1.381492	-1.210375	-0.413026
H140	H	1.881492	-0.710375	0.086974
H141	H	1.384243	-1.146337	-0.340780
H142	H	1.884243	-0.646337	0.159220
H143	H	1.453143	-1.152860	-0.418999
H144	H	1.953143	-0.652860	0.081001
C145	C	1.137491	-1.160233	-0.630048
C146	C	1.637491	-0.660233	-0.130048
H147	H	1.143392	-1.209199	-0.624813
H148	H	1.643392	-0.709199	-0.124813
H149	H	1.147632	-1.151359	-0.690771
H150	H	1.647632	-0.651359	-0.190771
H151	H	1.078731	-1.144826	-0.612553
H152	H	1.578731	-0.644826	-0.112553
H153	H	1.163106	-1.016803	-0.607177
H154	H	1.663106	-0.516803	-0.107177
C155	C	1.356356	-0.343695	-0.862471
C156	C	1.856356	0.156305	-0.362471
H157	H	1.351529	-0.347102	-0.799519
H158	H	1.851529	0.152898	-0.299519
H159	H	1.345064	-0.296542	-0.874691
H160	H	1.845064	0.203458	-0.374691
H161	H	1.415085	-0.357496	-0.882053
H162	H	1.915085	0.142504	-0.382053
H163	H	1.389949	-0.320063	-1.017908
H164	H	1.889949	0.179937	-0.517908
H165	H	1.120825	-0.509307	-0.871362
H166	H	1.620825	-0.009307	-0.371362
H167	H	0.751371	-0.528765	-0.668948
H168	H	1.251371	-0.028765	-0.168948
H169	H	1.379736	-0.327221	-1.188626
H170	H	1.879736	0.172779	-0.688626
C171	C	1.144204	-0.492834	-1.197532
C172	C	1.644204	0.007166	-0.697532
H173	H	1.110964	-0.516204	-1.155342
H174	H	1.610964	-0.016204	-0.655342
H175	H	1.174522	-0.526600	-1.237880
H176	H	1.674522	-0.026600	-0.737880
H177	H	1.104506	-0.465643	-1.230509
H178	H	1.604506	0.034357	-0.730509
H179	H	1.110617	-0.516465	-1.042106
H180	H	1.610617	-0.016465	-0.542106
H181	H	1.116692	-0.818140	-0.648335
H182	H	1.616692	-0.318140	-0.148335
C183	C	0.909536	-0.502232	-0.635448
C184	C	1.409536	-0.002232	-0.135448
H185	H	0.864637	-0.528483	-0.668612
H186	H	1.364637	-0.028483	-0.168612
H187	H	0.946349	-0.533074	-0.604680
H188	H	1.446349	-0.033074	-0.104680
H189	H	0.945283	-0.478801	-0.675588
H190	H	1.445283	0.021199	-0.175588
H191	H	1.124315	-0.685097	-0.641460
H192	H	1.624315	-0.185097	-0.141460
C193	C	1.153139	-0.940454	-0.615981
C194	C	1.653139	-0.440454	-0.115981
H195	H	1.118761	-0.907939	-0.646548
H196	H	1.618761	-0.407939	-0.146548
H197	H	1.114523	-0.965790	-0.580605
H198	H	1.614523	-0.465790	-0.080605
H199	H	1.183430	-0.972307	-0.658818
H200	H	1.683430	-0.472307	-0.158818
H201	H	0.749900	-0.308032	-0.390222
H202	H	1.249900	0.191968	0.109778
H203	H	1.345054	-0.686195	-0.445064
H204	H	1.845054	-0.186195	0.054936
H205	H	1.337431	-0.819226	-0.451949
H206	H	1.837431	-0.319226	0.048051
