data_functionalizedCrystal
_audit_creation_method	'MofGen! by Chris Wilmer'
_symmetry_space_group_name_H-M	'P1'
_symmetry_Int_Tables_number	1
_symmetry_cell_setting	triclinic
loop_
_symmetry_equiv_pos_as_xyz
  x,y,z
_cell_length_a	19.805407
_cell_length_b	17.640280
_cell_length_c	19.805399
_cell_angle_alpha	78.776890
_cell_angle_beta	89.980427
_cell_angle_gamma	78.800112
loop_
_atom_site_label
_atom_site_type_symbol
_atom_site_fract_x
_atom_site_fract_y
_atom_site_fract_z
Zn1	Zn	1.089281	-0.314680	-0.328317
Zn2	Zn	1.112106	-0.446853	-0.192279
Zn3	Zn	0.976099	-0.314701	-0.215138
Zn4	Zn	0.998962	-0.446811	-0.305433
O5	O	1.044112	-0.380761	-0.260292
O6	O	1.187026	-0.332221	-0.310282
O7	O	1.094048	-0.429350	-0.100590
O8	O	0.971992	-0.204095	-0.249296
O9	O	1.203796	-0.429329	-0.210335
O10	O	1.055146	-0.204079	-0.332448
O11	O	0.994125	-0.332258	-0.117385
O12	O	0.884414	-0.332218	-0.227105
O13	O	1.010958	-0.429257	-0.403190
O14	O	0.901211	-0.429278	-0.293444
O15	O	1.077315	-0.332180	-0.420003
O16	O	1.116217	-0.557452	-0.188145
O17	O	1.033091	-0.557421	-0.271278
C18	C	0.868253	-0.380746	-0.260272
C19	C	0.793023	-0.380759	-0.260277
C20	C	0.766456	-0.431374	-0.294736
C21	C	0.695768	-0.431376	-0.294746
C22	C	0.651649	-0.380765	-0.260291
C23	C	0.678220	-0.330144	-0.225831
C24	C	0.748906	-0.330139	-0.225826
C25	C	0.393149	-0.330161	-0.225850
C26	C	0.322459	-0.330172	-0.225856
C27	C	0.340012	-0.431398	-0.294770
C28	C	0.410698	-0.431393	-0.294765
C29	C	0.437262	-0.380770	-0.260308
C30	C	0.513910	-0.380768	-0.260299
C31	C	0.575003	-0.380770	-0.260295
C32	C	1.079630	-0.586114	-0.224762
C33	C	1.094887	-0.673965	-0.209586
C34	C	0.928484	-0.962953	-0.375835
C35	C	0.942822	-1.045502	-0.361553
C36	C	1.029435	-1.045469	-0.275073
C37	C	1.015107	-0.962918	-0.289351
C38	C	0.964630	-0.921667	-0.339732
C39	C	1.051253	-0.921632	-0.253247
C40	C	1.036924	-0.839088	-0.267522
C41	C	0.986448	-0.797831	-0.317899
C42	C	0.950301	-0.839123	-0.354006
C43	C	1.101726	-0.962885	-0.202863
C44	C	1.137872	-0.921598	-0.166760
C45	C	1.123546	-0.839053	-0.181037
C46	C	1.073071	-0.797796	-0.231415
C47	C	1.159693	-0.797761	-0.144930
C48	C	1.145364	-0.715217	-0.159204
C49	C	1.058741	-0.715252	-0.245689
C50	C	1.220657	-0.380777	-0.260311
C51	C	1.295890	-0.380784	-0.260320
C52	C	1.044141	-0.380712	-0.436843
C53	C	1.044154	-0.380690	-0.512079
C54	C	1.008473	-0.174606	-0.295974
C55	C	0.993286	-0.086756	-0.311180
C56	C	1.078706	-0.330140	-0.556179
C57	C	1.078709	-0.330117	-0.626872
C58	C	1.044163	-0.380649	-0.653462
C59	C	1.009606	-0.431202	-0.609356
C60	C	1.009600	-0.431220	-0.538666
C61	C	1.009632	-0.431128	-0.894442
C62	C	1.009643	-0.431107	-0.965138
C63	C	1.078741	-0.330025	-0.982648
C64	C	1.078735	-0.330043	-0.911958
C65	C	1.044175	-0.380593	-0.867859
C66	C	1.044171	-0.380616	-0.791206
C67	C	1.044171	-0.380631	-0.730112
C68	C	1.044112	-0.380754	-0.084437
C69	C	1.044192	-0.380553	-0.009240
H70	H	0.674141	-0.472593	-0.322805
H71	H	1.070531	-1.079067	-0.234051
H72	H	0.981455	-0.472375	-0.502760
N73	N	0.903831	-1.090029	-0.400499
H74	H	0.937255	-1.124238	-0.425977
H75	H	0.878436	-1.124272	-0.366992
H76	H	1.106847	-0.288956	-0.662776
H77	H	0.802375	-0.472590	-0.322791
H78	H	0.642291	-0.288932	-0.197781
H79	H	0.887386	-0.929364	-0.416866
H80	H	0.318374	-0.472615	-0.322830
H81	H	0.770534	-0.288918	-0.197770
N82	N	0.458277	-0.485981	-0.331931
H83	H	0.482070	-0.453905	-0.368888
H84	H	0.493882	-0.522556	-0.297996
N85	N	1.117179	-1.051914	-0.187465
H86	H	1.133042	-1.071764	-0.230474
H87	H	1.154619	-1.071719	-0.150048
H88	H	1.106868	-0.288898	-0.890312
N89	N	1.184356	-0.670688	-0.120266
H90	H	1.209750	-0.636398	-0.153734
H91	H	1.150892	-0.636527	-0.094788
N92	N	1.192313	-0.966103	-0.112426
H93	H	1.238165	-0.951692	-0.125478
H94	H	1.179286	-0.951756	-0.066553
H95	H	0.286537	-0.288953	-0.197799
N96	N	0.972351	-0.485709	-0.638033
H97	H	0.950461	-0.517735	-0.599367
H98	H	0.935469	-0.453528	-0.672928
H99	H	0.414770	-0.288946	-0.197787
H100	H	1.017643	-0.681663	-0.286719
N101	N	1.115972	-0.275642	-0.527501
H102	H	1.137860	-0.243615	-0.566169
H103	H	1.082095	-0.239070	-0.504497
N104	N	1.214122	-0.842257	-0.090581
H105	H	1.217710	-0.900813	-0.087012
H106	H	1.259947	-0.827789	-0.103657
N107	N	1.116016	-0.275500	-1.030212
H108	H	1.110778	-0.283150	-1.079030
H109	H	1.095724	-0.219054	-1.027623
H110	H	0.981509	-0.472258	-0.986784
H111	H	0.974777	-0.730618	-0.329515
N112	N	0.972332	-0.485620	-0.846888
H113	H	0.950443	-0.517621	-0.874463
H114	H	1.006180	-0.522218	-0.811215
H115	H	0.909202	-0.805534	-0.395037
