data_functionalizedCrystal
_audit_creation_method	'MofGen! by Chris Wilmer'
_symmetry_space_group_name_H-M	'P1'
_symmetry_Int_Tables_number	1
_symmetry_cell_setting	triclinic
loop_
_symmetry_equiv_pos_as_xyz
  x,y,z
_cell_length_a	16.625546
_cell_length_b	13.032831
_cell_length_c	13.032268
_cell_angle_alpha	89.113023
_cell_angle_beta	97.144614
_cell_angle_gamma	97.173222
loop_
_atom_site_label
_atom_site_type_symbol
_atom_site_fract_x
_atom_site_fract_y
_atom_site_fract_z
Zn1	Zn	-0.544521	-1.498429	-0.780776
Zn2	Zn	-0.664651	-1.520160	-0.608784
Zn3	Zn	-0.510838	-1.348291	-0.587021
Zn4	Zn	-0.660292	-1.326409	-0.758909
O5	O	-0.595075	-1.423322	-0.683873
O6	O	-0.576377	-1.645231	-0.776220
O7	O	-0.631976	-1.515614	-0.461981
O8	O	-0.402484	-1.368270	-0.612767
O9	O	-0.664636	-1.661197	-0.649858
O10	O	-0.427231	-1.478576	-0.755118
O11	O	-0.518970	-1.389342	-0.445992
O12	O	-0.514743	-1.201469	-0.591563
O13	O	-0.657206	-1.330976	-0.905725
O14	O	-0.624546	-1.185392	-0.717849
O15	O	-0.572150	-1.457358	-0.921791
O16	O	-0.776895	-1.494396	-0.628654
O17	O	-0.773692	-1.352048	-0.738951
C18	C	-0.565517	-1.156114	-0.649972
C19	C	-0.552893	-1.041798	-0.635494
C20	C	-0.804552	-1.423230	-0.683817
C21	C	-0.894180	-1.423281	-0.683840
C22	C	-0.617949	-1.389302	-0.952117
C23	C	-0.627696	-1.374805	-1.066427
C24	C	-1.222385	-1.423447	-0.683970
C25	C	-1.131068	-1.423397	-0.683936
C26	C	-1.058285	-1.423363	-0.683904
C27	C	-0.966963	-1.423315	-0.683872
C28	C	-0.384786	-1.423440	-0.683954
C29	C	-0.295173	-1.423490	-0.683989
C30	C	-0.624750	-1.691574	-0.717906
C31	C	-0.637396	-1.805887	-0.732409
C32	C	-0.601664	-0.982917	-0.691429
C33	C	-0.588618	-0.864766	-0.676466
C34	C	-0.589958	-1.430873	-1.125339
C35	C	-0.600031	-1.415890	-1.243485
C36	C	-0.572239	-1.457270	-0.416679
C37	C	-0.562287	-1.471966	-0.302395
H38	H	-0.537199	-0.827708	-0.617501
H39	H	-0.667457	-1.315704	-1.103456
H40	H	-0.688808	-0.842942	-0.791385
C41	C	-0.509306	-1.550733	-1.252845
C42	C	-0.509855	-1.549948	-1.145515
C43	C	-0.461059	-1.622492	-1.099837
H44	H	-0.454925	-1.533562	-1.268406
H45	H	-0.530226	-1.617656	-1.279095
H46	H	-0.488931	-1.483040	-1.119275
H47	H	-0.564223	-1.567130	-1.129925
H48	H	-0.481980	-1.689415	-1.126087
H49	H	-0.406682	-1.605314	-1.115405
H50	H	-0.461432	-1.621976	-1.027010
C51	C	-0.653064	-1.336999	-1.292644
C52	C	-0.685913	-1.288158	-1.215395
C53	C	-0.734761	-1.215471	-1.260641
H54	H	-0.696150	-1.370930	-1.339521
H55	H	-0.620822	-1.286875	-1.328848
H56	H	-0.718153	-1.338274	-1.179207
H57	H	-0.642846	-1.254207	-1.168513
H58	H	-0.702519	-1.165347	-1.296846
H59	H	-0.777842	-1.249410	-1.307517
H60	H	-0.757049	-1.182317	-1.208234
C61	C	-0.670109	-1.032448	-0.770132
C62	C	-0.636930	-1.085803	-0.843896
C63	C	-0.699958	-1.131452	-0.916407
H64	H	-0.699057	-0.980293	-0.803398
H65	H	-0.706418	-1.079396	-0.736012
H66	H	-0.600635	-1.038859	-0.878013
H67	H	-0.607988	-1.137974	-0.810660
H68	H	-0.736267	-1.178400	-0.882286
H69	H	-0.728903	-1.079291	-0.949665
H70	H	-0.677456	-1.167667	-0.966459
C71	C	-0.484459	-0.992363	-0.556721
C72	C	-0.517649	-0.939058	-0.482929
C73	C	-0.454634	-0.893524	-0.410333
H74	H	-0.448102	-0.945401	-0.590732
H75	H	-0.455564	-1.044606	-0.523504
H76	H	-0.546531	-0.886820	-0.516142
H77	H	-0.553999	-0.985997	-0.448892
H78	H	-0.425739	-0.945767	-0.377116
H79	H	-0.418281	-0.846567	-0.444354
H80	H	-0.477145	-0.857359	-0.360252
H81	H	-0.550187	-1.489963	-1.088309
