data_functionalizedCrystal
_audit_creation_method	'MofGen! by Chris Wilmer'
_symmetry_space_group_name_H-M	'P1'
_symmetry_Int_Tables_number	1
_symmetry_cell_setting	triclinic
loop_
_symmetry_equiv_pos_as_xyz
  x,y,z
_cell_length_a	9.065218
_cell_length_b	16.109304
_cell_length_c	8.140239
_cell_angle_alpha	89.999293
_cell_angle_beta	89.997198
_cell_angle_gamma	84.239262
loop_
_atom_site_label
_atom_site_type_symbol
_atom_site_fract_x
_atom_site_fract_y
_atom_site_fract_z
O1	O	1.957451	0.121905	-0.136606
O2	O	2.457451	0.621905	0.363394
O3	O	1.527924	0.131904	-0.136607
O4	O	2.027924	0.631904	0.363393
O5	O	1.754485	0.005964	-0.136608
O6	O	2.254485	0.505964	0.363392
O7	O	1.730890	0.247845	-0.136606
O8	O	2.230890	0.747845	0.363394
O9	O	1.754472	0.005963	0.136619
O10	O	2.254472	0.505963	0.636619
O11	O	1.527912	0.131903	0.136620
O12	O	2.027912	0.631903	0.636620
O13	O	1.957438	0.121903	0.136621
O14	O	2.457438	0.621903	0.636621
Zn15	Zn	1.742673	0.126903	0.180001
Zn16	Zn	2.242673	0.626903	0.680001
Zn17	Zn	1.742689	0.126905	-0.179987
Zn18	Zn	2.242689	0.626905	0.320013
O19	O	1.730877	0.247843	0.136621
O20	O	2.230877	0.747843	0.636621
C21	C	1.472954	0.130942	0.000006
C22	C	1.972954	0.630942	0.500006
C23	C	1.309181	0.128069	0.000005
C24	C	1.809181	0.628069	0.500005
C25	C	1.753522	-0.025019	0.000002
C26	C	2.253522	0.474981	0.500002
C27	C	1.750654	-0.117336	-0.000009
C28	C	2.250654	0.382664	0.499991
C29	C	1.744036	-0.329723	-0.148939
C30	C	2.244036	0.170277	0.351061
C31	C	1.741328	-0.416464	-0.148937
C32	C	2.241328	0.083536	0.351063
C33	C	1.741322	-0.416463	0.148950
C34	C	2.241322	0.083537	0.648950
C35	C	1.744019	-0.329723	0.148946
C36	C	2.244019	0.170277	0.648946
C37	C	1.745384	-0.286356	-0.000003
C38	C	2.245384	0.213644	0.499997
C39	C	1.739978	-0.459837	0.000002
C40	C	2.239978	0.040163	0.500002
C41	C	1.737042	-0.553885	0.000005
C42	C	2.237042	-0.053885	0.500005
C43	C	1.748317	-0.192301	-0.000006
C44	C	2.248317	0.307699	0.499994
C45	C	2.012408	0.122865	0.000004
C46	C	2.512408	0.622865	0.500004
C47	C	2.176181	0.125739	-0.000006
C48	C	2.676181	0.625739	0.499994
C49	C	1.731840	0.278826	0.000008
C50	C	2.231840	0.778826	0.500008
C51	C	1.734708	0.371143	0.000008
C52	C	2.234708	0.871143	0.500008
N53	N	1.742672	0.126901	0.425684
N54	N	2.242672	0.626901	0.925684
N55	N	1.742701	0.126900	-0.425670
N56	N	2.242701	0.626900	0.074330
H57	H	1.745143	-0.294416	-0.270223
H58	H	2.245143	0.205584	0.229777
H59	H	1.740227	-0.451770	-0.270216
H60	H	2.240227	0.048230	0.229784
H61	H	1.745108	-0.294411	0.270236
H62	H	2.245108	0.205589	0.770236
H63	H	1.740214	-0.451783	0.270219
H64	H	2.240214	0.048217	0.770219
