data_functionalizedCrystal
_audit_creation_method	'MofGen! by Chris Wilmer'
_symmetry_space_group_name_H-M	'P1'
_symmetry_Int_Tables_number	1
_symmetry_cell_setting	triclinic
loop_
_symmetry_equiv_pos_as_xyz
  x,y,z
_cell_length_a	10.489741
_cell_length_b	16.974897
_cell_length_c	15.455313
_cell_angle_alpha	83.675220
_cell_angle_beta	92.692689
_cell_angle_gamma	83.968987
loop_
_atom_site_label
_atom_site_type_symbol
_atom_site_fract_x
_atom_site_fract_y
_atom_site_fract_z
O1	O	0.151333	1.057023	-0.146252
O2	O	0.484667	1.390356	0.187081
O3	O	0.818000	1.723689	0.520415
O4	O	0.173272	0.826166	-0.130065
O5	O	0.506606	1.159499	0.203268
O6	O	0.839939	1.492833	0.536601
O7	O	-0.023409	0.946847	-0.138522
O8	O	0.309924	1.280180	0.194812
O9	O	0.643257	1.613514	0.528145
O10	O	0.348015	0.936342	-0.137795
O11	O	0.681348	1.269675	0.195538
O12	O	1.014682	1.603008	0.528871
O13	O	-0.012208	0.939946	0.006224
O14	O	0.321125	1.273279	0.339557
O15	O	0.654458	1.606612	0.672891
O16	O	0.184473	0.819265	0.014680
O17	O	0.517807	1.152598	0.348014
O18	O	0.851140	1.485931	0.681347
O19	O	0.162534	1.050121	-0.001506
O20	O	0.495868	1.383455	0.331827
O21	O	0.829201	1.716788	0.665161
Cu22	Cu	0.174527	0.934063	0.019804
Cu23	Cu	0.507860	1.267396	0.353137
Cu24	Cu	0.841193	1.600730	0.686470
Cu25	Cu	0.161280	0.942224	-0.151375
Cu26	Cu	0.494613	1.275558	0.181958
Cu27	Cu	0.827947	1.608891	0.515292
O28	O	0.359216	0.929440	0.006950
O29	O	0.692549	1.262774	0.340284
O30	O	1.025883	1.596107	0.673617
C31	C	0.178243	0.793154	-0.055620
C32	C	0.511577	1.126488	0.277714
C33	C	0.844910	1.459821	0.611047
C34	C	0.176352	0.705071	-0.049444
C35	C	0.509685	1.038404	0.283890
C36	C	0.843018	1.371738	0.617223
C37	C	0.169361	0.667444	-0.125436
C38	C	0.502694	1.000777	0.207897
C39	C	0.836027	1.334110	0.541230
C40	C	0.167605	0.584678	-0.119620
C41	C	0.500938	0.918012	0.213713
C42	C	0.834271	1.251345	0.547046
C43	C	0.172830	0.539542	-0.037811
C44	C	0.506164	0.872875	0.295523
C45	C	0.839497	1.206209	0.628856
C46	C	0.179826	0.577175	0.038188
C47	C	0.513159	0.910508	0.371521
C48	C	0.846492	1.243841	0.704854
C49	C	0.181591	0.659938	0.032371
C50	C	0.514924	0.993271	0.365704
C51	C	0.848257	1.326605	0.699038
C52	C	0.168215	0.291613	-0.011954
C53	C	0.501548	0.624946	0.321380
C54	C	0.834882	0.958279	0.654713
C55	C	0.166445	0.208844	-0.006143
C56	C	0.499779	0.542177	0.327191
C57	C	0.833112	0.875511	0.660524
C58	C	0.154227	0.216353	-0.163952
C59	C	0.487560	0.549686	0.169382
C60	C	0.820894	0.883020	0.502715
C61	C	0.155985	0.299118	-0.169761
C62	C	0.489318	0.632452	0.163572
C63	C	0.822651	0.965785	0.496906
C64	C	0.162987	0.336743	-0.093763
C65	C	0.496320	0.670076	0.239571
C66	C	0.829653	1.003410	0.572904
N67	N	0.171032	0.454943	-0.031864
N68	N	0.504365	0.788276	0.301469
N69	N	0.837698	1.121609	0.634803
N70	N	0.164795	0.421340	-0.099710
N71	N	0.498128	0.754674	0.233623
N72	N	0.831461	1.088007	0.566957
C73	C	-0.065323	0.942603	-0.066094
C74	C	0.268010	1.275936	0.267240
C75	C	0.601343	1.609270	0.600573
C76	C	-0.206901	0.940229	-0.065929
C77	C	0.126432	1.273562	0.267405
C78	C	0.459766	1.606896	0.600738
C79	C	-0.273363	0.863443	-0.060551
C80	C	0.059970	1.196777	0.272782
C81	C	0.393304	1.530110	0.606115
C82	C	-0.360756	0.896314	0.008273
C83	C	-0.027422	1.229647	0.341606
C84	C	0.305911	1.562980	0.674939
C85	C	-0.371774	0.903136	-0.134437
C86	C	-0.038441	1.236469	0.198897
C87	C	0.294893	1.569803	0.532230
C88	C	-0.292424	0.973128	0.002952
C89	C	0.040909	1.306461	0.336285
C90	C	0.374242	1.639795	0.669618
C91	C	-0.303438	0.979943	-0.139821
C92	C	0.029895	1.313276	0.193512
C93	C	0.363229	1.646610	0.526846
C94	C	-0.390803	1.012868	-0.070984
C95	C	-0.057470	1.346201	0.262350
C96	C	0.275864	1.679535	0.595683
C97	C	0.401130	0.933684	-0.065480
C98	C	0.734463	1.267018	0.267854
C99	C	1.067797	1.600351	0.601187
C100	C	0.542707	0.936059	-0.065650
C101	C	0.876040	1.269392	0.267683
C102	C	1.209374	1.602725	0.601016
C103	C	0.157563	1.083133	-0.075954
C104	C	0.490897	1.416467	0.257380
C105	C	0.824230	1.749800	0.590713
C106	C	0.159455	1.171217	-0.082135
C107	C	0.492788	1.504550	0.251198
C108	C	0.826121	1.837883	0.584531
N109	N	0.183843	0.928328	0.140201
N110	N	0.517176	1.261662	0.473534
N111	N	0.850509	1.594995	0.806868
N112	N	0.151954	0.947965	-0.271773
N113	N	0.485287	1.281299	0.061561
N114	N	0.818621	1.614632	0.394894
C115	C	0.100316	0.979616	0.182001
C116	C	0.433649	1.312949	0.515335
C117	C	0.766982	1.646283	0.848668
C118	C	0.107373	0.975286	0.273113
C119	C	0.440706	1.308620	0.606446
C120	C	0.774039	1.641953	0.939779
C121	C	0.197964	0.919672	0.322422
C122	C	0.531297	1.253006	0.655755
C123	C	0.864630	1.586339	0.989088
C124	C	0.281494	0.868379	0.280615
C125	C	0.614828	1.201713	0.613949
C126	C	0.948161	1.535046	0.947282
C127	C	0.274430	0.872706	0.189506
C128	C	0.607764	1.206039	0.522839
C129	C	0.941097	1.539372	0.856173
C130	C	0.228420	0.900999	0.595312
C131	C	0.561754	1.234332	0.928645
C132	C	0.895087	1.567665	1.261978
C133	C	0.235481	0.896678	0.686427
C134	C	0.568814	1.230011	1.019760
C135	C	0.902147	1.563344	1.353094
C136	C	0.061357	1.003584	0.678918
C137	C	0.394690	1.336918	1.012251
C138	C	0.728023	1.670251	1.345585
C139	C	0.054306	1.007909	0.587807
C140	C	0.387639	1.341242	0.921140
C141	C	0.720973	1.674576	1.254473
C142	C	0.137832	0.956613	0.546009
C143	C	0.471165	1.289946	0.879342
C144	C	0.804499	1.623280	1.212675
N145	N	0.205182	0.915247	0.415552
N146	N	0.538515	1.248581	0.748885
N147	N	0.871849	1.581914	1.082219
N148	N	0.130607	0.961035	0.452880
N149	N	0.463940	1.294368	0.786214
N150	N	0.797273	1.627701	1.119547
H151	H	0.165101	0.704188	-0.192055
H152	H	0.498435	1.037522	0.141279
H153	H	0.831768	1.370855	0.474612
F154	F	-0.269888	1.026135	-0.221663
F155	F	0.063445	1.359468	0.111670
F156	F	0.396778	1.692801	0.445003
H157	H	-0.441605	1.076056	-0.075374
H158	H	-0.108272	1.409389	0.257959
H159	H	0.225061	1.742723	0.591292
F160	F	-0.027535	1.058172	0.723408
F161	F	0.305799	1.391505	1.056741
F162	F	0.639132	1.724838	1.390075
H163	H	0.173908	0.322237	0.049930
H164	H	0.507241	0.655570	0.383263
H165	H	0.840574	0.988904	0.716597
H166	H	0.296433	0.859233	0.561287
H167	H	0.629767	1.192566	0.894620
H168	H	0.963100	1.525899	1.227953
H169	H	-0.406697	0.873513	-0.192499
H170	H	-0.073364	1.206847	0.140834
H171	H	0.259970	1.540180	0.474168
H172	H	-0.222326	0.800307	-0.056053
H173	H	0.111007	1.133640	0.277281
H174	H	0.444340	1.466974	0.610614
H175	H	-0.386388	0.860947	0.070886
H176	H	-0.053055	1.194280	0.404220
H177	H	0.280279	1.527614	0.737553
F178	F	0.377904	0.809186	0.333095
F179	F	0.711237	1.142519	0.666428
F180	F	1.044570	1.475853	0.999762
H181	H	0.170737	0.172093	0.060480
H182	H	0.504071	0.505426	0.393814
H183	H	0.837404	0.838760	0.727147
F184	F	0.003901	1.038812	0.129531
F185	F	0.337235	1.372146	0.462864
F186	F	0.670568	1.705479	0.796197
F187	F	0.185397	0.529135	0.125256
F188	F	0.518731	0.862468	0.458590
F189	F	0.852064	1.195801	0.791923
F190	F	0.160166	0.544636	-0.200503
F191	F	0.493499	0.877969	0.132830
F192	F	0.826832	1.211303	0.466164
H193	H	0.148529	0.185710	-0.225825
H194	H	0.481863	0.519043	0.107508
H195	H	0.815196	0.852376	0.440842
F196	F	0.018473	1.029871	0.317600
F197	F	0.351806	1.363205	0.650933
F198	F	0.685140	1.696538	0.984266
F199	F	0.189036	0.699983	0.113253
F200	F	0.522369	1.033316	0.446587
F201	F	0.855703	1.366650	0.779920
H202	H	-0.257628	1.002710	0.061079
H203	H	0.075706	1.336043	0.394412
H204	H	0.409039	1.669376	0.727745
F205	F	0.331909	0.837483	0.738900
F206	F	0.665242	1.170816	1.072234
F207	F	0.998575	1.504150	1.405567
F208	F	0.150417	0.347150	-0.256834
F209	F	0.483750	0.680484	0.076499
F210	F	0.817083	1.013817	0.409832
F211	F	-0.042109	1.067100	0.535329
F212	F	0.291224	1.400433	0.868663
F213	F	0.624557	1.733766	1.201996
F214	F	0.363328	0.818115	0.145021
F215	F	0.696662	1.151449	0.478354
F216	F	1.029995	1.484782	0.811687
