data_functionalizedCrystal
_audit_creation_method	'MofGen! by Chris Wilmer'
_symmetry_space_group_name_H-M	'P1'
_symmetry_Int_Tables_number	1
_symmetry_cell_setting	triclinic
loop_
_symmetry_equiv_pos_as_xyz
  x,y,z
_cell_length_a	12.594517
_cell_length_b	13.897447
_cell_length_c	13.897441
_cell_angle_alpha	90.029327
_cell_angle_beta	89.973307
_cell_angle_gamma	89.985532
loop_
_atom_site_label
_atom_site_type_symbol
_atom_site_fract_x
_atom_site_fract_y
_atom_site_fract_z
Zn1	Zn	-1.627250	-0.384114	0.545543
Zn2	Zn	-1.627128	-0.545436	0.384248
Zn3	Zn	-1.449252	-0.384142	0.384245
Zn4	Zn	-1.449226	-0.545355	0.545484
O5	O	-1.538214	-0.464762	0.464880
O6	O	-1.776180	-0.405536	0.524173
O7	O	-1.603492	-0.524086	0.249266
O8	O	-1.472926	-0.249157	0.405665
O9	O	-1.776090	-0.524059	0.405670
O10	O	-1.603701	-0.249136	0.524170
O11	O	-1.472807	-0.405584	0.249263
O12	O	-1.300302	-0.405505	0.405607
O13	O	-1.472882	-0.523920	0.680473
O14	O	-1.300283	-0.523947	0.524069
O15	O	-1.603676	-0.405458	0.680517
O16	O	-1.603467	-0.680407	0.405613
O17	O	-1.472763	-0.680347	0.524072
C18	C	-1.261673	-0.464721	0.464832
C19	C	-1.143367	-0.464727	0.464834
C20	C	-1.538127	-0.715376	0.464858
C21	C	-1.538188	-0.822590	0.464880
C22	C	-1.074094	-0.400213	0.400521
C23	C	-1.003277	-0.488194	0.376789
C24	C	-1.003386	-0.376773	0.488568
C25	C	-1.074108	-0.552754	0.441056
C26	C	-1.074224	-0.441274	0.552876
C27	C	-1.003439	-0.529316	0.529177
C28	C	-0.815835	-0.464784	0.464911
C29	C	-0.934140	-0.464744	0.464878
C30	C	-1.538239	-0.909660	0.464902
C31	C	-1.538314	-1.018892	0.464927
C32	C	-1.538289	-0.464677	0.716473
C33	C	-1.538322	-0.464640	0.823687
C34	C	-1.538330	-0.213169	0.464923
C35	C	-1.538379	-0.105955	0.464942
C36	C	-1.538200	-0.464777	0.214266
C37	C	-1.538374	-0.464542	0.107052
C38	C	-1.538351	-0.464575	1.019982
C39	C	-1.538331	-0.464614	0.910750
H40	H	-1.105117	-0.345716	0.346072
N41	N	-0.961996	-0.514498	0.278195
H42	H	-0.987185	-0.465417	0.229732
H43	H	-0.881823	-0.515479	0.279329
N44	N	-1.115074	-0.651322	0.414377
H45	H	-1.195264	-0.650700	0.414496
H46	H	-1.088561	-0.669130	0.348122
N47	N	-0.962594	-0.601667	0.601248
H48	H	-0.988460	-0.668052	0.583215
H49	H	-0.882410	-0.600801	0.601240
H50	H	-1.105411	-0.421396	0.627290
H51	H	-0.972264	-0.302394	0.508590
