data_functionalizedCrystal
_audit_creation_method	'MofGen! by Chris Wilmer'
_symmetry_space_group_name_H-M	'P1'
_symmetry_Int_Tables_number	1
_symmetry_cell_setting	triclinic
loop_
_symmetry_equiv_pos_as_xyz
  x,y,z
_cell_length_a	14.908742
_cell_length_b	14.908520
_cell_length_c	12.759393
_cell_angle_alpha	93.263606
_cell_angle_beta	93.280027
_cell_angle_gamma	89.837416
loop_
_atom_site_label
_atom_site_type_symbol
_atom_site_fract_x
_atom_site_fract_y
_atom_site_fract_z
Zn1	Zn	1.353934	-0.437200	-0.532222
Zn2	Zn	1.345144	-0.587576	-0.367226
Zn3	Zn	1.203567	-0.428571	-0.366100
Zn4	Zn	1.194869	-0.578842	-0.552393
O5	O	1.274379	-0.508047	-0.454485
O6	O	1.478587	-0.464413	-0.502364
O7	O	1.326324	-0.566528	-0.220061
O8	O	1.230833	-0.303894	-0.379223
O9	O	1.472129	-0.574895	-0.381142
O10	O	1.341307	-0.310233	-0.501272
O11	O	1.222309	-0.449708	-0.219234
O12	O	1.076594	-0.441239	-0.398782
O13	O	1.216008	-0.560009	-0.696732
O14	O	1.070204	-0.551643	-0.535651
O15	O	1.332873	-0.455945	-0.681913
O16	O	1.317890	-0.712240	-0.400702
O17	O	1.207485	-0.705823	-0.536743
C18	C	1.040776	-0.494558	-0.469284
C19	C	0.940838	-0.488808	-0.475641
C20	C	0.803333	-0.423285	-0.547819
C21	C	0.897234	-0.428679	-0.541851
C22	C	0.890534	-0.543549	-0.415398
C23	C	0.796633	-0.538154	-0.421367
C24	C	0.753036	-0.478020	-0.487579
C25	C	0.659134	-0.472621	-0.493541
C26	C	0.652436	-0.587495	-0.367095
C27	C	0.746337	-0.592889	-0.361126
C28	C	1.260814	-0.741657	-0.471055
C29	C	1.255093	-0.841601	-0.478173
C30	C	1.359427	-1.036034	-0.349991
C31	C	1.354055	-1.129940	-0.356675
C32	C	1.238982	-1.123323	-0.498232
C33	C	1.244354	-1.029416	-0.491547
C34	C	1.304578	-0.985775	-0.417423
C35	C	1.309945	-0.891867	-0.410734
C36	C	1.194877	-0.885251	-0.552295
C37	C	1.189505	-0.979157	-0.558979
C38	C	1.508894	-0.521591	-0.439629
C39	C	1.608830	-0.527362	-0.433298
C40	C	1.274451	-0.507965	-0.728508
C41	C	1.274482	-0.507930	-0.845280
C42	C	1.288021	-0.273527	-0.437872
C43	C	1.293834	-0.173588	-0.430793
C44	C	1.335338	-0.453735	-0.892426
C45	C	1.335355	-0.453697	-1.002147
C46	C	1.213658	-0.562057	-1.017566
C47	C	1.213637	-0.562089	-0.907847
C48	C	1.274362	-0.508068	-0.181520
C49	C	1.274520	-0.507860	-0.064719
H50	H	0.926047	-0.592510	-0.361496
O51	O	1.154438	-0.614569	-1.078299
C52	C	0.998966	-0.649411	-1.124588
C53	C	1.065932	-0.589861	-1.055767
H54	H	0.927395	-0.629470	-1.106380
H55	H	1.009356	-0.640076	-1.211123
H56	H	1.010581	-0.722826	-1.107156
H57	H	1.054358	-0.516424	-1.073107
H58	H	1.055526	-0.599274	-0.969252
H59	H	1.358980	-0.856335	-0.350376
H60	H	1.384879	-0.409632	-0.841487
H61	H	1.164074	-0.606221	-0.869461
O62	O	0.616922	-0.414191	-0.557947
C63	C	0.633484	-0.300797	-0.682703
C64	C	0.681399	-0.366942	-0.609820
H65	H	0.685593	-0.262565	-0.724646
H66	H	0.587179	-0.339571	-0.743348
H67	H	0.592199	-0.251240	-0.634008
H68	H	0.722731	-0.416514	-0.658428
H69	H	0.727650	-0.328109	-0.549172
O70	O	0.761118	-0.364852	-0.612219
C71	C	0.777672	-0.251441	-0.736958
C72	C	0.825592	-0.317592	-0.664086
H73	H	0.829778	-0.213201	-0.778895
H74	H	0.731368	-0.290211	-0.797607
H75	H	0.736386	-0.201892	-0.688254
H76	H	0.866925	-0.367157	-0.712703
H77	H	0.871843	-0.278764	-0.603434
O78	O	0.946126	-0.375640	-0.600484
C79	C	1.052930	-0.369780	-0.734718
C80	C	0.997595	-0.429953	-0.668398
H81	H	1.094571	-0.413668	-0.789627
H82	H	1.005677	-0.325895	-0.783140
H83	H	1.099558	-0.325220	-0.680421
H84	H	0.950963	-0.474567	-0.722618
H85	H	1.044900	-0.473778	-0.619965
H86	H	1.384909	-0.409564	-1.040528
H87	H	1.150212	-0.844319	-0.607200
O88	O	1.180473	-1.165583	-0.570329
C89	C	1.066876	-1.149120	-0.710001
C90	C	1.133110	-1.101146	-0.628413
H91	H	1.028552	-1.097044	-0.756969
H92	H	1.105587	-1.195359	-0.765556
H93	H	1.017406	-1.190482	-0.667820
H94	H	1.182595	-1.059737	-0.670505
H95	H	1.094339	-1.054961	-0.572862
O96	O	1.130986	-1.021413	-0.631070
C97	C	1.017375	-1.004934	-0.770722
C98	C	1.083625	-0.956969	-0.689145
H99	H	0.979052	-0.952852	-0.817683
H100	H	1.056073	-1.051178	-0.826286
H101	H	0.967906	-1.046290	-0.728532
H102	H	1.133109	-0.915566	-0.731246
H103	H	1.044867	-0.910779	-0.633586
O104	O	0.788835	-0.651222	-0.296829
C105	C	0.930522	-0.710479	-0.231636
C106	C	0.882512	-0.644365	-0.304482
H107	H	1.006267	-0.704971	-0.237816
H108	H	0.913014	-0.693539	-0.146973
H109	H	0.907815	-0.781928	-0.256249
H110	H	0.905192	-0.572894	-0.279964
H111	H	0.900020	-0.661383	-0.389128
H112	H	1.398721	-1.170858	-0.301767
O113	O	0.603533	-0.640766	-0.308734
C114	C	0.490450	-0.756019	-0.309706
C115	C	0.545786	-0.695763	-0.375928
H116	H	0.443735	-0.800486	-0.364003
H117	H	0.537702	-0.799986	-0.261388
H118	H	0.448902	-0.712141	-0.254685
H119	H	0.587339	-0.739573	-0.431007
H120	H	0.498486	-0.651791	-0.424175
O121	O	1.417995	-0.993779	-0.277955
C122	C	1.531508	-1.010247	-0.138193
C123	C	1.465238	-1.058214	-0.219745
H124	H	1.569709	-1.062320	-0.091093
H125	H	1.581080	-0.968947	-0.180302
H126	H	1.492744	-0.963950	-0.082757
H127	H	1.503927	-1.104555	-0.275204
H128	H	1.415667	-1.099457	-0.177566
