data_functionalizedCrystal
_audit_creation_method	'MofGen! by Chris Wilmer'
_symmetry_space_group_name_H-M	'P1'
_symmetry_Int_Tables_number	1
_symmetry_cell_setting	triclinic
loop_
_symmetry_equiv_pos_as_xyz
  x,y,z
_cell_length_a	10.686220
_cell_length_b	17.640280
_cell_length_c	17.640618
_cell_angle_alpha	65.681691
_cell_angle_beta	83.944873
_cell_angle_gamma	83.981976
loop_
_atom_site_label
_atom_site_type_symbol
_atom_site_fract_x
_atom_site_fract_y
_atom_site_fract_z
Zn1	Zn	2.079964	-0.150550	-0.316726
Zn2	Zn	2.079842	-0.316225	-0.151086
Zn3	Zn	1.839667	-0.188062	-0.188510
Zn4	Zn	1.908829	-0.295170	-0.295694
O5	O	1.977075	-0.237502	-0.238004
O6	O	2.252083	-0.165640	-0.287894
O7	O	2.018987	-0.323734	-0.041873
O8	O	1.842649	-0.068925	-0.229982
O9	O	2.251994	-0.287361	-0.166199
O10	O	2.019195	-0.041366	-0.324182
O11	O	1.842531	-0.229573	-0.069368
O12	O	1.676706	-0.209157	-0.209588
O13	O	1.960526	-0.251475	-0.412662
O14	O	1.727519	-0.287849	-0.288335
O15	O	2.086258	-0.145224	-0.428114
O16	O	2.086050	-0.427592	-0.145805
O17	O	1.960407	-0.412123	-0.252047
C18	C	1.657480	-0.250289	-0.250741
C19	C	1.520765	-0.255775	-0.256204
C20	C	2.030758	-0.449453	-0.192599
C21	C	2.053844	-0.540116	-0.173198
C22	C	1.802279	-0.798243	-0.385672
C23	C	1.823967	-0.883441	-0.367416
C24	C	1.954923	-0.899457	-0.256887
C25	C	1.933251	-0.814258	-0.275137
C26	C	1.856927	-0.763658	-0.339530
C27	C	1.987899	-0.779673	-0.228995
C28	C	1.966223	-0.694482	-0.247241
C29	C	1.889899	-0.643877	-0.311629
C30	C	1.835251	-0.678468	-0.357776
C31	C	2.064216	-0.830276	-0.164598
C32	C	2.118864	-0.795690	-0.118456
C33	C	2.097196	-0.710497	-0.136705
C34	C	2.020872	-0.659892	-0.201094
C35	C	2.151844	-0.675907	-0.090558
C36	C	2.130168	-0.590717	-0.108805
C37	C	1.999196	-0.574702	-0.219340
C38	C	2.297919	-0.224665	-0.225218
C39	C	2.434644	-0.219194	-0.219770
C40	C	2.031121	-0.191817	-0.450821
C41	C	2.054151	-0.172349	-0.541511
C42	C	1.923221	-0.024717	-0.283603
C43	C	1.900271	0.065959	-0.303034
C44	C	2.152067	-0.089594	-0.677380
C45	C	2.130419	-0.107894	-0.592162
C46	C	1.999496	-0.218526	-0.576065
C47	C	2.021128	-0.200233	-0.661284
C48	C	2.097416	-0.135767	-0.711935
C49	C	1.966477	-0.246405	-0.695839
C50	C	1.988113	-0.228116	-0.781050
C51	C	2.064400	-0.163654	-0.831706
C52	C	2.119052	-0.117477	-0.797146
C53	C	1.890196	-0.310875	-0.645185
C54	C	1.835545	-0.357047	-0.679740
C55	C	1.857173	-0.338754	-0.764954
C56	C	1.933461	-0.274293	-0.815610
C57	C	1.802522	-0.384931	-0.799514
C58	C	1.824158	-0.366642	-0.884724
C59	C	1.955097	-0.256003	-0.900820
C60	C	1.923296	-0.282947	-0.026025
C61	C	1.900446	-0.302176	0.064625
H62	H	1.937055	-0.533499	-0.271781
O63	O	1.728612	-0.447664	-0.750304
C64	C	1.781359	-0.523418	-0.752653
H65	H	1.886611	-0.518561	-0.771302
H66	H	1.766769	-0.576176	-0.688396
H67	H	1.733349	-0.536775	-0.800159
H68	H	1.489902	-0.291299	-0.291575
H69	H	1.465502	-0.183680	-0.184395
H70	H	1.872242	-0.574512	-0.326479
H71	H	2.017062	-0.940667	-0.204456
O72	O	1.771273	-0.411559	-0.918310
C73	C	1.867152	-0.450852	-0.953537
H74	H	1.958788	-0.457536	-0.922914
H75	H	1.838788	-0.515203	-0.942829
H76	H	1.881412	-0.411593	-1.023353
H77	H	1.773110	-0.637265	-0.410217
H78	H	2.181156	-0.064973	-0.838392
H79	H	1.740138	-0.757041	-0.438114
O80	O	1.770833	-0.916895	-0.412352
C81	C	1.698797	-0.853967	-0.473083
H82	H	1.734441	-0.790583	-0.486938
H83	H	1.708183	-0.865304	-0.532618
H84	H	1.595519	-0.855128	-0.448804
H85	H	2.081866	-0.899642	-0.149746
H86	H	2.181003	-0.836901	-0.066025
O87	O	2.029086	-0.193286	-0.949970
C88	C	1.976322	-0.117516	-0.947669
H89	H	1.912903	-0.130991	-0.888045
H90	H	2.055101	-0.078005	-0.949067
H91	H	1.918296	-0.082282	-1.004033
H92	H	2.082019	-0.148766	-0.901089
O93	O	2.226136	-0.725076	-0.028107
C94	C	2.329839	-0.761174	-0.060881
H95	H	2.347164	-0.721391	-0.130348
H96	H	2.417288	-0.764641	-0.027441
H97	H	2.308924	-0.826677	-0.051356
O98	O	2.183313	-0.063032	-0.558515
C99	C	2.087443	-0.023703	-0.523319
H100	H	1.998251	-0.058932	-0.508107
H101	H	2.119572	-0.023642	-0.463741
H102	H	2.066982	0.043267	-0.569647
O103	O	2.183389	-0.557242	-0.063925
C104	C	2.255376	-0.620174	-0.003164
H105	H	2.283542	-0.673548	-0.023413
H106	H	2.343825	-0.593481	0.004069
H107	H	2.196976	-0.644380	0.058983
H108	H	2.214172	-0.037090	-0.718626
O109	O	1.925556	-0.281198	-0.526748
C110	C	1.996426	-0.341675	-0.463392
H111	H	2.079132	-0.311912	-0.453090
H112	H	1.933883	-0.367469	-0.403119
H113	H	2.033569	-0.394545	-0.482734
O114	O	1.869050	-0.328754	-0.562395
C115	C	1.789960	-0.395532	-0.525105
H116	H	1.797305	-0.433369	-0.564659
H117	H	1.820388	-0.437220	-0.459967
H118	H	1.688236	-0.370006	-0.520534
H119	H	1.773435	-0.409538	-0.638488
