data_functionalizedCrystal
_audit_creation_method	'MofGen! by Chris Wilmer'
_symmetry_space_group_name_H-M	'P1'
_symmetry_Int_Tables_number	1
_symmetry_cell_setting	triclinic
loop_
_symmetry_equiv_pos_as_xyz
  x,y,z
_cell_length_a	11.169417
_cell_length_b	12.645330
_cell_length_c	11.169409
_cell_angle_alpha	90.034413
_cell_angle_beta	90.019513
_cell_angle_gamma	90.013895
loop_
_atom_site_label
_atom_site_type_symbol
_atom_site_fract_x
_atom_site_fract_y
_atom_site_fract_z
Zn1	Zn	1.834943	-0.421918	0.678515
Zn2	Zn	1.834824	-0.599229	0.477825
Zn3	Zn	1.634229	-0.421984	0.477851
Zn4	Zn	1.634228	-0.599144	0.678471
O5	O	1.734556	-0.510569	0.578166
O6	O	2.002877	-0.445447	0.651901
O7	O	1.808166	-0.575780	0.309879
O8	O	1.660904	-0.273628	0.504499
O9	O	2.002790	-0.575716	0.504455
O10	O	1.808368	-0.273580	0.651926
O11	O	1.660789	-0.445559	0.309898
O12	O	1.466279	-0.445476	0.504456
O13	O	1.660903	-0.575571	0.846427
O14	O	1.466279	-0.575635	0.651851
O15	O	1.808367	-0.445364	0.846459
O16	O	1.808165	-0.747565	0.504412
O17	O	1.660788	-0.747502	0.651826
C18	C	1.422731	-0.510554	0.578152
C19	C	1.289332	-0.510574	0.578174
C20	C	1.734496	-0.785999	0.578137
C21	C	1.734580	-0.903829	0.578165
C22	C	1.827146	-1.071388	0.485239
C23	C	1.827448	-0.948827	0.485467
C24	C	1.768886	-0.948196	0.704674
C25	C	1.769620	-1.070794	0.704181
C26	C	1.607672	-1.071162	0.545830
C27	C	1.608281	-0.948558	0.542993
C28	C	2.047598	-0.510584	0.578180
C29	C	2.180998	-0.510590	0.578186
C30	C	1.734648	-0.510451	0.891208
C31	C	1.734688	-0.510401	1.024608
C32	C	1.734649	-0.234063	0.578220
C33	C	1.734689	-0.116233	0.578244
C34	C	1.734533	-0.510610	0.266341
C35	C	1.734727	-0.510361	0.132941
H36	H	1.805984	-0.918835	0.391662
N37	N	1.799057	-1.110550	0.360623
H38	H	1.802848	-1.190340	0.359101
H39	H	1.859442	-1.080782	0.302398
N40	N	1.892606	-1.108561	0.740524
H41	H	1.886185	-1.152997	0.815357
H42	H	1.945759	-1.045516	0.756650
N43	N	1.573987	-0.910507	0.419544
H44	H	1.497355	-0.868340	0.424371
H45	H	1.561759	-0.973461	0.365208
H46	H	1.705228	-1.100454	0.775863
H47	H	1.703594	-0.919043	0.775826
N48	N	1.952060	-0.909862	0.513871
H49	H	1.949976	-0.865611	0.589150
H50	H	1.982618	-0.865588	0.445132
N51	N	1.890486	-0.907431	0.741652
H52	H	1.888740	-0.827633	0.745164
H53	H	1.952358	-0.931000	0.681366
H54	H	1.576477	-1.102182	0.455187
N55	N	1.512093	-0.907980	0.626115
H56	H	1.549192	-0.859818	0.688033
H57	H	1.472168	-0.969646	0.667406
N58	N	1.516415	-1.109573	0.635550
H59	H	1.557082	-1.155942	0.696899
H60	H	1.452433	-1.151556	0.592782
H61	H	1.920718	-1.102114	0.506438
