data_functionalizedCrystal
_audit_creation_method	'MofGen! by Chris Wilmer'
_symmetry_space_group_name_H-M	'P1'
_symmetry_Int_Tables_number	1
_symmetry_cell_setting	triclinic
loop_
_symmetry_equiv_pos_as_xyz
  x,y,z
_cell_length_a	20.016444
_cell_length_b	18.878441
_cell_length_c	18.878441
_cell_angle_alpha	90.002294
_cell_angle_beta	59.999619
_cell_angle_gamma	60.004053
loop_
_atom_site_label
_atom_site_type_symbol
_atom_site_fract_x
_atom_site_fract_y
_atom_site_fract_z
Zr1	Zr	0.731235	-0.092893	0.682400
O2	O	0.870606	-0.205993	0.569295
O3	O	0.591863	-0.058227	0.717073
O4	O	0.731231	-0.205995	0.717074
O5	O	0.731242	0.058343	0.569293
O6	O	0.731229	-0.205990	0.833645
O7	O	0.731238	-0.058225	0.569294
O8	O	0.481925	0.058340	0.833643
O9	O	0.980545	-0.205987	0.569295
O10	O	0.649188	-0.043433	0.818856
O11	O	0.649192	0.043557	0.731860
O12	O	0.813280	-0.130420	0.731861
O13	O	0.813284	-0.043430	0.644865
Zr14	Zr	0.731238	0.093026	0.868316
Zr15	Zr	0.731232	-0.092886	0.868317
Zr16	Zr	0.731241	0.093020	0.682399
Zr17	Zr	0.906576	-0.092883	0.682401
Zr18	Zr	0.555897	0.093017	0.868316
O19	O	0.870610	0.058360	0.833644
O20	O	0.870601	-0.205983	0.833645
O21	O	0.870615	0.058351	0.569294
O22	O	0.591867	0.206126	0.981422
O23	O	0.591858	-0.058217	0.981423
O24	O	0.591872	0.206117	0.717071
O25	O	0.731231	-0.058210	0.981423
O26	O	0.731242	0.206128	0.833643
O27	O	0.731244	0.206124	0.717072
O28	O	0.731235	0.058358	0.981423
O29	O	0.980543	-0.205981	0.717074
O30	O	0.481930	0.206115	0.833642
O31	O	0.481928	0.206120	0.981421
O32	O	0.481923	0.058345	0.981422
O33	O	0.980550	-0.058211	0.569294
O34	O	0.980548	-0.058206	0.717074
O35	O	0.649193	0.130554	0.818855
O36	O	0.649189	0.043564	0.905851
O37	O	0.813281	-0.043424	0.818856
O38	O	0.813285	0.043566	0.731860
C39	C	0.511912	0.000055	0.775358
C40	C	0.437475	0.000051	0.775358
C41	C	0.731240	0.000058	0.542804
C42	C	0.731242	0.000056	0.463878
C43	C	0.731244	0.232615	0.775357
C44	C	0.731247	0.311539	0.775357
C45	C	0.266203	-0.045342	0.820771
C46	C	0.196255	-0.045336	0.820774
C47	C	0.196273	0.045482	0.729944
C48	C	0.266215	0.045479	0.729947
C49	C	0.301181	0.000062	0.775359
C50	C	0.161292	0.000071	0.775358
C51	C	0.085452	0.000079	0.775360
C52	C	0.377025	0.000056	0.775358
C53	C	0.950561	0.000078	0.775359
C54	C	1.024998	0.000082	0.775359
C55	C	0.731229	-0.232481	0.775359
C56	C	0.731226	-0.311406	0.775360
C57	C	0.816900	0.303214	0.729948
C58	C	0.816897	0.377375	0.729944
C59	C	0.731240	0.459860	0.775354
C60	C	0.645580	0.468184	0.820764
C61	C	0.645584	0.394024	0.820763
C62	C	0.645577	0.622754	0.820766
C63	C	0.645573	0.696920	0.820769
C64	C	0.816890	0.606105	0.729947
C65	C	0.816895	0.531945	0.729945
C66	C	0.731234	0.540274	0.775357
C67	C	0.731232	0.064297	0.123920
C68	C	0.731229	0.064296	0.198082
C69	C	0.731231	0.000072	0.235157
C70	C	0.731227	-0.064150	0.198071
C71	C	0.731224	-0.064145	0.123915
C72	C	0.731236	-0.064157	0.352636
C73	C	0.731241	-0.064163	0.426796
C74	C	0.731240	0.064284	0.426802
C75	C	0.731237	0.064289	0.352646
C76	C	0.731235	0.000066	0.315565
C77	C	0.731233	0.000075	1.007912
C78	C	0.731231	0.000078	1.086839
C79	C	0.511908	0.000063	1.007912
C80	C	0.437470	0.000062	1.086838
C81	C	0.511919	0.232603	0.775357
C82	C	0.437485	0.311524	0.775356
C83	C	0.511916	0.232611	1.007911
C84	C	0.437480	0.311535	1.086837
C85	C	0.950557	-0.232478	0.542806
C86	C	1.024993	-0.311401	0.463880
C87	C	0.950565	0.000070	0.542805
C88	C	1.025003	0.000071	0.463878
C89	C	0.950553	-0.232469	0.775360
C90	C	1.024988	-0.311390	0.775361
C91	C	0.402512	-0.045357	1.078492
C92	C	0.332579	-0.045376	1.152645
C93	C	0.297601	0.000031	1.235143
C94	C	0.332565	0.045452	1.243487
C95	C	0.402502	0.045465	1.169335
C96	C	0.402531	0.394005	0.820766
C97	C	0.332602	0.468166	0.820762
C98	C	0.297624	0.459845	0.775353
C99	C	0.332585	0.377355	0.729937
C100	C	0.402517	0.303195	0.729936
C101	C	0.402522	0.303190	1.169320
C102	C	0.332592	0.377340	1.243487
C103	C	0.297616	0.459834	1.235168
C104	C	0.332581	0.468177	1.152676
C105	C	0.402515	0.394028	1.078511
C106	C	1.059959	-0.303057	0.381397
C107	C	1.129911	-0.377206	0.307230
C108	C	1.164891	-0.459700	0.315549
C109	C	1.129921	-0.468043	0.398041
C110	C	1.059975	-0.393894	0.472205
C111	C	1.059968	0.045483	0.472224
C112	C	1.129920	0.045481	0.398071
C113	C	1.164902	0.000072	0.315574
C114	C	1.129934	-0.045346	0.307230
C115	C	1.059987	-0.045348	0.381381
C116	C	1.059944	-0.303041	0.820779
C117	C	1.129873	-0.377188	0.820797
C118	C	1.164850	-0.459684	0.775390
C119	C	1.129887	-0.468031	0.729970
C120	C	1.059954	-0.393885	0.729958
H121	H	0.294669	-0.082322	0.857750
H122	H	0.304075	0.082420	1.310666
H123	H	0.304119	-0.082363	1.145834
H124	H	0.240680	0.520237	0.775360
H125	H	0.430969	0.400834	1.011352
H126	H	0.167796	0.082457	0.692970
Br127	Br	0.285104	0.366076	0.668314
H128	H	1.221845	-0.520070	0.255152
H129	H	1.031506	-0.400699	0.539365
H130	H	0.731222	-0.116437	0.093725
Br131	Br	0.313680	0.107115	0.668320
H132	H	0.886653	0.236054	0.692973
Br133	Br	1.177402	-0.580006	0.409316
H134	H	1.158426	-0.082317	0.240050
Br135	Br	0.285168	0.580105	0.882404
Br136	Br	0.449931	0.107117	1.180677
H137	H	0.886645	0.464783	0.692973
H138	H	1.031521	-0.082326	0.374574
Br139	Br	1.012491	-0.191092	0.882409
H140	H	0.886645	0.370588	0.692968
H141	H	0.886638	0.599325	0.692968
H142	H	0.575823	0.764082	0.857741
Br143	Br	1.259762	-0.560303	0.775414
H144	H	1.158333	-0.370374	0.857781
Br145	Br	0.202686	0.000005	1.335770
H146	H	1.031492	0.082466	0.539391
Br147	Br	1.177374	-0.579997	0.668343
H148	H	0.304093	0.535353	1.145915
Br149	Br	0.529323	0.634059	0.882393
Br150	Br	0.529328	0.580129	0.882386
Br151	Br	1.177360	0.107126	0.409416
H152	H	0.167777	-0.082307	0.857754
Br153	Br	1.012530	-0.405232	0.668305
Br154	Br	1.012500	-0.191110	0.370083
Br155	Br	1.177353	-0.365863	0.195288
Br156	Br	0.449981	0.405322	0.882406
Br157	Br	1.259830	0.000084	0.214947
H158	H	0.731228	0.116588	0.228274
H159	H	0.575836	0.400808	0.857737
H160	H	0.731236	0.116592	0.093736
Br161	Br	0.449943	0.191259	0.668305
Br162	Br	0.731246	0.151443	0.302321
Br163	Br	0.731249	0.151440	0.477125
H164	H	0.731230	-0.116452	0.322449
Br165	Br	0.731244	-0.151328	0.477107
H166	H	0.731223	-0.116440	0.228265
H167	H	0.430989	0.236026	1.176110
H168	H	0.304131	0.370532	1.310648
Br169	Br	0.449970	-0.106991	0.966540
H170	H	0.240671	0.520204	1.295565
