data_functionalizedCrystal
_audit_creation_method	'MofGen! by Chris Wilmer'
_symmetry_space_group_name_H-M	'P1'
_symmetry_Int_Tables_number	1
_symmetry_cell_setting	triclinic
loop_
_symmetry_equiv_pos_as_xyz
  x,y,z
_cell_length_a	29.839134
_cell_length_b	16.959454
_cell_length_c	16.959447
_cell_angle_alpha	90.026818
_cell_angle_beta	89.972203
_cell_angle_gamma	89.985063
loop_
_atom_site_label
_atom_site_type_symbol
_atom_site_fract_x
_atom_site_fract_y
_atom_site_fract_z
Zn1	Zn	0.686812	0.314774	-0.447157
Zn2	Zn	0.686765	0.446966	-0.314987
Zn3	Zn	0.611687	0.314794	-0.314970
Zn4	Zn	0.611671	0.446902	-0.447101
O5	O	0.649234	0.380859	-0.381054
O6	O	0.749673	0.332328	-0.429656
O7	O	0.676793	0.429468	-0.204374
O8	O	0.621680	0.204180	-0.332521
O9	O	0.749638	0.429449	-0.332551
O10	O	0.676873	0.204165	-0.429639
O11	O	0.621634	0.332362	-0.204361
O12	O	0.548818	0.332300	-0.332466
O13	O	0.621651	0.429340	-0.557719
O14	O	0.548806	0.429359	-0.429542
O15	O	0.676857	0.332265	-0.557761
O16	O	0.676776	0.557569	-0.332496
O17	O	0.621605	0.557521	-0.429559
C18	C	0.532511	0.380825	-0.380997
C19	C	0.482577	0.380830	-0.380991
C20	C	0.649196	0.586225	-0.381040
C21	C	0.649221	0.674082	-0.381061
C22	C	0.649258	0.380793	-0.587222
C23	C	0.649268	0.380765	-0.675079
C24	C	0.172936	0.431473	-0.431539
C25	C	-0.014737	0.431495	-0.431574
O26	O	-0.038999	0.474516	-0.474518
N27	N	-0.038208	0.380888	-0.381113
C28	C	-0.014759	0.330268	-0.330643
O29	O	-0.039029	0.287219	-0.287730
C30	C	0.172913	0.330242	-0.330613
C31	C	0.196382	0.380858	-0.381071
C32	C	0.196406	0.482084	-0.481994
C33	C	0.243321	0.482081	-0.481982
C34	C	0.266767	0.431466	-0.431514
C35	C	0.243298	0.380855	-0.381059
C36	C	0.196362	0.279619	-0.280147
C37	C	0.243283	0.279616	-0.280146
C38	C	0.266752	0.330232	-0.330604
C39	C	0.313659	0.330238	-0.330579
N40	N	0.337131	0.380845	-0.381040
C41	C	0.313685	0.431459	-0.431508
C42	C	-0.113290	0.330286	-0.330662
C43	C	-0.160208	0.330294	-0.330668
C44	C	-0.160182	0.431519	-0.431601
C45	C	-0.113263	0.431515	-0.431589
C46	C	-0.089818	0.380893	-0.381123
C47	C	0.412211	0.431449	-0.431478
C48	C	0.459131	0.431444	-0.431459
C49	C	0.459101	0.330216	-0.330530
C50	C	0.412185	0.330224	-0.330545
C51	C	0.388742	0.380843	-0.381026
O52	O	0.337951	0.287234	-0.287664
O53	O	0.337964	0.474490	-0.474428
C54	C	0.126021	0.431476	-0.431551
C55	C	0.102552	0.380864	-0.381096
C56	C	0.125998	0.330250	-0.330629
C57	C	0.055634	0.380872	-0.381103
C58	C	0.032188	0.431486	-0.431570
C59	C	0.055659	0.482093	-0.482031
C60	C	0.102575	0.482090	-0.482019
C61	C	0.102526	0.279643	-0.280167
C62	C	0.055610	0.279651	-0.280183
C63	C	0.032164	0.330265	-0.330651
C64	C	0.766412	0.380893	-0.381111
C65	C	0.816346	0.380908	-0.381136
C66	C	0.649284	0.174691	-0.381084
C67	C	0.649305	0.086834	-0.381098
C68	C	0.620548	1.045563	-0.431589
C69	C	0.678045	1.045552	-0.330599
C70	C	0.678029	0.963006	-0.330591
C71	C	0.649272	0.921735	-0.381083
C72	C	0.620530	0.963009	-0.431582
C73	C	0.706767	0.921725	-0.280088
C74	C	0.706752	0.839174	-0.280078
C75	C	0.677997	0.797902	-0.330574
C76	C	0.649254	0.839181	-0.381076
C77	C	0.620497	0.797910	-0.431567
C78	C	0.591756	0.839188	-0.482073
C79	C	0.591775	0.921736	-0.482078
C80	C	0.677978	0.715353	-0.330569
C81	C	0.620479	0.715356	-0.431560
C82	C	0.620589	0.330123	-1.046554
C83	C	0.678026	0.431241	-1.046555
C84	C	0.678018	0.431259	-0.964009
C85	C	0.649295	0.380710	-0.922732
C86	C	0.620579	0.330142	-0.964000
C87	C	0.706730	0.481832	-0.922734
C88	C	0.706724	0.481853	-0.840183
C89	C	0.678002	0.431299	-0.798904
C90	C	0.649285	0.380728	-0.840178
C91	C	0.620562	0.330179	-0.798901
C92	C	0.591847	0.279603	-0.840173
C93	C	0.591858	0.279587	-0.922722
C94	C	0.677991	0.431315	-0.716356
C95	C	0.620552	0.330197	-0.716347
C96	C	0.649236	0.380867	-0.175687
C97	C	0.649312	0.380673	-0.087831
H98	H	0.478237	0.472665	-0.472549
F99	F	0.590032	0.276297	-1.090478
H100	H	-0.094158	0.472730	-0.472679
H101	H	0.597149	1.079175	-0.472712
F102	F	0.589873	0.671439	-0.485305
F103	F	0.561279	0.225806	-0.796234
F104	F	0.708648	1.089478	-0.276865
F105	F	0.737372	0.965653	-0.226358
F106	F	0.737343	0.795250	-0.226331
H107	H	0.701376	0.681748	-0.289444
H108	H	0.121611	0.238426	-0.239070
F109	F	0.708590	0.485042	-1.090487
H110	H	0.597164	0.289029	-0.682745
H111	H	0.701374	0.472487	-0.682755
H112	H	0.393129	0.472667	-0.472586
F113	F	0.268293	0.535950	-0.535691
F114	F	0.171460	0.535958	-0.535715
F115	F	-0.185143	0.485384	-0.485316
H116	H	-0.179312	0.289085	-0.289572
H117	H	0.568479	0.238413	-0.956333
H118	H	0.730111	0.522996	-0.956348
H119	H	0.730104	0.523036	-0.806586
H120	H	-0.094205	0.289063	-0.289562
F121	F	0.171394	0.225742	-0.226445
H122	H	0.262369	0.238388	-0.239054
H123	H	0.393076	0.289010	-0.289456
H124	H	0.478199	0.289010	-0.289438
H125	H	0.036506	0.238435	-0.239086
F126	F	0.030698	0.535964	-0.535739
F127	F	0.127547	0.535962	-0.535725
H128	H	0.568340	0.805575	-0.523180
H129	H	0.568375	0.955352	-0.523196
