data_functionalizedCrystal
_audit_creation_method	'MofGen! by Chris Wilmer'
_symmetry_space_group_name_H-M	'P1'
_symmetry_Int_Tables_number	1
_symmetry_cell_setting	triclinic
loop_
_symmetry_equiv_pos_as_xyz
  x,y,z
_cell_length_a	13.033293
_cell_length_b	16.120297
_cell_length_c	13.032721
_cell_angle_alpha	80.345876
_cell_angle_beta	74.815879
_cell_angle_gamma	85.311971
loop_
_atom_site_label
_atom_site_type_symbol
_atom_site_fract_x
_atom_site_fract_y
_atom_site_fract_z
Zn1	Zn	1.522678	-0.652702	0.264378
Zn2	Zn	2.022678	-0.152702	0.764378
Zn3	Zn	1.509004	-0.528985	0.433009
Zn4	Zn	2.009004	-0.028985	0.933009
Zn5	Zn	1.356339	-0.497566	0.275649
Zn6	Zn	1.856339	0.002434	0.775649
Zn7	Zn	1.322463	-0.652606	0.464477
Zn8	Zn	1.822463	-0.152606	0.964477
O9	O	1.427621	-0.582965	0.359378
O10	O	1.927621	-0.082965	0.859378
O11	O	1.668545	-0.649480	0.268861
O12	O	2.168545	-0.149480	0.768861
O13	O	1.497208	-0.408156	0.403681
O14	O	1.997208	0.091844	0.903681
O15	O	1.398303	-0.505036	0.124556
O16	O	1.898303	-0.005036	0.624556
O17	O	1.658500	-0.558586	0.392753
O18	O	2.158500	-0.058586	0.892753
O19	O	1.520511	-0.619014	0.116276
O20	O	2.020511	-0.119014	0.616276
O21	O	1.385045	-0.385073	0.288070
O22	O	1.885045	0.114927	0.788070
O23	O	1.204163	-0.504943	0.318584
O24	O	1.704163	-0.004943	0.818584
O25	O	1.340568	-0.769280	0.446386
O26	O	1.840568	-0.269280	0.946386
O27	O	1.179275	-0.618851	0.457315
O28	O	1.679275	-0.118851	0.957315
O29	O	1.487664	-0.769351	0.299375
O30	O	1.987664	-0.269351	0.799375
O31	O	1.464360	-0.558493	0.586780
O32	O	1.964360	-0.058493	1.086780
O33	O	1.327309	-0.649317	0.609900
O34	O	1.827309	-0.149317	1.109900
C35	C	1.153427	-0.558478	0.392588
C36	C	1.653427	-0.058478	0.892588
C37	C	1.036121	-0.548024	0.406823
C38	C	1.536121	-0.048024	0.906823
C39	C	0.988773	-0.588423	0.351976
C40	C	1.488773	-0.088423	0.851976
C41	C	0.867531	-0.577620	0.366687
C42	C	1.367531	-0.077620	0.866687
C43	C	1.411862	-0.800410	0.375134
C44	C	1.911862	-0.300410	0.875134
C45	C	1.405147	-0.893072	0.381848
C46	C	1.905147	-0.393072	0.881848
C47	C	1.392851	-1.062722	0.394087
C48	C	1.892851	-0.562722	0.894087
C49	C	1.462641	-1.104051	0.324324
C50	C	1.962641	-0.604051	0.824324
C51	C	1.455800	-1.198449	0.331134
C52	C	1.955800	-0.698449	0.831134
C53	C	1.399691	-0.968314	0.387278
C54	C	1.899691	-0.468314	0.887278
C55	C	1.702885	-0.607549	0.326039
C56	C	2.202885	-0.107549	0.826039
C57	C	1.820187	-0.618025	0.311832
C58	C	2.320187	-0.118025	0.811832
C59	C	1.390702	-0.607325	0.637127
C60	C	1.890702	-0.107325	1.137127
C61	C	1.375003	-0.617782	0.755940
C62	C	1.875003	-0.117782	1.255940
C63	C	1.443389	-0.366365	0.343600
C64	C	1.943389	0.133635	0.843600
C65	C	1.450349	-0.273695	0.336560
C66	C	1.950349	0.226305	0.836560
C67	C	1.464711	-0.558531	0.080542
C68	C	1.964711	-0.058531	0.580542
C69	C	1.480517	-0.548119	-0.038281
C70	C	1.980517	-0.048119	0.461719
C71	C	1.435868	-0.577550	0.797432
C72	C	1.935868	-0.077550	1.297432
C73	C	1.419643	-0.588357	0.920231
C74	C	1.919643	-0.088357	1.420231
H75	H	1.527528	-1.068538	0.259483
H76	H	2.027528	-0.568538	0.759483
O77	O	1.315543	-1.105215	0.471405
O78	O	1.815543	-0.605215	0.971405
C79	C	1.238103	-1.239410	0.548699
C80	C	1.738103	-0.739410	1.048699
C81	C	1.325716	-1.191379	0.461099
C82	C	1.825716	-0.691379	0.961099
H83	H	1.246284	-1.309079	0.540383
H84	H	1.746284	-0.809079	1.040383
H85	H	1.246381	-1.231637	0.631477
H86	H	1.746381	-0.731637	1.131477
H87	H	1.156724	-1.213051	0.539044
H88	H	1.656724	-0.713051	1.039044
H89	H	1.407135	-1.217706	0.470654
H90	H	1.907135	-0.717706	0.970654
H91	H	1.317344	-1.199150	0.378356
H92	H	1.817344	-0.699150	0.878356
H93	H	0.869406	-0.660609	0.253975
H94	H	1.369406	-0.160609	0.753975
H95	H	1.037997	-0.631005	0.294125
H96	H	1.537997	-0.131005	0.794125
H97	H	1.499992	-0.535107	0.742046
H98	H	1.999992	-0.035107	1.242046
O99	O	1.343161	-0.638939	0.986451
O100	O	1.843161	-0.138939	1.486451
C101	C	1.257333	-0.695897	1.169216
C102	C	1.757333	-0.195897	1.669216
C103	C	1.343968	-0.638573	1.094347
C104	C	1.843968	-0.138573	1.594347
H105	H	1.257973	-0.695634	1.256465
H106	H	1.757973	-0.195634	1.756465
H107	H	1.176141	-0.671703	1.156745
H108	H	1.676141	-0.171703	1.656745
H109	H	1.273800	-0.762846	1.149851
H110	H	1.773800	-0.262846	1.649851
H111	H	1.327602	-0.571610	1.113666
H112	H	1.827602	-0.071610	1.613666
H113	H	1.425132	-0.662837	1.106832
H114	H	1.925132	-0.162837	1.606832
H115	H	1.310887	-0.660232	0.811328
H116	H	1.810887	-0.160232	1.311328
O117	O	0.808658	-0.526873	0.435696
O118	O	1.308658	-0.026873	0.935696
C119	C	0.634152	-0.469772	0.513195
C120	C	1.134152	0.030228	1.013195
C121	C	0.700695	-0.527281	0.435027
C122	C	1.200695	-0.027281	0.935027
H123	H	0.546854	-0.470069	0.512663
H124	H	1.046854	0.029931	1.012663
H125	H	0.643176	-0.493776	0.597905
H126	H	1.143176	0.006224	1.097905
H127	H	0.663184	-0.402841	0.486826
H128	H	1.163184	0.097159	0.986826
H129	H	0.671707	-0.594226	0.461297
H130	H	1.171707	-0.094226	0.961297
H131	H	0.691667	-0.503207	0.350335
H132	H	1.191667	-0.003207	0.850335
O133	O	0.977244	-0.497280	0.475828
O134	O	1.477244	0.002720	0.975828
C135	C	0.802738	-0.440179	0.553327
C136	C	1.302738	0.059821	1.053327
C137	C	0.869281	-0.497688	0.475159
C138	C	1.369281	0.002312	0.975159
H139	H	0.715440	-0.440476	0.552795
H140	H	1.215440	0.059524	1.052795
H141	H	0.811762	-0.464183	0.638037
H142	H	1.311762	0.035817	1.138037
H143	H	0.831770	-0.373248	0.526958
H144	H	1.331770	0.126752	1.026958
H145	H	0.840293	-0.564633	0.501429
H146	H	1.340293	-0.064633	1.001429
H147	H	0.860253	-0.473614	0.390467
H148	H	1.360253	0.026386	0.890467
H149	H	1.544645	-0.505674	0.906335
H150	H	2.044645	-0.005674	1.406335
