data_functionalizedCrystal
_audit_creation_method	'MofGen! by Chris Wilmer'
_symmetry_space_group_name_H-M	'P1'
_symmetry_Int_Tables_number	1
_symmetry_cell_setting	triclinic
loop_
_symmetry_equiv_pos_as_xyz
  x,y,z
_cell_length_a	14.628931
_cell_length_b	19.902436
_cell_length_c	14.628931
_cell_angle_alpha	90.001278
_cell_angle_beta	60.000000
_cell_angle_gamma	59.996936
loop_
_atom_site_label
_atom_site_type_symbol
_atom_site_fract_x
_atom_site_fract_y
_atom_site_fract_z
Zr1	Zr	1.000474	0.647322	-0.119891
O2	O	1.191197	0.540030	-0.265863
O3	O	0.809764	0.680212	-0.075142
O4	O	1.000469	0.680213	-0.265847
O5	O	1.000492	0.540029	0.075274
O6	O	1.000451	0.790791	-0.265835
O7	O	1.000492	0.540029	-0.075158
O8	O	0.659314	0.790791	0.075302
O9	O	1.341629	0.540030	-0.265863
O10	O	0.888188	0.776764	-0.056048
O11	O	0.888202	0.694240	0.056208
O12	O	1.112732	0.694240	-0.168323
O13	O	1.112746	0.611716	-0.056067
Zr14	Zr	1.000447	0.823682	0.120050
Zr15	Zr	1.000446	0.823682	-0.119871
Zr16	Zr	1.000475	0.647321	0.120031
Zr17	Zr	1.240396	0.647322	-0.119891
Zr18	Zr	0.760525	0.823682	0.120051
O19	O	1.191158	0.790791	0.075301
O20	O	1.191157	0.790792	-0.265836
O21	O	1.191198	0.540029	0.075274
O22	O	0.809724	0.930974	0.266023
O23	O	0.809723	0.930974	-0.075114
O24	O	0.809765	0.680212	0.265995
O25	O	1.000429	0.930974	-0.075114
O26	O	1.000452	0.790791	0.266007
O27	O	1.000470	0.680212	0.265995
O28	O	1.000429	0.930974	0.075317
O29	O	1.341606	0.680213	-0.265848
O30	O	0.659315	0.790791	0.266008
O31	O	0.659292	0.930974	0.266023
O32	O	0.659292	0.930974	0.075318
O33	O	1.341629	0.540030	-0.075158
O34	O	1.341607	0.680213	-0.075143
O35	O	0.888189	0.776763	0.168483
O36	O	0.888175	0.859287	0.056226
O37	O	1.112719	0.776764	-0.056049
O38	O	1.112733	0.694240	0.056208
C39	C	0.700355	0.735501	0.000080
C40	C	0.598502	0.735501	0.000080
C41	C	1.000496	0.514902	0.000055
C42	C	1.000508	0.440032	0.000047
C43	C	0.553086	0.776439	-0.055606
C44	C	0.447816	0.776440	-0.055607
C45	C	1.000444	0.168030	0.000091
C46	C	1.142091	0.144463	-0.070395
C47	C	1.142180	0.222301	-0.070787
C48	C	1.000477	0.302973	0.000069
C49	C	0.930132	0.300562	-0.051575
C50	C	0.931037	0.222334	-0.052096
C51	C	0.928129	0.223322	0.122252
C52	C	0.930791	0.300243	0.122065
C53	C	1.000488	0.379240	0.000058
C54	C	1.000429	0.091765	0.000098
C55	C	1.300566	0.735502	0.000079
C56	C	1.402419	0.735502	0.000079
C57	C	1.000460	0.735502	-0.300025
C58	C	1.000459	0.735502	-0.401878
C59	C	1.000425	0.956102	0.000104
C60	C	1.000413	1.030971	0.000112
C61	C	1.111848	0.694565	-0.502983
C62	C	1.111851	0.694564	-0.608254
C63	C	1.000461	0.735501	0.300185
C64	C	1.000462	0.735501	0.402037
C65	C	0.700320	0.956101	0.000105
C66	C	0.598455	1.030971	0.000113
C67	C	0.700356	0.735501	0.300185
C68	C	0.598504	0.735501	0.402038
C69	C	0.700321	0.956101	0.300209
C70	C	0.598456	1.030971	0.402071
C71	C	1.300600	0.514902	-0.300050
C72	C	1.402465	0.440033	-0.401911
C73	C	1.300601	0.514902	0.000055
C74	C	1.402466	0.440033	0.000047
C75	C	1.300565	0.735502	-0.300025
C76	C	1.402418	0.735503	-0.401878
C77	C	0.550625	1.023054	-0.058499
C78	C	0.454925	1.093395	-0.058514
C79	C	0.407051	1.171652	0.000091
C80	C	0.454890	1.179568	0.058705
C81	C	0.550595	1.109227	0.058713
C82	C	0.550612	1.109214	0.391309
C83	C	0.454913	1.179569	0.487009
C84	C	0.407053	1.171678	0.593470
C85	C	0.454906	1.093426	0.604230
C86	C	0.550610	1.023073	0.508530
C87	C	1.450320	0.361790	-0.391149
C88	C	1.546049	0.291435	-0.486850
C89	C	1.593915	0.299326	-0.593311
C90	C	1.546055	0.377578	-0.604070
C91	C	1.450335	0.447930	-0.508371
C92	C	1.450306	0.447950	0.058649
C93	C	1.546032	0.377608	0.058637
C94	C	1.593910	0.299351	0.000029
C95	C	1.546066	0.291436	-0.058581
C96	C	1.450348	0.361776	-0.058575
C97	C	0.553088	0.776438	0.503143
C98	C	0.447818	0.776439	0.608415
H99	H	0.592132	0.811490	-0.103277
C100	C	0.395067	0.823788	-0.120019
H101	H	0.437211	0.849467	-0.154961
H102	H	0.304704	0.864526	-0.069401
H103	H	0.410767	0.786575	-0.175452
H104	H	1.197413	0.104552	-0.159966
C105	C	0.402239	1.084757	0.721339
H106	H	0.338379	1.137867	0.776784
H107	H	0.470927	1.055529	0.729755
H108	H	0.364887	1.055538	0.729735
C109	C	1.217198	0.219906	-0.192518
H110	H	1.247726	0.171306	-0.241924
H111	H	1.288504	0.220198	-0.208816
H112	H	1.161627	0.266733	-0.201922
C113	C	0.402203	1.265651	0.123187
H114	H	0.444391	1.260301	0.158101
H115	H	0.311847	1.294868	0.178631
H116	H	0.417883	1.294889	0.072608
H117	H	1.671850	0.242082	0.000033
H118	H	1.411354	0.355349	-0.304472
H119	H	0.559447	0.700456	0.047758
C120	C	0.545763	0.688150	0.390370
H121	H	0.587914	0.662461	0.313286
H122	H	0.455400	0.725354	0.425311
H123	H	0.561464	0.647406	0.425298
H124	H	1.197688	0.105297	-0.035932
C125	C	0.455166	0.688149	0.064489
H126	H	0.413034	0.662461	0.099419
H127	H	0.439484	0.725352	0.119914
H128	H	0.545533	0.647404	0.013859
H129	H	0.589566	1.115654	0.304632
H130	H	1.584971	0.384069	0.106368
C131	C	0.605843	0.823778	0.514811
H132	H	0.563709	0.849455	0.591895
H133	H	0.590167	0.864517	0.479879
H134	H	0.696209	0.786559	0.479873
H135	H	0.415986	1.086934	-0.106244
C136	C	1.699200	0.221936	-0.698573
H137	H	1.720864	0.237835	-0.763524
H138	H	1.667832	0.190112	-0.698571
H139	H	1.773870	0.190119	-0.698569
H140	H	1.197653	0.221023	-0.036415
H141	H	0.981026	0.185792	-0.141990
H142	H	0.827113	0.241682	-0.004077
H143	H	0.589552	0.959367	0.517308
C144	C	0.989364	0.174278	0.180534
H145	H	0.944299	0.208769	0.254129
H146	H	1.077459	0.155241	0.139150
H147	H	0.984097	0.128566	0.184287
H148	H	0.825942	0.357375	-0.002705
C149	C	1.598666	0.205369	-0.474995
H150	H	1.556428	0.210752	-0.397883
H151	H	1.689019	0.176131	-0.509875
H152	H	1.582984	0.176134	-0.509897
H153	H	0.978986	0.302113	-0.140614
H154	H	1.585063	0.227709	-0.106298
H155	H	0.982082	0.299866	0.160645
C156	C	0.603183	1.117946	0.123205
H157	H	0.560947	1.174629	0.158113
H158	H	0.693539	1.092299	0.072641
H159	H	0.587476	1.092304	0.178672
C160	C	1.598706	0.386247	-0.721179
H161	H	1.662554	0.333137	-0.776624
H162	H	1.636039	0.415476	-0.729593
H163	H	1.529996	0.415464	-0.729578
H164	H	0.441465	0.700456	0.511392
H165	H	0.408760	0.811488	0.695149
C166	C	1.397718	0.353057	-0.123025
H167	H	1.439937	0.296374	-0.157917
H168	H	1.413384	0.378705	-0.178484
H169	H	1.307360	0.378700	-0.072427
H170	H	1.411372	0.511638	-0.517146
C171	C	1.397657	0.534023	0.123124
H172	H	1.439878	0.528652	0.158011
H173	H	1.307302	0.563256	0.178588
H174	H	1.413340	0.563257	0.072540
H175	H	0.827410	0.357702	0.179002
H176	H	0.823784	0.243239	0.175019
H177	H	1.207211	0.659522	-0.511607
C178	C	0.603277	0.936978	-0.122972
H179	H	0.667121	0.896212	-0.114575
H180	H	0.640618	0.930809	-0.200070
H181	H	0.534569	0.930809	-0.094032
C182	C	0.301767	1.249019	0.000086
H183	H	0.280134	1.233089	-0.043208
H184	H	0.333113	1.280851	-0.031285
H185	H	0.227082	1.280840	0.074756
C186	C	1.240685	0.647215	-0.725420
H187	H	1.223785	0.653431	-0.780804
H188	H	1.288882	0.590533	-0.733879
H189	H	1.288864	0.668485	-0.733870
H190	H	0.905093	0.770547	-0.511232
H191	H	0.905097	0.770552	-0.393254
C192	C	0.402279	1.265634	0.475154
H193	H	0.444478	1.260251	0.398042
H194	H	0.417965	1.294875	0.510036
H195	H	0.311917	1.294867	0.510056
H196	H	0.329124	1.228970	0.671386
