data_functionalizedCrystal
_audit_creation_method	'MofGen! by Chris Wilmer'
_symmetry_space_group_name_H-M	'P1'
_symmetry_Int_Tables_number	1
_symmetry_cell_setting	triclinic
loop_
_symmetry_equiv_pos_as_xyz
  x,y,z
_cell_length_a	29.839131
_cell_length_b	13.033304
_cell_length_c	13.032268
_cell_angle_alpha	89.077769
_cell_angle_beta	82.859460
_cell_angle_gamma	82.790878
loop_
_atom_site_label
_atom_site_type_symbol
_atom_site_fract_x
_atom_site_fract_y
_atom_site_fract_z
Zn1	Zn	-0.139790	-1.498327	0.781479
Zn2	Zn	-0.204353	-1.520010	0.609486
Zn3	Zn	-0.137416	-1.348190	0.587652
Zn4	Zn	-0.223079	-1.326245	0.759515
O5	O	-0.176160	-1.423193	0.684533
O6	O	-0.141511	-1.645128	0.776994
O7	O	-0.186643	-1.515477	0.462685
O8	O	-0.074861	-1.368217	0.613418
O9	O	-0.188945	-1.661059	0.650632
O10	O	-0.076605	-1.478522	0.755822
O11	O	-0.137465	-1.389242	0.446643
O12	O	-0.155623	-1.201355	0.592120
O13	O	-0.220862	-1.330813	0.906334
O14	O	-0.218559	-1.185231	0.718387
O15	O	-0.159669	-1.457241	0.922471
O16	O	-0.269707	-1.494197	0.629334
O17	O	-0.283465	-1.351838	0.739559
C18	C	-0.188866	-1.155975	0.650501
C19	C	-0.194314	-1.041655	0.635967
C20	C	-0.173322	-0.982792	0.692105
C21	C	-0.178952	-0.864636	0.677084
C22	C	-0.292888	-1.423014	0.684459
C23	C	-0.342822	-1.423027	0.684473
C24	C	-0.645284	-1.497427	0.627250
C25	C	-0.832953	-1.497549	0.627306
O26	O	-0.851116	-1.560664	0.578595
N27	N	-0.863596	-1.423397	0.684638
C28	C	-0.847320	-1.349213	0.741965
O29	O	-0.877690	-1.286151	0.790739
C30	C	-0.659651	-1.349096	0.741914
C31	C	-0.629010	-1.423247	0.684570
C32	C	-0.614643	-1.571572	0.569912
C33	C	-0.567728	-1.571537	0.569894
C34	C	-0.551455	-1.497358	0.627214
C35	C	-0.582095	-1.423212	0.684553
C36	C	-0.643376	-1.274918	0.799246
C37	C	-0.596455	-1.274897	0.799231
C38	C	-0.565813	-1.349048	0.741887
C39	C	-0.518907	-1.348998	0.741855
N40	N	-0.488264	-1.423150	0.684523
C41	C	-0.504538	-1.497330	0.627203
C42	C	-0.945848	-1.349278	0.741986
C43	C	-0.992765	-1.349306	0.741998
C44	C	-0.978395	-1.497643	0.627340
C45	C	-0.931477	-1.497610	0.627323
C46	C	-0.915205	-1.423430	0.684654
C47	C	-0.406014	-1.497251	0.627169
C48	C	-0.359096	-1.497207	0.627153
C49	C	-0.373470	-1.348873	0.741814
C50	C	-0.420384	-1.348913	0.741826
C51	C	-0.436654	-1.423111	0.684502
O52	O	-0.500712	-1.285923	0.790549
O53	O	-0.474161	-1.560396	0.578455
C54	C	-0.692198	-1.497462	0.627268
C55	C	-0.722839	-1.423316	0.684606
C56	C	-0.706565	-1.349136	0.741926
C57	C	-0.769756	-1.423344	0.684618
C58	C	-0.786030	-1.497524	0.627297
C59	C	-0.755386	-1.571676	0.569966
C60	C	-0.708472	-1.571641	0.569948
C61	C	-0.737208	-1.274984	0.799258
C62	C	-0.784122	-1.275024	0.799270
C63	C	-0.800396	-1.349204	0.741950
C64	C	-0.058976	-1.423398	0.684634
C65	C	-0.009039	-1.423486	0.684677
C66	C	-0.192619	-1.389160	0.952759
C67	C	-0.199633	-1.374658	1.067060
C68	C	-0.163401	-0.691456	0.718692
C69	C	-0.157957	-0.805776	0.733230
C70	C	-0.159729	-1.457153	0.417359
C71	C	-0.152579	-1.471855	0.303083
C72	C	-0.172484	-1.430746	1.126004
C73	C	-0.179732	-1.415758	1.244141
H74	H	-0.334148	-1.557590	0.580453
C75	C	-0.238284	-1.294789	1.117035
N76	N	-0.267397	-1.234630	1.154675
H77	H	-0.683526	-1.632022	0.523253
H78	H	-0.143872	-1.489858	1.089007
H79	H	-0.216454	-1.004574	0.576782
H80	H	-0.627887	-1.631984	0.523235
C81	C	-0.128045	-0.855857	0.813192
N82	N	-0.105515	-0.893579	0.873419
H83	H	-0.932603	-1.288869	0.788673
H84	H	-0.583209	-1.214492	0.845920
C85	C	-0.143409	-1.032881	0.772057
N86	N	-0.120877	-1.070607	0.832278
H87	H	-0.201093	-0.827561	0.617895
C88	C	-0.423904	-1.578866	0.564102
N89	N	-0.437379	-1.640334	0.516593
H90	H	-0.208342	-1.356632	1.281132
H91	H	-0.123964	-1.530969	1.266092
C92	C	-0.454091	-1.267341	0.804903
N93	N	-0.479476	-1.205907	0.852422
C94	C	-0.534028	-1.653103	0.506801
N95	N	-0.508648	-1.714539	0.459274
H96	H	-0.906531	-1.557990	0.580630
H97	H	-0.991653	-1.558044	0.580668
C98	C	-1.026466	-1.267726	0.805069
N99	N	-1.051848	-1.206280	0.852582
C100	C	-0.719315	-1.193400	0.862350
N101	N	-0.705840	-1.131951	0.909883
H102	H	-0.668316	-1.214532	0.845936
C103	C	-0.817824	-1.193445	0.862356
N104	N	-0.843206	-1.132007	0.909878
C105	C	-0.773297	-1.653273	0.506912
N106	N	-0.786789	-1.714732	0.459427
C107	C	-0.355560	-1.267283	0.804868
N108	N	-0.342068	-1.205834	0.852368
