data_functionalizedCrystal
_audit_creation_method	'MofGen! by Chris Wilmer'
_symmetry_space_group_name_H-M	'P1'
_symmetry_Int_Tables_number	1
_symmetry_cell_setting	triclinic
loop_
_symmetry_equiv_pos_as_xyz
  x,y,z
_cell_length_a	12.645331
_cell_length_b	12.645329
_cell_length_c	12.645323
_cell_angle_alpha	89.973752
_cell_angle_beta	89.977324
_cell_angle_gamma	90.016957
loop_
_atom_site_label
_atom_site_type_symbol
_atom_site_fract_x
_atom_site_fract_y
_atom_site_fract_z
Zn1	Zn	1.620729	-0.422060	-0.599436
Zn2	Zn	1.620610	-0.599348	-0.422172
Zn3	Zn	1.443444	-0.422096	-0.422180
Zn4	Zn	1.443425	-0.599279	-0.599387
O5	O	1.532052	-0.510695	-0.510794
O6	O	1.769061	-0.445591	-0.575938
O7	O	1.597067	-0.575879	-0.273826
O8	O	1.467019	-0.273744	-0.445718
O9	O	1.768973	-0.575844	-0.445703
O10	O	1.597270	-0.273717	-0.575947
O11	O	1.466903	-0.445653	-0.273832
O12	O	1.295094	-0.445585	-0.445671
O13	O	1.466986	-0.575726	-0.747741
O14	O	1.295080	-0.575761	-0.575864
O15	O	1.597251	-0.445524	-0.747777
O16	O	1.597048	-0.747686	-0.445656
O17	O	1.466871	-0.747635	-0.575855
C18	C	1.256622	-0.510670	-0.510763
C19	C	1.138792	-0.510685	-0.510775
C20	C	1.531973	-0.786125	-0.510773
C21	C	1.532036	-0.903955	-0.510799
C22	C	1.450103	-0.948850	-0.592660
C23	C	1.450443	-1.071409	-0.593015
C24	C	1.643960	-1.071724	-0.540906
C25	C	1.643388	-0.949126	-0.541466
C26	C	1.503229	-0.949245	-0.398697
C27	C	1.500862	-1.071853	-0.399328
C28	C	0.971202	-0.428415	-0.429323
C29	C	1.093761	-0.428628	-0.428964
C30	C	1.094271	-0.622359	-0.480258
C31	C	0.971673	-0.621910	-0.479702
C32	C	0.971643	-0.482344	-0.623060
C33	C	1.094249	-0.479849	-0.622436
C34	C	1.808557	-0.510722	-0.510825
C35	C	1.926387	-0.510733	-0.510839
C36	C	1.532130	-0.510614	-0.787299
C37	C	1.532163	-0.510579	-0.905130
C38	C	1.532160	-0.234190	-0.510839
C39	C	1.532206	-0.116360	-0.510858
C40	C	1.449961	-0.592103	-1.072671
C41	C	1.450176	-0.592506	-0.950111
C42	C	1.643863	-0.540899	-0.949649
C43	C	1.643412	-0.541410	-1.072247
C44	C	1.503722	-0.398278	-1.072330
C45	C	1.501230	-0.398951	-0.949724
C46	C	1.532035	-0.510701	-0.235364
C47	C	1.532207	-0.510437	-0.117535
H48	H	1.366935	-0.919474	-0.574085
C49	C	1.337726	-0.566721	-1.112479
C50	C	1.319377	-0.471531	-1.186212
C51	C	1.207139	-0.446148	-1.226029
C52	C	1.113250	-0.515955	-1.192113
C53	C	1.131595	-0.611151	-1.118376
C54	C	1.243833	-0.636534	-1.078559
H55	H	1.388883	-0.419850	-1.211322
H56	H	1.193559	-0.375677	-1.280615
H57	H	1.030164	-0.497166	-1.221588
H58	H	1.062090	-0.662832	-1.093265
H59	H	1.257413	-0.707005	-1.023973
C60	C	1.134421	-0.316748	-0.454783
C61	C	1.104775	-0.223132	-0.382803
C62	C	1.145422	-0.111243	-0.408612
C63	C	1.215715	-0.092969	-0.506402
C64	C	1.245365	-0.186588	-0.578389
C65	C	1.204718	-0.298477	-0.552579
H66	H	1.052737	-0.236657	-0.310407
H67	H	1.123473	-0.041940	-0.355323
H68	H	1.245804	-0.010142	-0.525508
H69	H	1.297403	-0.173063	-0.650784
H70	H	1.226667	-0.367780	-0.605868
C71	C	1.576240	-0.312396	-0.908369
C72	C	1.641969	-0.246186	-0.986711
C73	C	1.716988	-0.159632	-0.945358
C74	C	1.726277	-0.139286	-0.825664
C75	C	1.660545	-0.205497	-0.747314
C76	C	1.585527	-0.292052	-0.788667
H77	H	1.635095	-0.261246	-1.075323
H78	H	1.765646	-0.110618	-1.003359
H79	H	1.781809	-0.075213	-0.795052
H80	H	1.667420	-0.190438	-0.658702
H81	H	1.536869	-0.341065	-0.730667
C82	C	1.728697	-0.908978	-0.464415
C83	C	1.723010	-0.938710	-0.346443
C84	C	1.808323	-0.898564	-0.269401
C85	C	1.899323	-0.828685	-0.310333
C86	C	1.905013	-0.798949	-0.428312
C87	C	1.819700	-0.839095	-0.505353
H88	H	1.655643	-0.990442	-0.316137
H89	H	1.804110	-0.920577	-0.182066
H90	H	1.962477	-0.798967	-0.253303
H91	H	1.972380	-0.747217	-0.458617
H92	H	1.823913	-0.817082	-0.592688
H93	H	1.423689	-0.370640	-1.103235
C94	C	1.390184	-0.368051	-0.910416
C95	C	1.327853	-0.443788	-0.838165
C96	C	1.216805	-0.412892	-0.798852
C97	C	1.168088	-0.306258	-0.831789
C98	C	1.230420	-0.230514	-0.904044
C99	C	1.341467	-0.261410	-0.943357
H100	H	1.363915	-0.522731	-0.813780
H101	H	1.170664	-0.468963	-0.745364
H102	H	1.085884	-0.283387	-0.802687
H103	H	1.194357	-0.151571	-0.928429
H104	H	1.387609	-0.205339	-0.996845
H105	H	1.563627	-0.337434	-1.101345
H106	H	1.468980	-0.675654	-0.920795
H107	H	1.367584	-1.101595	-0.574234
C108	C	0.931390	-0.316205	-0.454876
C109	C	0.865700	-0.254785	-0.372780
C110	C	0.825877	-0.142573	-0.398336
C111	C	0.851745	-0.091780	-0.505988
C112	C	0.917439	-0.153200	-0.588091
C113	C	0.957262	-0.265412	-0.562535
H114	H	0.846547	-0.292385	-0.293083
H115	H	0.777246	-0.097107	-0.337557
H116	H	0.822266	-0.008714	-0.524906
H117	H	0.936591	-0.115600	-0.667788
H118	H	1.005893	-0.310878	-0.623314
C119	C	1.583836	-0.910014	-0.316299
C120	C	1.675349	-0.837250	-0.350497
C121	C	1.755958	-0.798012	-0.268110
C122	C	1.745054	-0.831538	-0.151526
C123	C	1.653537	-0.904307	-0.117322
C124	C	1.572928	-0.943545	-0.199709
H125	H	1.683424	-0.812429	-0.436805
H126	H	1.823705	-0.744144	-0.293431
H127	H	1.804725	-0.802492	-0.090538
H128	H	1.645462	-0.929128	-0.031014
H129	H	1.505181	-0.997412	-0.174389
C130	C	1.133678	-0.707439	-0.557938
C131	C	1.206916	-0.676427	-0.650208
C132	C	1.246324	-0.761506	-0.727890
C133	C	1.212494	-0.877596	-0.713301
C134	C	1.139252	-0.908614	-0.621027
C135	C	1.099844	-0.823535	-0.543345
H136	H	1.231962	-0.590485	-0.661011
H137	H	1.300543	-0.738544	-0.796197
H138	H	1.241666	-0.940576	-0.770805
H139	H	1.114205	-0.994556	-0.610224
H140	H	1.045625	-0.846497	-0.475038
C141	C	1.729025	-0.464575	-1.112352
C142	C	1.797588	-0.402949	-1.032821
C143	C	1.883212	-0.326128	-1.072921
C144	C	1.900272	-0.310932	-1.192551
C145	C	1.831707	-0.372559	-1.272090
C146	C	1.746084	-0.449380	-1.231990
H147	H	1.784961	-0.414197	-0.944256
H148	H	1.933968	-0.280508	-1.014040
H149	H	1.963655	-0.254065	-1.222236
H150	H	1.844334	-0.361312	-1.360655
H151	H	1.695327	-0.495001	-1.290871
C152	C	1.677044	-0.650505	-0.908201
C153	C	1.602989	-0.712588	-0.834019
C154	C	1.636164	-0.822197	-0.792574
C155	C	1.743392	-0.869723	-0.825311
C156	C	1.817453	-0.807639	-0.899497
C157	C	1.784279	-0.698030	-0.940942
H158	H	1.523606	-0.677407	-0.809781
H159	H	1.581338	-0.868155	-0.737656
H160	H	1.767949	-0.950862	-0.794631
H161	H	1.896836	-0.842820	-0.923735
H162	H	1.839105	-0.652072	-0.995860
H163	H	1.468964	-0.917972	-0.675252
C164	C	1.133321	-0.453989	-0.316623
C165	C	1.103341	-0.381298	-0.223660
C166	C	1.142898	-0.406667	-0.111315
C167	C	1.212435	-0.504725	-0.091931
C168	C	1.242419	-0.577422	-0.184897
C169	C	1.202862	-0.552054	-0.297242
H170	H	1.051862	-0.308704	-0.238007
H171	H	1.120701	-0.352851	-0.042496
H172	H	1.241718	-0.523504	-0.008766
H173	H	1.293898	-0.650017	-0.170550
H174	H	1.225059	-0.605870	-0.366061
H175	H	1.706785	-0.483299	-0.920515
H176	H	1.469617	-1.100664	-0.676087
H177	H	0.942664	-0.542301	-0.683797
H178	H	1.667773	-0.920452	-0.623405
H179	H	1.468582	-0.674731	-1.103488
H180	H	1.706722	-1.100832	-0.483132
H181	H	1.668815	-1.102350	-0.621961
C182	C	1.394941	-0.907627	-0.361653
C183	C	1.377003	-0.787901	-0.348560
C184	C	1.268711	-0.746282	-0.311530
C185	C	1.178358	-0.824390	-0.287592
C186	C	1.196293	-0.944124	-0.300684
C187	C	1.304585	-0.985742	-0.337715
H188	H	1.443891	-0.730074	-0.366281
H189	H	1.255435	-0.657647	-0.301838
H190	H	1.098194	-0.793582	-0.260180
H191	H	1.129405	-1.001950	-0.282963
H192	H	1.317861	-1.074377	-0.347406
H193	H	1.124906	-0.535432	-0.686420
H194	H	1.667556	-0.623400	-1.100856
H195	H	1.418617	-1.101042	-0.376662
H196	H	1.124926	-0.646847	-0.399099
H197	H	1.556202	-1.102467	-0.335108
H198	H	0.940353	-0.446970	-0.346651
H199	H	0.943027	-0.645984	-0.397663
H200	H	0.940747	-0.402333	-0.650814
H201	H	1.123353	-0.397670	-0.645448
H202	H	0.942028	-0.685319	-0.536486
H203	H	1.367347	-0.573532	-0.920010
