data_functionalizedCrystal
_audit_creation_method	'MofGen! by Chris Wilmer'
_symmetry_space_group_name_H-M	'P1'
_symmetry_Int_Tables_number	1
_symmetry_cell_setting	triclinic
loop_
_symmetry_equiv_pos_as_xyz
  x,y,z
_cell_length_a	12.759401
_cell_length_b	17.640280
_cell_length_c	12.759393
_cell_angle_alpha	78.768122
_cell_angle_beta	89.981504
_cell_angle_gamma	78.801088
loop_
_atom_site_label
_atom_site_type_symbol
_atom_site_fract_x
_atom_site_fract_y
_atom_site_fract_z
Zn1	Zn	1.690815	-0.314620	-0.509515
Zn2	Zn	1.726240	-0.446817	-0.298344
Zn3	Zn	1.515128	-0.314662	-0.333843
Zn4	Zn	1.550620	-0.446756	-0.474002
O5	O	1.620701	-0.380714	-0.403926
O6	O	1.842537	-0.332165	-0.481509
O7	O	1.698207	-0.429329	-0.156021
O8	O	1.508755	-0.204049	-0.386865
O9	O	1.868564	-0.429289	-0.326362
O10	O	1.637831	-0.204019	-0.515931
O11	O	1.543105	-0.332235	-0.182102
O12	O	1.372813	-0.332176	-0.352430
O13	O	1.569245	-0.429185	-0.625745
O14	O	1.398888	-0.429226	-0.455404
O15	O	1.672246	-0.332106	-0.651837
O16	O	1.732622	-0.557416	-0.291927
O17	O	1.603595	-0.557371	-0.420982
C18	C	1.347729	-0.380699	-0.403916
C19	C	1.230956	-0.380712	-0.403931
C20	C	1.189721	-0.431327	-0.457417
C21	C	1.079999	-0.431337	-0.457425
C22	C	1.052758	-0.330115	-0.350454
C23	C	1.162476	-0.330102	-0.350453
C24	C	1.205448	-0.489768	-0.519172
C25	C	1.095727	-0.489778	-0.519181
C26	C	1.675832	-0.586073	-0.348771
C27	C	1.699514	-0.673926	-0.325211
C28	C	1.441225	-0.962886	-0.583293
C29	C	1.463480	-1.045438	-0.561121
C30	C	1.597919	-1.045419	-0.426872
C31	C	1.575680	-0.962866	-0.449037
C32	C	1.497331	-0.921606	-0.527247
C33	C	1.631785	-0.921585	-0.392991
C34	C	1.609543	-0.839039	-0.415150
C35	C	1.531196	-0.797773	-0.493355
C36	C	1.475089	-0.839060	-0.549406
C37	C	1.710129	-0.962847	-0.314775
C38	C	1.766234	-0.921566	-0.258729
C39	C	1.743998	-0.839018	-0.280893
C40	C	1.665650	-0.797753	-0.359098
C41	C	1.800105	-0.797732	-0.224841
C42	C	1.777863	-0.715186	-0.247000
C43	C	1.643408	-0.715207	-0.381257
C44	C	1.894738	-0.380729	-0.403937
C45	C	2.011516	-0.380736	-0.403942
C46	C	1.620753	-0.380634	-0.677981
C47	C	1.620775	-0.380600	-0.794767
C48	C	1.565383	-0.174553	-0.459319
C49	C	1.541809	-0.086700	-0.482925
C50	C	1.674416	-0.330046	-0.863218
C51	C	1.674433	-0.330017	-0.972949
C52	C	1.567168	-0.431104	-0.945768
C53	C	1.567145	-0.431128	-0.836040
C54	C	1.736348	-0.271687	-0.878911
C55	C	1.736365	-0.271658	-0.988643
C56	C	1.620694	-0.380736	-0.130953
C57	C	1.620815	-0.380548	-0.014227
H58	H	0.996989	-0.288910	-0.306915
C59	C	1.239797	-0.467710	-0.635059
H60	H	1.179465	-0.458639	-0.682721
H61	H	1.292427	-0.509624	-0.650743
H62	H	1.268673	-0.421244	-0.643209
C63	C	1.848700	-0.301320	-0.824967
H64	H	1.898749	-0.314496	-0.876877
H65	H	1.848371	-0.346659	-0.770871
H66	H	1.868300	-0.261075	-0.793887
C67	C	1.077687	-0.572449	-0.467352
H68	H	1.144723	-0.606439	-0.446021
H69	H	1.041829	-0.592843	-0.517523
H70	H	1.035390	-0.569065	-0.406522
C71	C	1.508117	-0.486723	-0.760751
H72	H	1.476185	-0.516812	-0.801049
H73	H	1.454224	-0.456482	-0.726081
H74	H	1.557530	-0.521184	-0.708682
H75	H	1.196043	-0.288882	-0.306908
C76	C	1.388913	-0.793665	-0.635442
H77	H	1.383710	-0.738592	-0.640614
H78	H	1.321986	-0.807238	-0.616370
H79	H	1.407896	-0.807151	-0.702430
C80	C	1.355056	-0.917495	-0.669338
H81	H	1.324825	-0.953901	-0.699548
H82	H	1.386545	-0.885253	-0.723796
H83	H	1.300629	-0.885336	-0.637743
C84	C	1.272508	-0.568280	-0.458543
H85	H	1.226448	-0.603253	-0.431550
H86	H	1.311853	-0.558829	-0.400844
H87	H	1.320586	-0.591201	-0.505842
H88	H	1.523501	-0.472240	-0.979387
H89	H	1.579616	-0.681611	-0.444952
C90	C	1.684704	-0.189002	-0.860903
H91	H	1.663470	-0.154982	-0.927959
H92	H	1.734923	-0.168673	-0.825009
H93	H	1.623837	-0.192343	-0.818643
H94	H	1.863889	-0.831338	-0.161155
H95	H	1.513080	-0.730559	-0.511388
H96	H	1.055857	-0.467928	-0.602399
C97	C	1.401766	-1.090844	-0.622785
H98	H	1.351927	-1.054446	-0.672542
H99	H	1.364701	-1.123092	-0.573903
H100	H	1.450604	-1.122999	-0.659970
C101	C	1.684103	-1.090809	-0.340852
H102	H	1.689321	-1.145883	-0.335686
H103	H	1.665143	-1.077320	-0.273867
H104	H	1.751028	-1.077233	-0.359952
C105	C	1.852233	-0.293810	-1.022937
H106	H	1.852240	-0.293781	-1.097402
H107	H	1.884089	-0.344825	-0.984419
H108	H	1.891847	-0.256475	-1.008162
C109	C	1.675883	-0.193106	-1.055741
H110	H	1.677933	-0.195774	-1.129384
H111	H	1.708716	-0.151388	-1.043988
H112	H	1.603655	-0.183710	-1.035255
C113	C	1.852418	-0.966956	-0.172709
H114	H	1.857635	-1.022030	-0.167543
H115	H	1.833458	-0.953468	-0.105724
H116	H	1.919343	-0.953380	-0.191808
H117	H	1.728238	-1.030061	-0.296739
H118	H	1.823549	-0.681575	-0.201360
