data_functionalizedCrystal
_audit_creation_method	'MofGen! by Chris Wilmer'
_symmetry_space_group_name_H-M	'P1'
_symmetry_Int_Tables_number	1
_symmetry_cell_setting	triclinic
loop_
_symmetry_equiv_pos_as_xyz
  x,y,z
_cell_length_a	10.540539
_cell_length_b	27.732048
_cell_length_c	9.616153
_cell_angle_alpha	89.992780
_cell_angle_beta	89.995174
_cell_angle_gamma	83.584073
loop_
_atom_site_label
_atom_site_type_symbol
_atom_site_fract_x
_atom_site_fract_y
_atom_site_fract_z
O1	O	1.682934	0.068112	-0.115597
O2	O	1.313243	0.074530	-0.115616
O3	O	1.509570	0.000996	-0.115579
O4	O	1.486607	0.141645	-0.115634
O5	O	1.509544	0.000998	0.115712
O6	O	1.313216	0.074531	0.115676
O7	O	1.682908	0.068113	0.115694
Zn8	Zn	1.498058	0.071323	0.152407
Zn9	Zn	1.498093	0.071320	-0.152329
O10	O	1.486580	0.141647	0.115658
C11	C	1.265947	0.074049	0.000028
C12	C	1.125062	0.072609	0.000022
C13	C	0.944031	0.017434	0.000583
C14	C	1.090586	0.018894	0.000047
C15	C	1.062282	0.098458	-0.132062
C16	C	0.915817	0.096625	-0.132157
C17	C	0.915251	0.097720	0.130864
C18	C	1.062211	0.098214	0.132595
C19	C	1.509075	-0.017013	0.000070
C20	C	1.507623	-0.070677	0.000081
C21	C	1.614502	-0.408819	0.000015
C22	C	1.609117	-0.610513	-0.000004
O23	O	1.706850	-0.641153	-0.000060
N24	N	1.492703	-0.630369	-0.000009
C25	C	1.377627	-0.599799	-0.000018
O26	O	1.278486	-0.621317	-0.000036
C27	C	1.383013	-0.398107	-0.000008
C28	C	1.499435	-0.378253	0.000011
C29	C	1.730915	-0.388965	0.000033
C30	C	1.732260	-0.338544	0.000045
C31	C	1.617193	-0.307978	0.000040
C32	C	1.500780	-0.327832	0.000023
C33	C	1.267939	-0.367538	-0.000027
C34	C	1.269296	-0.317112	-0.000028
C35	C	1.385718	-0.297258	-0.000009
C36	C	1.387058	-0.246846	0.000031
N37	N	1.503472	-0.226989	0.000036
C38	C	1.618540	-0.257555	0.000040
C39	C	1.374807	-0.705691	-0.000020
C40	C	1.373460	-0.756114	-0.000020
C41	C	1.604950	-0.766824	-0.000009
C42	C	1.606296	-0.716400	0.000001
C43	C	1.491221	-0.685834	-0.000015
C44	C	1.621356	-0.151668	0.000068
C45	C	1.622691	-0.101243	0.000086
C46	C	1.391201	-0.090538	0.000068
C47	C	1.389865	-0.140959	0.000057
C48	C	1.504953	-0.171523	0.000052
O49	O	1.289377	-0.216177	0.000071
O50	O	1.717666	-0.236029	0.000028
C51	C	1.613157	-0.459239	0.000003
C52	C	1.496745	-0.479094	-0.000014
C53	C	1.381678	-0.448528	-0.000019
C54	C	1.495398	-0.529517	-0.000014
C55	C	1.610465	-0.560083	-0.000009
C56	C	1.726879	-0.540226	-0.000005
C57	C	1.728224	-0.489806	0.000008
C58	C	1.265264	-0.468384	-0.000023
C59	C	1.263928	-0.518805	-0.000034
C60	C	1.378995	-0.549371	-0.000030
C61	C	1.730203	0.068594	0.000048
C62	C	1.871089	0.070034	0.000044
C63	C	1.487075	0.159656	0.000005
C64	C	1.488527	0.213320	-0.000015
N65	N	1.498043	0.071324	0.360382
N66	N	1.498118	0.071316	-0.360303
C67	C	1.392711	0.110527	0.580733
C68	C	1.392932	0.110674	0.419565
C69	C	1.630268	0.082797	0.418833
C70	C	1.629691	0.083074	0.580051
C71	C	1.472477	0.020519	0.580311
C72	C	1.469416	0.020848	0.419084
H73	H	0.866171	0.135257	-0.138167
Br74	Br	0.895224	-0.017792	-0.156380
H75	H	1.082922	0.137906	-0.136991
H76	H	1.698643	-0.791720	-0.000005
H77	H	1.715071	-0.176549	0.000059
Br78	Br	1.235046	-0.049046	0.000062
Br79	Br	1.886234	-0.462869	0.000025
Br80	Br	1.307306	0.006351	0.355420
H81	H	1.084736	0.137377	0.140555
Br82	Br	1.764302	-0.689461	0.000029
H83	H	1.408751	0.148000	0.621218
H84	H	1.820571	-0.565122	0.000005
Br85	Br	1.134578	0.068530	-0.295883
Br86	Br	1.764048	0.036495	0.354948
Br87	Br	1.419978	0.173494	0.355227
H88	H	1.541271	-0.009733	0.378804
H89	H	1.294081	0.103730	0.619542
H90	H	1.169116	-0.534965	-0.000037
H91	H	1.171560	-0.443502	-0.000030
Br92	Br	1.229038	0.099202	0.353693
H93	H	1.278658	-0.772274	-0.000011
H94	H	0.884448	0.080337	0.230982
H95	H	1.103982	0.079331	0.230310
H96	H	1.710524	0.055665	0.619053
H97	H	1.549356	-0.008666	0.618442
H98	H	1.134072	-0.001446	0.094731
H99	H	1.652437	0.120134	0.617626
H100	H	0.866339	0.136518	0.131741
Br101	Br	1.780702	-0.074302	0.000113
H102	H	1.653575	0.119438	0.378430
H103	H	1.378214	0.009599	0.621048
H104	H	0.916356	-0.003786	0.095309
H105	H	1.824622	-0.413847	0.000031
Br106	Br	1.161621	-0.015095	-0.158288
H107	H	0.888448	0.077519	-0.230876
H108	H	1.827062	-0.322384	0.000055
H109	H	1.281093	-0.680808	-0.000033
Br110	Br	1.109928	-0.394469	-0.000057
H111	H	1.175585	-0.292227	-0.000043
H112	H	1.295065	-0.157124	0.000081
