data_functionalizedCrystal
_audit_creation_method	'MofGen! by Chris Wilmer'
_symmetry_space_group_name_H-M	'P1'
_symmetry_Int_Tables_number	1
_symmetry_cell_setting	triclinic
loop_
_symmetry_equiv_pos_as_xyz
  x,y,z
_cell_length_a	29.839134
_cell_length_b	29.839131
_cell_length_c	21.295412
_cell_angle_alpha	89.970612
_cell_angle_beta	89.964443
_cell_angle_gamma	90.034165
loop_
_atom_site_label
_atom_site_type_symbol
_atom_site_fract_x
_atom_site_fract_y
_atom_site_fract_z
Zn1	Zn	0.686769	-0.178951	-0.356119
Zn2	Zn	0.686687	-0.254079	-0.250847
Zn3	Zn	0.611638	-0.178954	-0.250842
Zn4	Zn	0.611600	-0.254046	-0.356057
O5	O	0.649173	-0.216507	-0.303466
O6	O	0.749626	-0.188930	-0.342183
O7	O	0.676713	-0.244128	-0.162757
O8	O	0.621654	-0.116087	-0.264832
O9	O	0.749565	-0.244126	-0.264840
O10	O	0.676853	-0.116085	-0.342178
O11	O	0.621574	-0.188935	-0.162753
O12	O	0.548765	-0.188902	-0.264771
O13	O	0.621590	-0.244069	-0.444154
O14	O	0.548738	-0.244072	-0.342071
O15	O	0.676817	-0.188898	-0.444200
O16	O	0.676676	-0.316941	-0.264779
O17	O	0.621510	-0.316917	-0.342076
C18	C	0.532451	-0.216484	-0.303414
C19	C	0.482517	-0.216485	-0.303407
C20	C	0.125931	-0.187738	-0.263298
C21	C	0.313604	-0.187726	-0.263260
O22	O	0.337870	-0.163246	-0.229099
N23	N	0.337071	-0.216492	-0.303438
C24	C	0.313617	-0.245262	-0.343632
O25	O	0.337884	-0.269726	-0.377811
C26	C	0.125945	-0.245272	-0.343673
C27	C	0.102480	-0.216507	-0.303488
C28	C	0.102466	-0.158975	-0.223116
C29	C	0.055551	-0.158980	-0.223123
C30	C	0.032100	-0.187749	-0.263313
C31	C	0.055565	-0.216512	-0.303495
C32	C	0.102492	-0.274039	-0.383870
C33	C	0.055571	-0.274038	-0.383878
C34	C	0.032106	-0.245273	-0.343692
C35	C	-0.014801	-0.245286	-0.343692
N36	N	-0.038268	-0.216519	-0.303514
C37	C	-0.014818	-0.187751	-0.263324
C38	C	0.412148	-0.245255	-0.343607
C39	C	0.459066	-0.245253	-0.343596
C40	C	0.459049	-0.187716	-0.263224
C41	C	0.412131	-0.187721	-0.263232
C42	C	0.388681	-0.216489	-0.303429
C43	C	-0.113343	-0.187764	-0.263342
C44	C	-0.160263	-0.187773	-0.263352
C45	C	-0.160243	-0.245308	-0.343726
C46	C	-0.113327	-0.245301	-0.343714
C47	C	-0.089879	-0.216525	-0.303521
O48	O	-0.039096	-0.269749	-0.377840
O49	O	-0.039092	-0.163283	-0.229161
C50	C	0.172847	-0.187733	-0.263290
C51	C	0.196311	-0.216496	-0.303472
C52	C	0.172861	-0.245265	-0.343662
C53	C	0.243229	-0.216495	-0.303462
C54	C	0.266680	-0.187726	-0.263272
C55	C	0.243213	-0.158959	-0.223093
C56	C	0.196297	-0.158965	-0.223101
C57	C	0.196328	-0.274031	-0.383841
C58	C	0.243243	-0.274024	-0.383829
C59	C	0.266694	-0.245256	-0.343640
C60	C	0.649092	-0.333230	-0.303435
C61	C	0.649099	-0.383164	-0.303443
C62	C	0.677951	-0.692808	-0.263276
C63	C	0.678006	-0.880481	-0.263301
O64	O	0.702473	-0.904746	-0.229126
N65	N	0.649267	-0.903949	-0.303514
C66	C	0.620513	-0.880497	-0.343726
O67	O	0.596073	-0.904765	-0.377935
C68	C	0.620460	-0.692825	-0.343704
C69	C	0.649199	-0.669359	-0.303484
C70	C	0.706687	-0.669342	-0.223060
C71	C	0.706671	-0.622426	-0.223052
C72	C	0.677919	-0.598977	-0.263260
C73	C	0.649183	-0.622443	-0.303476
C74	C	0.591710	-0.669373	-0.383920
C75	C	0.591700	-0.622452	-0.383912
C76	C	0.620438	-0.598986	-0.343692
C77	C	0.620415	-0.552078	-0.343676
N78	N	0.649154	-0.528610	-0.303463
C79	C	0.677906	-0.552059	-0.263255
C80	C	0.620542	-0.979028	-0.343734
C81	C	0.620555	-1.025945	-0.343739
C82	C	0.678049	-1.025926	-0.263314
C83	C	0.678033	-0.979007	-0.263307
C84	C	0.649282	-0.955559	-0.303521
C85	C	0.677871	-0.453533	-0.263241
C86	C	0.677851	-0.406614	-0.263235
C87	C	0.620359	-0.406637	-0.343661
C88	C	0.620377	-0.453553	-0.343666
C89	C	0.649136	-0.477000	-0.303453
O90	O	0.595965	-0.527785	-0.377838
O91	O	0.702350	-0.527783	-0.229062
C92	C	0.677967	-0.739723	-0.263285
C93	C	0.649230	-0.763190	-0.303501
C94	C	0.620478	-0.739740	-0.343709
C95	C	0.649243	-0.810107	-0.303505
C96	C	0.677995	-0.833557	-0.263297
C97	C	0.706734	-0.810088	-0.223085
C98	C	0.706719	-0.763173	-0.223077
C99	C	0.591739	-0.763209	-0.383922
C100	C	0.591757	-0.810124	-0.383926
C101	C	0.620509	-0.833574	-0.343718
C102	C	0.766352	-0.216531	-0.303519
C103	C	0.816286	-0.216541	-0.303541
C104	C	0.649209	-0.216480	-0.467657
C105	C	0.649224	-0.216468	-0.537625
C106	C	0.649267	-0.099329	-0.303511
C107	C	0.649307	-0.049395	-0.303531
C108	C	0.620521	-0.187725	-0.570480
C109	C	0.620519	-0.187717	-0.636222
C110	C	0.649228	-0.216446	-0.669107
C111	C	0.677933	-0.245194	-0.636244
C112	C	0.677931	-0.245205	-0.570503
N113	N	0.688554	-0.219882	-0.772357
N114	N	0.688555	-0.219869	-0.834809
C115	C	0.649237	-0.216416	-0.867182
N116	N	0.609916	-0.212968	-0.834745
N117	N	0.609916	-0.212978	-0.772288
C118	C	0.649234	-0.216438	-0.740393
C119	C	0.620530	-0.187663	-0.971323
C120	C	0.620527	-0.187658	-1.037066
C121	C	0.677946	-0.245133	-1.037087
C122	C	0.677944	-0.245141	-0.971345
C123	C	0.649237	-0.216403	-0.938466
C124	C	0.649164	-0.216503	-0.139915
C125	C	0.649236	-0.216388	-0.069947
H126	H	0.036450	-0.135556	-0.190400
Cl127	Cl	0.584439	-0.151539	-0.929987
Cl128	Cl	0.272736	-0.310192	-0.434351
H129	H	0.177197	-0.135541	-0.190378
H130	H	0.121555	-0.135546	-0.190389
H131	H	0.597129	-0.959939	-0.376482
Cl132	Cl	0.742879	-0.839576	-0.172537
H133	H	0.701322	-0.268525	-1.063862
H134	H	0.701460	-1.045026	-0.230575
H135	H	-0.179345	-0.268732	-0.376445
Cl136	Cl	0.742851	-0.733679	-0.172514
H137	H	0.568306	-0.688471	-0.416668
Cl138	Cl	0.488558	-0.281423	-0.394109
Cl139	Cl	0.714025	-0.483002	-0.212687
H140	H	-0.179366	-0.164348	-0.230626
H141	H	0.597151	-0.164253	-1.063816
H142	H	0.701318	-0.268545	-0.944594
H143	H	0.596978	-0.472660	-0.376418
Cl144	Cl	-0.083828	-0.281468	-0.394228
Cl145	Cl	0.131979	-0.310203	-0.434394
Cl146	Cl	-0.083873	-0.151589	-0.212811
H147	H	0.568288	-0.603363	-0.416661
Cl148	Cl	0.272703	-0.122795	-0.172568
Cl149	Cl	0.382675	-0.281426	-0.394142
H150	H	0.701306	-0.268610	-0.543753
H151	H	0.568326	-0.744120	-0.416665
Cl152	Cl	0.382637	-0.151557	-0.212713
Cl153	Cl	0.166854	-0.310202	-0.434369
H154	H	0.478151	-0.164292	-0.230500
H155	H	0.568351	-0.829226	-0.416677
Cl156	Cl	0.584429	-0.151600	-0.529150
Cl157	Cl	0.026094	-0.310205	-0.434415
H158	H	0.701253	-0.387509	-0.230481
Cl159	Cl	0.742808	-0.592933	-0.172497
H160	H	0.730103	-0.688429	-0.190318
Cl161	Cl	0.714163	-0.949512	-0.212744
Cl162	Cl	0.584443	-0.151570	-0.677534
H163	H	0.597149	-1.045048	-0.376484
H164	H	0.596948	-0.387537	-0.376396
H165	H	0.701309	-0.268586	-0.663024
