data_functionalizedCrystal
_audit_creation_method	'MofGen! by Chris Wilmer'
_symmetry_space_group_name_H-M	'P1'
_symmetry_Int_Tables_number	1
_symmetry_cell_setting	triclinic
loop_
_symmetry_equiv_pos_as_xyz
  x,y,z
_cell_length_a	16.109318
_cell_length_b	10.654555
_cell_length_c	14.586319
_cell_angle_alpha	89.998746
_cell_angle_beta	90.000075
_cell_angle_gamma	83.979059
loop_
_atom_site_label
_atom_site_type_symbol
_atom_site_fract_x
_atom_site_fract_y
_atom_site_fract_z
O1	O	1.104086	0.161522	-0.076159
O2	O	0.862146	0.181587	-0.076177
O3	O	0.988674	-0.011259	-0.076167
O4	O	0.977559	0.354368	-0.076168
O5	O	0.988665	-0.011261	0.076314
O6	O	0.862137	0.181585	0.076304
O7	O	1.104078	0.161519	0.076322
Cu8	Cu	0.983107	0.171552	0.090236
Cu9	Cu	0.983117	0.171555	-0.090090
O10	O	0.977550	0.354365	0.076312
C11	C	0.831162	0.180769	0.000061
C12	C	0.738853	0.178321	0.000054
C13	C	0.439737	0.170415	-0.083047
C14	C	0.526472	0.172707	-0.083052
C15	C	0.526481	0.172687	0.083190
C16	C	0.439748	0.170386	0.083195
C17	C	0.396378	0.169257	0.000074
C18	C	0.569846	0.173850	0.000063
C19	C	0.663888	0.176335	0.000058
C20	C	0.302330	0.166769	0.000079
C21	C	0.987852	-0.058047	0.000071
C22	C	0.985404	-0.197456	0.000065
C23	C	0.980800	-0.459429	0.166311
C24	C	0.981942	-0.393931	0.249430
C25	C	0.984238	-0.262943	0.249430
C26	C	0.985390	-0.197449	0.166303
C27	C	0.984249	-0.262947	0.083184
C28	C	0.981955	-0.393938	0.083193
C29	C	0.984263	-0.262954	-0.083053
C30	C	0.981973	-0.393943	-0.083056
C31	C	0.985415	-0.197460	-0.166181
C32	C	0.984280	-0.262959	-0.249302
C33	C	0.981985	-0.393955	-0.249299
C34	C	0.980831	-0.459441	-0.166175
C35	C	1.135062	0.162337	0.000082
C36	C	1.227371	0.164785	0.000083
C37	C	0.978372	0.401153	0.000072
C38	C	0.980820	0.540563	0.000072
N39	N	0.983105	0.171548	0.217067
N40	N	0.983125	0.171548	-0.216922
C41	C	1.039151	0.086185	0.452078
C42	C	1.039153	0.086182	0.548059
C43	C	0.927074	0.256916	0.548060
C44	C	0.927068	0.256912	0.452081
C45	C	0.983111	0.171548	0.404092
C46	C	0.983119	0.171549	0.596053
C47	C	0.983121	0.171546	0.700120
C48	C	0.983108	0.171549	0.300018
H49	H	0.561771	0.173649	-0.150738
H50	H	0.981001	-0.447270	0.317111
H51	H	0.881446	0.326419	0.587142
H52	H	0.987280	-0.090802	-0.166175
H53	H	0.881430	0.326425	0.413008
C54	C	0.574187	0.173975	0.174620
C55	C	0.526489	0.172720	0.266052
C56	C	0.574191	0.174027	0.357485
C57	C	0.669591	0.176589	0.357485
C58	C	0.717294	0.177844	0.266050
C59	C	0.669592	0.176537	0.174617
H60	H	0.455863	0.170823	0.266055
H61	H	0.538877	0.173098	0.425171
H62	H	0.704903	0.177557	0.425169
H63	H	0.787920	0.179741	0.266047
H64	H	0.704906	0.177466	0.106931
H65	H	0.404428	0.169494	-0.150730
H66	H	0.404445	0.169441	0.150886
H67	H	0.987250	-0.090790	0.166310
C68	C	0.985491	-0.190886	0.340859
C69	C	0.913103	-0.194608	0.409425
C70	C	0.914356	-0.122549	0.500852
C71	C	0.987998	-0.046769	0.523713
C72	C	1.060392	-0.043044	0.455145
C73	C	1.059139	-0.115103	0.363718
H74	H	0.858584	-0.250707	0.392503
H75	H	0.860765	-0.125307	0.551611
H76	H	0.988925	0.006573	0.591393
H77	H	1.114910	0.013055	0.472067
H78	H	1.112730	-0.112345	0.312960
H79	H	0.985212	-0.209622	-0.316977
C80	C	0.980728	-0.465999	-0.340733
C81	C	1.051219	-0.570325	-0.363590
C82	C	1.049962	-0.642363	-0.455025
C83	C	0.978215	-0.610075	-0.523604
C84	C	0.907719	-0.505744	-0.500748
C85	C	0.908976	-0.433706	-0.409313
H86	H	1.104335	-0.594231	-0.312822
H87	H	1.102148	-0.719596	-0.471944
H88	H	0.977285	-0.663402	-0.591290
H89	H	0.854603	-0.481838	-0.551516
H90	H	0.856790	-0.356473	-0.392394
H91	H	0.978940	-0.566088	0.166319
C92	C	1.100790	-0.007723	0.399290
C93	C	1.162429	-0.101625	0.452079
C94	C	1.224068	-0.195539	0.399295
C95	C	1.224069	-0.195550	0.293721
C96	C	1.162428	-0.101644	0.240926
C97	C	1.100789	-0.007730	0.293711
H98	H	1.162430	-0.101620	0.530237
H99	H	1.269699	-0.265054	0.438378
H100	H	1.269698	-0.265071	0.254647
H101	H	1.162427	-0.101649	0.162769
H102	H	1.055158	0.061785	0.254628
H103	H	1.084785	0.016670	0.587127
H104	H	0.978966	-0.566099	-0.166164
