data_functionalizedCrystal
_audit_creation_method	'MofGen! by Chris Wilmer'
_symmetry_space_group_name_H-M	'P1'
_symmetry_Int_Tables_number	1
_symmetry_cell_setting	triclinic
loop_
_symmetry_equiv_pos_as_xyz
  x,y,z
_cell_length_a	16.992695
_cell_length_b	16.956995
_cell_length_c	16.053802
_cell_angle_alpha	87.607939
_cell_angle_beta	87.252354
_cell_angle_gamma	96.638653
loop_
_atom_site_label
_atom_site_type_symbol
_atom_site_fract_x
_atom_site_fract_y
_atom_site_fract_z
O1	O	-0.028856	1.063242	-0.069484
O2	O	0.471144	1.563242	0.430516
O3	O	-0.056270	0.832832	-0.069470
O4	O	0.443730	1.332832	0.430530
O5	O	0.071520	0.947114	-0.069484
O6	O	0.571520	1.447114	0.430516
O7	O	-0.156646	0.948960	-0.069469
O8	O	0.343354	1.448960	0.430531
O9	O	0.064513	0.940822	0.069376
O10	O	0.564513	1.440822	0.569376
O11	O	-0.063277	0.826539	0.069390
O12	O	0.436723	1.326539	0.569390
O13	O	-0.035863	1.056950	0.069376
O14	O	0.464137	1.556950	0.569376
Zn15	Zn	-0.050682	0.940746	0.091430
Zn16	Zn	0.449318	1.440746	0.591430
Zn17	Zn	-0.041451	0.949036	-0.091524
Zn18	Zn	0.458549	1.449036	0.408476
O19	O	-0.163653	0.942668	0.069390
O20	O	0.336347	1.442668	0.569390
C21	C	-0.061177	0.800067	-0.000038
C22	C	0.438823	1.300067	0.499962
C23	C	-0.065350	0.711812	-0.000034
C24	C	0.434650	1.211812	0.499966
C25	C	-0.096567	0.214502	-0.000063
C26	C	0.403433	0.714502	0.499937
C27	C	-0.092640	0.297427	-0.000062
C28	C	0.407360	0.797427	0.499938
C29	C	-0.018927	0.343818	-0.000061
C30	C	0.481073	0.843818	0.499939
C31	C	0.050863	0.307281	-0.000068
C32	C	0.550863	0.807281	0.499932
C33	C	0.046936	0.224357	-0.000074
C34	C	0.546936	0.724357	0.499926
C35	C	0.000513	0.592351	-0.000047
C36	C	0.500513	1.092351	0.499953
C37	C	0.004435	0.675280	-0.000038
C38	C	0.504435	1.175280	0.499962
C39	C	-0.139069	0.665421	-0.000034
C40	C	0.360931	1.165421	0.499966
C41	C	-0.142990	0.582496	-0.000036
C42	C	0.357010	1.082496	0.499964
C43	C	-0.073199	0.545966	-0.000047
C44	C	0.426801	1.045966	0.499953
N45	N	-0.014912	0.428581	-0.000058
N46	N	0.485088	0.928581	0.499942
N47	N	-0.077216	0.461205	-0.000056
N48	N	0.422784	0.961205	0.499944
C49	C	-0.189208	0.948191	-0.000038
C50	C	0.310792	1.448191	0.499962
C51	C	-0.275793	0.955281	-0.000033
C52	C	0.224207	1.455281	0.499967
C53	C	-0.330468	0.886866	-0.000029
C54	C	0.169532	1.386866	0.499971
C55	C	-0.411822	0.893534	-0.000040
C56	C	0.088178	1.393534	0.499960
C57	C	-0.438500	0.968617	-0.000049
C58	C	0.061500	1.468617	0.499951
C59	C	-0.383818	1.037037	-0.000055
C60	C	0.116182	1.537037	0.499945
C61	C	-0.302465	1.030369	-0.000050
C62	C	0.197535	1.530369	0.499950
C63	C	-0.680305	0.996253	-0.000069
C64	C	-0.180305	1.496253	0.499931
C65	C	-0.761665	1.002916	-0.000072
C66	C	-0.261665	1.502916	0.499928
C67	C	-0.789663	0.859412	-0.000058
C68	C	-0.289663	1.359412	0.499942
C69	C	-0.708307	0.852750	-0.000049
C70	C	-0.208307	1.352750	0.499951
C71	C	-0.653633	0.921171	-0.000059
C72	C	-0.153633	1.421171	0.499941
N73	N	-0.521656	0.975434	-0.000057
N74	N	-0.021656	1.475434	0.499943
N75	N	-0.570478	0.914353	-0.000057
N76	N	-0.070478	1.414353	0.499943
C77	C	0.097076	0.941591	-0.000058
C78	C	0.597076	1.441591	0.499942
C79	C	0.183661	0.934501	-0.000068
C80	C	0.683661	1.434501	0.499932
C81	C	-0.030955	1.089715	-0.000057
C82	C	0.469045	1.589715	0.499943
C83	C	-0.026782	1.177970	-0.000067
C84	C	0.473218	1.677970	0.499933
N85	N	-0.056982	0.935094	0.216291
N86	N	0.443018	1.435094	0.716291
N87	N	-0.035144	0.954694	-0.216385
N88	N	0.464856	1.454694	0.283615
C89	C	-0.002624	0.983741	0.259979
C90	C	0.497376	1.483741	0.759979
C91	C	-0.007037	0.979795	0.347386
C92	C	0.492963	1.479795	0.847386
C93	C	-0.065813	0.927206	0.391104
C94	C	0.434187	1.427206	0.891104
C95	C	-0.120174	0.878553	0.347410
C96	C	0.379826	1.378553	0.847410
C97	C	-0.115756	0.882495	0.260004
C98	C	0.384244	1.382495	0.760004
C99	C	-0.085087	0.909984	0.652516
C100	C	0.414913	1.409984	1.152516
C101	C	-0.089502	0.906047	0.739927
C102	C	0.410498	1.406047	1.239927
C103	C	0.023635	1.007288	0.739898
C104	C	0.523635	1.507288	1.239898
C105	C	0.028045	1.011229	0.652490
C106	C	0.528045	1.511229	1.152490
C107	C	-0.026313	0.962574	0.608804
C108	C	0.473687	1.462574	1.108804
N109	N	-0.070327	0.923173	0.480448
N110	N	0.429673	1.423173	0.980448
N111	N	-0.021795	0.966603	0.519461
N112	N	0.478205	1.466603	1.019461
H113	H	0.057341	0.562618	-0.000054
H114	H	0.557341	1.062618	0.499946
O115	O	-0.176071	0.164465	-0.000060
O116	O	0.323929	0.664465	0.499940
H117	H	-0.206862	0.180583	-0.056659
H118	H	0.293138	0.680583	0.443341
H119	H	-0.686593	0.791610	-0.000051
H120	H	-0.186593	1.291610	0.499949
H121	H	-0.257949	1.086080	-0.000057
H122	H	0.242051	1.586080	0.499943
O123	O	-0.174387	0.830031	0.212877
O124	O	0.325613	1.330031	0.712877
H125	H	-0.216006	0.792805	0.257959
H126	H	0.283994	1.292805	0.757959
O127	O	-0.214336	0.704827	-0.000029
O128	O	0.285664	1.204827	0.499971
H129	H	-0.252351	0.683982	0.056571
H130	H	0.247649	1.183982	0.556571
O131	O	-0.167908	0.336832	-0.000038
O132	O	0.332092	0.836832	0.499962
H133	H	-0.219826	0.290642	-0.000023
H134	H	0.280174	0.790642	0.499977
H135	H	0.045235	1.026569	0.224390
H136	H	0.545235	1.526569	0.724390
H137	H	0.064464	0.713050	-0.000041
H138	H	0.564464	1.213050	0.499959
O139	O	-0.301703	0.805879	-0.000018
O140	O	0.198297	1.305879	0.499982
H141	H	-0.268178	0.796841	0.056587
H142	H	0.231822	1.296841	0.556587
O143	O	-0.222494	0.532459	-0.000036
O144	O	0.277506	1.032459	0.499964
H145	H	-0.270362	0.571795	-0.000037
H146	H	0.229638	1.071795	0.499963
O147	O	-0.470796	0.819743	-0.000020
O148	O	0.029204	1.319743	0.499980
H149	H	-0.438578	0.766413	0.000003
H150	H	0.061422	1.266413	0.500003
H151	H	0.103762	0.194614	-0.000080
H152	H	0.603762	0.694614	0.499920
H153	H	-0.405546	1.098171	-0.000060
H154	H	0.094454	1.598171	0.499940
H155	H	0.075905	1.054052	0.616897
H156	H	0.575905	1.554052	1.116897
O157	O	0.130370	0.357310	-0.000058
O158	O	0.630370	0.857310	0.499942
H159	H	0.121379	0.421110	-0.000041
H160	H	0.621379	0.921110	0.499959
O161	O	-0.848630	0.785618	-0.000055
O162	O	-0.348630	1.285618	0.499945
H163	H	-0.909682	0.802865	-0.000066
H164	H	-0.409682	1.302865	0.499934
H165	H	-0.783381	1.064061	-0.000078
H166	H	-0.283381	1.564061	0.499922
H167	H	-0.635798	1.051966	-0.000073
H168	H	-0.135798	1.551966	0.499927
H169	H	0.037226	1.019407	0.382956
H170	H	0.537226	1.519407	0.882956
O171	O	-0.143720	0.857516	0.605401
O172	O	0.356280	1.357516	1.105401
H173	H	-0.185337	0.820294	0.650487
H174	H	0.314663	1.320294	1.150487
O175	O	0.082269	1.059759	0.787014
O176	O	0.582269	1.559759	1.287014
H177	H	0.069330	1.048180	0.855137
H178	H	0.569330	1.548180	1.355137
H179	H	-0.137368	0.863220	0.775518
H180	H	0.362632	1.363220	1.275518
H181	H	-0.168028	0.835729	0.383010
H182	H	0.331972	1.335729	0.883010
