data_functionalizedCrystal
_audit_creation_method	'MofGen! by Chris Wilmer'
_symmetry_space_group_name_H-M	'P1'
_symmetry_Int_Tables_number	1
_symmetry_cell_setting	triclinic
loop_
_symmetry_equiv_pos_as_xyz
  x,y,z
_cell_length_a	31.640172
_cell_length_b	17.917603
_cell_length_c	17.917603
_cell_angle_alpha	60.138055
_cell_angle_beta	90.006769
_cell_angle_gamma	63.032812
loop_
_atom_site_label
_atom_site_type_symbol
_atom_site_fract_x
_atom_site_fract_y
_atom_site_fract_z
Zr1	Zr	0.431294	0.806770	-0.128959
O2	O	0.370647	0.951815	-0.249509
O3	O	0.446988	0.654539	-0.087304
O4	O	0.454645	0.796390	-0.242711
O5	O	0.360246	0.820659	0.023139
O6	O	0.524201	0.796376	-0.242694
O7	O	0.362989	0.809965	-0.094102
O8	O	0.510504	0.542631	0.035300
O9	O	0.373943	1.074404	-0.254855
O10	O	0.509091	0.719805	-0.075205
O11	O	0.455135	0.727796	0.012279
O12	O	0.464150	0.894807	-0.170693
O13	O	0.410194	0.902798	-0.083209
Zr14	Zr	0.537853	0.823804	0.058053
Zr15	Zr	0.542228	0.806748	-0.128933
Zr16	Zr	0.426919	0.823826	0.058027
Zr17	Zr	0.436552	1.002284	-0.137486
Zr18	Zr	0.532595	0.628290	0.066580
O19	O	0.522160	0.976035	0.016398
O20	O	0.528381	0.951783	-0.249472
O21	O	0.364425	0.976066	0.016361
O22	O	0.598501	0.678759	0.178603
O23	O	0.604722	0.654507	-0.087267
O24	O	0.440766	0.678790	0.178566
O25	O	0.608901	0.809915	-0.094045
O26	O	0.514502	0.834184	0.171805
O27	O	0.444946	0.834198	0.171788
O28	O	0.606158	0.820609	0.023196
O29	O	0.462121	1.074386	-0.254835
O30	O	0.507026	0.556188	0.183929
O31	O	0.595204	0.556170	0.183950
O32	O	0.598681	0.542613	0.035321
O33	O	0.370466	1.087961	-0.106227
O34	O	0.458644	1.087943	-0.106206
O35	O	0.504997	0.735767	0.099787
O36	O	0.558953	0.727775	0.012303
O37	O	0.514012	0.902778	-0.083185
O38	O	0.460056	0.910769	0.004299
C39	C	0.477996	0.570729	-0.024787
C40	C	0.475764	0.487728	-0.021167
C41	C	0.471686	0.335762	-0.014557
C42	C	0.497460	0.294807	-0.056347
C43	C	0.495191	0.210248	-0.052669
C44	C	0.473954	0.420329	-0.018234
C45	C	0.345812	0.815315	-0.035485
C46	C	0.298717	0.815324	-0.035496
C47	C	0.030167	0.723929	0.014409
C48	C	-0.146819	0.723913	0.014427
O49	O	-0.149755	0.646226	0.056849
N50	N	-0.192407	0.815261	-0.035418
C51	C	-0.193748	0.906621	-0.085266
O52	O	-0.236585	0.984319	-0.127654
C53	C	-0.016763	0.906637	-0.085278
C54	C	0.028825	0.815282	-0.035438
C55	C	0.075753	0.632582	0.064246
C56	C	0.119997	0.632586	0.064238
C57	C	0.118655	0.723939	0.014391
C58	C	0.073069	0.815286	-0.035447
C59	C	-0.018104	0.997996	-0.135121
C60	C	0.026147	0.997992	-0.135118
C61	C	0.071735	0.906637	-0.085277
C62	C	0.115970	0.906644	-0.085302
N63	N	0.161559	0.815295	-0.035457
C64	C	0.162901	0.723943	0.014389
C65	C	-0.286666	0.906606	-0.085258
C66	C	-0.330912	0.906602	-0.085256
C67	C	-0.283980	0.723893	0.014439
C68	C	-0.239733	0.723898	0.014431
C69	C	-0.241078	0.815257	-0.035413
C70	C	0.255814	0.723959	0.014366
C71	C	0.300060	0.723972	0.014350
C72	C	0.253123	0.906680	-0.085340
C73	C	0.208881	0.906668	-0.085328
C74	C	0.210230	0.815300	-0.035468
O75	O	0.118944	0.984290	-0.127694
O76	O	0.205742	0.646258	0.056787
C77	C	-0.014077	0.723925	0.014418
C78	C	-0.059662	0.815272	-0.035420
C79	C	-0.061005	0.906625	-0.085266
C80	C	-0.103909	0.815268	-0.035418
C81	C	-0.102566	0.723916	0.014428
C82	C	-0.056978	0.632568	0.064273
C83	C	-0.012734	0.632572	0.064264
C84	C	-0.106593	0.997973	-0.135111
C85	C	-0.150835	0.997961	-0.135099
C86	C	-0.149493	0.906608	-0.085253
C87	C	0.623335	0.815259	-0.035420
C88	C	0.670430	0.815249	-0.035409
C89	C	0.490046	0.793953	-0.269344
C90	C	0.491904	0.786712	-0.348724
C91	C	0.491151	1.059845	-0.046119
C92	C	0.493383	1.142846	-0.049739
C93	C	0.495307	0.773486	-0.494079
C94	C	0.473841	0.857083	-0.576830
C95	C	0.475735	0.849725	-0.657710
C96	C	0.493414	0.780843	-0.413190
C97	C	0.479101	0.836621	0.198438
C98	C	0.477243	0.843862	0.277818
C99	C	0.616758	0.570701	-0.024754
C100	C	0.661620	0.487690	-0.021123
C101	C	0.472524	0.592063	0.209104
C102	C	0.468434	0.516303	0.292104
C103	C	0.611285	0.592035	0.209137
C104	C	0.654290	0.516265	0.292148
C105	C	0.357862	1.038539	-0.280042
C106	C	0.314857	1.114309	-0.363054
C107	C	0.352389	1.059873	-0.046151
C108	C	0.307527	1.142884	-0.049782
C109	C	0.496624	1.038511	-0.280010
C110	C	0.500713	1.114271	-0.363010
C111	C	0.656661	0.444546	-0.065104
C112	C	0.698810	0.366559	-0.061711
C113	C	0.745918	0.331711	-0.014330
C114	C	0.750877	0.374863	0.029652
C115	C	0.708728	0.452854	0.026252
C116	C	0.492540	0.484886	0.376768
C117	C	0.488696	0.413713	0.454763
C118	C	0.460748	0.373952	0.448091
C119	C	0.436638	0.405376	0.363418
C120	C	0.440480	0.476553	0.285426
C121	C	0.702655	0.476511	0.285465
C122	C	0.743067	0.405328	0.363456
C123	C	0.735113	0.373894	0.448128
C124	C	0.686744	0.413655	0.454809
C125	C	0.646333	0.484843	0.376819
C126	C	0.266492	1.154072	-0.356372
C127	C	0.226081	1.225280	-0.434363
C128	C	0.234035	1.256718	-0.519036
C129	C	0.282404	1.216951	-0.525716
C130	C	0.322815	1.145750	-0.447725
C131	C	0.312487	1.186035	-0.005810
C132	C	0.270338	1.264042	-0.009225
C133	C	0.223231	1.298892	-0.056608
C134	C	0.218272	1.255738	-0.100586
C135	C	0.260420	1.177736	-0.097176
C136	C	0.528666	1.154010	-0.356310
C137	C	0.532518	1.225185	-0.434290
C138	C	0.508415	1.256626	-0.518970
C139	C	0.480461	1.216879	-0.525668
C140	C	0.476612	1.145700	-0.447689
H141	H	0.337179	0.649577	0.054939
N142	N	0.527270	0.330502	-0.104718
N143	N	0.518836	0.366750	-0.187162
H144	H	0.539887	0.391964	-0.221326
N145	N	0.258352	1.121992	-0.269895
N146	N	0.236387	1.184969	-0.250314
H147	H	0.230634	1.162322	-0.189242
H148	H	0.782449	0.372961	0.358001
H149	H	0.288875	1.242558	-0.594665
N150	N	-0.193164	0.630592	0.065335
N151	N	-0.162071	0.605653	0.026511
H152	H	-0.129181	0.539752	0.062464
H153	H	0.274385	1.299167	0.026592
N154	N	0.512348	1.329327	-0.598627
N155	N	0.530675	1.307014	-0.651545
H156	H	0.533455	1.358359	-0.707801
N157	N	0.180185	1.378573	-0.060081
N158	N	0.184626	1.417085	-0.020811
H159	H	0.154227	1.473360	-0.023259
H160	H	0.515299	0.517252	0.382217
H161	H	0.694763	0.331434	-0.097526
H162	H	0.460838	1.242490	-0.594625
N163	N	0.170147	1.291356	-0.148983
N164	N	0.132523	1.360998	-0.152011
H165	H	0.098534	1.386154	-0.186188
N166	N	0.360606	1.150432	0.042593
N167	N	0.387364	1.060171	0.106918
H168	H	0.421348	1.035032	0.141102
H169	H	0.789238	0.346478	0.068227
N170	N	0.553292	1.121915	-0.269825
N171	N	0.578250	1.157409	-0.263872
H172	H	0.595647	1.134742	-0.202794
N173	N	0.788975	0.251971	-0.010763
N174	N	0.793567	0.167648	0.022644
H175	H	0.823979	0.111306	0.025199
H176	H	0.186700	1.257646	-0.428906
H177	H	0.201125	1.314694	-0.582533
N178	N	0.372214	1.105146	-0.454575
N179	N	0.379303	1.133229	-0.530184
H180	H	0.414192	1.104557	-0.535029
H181	H	0.709140	0.502094	0.216528
N182	N	0.561075	1.265764	-0.427419
N183	N	0.582587	1.237687	-0.351804
H184	H	0.602755	1.266344	-0.346948
N185	N	0.448048	1.105125	-0.454525
N186	N	0.444604	1.041583	-0.384904
H187	H	0.424428	1.012931	-0.389737
H188	H	0.447917	0.307320	0.023980
N189	N	0.448987	0.953812	-0.589527
N190	N	0.428797	1.032413	-0.667283
H191	H	0.411242	1.100725	-0.676248
H192	H	0.606953	0.517201	0.382272
N193	N	0.776401	0.301177	0.527780
N194	N	0.819580	0.265694	0.521790
H195	H	0.848742	0.214334	0.578041
H196	H	0.712773	0.487972	0.062072
H197	H	0.256374	1.142605	-0.132982
N198	N	0.257204	0.630622	0.065304
N199	N	0.297914	0.549075	0.109795
H200	H	0.298897	0.483154	0.145767
H201	H	0.157113	0.558195	0.104819
H202	H	0.508331	0.388137	0.523699
H203	H	-0.282894	0.649510	0.055020
N204	N	0.077140	0.539250	0.115178
N205	N	0.117851	0.457706	0.159670
H206	H	0.118835	0.391783	0.195640
N207	N	-0.377481	0.999910	-0.136164
N208	N	-0.416986	0.999907	-0.136160
H209	H	-0.449875	1.065808	-0.172112
H210	H	-0.287769	0.981005	-0.125853
H211	H	0.025046	1.072390	-0.175696
N212	N	-0.064660	1.091324	-0.186039
N213	N	-0.065841	1.172873	-0.230530
H214	H	-0.098721	1.238793	-0.266493
N215	N	0.456829	0.301250	0.527772
N216	N	0.478359	0.273212	0.603358
H217	H	0.475595	0.221865	0.659636
N218	N	0.520138	0.676765	-0.481384
N219	N	0.540317	0.598159	-0.403631
H220	H	0.557851	0.529850	-0.394672
H221	H	0.171761	0.981056	-0.125924
H222	H	0.252039	0.981057	-0.125927
N223	N	0.033830	0.539253	0.115166
N224	N	0.045760	0.473534	0.098590
H225	H	0.078644	0.407622	0.134542
N226	N	-0.055620	0.539260	0.115177
N227	N	-0.095132	0.539284	0.115167
H228	H	-0.094177	0.473390	0.151117
H229	H	-0.187953	1.072358	-0.175694
H230	H	-0.107693	1.072365	-0.175704
N231	N	0.608548	0.480112	-0.113501
N232	N	0.604136	0.441570	-0.152762
H233	H	0.570158	0.466684	-0.186947
H234	H	0.413882	0.372992	0.358000
N235	N	0.415851	0.508627	0.198952
N236	N	0.390901	0.473111	0.193019
H237	H	0.373505	0.495760	0.131948
H238	H	0.680275	0.388051	0.523759
