data_functionalizedCrystal
_audit_creation_method	'MofGen! by Chris Wilmer'
_symmetry_space_group_name_H-M	'P1'
_symmetry_Int_Tables_number	1
_symmetry_cell_setting	triclinic
loop_
_symmetry_equiv_pos_as_xyz
  x,y,z
_cell_length_a	27.732048
_cell_length_b	14.519709
_cell_length_c	12.996460
_cell_angle_alpha	89.999966
_cell_angle_beta	89.988908
_cell_angle_gamma	96.838600
loop_
_atom_site_label
_atom_site_type_symbol
_atom_site_fract_x
_atom_site_fract_y
_atom_site_fract_z
O1	O	0.063362	-1.222766	-0.085445
O2	O	0.563362	-0.722766	0.414555
O3	O	0.070824	-0.954160	-0.085477
O4	O	0.570824	-0.454160	0.414523
O5	O	-0.003264	-1.096805	-0.085440
O6	O	0.496736	-0.596805	0.414560
O7	O	0.137450	-1.080121	-0.085482
O8	O	0.637450	-0.580121	0.414518
O9	O	-0.003268	-1.096791	0.085693
O10	O	0.496732	-0.596791	0.585693
O11	O	0.070820	-0.954145	0.085656
O12	O	0.570820	-0.454145	0.585656
O13	O	0.063358	-1.222752	0.085689
O14	O	0.563358	-0.722752	0.585689
Cu15	Cu	0.067089	-1.088447	0.101299
Cu16	Cu	0.567089	-0.588447	0.601299
Cu17	Cu	0.067093	-1.088464	-0.101087
Cu18	Cu	0.567093	-0.588464	0.398913
O19	O	0.137446	-1.080106	0.085652
O20	O	0.637446	-0.580106	0.585652
C21	C	0.070474	-0.919799	0.000086
C22	C	0.570474	-0.419799	0.500086
C23	C	0.069432	-0.817435	0.000074
C24	C	0.569432	-0.317435	0.500074
C25	C	-0.021274	-1.096448	0.000129
C26	C	0.478726	-0.596448	0.500129
C27	C	-0.074934	-1.095393	0.000138
C28	C	0.425066	-0.595393	0.500138
C29	C	0.063708	-1.257113	0.000124
C30	C	0.563708	-0.757113	0.500124
C31	C	0.064750	-1.359476	0.000129
C32	C	0.564750	-0.859476	0.500129
C33	C	-0.413378	-1.173048	0.000094
C34	C	0.086622	-0.673048	0.500094
C35	C	-0.615057	-1.169135	0.000080
C36	C	-0.115057	-0.669135	0.500080
O37	O	-0.645973	-1.240145	0.000043
O38	O	-0.145973	-0.740145	0.500043
N39	N	-0.634585	-1.084552	0.000070
N40	N	-0.134585	-0.584552	0.500070
C41	C	-0.603690	-1.000941	0.000058
C42	C	-0.103690	-0.500941	0.500058
O43	O	-0.624927	-0.928909	0.000039
O44	O	-0.124927	-0.428909	0.500039
C45	C	-0.402012	-1.004855	0.000065
C46	C	0.097988	-0.504855	0.500065
C47	C	-0.382487	-1.089444	0.000085
C48	C	0.117513	-0.589444	0.500085
C49	C	-0.393853	-1.257630	0.000113
C50	C	0.106147	-0.757630	0.500113
C51	C	-0.343436	-1.258607	0.000122
C52	C	0.156564	-0.758607	0.500122
C53	C	-0.312545	-1.175003	0.000113
C54	C	0.187455	-0.675003	0.500113
C55	C	-0.332071	-1.090421	0.000094
C56	C	0.167929	-0.590421	0.500094
C57	C	-0.371118	-0.921246	0.000045
C58	C	0.128882	-0.421246	0.500045
C59	C	-0.320696	-0.922232	0.000045
C60	C	0.179304	-0.422232	0.500045
C61	C	-0.301171	-1.006820	0.000064
C62	C	0.198829	-0.506820	0.500064
C63	C	-0.250763	-1.007794	0.000094
C64	C	0.249237	-0.507794	0.500094
N65	N	-0.231235	-1.092377	0.000104
N66	N	0.268765	-0.592377	0.500104
C67	C	-0.262126	-1.175981	0.000113
C68	C	0.237874	-0.675981	0.500113
C69	C	-0.709574	-0.998893	0.000056
C70	C	-0.209574	-0.498893	0.500056
C71	C	-0.759993	-0.997914	0.000056
C72	C	-0.259993	-0.497914	0.500056
C73	C	-0.771356	-1.166108	0.000076
C74	C	-0.271356	-0.666108	0.500076
C75	C	-0.720936	-1.167086	0.000083
C76	C	-0.220936	-0.667086	0.500083
C77	C	-0.690045	-1.083476	0.000065
C78	C	-0.190045	-0.583476	0.500065
C79	C	-0.156247	-1.178028	0.000133
C80	C	0.343753	-0.678028	0.500133
C81	C	-0.105825	-1.178998	0.000147
C82	C	0.394175	-0.678998	0.500147
C83	C	-0.094466	-1.010804	0.000122
C84	C	0.405534	-0.510804	0.500122
C85	C	-0.144883	-1.009833	0.000114
C86	C	0.355117	-0.509833	0.500114
C87	C	-0.175773	-1.093453	0.000116
C88	C	0.324227	-0.593453	0.500116
O89	O	-0.219818	-0.936822	0.000119
O90	O	0.280182	-0.436822	0.500119
O91	O	-0.240879	-1.248004	0.000109
O92	O	0.259121	-0.748004	0.500109
C93	C	-0.463795	-1.172071	0.000085
C94	C	0.036205	-0.672071	0.500085
C95	C	-0.483320	-1.087489	0.000066
C96	C	0.016680	-0.587489	0.500066
C97	C	-0.452429	-1.003885	0.000057
C98	C	0.047571	-0.503885	0.500057
C99	C	-0.533740	-1.086510	0.000066
C100	C	-0.033740	-0.586510	0.500066
C101	C	-0.564631	-1.170115	0.000076
C102	C	-0.064631	-0.670115	0.500076
C103	C	-0.545103	-1.254698	0.000085
C104	C	-0.045103	-0.754698	0.500085
C105	C	-0.494686	-1.255675	0.000094
C106	C	0.005314	-0.755675	0.500094
C107	C	-0.471957	-0.919302	0.000048
C108	C	0.028043	-0.419302	0.500048
C109	C	-0.522375	-0.918331	0.000039
C110	C	-0.022375	-0.418331	0.500039
C111	C	-0.553266	-1.001936	0.000049
C112	C	-0.053266	-0.501936	0.500049
C113	C	0.155456	-1.080464	0.000080
C114	C	0.655456	-0.580464	0.500080
C115	C	0.209116	-1.081518	0.000065
C116	C	0.709116	-0.581518	0.500065
N117	N	0.067085	-1.088442	0.243646
N118	N	0.567085	-0.588442	0.743646
C119	C	0.065596	-0.442606	0.000122
C120	C	0.565596	0.057394	0.500122
C121	C	0.066661	-0.546896	0.000108
C122	C	0.566661	-0.046896	0.500108
C123	C	0.067514	-0.630018	0.000097
C124	C	0.567514	-0.130018	0.500097
C125	C	0.068579	-0.734314	0.000085
C126	C	0.568579	-0.234314	0.500085
N127	N	0.067093	-1.088477	-0.243434
N128	N	0.567093	-0.588477	0.256566
C129	C	0.067094	-1.088463	0.663460
C130	C	0.567094	-0.588463	1.163460
C131	C	0.067093	-1.088454	0.546655
C132	C	0.567093	-0.588454	1.046655
C133	C	0.067090	-1.088453	0.453557
C134	C	0.567090	-0.588453	0.953557
C135	C	0.067088	-1.088443	0.336744
C136	C	0.567088	-0.588443	0.836744
H137	H	-0.089931	-1.247882	0.000166
H138	H	0.410069	-0.747882	0.500166
H139	H	-0.478794	-1.324556	0.000110
H140	H	0.021206	-0.824556	0.500110
O141	O	-0.392169	-0.830009	0.000025
O142	O	0.107831	-0.330009	0.500025
H143	H	-0.379759	-0.789891	-0.069739
H144	H	0.120241	-0.289891	0.430261
O145	O	-0.427167	-1.347812	0.000126
O146	O	0.072833	-0.847812	0.500126
H147	H	-0.450416	-1.351381	0.069878
H148	H	0.049584	-0.851381	0.569878
H149	H	-0.570263	-1.322771	0.000097
H150	H	-0.070263	-0.822771	0.500097
H151	H	-0.295547	-0.854144	0.000029
H152	H	0.204453	-0.354144	0.500029
H153	H	-0.705043	-1.235965	0.000098
H154	H	-0.205043	-0.735965	0.500098
O155	O	-0.322386	-1.349849	0.000124
O156	O	0.177614	-0.849849	0.500124
H157	H	-0.299698	-1.354335	0.069879
H158	H	0.200302	-0.854335	0.569879
H159	H	-0.069306	-0.942736	0.000118
H160	H	0.430694	-0.442736	0.500118
O161	O	-0.438642	-0.829124	0.000041
O162	O	0.061358	-0.329124	0.500041
H163	H	-0.415407	-0.825545	0.069794
H164	H	0.084593	-0.325545	0.569794
H165	H	-0.796516	-1.234182	0.000084
H166	H	-0.296516	-0.734182	0.500084
H167	H	-0.181392	-1.246119	0.000131
H168	H	0.318608	-0.746119	0.500131
H169	H	-0.160781	-0.940955	0.000126
H170	H	0.339219	-0.440955	0.500126
O171	O	-0.543432	-0.827091	0.000020
O172	O	-0.043432	-0.327091	0.500020
H173	H	-0.513476	-0.769126	0.000006
H174	H	-0.013476	-0.269126	0.500006
H175	H	-0.775885	-0.929034	0.000058
H176	H	-0.275885	-0.429034	0.500058
H177	H	-0.684426	-0.930803	0.000042
H178	H	-0.184426	-0.430803	0.500042
