data_functionalizedCrystal
_audit_creation_method	'MofGen! by Chris Wilmer'
_symmetry_space_group_name_H-M	'P1'
_symmetry_Int_Tables_number	1
_symmetry_cell_setting	triclinic
loop_
_symmetry_equiv_pos_as_xyz
  x,y,z
_cell_length_a	23.532407
_cell_length_b	22.010155
_cell_length_c	23.532409
_cell_angle_alpha	90.007292
_cell_angle_beta	82.849119
_cell_angle_gamma	89.996931
loop_
_atom_site_label
_atom_site_type_symbol
_atom_site_fract_x
_atom_site_fract_y
_atom_site_fract_z
O1	O	0.755264	-0.050445	0.069127
O2	O	1.255264	0.449555	0.569127
O3	O	0.589401	-0.050463	0.079130
O4	O	1.089401	0.449537	0.579130
O5	O	0.677334	-0.050454	-0.008803
O6	O	1.177334	0.449546	0.491197
O7	O	0.667332	-0.050454	0.157060
O8	O	1.167332	0.449546	0.657060
O9	O	0.677318	0.050596	-0.008790
O10	O	1.177318	0.550596	0.491210
O11	O	0.589385	0.050588	0.079143
O12	O	1.089385	0.550588	0.579143
O13	O	0.755248	0.050605	0.069140
O14	O	1.255248	0.550605	0.569140
Cu15	Cu	0.672315	0.059823	0.074143
Cu16	Cu	1.172315	0.559823	0.574143
Cu17	Cu	0.672334	-0.059681	0.074127
Cu18	Cu	1.172334	0.440319	0.574127
O19	O	0.667316	0.050596	0.157073
O20	O	1.167316	0.550596	0.657073
C21	C	0.568177	0.000060	0.078882
C22	C	1.068177	0.500060	0.578882
C23	C	0.504960	0.000053	0.078116
C24	C	1.004960	0.500053	0.578116
C25	C	0.105857	0.000081	0.125349
C26	C	0.605857	0.500081	0.625349
C27	C	0.046457	0.000085	0.124638
C28	C	0.546457	0.500085	0.624638
O29	O	0.009713	0.000107	0.168424
O30	O	0.509713	0.500107	0.668424
N31	N	0.023830	0.000084	0.072362
N32	N	0.523830	0.500084	0.572362
C33	C	0.060608	0.000085	0.020794
C34	C	0.560608	0.500085	0.520794
O35	O	0.035908	0.000085	-0.023737
O36	O	0.535908	0.500085	0.476263
C37	C	0.120007	0.000086	0.021506
C38	C	0.620007	0.500086	0.521506
C39	C	0.142630	0.000081	0.073785
C40	C	0.642630	0.500081	0.573785
C41	C	0.128481	0.000077	0.177625
C42	C	0.628481	0.500077	0.677625
C43	C	0.187877	0.000072	0.178336
C44	C	0.687877	0.500072	0.678336
C45	C	0.224649	0.000071	0.126772
C46	C	0.724649	0.500071	0.626772
C47	C	0.202026	0.000076	0.074496
C48	C	0.702026	0.500076	0.574496
C49	C	0.156783	0.000091	-0.030062
C50	C	0.656783	0.500091	0.469938
C51	C	0.216185	0.000092	-0.029345
C52	C	0.716185	0.500092	0.470655
C53	C	0.238808	0.000087	0.022934
C54	C	0.738808	0.500087	0.522934
C55	C	0.298195	0.000070	0.023643
C56	C	0.798195	0.500070	0.523643
N57	N	0.320821	0.000071	0.075920
N58	N	0.820821	0.500071	0.575920
C59	C	0.284049	0.000072	0.127484
C60	C	0.784049	0.500072	0.627484
C61	C	-0.064135	0.000085	0.019302
C62	C	0.435865	0.500085	0.519302
C63	C	-0.123533	0.000080	0.018589
C64	C	0.376467	0.500080	0.518589
C65	C	-0.137679	0.000081	0.122434
C66	C	0.362321	0.500081	0.622434
C67	C	-0.078280	0.000081	0.123146
C68	C	0.421720	0.500081	0.623146
C69	C	-0.041508	0.000086	0.071578
C70	C	0.458492	0.500086	0.571578
C71	C	0.408785	0.000061	0.128974
C72	C	0.908785	0.500061	0.628974
C73	C	0.468187	0.000054	0.129680
C74	C	0.968187	0.500054	0.629680
C75	C	0.482329	0.000056	0.025836
C76	C	0.982329	0.500056	0.525836
C77	C	0.422932	0.000060	0.025129
C78	C	0.922932	0.500060	0.525129
C79	C	0.386161	0.000065	0.076702
C80	C	0.886161	0.500065	0.576702
O81	O	0.334973	0.000051	-0.020119
O82	O	0.834973	0.500051	0.479881
O83	O	0.308757	0.000080	0.172007
O84	O	0.808757	0.500080	0.672007
C85	C	0.677071	0.000069	-0.030013
C86	C	1.177071	0.500069	0.469987
C87	C	0.676304	0.000065	-0.093230
C88	C	1.176304	0.500065	0.406770
C89	C	0.776472	0.000081	0.069388
C90	C	1.276472	0.500081	0.569388
C91	C	0.839689	0.000083	0.070154
C92	C	1.339689	0.500083	0.570154
N93	N	0.672306	0.143875	0.074153
N94	N	1.172306	0.643875	0.574153
N95	N	0.672348	-0.143733	0.074112
N96	N	1.172348	0.356267	0.574112
C97	C	0.711273	0.563659	0.035196
C98	C	1.211273	1.063659	0.535196
C99	C	0.711276	0.627266	0.035192
C100	C	1.211276	1.127266	0.535192
O101	O	0.744384	0.660161	0.002076
O102	O	1.244384	1.160161	0.502076
N103	N	0.672334	0.659083	0.074115
N104	N	1.172334	1.159083	0.574115
C105	C	0.633383	0.627288	0.113041
C106	C	1.133383	1.127288	0.613041
O107	O	0.600260	0.660191	0.146148
O108	O	1.100260	1.160191	0.646148
C109	C	0.633378	0.563682	0.113042
C110	C	1.133378	1.063682	0.613042
C111	C	0.672326	0.531868	0.074120
C112	C	1.172326	1.031868	0.574120
C113	C	0.750217	0.531845	-0.003723
C114	C	1.250217	1.031845	0.496277
C115	C	0.750215	0.468242	-0.003719
C116	C	1.250215	0.968242	0.496281
C117	C	0.711269	0.436452	0.035205
C118	C	1.211269	0.936452	0.535205
C119	C	0.672324	0.468265	0.074125
C120	C	1.172324	0.968265	0.574125
C121	C	0.594425	0.531888	0.151965
C122	C	1.094425	1.031888	0.651965
C123	C	0.594423	0.468277	0.151962
C124	C	1.094423	0.968277	0.651962
C125	C	0.633371	0.436464	0.113040
C126	C	1.133371	0.936464	0.613040
C127	C	0.633375	0.372872	0.113054
C128	C	1.133375	0.872872	0.613054
N129	N	0.672317	0.341056	0.074130
N130	N	1.172317	0.841056	0.574130
C131	C	0.711264	0.372846	0.035206
C132	C	1.211264	0.872846	0.535206
C133	C	0.633396	0.760866	0.113036
C134	C	1.133396	1.260866	0.613036
C135	C	0.633403	0.824471	0.113038
C136	C	1.133403	1.324471	0.613038
C137	C	0.711295	0.824445	0.035188
C138	C	1.211295	1.324445	0.535188
C139	C	0.711290	0.760838	0.035189
C140	C	1.211290	1.260838	0.535189
C141	C	0.672337	0.729049	0.074113
C142	C	1.172337	1.229049	0.574113
C143	C	0.711257	0.239274	0.035219
C144	C	1.211257	0.739274	0.535219
C145	C	0.711253	0.175665	0.035229
C146	C	1.211253	0.675665	0.535229
C147	C	0.633359	0.175697	0.113077
C148	C	1.133359	0.675697	0.613077
C149	C	0.633365	0.239301	0.113070
C150	C	1.133365	0.739301	0.613070
C151	C	0.672316	0.271088	0.074136
C152	C	1.172316	0.771088	0.574136
O153	O	0.600283	0.339937	0.146151
O154	O	1.100283	0.839937	0.646151
O155	O	0.744376	0.339935	0.002100
O156	O	1.244376	0.839935	0.502100
C157	C	0.673054	-0.055021	-0.366482
C158	C	1.173054	0.444979	0.133518
C159	C	0.673766	-0.055021	-0.307082
C160	C	1.173766	0.444979	0.192918
O161	O	0.674161	-0.101865	-0.276363
O162	O	1.174161	0.398135	0.223637
N163	N	0.674109	0.000063	-0.277372
N164	N	1.174109	0.500063	0.222628
C165	C	0.673747	0.055150	-0.307067
C166	C	1.173747	0.555150	0.192933
O167	O	0.674105	0.102003	-0.276343
O168	O	1.174105	0.602003	0.223657
C169	C	0.673039	0.055149	-0.366467
C170	C	1.173039	0.555149	0.133533
C171	C	0.672690	0.000062	-0.396172
C172	C	1.172690	0.500062	0.103828
C173	C	0.672705	-0.110103	-0.396187
C174	C	1.172705	0.389897	0.103813
C175	C	0.671993	-0.110103	-0.455583
C176	C	1.171993	0.389897	0.044417
C177	C	0.671629	-0.055020	-0.485274
C178	C	1.171629	0.444980	0.014726
C179	C	0.671977	0.000062	-0.455568
C180	C	1.171977	0.500062	0.044432
C181	C	0.672681	0.110236	-0.396161
C182	C	1.172681	0.610236	0.103839
C183	C	0.671974	0.110230	-0.455565
C184	C	1.171974	0.610230	0.044435
C185	C	0.671625	0.055143	-0.485270
C186	C	1.171625	0.555143	0.014730
C187	C	0.670901	0.055146	-0.544654
C188	C	1.170901	0.555146	-0.044654
N189	N	0.670557	0.000062	-0.574364
N190	N	1.170557	0.500062	-0.074364
C191	C	0.670921	-0.055021	-0.544673
C192	C	1.170921	0.444979	-0.044673
C193	C	0.675234	0.055147	-0.182324
C194	C	1.175234	0.555147	0.317676
C195	C	0.675937	0.055148	-0.122925
C196	C	1.175937	0.555148	0.377075
C197	C	0.675957	-0.055023	-0.122944
C198	C	1.175957	0.444977	0.377056
C199	C	0.675250	-0.055023	-0.182343
C200	C	1.175250	0.444977	0.317657
C201	C	0.674890	0.000063	-0.212033
C202	C	1.174890	0.500063	0.287967
C203	C	0.669424	-0.055016	-0.669409
C204	C	1.169424	0.444984	-0.169409
C205	C	0.668709	-0.055011	-0.728810
C206	C	1.168709	0.444989	-0.228810
C207	C	0.668692	0.055160	-0.728786
C208	C	1.168692	0.555160	-0.228786
C209	C	0.669404	0.055155	-0.669390
C210	C	1.169404	0.555155	-0.169390
C211	C	0.669772	0.000062	-0.639703
C212	C	1.169772	0.500062	-0.139703
O213	O	0.670507	0.101965	-0.575411
O214	O	1.170507	0.601965	-0.075411
O215	O	0.670571	-0.101866	-0.575406
O216	O	1.170571	0.398134	-0.075406
C217	C	0.667579	0.000071	0.178283
C218	C	1.167579	0.500071	0.678283
C219	C	0.668345	0.000072	0.241500
C220	C	1.168345	0.500072	0.741500
H221	H	0.378853	0.000067	0.170970
H222	H	0.878853	0.500067	0.670970
H223	H	0.601655	0.265203	0.144769
H224	H	1.101655	0.765203	0.644769
H225	H	-0.141947	0.000074	-0.023982
H226	H	0.358053	0.500074	0.476018
O227	O	0.674988	-0.108498	-0.211266
O228	O	1.174988	0.391502	0.288734
C229	C	0.723916	-0.111809	-0.252333
C230	C	1.223916	0.388191	0.247667
H231	H	0.740251	-0.063984	-0.263476
H232	H	1.240251	0.436016	0.236524
H233	H	0.712326	-0.135134	-0.292590
H234	H	1.212326	0.364866	0.207410
H235	H	0.758734	-0.138984	-0.234142
H236	H	1.258734	0.361016	0.265858
O237	O	0.676205	-0.108505	-0.094037
O238	O	1.176205	0.391495	0.405963
C239	C	0.627261	-0.111789	-0.052988
C240	C	1.127261	0.388211	0.447012
H241	H	0.610943	-0.063956	-0.041835
H242	H	1.110943	0.436044	0.458165
H243	H	0.638823	-0.135128	-0.012733
H244	H	1.138823	0.364872	0.487267
H245	H	0.592440	-0.138939	-0.071203
H246	H	1.092440	0.361061	0.428797
O247	O	0.671699	-0.163669	-0.484353
O248	O	1.171699	0.336331	0.015647
C249	C	0.672168	-0.212280	-0.445400
C250	C	1.172168	0.287720	0.054600
H251	H	0.690688	-0.196114	-0.405508
H252	H	1.190688	0.303886	0.094492
H253	H	0.699640	-0.250795	-0.466324
H254	H	1.199640	0.249205	0.033676
H255	H	0.626556	-0.229240	-0.432868
H256	H	1.126556	0.270760	0.067132
O257	O	0.134886	0.000020	-0.080884
O258	O	0.634886	0.500020	0.419116
C259	C	0.153701	-0.052318	-0.112302
C260	C	0.653701	0.447682	0.387698
H261	H	0.194811	-0.069773	-0.097015
H262	H	0.694811	0.430227	0.402985
H263	H	0.162218	-0.040539	-0.159772
H264	H	0.662218	0.459461	0.340228
H265	H	0.119289	-0.088963	-0.105524
H266	H	0.619289	0.411037	0.394476
O267	O	0.251963	0.000013	-0.079403
O268	O	0.751963	0.500013	0.420597
C269	C	0.286735	-0.052332	-0.082116
C270	C	0.786735	0.447668	0.417884
H271	H	0.289494	-0.069783	-0.036932
H272	H	0.789494	0.430217	0.463068
H273	H	0.331498	-0.040564	-0.103591
H274	H	0.831498	0.459436	0.396409
H275	H	0.267333	-0.088976	-0.108017
H276	H	0.767333	0.411024	0.391983
H277	H	0.743004	0.734940	0.003495
H278	H	1.243004	1.234940	0.503495
O279	O	0.556666	0.562810	0.189826
O280	O	1.056666	1.062810	0.689826
C281	C	0.586952	0.599620	0.224806
C282	C	1.086952	1.099620	0.724806
H283	H	0.631859	0.580454	0.225548
H284	H	1.131859	1.080454	0.725548
H285	H	0.563451	0.600345	0.270189
H286	H	1.063451	1.100345	0.770189
H287	H	0.590037	0.647824	0.206968
H288	H	1.090037	1.147824	0.706968
O289	O	0.672948	-0.163587	-0.367290
O290	O	1.172948	0.336413	0.132710
C291	C	0.624001	-0.166877	-0.326247
C292	C	1.124001	0.333123	0.173753
H293	H	0.607688	-0.119045	-0.315081
H294	H	1.107688	0.380955	0.184919
H295	H	0.635557	-0.190232	-0.285996
H296	H	1.135557	0.309768	0.214004
H297	H	0.589179	-0.194015	-0.344472
H298	H	1.089179	0.305985	0.155528
H299	H	0.743007	0.850340	0.003493
H300	H	1.243007	1.350340	0.503493
O301	O	0.749070	0.270081	-0.002677
O302	O	1.249070	0.770081	0.497323
C303	C	0.740124	0.254534	-0.059007
C304	C	1.240124	0.754534	0.440993
H305	H	0.718166	0.208356	-0.058818
H306	H	1.218166	0.708356	0.441182
H307	H	0.783091	0.252342	-0.087270
H308	H	1.283091	0.752342	0.412730
H309	H	0.711882	0.290333	-0.076481
H310	H	1.211882	0.790333	0.423519
O311	O	-0.056238	0.000160	0.173894
O312	O	0.443762	0.500160	0.673894
C313	C	-0.022320	0.052503	0.177432
C314	C	0.477680	0.552503	0.677432
H315	H	-0.007276	0.069954	0.132462
H316	H	0.492724	0.569954	0.632462
H317	H	0.016454	0.040732	0.199909
H318	H	0.516454	0.540732	0.699909
H319	H	-0.048709	0.089147	0.202784
H320	H	0.451291	0.589147	0.702784
H321	H	0.601651	0.149804	0.144770
H322	H	1.101651	0.649804	0.644770
H323	H	0.668422	-0.099871	-0.752993
H324	H	1.168422	0.400129	-0.252993
O325	O	0.788032	0.562653	-0.041614
O326	O	1.288032	1.062653	0.458386
C327	C	0.779089	0.547110	-0.097945
C328	C	1.279089	1.047110	0.402055
H329	H	0.757124	0.500936	-0.097760
H330	H	1.257124	1.000936	0.402240
H331	H	0.822057	0.544912	-0.126205
H332	H	1.322057	1.044912	0.373795
H333	H	0.750854	0.582915	-0.115422
H334	H	1.250854	1.082915	0.384578
H335	H	0.562702	0.442398	0.183658
H336	H	1.062702	0.942398	0.683658
H337	H	0.404512	0.000055	-0.017441
H338	H	0.904512	0.500055	0.482559
H339	H	0.669724	-0.099878	-0.645245
H340	H	1.169724	0.400122	-0.145245
H341	H	0.512279	0.000053	-0.016146
H342	H	1.012279	0.500053	0.483854
O343	O	0.676347	0.108621	-0.094020
O344	O	1.176347	0.608621	0.405980
C345	C	0.726095	0.111936	-0.066394
C346	C	1.226095	0.611936	0.433606
H347	H	0.742656	0.064114	-0.059737
H348	H	1.242656	0.564114	0.440263
H349	H	0.715496	0.135255	-0.023113
H350	H	1.215496	0.635255	0.476887
H351	H	0.760358	0.139121	-0.093993
H352	H	1.260358	0.639121	0.406007
O353	O	0.669649	0.108700	-0.640574
O354	O	1.169649	0.608700	-0.140574
C355	C	0.620125	0.142187	-0.648348
C356	C	1.120125	0.642187	-0.148348
H357	H	0.603172	0.126525	-0.689241
H358	H	1.103172	0.626525	-0.189241
H359	H	0.631174	0.192584	-0.651875
H360	H	1.131174	0.692584	-0.151875
H361	H	0.585985	0.134531	-0.610215
H362	H	1.085985	0.634531	-0.110215
H363	H	0.674936	0.100008	-0.206493
H364	H	1.174936	0.600008	0.293507
H365	H	0.742971	0.149765	0.003534
H366	H	1.242971	0.649765	0.503534
H367	H	0.601694	0.850369	0.144738
H368	H	1.101694	1.350369	0.644738
H369	H	-0.034198	0.000083	-0.022693
H370	H	0.465802	0.500083	0.477307
H371	H	0.781929	0.442344	-0.035414
H372	H	1.281929	0.942344	0.464586
O373	O	0.490187	-0.000061	0.180454
O374	O	0.990187	0.499939	0.680454
C375	C	0.524131	-0.052393	0.183961
C376	C	1.024131	0.447607	0.683961
H377	H	0.510248	-0.088967	0.154272
H378	H	1.010248	0.411033	0.654272
H379	H	0.518540	-0.069965	0.229887
H380	H	1.018540	0.430035	0.729887
H381	H	0.571051	-0.040566	0.170560
H382	H	1.071051	0.459434	0.670560
O383	O	0.595539	0.730083	0.150910
O384	O	1.095539	1.230083	0.650910
C385	C	0.561164	0.771810	0.185252
C386	C	1.061164	1.271810	0.685252
H387	H	0.584516	0.817146	0.185769
H388	H	1.084516	1.317146	0.685769
H389	H	0.552216	0.753447	0.230782
H390	H	1.052216	1.253447	0.730782
H391	H	0.518964	0.778579	0.166975
H392	H	1.018964	1.278579	0.666975
H393	H	0.672972	0.155094	-0.371986
H394	H	1.172972	0.655094	0.128014
O395	O	0.671599	0.163798	-0.484313
O396	O	1.171599	0.663798	0.015687
C397	C	0.672074	0.212413	-0.445354
C398	C	1.172074	0.712413	0.054646
H399	H	0.654551	0.196260	-0.400558
H400	H	1.154551	0.696260	0.099442
H401	H	0.644211	0.250939	-0.458740
H402	H	1.144211	0.750939	0.041260
H403	H	0.717843	0.229353	-0.445260
H404	H	1.217843	0.729353	0.054740
O405	O	0.668418	0.108704	-0.757580
O406	O	1.168418	0.608704	-0.257580
C407	C	0.717927	0.142208	-0.749794
C408	C	1.217927	0.642208	-0.249794
H409	H	0.734887	0.126549	-0.708906
H410	H	1.234887	0.626549	-0.208906
H411	H	0.706855	0.192601	-0.746249
H412	H	1.206855	0.692601	-0.246249
H413	H	0.752071	0.134568	-0.787930
H414	H	1.252071	0.634568	-0.287930
O415	O	0.209754	0.000101	0.229171
O416	O	0.709754	0.500101	0.729171
C417	C	0.164551	0.000090	0.274524
C418	C	0.664551	0.500090	0.774524
H419	H	0.124285	0.019218	0.258788
H420	H	0.624285	0.519218	0.758788
H421	H	0.176756	0.029431	0.311047
H422	H	0.676756	0.529431	0.811047
H423	H	0.156060	-0.048388	0.290410
H424	H	0.656060	0.451612	0.790410
H425	H	0.098546	0.000079	0.219617
H426	H	0.598546	0.500079	0.719617
H427	H	-0.167631	0.000084	0.164421
H428	H	0.332369	0.500084	0.664421
