data_functionalizedCrystal
_audit_creation_method	'MofGen! by Chris Wilmer'
_symmetry_space_group_name_H-M	'P1'
_symmetry_Int_Tables_number	1
_symmetry_cell_setting	triclinic
loop_
_symmetry_equiv_pos_as_xyz
  x,y,z
_cell_length_a	14.971486
_cell_length_b	10.489716
_cell_length_c	13.448316
_cell_angle_alpha	89.997460
_cell_angle_beta	89.998199
_cell_angle_gamma	84.071632
loop_
_atom_site_label
_atom_site_type_symbol
_atom_site_fract_x
_atom_site_fract_y
_atom_site_fract_z
O1	O	1.187883	0.166224	-0.082568
O2	O	0.927595	0.186130	-0.082594
O3	O	1.063673	-0.009491	-0.082584
O4	O	1.051805	0.361846	-0.082578
O5	O	1.063656	-0.009504	0.082800
O6	O	0.927578	0.186118	0.082789
O7	O	1.187866	0.166212	0.082815
Cu8	Cu	1.057720	0.176164	0.097903
Cu9	Cu	1.057741	0.176178	-0.097682
O10	O	1.051788	0.361834	0.082805
C11	C	0.894257	0.185234	0.000094
C12	C	0.794945	0.182566	0.000084
C13	C	1.062773	-0.057019	0.000104
C14	C	1.060105	-0.198619	0.000095
C15	C	0.738366	0.297488	0.000087
C16	C	0.645053	0.294974	0.000102
C17	C	0.608319	0.177536	0.000106
C18	C	0.664905	0.062605	0.000106
C19	C	0.758217	0.065121	0.000098
C20	C	0.470413	0.057370	0.000120
C21	C	0.377095	0.054854	0.000125
C22	C	0.357249	0.287223	0.000123
C23	C	0.450561	0.289739	0.000115
C24	C	0.507140	0.174807	0.000113
C25	C	1.143552	-0.297259	0.000113
C26	C	1.099465	-0.374104	-0.081432
C27	C	1.099429	-0.374079	0.081623
C28	C	1.016053	-0.273599	-0.081517
C29	C	1.016029	-0.273569	0.081612
C30	C	0.971880	-0.350364	0.000047
C31	C	1.221204	0.167108	0.000125
C32	C	1.320516	0.169776	0.000129
C33	C	1.052688	0.409361	0.000114
C34	C	1.055356	0.550961	0.000117
N35	N	1.057712	0.176153	0.235468
N36	N	1.057756	0.176179	-0.235246
C37	C	1.117987	0.089568	0.287512
C38	C	1.117992	0.089567	0.391616
C39	C	1.057727	0.176158	0.443672
C40	C	0.997446	0.262748	0.391620
C41	C	0.997437	0.262742	0.287519
C42	C	0.997471	0.262756	0.608600
C43	C	0.997481	0.262764	0.712709
C44	C	1.118026	0.089581	0.712697
C45	C	1.118017	0.089575	0.608596
C46	C	1.057737	0.176167	0.556551
H47	H	0.598990	0.388555	0.000103
H48	H	0.948354	0.333247	0.245145
C49	C	0.820457	-0.061290	0.000094
H50	H	0.881290	-0.042973	0.000099
H51	H	0.809243	-0.109441	-0.057576
H52	H	0.809243	-0.109437	0.057777
H53	H	1.167094	0.019072	0.566212
H54	H	0.347190	-0.040774	0.000130
H55	H	0.980826	-0.229649	0.150549
H56	H	0.948381	0.333264	0.566229
H57	H	0.980853	-0.229882	-0.150533
H58	H	0.480466	0.385367	0.000102
C59	C	1.241603	-0.265046	0.000014
H60	H	1.271127	-0.299648	-0.057994
H61	H	1.271522	-0.300953	0.057357
H62	H	1.242645	-0.174650	0.000595
H63	H	0.948406	0.333275	0.755088
C64	C	0.295016	0.413646	0.000128
H65	H	0.234182	0.395332	0.000144
H66	H	0.306227	0.461794	-0.057549
H67	H	0.306235	0.461795	0.057805
C68	C	0.532648	-0.069052	0.000105
H69	H	0.497408	-0.139355	0.000096
H70	H	0.569470	-0.072917	0.057771
H71	H	0.569452	-0.072884	-0.057582
H72	H	0.634989	-0.033015	0.000124
H73	H	1.167108	0.019076	0.755078
H74	H	1.134666	-0.417965	0.150561
C75	C	0.778765	0.426671	0.000082
H76	H	0.731701	0.494754	0.000095
H77	H	0.814751	0.432490	-0.057594
H78	H	0.814754	0.432478	0.057760
C79	C	0.873756	-0.382246	-0.000020
H80	H	0.844259	-0.347506	-0.058000
H81	H	0.843909	-0.346297	0.057352
H82	H	0.872567	-0.472617	0.000526
H83	H	0.948372	0.333248	0.434011
C84	C	1.147060	-0.433418	-0.174551
H85	H	1.208010	-0.415648	-0.174448
H86	H	1.118027	-0.397677	-0.232462
H87	H	1.144522	-0.523537	-0.174175
C88	C	1.184278	-0.005686	0.230259
H89	H	1.220170	-0.057261	0.276169
H90	H	1.221799	0.040278	0.189638
H91	H	1.151756	-0.058866	0.189661
H92	H	1.167072	0.019061	0.433990
