data_functionalizedCrystal
_audit_creation_method	'MofGen! by Chris Wilmer'
_symmetry_space_group_name_H-M	'P1'
_symmetry_Int_Tables_number	1
_symmetry_cell_setting	triclinic
loop_
_symmetry_equiv_pos_as_xyz
  x,y,z
_cell_length_a	16.959455
_cell_length_b	18.101395
_cell_length_c	16.959447
_cell_angle_alpha	89.967606
_cell_angle_beta	89.977004
_cell_angle_gamma	90.028971
loop_
_atom_site_label
_atom_site_type_symbol
_atom_site_fract_x
_atom_site_fract_y
_atom_site_fract_z
Zn1	Zn	1.208339	-0.294873	-0.447025
Zn2	Zn	1.208228	-0.418726	-0.314842
Zn3	Zn	1.076161	-0.294897	-0.314849
Zn4	Zn	1.076105	-0.418671	-0.446967
O5	O	1.142208	-0.356792	-0.380921
O6	O	1.318935	-0.311316	-0.429513
O7	O	1.190686	-0.402333	-0.204232
O8	O	1.093765	-0.191261	-0.332410
O9	O	1.318854	-0.402310	-0.332398
O10	O	1.190876	-0.191243	-0.429519
O11	O	1.093658	-0.311356	-0.204237
O12	O	0.965543	-0.311302	-0.332353
O13	O	1.093669	-0.402216	-0.557586
O14	O	0.965501	-0.402239	-0.429419
O15	O	1.190821	-0.311262	-0.557629
O16	O	1.190631	-0.522352	-0.332342
O17	O	1.093561	-0.522311	-0.429413
C18	C	0.936842	-0.356768	-0.380881
C19	C	0.848985	-0.356775	-0.380883
C20	C	0.477457	-0.404126	-0.330328
C21	C	0.477563	-0.309520	-0.431610
C22	C	0.560109	-0.309507	-0.431591
C23	C	0.601333	-0.356806	-0.380940
C24	C	0.560010	-0.404117	-0.330308
C25	C	0.601437	-0.262203	-0.482227
C26	C	0.683988	-0.262189	-0.482211
C27	C	0.725213	-0.309485	-0.431555
C28	C	0.683886	-0.356797	-0.380921
C29	C	0.725110	-0.404095	-0.330270
C30	C	0.683784	-0.451404	-0.279631
C31	C	0.601235	-0.451412	-0.279653
C32	C	0.807762	-0.309477	-0.431534
C33	C	0.807663	-0.404086	-0.330251
C34	C	1.142100	-0.549202	-0.380887
C35	C	1.142125	-0.631517	-0.380899
C36	C	1.142216	-0.782225	-0.380931
C37	C	1.081111	-0.813584	-0.441959
C38	C	1.081341	-0.899202	-0.442216
C39	C	1.142304	-0.930607	-0.380962
C40	C	1.225636	-0.899427	-0.403379
C41	C	1.225231	-0.813783	-0.403804
C42	C	1.120737	-0.813865	-0.297340
C43	C	1.118950	-0.899517	-0.297803
C44	C	1.142359	-1.014467	-0.380978
C45	C	1.142167	-0.698365	-0.380917
C46	C	1.348377	-0.356817	-0.380961
C47	C	1.436233	-0.356827	-0.380978
C48	C	1.142251	-0.356730	-0.587089
C49	C	1.142269	-0.356704	-0.674946
C50	C	1.142339	-0.163630	-0.380972
C51	C	1.142395	-0.081316	-0.380993
C52	C	1.091820	-0.309258	-1.046430
C53	C	1.192857	-0.403994	-1.046413
C54	C	1.192843	-0.404011	-0.963867
C55	C	1.142316	-0.356652	-0.922599
C56	C	1.091803	-0.309276	-0.963877
C57	C	1.243350	-0.451392	-0.922583
C58	C	1.243337	-0.451411	-0.840032
C59	C	1.192814	-0.404048	-0.798762
C60	C	1.142299	-0.356669	-0.840045
C61	C	1.091772	-0.309310	-0.798777
C62	C	1.041261	-0.261927	-0.840059
C63	C	1.041280	-0.261913	-0.922607
C64	C	1.192796	-0.404063	-0.716214
C65	C	1.091756	-0.309328	-0.716224
C66	C	1.142212	-0.356800	-0.175555
C67	C	1.142347	-0.356617	-0.087698
H68	H	0.841222	-0.442600	-0.289002
H69	H	0.717359	-0.489918	-0.238395
O70	O	1.247269	-0.455165	-0.671692
H71	H	1.238767	-0.447224	-0.607358
O72	O	0.986771	-0.210845	-0.795542
H73	H	0.924727	-0.223532	-0.811361
H74	H	1.272432	-0.919764	-0.360305
O75	O	1.297819	-0.502513	-0.795514
H76	H	1.289319	-0.494572	-0.731179
O77	O	0.556666	-0.502437	-0.225041
H78	H	0.492339	-0.494502	-0.233571
H79	H	1.272325	-0.793032	-0.361277
O80	O	1.297840	-0.502469	-0.967095
H81	H	1.332954	-0.535424	-0.924524
H82	H	0.443806	-0.442641	-0.289096
H83	H	1.050697	-0.270678	-1.080046
O84	O	0.433106	-0.258509	-0.486243
H85	H	0.448969	-0.200370	-0.472796
H86	H	0.567867	-0.223700	-0.523470
O87	O	0.999498	-0.927136	-0.423666
H88	H	0.999581	-0.988454	-0.423831
H89	H	1.050614	-0.270758	-0.682629
H90	H	0.717629	-0.223667	-0.523444
O91	O	0.852338	-0.258455	-0.486140
H92	H	0.809804	-0.225566	-0.521361
H93	H	1.019105	-0.793062	-0.428104
O94	O	1.179688	-0.786997	-0.237115
H95	H	1.209629	-0.835135	-0.209795
H96	H	1.000155	-0.223337	-0.956226
H97	H	1.095173	-0.792012	-0.503544
H98	H	1.233987	-0.442557	-1.080018
H99	H	1.057623	-0.919906	-0.280894
H100	H	1.095626	-0.919638	-0.504156
O101	O	1.249275	-0.787238	-0.484744
H102	H	1.261081	-0.835573	-0.523214
H103	H	1.060982	-0.792332	-0.276890
H104	H	1.160213	-0.920906	-0.249922
O105	O	1.250173	-0.927750	-0.483438
H106	H	1.203157	-0.964025	-0.507390
