data_functionalizedCrystal
_audit_creation_method	'MofGen! by Chris Wilmer'
_symmetry_space_group_name_H-M	'P1'
_symmetry_Int_Tables_number	1
_symmetry_cell_setting	triclinic
loop_
_symmetry_equiv_pos_as_xyz
  x,y,z
_cell_length_a	12.811438
_cell_length_b	10.654550
_cell_length_c	9.130313
_cell_angle_alpha	90.004369
_cell_angle_beta	95.429152
_cell_angle_gamma	95.735527
loop_
_atom_site_label
_atom_site_type_symbol
_atom_site_fract_x
_atom_site_fract_y
_atom_site_fract_z
O1	O	1.393891	-0.169178	0.063375
O2	O	1.088444	-0.187566	0.022795
O3	O	1.248190	0.004403	0.044027
O4	O	1.234144	-0.361148	0.042143
O5	O	1.248179	0.004409	0.287624
O6	O	1.088433	-0.187561	0.266392
O7	O	1.393880	-0.169172	0.306973
Cu8	Cu	1.241155	-0.178366	0.308925
Cu9	Cu	1.241168	-0.178373	0.020842
O10	O	1.234133	-0.361142	0.285740
C11	C	1.049327	-0.186532	0.139397
C12	C	0.932788	-0.183444	0.123914
C13	C	0.768534	-0.179094	-0.030676
C14	C	0.878033	-0.181995	-0.016141
C15	C	0.878036	-0.181988	0.249444
C16	C	0.768537	-0.179087	0.234909
C17	C	0.713790	-0.177642	0.094844
C18	C	0.604288	-0.174750	0.080310
C19	C	0.604293	-0.174735	0.345894
C20	C	0.713792	-0.177636	0.360429
C21	C	1.247153	0.051199	0.165688
C22	C	1.244068	0.190626	0.165276
C23	C	1.432997	-0.170207	0.190367
C24	C	1.549536	-0.173295	0.205840
C25	C	1.235170	-0.407938	0.164076
C26	C	1.238256	-0.547365	0.164478
N27	N	1.241154	-0.178361	0.511547
C28	C	1.338124	0.270599	0.177771
C29	C	1.335218	0.401605	0.177367
C30	C	1.144192	0.372652	0.151978
C31	C	1.147099	0.241649	0.152371
N32	N	1.241178	-0.178368	-0.181779
C33	C	1.311914	-0.093392	0.597604
C34	C	1.311924	-0.093392	0.750942
C35	C	1.170411	-0.263341	0.732153
C36	C	1.170396	-0.263333	0.578817
H37	H	0.723956	-0.177931	-0.144723
H38	H	1.369541	-0.024202	0.821006
H39	H	1.411809	0.466714	0.187539
H40	H	1.065243	0.414211	0.141474
Br41	Br	1.019442	0.133104	0.135392
H42	H	1.112770	-0.332525	0.508743
H43	H	1.369527	-0.024201	0.542837
H44	H	1.112803	-0.332525	0.786939
H45	H	1.417082	0.229061	0.188276
Br46	Br	0.529987	-0.172798	-0.109774
H47	H	0.758383	-0.178808	0.474466
Br48	Br	0.952328	-0.183956	-0.186497
H49	H	0.922632	-0.183150	0.363478
H50	H	0.559708	-0.173559	0.448102
