data_functionalizedCrystal
_audit_creation_method	'MofGen! by Chris Wilmer'
_symmetry_space_group_name_H-M	'P1'
_symmetry_Int_Tables_number	1
_symmetry_cell_setting	triclinic
loop_
_symmetry_equiv_pos_as_xyz
  x,y,z
_cell_length_a	10.967874
_cell_length_b	10.065918
_cell_length_c	10.654550
_cell_angle_alpha	80.262088
_cell_angle_beta	95.400422
_cell_angle_gamma	111.757653
loop_
_atom_site_label
_atom_site_type_symbol
_atom_site_fract_x
_atom_site_fract_y
_atom_site_fract_z
O1	O	1.733074	0.521085	-0.252047
O2	O	1.357049	0.432651	-0.256027
O3	O	1.553707	0.478896	-0.071592
O4	O	1.536417	0.474840	-0.436482
O5	O	1.519484	0.243858	-0.037354
O6	O	1.322826	0.197613	-0.221789
O7	O	1.698851	0.286047	-0.217809
Zn8	Zn	1.505405	0.204513	-0.214363
Zn9	Zn	1.550495	0.514185	-0.259473
O10	O	1.502194	0.239802	-0.402244
C11	C	1.291789	0.303809	-0.236032
C12	C	1.148322	0.270068	-0.227446
N13	N	1.474642	-0.006828	-0.183577
C14	C	1.102089	0.376782	-0.241354
C15	C	0.953808	0.341913	-0.232481
C16	C	1.539783	-0.059286	-0.248761
C17	C	1.516118	-0.222019	-0.225056
C18	C	1.764112	0.414892	-0.237805
C19	C	1.907580	0.448642	-0.246392
C20	C	1.535326	0.361080	-0.007632
C21	C	1.531528	0.360192	0.131940
N22	N	1.581269	0.725529	-0.290249
C23	C	1.520575	0.357621	-0.466205
C24	C	1.524374	0.358519	-0.605778
C25	C	1.647317	0.387419	0.207477
C26	C	1.643741	0.386587	0.338618
C27	C	1.408578	0.331294	0.318675
C28	C	1.412156	0.332136	0.187534
C29	C	1.783086	0.419336	0.218993
C30	C	1.779510	0.418505	0.350135
H31	H	0.883617	0.224728	-0.214011
H32	H	1.442826	-0.297579	-0.151692
H33	H	1.311389	0.308453	0.363955
C34	C	1.684495	-0.031017	-0.393621
C35	C	1.680206	-0.172484	-0.389298
H36	H	1.745565	0.031940	-0.454777
H37	H	1.711007	-0.001433	-0.312165
H38	H	1.599823	-0.027615	-0.416874
H39	H	1.764877	-0.175888	-0.366035
H40	H	1.653701	-0.202076	-0.470771
H41	H	0.977768	0.565827	-0.264878
H42	H	1.850512	0.530181	0.173497
C43	C	1.325390	0.538897	-0.270253
C44	C	1.196837	0.534973	-0.266294
H45	H	1.383880	0.636561	-0.285642
H46	H	1.330546	0.489253	-0.336693
H47	H	1.348933	0.493556	-0.191098
H48	H	1.173290	0.580305	-0.345452
H49	H	1.191676	0.584638	-0.199849
H50	H	1.078127	0.152892	-0.208977
C51	C	1.862932	0.232091	0.336842
C52	C	1.829216	0.301955	0.423508
H53	H	1.893607	0.160135	0.382141
H54	H	1.930134	0.300661	0.284364
H55	H	1.787909	0.188075	0.285258
H56	H	1.904242	0.345980	0.475085
H57	H	1.762009	0.233374	0.476008
C58	C	1.907992	0.667891	0.282298
C59	C	1.854860	0.568518	0.389922
H60	H	1.954515	0.760496	0.306868
H61	H	1.839155	0.672978	0.222794
H62	H	1.966358	0.637601	0.244256
H63	H	1.796486	0.598803	0.427959
H64	H	1.923706	0.563435	0.449447
H65	H	1.401355	-0.082392	-0.110218
H66	H	1.613079	0.016280	-0.322112
H67	H	1.317872	0.309984	0.126033
H68	H	1.811543	0.328019	0.196675
