data_functionalizedCrystal
_audit_creation_method	'MofGen! by Chris Wilmer'
_symmetry_space_group_name_H-M	'P1'
_symmetry_Int_Tables_number	1
_symmetry_cell_setting	triclinic
loop_
_symmetry_equiv_pos_as_xyz
  x,y,z
_cell_length_a	11.026607
_cell_length_b	14.519709
_cell_length_c	9.482900
_cell_angle_alpha	99.350820
_cell_angle_beta	78.636152
_cell_angle_gamma	96.133081
loop_
_atom_site_label
_atom_site_type_symbol
_atom_site_fract_x
_atom_site_fract_y
_atom_site_fract_z
O1	O	1.629894	0.375017	-0.120915
O2	O	2.129894	0.875017	0.379085
O3	O	1.276492	0.331026	-0.120914
O4	O	1.776492	0.831026	0.379086
O5	O	1.462561	0.220328	-0.120901
O6	O	1.962561	0.720328	0.379099
O7	O	1.443825	0.485715	-0.120927
O8	O	1.943825	0.985715	0.379073
O9	O	1.424766	0.242929	0.120889
O10	O	1.924766	0.742929	0.620889
O11	O	1.238698	0.353627	0.120876
O12	O	1.738698	0.853627	0.620876
O13	O	1.592099	0.397617	0.120875
O14	O	2.092099	0.897617	0.620875
Cu15	Cu	1.411948	0.377686	0.142953
Cu16	Cu	1.911948	0.877686	0.642953
Cu17	Cu	1.456644	0.350958	-0.142992
Cu18	Cu	1.956644	0.850958	0.357008
O19	O	1.406031	0.508316	0.120862
O20	O	1.906031	1.008316	0.620862
C21	C	1.212367	0.334211	-0.000019
C22	C	1.712367	0.834211	0.499981
C23	C	1.077600	0.310019	-0.000019
C24	C	1.577600	0.810019	0.499981
C25	C	1.003940	0.376817	-0.000026
C26	C	1.503940	0.876817	0.499974
C27	C	0.864652	0.351815	-0.000026
C28	C	1.364652	0.851815	0.499974
C29	C	1.442790	0.197125	-0.000006
C30	C	1.942790	0.697125	0.499994
C31	C	1.440173	0.094312	-0.000005
C32	C	1.940173	0.594312	0.499995
C33	C	1.430544	-0.282175	-0.000043
C34	C	1.930544	0.217825	0.499957
C35	C	1.433218	-0.177425	-0.000032
C36	C	1.933218	0.322575	0.499968
C37	C	1.435358	-0.093934	-0.000023
C38	C	1.935358	0.406066	0.499977
C39	C	1.438033	0.010822	-0.000015
C40	C	1.938033	0.510822	0.499985
C41	C	1.656226	0.394432	-0.000023
C42	C	2.156226	0.894432	0.499977
C43	C	1.790994	0.418624	-0.000033
C44	C	2.290994	0.918624	0.499967
C45	C	1.425802	0.531518	-0.000036
C46	C	1.925802	1.031518	0.499964
C47	C	1.428421	0.634330	-0.000046
C48	C	1.928421	1.134330	0.499954
N49	N	1.380519	0.396486	0.344071
N50	N	1.880519	0.896486	0.844071
N51	N	1.488082	0.332152	-0.344110
N52	N	1.988082	0.832152	0.155890
C53	C	1.447366	0.356497	0.416275
C54	C	1.947366	0.856497	0.916275
C55	C	1.421226	0.372147	0.583690
C56	C	1.921226	0.872147	1.083690
H57	H	1.037549	0.234316	-0.000048
H58	H	1.537549	0.734316	0.499952
H59	H	1.523943	0.310669	0.354152
H60	H	2.023943	0.810669	0.854152
O61	O	0.811617	0.251533	-0.000015
O62	O	1.311617	0.751533	0.499985
H63	H	0.710539	0.247631	-0.000025
H64	H	1.210539	0.747631	0.499975
O65	O	0.844019	0.518908	-0.000035
O66	O	1.344019	1.018908	0.499965
H67	H	0.916440	0.523912	-0.098589
H68	H	1.416440	1.023912	0.401411
O69	O	1.319786	0.432863	0.665946
O70	O	1.819786	0.932863	1.165946
H71	H	1.249762	0.390783	0.735327
H72	H	1.749762	0.890783	1.235327
H73	H	1.303933	0.442304	0.406195
H74	H	1.803933	0.942304	0.906195
H75	H	1.564664	0.286322	0.593771
H76	H	2.064664	0.786322	1.093771
H77	H	1.043996	0.452517	-0.000025
H78	H	1.543996	0.952517	0.499975
