data_functionalizedCrystal
_audit_creation_method	'MofGen! by Chris Wilmer'
_symmetry_space_group_name_H-M	'P1'
_symmetry_Int_Tables_number	1
_symmetry_cell_setting	triclinic
loop_
_symmetry_equiv_pos_as_xyz
  x,y,z
_cell_length_a	21.295419
_cell_length_b	21.295417
_cell_length_c	18.050583
_cell_angle_alpha	89.963359
_cell_angle_beta	89.981783
_cell_angle_gamma	90.045308
loop_
_atom_site_label
_atom_site_type_symbol
_atom_site_fract_x
_atom_site_fract_y
_atom_site_fract_z
Zn1	Zn	0.962316	-0.250339	-0.419891
Zn2	Zn	1.212316	-0.000339	-0.169891
Zn3	Zn	1.462316	0.249661	0.080109
Zn4	Zn	1.712316	0.499661	0.330109
Zn5	Zn	0.962230	-0.355619	-0.295692
Zn6	Zn	1.212230	-0.105619	-0.045692
Zn7	Zn	1.462230	0.144381	0.204308
Zn8	Zn	1.712230	0.394381	0.454308
Zn9	Zn	0.857051	-0.250394	-0.295715
Zn10	Zn	1.107051	-0.000394	-0.045715
Zn11	Zn	1.357051	0.249606	0.204285
Zn12	Zn	1.607051	0.499606	0.454285
Zn13	Zn	0.857009	-0.355602	-0.419840
Zn14	Zn	1.107009	-0.105602	-0.169840
Zn15	Zn	1.357009	0.144398	0.080160
Zn16	Zn	1.607009	0.394398	0.330160
O17	O	0.909652	-0.302988	-0.357784
O18	O	1.159652	-0.052988	-0.107784
O19	O	1.409652	0.197012	0.142216
O20	O	1.659652	0.447012	0.392216
O21	O	1.050394	-0.264289	-0.403427
O22	O	1.300394	-0.014289	-0.153427
O23	O	1.550394	0.235711	0.096573
O24	O	1.800394	0.485711	0.346573
O25	O	0.948260	-0.341691	-0.191770
O26	O	1.198260	-0.091691	0.058230
O27	O	1.448260	0.158309	0.308230
O28	O	1.698260	0.408309	0.558230
O29	O	0.871068	-0.162298	-0.312218
O30	O	1.121068	0.087702	-0.062218
O31	O	1.371068	0.337702	0.187782
O32	O	1.621068	0.587702	0.437782
O33	O	1.050331	-0.341637	-0.312178
O34	O	1.300331	-0.091637	-0.062178
O35	O	1.550331	0.158363	0.187822
O36	O	1.800331	0.408363	0.437822
O37	O	0.948406	-0.162257	-0.403450
O38	O	1.198406	0.087743	-0.153450
O39	O	1.448406	0.337743	0.096550
O40	O	1.698406	0.587743	0.346550
O41	O	0.870985	-0.264383	-0.191787
O42	O	1.120985	-0.014383	0.058213
O43	O	1.370985	0.235617	0.308213
O44	O	1.620985	0.485617	0.558213
O45	O	0.768956	-0.264366	-0.312169
O46	O	1.018956	-0.014366	-0.062169
O47	O	1.268956	0.235634	0.187831
O48	O	1.518956	0.485634	0.437831
O49	O	0.870997	-0.341608	-0.523772
O50	O	1.120997	-0.091608	-0.273772
O51	O	1.370997	0.158392	-0.023772
O52	O	1.620997	0.408392	0.226228
O53	O	0.768925	-0.341662	-0.403363
O54	O	1.018925	-0.091662	-0.153363
O55	O	1.268925	0.158338	0.096637
O56	O	1.518925	0.408338	0.346637
O57	O	0.948365	-0.264272	-0.523809
O58	O	1.198365	-0.014272	-0.273809
O59	O	1.448365	0.235728	-0.023809
O60	O	1.698365	0.485728	0.226191
O61	O	0.948219	-0.443706	-0.312129
O62	O	1.198219	-0.193706	-0.062129
O63	O	1.448219	0.056294	0.187871
O64	O	1.698219	0.306294	0.437871
O65	O	0.870913	-0.443693	-0.403341
O66	O	1.120913	-0.193693	-0.153341
O67	O	1.370913	0.056307	0.096659
O68	O	1.620913	0.306307	0.346659
C69	C	0.746100	-0.303019	-0.357764
C70	C	0.996100	-0.053019	-0.107764
C71	C	1.246100	0.196981	0.142236
C72	C	1.496100	0.446981	0.392236
C73	C	0.676132	-0.303047	-0.357772
C74	C	0.926132	-0.053047	-0.107772
C75	C	1.176132	0.196953	0.142228
C76	C	1.426132	0.446953	0.392228
C77	C	0.643321	-0.262837	-0.405359
C78	C	0.893321	-0.012837	-0.155359
C79	C	1.143321	0.237163	0.094641
C80	C	1.393321	0.487163	0.344641
C81	C	0.577578	-0.262820	-0.405362
C82	C	0.827578	-0.012820	-0.155362
C83	C	1.077578	0.237180	0.094638
C84	C	1.327578	0.487180	0.344638
C85	C	0.544649	-0.303024	-0.357786
C86	C	0.794649	-0.053024	-0.107786
C87	C	1.044649	0.196976	0.142214
C88	C	1.294649	0.446976	0.392214
C89	C	0.577469	-0.343236	-0.310190
C90	C	0.827469	-0.093236	-0.060190
C91	C	1.077469	0.156764	0.189810
C92	C	1.327469	0.406764	0.439810
C93	C	0.643210	-0.343248	-0.310183
C94	C	0.893210	-0.093248	-0.060183
C95	C	1.143210	0.156752	0.189817
C96	C	1.393210	0.406752	0.439817
N97	N	0.441375	-0.358103	-0.351982
N98	N	0.691375	-0.108103	-0.101982
N99	N	0.941375	0.141897	0.148018
N100	N	1.191375	0.391897	0.398018
N101	N	0.378923	-0.358090	-0.351993
N102	N	0.628923	-0.108090	-0.101993
N103	N	0.878923	0.141910	0.148007
N104	N	1.128923	0.391910	0.398007
C105	C	0.346575	-0.302992	-0.357802
C106	C	0.596575	-0.052992	-0.107802
C107	C	0.846575	0.197008	0.142198
C108	C	1.096575	0.447008	0.392198
N109	N	0.379037	-0.247905	-0.363615
N110	N	0.629037	0.002095	-0.113615
N111	N	0.879037	0.252095	0.136385
N112	N	1.129037	0.502095	0.386385
N113	N	0.441494	-0.247918	-0.363608
N114	N	0.691494	0.002082	-0.113608
N115	N	0.941494	0.252082	0.136392
N116	N	1.191494	0.502082	0.386392
C117	C	0.473364	-0.303016	-0.357788
C118	C	0.723364	-0.053016	-0.107788
C119	C	0.973364	0.196984	0.142212
C120	C	1.223364	0.446984	0.392212
C121	C	0.242478	-0.262760	-0.405394
C122	C	0.492478	-0.012760	-0.155394
C123	C	0.742478	0.237240	0.094606
C124	C	0.992478	0.487240	0.344606
C125	C	0.176734	-0.262742	-0.405392
C126	C	0.426734	-0.012742	-0.155392
C127	C	0.676734	0.237258	0.094608
C128	C	0.926734	0.487258	0.344608
C129	C	0.176626	-0.343164	-0.310224
C130	C	0.426626	-0.093164	-0.060224
C131	C	0.676626	0.156836	0.189776
C132	C	0.926626	0.406836	0.439776
C133	C	0.242368	-0.343176	-0.310223
C134	C	0.492368	-0.093176	-0.060223
C135	C	0.742368	0.156824	0.189777
C136	C	0.992368	0.406824	0.439777
C137	C	0.275290	-0.302975	-0.357812
C138	C	0.525290	-0.052975	-0.107812
C139	C	0.775290	0.197025	0.142188
C140	C	1.025290	0.447025	0.392188
C141	C	0.909569	-0.466540	-0.357743
C142	C	1.159569	-0.216540	-0.107743
C143	C	1.409569	0.033460	0.142257
C144	C	1.659569	0.283460	0.392257
C145	C	0.909591	-0.536508	-0.357751
C146	C	1.159591	-0.286508	-0.107751
C147	C	1.409591	-0.036508	0.142249
C148	C	1.659591	0.213492	0.392249
C149	C	0.949880	-0.569360	-0.310305
C150	C	1.199880	-0.319360	-0.060305
C151	C	1.449880	-0.069360	0.189695
C152	C	1.699880	0.180640	0.439695
C153	C	0.949910	-0.635103	-0.310322
C154	C	1.199910	-0.385103	-0.060322
C155	C	1.449910	-0.135103	0.189678
C156	C	1.699910	0.114897	0.439678
C157	C	0.909639	-0.667991	-0.357776
C158	C	1.159639	-0.417991	-0.107776
C159	C	1.409639	-0.167991	0.142224
C160	C	1.659639	0.082009	0.392224
C161	C	0.869348	-0.635131	-0.405231
C162	C	1.119348	-0.385131	-0.155231
C163	C	1.369348	-0.135131	0.094769
C164	C	1.619348	0.114869	0.344769
C165	C	0.869324	-0.569389	-0.405218
C166	C	1.119324	-0.319389	-0.155218
C167	C	1.369324	-0.069389	0.094782
C168	C	1.619324	0.180611	0.344782
N169	N	0.854572	-0.771270	-0.363431
N170	N	1.104572	-0.521270	-0.113431
N171	N	1.354572	-0.271270	0.136569
N172	N	1.604572	-0.021270	0.386569
N173	N	0.854596	-0.833722	-0.363439
N174	N	1.104596	-0.583722	-0.113439
N175	N	1.354596	-0.333722	0.136561
N176	N	1.604596	-0.083722	0.386561
C177	C	0.909710	-0.866065	-0.357819
C178	C	1.159710	-0.616065	-0.107819
C179	C	1.409710	-0.366065	0.142181
C180	C	1.659710	-0.116065	0.392181
N181	N	0.964799	-0.833598	-0.352176
N182	N	1.214799	-0.583598	-0.102176
N183	N	1.464799	-0.333598	0.147824
N184	N	1.714799	-0.083598	0.397824
N185	N	0.964774	-0.771141	-0.352165
N186	N	1.214774	-0.521141	-0.102165
N187	N	1.464774	-0.271141	0.147835
N188	N	1.714774	-0.021141	0.397835
C189	C	0.909661	-0.739276	-0.357796
C190	C	1.159661	-0.489276	-0.107796
C191	C	1.409661	-0.239276	0.142204
C192	C	1.659661	0.010724	0.392204
C193	C	0.950034	-0.970203	-0.310389
C194	C	1.200034	-0.720203	-0.060389
C195	C	1.450034	-0.470203	0.189611
C196	C	1.700034	-0.220203	0.439611
C197	C	0.950065	-1.035947	-0.310411
C198	C	1.200065	-0.785947	-0.060411
C199	C	1.450065	-0.535947	0.189589
C200	C	1.700065	-0.285947	0.439589
C201	C	0.869497	-1.035973	-0.405316
C202	C	1.119497	-0.785973	-0.155316
C203	C	1.369497	-0.535973	0.094684
C204	C	1.619497	-0.285973	0.344684
C205	C	0.869472	-0.970231	-0.405298
C206	C	1.119472	-0.720231	-0.155298
C207	C	1.369472	-0.470231	0.094702
C208	C	1.619472	-0.220231	0.344702
C209	C	0.909739	-0.937350	-0.357830
C210	C	1.159739	-0.687350	-0.107830
C211	C	1.409739	-0.437350	0.142170
C212	C	1.659739	-0.187350	0.392170
C213	C	1.073842	-0.302959	-0.357806
C214	C	1.323842	-0.052959	-0.107806
C215	C	1.573842	0.197041	0.142194
C216	C	1.823842	0.447041	0.392194
C217	C	1.143810	-0.302946	-0.357815
C218	C	1.393810	-0.052946	-0.107815
C219	C	1.643810	0.197054	0.142185
C220	C	1.893810	0.447054	0.392185
C221	C	0.909686	-0.302932	-0.551490
C222	C	1.159686	-0.052932	-0.301490
C223	C	1.409686	0.197068	-0.051490
C224	C	1.659686	0.447068	0.198510
C225	C	0.909700	-0.302908	-0.634036
C226	C	1.159700	-0.052908	-0.384036
C227	C	1.409700	0.197092	-0.134036
C228	C	1.659700	0.447092	0.115964
C229	C	0.909752	-0.138798	-0.357842
C230	C	1.159752	0.111202	-0.107842
C231	C	1.409752	0.361202	0.142158
C232	C	1.659752	0.611202	0.392158
C233	C	0.909794	-0.068830	-0.357867
C234	C	1.159794	0.181170	-0.107867
C235	C	1.409794	0.431170	0.142133
C236	C	1.659794	0.681170	0.392133
C237	C	0.951813	-0.260810	-0.882882
C238	C	1.201813	-0.010810	-0.632882
C239	C	1.451813	0.239190	-0.382882
C240	C	1.701813	0.489190	-0.132882
C241	C	0.967171	-0.318245	-0.833463
C242	C	1.217171	-0.068245	-0.583463
C243	C	1.467171	0.181755	-0.333463
C244	C	1.717171	0.431755	-0.083463
C245	C	0.909741	-0.302868	-0.931157
C246	C	1.159741	-0.052868	-0.681157
C247	C	1.409741	0.197132	-0.431157
C248	C	1.659741	0.447132	-0.181157
C249	C	0.894392	-0.245457	-0.833494
C250	C	1.144392	0.004543	-0.583494
C251	C	1.394392	0.254543	-0.333494
C252	C	1.644392	0.504543	-0.083494
C253	C	0.909723	-0.302885	-0.785171
C254	C	1.159723	-0.052885	-0.535171
C255	C	1.409723	0.197115	-0.285171
C256	C	1.659723	0.447115	-0.035171
C257	C	0.925129	-0.360333	-0.882825
C258	C	1.175129	-0.110333	-0.632825
C259	C	1.425129	0.139667	-0.382825
C260	C	1.675129	0.389667	-0.132825
C261	C	0.852324	-0.287506	-0.882860
C262	C	1.102324	-0.037506	-0.632860
C263	C	1.352324	0.212494	-0.382860
C264	C	1.602324	0.462494	-0.132860
C265	C	0.867660	-0.344980	-0.833463
C266	C	1.117660	-0.094980	-0.583463
C267	C	1.367660	0.155020	-0.333463
C268	C	1.617660	0.405020	-0.083463
C269	C	0.909753	-0.302858	-1.015255
C270	C	1.159753	-0.052858	-0.765255
C271	C	1.409753	0.197142	-0.515255
C272	C	1.659753	0.447142	-0.265255
C273	C	0.909710	-0.302902	-0.701075
C274	C	1.159710	-0.052902	-0.451075
C275	C	1.409710	0.197098	-0.201075
C276	C	1.659710	0.447098	0.048925
C277	C	0.909654	-0.302999	-0.164832
C278	C	1.159654	-0.052999	0.085168
C279	C	1.409654	0.197001	0.335168
C280	C	1.659654	0.447001	0.585168
C281	C	0.909761	-0.302846	-0.082287
C282	C	1.159761	-0.052846	0.167713
C283	C	1.409761	0.197154	0.417713
C284	C	1.659761	0.447154	0.667713
H285	H	0.669925	-0.375992	-0.271431
H286	H	0.919925	-0.125992	-0.021431
H287	H	1.169925	0.124008	0.228569
H288	H	1.419925	0.374008	0.478569
H289	H	0.982720	-0.661856	-0.271687
H290	H	1.232720	-0.411856	-0.021687
H291	H	1.482720	-0.161856	0.228313
H292	H	1.732720	0.088144	0.478313
F293	F	0.141585	-0.385949	-0.259585
F294	F	0.391585	-0.135949	-0.009585
F295	F	0.641585	0.114051	0.240415
F296	F	0.891585	0.364051	0.490415
H297	H	0.836710	-1.062750	-0.443957
H298	H	1.086710	-0.812750	-0.193957
H299	H	1.336710	-0.562750	0.056043
H300	H	1.586710	-0.312750	0.306043
H301	H	0.836662	-0.943481	-0.443929
H302	H	1.086662	-0.693481	-0.193929
H303	H	1.336662	-0.443481	0.056071
H304	H	1.586662	-0.193481	0.306071
F305	F	0.998361	-0.214371	-0.911245
F306	F	1.248361	0.035629	-0.661245
F307	F	1.498361	0.285629	-0.411245
F308	F	1.748361	0.535629	-0.161245
H309	H	1.015720	-0.331248	-0.811763
H310	H	1.265720	-0.081248	-0.561763
H311	H	1.515720	0.168752	-0.311763
H312	H	1.765720	0.418752	-0.061763
H313	H	0.938173	-0.408901	-0.904404
H314	H	1.188173	-0.158901	-0.654404
H315	H	1.438173	0.091099	-0.404404
H316	H	1.688173	0.341099	-0.154404
F317	F	0.821144	-0.391529	-0.805281
F318	F	1.071144	-0.141529	-0.555281
F319	F	1.321144	0.108471	-0.305281
F320	F	1.571144	0.358471	-0.055281
F321	F	0.788885	-0.270486	-0.911246
F322	F	1.038885	-0.020486	-0.661246
F323	F	1.288885	0.229514	-0.411246
F324	F	1.538885	0.479514	-0.161246
H325	H	0.881419	-0.196899	-0.811822
H326	H	1.131419	0.053101	-0.561822
H327	H	1.381419	0.303101	-0.311822
H328	H	1.631419	0.553101	-0.061822
H329	H	0.982670	-0.542591	-0.271657
H330	H	1.232670	-0.292591	-0.021657
H331	H	1.482670	-0.042591	0.228343
H332	H	1.732670	0.207409	0.478343
F333	F	0.678355	-0.220051	-0.456007
F334	F	0.928355	0.029949	-0.206007
F335	F	1.178355	0.279949	0.043993
F336	F	1.428355	0.529949	0.293993
F337	F	0.826491	-0.670133	-0.455737
F338	F	1.076491	-0.420133	-0.205737
F339	F	1.326491	-0.170133	0.044263
F340	F	1.576491	0.079867	0.294263
F341	F	0.277518	-0.219972	-0.456038
F342	F	0.527518	0.030028	-0.206038
F343	F	0.777518	0.280028	0.043962
F344	F	1.027518	0.530028	0.293962
F345	F	0.826441	-0.534425	-0.455718
F346	F	1.076441	-0.284425	-0.205718
F347	F	1.326441	-0.034425	0.044282
F348	F	1.576441	0.215575	0.294282
H349	H	0.550858	-0.230074	-0.444111
H350	H	0.800858	0.019926	-0.194111
H351	H	1.050858	0.269926	0.055889
H352	H	1.300858	0.519926	0.305889
F353	F	0.141814	-0.219941	-0.456040
F354	F	0.391814	0.030059	-0.206040
F355	F	0.641814	0.280059	0.043960
F356	F	0.891814	0.530059	0.293960
F357	F	0.992952	-1.070910	-0.259916
F358	F	1.242952	-0.820910	-0.009916
F359	F	1.492952	-0.570910	0.240084
F360	F	1.742952	-0.320910	0.490084
H361	H	0.269084	-0.375922	-0.271476
H362	H	0.519084	-0.125922	-0.021476
H363	H	0.769084	0.124078	0.228524
H364	H	1.019084	0.374078	0.478524
H365	H	0.550654	-0.375970	-0.271453
H366	H	0.800654	-0.125970	-0.021453
H367	H	1.050654	0.124030	0.228547
H368	H	1.300654	0.374030	0.478547
H369	H	0.982825	-0.943430	-0.271741
H370	H	1.232825	-0.693430	-0.021741
H371	H	1.482825	-0.443430	0.228259
H372	H	1.732825	-0.193430	0.478259
