data_functionalizedCrystal
_audit_creation_method	'MofGen! by Chris Wilmer'
_symmetry_space_group_name_H-M	'P1'
_symmetry_Int_Tables_number	1
_symmetry_cell_setting	triclinic
loop_
_symmetry_equiv_pos_as_xyz
  x,y,z
_cell_length_a	10.967926
_cell_length_b	11.026607
_cell_length_c	9.482944
_cell_angle_alpha	98.151844
_cell_angle_beta	88.407388
_cell_angle_gamma	96.380754
loop_
_atom_site_label
_atom_site_type_symbol
_atom_site_fract_x
_atom_site_fract_y
_atom_site_fract_z
O1	O	1.642886	0.129421	-0.290709
O2	O	2.142886	0.629421	0.209291
O3	O	1.298426	0.157943	-0.204407
O4	O	1.798426	0.657943	0.295593
O5	O	1.442106	-0.032209	-0.240410
O6	O	1.942106	0.467791	0.259590
O7	O	1.499205	0.319573	-0.254705
O8	O	1.999205	0.819573	0.245295
O9	O	1.401404	-0.064946	-0.472006
O10	O	1.901404	0.435054	0.027994
O11	O	1.257723	0.125206	-0.436002
O12	O	1.757723	0.625206	0.063998
O13	O	1.602184	0.096684	-0.522304
O14	O	2.102184	0.596684	-0.022304
Cu15	Cu	1.426237	0.107956	-0.500300
Cu16	Cu	1.926237	0.607956	-0.000300
Cu17	Cu	1.474372	0.146671	-0.226411
Cu18	Cu	1.974372	0.646671	0.273589
O19	O	1.458503	0.286836	-0.486301
O20	O	1.958503	0.786836	0.013699
C21	C	1.233291	0.141973	-0.308984
C22	C	1.733291	0.641973	0.191016
C23	C	1.099846	0.143145	-0.275551
C24	C	1.599846	0.643145	0.224449
C25	C	1.019267	0.126710	-0.380618
C26	C	1.519267	0.626710	0.119382
C27	C	0.881344	0.127921	-0.346065
C28	C	1.381344	0.627921	0.153935
C29	C	1.411222	-0.093506	-0.353567
C30	C	1.911222	0.406494	0.146433
C31	C	1.379823	-0.227381	-0.345695
C32	C	1.879823	0.272619	0.154305
C33	C	1.466525	-0.303503	-0.367416
C34	C	1.966525	0.196497	0.132584
C35	C	1.434074	-0.441869	-0.359280
C36	C	1.934074	0.058131	0.140720
C37	C	1.667319	0.112655	-0.417724
C38	C	2.167319	0.612655	0.082276
C39	C	1.800766	0.111483	-0.451148
C40	C	2.300766	0.611483	0.048852
C41	C	1.489388	0.348134	-0.373141
C42	C	1.989388	0.848134	0.126859
C43	C	1.520789	0.482009	-0.381004
C44	C	2.020789	0.982009	0.118996
N45	N	1.392390	0.080725	-0.692940
N46	N	1.892390	0.580725	-0.192940
C47	C	1.436237	0.115979	-0.943538
C48	C	1.936237	0.615979	-0.443538
C49	C	1.464391	0.138647	-0.783174
C50	C	1.964391	0.638647	-0.283174
N51	N	1.508227	0.173892	-0.033772
N52	N	2.008227	0.673892	0.466228
H53	H	1.066724	0.158110	-0.160018
H54	H	1.566724	0.658110	0.339982
F55	F	1.328435	0.029232	-0.997733
F56	F	1.828435	0.529232	-0.497733
H57	H	1.546875	0.205011	-0.741712
H58	H	2.046875	0.705011	-0.241712
H59	H	1.619068	-0.480718	-0.405517
H60	H	2.119068	0.019282	0.094483
F61	F	1.284588	-0.006034	-0.747127
F62	F	1.784588	0.493966	-0.247127
H63	H	1.052388	0.111735	-0.496150
H64	H	1.552388	0.611735	0.003850
F65	F	0.838065	0.147479	-0.195045
F66	F	1.338065	0.647479	0.304955
F67	F	1.616036	0.260629	-0.979579
F68	F	2.116036	0.760629	-0.479579
F69	F	1.251397	-0.276080	-0.313506
F70	F	1.751397	0.223920	0.186494
F71	F	0.844041	0.091903	-0.602169
F72	F	1.344041	0.591903	-0.102169
F73	F	1.594954	-0.254800	-0.399584
F74	F	2.094954	0.245200	0.100416
H75	H	1.335816	-0.479128	-0.334652
H76	H	1.835816	0.020872	0.165348
