data_functionalizedCrystal
_audit_creation_method	'MofGen! by Chris Wilmer'
_symmetry_space_group_name_H-M	'P1'
_symmetry_Int_Tables_number	1
_symmetry_cell_setting	triclinic
loop_
_symmetry_equiv_pos_as_xyz
  x,y,z
_cell_length_a	14.853567
_cell_length_b	16.974813
_cell_length_c	15.455313
_cell_angle_alpha	90.987683
_cell_angle_beta	87.317942
_cell_angle_gamma	96.484965
loop_
_atom_site_label
_atom_site_type_symbol
_atom_site_fract_x
_atom_site_fract_y
_atom_site_fract_z
O1	O	1.200425	-0.099447	-0.079050
O2	O	1.700425	0.400553	0.420950
O3	O	0.937981	-0.111703	-0.079925
O4	O	1.437981	0.388297	0.420075
O5	O	1.076078	0.009135	-0.071431
O6	O	1.576078	0.509135	0.428569
O7	O	1.062327	-0.220285	-0.087544
O8	O	1.562327	0.279715	0.412456
O9	O	1.068181	0.002253	0.072347
O10	O	1.568181	0.502253	0.572347
O11	O	0.930083	-0.118584	0.063853
O12	O	1.430083	0.381416	0.563853
O13	O	1.192528	-0.106329	0.064728
O14	O	1.692528	0.393671	0.564728
Cu15	Cu	1.060585	-0.113085	0.077419
Cu16	Cu	1.560585	0.386915	0.577419
Cu17	Cu	1.069924	-0.104947	-0.092616
Cu18	Cu	1.569924	0.395053	0.407384
O19	O	1.054430	-0.227166	0.056234
O20	O	1.554430	0.272834	0.556234
C21	C	0.900443	-0.114588	-0.007999
C22	C	1.400443	0.385412	0.492001
C23	C	0.800357	-0.112924	-0.007887
C24	C	1.300357	0.387076	0.492113
N25	N	1.054022	-0.118808	0.197012
N26	N	1.554022	0.381192	0.697012
C27	C	1.071460	0.035054	0.002518
C28	C	1.571460	0.535054	0.502518
C29	C	1.069454	0.122539	0.008657
C30	C	1.569454	0.622539	0.508657
C31	C	0.387730	-0.034110	-0.002333
C32	C	0.887730	0.465890	0.497667
C33	C	0.366618	-0.177668	-0.012416
C34	C	0.866618	0.322332	0.487584
C35	C	0.460653	-0.179232	-0.012529
C36	C	0.960653	0.320768	0.487471
C37	C	0.518232	-0.108234	-0.007545
C38	C	1.018232	0.391766	0.492455
C39	C	0.481775	-0.035672	-0.002448
C40	C	0.981775	0.464328	0.497552
C41	C	0.497118	-0.251793	-0.017634
C42	C	0.997118	0.248207	0.482366
C43	C	0.591160	-0.253361	-0.017748
C44	C	1.091160	0.246639	0.482252
C45	C	0.648739	-0.182362	-0.012758
C46	C	1.148739	0.317638	0.487242
C47	C	0.612277	-0.109797	-0.007660
C48	C	1.112277	0.390203	0.492340
C49	C	0.669855	-0.038799	-0.002675
C50	C	1.169855	0.461201	0.497325
C51	C	0.633394	0.033767	0.002429
C52	C	1.133394	0.533767	0.502429
C53	C	0.539355	0.035326	0.002543
C54	C	1.039355	0.535326	0.502543
C55	C	0.742779	-0.183922	-0.012872
C56	C	1.242779	0.316078	0.487128
C57	C	0.763900	-0.040361	-0.002791
C58	C	1.263900	0.459639	0.497209
C59	C	1.230066	-0.103443	-0.007200
C60	C	1.730066	0.396557	0.492800
C61	C	1.330151	-0.105108	-0.007317
C62	C	1.830151	0.394892	0.492683
C63	C	1.059048	-0.253086	-0.017717
C64	C	1.559048	0.246914	0.482283
C65	C	1.061055	-0.340570	-0.023861
C66	C	1.561055	0.159430	0.476139
C67	C	1.072818	0.167386	-0.066833
C68	C	1.572818	0.667386	0.433167
C69	C	1.070926	0.249587	-0.061062
C70	C	1.570926	0.749587	0.438938
C71	C	1.065678	0.286939	0.020198
C72	C	1.565678	0.786939	0.520198
C73	C	1.062311	0.242086	0.095693
C74	C	1.562311	0.742086	0.595693
C75	C	1.064195	0.159886	0.089922
C76	C	1.564195	0.659886	0.589922
C77	C	1.059573	0.532377	0.045863
C78	C	1.559573	1.032377	0.545863
C79	C	1.057691	0.614583	0.051628
C80	C	1.557691	1.114583	0.551628
C81	C	1.066305	0.622078	-0.105128
C82	C	1.566305	1.122078	0.394872
C83	C	1.068195	0.539877	-0.110892
C84	C	1.568195	1.039877	0.389108
C85	C	1.064823	0.495030	-0.035397
C86	C	1.564823	0.995030	0.464603
N87	N	1.063747	0.370961	0.026098
N88	N	1.563747	0.870961	0.526098
N89	N	1.066747	0.411009	-0.041298
N90	N	1.566747	0.911009	0.458702
N91	N	1.076493	-0.099217	-0.212208
N92	N	1.576493	0.400783	0.287792
C93	C	1.112712	-0.067491	0.246014
C94	C	1.612712	0.432509	0.746014
C95	C	1.107757	-0.071827	0.336517
C96	C	1.607757	0.428173	0.836517
C97	C	1.044117	-0.127484	0.378017
C98	C	1.544117	0.372516	0.878017
C99	C	0.985422	-0.178803	0.329009
C100	C	1.485422	0.321197	0.829009
C101	C	0.990372	-0.174463	0.238508
C102	C	1.490372	0.325537	0.738508
C103	C	1.022748	-0.146196	0.648283
C104	C	1.522748	0.353804	1.148283
C105	C	1.017804	-0.150534	0.738790
C106	C	1.517804	0.349466	1.238790
C107	C	1.140139	-0.043556	0.746292
C108	C	1.640139	0.456444	1.246292
C109	C	1.145087	-0.039224	0.655789
C110	C	1.645087	0.460776	1.155789
C111	C	1.086389	-0.090541	0.606789
C112	C	1.586389	0.409459	1.106789
N113	N	1.039054	-0.131919	0.470525
N114	N	1.539054	0.368081	0.970525
N115	N	1.091449	-0.086102	0.514282
N116	N	1.591449	0.413898	1.014282
H117	H	0.810775	0.017455	0.001272
H118	H	1.310775	0.517455	0.501272
Cl119	Cl	1.051097	0.661539	0.153792
Cl120	Cl	1.551097	1.161539	0.653792
Cl121	Cl	0.424733	-0.341040	-0.023914
Cl122	Cl	0.924733	0.158960	0.476086
Cl123	Cl	1.059965	0.103506	0.184827
Cl124	Cl	1.559965	0.603506	0.684827
Cl125	Cl	1.213924	0.020955	0.807895
Cl126	Cl	1.713924	0.520955	1.307895
H127	H	0.942580	-0.216250	0.198611
H128	H	1.442580	0.283750	0.698611
H129	H	0.772462	-0.243004	-0.017026
H130	H	1.272462	0.256996	0.482974
H131	H	0.620838	-0.312448	-0.021904
H132	H	1.120838	0.187552	0.478096
H133	H	1.069049	0.658601	-0.166591
H134	H	1.569049	1.158601	0.333409
Cl135	Cl	1.225094	0.030744	0.603617
Cl136	Cl	1.725094	0.530744	1.103617
H137	H	1.072471	0.509471	-0.177062
H138	H	1.572471	1.009471	0.322938
H139	H	0.680287	0.091573	0.006481
H140	H	1.180287	0.591573	0.506481
H141	H	1.056845	0.495874	0.107336
H142	H	1.556845	0.995874	0.607336
H143	H	1.077097	0.136981	-0.133004
H144	H	1.577097	0.636981	0.366996
H145	H	0.509658	0.094405	0.006719
H146	H	1.009658	0.594405	0.506719
Cl147	Cl	1.055701	0.289042	0.197850
Cl148	Cl	1.555701	0.789042	0.697850
H149	H	1.164538	-0.022173	0.212230
H150	H	1.664538	0.477827	0.712230
H151	H	0.974955	-0.187982	0.608394
H152	H	1.474955	0.312018	1.108394
Cl153	Cl	1.181538	-0.007312	0.398120
Cl154	Cl	1.681538	0.492688	0.898120
H155	H	1.073670	0.286098	-0.122534
H156	H	1.573670	0.786098	0.377466
Cl157	Cl	0.937793	-0.220511	0.790955
Cl158	Cl	1.437793	0.279489	1.290955
Cl159	Cl	0.905411	-0.248770	0.381178
Cl160	Cl	1.405411	0.251230	0.881178
H161	H	0.358038	0.024972	0.001826
H162	H	0.858038	0.524972	0.501826
H163	H	0.319733	-0.235470	-0.016481
H164	H	0.819733	0.264530	0.483519
