data_functionalizedCrystal
_audit_creation_method	'MofGen! by Chris Wilmer'
_symmetry_space_group_name_H-M	'P1'
_symmetry_Int_Tables_number	1
_symmetry_cell_setting	triclinic
loop_
_symmetry_equiv_pos_as_xyz
  x,y,z
_cell_length_a	19.188925
_cell_length_b	19.188925
_cell_length_c	10.868271
_cell_angle_alpha	89.995220
_cell_angle_beta	89.994733
_cell_angle_gamma	83.142549
loop_
_atom_site_label
_atom_site_type_symbol
_atom_site_fract_x
_atom_site_fract_y
_atom_site_fract_z
O1	O	0.926145	0.087150	-0.102348
O2	O	1.426145	0.587150	0.397652
O3	O	0.722833	0.098888	-0.102344
O4	O	1.222833	0.598888	0.397656
O5	O	0.830358	-0.008637	-0.102339
O6	O	1.330358	0.491363	0.397661
O7	O	0.818620	0.194675	-0.102353
O8	O	1.318620	0.694675	0.397647
O9	O	0.830350	-0.008641	0.102305
O10	O	1.330350	0.491359	0.602305
O11	O	0.722824	0.098884	0.102300
O12	O	1.222824	0.598884	0.602300
O13	O	0.926136	0.087146	0.102297
O14	O	1.426136	0.587146	0.602297
Zn15	Zn	0.824479	0.093014	0.134790
Zn16	Zn	1.324479	0.593014	0.634790
Zn17	Zn	0.824491	0.093020	-0.134838
Zn18	Zn	1.324491	0.593020	0.365162
O19	O	0.818611	0.194671	0.102292
O20	O	1.318611	0.694671	0.602292
C21	C	0.696818	0.098507	-0.000022
C22	C	1.196818	0.598507	0.499978
C23	C	0.619313	0.097368	-0.000020
C24	C	1.119313	0.597368	0.499980
C25	C	0.057542	0.152832	-0.000027
C26	C	0.557542	0.652832	0.499973
C27	C	0.130365	0.153908	-0.000033
C28	C	0.630365	0.653908	0.499967
C29	C	0.175301	0.090816	-0.000027
C30	C	0.675301	0.590816	0.499973
C31	C	0.147408	0.026642	-0.000045
C32	C	0.647408	0.526642	0.499955
C33	C	0.074586	0.025568	-0.000051
C34	C	0.574586	0.525568	0.499949
N35	N	0.295976	0.045138	0.069639
N36	N	0.795976	0.545138	0.569639
N37	N	0.365153	0.046163	0.069647
N38	N	0.865153	0.546163	0.569647
C39	C	0.394710	0.094050	-0.000013
C40	C	0.894710	0.594050	0.499987
N41	N	0.352474	0.140883	-0.069665
N42	N	0.852474	0.640883	0.430335
N43	N	0.283291	0.139860	-0.069667
N44	N	0.783291	0.639860	0.430333
C45	C	0.254265	0.091974	-0.000022
C46	C	0.754265	0.591974	0.499978
C47	C	0.501557	0.159387	-0.000010
C48	C	1.001557	0.659387	0.499990
C49	C	0.574382	0.160461	-0.000025
C50	C	1.074382	0.660461	0.499975
C51	C	0.591424	0.033193	-0.000024
C52	C	1.091424	0.533193	0.499976
C53	C	0.518600	0.032121	-0.000022
C54	C	1.018600	0.532121	0.499978
C55	C	0.473671	0.095220	-0.000009
C56	C	0.973671	0.595220	0.499991
C57	C	0.829974	-0.034650	-0.000018
C58	C	1.329974	0.465350	0.499982
C59	C	0.828835	-0.112155	-0.000020
C60	C	1.328835	0.387845	0.499980
C61	C	0.884299	-0.673926	-0.000052
C62	C	1.384299	-0.173926	0.499948
C63	C	0.885376	-0.601103	-0.000041
C64	C	1.385376	-0.101103	0.499959
C65	C	0.822284	-0.556167	-0.000040
C66	C	1.322284	-0.056167	0.499960
C67	C	0.758110	-0.584060	-0.000019
C68	C	1.258110	-0.084060	0.499981
C69	C	0.757035	-0.656882	-0.000018
C70	C	1.257035	-0.156882	0.499982
N71	N	0.776610	-0.435484	-0.069695
N72	N	1.276610	0.064516	0.430305
N73	N	0.777636	-0.366307	-0.069699
N74	N	1.277636	0.133693	0.430301
C75	C	0.825518	-0.336758	-0.000041
C76	C	1.325518	0.163242	0.499959
N77	N	0.872347	-0.379001	0.069605
N78	N	1.372347	0.120999	0.569605
N79	N	0.871323	-0.448185	0.069603
N80	N	1.371323	0.051815	0.569603
C81	C	0.823442	-0.477203	-0.000041
C82	C	1.323442	0.022797	0.499959
C83	C	0.890854	-0.229910	-0.000042
C84	C	1.390854	0.270090	0.499958
C85	C	0.891928	-0.157085	-0.000023
C86	C	1.391928	0.342915	0.499977
C87	C	0.764661	-0.140044	-0.000013
C88	C	1.264661	0.359956	0.499987
C89	C	0.763589	-0.212867	-0.000020
C90	C	1.263589	0.287133	0.499980
C91	C	0.826688	-0.257797	-0.000040
C92	C	1.326688	0.242203	0.499960
C93	C	0.952152	0.087528	-0.000029
C94	C	1.452152	0.587528	0.499971
C95	C	1.029657	0.088667	-0.000038
C96	C	1.529657	0.588667	0.499962
C97	C	0.818995	0.220684	-0.000032
C98	C	1.318995	0.720684	0.499968
C99	C	0.820134	0.298189	-0.000038
C100	C	1.320134	0.798189	0.499962
N101	N	0.824476	0.093010	0.318804
N102	N	1.324476	0.593010	0.818804
N103	N	0.824499	0.093018	-0.318852
N104	N	1.324499	0.593018	0.181148
C105	C	0.824487	0.093018	0.569810
C106	C	1.324487	0.593018	1.069810
C107	C	0.824479	0.093016	0.430133
C108	C	1.324479	0.593016	0.930133
H109	H	0.495897	-0.020129	-0.000024
H110	H	0.995897	0.479871	0.499976
O111	O	0.958909	-0.278373	-0.000044
O112	O	1.458909	0.221627	0.499956
H113	H	0.961454	-0.311966	0.083361
H114	H	1.461454	0.188034	0.583361
H115	H	0.597084	0.212714	-0.000025
H116	H	1.097084	0.712714	0.499975
H117	H	0.937628	-0.578394	-0.000052
H118	H	1.437628	-0.078394	0.499948
H119	H	0.711338	-0.235571	-0.000017
H120	H	1.211338	0.264429	0.499983
H121	H	0.713290	-0.103458	-0.000002
H122	H	1.213290	0.396542	0.499998
O123	O	0.044505	-0.043642	-0.000057
O124	O	0.544505	0.456358	0.499943
H125	H	0.011727	-0.047175	0.083350
H126	H	0.511727	0.452825	0.583350
H127	H	0.020964	0.204212	-0.000022
H128	H	0.520964	0.704212	0.499978
H129	H	0.628010	-0.018178	-0.000028
H130	H	1.128010	0.481822	0.499972
H131	H	0.706740	-0.547469	-0.000015
H132	H	1.206740	-0.047469	0.499985
O133	O	0.687826	-0.686965	-0.000011
O134	O	1.187826	-0.186965	0.499989
H135	H	0.644133	-0.643487	-0.000012
H136	H	1.144133	-0.143487	0.499988
H137	H	0.464974	0.210766	-0.000002
H138	H	0.964974	0.710766	0.499998
O139	O	0.961141	-0.127010	-0.000053
O140	O	1.461141	0.372990	0.499947
H141	H	0.991457	-0.145085	0.083338
H142	H	1.491457	0.354915	0.583338
O143	O	0.160455	0.223117	-0.000003
O144	O	0.660455	0.723117	0.499997
H145	H	0.116978	0.266812	0.000015
H146	H	0.616978	0.766812	0.500015
H147	H	0.183999	-0.024728	-0.000044
H148	H	0.683999	0.475272	0.499956
H149	H	0.935680	-0.710503	-0.000062
H150	H	1.435680	-0.210503	0.499938
