data_functionalizedCrystal
_audit_creation_method	'MofGen! by Chris Wilmer'
_symmetry_space_group_name_H-M	'P1'
_symmetry_Int_Tables_number	1
_symmetry_cell_setting	triclinic
loop_
_symmetry_equiv_pos_as_xyz
  x,y,z
_cell_length_a	19.288864
_cell_length_b	11.026607
_cell_length_c	17.766277
_cell_angle_alpha	89.996915
_cell_angle_beta	89.976791
_cell_angle_gamma	95.861131
loop_
_atom_site_label
_atom_site_type_symbol
_atom_site_fract_x
_atom_site_fract_y
_atom_site_fract_z
O1	O	0.940539	0.151279	-0.062839
O2	O	1.440539	0.651279	0.437161
O3	O	0.740867	0.171687	-0.062788
O4	O	1.240867	0.671687	0.437212
O5	O	0.824155	-0.015080	-0.062806
O6	O	1.324155	0.484920	0.437194
O7	O	0.857252	0.338046	-0.062820
O8	O	1.357252	0.838046	0.437180
O9	O	0.824135	-0.015089	0.062382
O10	O	1.324135	0.484911	0.562382
O11	O	0.740847	0.171677	0.062401
O12	O	1.240847	0.671677	0.562401
O13	O	0.940520	0.151270	0.062350
O14	O	1.440520	0.651270	0.562350
Cu15	Cu	0.840682	0.161473	0.073806
Cu16	Cu	1.340682	0.661473	0.573806
Cu17	Cu	0.840705	0.161484	-0.074244
Cu18	Cu	1.340705	0.661484	0.425756
O19	O	0.857232	0.338036	0.062368
O20	O	1.357232	0.838036	0.562368
C21	C	0.714897	0.171025	-0.000187
C22	C	1.214897	0.671025	0.499813
C23	C	0.637544	0.169054	-0.000167
C24	C	1.137544	0.669054	0.499833
C25	C	0.606746	0.278640	-0.000183
C26	C	1.106746	0.778640	0.499817
C27	C	0.534064	0.276788	-0.000191
C28	C	1.034064	0.776788	0.499809
C29	C	0.492182	0.165344	-0.000198
C30	C	0.992182	0.665344	0.499802
C31	C	0.522988	0.055744	-0.000178
C32	C	1.022988	0.555744	0.499822
C33	C	0.595669	0.057599	-0.000162
C34	C	1.095669	0.557599	0.499838
C35	C	0.372816	0.077740	-0.044079
C36	C	0.872816	0.577740	0.455921
C37	C	0.300137	0.075890	-0.044100
C38	C	0.800137	0.575890	0.455900
C39	C	0.268011	0.159618	-0.000244
C40	C	0.768011	0.659618	0.499756
C41	C	0.308573	0.245218	0.043623
C42	C	0.808573	0.745218	0.543623
C43	C	0.381254	0.247073	0.043639
C44	C	0.881254	0.747073	0.543639
C45	C	0.413372	0.163320	-0.000215
C46	C	0.913372	0.663320	0.499785
C47	C	0.158403	0.267204	-0.000268
C48	C	0.658403	0.767204	0.499732
C49	C	0.085720	0.265347	-0.000271
C50	C	0.585720	0.765347	0.499729
C51	C	0.074645	0.044300	-0.000266
C52	C	0.574645	0.544300	0.499734
C53	C	0.147327	0.046159	-0.000255
C54	C	0.647327	0.546159	0.499745
C55	C	0.189202	0.157615	-0.000259
C56	C	0.689202	0.657615	0.499741
C57	C	0.818039	-0.060262	-0.000211
C58	C	1.318039	0.439738	0.499789
C59	C	0.799837	-0.194876	-0.000209
C60	C	1.299837	0.305124	0.499791
C61	C	0.850095	-0.268957	-0.000223
C62	C	1.350095	0.231043	0.499777
C63	C	0.831284	-0.408088	-0.000221
C64	C	1.331284	0.091912	0.499779
C65	C	0.966489	0.151931	-0.000253
C66	C	1.466489	0.651931	0.499747
C67	C	1.043843	0.153902	-0.000277
C68	C	1.543843	0.653902	0.499723
C69	C	0.863348	0.383218	-0.000228
C70	C	1.363348	0.883218	0.499772
C71	C	0.881550	0.517833	-0.000235
C72	C	1.381550	1.017833	0.499765
N73	N	0.840670	0.161464	0.177936
N74	N	1.340670	0.661464	0.677936
N75	N	0.840721	0.161483	-0.178374
N76	N	1.340721	0.661483	0.321626
C77	C	0.877570	0.078804	0.217315
C78	C	1.377570	0.578804	0.717315
C79	C	0.877573	0.078799	0.296117
C80	C	1.377573	0.578799	0.796117
C81	C	0.840686	0.161474	0.335537
C82	C	1.340686	0.661474	0.835537
C83	C	0.803778	0.244140	0.296149
C84	C	1.303778	0.744140	0.796149
C85	C	0.803770	0.244135	0.217349
C86	C	1.303770	0.744135	0.717349
C87	C	0.845401	0.271967	0.460372
C88	C	1.345401	0.771967	0.960372
C89	C	0.845414	0.271973	0.539171
C90	C	1.345414	0.771973	1.039171
C91	C	0.840706	0.161488	0.578583
C92	C	1.340706	0.661488	1.078583
C93	C	0.836000	0.050992	0.539187
C94	C	1.336000	0.550992	1.039187
C95	C	0.835992	0.050987	0.460387
C96	C	1.335992	0.550987	0.960387
C97	C	0.840690	0.161488	0.420983
C98	C	1.340690	0.661488	0.920983
C99	C	0.877612	0.078816	0.703408
C100	C	1.377612	0.578816	1.203408
C101	C	0.877610	0.078808	0.782211
C102	C	1.377610	0.578808	1.282211
C103	C	0.803819	0.244160	0.782242
C104	C	1.303819	0.744160	1.282242
C105	C	0.803816	0.244157	0.703440
C106	C	1.303816	0.744157	1.203440
C107	C	0.840716	0.161486	0.664028
C108	C	1.340716	0.661486	1.164028
H109	H	0.282418	0.313397	0.079335
H110	H	0.782418	0.813397	0.579335
F111	F	0.955999	-0.430448	-0.000257
F112	F	1.455999	0.069552	0.499743
H113	H	0.508984	0.366029	-0.000202
H114	H	1.008984	0.866029	0.499798
F115	F	0.725392	-0.246603	-0.000197
F116	F	1.225392	0.253397	0.499803
H117	H	0.907614	0.011486	0.185228
H118	H	1.407614	0.511486	0.685228
F119	F	0.916881	-0.009180	0.824123
F120	F	1.416881	0.490820	1.324123
H121	H	0.907050	-0.229377	-0.000233
H122	H	1.407050	0.270623	0.499767
H123	H	0.907623	0.011485	0.328185
H124	H	1.407623	0.511485	0.828185
F125	F	0.756835	-0.459810	-0.000209
F126	F	1.256835	0.040190	0.499791
F127	F	0.256975	-0.015202	-0.090793
F128	F	0.756975	0.484798	0.409207
F129	F	0.830978	-0.066608	0.418462
F130	F	1.330978	0.433392	0.918462
F131	F	0.830994	-0.066604	0.581126
F132	F	1.330994	0.433396	1.081126
H133	H	0.849223	0.361943	0.428289
H134	H	1.349223	0.861943	0.928289
F135	F	0.916881	-0.009175	0.661462
F136	F	1.416881	0.490825	1.161462
F137	F	0.764555	0.332141	0.824192
F138	F	1.264555	0.832141	1.324192
F139	F	0.628447	-0.059043	-0.000145
F140	F	1.128447	0.440957	0.499855
H141	H	0.488883	-0.034995	-0.000194
H142	H	0.988883	0.465005	0.499806
F143	F	0.180106	-0.070479	-0.000241
F144	F	0.680106	0.429521	0.499759
F145	F	0.764545	0.332140	0.661527
F146	F	1.264545	0.832140	1.161527
H147	H	0.192500	0.357957	-0.000261
H148	H	0.692500	0.857957	0.499739
H149	H	0.849250	0.361946	0.571241
H150	H	1.349250	0.861946	1.071241
F151	F	0.764516	0.332125	0.338103
F152	F	1.264516	0.832125	0.838103
F153	F	0.764494	0.332117	0.175437
F154	F	1.264494	0.832117	0.675437
H155	H	0.640837	0.369396	-0.000188
H156	H	1.140837	0.869396	0.499812
H157	H	0.414277	0.316767	0.079359
H158	H	0.914277	0.816767	0.579359
F159	F	0.407000	-0.011382	-0.090760
F160	F	0.907000	0.488618	0.409240
H161	H	0.060646	0.354589	-0.000280
H162	H	0.560646	0.854589	0.499720
H163	H	0.040545	-0.046440	-0.000318
H164	H	0.540545	0.453560	0.499682
