data_functionalizedCrystal
_audit_creation_method	'MofGen! by Chris Wilmer'
_symmetry_space_group_name_H-M	'P1'
_symmetry_Int_Tables_number	1
_symmetry_cell_setting	triclinic
loop_
_symmetry_equiv_pos_as_xyz
  x,y,z
_cell_length_a	12.837943
_cell_length_b	15.944551
_cell_length_c	11.295483
_cell_angle_alpha	94.094426
_cell_angle_beta	85.461227
_cell_angle_gamma	89.163839
loop_
_atom_site_label
_atom_site_type_symbol
_atom_site_fract_x
_atom_site_fract_y
_atom_site_fract_z
O1	O	1.382450	0.213265	-0.099009
O2	O	1.080644	0.202478	-0.099016
O3	O	1.239788	0.086257	-0.099002
O4	O	1.223306	0.329487	-0.099023
O5	O	1.225810	0.096448	0.099048
O6	O	1.066666	0.212669	0.099034
O7	O	1.368472	0.223456	0.099040
Cu8	Cu	1.216293	0.218993	0.117121
Cu9	Cu	1.232823	0.206941	-0.117096
O10	O	1.209328	0.339677	0.099026
C11	C	1.035034	0.203930	0.000008
C12	C	0.919957	0.193062	0.000006
C13	C	0.679007	0.323714	0.000011
C14	C	0.570881	0.313507	0.000010
C15	C	0.595575	0.162440	0.000011
C16	C	0.703701	0.172648	0.000012
C17	C	0.745413	0.253287	0.000011
C18	C	0.853542	0.263494	0.000003
C19	C	0.878234	0.112428	0.000013
C20	C	0.770107	0.102221	0.000011
C21	C	1.232115	0.060004	0.000023
C22	C	1.230063	-0.033407	0.000024
C23	C	1.126515	-0.256548	0.000005
C24	C	1.167708	-0.308694	0.097657
C25	C	1.226352	-0.204430	0.000015
C26	C	1.181513	-0.318722	-0.097604
C27	C	1.222761	-0.369631	0.000001
C28	C	1.267567	-0.255341	0.097747
C29	C	1.281364	-0.265369	-0.097602
C30	C	1.322627	-0.317491	0.000073
C31	C	1.228418	-0.109262	0.000024
C32	C	1.220702	-0.464796	0.000000
C33	C	1.414082	0.222005	0.000014
C34	C	1.529160	0.232872	0.000008
C35	C	1.217002	0.365931	-0.000001
C36	C	1.219054	0.459340	-0.000010
N37	N	1.204674	0.227469	0.281856
N38	N	1.244451	0.198459	-0.281831
C39	C	1.328092	0.137394	0.531156
C40	C	1.319318	0.143806	0.655819
C41	C	1.178349	0.246701	0.655847
C42	C	1.187123	0.240289	0.531184
C43	C	1.261997	0.185634	0.468843
C44	C	1.270775	0.179227	0.344178
C45	C	1.129802	0.282117	0.344208
C46	C	1.121028	0.288530	0.468871
H47	H	0.932315	0.055081	0.000004
C48	C	1.102796	-0.334689	0.209177
H49	H	1.033137	-0.313768	0.209059
H50	H	1.132698	-0.312055	0.278520
H51	H	1.102489	-0.394288	0.208735
C52	C	1.014563	-0.220493	0.000131
H53	H	0.974355	-0.235166	0.069601
H54	H	0.983586	-0.243064	-0.068534
H55	H	1.016686	-0.160998	-0.000569
C56	C	1.353136	0.119117	0.275599
H57	H	1.348906	0.122213	0.192428
H58	H	1.340442	0.063201	0.296031
H59	H	1.420881	0.134866	0.296018
H60	H	1.373138	0.104523	0.706551
C61	C	1.410451	0.077281	0.462578
H62	H	1.448557	0.049466	0.517545
H63	H	1.457022	0.108469	0.413933
H64	H	1.376577	0.036808	0.413961
C65	C	1.095994	0.306812	0.724435
H66	H	1.100241	0.303721	0.807604
H67	H	1.028249	0.291076	0.704021
H68	H	1.108700	0.362732	0.704008
C69	C	1.434619	-0.353407	0.000213
H70	H	1.450284	-0.390077	-0.069162
H71	H	1.440027	-0.383693	0.068974
H72	H	1.482627	-0.308628	0.000915
H73	H	0.561586	0.096792	0.000111
H74	H	1.145100	-0.346426	-0.180167
H75	H	1.303925	-0.227723	0.180394
C76	C	1.038677	0.348648	0.537452
H77	H	1.042922	0.345563	0.620621
H78	H	0.970931	0.332916	0.517038
H79	H	1.051391	0.404565	0.517015
H80	H	1.329382	-0.246112	-0.180161
H81	H	0.736129	0.036567	0.000026
C82	C	1.057107	0.335195	0.275661
H83	H	1.073054	0.323550	0.192487
H84	H	1.066942	0.393208	0.296097
H85	H	0.986477	0.321561	0.296097
H86	H	0.712969	0.389374	0.000008
C87	C	0.899430	0.352190	0.000002
H88	H	0.973339	0.348185	-0.000009
H89	H	0.871764	0.385103	0.069066
H90	H	0.881509	0.377999	-0.069071
C91	C	0.497838	0.390976	0.000001
H92	H	0.538171	0.440460	-0.000010
H93	H	0.450267	0.393688	0.069061
H94	H	0.460024	0.386580	-0.069076
