data_functionalizedCrystal
_audit_creation_method	'MofGen! by Chris Wilmer'
_symmetry_space_group_name_H-M	'P1'
_symmetry_Int_Tables_number	1
_symmetry_cell_setting	triclinic
loop_
_symmetry_equiv_pos_as_xyz
  x,y,z
_cell_length_a	8.559649
_cell_length_b	19.288865
_cell_length_c	17.766277
_cell_angle_alpha	89.989546
_cell_angle_beta	90.009637
_cell_angle_gamma	103.542544
loop_
_atom_site_label
_atom_site_type_symbol
_atom_site_fract_x
_atom_site_fract_y
_atom_site_fract_z
O1	O	2.120309	0.023573	0.062588
O2	O	1.654847	-0.012312	0.062594
O3	O	1.901028	0.107460	0.062576
O4	O	1.874128	-0.096199	0.062606
O5	O	1.900984	0.107461	-0.062612
O6	O	1.654803	-0.012311	-0.062594
O7	O	2.120265	0.023574	-0.062600
Cu8	Cu	1.887530	0.005632	-0.074028
Cu9	Cu	1.887582	0.005631	0.074022
O10	O	1.874084	-0.096198	-0.062582
C11	C	1.595275	-0.015031	0.000000
C12	C	1.417837	-0.023126	0.000002
C13	C	1.900140	0.133292	-0.000020
C14	C	1.897542	0.210261	-0.000027
C15	C	2.179837	0.026293	-0.000005
C16	C	2.357275	0.034388	-0.000001
C17	C	1.874972	-0.122030	0.000016
C18	C	1.877570	-0.198998	0.000027
N19	N	1.887505	0.005633	-0.178158
C20	C	2.041990	0.262466	-0.000032
C21	C	2.039549	0.334786	-0.000020
C22	C	1.892652	0.354897	-0.000018
C23	C	1.748185	0.302681	-0.000008
C24	C	1.750630	0.230363	-0.000013
C25	C	1.777158	0.457182	-0.043868
C26	C	1.774719	0.529500	-0.043868
C27	C	1.885104	0.577950	-0.000001
C28	C	1.997956	0.554078	0.043856
C29	C	2.000401	0.481759	0.043852
C30	C	1.889984	0.433313	-0.000013
C31	C	2.026915	0.708575	0.000007
C32	C	2.024468	0.780895	0.000024
C33	C	1.733101	0.748789	0.000028
C34	C	1.735552	0.676470	0.000019
C35	C	1.882463	0.656368	0.000005
C36	C	1.984131	-0.031368	-0.217534
C37	C	1.984156	-0.031364	-0.296335
C38	C	1.887526	0.005630	-0.335759
C39	C	1.790894	0.042639	-0.296374
C40	C	1.790884	0.042641	-0.217574
C41	C	1.743436	-0.000103	-0.460617
C42	C	1.743443	-0.000110	-0.539416
C43	C	1.887559	0.005630	-0.578805
C44	C	2.031670	0.011362	-0.539386
C45	C	2.031660	0.011363	-0.460586
C46	C	1.887527	0.005633	-0.421205
C47	C	1.984220	-0.031369	-0.703626
C48	C	1.984249	-0.031361	-0.782430
C49	C	1.790972	0.042638	-0.782467
C50	C	1.790958	0.042634	-0.703665
C51	C	1.887580	0.005627	-0.664250
N52	N	1.887620	0.005635	0.178152
H53	H	2.161616	0.246104	-0.000041
N54	N	2.117031	0.606327	0.091169
H55	H	2.102603	0.592089	0.145896
H56	H	2.229856	0.606113	0.074722
H57	H	2.092285	0.462325	0.079563
N58	N	1.574657	0.770469	0.000039
H59	H	1.595024	0.824205	0.000044
H60	H	1.511448	0.750829	-0.046369
H61	H	2.149023	0.016032	-0.571455
H62	H	1.682822	0.548930	-0.079574
H63	H	1.712219	0.072761	-0.328478
H64	H	1.617927	0.633962	0.000020
N65	N	1.468392	0.107824	-0.000025
H66	H	1.448020	0.134640	0.046379
H67	H	1.583605	0.103337	-0.000061
H68	H	2.157179	0.377299	-0.000022
N69	N	2.088366	-0.071270	-0.175024
H70	H	2.073703	-0.065655	-0.119128
H71	H	2.056417	-0.123484	-0.188788
H72	H	2.062841	-0.061497	-0.328401
H73	H	2.146540	0.692207	-0.000001
H74	H	2.142100	0.823402	0.000024
H75	H	1.333941	-0.078559	0.000018
H76	H	1.712197	0.072772	-0.185515
N77	N	1.658085	0.404926	-0.091179
H78	H	1.586235	0.431022	-0.118965
H79	H	1.717904	0.381407	-0.128644
N80	N	1.589744	0.324367	-0.000002
H81	H	1.610112	0.378103	-0.000002
H82	H	1.526536	0.304723	-0.046409
H83	H	1.633000	0.187855	-0.000009
N84	N	2.187076	0.017553	-0.418064
H85	H	2.235532	-0.023730	-0.431757
H86	H	2.264523	0.063880	-0.431794
N87	N	2.088430	-0.071280	-0.661107
H88	H	2.149658	-0.094716	-0.698012
H89	H	2.166781	-0.036836	-0.628407
H90	H	2.062944	-0.061489	-0.814488
N91	N	1.686760	0.082547	-0.824976
H92	H	1.701431	0.076934	-0.880872
H93	H	1.570408	0.062649	-0.811213
N94	N	1.686736	0.082541	-0.661190
H95	H	1.625523	0.105978	-0.698120
H96	H	1.608372	0.048097	-0.628495
N97	N	1.588018	-0.006278	-0.581925
H98	H	1.510422	-0.052571	-0.568209
H99	H	1.539754	0.035052	-0.568201
H100	H	1.626069	-0.004782	-0.428553
