data_functionalizedCrystal
_audit_creation_method	'MofGen! by Chris Wilmer'
_symmetry_space_group_name_H-M	'P1'
_symmetry_Int_Tables_number	1
_symmetry_cell_setting	triclinic
loop_
_symmetry_equiv_pos_as_xyz
  x,y,z
_cell_length_a	15.944556
_cell_length_b	16.992695
_cell_length_c	14.421503
_cell_angle_alpha	90.002994
_cell_angle_beta	89.979576
_cell_angle_gamma	92.915204
loop_
_atom_site_label
_atom_site_type_symbol
_atom_site_fract_x
_atom_site_fract_y
_atom_site_fract_z
O1	O	-0.178112	1.040405	0.077115
O2	O	-0.176158	0.812119	0.077124
O3	O	-0.055279	0.932493	0.077086
O4	O	-0.298992	0.920031	0.077153
O5	O	-0.055264	0.932482	-0.077137
O6	O	-0.176144	0.812108	-0.077099
O7	O	-0.178098	1.040394	-0.077109
Cu8	Cu	-0.177120	0.926250	-0.091186
Cu9	Cu	-0.177137	0.926263	0.091201
O10	O	-0.298977	0.920020	-0.077070
C11	C	-0.023943	0.931970	-0.000032
C12	C	0.069407	0.930416	-0.000052
C13	C	-0.173637	0.782901	0.000013
C14	C	-0.166137	0.695856	0.000015
C15	C	-0.180619	1.069612	0.000005
C16	C	-0.188119	1.156657	0.000009
C17	C	0.345354	0.851157	-0.000081
C18	C	0.292199	0.889371	0.075968
C19	C	0.405420	0.924875	-0.000087
C20	C	0.292239	0.889380	-0.076084
C21	C	0.240326	0.927593	-0.000071
C22	C	0.353495	0.963069	0.076024
C23	C	0.353539	0.963067	-0.076096
C24	C	0.300414	1.001336	-0.000029
C25	C	0.500527	0.923306	-0.000096
C26	C	0.145221	0.929167	-0.000057
C27	C	0.669686	0.920533	0.000004
C28	C	0.576334	0.922055	-0.000108
N29	N	-0.177107	0.926247	-0.219467
C30	C	-0.115754	1.206892	-0.000008
C31	C	-0.122806	1.288679	-0.000010
C32	C	-0.202224	1.320229	0.000013
C33	C	-0.274594	1.269988	0.000027
C34	C	-0.267541	1.188202	0.000021
C35	C	-0.231455	1.563829	0.000024
C36	C	-0.238502	1.645621	0.000032
C37	C	-0.086714	1.664307	-0.000006
C38	C	-0.079668	1.582519	-0.000005
C39	C	-0.152038	1.532284	0.000004
N40	N	-0.209434	1.403829	0.000014
N41	N	-0.144827	1.448687	-0.000004
C42	C	-0.120710	0.981490	-0.530913
C43	C	-0.197444	0.997349	-0.469057
C44	C	-0.177133	0.926264	-0.591356
C45	C	-0.100391	0.910433	-0.469119
C46	C	-0.177116	0.926258	-0.408634
C47	C	-0.253907	0.942159	-0.530860
C48	C	-0.156802	0.855212	-0.530927
C49	C	-0.233589	0.871041	-0.469098
C50	C	-0.177141	0.926270	-0.696617
C51	C	-0.177116	0.926251	-0.303376
N52	N	-0.177143	0.926273	0.219483
H53	H	0.365264	0.787667	-0.000007
H54	H	-0.326468	1.147301	0.000032
F55	F	-0.058430	1.042576	-0.566392
F56	F	-0.219908	1.075880	-0.433515
H57	H	-0.027794	1.705216	-0.000015
F58	F	0.004859	1.548947	-0.000003
F59	F	-0.323033	1.679197	0.000055
F60	F	-0.134299	0.776701	-0.566477
F61	F	-0.015571	0.892930	-0.433673
H62	H	-0.290384	1.522938	0.000036
H63	H	-0.339258	1.295683	0.000039
F64	F	-0.296016	0.809992	-0.433841
F65	F	0.388408	1.003739	0.160137
F66	F	0.257103	0.848686	0.160006
F67	F	0.274592	1.084385	0.000027
H68	H	-0.318820	0.955611	-0.557868
H69	H	0.380409	0.994169	-0.140392
H70	H	0.265420	0.858230	-0.140362
H71	H	-0.051084	1.181210	-0.000020
H72	H	-0.063879	1.329578	-0.000027
