data_functionalizedCrystal
_audit_creation_method	'MofGen! by Chris Wilmer'
_symmetry_space_group_name_H-M	'P1'
_symmetry_Int_Tables_number	1
_symmetry_cell_setting	triclinic
loop_
_symmetry_equiv_pos_as_xyz
  x,y,z
_cell_length_a	10.654541
_cell_length_b	19.288864
_cell_length_c	9.730217
_cell_angle_alpha	90.018098
_cell_angle_beta	89.995308
_cell_angle_gamma	96.189913
loop_
_atom_site_label
_atom_site_type_symbol
_atom_site_fract_x
_atom_site_fract_y
_atom_site_fract_z
O1	O	0.156655	-0.922373	-0.114731
O2	O	0.177788	-0.720251	-0.114637
O3	O	-0.015617	-0.825960	-0.114677
O4	O	0.350061	-0.816664	-0.114690
O5	O	-0.015624	-0.825951	0.113903
O6	O	0.177781	-0.720242	0.113943
O7	O	0.156649	-0.922364	0.113849
Zn8	Zn	0.167214	-0.821302	0.150189
Zn9	Zn	0.167223	-0.821313	-0.150976
O10	O	0.350054	-0.816655	0.113890
C11	C	0.177105	-0.694365	-0.000334
C12	C	0.175064	-0.617248	-0.000298
C13	C	-0.062404	-0.825273	-0.000388
C14	C	-0.201804	-0.823232	-0.000389
N15	N	0.167207	-0.821299	0.355725
C16	C	-0.232480	-0.949636	-0.000431
C17	C	-0.313307	-1.011877	-0.000448
C18	C	-0.444284	-1.009954	-0.000451
C19	C	-0.494436	-0.945785	-0.000442
C20	C	-0.413609	-0.883545	-0.000424
C21	C	-0.282631	-0.885474	-0.000416
C22	C	-0.382933	-0.757142	-0.000392
C23	C	-0.251955	-0.759063	-0.000379
C24	C	-0.433084	-0.692973	-0.000383
C25	C	-0.352257	-0.630731	-0.000355
C26	C	-0.221273	-0.632656	-0.000350
C27	C	-0.171129	-0.696823	-0.000362
C28	C	0.396841	-0.817342	-0.000402
C29	C	0.536241	-0.819383	-0.000410
C30	C	0.157332	-0.948250	-0.000456
C31	C	0.159373	-1.025367	-0.000501
C32	C	0.288545	-0.573295	-0.000324
C33	C	0.286627	-0.500835	-0.000339
C34	C	0.171222	-0.472332	-0.000356
C35	C	0.057725	-0.516296	-0.000323
C36	C	0.059646	-0.588754	-0.000294
C37	C	0.080503	-0.363480	-0.080481
C38	C	0.078586	-0.291023	-0.080518
C39	C	0.165292	-0.248848	-0.000439
C40	C	0.253936	-0.279138	0.079660
C41	C	0.255857	-0.351596	0.079689
C42	C	0.169126	-0.393765	-0.000387
C43	C	0.276702	-0.126325	-0.000479
C44	C	0.274780	-0.053864	-0.000486
C45	C	0.045875	-0.069327	-0.000484
C46	C	0.047800	-0.141786	-0.000463
C47	C	0.163218	-0.170280	-0.000467
C48	C	0.015250	-0.736329	0.355828
C49	C	-0.060731	-0.693851	0.427819
C50	C	-0.060731	-0.693861	0.571699
C51	C	0.015261	-0.736351	0.643591
C52	C	0.091242	-0.778829	0.571599
C53	C	0.091231	-0.778816	0.427716
C54	C	0.243205	-0.863794	0.571497
C55	C	0.243200	-0.863789	0.427617
C56	C	0.319197	-0.906285	0.643388
C57	C	0.395173	-0.948767	0.571397
C58	C	0.395169	-0.948757	0.427508
C59	C	0.319181	-0.906267	0.355625
N60	N	0.167224	-0.821317	0.643488
H61	H	-0.125834	-0.951208	-0.000409
Br62	Br	0.376149	-0.392702	0.188392
H63	H	-0.393102	-0.578490	-0.000356
Br64	Br	-0.094377	-0.648410	-0.000257
Br65	Br	0.006625	-0.699440	-0.000340
H66	H	-0.122595	-0.659268	0.630314
H67	H	-0.122600	-0.659255	0.369269
H68	H	0.009893	-0.397813	-0.145700
H69	H	-0.155470	-0.581972	-0.000342
H70	H	0.319198	-0.906286	0.760543
Br71	Br	0.015286	-0.736350	0.838858
Br72	Br	-0.106219	-0.201441	-0.000432
Br73	Br	0.445182	-0.611963	-0.000327
H74	H	0.006413	-0.266367	-0.145745
H75	H	0.457046	-0.983356	0.629942
H76	H	-0.036239	-0.493085	-0.000356
Br77	Br	0.371621	-0.221909	0.188342
Br78	Br	0.015224	-0.736324	0.160561
Br79	Br	0.498300	-1.006404	0.329818
H80	H	-0.510094	-1.060636	-0.000476
Br81	Br	0.319161	-0.906254	0.160358
H82	H	-0.272459	-1.064122	-0.000444
H83	H	-0.601085	-0.944226	-0.000461
H84	H	0.379041	-0.465041	-0.000356
Br85	Br	0.433336	-0.165000	-0.000475
H86	H	0.367194	-0.018077	-0.000499
Br87	Br	-0.610840	-0.690363	-0.000488
H88	H	-0.048091	-0.046121	-0.000583
