data_functionalizedCrystal
_audit_creation_method	'MofGen! by Chris Wilmer'
_symmetry_space_group_name_H-M	'P1'
_symmetry_Int_Tables_number	1
_symmetry_cell_setting	triclinic
loop_
_symmetry_equiv_pos_as_xyz
  x,y,z
_cell_length_a	21.295418
_cell_length_b	21.295420
_cell_length_c	14.908308
_cell_angle_alpha	86.721801
_cell_angle_beta	86.737501
_cell_angle_gamma	90.023182
loop_
_atom_site_label
_atom_site_type_symbol
_atom_site_fract_x
_atom_site_fract_y
_atom_site_fract_z
Zn1	Zn	-0.271206	0.941788	0.510068
Zn2	Zn	0.228794	1.441788	1.010068
Zn3	Zn	-0.370408	0.947784	0.359203
Zn4	Zn	0.129592	1.447784	0.859203
Zn5	Zn	-0.265150	0.842598	0.359227
Zn6	Zn	0.234850	1.342598	0.859227
Zn7	Zn	-0.376431	0.836489	0.510010
Zn8	Zn	0.123569	1.336489	1.010010
O9	O	-0.320799	0.892165	0.434627
O10	O	0.179201	1.392165	0.934627
O11	O	-0.284379	1.030672	0.490069
O12	O	0.215621	1.530672	0.990069
O13	O	-0.351390	0.938896	0.232965
O14	O	0.148610	1.438896	0.732965
O15	O	-0.177865	0.855803	0.379270
O16	O	0.322135	1.355803	0.879270
O17	O	-0.357262	1.035077	0.379230
O18	O	0.142738	1.535077	0.879230
O19	O	-0.182315	0.928678	0.490092
O20	O	0.317685	1.428678	0.990092
O21	O	-0.274057	0.861617	0.232983
O22	O	0.225943	1.361617	0.732983
O23	O	-0.279898	0.753699	0.379214
O24	O	0.220102	1.253699	0.879214
O25	O	-0.367528	0.845392	0.636259
O26	O	0.132472	1.345392	1.136259
O27	O	-0.361656	0.749211	0.489995
O28	O	0.138344	1.249211	0.989995
O29	O	-0.290219	0.922755	0.636301
O30	O	0.209781	1.422755	1.136301
O31	O	-0.459295	0.932973	0.379174
O32	O	0.040705	1.432973	0.879174
O33	O	-0.463720	0.851205	0.489972
O34	O	0.036280	1.351205	0.989972
C35	C	-0.320774	0.728614	0.434601
C36	C	0.179226	1.228614	0.934601
C37	C	-0.320779	0.658646	0.434612
C38	C	0.179221	1.158646	0.934612
C39	C	-0.282948	0.156888	0.492448
C40	C	0.217052	0.656888	0.992448
C41	C	-0.282943	0.222631	0.492448
C42	C	0.217057	0.722631	0.992448
C43	C	-0.320819	0.257805	0.434648
C44	C	0.179181	0.757805	0.934648
C45	C	-0.358714	0.227230	0.376860
C46	C	0.141286	0.727230	0.876860
C47	C	-0.358722	0.161488	0.376868
C48	C	0.141278	0.661488	0.876868
N49	N	-0.322387	0.364182	0.355656
N50	N	0.177613	0.864182	0.855656
N51	N	-0.322375	0.426634	0.355651
N52	N	0.177625	0.926634	0.855651
C53	C	-0.320797	0.455880	0.434621
C54	C	0.179203	0.955880	0.934621
N55	N	-0.319218	0.420316	0.513599
N56	N	0.180782	0.920316	1.013599
N57	N	-0.319226	0.357859	0.513603
N58	N	0.180774	0.857859	1.013603
C59	C	-0.320814	0.329091	0.434633
C60	C	0.179186	0.829091	0.934633
C61	C	-0.282902	0.557733	0.492410
C62	C	0.217098	1.057733	0.992410
C63	C	-0.282902	0.623476	0.492412
C64	C	0.217098	1.123476	0.992412
C65	C	-0.358669	0.628074	0.376815
C66	C	0.141331	1.128074	0.876815
C67	C	-0.358673	0.562332	0.376822
C68	C	0.141327	1.062332	0.876822
C69	C	-0.320786	0.527165	0.434618
C70	C	0.179214	1.027165	0.934618
C71	C	-0.484349	0.892093	0.434584
C72	C	0.015651	1.392093	0.934584
C73	C	-0.554317	0.892118	0.434596
C74	C	-0.054317	1.392118	0.934596
C75	C	-1.051457	0.934886	0.377080
C76	C	-0.551457	1.434886	0.877080
C77	C	-0.985714	0.934863	0.377059
C78	C	-0.485714	1.434863	0.877059
C79	C	-0.955160	0.892251	0.434690
C80	C	-0.455160	1.392251	0.934690
C81	C	-0.990355	0.849647	0.492331
C82	C	-0.490355	1.349647	0.992331
C83	C	-1.056097	0.849667	0.492344
C84	C	-0.556097	1.349667	0.992344
N85	N	-0.855083	0.884177	0.513629
N86	N	-0.355083	1.384177	1.013629
N87	N	-0.792630	0.884161	0.513614
N88	N	-0.292630	1.384161	1.013614
C89	C	-0.757084	0.892187	0.434652
C90	C	-0.257084	1.392187	0.934652
N91	N	-0.786349	0.900240	0.355704
N92	N	-0.286349	1.400240	0.855704
N93	N	-0.848807	0.900259	0.355720
N94	N	-0.348807	1.400259	0.855720
C95	C	-0.883875	0.892224	0.434682
C96	C	-0.383875	1.392224	0.934682
C97	C	-0.650611	0.934759	0.376988
C98	C	-0.150611	1.434759	0.876988
C99	C	-0.584866	0.934732	0.376965
C100	C	-0.084866	1.434732	0.876965
C101	C	-0.589509	0.849519	0.492245
C102	C	-0.089509	1.349519	0.992245
C103	C	-0.655252	0.849544	0.492260
C104	C	-0.155252	1.349544	0.992260
C105	C	-0.685799	0.892167	0.434632
C106	C	-0.185799	1.392167	0.934632
C107	C	-0.156611	0.892253	0.434690
C108	C	0.343389	1.392253	0.934690
C109	C	-0.086644	0.892291	0.434717
C110	C	0.413356	1.392291	0.934717
C111	C	-0.330221	0.882723	0.669928
C112	C	0.169779	1.382723	1.169928
C113	C	-0.334236	0.878699	0.770199
C114	C	0.165764	1.378699	1.270199
C115	C	-0.320824	1.056354	0.434653
C116	C	0.179176	1.556354	0.934653
C117	C	-0.320835	1.126322	0.434664
C118	C	0.179165	1.626322	0.934664
C119	C	-0.311367	0.901606	0.200241
C120	C	0.188633	1.401606	0.700241
C121	C	-0.307175	0.905752	0.099971
C122	C	0.192825	1.405752	0.599971
C123	C	-0.261266	0.951695	0.958665
C124	C	0.238734	1.451695	1.458665
C125	C	-0.265036	0.947916	1.052879
C126	C	0.234964	1.447916	1.552879
C127	C	-0.345545	0.867361	1.052842
C128	C	0.154455	1.367361	1.552842
C129	C	-0.341774	0.871140	0.958629
C130	C	0.158226	1.371140	1.458629
C131	C	-0.299634	0.913309	0.911543
C132	C	0.200366	1.413309	1.411543
C133	C	-0.295867	0.917090	0.817328
C134	C	0.204133	1.417090	1.317328
C135	C	-0.376372	0.836532	0.817293
C136	C	0.123628	1.336532	1.317293
C137	C	-0.380142	0.832753	0.911507
C138	C	0.119858	1.332753	1.411507
H139	H	-0.389555	0.255872	0.329801
H140	H	0.110445	0.755872	0.829801
H141	H	-0.407615	0.805276	0.778916
H142	H	0.092385	1.305276	1.278916
H143	H	-0.957059	0.969551	0.330122
H144	H	-0.457059	1.469551	0.830122
H145	H	-0.556216	0.969416	0.330025
H146	H	-0.056216	1.469416	0.830025
Cl147	Cl	-0.235307	0.261067	0.565094
Cl148	Cl	0.264693	0.761067	1.065094
Cl149	Cl	-1.089855	0.988468	0.304631
Cl150	Cl	-0.589855	1.488468	0.804631
H151	H	-0.261555	0.951427	0.778992
H152	H	0.238445	1.451427	1.278992
Cl153	Cl	-1.100335	0.796116	0.564811
Cl154	Cl	-0.600335	1.296116	1.064811
Cl155	Cl	-0.216799	0.996175	1.112115
Cl156	Cl	0.283201	1.496175	1.612115
Cl157	Cl	-0.235324	0.112682	0.565114
Cl158	Cl	0.264676	0.612682	1.065114
H159	H	-0.683902	0.814859	0.539196
H160	H	-0.183902	1.314859	1.039196
Cl161	Cl	-0.406354	0.123059	0.304214
Cl162	Cl	0.093646	0.623059	0.804214
H163	H	-0.226957	0.986034	0.920327
H164	H	0.273043	1.486034	1.420327
Cl165	Cl	-0.433115	0.779743	0.970708
Cl166	Cl	0.066885	1.279743	1.470708
Cl167	Cl	-0.235276	0.513520	0.565070
Cl168	Cl	0.264724	1.013520	1.065070
Cl169	Cl	-0.235272	0.661904	0.565069
Cl170	Cl	0.264728	1.161904	1.065069
Cl171	Cl	-0.551105	0.795941	0.564685
Cl172	Cl	-0.051105	1.295941	1.064685
Cl173	Cl	-0.406291	0.672286	0.304158
Cl174	Cl	0.093709	1.172286	0.804158
H175	H	-0.379853	0.833029	1.091195
H176	H	0.120147	1.333029	1.591195
H177	H	-0.965475	0.814951	0.539254
H178	H	-0.465475	1.314951	1.039254
Cl179	Cl	-0.689015	0.988338	0.304538
Cl180	Cl	-0.189015	1.488338	0.804538
H181	H	-0.389523	0.537444	0.329764
H182	H	0.110477	1.037444	0.829764
