data_functionalizedCrystal
_audit_creation_method	'MofGen! by Chris Wilmer'
_symmetry_space_group_name_H-M	'P1'
_symmetry_Int_Tables_number	1
_symmetry_cell_setting	triclinic
loop_
_symmetry_equiv_pos_as_xyz
  x,y,z
_cell_length_a	19.288864
_cell_length_b	19.288865
_cell_length_c	17.766277
_cell_angle_alpha	89.989546
_cell_angle_beta	89.976755
_cell_angle_gamma	83.136245
loop_
_atom_site_label
_atom_site_type_symbol
_atom_site_fract_x
_atom_site_fract_y
_atom_site_fract_z
O1	O	-0.921353	-0.086648	0.062844
O2	O	-0.421353	0.413352	0.562844
O3	O	-0.719093	-0.098336	0.062794
O4	O	-0.219093	0.401664	0.562794
O5	O	-0.826067	0.008638	0.062806
O6	O	-0.326067	0.508638	0.562806
O7	O	-0.814379	-0.193622	0.062832
O8	O	-0.314379	0.306378	0.562832
O9	O	-0.826048	0.008641	-0.062383
O10	O	-0.326048	0.508641	0.437617
O11	O	-0.719074	-0.098333	-0.062395
O12	O	-0.219074	0.401667	0.437605
O13	O	-0.921334	-0.086645	-0.062344
O14	O	-0.421334	0.413355	0.437656
Cu15	Cu	-0.820202	-0.092489	-0.073800
Cu16	Cu	-0.320202	0.407511	0.426200
Cu17	Cu	-0.820225	-0.092492	0.074250
Cu18	Cu	-0.320225	0.407508	0.574250
O19	O	-0.814359	-0.193619	-0.062356
O20	O	-0.314359	0.306381	0.437644
C21	C	-0.693207	-0.097959	0.000193
C22	C	-0.193207	0.402041	0.500193
C23	C	-0.616103	-0.096830	0.000173
C24	C	-0.116103	0.403170	0.500173
C25	C	-0.825682	0.034516	0.000209
C26	C	-0.325682	0.534516	0.500209
C27	C	-0.824553	0.111620	0.000202
C28	C	-0.324553	0.611620	0.500202
C29	C	-0.947220	-0.087022	0.000258
C30	C	-0.447220	0.412978	0.500258
C31	C	-1.024324	-0.088151	0.000283
C32	C	-0.524324	0.411849	0.500283
C33	C	-0.571407	-0.159598	0.000193
C34	C	-0.071407	0.340402	0.500193
C35	C	-0.498960	-0.158537	0.000201
C36	C	0.001040	0.341463	0.500201
C37	C	-0.471212	-0.094705	0.000205
C38	C	0.028788	0.405295	0.500205
C39	C	-0.515918	-0.031929	0.000180
C40	C	-0.015918	0.468071	0.500180
C41	C	-0.588364	-0.032991	0.000164
C42	C	-0.088364	0.467009	0.500164
C43	C	-0.362957	-0.044527	0.044082
C44	C	0.137043	0.455473	0.544082
C45	C	-0.290512	-0.043467	0.044103
C46	C	0.209488	0.456533	0.544103
C47	C	-0.247767	-0.091425	0.000250
C48	C	0.252233	0.408575	0.500250
C49	C	-0.277473	-0.140455	-0.043614
C50	C	0.222527	0.359545	0.456386
C51	C	-0.349918	-0.141518	-0.043630
C52	C	0.150082	0.358482	0.456370
C53	C	-0.392658	-0.093546	0.000221
C54	C	0.107342	0.406454	0.500221
C55	C	-0.124514	-0.153047	0.000278
C56	C	0.375486	0.346953	0.500278
C57	C	-0.052066	-0.151984	0.000281
C58	C	0.447934	0.348016	0.500281
C59	C	-0.069026	-0.025374	0.000267
C60	C	0.430974	0.474626	0.500267
C61	C	-0.141473	-0.026439	0.000256
C62	C	0.358527	0.473561	0.500256
C63	C	-0.169212	-0.090278	0.000265
C64	C	0.330788	0.409722	0.500265
C65	C	-0.814745	-0.219497	0.000242
C66	C	-0.314745	0.280503	0.500242
C67	C	-0.815874	-0.296601	0.000254
C68	C	-0.315874	0.203399	0.500254
N69	N	-0.820191	-0.092486	-0.177931
N70	N	-0.320191	0.407514	0.322069
C71	C	-0.887321	0.156316	0.000214
C72	C	-0.387321	0.656316	0.500214
C73	C	-0.886260	0.228763	0.000226
C74	C	-0.386260	0.728763	0.500226
C75	C	-0.822428	0.256511	0.000210
C76	C	-0.322428	0.756511	0.500210
C77	C	-0.759652	0.211805	0.000203
C78	C	-0.259652	0.711805	0.500203
C79	C	-0.760714	0.139359	0.000198
C80	C	-0.260714	0.639359	0.500198
C81	C	-0.772241	0.364799	-0.043653
C82	C	-0.272241	0.864799	0.456347
C83	C	-0.771182	0.437244	-0.043654
C84	C	-0.271182	0.937244	0.456346
C85	C	-0.819148	0.479956	0.000226
C86	C	-0.319148	0.979956	0.500226
C87	C	-0.868186	0.450217	0.044097
C88	C	-0.368186	0.950217	0.544097
C89	C	-0.869249	0.377772	0.044093
C90	C	-0.369249	0.877772	0.544093
C91	C	-0.821269	0.335065	0.000215
C92	C	-0.321269	0.835065	0.500215
C93	C	-0.880770	0.603209	0.000252
C94	C	-0.380770	1.103209	0.500252
C95	C	-0.879707	0.675657	0.000268
C96	C	-0.379707	1.175657	0.500268
C97	C	-0.753097	0.658697	0.000238
C98	C	-0.253097	1.158697	0.500238
C99	C	-0.754162	0.586250	0.000229
C100	C	-0.254162	1.086250	0.500229
C101	C	-0.818001	0.558511	0.000232
C102	C	-0.318001	1.058511	0.500232
C103	C	-0.862179	-0.134509	-0.217294
C104	C	-0.362179	0.365491	0.282706
C105	C	-0.862190	-0.134507	-0.296096
C106	C	-0.362190	0.365493	0.203904
C107	C	-0.820200	-0.092490	-0.335531
C108	C	-0.320200	0.407510	0.164469
C109	C	-0.778210	-0.050457	-0.296158
C110	C	-0.278210	0.449543	0.203842
C111	C	-0.778206	-0.050455	-0.217358
C112	C	-0.278206	0.449545	0.282642
C113	C	-0.757588	-0.090733	-0.460407
C114	C	-0.257588	0.409267	0.039593
C115	C	-0.757591	-0.090740	-0.539206
C116	C	-0.257591	0.409260	-0.039206
C117	C	-0.820215	-0.092492	-0.578577
C118	C	-0.320215	0.407508	-0.078577
C119	C	-0.882836	-0.094251	-0.539141
C120	C	-0.382836	0.405749	-0.039141
C121	C	-0.882832	-0.094249	-0.460341
C122	C	-0.382832	0.405751	0.039659
C123	C	-0.820201	-0.092487	-0.420977
C124	C	-0.320201	0.407513	0.079023
C125	C	-0.862218	-0.134516	-0.703387
C126	C	-0.362218	0.365484	-0.203387
C127	C	-0.862230	-0.134509	-0.782190
C128	C	-0.362230	0.365491	-0.282190
C129	C	-0.778244	-0.050463	-0.782251
C130	C	-0.278244	0.449537	-0.282251
C131	C	-0.778238	-0.050466	-0.703449
C132	C	-0.278238	0.449534	-0.203449
C133	C	-0.820224	-0.092496	-0.664022
C134	C	-0.320224	0.407504	-0.164022
N135	N	-0.820241	-0.092490	0.178380
N136	N	-0.320241	0.407510	0.678380
H137	H	-0.593987	-0.211580	0.000202
H138	H	-0.093987	0.288420	0.500202
F139	F	-0.949476	-0.096121	-0.418372
F140	F	-0.449476	0.403879	0.081628
F141	F	-0.955264	0.126798	0.000234
F142	F	-0.455264	0.626798	0.500234
F143	F	-0.953069	0.276341	0.000239
F144	F	-0.453069	0.776341	0.500239
F145	F	-0.408444	0.006521	0.090759
F146	F	0.091556	0.506521	0.590759
H147	H	-0.701123	0.681288	0.000229
H148	H	-0.201123	1.181288	0.500229
F149	F	-0.919239	0.495670	0.090802
F150	F	-0.419239	0.995670	0.590802
F151	F	-0.691717	0.241336	0.000191
F152	F	-0.191717	0.741336	0.500191
F153	F	-0.486386	0.036006	0.000180
F154	F	0.013614	0.536006	0.500180
H155	H	-0.462561	-0.209652	0.000216
H156	H	0.037439	0.290348	0.500216
F157	F	-0.687355	0.538679	0.000213
F158	F	-0.187355	1.038679	0.500213
H159	H	-0.896426	-0.168728	-0.814239
H160	H	-0.396426	0.331272	-0.314239
F161	F	-0.733512	-0.005729	-0.175463
F162	F	-0.233512	0.494271	0.324537
H163	H	-0.624756	0.018124	0.000148
H164	H	-0.124756	0.518124	0.500148
F165	F	-0.381531	-0.193695	-0.090313
F166	F	0.118469	0.306305	0.409687
F167	F	-0.690943	-0.088874	-0.581170
F168	F	-0.190943	0.411126	-0.081170
H169	H	-0.744056	-0.016250	-0.814358
H170	H	-0.244056	0.483750	-0.314358
H171	H	-0.744044	-0.016248	-0.671399
H172	H	-0.244044	0.483752	-0.171399
F173	F	-0.690937	-0.088822	-0.418512
F174	F	-0.190937	0.411178	0.081488
F175	F	-0.921434	0.346123	0.090785
F176	F	-0.421434	0.846123	0.590785
F177	F	-0.693905	0.091788	0.000186
F178	F	-0.193905	0.591788	0.500186
H179	H	-0.744023	-0.016245	-0.328271
H180	H	-0.244023	0.483755	0.171729
F181	F	-0.154039	-0.220989	0.000281
F182	F	0.345961	0.279011	0.500281
H183	H	-0.242670	-0.179507	-0.079324
H184	H	0.257330	0.320493	0.420676
F185	F	-0.004496	-0.218794	0.000299
F186	F	0.495504	0.281206	0.500299
H187	H	-0.046435	0.026600	0.000317
H188	H	0.453565	0.526600	0.500317
H189	H	-0.932751	0.580622	0.000258
H190	H	-0.432751	1.080622	0.500258
H191	H	-0.930822	0.712049	0.000282
H192	H	-0.430822	1.212049	0.500282
F193	F	-0.189044	0.040368	0.000239
F194	F	0.310956	0.540368	0.500239
F195	F	-0.258903	0.008709	0.090792
F196	F	0.241097	0.508709	0.590792
F197	F	-0.721186	0.319348	-0.090361
F198	F	-0.221186	0.819348	0.409639
H199	H	-0.731249	0.461451	-0.079371
H200	H	-0.231249	0.961451	0.420629
H201	H	-0.896369	-0.168731	-0.185197
H202	H	-0.396369	0.331269	0.314803
H203	H	-0.896381	-0.168730	-0.328152
H204	H	-0.396381	0.331270	0.171848
H205	H	-0.933830	-0.095682	-0.571196
H206	H	-0.433830	0.404318	-0.071196
F207	F	-0.906914	-0.179235	-0.661423
F208	F	-0.406914	0.320765	-0.161423
