data_functionalizedCrystal
_audit_creation_method	'MofGen! by Chris Wilmer'
_symmetry_space_group_name_H-M	'P1'
_symmetry_Int_Tables_number	1
_symmetry_cell_setting	triclinic
loop_
_symmetry_equiv_pos_as_xyz
  x,y,z
_cell_length_a	19.188933
_cell_length_b	16.109311
_cell_length_c	15.186229
_cell_angle_alpha	90.001591
_cell_angle_beta	90.004182
_cell_angle_gamma	83.305638
loop_
_atom_site_label
_atom_site_type_symbol
_atom_site_fract_x
_atom_site_fract_y
_atom_site_fract_z
O1	O	0.926391	0.103799	0.073202
O2	O	0.723113	0.117770	0.073210
O3	O	0.830333	-0.010264	0.073197
O4	O	0.819172	0.231833	0.073215
O5	O	0.830320	-0.010257	-0.073260
O6	O	0.723101	0.117777	-0.073247
O7	O	0.926379	0.103806	-0.073255
Zn8	Zn	0.824738	0.110793	-0.096504
Zn9	Zn	0.824754	0.110783	0.096459
O10	O	0.819159	0.231841	-0.073242
C11	C	0.697095	0.117321	-0.000017
C12	C	0.619587	0.115962	-0.000014
C13	C	0.066316	0.106259	0.079809
C14	C	0.139143	0.107531	0.079813
C15	C	0.175555	0.108175	-0.000021
C16	C	0.139135	0.107525	-0.079864
C17	C	0.066310	0.106245	-0.079865
N18	N	0.284686	0.157498	-0.059441
N19	N	0.353867	0.158716	-0.059434
C20	C	0.394973	0.112030	-0.000022
N21	N	0.364283	0.064091	0.059397
N22	N	0.295096	0.062877	0.059393
C23	C	0.254521	0.109562	-0.000028
C24	C	0.510351	0.114053	0.079820
C25	C	0.583181	0.115320	0.079820
C26	C	0.583171	0.115322	-0.079859
C27	C	0.510344	0.114047	-0.079857
C28	C	0.473938	0.113417	-0.000015
C29	C	0.829873	-0.041234	-0.000032
C30	C	0.828514	-0.133524	-0.000033
C31	C	0.952397	0.104255	-0.000026
C32	C	1.029905	0.105614	-0.000023
N33	N	0.824732	0.110799	-0.228197
C34	C	0.819619	0.262810	-0.000011
C35	C	0.820978	0.355101	-0.000005
C36	C	0.825397	0.654153	0.079813
C37	C	0.824117	0.567437	0.079819
C38	C	0.824093	0.567429	-0.079857
C39	C	0.825368	0.654145	-0.079862
C40	C	0.826023	0.697504	-0.000024
C41	C	0.823469	0.524072	-0.000014
C42	C	0.822081	0.430051	-0.000008
C43	C	0.827410	0.791532	-0.000029
C44	C	0.867078	0.161087	-0.453918
C45	C	0.867086	0.161081	-0.546108
C46	C	0.782418	0.060477	-0.546121
C47	C	0.782415	0.060479	-0.453933
C48	C	0.824743	0.110789	-0.407834
C49	C	0.824754	0.110781	-0.592211
C50	C	0.824762	0.110774	-0.692168
C51	C	0.824737	0.110795	-0.307871
N52	N	0.824766	0.110771	0.228152
H53	H	0.168787	0.108048	-0.144865
C54	C	0.657222	0.188214	0.172448
C55	C	0.623208	0.116028	0.167579
H56	H	0.681936	0.188647	0.226626
H57	H	0.623479	0.236178	0.169129
H58	H	0.689327	0.188762	0.124898
H59	H	0.591098	0.115482	0.215125
H60	H	0.656954	0.068051	0.170907
C61	C	0.073617	0.106377	-0.237699
C62	C	0.026282	0.105545	-0.167623
H63	H	0.048902	0.105952	-0.291876
H64	H	0.107352	0.058405	-0.234381
H65	H	0.096691	0.155349	-0.234369
H66	H	0.003212	0.056570	-0.170949
H67	H	-0.007465	0.153522	-0.170943
C68	C	0.766802	0.761218	-0.172492
C69	C	0.826055	0.701802	-0.167626
H70	H	0.767223	0.790636	-0.226674
H71	H	0.767376	0.799446	-0.124951
H72	H	0.725620	0.733863	-0.169166
H73	H	0.867237	0.729157	-0.170946
H74	H	0.825488	0.663568	-0.215180
C75	C	-0.023433	0.176275	0.172455
C76	C	0.026304	0.105558	0.167573
H77	H	-0.048131	0.175841	0.226640
H78	H	-0.055543	0.175702	0.124918
H79	H	-0.000351	0.225241	0.169133
H80	H	0.003221	0.056591	0.170888
H81	H	0.058418	0.106122	0.215123
C82	C	0.871428	0.272882	-0.649786
C83	C	0.913620	0.216369	-0.596767
H84	H	0.900160	0.307011	-0.681065
H85	H	0.839296	0.307047	-0.613830
H86	H	0.846223	0.242913	-0.690432
H87	H	0.938821	0.246339	-0.556117
H88	H	0.945765	0.182201	-0.632727
H89	H	0.168794	0.108061	0.144824
C90	C	0.517673	0.114178	0.237654
C91	C	0.470329	0.113353	0.167579
H92	H	0.492966	0.113742	0.291832
H93	H	0.540745	0.163143	0.234334
H94	H	0.551411	0.066199	0.234327
H95	H	0.436595	0.161336	0.170902
H96	H	0.447246	0.064383	0.170901
C97	C	0.575842	0.115193	-0.237690
C98	C	0.623185	0.116026	-0.167616
H99	H	0.600550	0.115620	-0.291868
H100	H	0.542106	0.163164	-0.234370
H101	H	0.552769	0.066220	-0.234363
H102	H	0.646254	0.165003	-0.170939
H103	H	0.656933	0.068051	-0.170938
H104	H	0.747940	0.019516	-0.416410
C105	C	0.765813	0.690407	0.215909
C106	C	0.826103	0.701811	0.167573
H107	H	0.766246	0.719831	0.270088
H108	H	0.764971	0.632563	0.227326
H109	H	0.725335	0.711109	0.183097
H110	H	0.866582	0.681104	0.200383
H111	H	0.826952	0.759667	0.156158
H112	H	0.823605	0.532145	0.144830
H113	H	0.747955	0.019518	-0.583666
H114	H	0.480697	0.113525	-0.144865
C115	C	0.822143	0.434494	-0.150750
C116	C	0.823387	0.519763	-0.167612
H117	H	0.821714	0.405069	-0.204929
H118	H	0.781248	0.426771	-0.117953
H119	H	0.862630	0.413811	-0.117945
H120	H	0.782896	0.540448	-0.200411
H121	H	0.864285	0.527492	-0.200423
H122	H	0.901545	0.202052	-0.416387
