data_functionalizedCrystal
_audit_creation_method	'MofGen! by Chris Wilmer'
_symmetry_space_group_name_H-M	'P1'
_symmetry_Int_Tables_number	1
_symmetry_cell_setting	triclinic
loop_
_symmetry_equiv_pos_as_xyz
  x,y,z
_cell_length_a	21.395364
_cell_length_b	21.395361
_cell_length_c	12.827885
_cell_angle_alpha	90.035887
_cell_angle_beta	90.022192
_cell_angle_gamma	90.047234
loop_
_atom_site_label
_atom_site_type_symbol
_atom_site_fract_x
_atom_site_fract_y
_atom_site_fract_z
Zn1	Zn	-0.957841	0.249128	-0.590882
Zn2	Zn	-0.457841	0.749128	-0.090882
Zn3	Zn	-0.957749	0.353918	-0.416124
Zn4	Zn	-0.457749	0.853918	0.083876
Zn5	Zn	-0.853062	0.249189	-0.416147
Zn6	Zn	-0.353062	0.749189	0.083853
Zn7	Zn	-0.853025	0.353902	-0.590816
Zn8	Zn	-0.353025	0.853902	-0.090816
O9	O	-0.905419	0.301534	-0.503492
O10	O	-0.405419	0.801534	-0.003492
O11	O	-1.045507	0.263010	-0.567718
O12	O	-0.545507	0.763010	-0.067718
O13	O	-0.943839	0.340058	-0.269891
O14	O	-0.443839	0.840058	0.230109
O15	O	-0.867014	0.161503	-0.439364
O16	O	-0.367014	0.661503	0.060636
O17	O	-1.045439	0.339999	-0.439324
O18	O	-0.545439	0.839999	0.060676
O19	O	-0.943995	0.161458	-0.567741
O20	O	-0.443995	0.661458	-0.067741
O21	O	-0.866925	0.263114	-0.269908
O22	O	-0.366925	0.763114	0.230092
O23	O	-0.765379	0.263098	-0.439300
O24	O	-0.265379	0.763098	0.060700
O25	O	-0.866953	0.339971	-0.737061
O26	O	-0.366953	0.839971	-0.237061
O27	O	-0.765352	0.340031	-0.567628
O28	O	-0.265352	0.840031	-0.067628
O29	O	-0.943960	0.262994	-0.737109
O30	O	-0.443960	0.762994	-0.237109
O31	O	-0.943804	0.441594	-0.439260
O32	O	-0.443804	0.941594	0.060740
O33	O	-0.866864	0.441582	-0.567605
O34	O	-0.366864	0.941582	-0.067605
C35	C	-0.742632	0.301570	-0.503460
C36	C	-0.242632	0.801570	-0.003460
C37	C	-0.672990	0.301600	-0.503470
C38	C	-0.172990	0.801600	-0.003470
C39	C	-0.640335	0.261578	-0.570428
C40	C	-0.140335	0.761578	-0.070428
C41	C	-0.574899	0.261564	-0.570430
C42	C	-0.074899	0.761564	-0.070430
C43	C	-0.542122	0.301582	-0.503486
C44	C	-0.042122	0.801582	-0.003486
C45	C	-0.574786	0.341606	-0.436516
C46	C	-0.074786	0.841606	0.063484
C47	C	-0.640220	0.341616	-0.436508
C48	C	-0.140220	0.841616	0.063492
C49	C	-0.438398	0.358011	-0.495081
C50	C	0.061602	0.858011	0.004919
C51	C	-0.372965	0.358003	-0.495097
C52	C	0.127035	0.858003	0.004903
C53	C	-0.340301	0.301554	-0.503505
C54	C	0.159699	0.801554	-0.003505
C55	C	-0.373078	0.245110	-0.511921
C56	C	0.126922	0.745110	-0.011921
C57	C	-0.438513	0.245119	-0.511912
C58	C	0.061487	0.745119	-0.011912
C59	C	-0.471170	0.301576	-0.503487
C60	C	0.028830	0.801576	-0.003487
C61	C	-0.236693	0.261513	-0.570469
C62	C	0.263307	0.761513	-0.070469
C63	C	-0.171256	0.261497	-0.570464
C64	C	0.328744	0.761497	-0.070464
C65	C	-0.171144	0.341545	-0.436556
C66	C	0.328856	0.841545	0.063444
C67	C	-0.236580	0.341555	-0.436555
C68	C	0.263420	0.841555	0.063445
C69	C	-0.269350	0.301540	-0.503517
C70	C	0.230650	0.801540	-0.003517
C71	C	-0.905337	0.464322	-0.503446
C72	C	-0.405337	0.964322	-0.003446
C73	C	-0.905359	0.533963	-0.503461
C74	C	-0.405359	1.033963	-0.003461
C75	C	-0.905462	0.301474	-0.776063
C76	C	-0.405462	0.801474	-0.276063
C77	C	-0.905481	0.301448	-0.892216
C78	C	-0.405481	0.801448	-0.392216
C79	C	-0.068843	0.301507	-0.503521
C80	C	0.431157	0.801507	-0.003521
C81	C	-0.138484	0.301515	-0.503519
C82	C	0.361516	0.801515	-0.003519
C83	C	-0.945458	0.566662	-0.436702
C84	C	-0.445458	1.066662	0.063298
C85	C	-0.945487	0.632097	-0.436731
C86	C	-0.445487	1.132097	0.063269
C87	C	-0.905407	0.664832	-0.503506
C88	C	-0.405407	1.164832	-0.003506
C89	C	-0.865306	0.632125	-0.570278
C90	C	-0.365306	1.132125	-0.070278
C91	C	-0.865282	0.566691	-0.570255
C92	C	-0.365282	1.066691	-0.070255
C93	C	-0.848992	0.768562	-0.511702
C94	C	-0.348992	1.268562	-0.011702
C95	C	-0.849015	0.833995	-0.511717
C96	C	-0.349015	1.333995	-0.011717
C97	C	-0.905480	0.866652	-0.503582
C98	C	-0.405480	1.366652	-0.003582
C99	C	-0.961925	0.833869	-0.495410
C100	C	-0.461925	1.333869	0.004590
C101	C	-0.961901	0.768435	-0.495387
C102	C	-0.461901	1.268435	0.004613
C103	C	-0.905428	0.735784	-0.503539
C104	C	-0.405428	1.235784	-0.003539
C105	C	-0.945614	0.970303	-0.436850
C106	C	-0.445614	1.470303	0.063150
C107	C	-0.945644	1.035740	-0.436886
C108	C	-0.445644	1.535740	0.063114
C109	C	-0.865457	1.035767	-0.570427
C110	C	-0.365457	1.535767	-0.070427
C111	C	-0.865432	0.970331	-0.570398
C112	C	-0.365432	1.470331	-0.070398
C113	C	-0.905510	0.937604	-0.503603
C114	C	-0.405510	1.437604	-0.003603
C115	C	-0.905520	1.138111	-0.503580
C116	C	-0.405520	1.638111	-0.003580
C117	C	-0.905564	1.068470	-0.503663
C118	C	-0.405564	1.568470	-0.003663
C119	C	-0.943609	0.263324	-1.064069
C120	C	-0.443609	0.763324	-0.564069
C121	C	-0.943591	0.263350	-0.944019
C122	C	-0.443591	0.763350	-0.444019
C123	C	-0.905412	0.301550	-0.231983
C124	C	-0.405412	0.801550	0.268017
C125	C	-0.905515	0.301399	-0.115830
C126	C	-0.405515	0.801399	0.384170
H127	H	-0.346283	0.403963	-0.488250
H128	H	0.153717	0.903963	0.011750
N129	N	-0.862272	0.344622	-0.951172
N130	N	-0.362272	0.844622	-0.451172
H131	H	-0.887746	0.373617	-0.996456
H132	H	-0.387746	0.873617	-0.496456
H133	H	-0.836842	0.370009	-0.900043
H134	H	-0.336842	0.870009	-0.400043
H135	H	-0.832778	0.943706	-0.624754
H136	H	-0.332778	1.443706	-0.124754
N137	N	-0.272038	0.218357	-0.642698
N138	N	0.227962	0.718357	-0.142698
H139	H	-0.299165	0.243867	-0.691048
H140	H	0.200835	0.743867	-0.191048
H141	H	-0.241373	0.193012	-0.685041
H142	H	0.258627	0.693012	-0.185041
N143	N	-0.862292	0.344597	-1.056800
N144	N	-0.362292	0.844597	-0.556800
H145	H	-0.817525	0.334878	-1.075735
H146	H	-0.317525	0.834878	-0.575735
H147	H	-0.872035	0.389354	-1.075737
H148	H	-0.372035	0.889354	-0.575737
N149	N	-0.337851	0.184223	-0.520979
N150	N	0.162149	0.684223	-0.020979
H151	H	-0.349253	0.156145	-0.460635
H152	H	0.150747	0.656145	0.039365
H153	H	-0.349285	0.163001	-0.588707
H154	H	0.150715	0.663001	-0.088707
N155	N	-0.473870	0.184249	-0.520976
N156	N	0.026130	0.684249	-0.020976
H157	H	-0.462526	0.162971	-0.588670
H158	H	0.037474	0.662971	-0.088670
H159	H	-0.462482	0.156214	-0.460583
H160	H	0.037518	0.656214	0.039417
H161	H	-0.803054	0.860682	-0.518361
H162	H	-0.303054	1.360682	-0.018361
N163	N	-0.788087	0.733341	-0.520487
N164	N	-0.288087	1.233341	-0.020487
H165	H	-0.752335	0.764036	-0.525659
H166	H	-0.252335	1.264036	-0.025659
H167	H	-0.782279	0.706230	-0.456798
H168	H	-0.282279	1.206230	0.043202
H169	H	-0.464988	0.403983	-0.488233
H170	H	0.035012	0.903983	0.011767
N171	N	-0.675680	0.218420	-0.642646
N172	N	-0.175680	0.718420	-0.142646
H173	H	-0.645059	0.193063	-0.685063
H174	H	-0.145059	0.693063	-0.185063
H175	H	-0.702844	0.189396	-0.600194
H176	H	-0.202844	0.689396	-0.100194
N177	N	-0.822023	0.531424	-0.642256
N178	N	-0.322023	1.031424	-0.142256
H179	H	-0.792992	0.504334	-0.599728
H180	H	-0.292992	1.004334	-0.099728
H181	H	-0.847502	0.504254	-0.690700
H182	H	-0.347502	1.004254	-0.190700
H183	H	-0.832826	1.062418	-0.624802
H184	H	-0.332826	1.562418	-0.124802
N185	N	-0.822077	0.667427	-0.642304
N186	N	-0.322077	1.167427	-0.142304
H187	H	-0.828175	0.713841	-0.632187
H188	H	-0.328175	1.213841	-0.132187
H189	H	-0.777331	0.656049	-0.625967
H190	H	-0.277331	1.156049	-0.125967
N191	N	-0.136031	0.218317	-0.642667
N192	N	0.363969	0.718317	-0.142667
H193	H	-0.166723	0.192969	-0.685080
H194	H	0.333277	0.692969	-0.185080
H195	H	-0.108864	0.243846	-0.690953
H196	H	0.391136	0.743846	-0.190953
N197	N	-0.988692	0.531363	-0.364680
N198	N	-0.488692	1.031363	0.135320
H199	H	-0.978995	0.542798	-0.290001
H200	H	-0.478995	1.042798	0.209999
H201	H	-1.033438	0.542710	-0.381083
H202	H	-0.533438	1.042710	0.118917
H203	H	-0.548306	0.228970	-0.624953
H204	H	-0.048306	0.728970	-0.124953
H205	H	-0.144458	0.374129	-0.382049
H206	H	0.355542	0.874129	0.117951
H207	H	-0.976238	0.230709	-1.108632
H208	H	-0.476238	0.730709	-0.608632
H209	H	-0.263168	0.374148	-0.382035
H210	H	0.236832	0.874148	0.117965
H211	H	-0.978249	0.943655	-0.382466
H212	H	-0.478249	1.443655	0.117534
H213	H	-0.978301	1.062362	-0.382525
H214	H	-0.478301	1.562362	0.117475
N215	N	-0.988738	0.667376	-0.364726
N216	N	-0.488738	1.167376	0.135274
H217	H	-1.014124	0.636714	-0.322411
H218	H	-0.514124	1.136714	0.177589
H219	H	-0.963255	0.694578	-0.316341
H220	H	-0.463255	1.194578	0.183659
H221	H	-0.548094	0.374189	-0.382009
H222	H	-0.048094	0.874189	0.117991
H223	H	-1.007860	0.741744	-0.488736
H224	H	-0.507860	1.241744	0.011264
N225	N	-0.675446	0.384782	-0.364285
N226	N	-0.175446	0.884782	0.135715
H227	H	-0.644756	0.410130	-0.321871
H228	H	-0.144756	0.910130	0.178129
H229	H	-0.702578	0.413813	-0.406731
H230	H	-0.202578	0.913813	0.093269
N231	N	-0.986799	0.220172	-0.885068
N232	N	-0.486799	0.720172	-0.385068
H233	H	-0.980664	0.226314	-0.807665
H234	H	-0.480664	0.726314	-0.307665
H235	H	-1.031551	0.229909	-0.904104
H236	H	-0.531551	0.729909	-0.404104
N237	N	-1.022833	0.869081	-0.486630
N238	N	-0.522833	1.369081	0.013370
H239	H	-1.014286	0.915508	-0.487890
H240	H	-0.514286	1.415508	0.012110
H241	H	-1.050820	0.857577	-0.547101
H242	H	-0.550820	1.357577	-0.047101
