data_functionalizedCrystal
_audit_creation_method	'MofGen! by Chris Wilmer'
_symmetry_space_group_name_H-M	'P1'
_symmetry_Int_Tables_number	1
_symmetry_cell_setting	triclinic
loop_
_symmetry_equiv_pos_as_xyz
  x,y,z
_cell_length_a	17.699077
_cell_length_b	13.330367
_cell_length_c	17.699092
_cell_angle_alpha	90.006643
_cell_angle_beta	96.716528
_cell_angle_gamma	90.006328
loop_
_atom_site_label
_atom_site_type_symbol
_atom_site_fract_x
_atom_site_fract_y
_atom_site_fract_z
O1	O	1.004085	0.083406	-0.095678
O2	O	0.783707	0.083411	-0.108135
O3	O	0.900119	0.083406	0.008282
O4	O	0.887673	0.083411	-0.212096
O5	O	0.900101	-0.083441	0.008263
O6	O	0.783689	-0.083436	-0.108154
O7	O	1.004068	-0.083441	-0.095697
Cu8	Cu	0.893877	-0.098673	-0.101927
Cu9	Cu	0.893898	0.098643	-0.101905
O10	O	0.887655	-0.083436	-0.212114
C11	C	0.755501	-0.000012	-0.107699
C12	C	0.671482	-0.000010	-0.106362
C13	C	0.632005	-0.090960	-0.105743
C14	C	0.553063	-0.090961	-0.104474
C15	C	0.513598	-0.000011	-0.103831
C16	C	0.553081	0.090945	-0.104449
C17	C	0.632023	0.090945	-0.105712
C18	C	0.234717	0.090947	-0.099356
C19	C	0.155770	0.090940	-0.098095
C20	C	0.155757	-0.090959	-0.098118
C21	C	0.234699	-0.090959	-0.099381
C22	C	0.274176	-0.000003	-0.099994
C23	C	0.359774	-0.000003	-0.101368
C24	C	0.428000	-0.000010	-0.102463
N25	N	0.893867	-0.237454	-0.101942
C26	C	0.939726	-0.710067	-0.147737
C27	C	0.848092	-0.710056	-0.056043
C28	C	0.848081	-0.605038	-0.056054
C29	C	0.893894	-0.552529	-0.101907
C30	C	0.939718	-0.605039	-0.147749
C31	C	0.802264	-0.552520	-0.010208
C32	C	0.802252	-0.447495	-0.010217
C33	C	0.848061	-0.394985	-0.056075
C34	C	0.893886	-0.447501	-0.101919
C35	C	0.939699	-0.394992	-0.147772
C36	C	0.985520	-0.447506	-0.193620
C37	C	0.985527	-0.552528	-0.193606
C38	C	0.848055	-0.289963	-0.056089
C39	C	0.939691	-0.289964	-0.147783
C40	C	1.032274	-0.000016	-0.096133
C41	C	1.116292	-0.000011	-0.097470
C42	C	0.899663	-0.000016	0.036470
C43	C	0.898322	-0.000011	0.120487
N44	N	0.893913	0.237425	-0.101884
C45	C	0.888111	-0.000012	-0.240302
C46	C	0.889452	-0.000010	-0.324320
C47	C	0.897703	0.090938	0.159965
C48	C	0.896439	0.090940	0.238908
C49	C	0.895798	-0.000010	0.278373
C50	C	0.896414	-0.090966	0.238889
C51	C	0.897673	-0.090966	0.159947
C52	C	0.891334	-0.090968	0.557254
C53	C	0.890076	-0.090960	0.636202
C54	C	0.890099	0.090938	0.636215
C55	C	0.891358	0.090938	0.557273
C56	C	0.891970	-0.000018	0.517796
C57	C	0.893341	-0.000018	0.432197
C58	C	0.894433	-0.000011	0.363971
H59	H	0.976994	-0.247219	-0.185127
C60	C	0.898411	0.190982	0.116558
H61	H	0.899257	0.177959	0.063889
H62	H	0.854091	0.228355	0.123645
H63	H	0.942334	0.228347	0.135354
C64	C	0.112357	0.190986	-0.097383
H65	H	0.059687	0.177955	-0.096552
H66	H	0.131148	0.228353	-0.053465
H67	H	0.119442	0.228361	-0.141708
H68	H	0.520943	0.164998	-0.103920
H69	H	0.664131	-0.165022	-0.106272
H70	H	0.810799	-0.752815	-0.018706
H71	H	0.889552	-0.165027	0.668332
H72	H	0.520926	-0.165021	-0.103957
C73	C	0.892007	-0.191012	0.513836
H74	H	0.892838	-0.177993	0.461166
H75	H	0.935913	-0.228389	0.532620
H76	H	0.847669	-0.228372	0.520922
C77	C	0.112336	-0.191013	-0.097436
H78	H	0.147146	-0.245177	-0.098009
H79	H	0.087395	-0.194803	-0.052825
H80	H	0.075685	-0.194790	-0.141069
C81	C	0.895712	-0.191009	0.282298
H82	H	0.894881	-0.177984	0.334969
H83	H	0.851796	-0.228382	0.263507
H84	H	0.940040	-0.228375	0.275208
C85	C	0.751852	-0.610274	0.040204
H86	H	0.724561	-0.563960	0.067506
H87	H	0.716972	-0.651246	0.009128
H88	H	0.782921	-0.651240	0.075088
C89	C	0.895745	0.190984	0.282328
H90	H	0.896312	0.245149	0.247519
H91	H	0.851129	0.194758	0.307263
H92	H	0.939373	0.194774	0.318983
C93	C	0.278107	-0.191003	-0.100084
H94	H	0.243290	-0.245171	-0.099525
H95	H	0.303050	-0.194787	-0.144694
H96	H	0.314754	-0.194778	-0.056450
C97	C	0.751845	-0.389739	0.040205
H98	H	0.724558	-0.436054	0.067510
H99	H	0.782915	-0.348743	0.075073
H100	H	0.716948	-0.348797	0.009131
C101	C	0.898356	-0.191011	0.116522
H102	H	0.897800	-0.245178	0.151331
H103	H	0.854727	-0.194790	0.079873
H104	H	0.942971	-0.194793	0.091580
C105	C	0.889414	0.190990	0.679640
H106	H	0.888564	0.177969	0.732307
H107	H	0.933744	0.228358	0.672560
H108	H	0.845501	0.228359	0.660849
H109	H	0.266850	0.165009	-0.099853
H110	H	0.664164	0.165006	-0.106218
C111	C	1.035911	-0.389740	-0.244055
H112	H	1.029339	-0.319673	-0.237494
H113	H	1.087722	-0.406933	-0.229931
H114	H	1.021746	-0.406963	-0.295862
H115	H	0.891884	0.164999	0.525145
H116	H	0.810750	-0.247211	-0.018758
H117	H	0.977030	-0.752828	-0.185068
C118	C	1.035933	-0.610295	-0.244025
H119	H	1.029383	-0.680361	-0.237441
H120	H	1.021779	-0.593112	-0.295833
H121	H	1.087743	-0.593061	-0.229889
