data_functionalizedCrystal
_audit_creation_method	'MofGen! by Chris Wilmer'
_symmetry_space_group_name_H-M	'P1'
_symmetry_Int_Tables_number	1
_symmetry_cell_setting	triclinic
loop_
_symmetry_equiv_pos_as_xyz
  x,y,z
_cell_length_a	15.297327
_cell_length_b	15.298563
_cell_length_c	12.759393
_cell_angle_alpha	80.356446
_cell_angle_beta	99.641677
_cell_angle_gamma	72.594738
loop_
_atom_site_label
_atom_site_type_symbol
_atom_site_fract_x
_atom_site_fract_y
_atom_site_fract_z
Zn1	Zn	-0.123877	-1.357700	-0.345868
Zn2	Zn	-0.279450	-1.330657	-0.206956
Zn3	Zn	-0.150871	-1.202166	-0.206925
Zn4	Zn	-0.306309	-1.175227	-0.419266
O5	O	-0.215127	-1.266438	-0.294754
O6	O	-0.121976	-1.484252	-0.296737
O7	O	-0.262450	-1.313569	-0.059951
O8	O	-0.017131	-1.245389	-0.194625
O9	O	-0.236275	-1.464384	-0.194679
O10	O	0.002701	-1.359659	-0.296707
O11	O	-0.167984	-1.219167	-0.059928
O12	O	-0.194028	-1.068453	-0.265796
O13	O	-0.282052	-1.199476	-0.556531
O14	O	-0.308227	-1.048661	-0.421803
O15	O	-0.148020	-1.333538	-0.502606
O16	O	-0.413171	-1.287448	-0.265850
O17	O	-0.432905	-1.173254	-0.421834
C18	C	-0.256972	-1.024813	-0.351762
C19	C	-0.274896	-0.921441	-0.376180
C20	C	-0.087231	-0.671233	-0.120476
C21	C	-0.070385	-0.768357	-0.097534
C22	C	-0.121511	-0.806633	-0.167193
C23	C	-0.189486	-0.747775	-0.259799
C24	C	-0.206329	-0.650643	-0.282748
C25	C	-0.240609	-0.786042	-0.329465
C26	C	-0.308584	-0.727185	-0.422072
C27	C	-0.325424	-0.630062	-0.445016
C28	C	-0.274297	-0.591786	-0.375357
C29	C	-0.223767	-0.883175	-0.306516
C30	C	-0.342865	-0.862585	-0.468788
C31	C	-0.359711	-0.765461	-0.491731
C32	C	-0.456782	-1.224518	-0.351827
C33	C	-0.560149	-1.206670	-0.376258
C34	C	-0.810265	-1.394384	-0.120409
C35	C	-0.713147	-1.411153	-0.097450
C36	C	-0.674893	-1.360034	-0.167150
C37	C	-0.733766	-1.292143	-0.259813
C38	C	-0.830895	-1.275367	-0.282770
C39	C	-0.695522	-1.241017	-0.329511
C40	C	-0.754396	-1.173126	-0.422174
C41	C	-0.851514	-1.156354	-0.445128
C42	C	-0.889769	-1.207473	-0.375428
C43	C	-0.598394	-1.257793	-0.306554
C44	C	-0.619023	-1.138776	-0.468915
C45	C	-0.716141	-1.122007	-0.491875
C46	C	0.027477	-1.308546	-0.237475
C47	C	0.130861	-1.326490	-0.213066
C48	C	-0.215021	-1.266519	-0.568750
C49	C	-0.214976	-1.266553	-0.685511
C50	C	-0.173114	-0.509006	-0.237511
C51	C	-0.155199	-0.612376	-0.213084
C52	C	-0.165773	-1.217422	-0.740352
C53	C	-0.165741	-1.217448	-0.850065
C54	C	-0.264116	-1.315746	-0.850082
C55	C	-0.264153	-1.315713	-0.740374
C56	C	-0.215155	-1.266422	-0.021795
C57	C	-0.214907	-1.266613	0.095069
H58	H	-0.107791	-0.885716	-0.148508
C59	C	-0.111613	-1.163405	-0.910388
C60	C	-0.164532	-1.083411	-1.012544
C61	C	-0.110402	-1.029364	-1.072867
C62	C	-0.003354	-1.055310	-1.031034
C63	C	0.049571	-1.135308	-0.928873
C64	C	-0.004559	-1.189355	-0.868550
H65	H	-0.243780	-1.064201	-1.043516
H66	H	-0.149581	-0.970144	-1.148494
H67	H	0.036716	-1.015301	-1.075689
H68	H	0.128819	-1.154518	-0.897901
H69	H	0.034620	-1.248575	-0.792923
C70	C	-0.111690	-1.163338	-0.680005
C71	C	-0.111725	-1.163298	-0.559330
C72	C	-0.057644	-1.109209	-0.498987
C73	C	-0.003527	-1.055160	-0.559320
C74	C	-0.003490	-1.055197	-0.680002
C75	C	-0.057571	-1.109286	-0.740344
H76	H	-0.151787	-1.203311	-0.514662
H77	H	-0.057671	-1.109182	-0.409650
H78	H	0.036508	-1.015120	-0.514651
H79	H	0.036573	-1.015184	-0.724670
H80	H	-0.057543	-1.109313	-0.829681
H81	H	-0.550467	-1.313070	-0.231106
C82	C	-0.318201	-1.369822	-0.910442
C83	C	-0.398170	-1.316865	-1.012613
C84	C	-0.452255	-1.370942	-1.072974
C85	C	-0.426370	-1.477977	-1.031163
C86	C	-0.346396	-1.530940	-0.928986
C87	C	-0.292312	-1.476863	-0.868626
H88	H	-0.417336	-1.237626	-1.043569
H89	H	-0.511456	-1.331734	-1.148612
H90	H	-0.466406	-1.518008	-1.075846
H91	H	-0.327231	-1.610179	-0.898030
H92	H	-0.233110	-1.516071	-0.792987
H93	H	-0.288014	-0.512700	-0.394028
C94	C	-0.318279	-1.369763	-0.680039
C95	C	-0.372363	-1.423847	-0.740378
C96	C	-0.426490	-1.477890	-0.680044
C97	C	-0.426533	-1.477849	-0.559371
C98	C	-0.372448	-1.423763	-0.499026
C99	C	-0.318321	-1.369720	-0.559360
H100	H	-0.372332	-1.423879	-0.829714
H101	H	-0.466527	-1.517928	-0.724717
H102	H	-0.466601	-1.517855	-0.514709
H103	H	-0.372479	-1.423731	-0.409690
H104	H	-0.278284	-1.329682	-0.514687
C105	C	-0.648389	-1.485833	0.004468
C106	C	-0.690460	-1.542068	0.081135
C107	C	-0.625700	-1.616755	0.183057
C108	C	-0.518868	-1.635207	0.208314
C109	C	-0.476791	-1.578971	0.131645
C110	C	-0.541552	-1.504284	0.029723
H111	H	-0.769548	-1.528410	0.062440
H112	H	-0.656848	-1.658384	0.239812
H113	H	-0.470928	-1.690495	0.283763
H114	H	-0.397703	-1.592629	0.150340
H115	H	-0.510403	-1.462654	-0.027032
H116	H	-0.380767	-0.582143	-0.520428
H117	H	-0.015042	-0.816272	-0.022131
C118	C	-0.030996	-0.629129	-0.043861
C119	C	-0.049521	-0.522293	-0.069108
C120	C	0.006720	-0.480190	0.007513
C121	C	0.081486	-0.544923	0.109380
C122	C	0.100015	-0.651765	0.134631
C123	C	0.043774	-0.693868	0.058010
H124	H	-0.104871	-0.474368	-0.144520
H125	H	-0.006997	-0.401098	-0.011180
H126	H	0.123119	-0.513755	0.166099
H127	H	0.155365	-0.699690	0.210043
H128	H	0.057491	-0.772961	0.076704
H129	H	-0.968849	-1.193826	-0.394118
H130	H	-0.595814	-1.373690	-0.148450
C131	C	-0.780909	-1.047326	-0.593798
C132	C	-0.860418	-0.962788	-0.581232
C133	C	-0.925187	-0.888108	-0.683155
C134	C	-0.910447	-0.897965	-0.797645
C135	C	-0.830934	-0.982505	-0.810217
C136	C	-0.766166	-1.057186	-0.708293
H137	H	-0.871333	-0.955489	-0.496475
H138	H	-0.984047	-0.825526	-0.673848
H139	H	-0.958392	-0.842682	-0.873095
H140	H	-0.820020	-0.989805	-0.894973
H141	H	-0.707305	-1.119768	-0.717600
C142	C	-0.399113	-0.904675	-0.545421
C143	C	-0.460514	-0.958773	-0.501220
C144	C	-0.516755	-1.000871	-0.577848
C145	C	-0.511594	-0.988871	-0.698676
C146	C	-0.450191	-0.934771	-0.742884
C147	C	-0.393950	-0.892673	-0.666256
H148	H	-0.464336	-0.967659	-0.411770
H149	H	-0.562210	-1.040920	-0.545122
H150	H	-0.553227	-1.020035	-0.755401
H151	H	-0.446369	-0.925886	-0.832334
H152	H	-0.348495	-0.852624	-0.698981
H153	H	-0.415056	-0.717525	-0.567132
H154	H	-0.168418	-0.931088	-0.231118
H155	H	-0.899449	-1.101062	-0.520571
H156	H	-0.841423	-1.435992	-0.063664
H157	H	-0.587878	-1.097149	-0.525670
