data_functionalizedCrystal
_audit_creation_method	'MofGen! by Chris Wilmer'
_symmetry_space_group_name_H-M	'P1'
_symmetry_Int_Tables_number	1
_symmetry_cell_setting	triclinic
loop_
_symmetry_equiv_pos_as_xyz
  x,y,z
_cell_length_a	14.519731
_cell_length_b	23.532357
_cell_length_c	12.996460
_cell_angle_alpha	89.988323
_cell_angle_beta	89.994327
_cell_angle_gamma	83.258572
loop_
_atom_site_label
_atom_site_type_symbol
_atom_site_fract_x
_atom_site_fract_y
_atom_site_fract_z
O1	O	1.222951	0.074713	-0.085582
O2	O	0.954370	0.083492	-0.085585
O3	O	1.096784	-0.003794	-0.085562
O4	O	1.080538	0.162000	-0.085605
O5	O	1.096769	-0.003799	0.085571
O6	O	0.954356	0.083488	0.085549
O7	O	1.222936	0.074709	0.085552
Cu8	Cu	1.088645	0.079098	0.101176
Cu9	Cu	1.088662	0.079103	-0.101209
O10	O	1.080523	0.161995	0.085529
C11	C	0.920009	0.083079	-0.000018
C12	C	0.817643	0.081846	-0.000019
C13	C	0.734511	0.080844	-0.000022
C14	C	0.630218	0.079593	-0.000023
C15	C	0.547091	0.078600	-0.000022
C16	C	0.442790	0.077348	-0.000024
C17	C	1.096370	-0.025015	0.000008
C18	C	1.095148	-0.088239	0.000017
C19	C	1.087486	-0.480282	-0.093323
C20	C	1.086325	-0.539687	-0.093329
O21	O	1.085700	-0.570404	-0.172664
N22	N	1.085741	-0.569404	-0.000045
C23	C	1.086309	-0.539711	0.093250
O24	O	1.085705	-0.570442	0.172595
C25	C	1.087464	-0.480307	0.093255
C26	C	1.088057	-0.450595	-0.000035
C27	C	1.088078	-0.450570	-0.186606
C28	C	1.089242	-0.391169	-0.186599
C29	C	1.089812	-0.361481	-0.093311
C30	C	1.089220	-0.391194	-0.000028
C31	C	1.088025	-0.450616	0.186550
C32	C	1.089179	-0.391207	0.186547
C33	C	1.089773	-0.361495	0.093257
C34	C	1.090954	-0.302106	0.093266
N35	N	1.091538	-0.272389	-0.000017
C36	C	1.090967	-0.302077	-0.093306
C37	C	1.083882	-0.664464	0.093233
C38	C	1.082734	-0.723868	0.093229
C39	C	1.082748	-0.723839	-0.093350
C40	C	1.083903	-0.664435	-0.093346
C41	C	1.084466	-0.634748	-0.000051
C42	C	1.093410	-0.177332	-0.093286
C43	C	1.094577	-0.117926	-0.093271
C44	C	1.094558	-0.117960	0.093308
C45	C	1.093396	-0.177361	0.093294
C46	C	1.092819	-0.207045	-0.000011
O47	O	1.091576	-0.271351	0.172561
O48	O	1.091559	-0.271338	-0.172637
C49	C	1.257298	0.075122	-0.000017
C50	C	1.359663	0.076355	-0.000024
C51	C	1.080937	0.183216	-0.000043
C52	C	1.082158	0.246440	-0.000060
N53	N	1.088639	0.079093	0.243523
N54	N	1.088675	0.079103	-0.243557
C55	C	1.088661	0.079104	0.663337
C56	C	1.088652	0.079103	0.546532
C57	C	1.088650	0.079099	0.453434
C58	C	1.088641	0.079097	0.336621
H59	H	1.092936	-0.201494	-0.169264
C60	C	1.089877	-0.358491	-0.289219
H61	H	1.089359	-0.384686	-0.344771
H62	H	1.144110	-0.339603	-0.293111
H63	H	1.036532	-0.331032	-0.293094
C64	C	1.082110	-0.756502	-0.195967
H65	H	1.081326	-0.796135	-0.182602
H66	H	1.136085	-0.751055	-0.234305
H67	H	1.028507	-0.742474	-0.234293
C68	C	1.082090	-0.756546	0.195848
H69	H	1.082590	-0.730351	0.251403
H70	H	1.135420	-0.784011	0.199733
H71	H	1.027842	-0.775427	0.199725
C72	C	1.087460	-0.483218	-0.289232
H73	H	1.087986	-0.457007	-0.344777
H74	H	1.033229	-0.502107	-0.293133
H75	H	1.140807	-0.510675	-0.293110
H76	H	1.095027	-0.093778	0.169261
H77	H	1.084385	-0.640247	-0.169311
H78	H	1.089624	-0.367038	0.262520
H79	H	1.084344	-0.640297	0.169210
H80	H	1.087544	-0.474798	0.262517
H81	H	1.092922	-0.201554	0.169258
H82	H	1.095063	-0.093737	-0.169242
