data_functionalizedCrystal
_audit_creation_method	'MofGen! by Chris Wilmer'
_symmetry_space_group_name_H-M	'P1'
_symmetry_Int_Tables_number	1
_symmetry_cell_setting	triclinic
loop_
_symmetry_equiv_pos_as_xyz
  x,y,z
_cell_length_a	17.038272
_cell_length_b	10.654550
_cell_length_c	9.130313
_cell_angle_alpha	89.995631
_cell_angle_beta	90.002161
_cell_angle_gamma	87.798243
loop_
_atom_site_label
_atom_site_type_symbol
_atom_site_fract_x
_atom_site_fract_y
_atom_site_fract_z
O1	O	1.038890	0.272864	-0.121616
O2	O	0.811235	0.268532	-0.121659
O3	O	0.930297	0.088445	-0.121627
O4	O	0.919828	0.452951	-0.121647
O5	O	0.930288	0.088438	0.121972
O6	O	0.811227	0.268525	0.121940
O7	O	1.038882	0.272858	0.121983
Cu8	Cu	0.925053	0.270691	0.144204
Cu9	Cu	0.925063	0.270699	-0.143880
O10	O	0.919820	0.452945	0.121951
C11	C	0.929524	0.041572	0.000171
C12	C	0.927224	-0.098084	0.000169
C13	C	0.782081	0.264588	0.000135
C14	C	0.695222	0.252831	0.000119
C15	C	0.997326	-0.171061	0.000182
C16	C	0.995160	-0.302283	0.000163
C17	C	0.852785	-0.287540	0.000126
C18	C	0.854952	-0.156320	0.000133
C19	C	0.645711	0.360775	0.000114
C20	C	0.564098	0.349720	0.000135
C21	C	0.531999	0.230720	0.000150
C22	C	0.581517	0.122768	0.000159
C23	C	0.663127	0.133824	0.000149
C24	C	0.286023	0.191663	0.000192
C25	C	0.204406	0.180615	0.000197
C26	C	0.186993	0.407568	0.000176
C27	C	0.268606	0.418614	0.000157
C28	C	0.318117	0.310661	0.000174
C29	C	0.448578	0.219418	0.000167
C30	C	0.401536	0.321965	0.000167
C31	C	1.068036	0.276802	0.000186
C32	C	1.154895	0.288559	0.000193
C33	C	0.920593	0.499817	0.000150
C34	C	0.922892	0.639474	0.000143
N35	N	0.925052	0.270686	0.346827
N36	N	0.925070	0.270695	-0.346502
C37	C	0.977791	0.190981	0.423493
C38	C	0.977798	0.190982	0.576829
C39	C	0.872326	0.350403	0.576821
C40	C	0.872316	0.350395	0.423487
H41	H	1.056175	-0.123650	0.000207
H42	H	1.052244	-0.361695	0.000170
C43	C	0.773292	-0.351604	0.000107
H44	H	0.782041	-0.440205	0.000121
H45	H	0.744399	-0.327065	-0.084844
H46	H	0.744399	-0.327075	0.085063
H47	H	0.797863	-0.096900	0.000119
H48	H	0.671839	0.457677	0.000101
C49	C	1.035809	0.103309	0.661163
H50	H	1.028259	0.114716	0.763463
H51	H	1.088089	0.122582	0.636026
H52	H	1.026856	0.018525	0.636042
H53	H	0.829390	0.415303	0.639253
H54	H	0.523789	0.437620	0.000129
H55	H	0.294735	0.515516	0.000127
C56	C	0.546209	-0.008129	0.000174
H57	H	0.490514	0.000745	0.000163
H58	H	0.563165	-0.052946	0.085122
H59	H	0.563160	-0.052935	-0.084785
C60	C	0.132531	0.526304	0.000176
H61	H	0.079329	0.502682	0.000197
H62	H	0.142323	0.574747	-0.084773
H63	H	0.142335	0.574731	0.085134
H64	H	0.178274	0.083706	0.000208
H65	H	0.422434	0.122528	0.000221
C66	C	0.436839	0.452859	0.000146
H67	H	0.395666	0.515572	0.000150
H68	H	0.468311	0.461878	-0.084805
H69	H	0.468317	0.461888	0.085102
C70	C	0.340474	0.072919	0.000200
H71	H	0.309666	0.000468	0.000195
H72	H	0.372676	0.072509	0.085146
H73	H	0.372668	0.072512	-0.084761
C74	C	0.717590	0.015086	0.000140
H75	H	0.686785	-0.057371	0.000134
H76	H	0.749795	0.014676	0.085082
H77	H	0.749781	0.014687	-0.084826
H78	H	0.829366	0.415300	0.361061
C79	C	1.035791	0.103293	0.339171
H80	H	1.067196	0.055816	0.406797
H81	H	1.068595	0.151996	0.279339
H82	H	1.007359	0.047944	0.279374
