data_functionalizedCrystal
_audit_creation_method	'MofGen! by Chris Wilmer'
_symmetry_space_group_name_H-M	'P1'
_symmetry_Int_Tables_number	1
_symmetry_cell_setting	triclinic
loop_
_symmetry_equiv_pos_as_xyz
  x,y,z
_cell_length_a	14.971486
_cell_length_b	10.654551
_cell_length_c	14.048226
_cell_angle_alpha	89.996418
_cell_angle_beta	89.998499
_cell_angle_gamma	84.049745
loop_
_atom_site_label
_atom_site_type_symbol
_atom_site_fract_x
_atom_site_fract_y
_atom_site_fract_z
O1	O	1.187838	0.163659	-0.079045
O2	O	1.687838	0.663659	0.420955
O3	O	0.927545	0.183257	-0.079070
O4	O	1.427545	0.683257	0.420930
O5	O	1.063675	-0.009345	-0.079057
O6	O	1.563675	0.490655	0.420943
O7	O	1.051707	0.356261	-0.079058
O8	O	1.551707	0.856261	0.420942
O9	O	1.063659	-0.009357	0.079264
O10	O	1.563659	0.490643	0.579264
O11	O	0.927528	0.183246	0.079251
O12	O	1.427528	0.683246	0.579251
O13	O	1.187821	0.163648	0.079276
O14	O	1.687821	0.663648	0.579276
Zn15	Zn	1.057672	0.173445	0.104401
Zn16	Zn	1.557672	0.673445	0.604401
Zn17	Zn	1.057694	0.173460	-0.104195
Zn18	Zn	1.557694	0.673460	0.395805
O19	O	1.051691	0.356250	0.079264
O20	O	1.551691	0.856250	0.579264
C21	C	0.894207	0.182375	0.000087
C22	C	1.394207	0.682375	0.500087
C23	C	0.794895	0.179749	0.000077
C24	C	1.294895	0.679749	0.500077
C25	C	1.062788	-0.056139	0.000101
C26	C	1.562788	0.443861	0.500101
C27	C	1.060158	-0.195554	0.000094
C28	C	1.560158	0.304446	0.500094
C29	C	0.738286	0.292897	0.000079
C30	C	1.238286	0.792897	0.500079
C31	C	0.644973	0.290422	0.000093
C32	C	1.144973	0.790422	0.500093
C33	C	0.608271	0.174796	0.000099
C34	C	1.108271	0.674796	0.500099
C35	C	0.664888	0.061639	0.000100
C36	C	1.164888	0.561639	0.500100
C37	C	0.758199	0.064116	0.000093
C38	C	1.258199	0.564116	0.500093
C39	C	0.470397	0.056485	0.000114
C40	C	0.970397	0.556485	0.500114
C41	C	0.377080	0.054007	0.000119
C42	C	0.877080	0.554007	0.500119
C43	C	0.357172	0.282791	0.000113
C44	C	0.857172	0.782791	0.500113
C45	C	0.450483	0.285268	0.000106
C46	C	0.950483	0.785268	0.500106
C47	C	0.507093	0.172110	0.000106
C48	C	1.007093	0.672110	0.500106
C49	C	1.058934	-0.261047	-0.086205
C50	C	1.558934	0.238953	0.413795
C51	C	1.056455	-0.392041	-0.086201
C52	C	1.556455	0.107959	0.413799
C53	C	1.056430	-0.392039	0.086410
C54	C	1.556430	0.107961	0.586410
C55	C	1.058902	-0.261046	0.086404
C56	C	1.558902	0.238954	0.586404
C57	C	1.058952	-0.261050	-0.185861
C58	C	1.558952	0.238950	0.314139
C59	C	1.056474	-0.392044	-0.185857
C60	C	1.556474	0.107956	0.314143
C61	C	1.221159	0.164530	0.000117
C62	C	1.721159	0.664530	0.500117
C63	C	1.320471	0.167156	0.000120
C64	C	1.820471	0.667156	0.500120
C65	C	1.052578	0.403044	0.000103
C66	C	1.552578	0.903044	0.500103
C67	C	1.055208	0.542459	0.000104
C68	C	1.555208	1.042459	0.500104
N69	N	1.057664	0.173434	0.246761
N70	N	1.557664	0.673434	0.746761
N71	N	1.057709	0.173461	-0.246555
N72	N	1.557709	0.673461	0.253445
C73	C	1.117962	0.088185	0.296585
C74	C	1.617962	0.588185	0.796585
C75	C	1.117968	0.088184	0.396243
C76	C	1.617968	0.588184	0.896243
C77	C	1.057679	0.173439	0.446075
C78	C	1.557679	0.673439	0.946075
C79	C	0.997375	0.258693	0.396244
C80	C	1.497375	0.758693	0.896244
C81	C	0.997365	0.258686	0.296588
C82	C	1.497365	0.758686	0.796588
C83	C	0.997401	0.258702	0.603958
C84	C	1.497401	0.758702	1.103958
C85	C	0.997411	0.258710	0.703621
C86	C	1.497411	0.758710	1.203621
C87	C	1.118003	0.088199	0.703613
C88	C	1.618003	0.588199	1.203613
C89	C	1.117994	0.088193	0.603957
C90	C	1.617994	0.588193	1.103957
C91	C	1.057690	0.173448	0.554133
C92	C	1.557690	0.673448	1.054133
H93	H	0.768161	0.387053	0.000073
H94	H	1.268161	0.887053	0.500073
H95	H	1.167059	0.018765	0.256018
H96	H	1.667059	0.518765	0.756018
Cl97	Cl	0.955763	-0.436621	-0.233615
Cl98	Cl	1.455763	0.063379	0.266385
Cl99	Cl	0.963530	-0.188558	-0.244950
Cl100	Cl	1.463530	0.311442	0.255050
Cl101	Cl	1.193771	-0.018989	0.458880
Cl102	Cl	1.693771	0.481011	0.958880
Cl103	Cl	0.573810	0.432673	0.000089
Cl104	Cl	1.073810	0.932673	0.500089
H105	H	0.480362	0.379420	0.000092
H106	H	0.980362	0.879420	0.500092
Cl107	Cl	1.060412	-0.178711	0.194900
Cl108	Cl	1.560412	0.321289	0.694900
H109	H	0.804290	-0.028022	0.000091
H110	H	1.304290	0.471978	0.500091
Cl111	Cl	0.286005	0.425047	0.000116
Cl112	Cl	0.786005	0.925047	0.500116
Cl113	Cl	1.193790	-0.018978	0.541309
Cl114	Cl	1.693790	0.481022	1.041309
H115	H	1.055405	-0.445377	0.156680
H116	H	1.555405	0.054623	0.656680
Cl117	Cl	0.330942	-0.091352	0.000159
Cl118	Cl	0.830942	0.408648	0.500159
Cl119	Cl	0.541563	-0.085774	0.000115
Cl120	Cl	1.041563	0.414226	0.500115
Cl121	Cl	1.159673	-0.216468	-0.233594
Cl122	Cl	1.659673	0.283532	0.266406
Cl123	Cl	1.193813	-0.018974	0.766251
Cl124	Cl	1.693813	0.481026	1.266251
H125	H	0.948317	0.328133	0.744189
H126	H	1.448317	0.828133	1.244189
H127	H	1.118290	-0.438995	-0.224114
H128	H	1.618290	0.061005	0.275886
Cl129	Cl	0.921586	0.365880	0.541327
Cl130	Cl	1.421586	0.865880	1.041327
Cl131	Cl	0.921555	0.365858	0.233954
Cl132	Cl	1.421555	0.865858	0.733954
Cl133	Cl	0.618748	-0.083720	0.000114
Cl134	Cl	1.118748	0.416280	0.500114
Cl135	Cl	0.921578	0.365867	0.458888
Cl136	Cl	1.421578	0.865867	0.958888
