data_functionalizedCrystal
_audit_creation_method	'MofGen! by Chris Wilmer'
_symmetry_space_group_name_H-M	'P1'
_symmetry_Int_Tables_number	1
_symmetry_cell_setting	triclinic
loop_
_symmetry_equiv_pos_as_xyz
  x,y,z
_cell_length_a	35.277389
_cell_length_b	35.283087
_cell_length_c	35.281497
_cell_angle_alpha	89.983528
_cell_angle_beta	60.016397
_cell_angle_gamma	119.985236
loop_
_atom_site_label
_atom_site_type_symbol
_atom_site_fract_x
_atom_site_fract_y
_atom_site_fract_z
O1	O	0.334408	-0.259995	-0.011276
O2	O	0.256784	-0.204881	0.011217
O3	O	0.334371	-0.204885	-0.066382
O4	O	0.256820	-0.259990	0.066323
O5	O	0.271339	-0.267911	-0.066380
O6	O	0.193752	-0.267906	0.011219
O7	O	0.271376	-0.323020	-0.011275
Cu8	Cu	0.226809	-0.301218	-0.000028
Cu9	Cu	0.301351	-0.226683	-0.000030
O10	O	0.193789	-0.323016	0.066324
C11	C	0.062171	-0.095984	0.034098
C12	C	0.084755	-0.050377	0.034417
C13	C	-0.006472	-0.095987	0.034096
C14	C	0.016215	-0.050380	0.034416
C15	C	0.062149	-0.027363	0.034095
C16	C	0.016237	-0.118897	0.034418
C17	C	0.116547	-0.207136	0.021679
C18	C	0.141673	-0.228886	0.018167
C19	C	0.188637	-0.205436	0.016404
C20	C	0.215887	-0.229014	0.012588
C21	C	0.210471	-0.160236	0.018157
C22	C	0.185341	-0.138492	0.021674
C23	C	0.138378	-0.161944	0.023435
C24	C	0.185709	0.138121	0.021669
C25	C	0.210965	0.184984	0.018155
C26	C	0.189269	0.208493	0.016389
C27	C	0.216651	0.259305	0.012572
C28	C	0.142309	0.185133	0.018142
C29	C	0.117049	0.138270	0.021663
C30	C	0.138757	0.114767	0.023424
C31	C	-0.159548	-0.207147	0.021673
C32	C	-0.202902	-0.228898	0.018154
C33	C	-0.224662	-0.205451	0.016389
C34	C	-0.271668	-0.229031	0.012571
C35	C	-0.203064	-0.160253	0.018139
C36	C	-0.159710	-0.138504	0.021656
C37	C	-0.137958	-0.161957	0.023427
C38	C	0.111135	-0.138360	0.027245
C39	C	0.089418	-0.119564	0.030284
C40	C	-0.053478	-0.119569	0.030281
C41	C	-0.090948	-0.138368	0.027240
C42	C	0.089536	0.023450	0.030279
C43	C	0.111366	0.063953	0.027238
O44	O	-0.287050	-0.267927	0.011207
O45	O	-0.397280	-0.323035	-0.011295
O46	O	-0.397265	-0.323035	0.066308
O47	O	-0.287065	-0.267927	-0.066395
O48	O	-0.397286	-0.260009	0.066307
O49	O	-0.397301	-0.260009	-0.011296
O50	O	-0.287071	-0.204901	0.011206
Cu51	Cu	-0.342188	-0.226700	-0.000045
Cu52	Cu	-0.342163	-0.301236	-0.000044
O53	O	-0.287086	-0.204901	-0.066396
C54	C	0.062025	-0.027668	-0.438435
C55	C	0.084625	-0.050683	-0.461345
C56	C	-0.006577	-0.096290	-0.369814
C57	C	0.016127	-0.119201	-0.392829
C58	C	0.062049	-0.096289	-0.438434
C59	C	0.016104	-0.050685	-0.392829
C60	C	0.116300	0.137810	-0.480336
C61	C	0.141397	0.184672	-0.501934
C62	C	0.188349	0.208182	-0.547126
C63	C	0.215570	0.258995	-0.570543
C64	C	0.210200	0.184824	-0.570720
C65	C	0.185098	0.137964	-0.549124
C66	C	0.138147	0.114457	-0.503930
C67	C	0.185652	-0.138188	-0.549585
C68	C	0.210925	-0.159786	-0.571335
C69	C	0.189259	-0.204977	-0.547889
C70	C	0.216662	-0.228396	-0.571465
C71	C	0.142311	-0.228572	-0.502691
C72	C	0.117034	-0.206978	-0.480944
C73	C	0.138712	-0.161781	-0.504396
C74	C	-0.159627	-0.138197	-0.204335
C75	C	-0.202967	-0.159794	-0.157471
C76	C	-0.224698	-0.204987	-0.133963
C77	C	-0.271689	-0.228406	-0.083149
C78	C	-0.203084	-0.228579	-0.157319
C79	C	-0.159743	-0.206979	-0.204181
C80	C	-0.138021	-0.161788	-0.227687
C81	C	0.110934	0.063645	-0.480515
C82	C	0.089241	0.023143	-0.461850
C83	C	-0.053568	-0.119707	-0.319003
C84	C	-0.091026	-0.138373	-0.278501
C85	C	0.089456	-0.119704	-0.462014
C86	C	0.111302	-0.138368	-0.480811
C87	C	0.456812	-0.364449	-0.023592
C88	C	0.503591	-0.341066	-0.020376
C89	C	0.434121	-0.410055	-0.023913
C90	C	0.388168	-0.364445	-0.023588
C91	C	0.361553	-0.341059	-0.020367
C92	C	0.365582	-0.410052	-0.023909
C93	C	0.388186	-0.433069	-0.023590
C94	C	0.361589	-0.483055	-0.020373
C95	C	0.434104	-0.341536	-0.023910
C96	C	0.340101	-0.523440	-0.017772
C97	C	0.541383	-0.322176	-0.017777
C98	C	0.340049	-0.322166	-0.017764
C99	C	0.313143	-0.574104	-0.014511
C100	C	0.588795	-0.298477	-0.014517
C101	C	0.313073	-0.298463	-0.014499
O102	O	0.271445	0.408763	-0.011289
O103	O	0.193875	0.276060	0.011200
O104	O	0.271443	0.353651	-0.066397
O105	O	0.193877	0.331172	0.066308
O106	O	0.334491	0.353653	-0.066395
O107	O	0.256923	0.276062	0.011202
O108	O	0.334492	0.408765	-0.011288
Cu109	Cu	0.301464	0.342414	-0.000043
Cu110	Cu	0.226903	0.342411	-0.000045
O111	O	0.256924	0.331174	0.066310
O112	O	0.271528	-0.323024	-0.602429
O113	O	0.193910	-0.267914	-0.547330
O114	O	0.271523	-0.267915	-0.547318
O115	O	0.193916	-0.323023	-0.602441
O116	O	0.334534	-0.204889	-0.610346
O117	O	0.256921	-0.204888	-0.610358
O118	O	0.334539	-0.259999	-0.665457
Cu119	Cu	0.301484	-0.226688	-0.643662
Cu120	Cu	0.226966	-0.301224	-0.569125
O121	O	0.256927	-0.259997	-0.665469
O122	O	0.334022	0.408456	-0.665160
O123	O	0.256456	0.275752	-0.610061
O124	O	0.334043	0.353340	-0.610045
O125	O	0.256435	0.330868	-0.665175
O126	O	0.271012	0.353338	-0.547020
O127	O	0.193424	0.275750	-0.547035
O128	O	0.270990	0.408454	-0.602134
Cu129	Cu	0.226452	0.342102	-0.568830
Cu130	Cu	0.300994	0.342104	-0.643365
O131	O	0.193403	0.330866	-0.602150
C132	C	0.071524	-0.433056	0.293113
C133	C	0.024763	-0.483041	0.316497
C134	C	0.094229	-0.410042	0.316025
C135	C	0.140123	-0.364435	0.224491
C136	C	0.166708	-0.341051	0.174505
C137	C	0.162724	-0.341525	0.247507
C138	C	0.140150	-0.364437	0.293113
C139	C	0.166764	-0.341054	0.316498
C140	C	0.094203	-0.410040	0.247507
C141	C	0.188265	-0.322164	0.335389
C142	C	-0.013014	-0.523425	0.335389
C143	C	0.188187	-0.322159	0.134120
C144	C	0.215240	-0.298464	0.359090
C145	C	-0.060409	-0.574087	0.359089
C146	C	0.215133	-0.298458	0.083456
C147	C	-0.611747	-0.364460	0.293093
C148	C	-0.638360	-0.341077	0.316477
C149	C	-0.634323	-0.410066	0.316004
C150	C	-0.543120	-0.364458	0.224472
C151	C	-0.496358	-0.341072	0.174487
C152	C	-0.565800	-0.410064	0.247487
C153	C	-0.611722	-0.433080	0.293093
C154	C	-0.638309	-0.483066	0.316476
C155	C	-0.565825	-0.341548	0.247488
C156	C	-0.659789	-0.523450	0.335366
C157	C	-0.659861	-0.322187	0.335368
C158	C	-0.458579	-0.322180	0.134103
C159	C	-0.686736	-0.574114	0.359066
C160	C	-0.686835	-0.298488	0.359068
C161	C	-0.411183	-0.298478	0.083440
C162	C	0.140237	0.318909	0.293095
C163	C	0.166856	0.322131	0.316479
C164	C	0.094306	0.318593	0.316004
C165	C	0.140208	0.318897	0.224474
C166	C	0.166797	0.322107	0.174488
C167	C	0.094277	0.318581	0.247487
C168	C	0.071595	0.318909	0.293092
C169	C	0.024821	0.322132	0.316474
C170	C	0.162815	0.318581	0.247490
C171	C	-0.012966	0.324736	0.335364
C172	C	0.188363	0.324736	0.335371
C173	C	0.188279	0.324701	0.134104
C174	C	-0.060373	0.328003	0.359063
C175	C	0.215343	0.328002	0.359072
C176	C	0.215228	0.327954	0.083441
C177	C	0.466025	-0.095984	-0.438426
C178	C	0.511945	-0.050379	-0.461338
C179	C	0.466052	-0.095985	-0.369804
C180	C	0.511973	-0.050380	-0.392820
C181	C	0.534651	-0.027364	-0.438426
C182	C	0.443451	-0.118895	-0.392820
C183	C	0.342420	-0.207133	-0.480328
C184	C	0.317145	-0.228883	-0.501926
C185	C	0.338813	-0.205435	-0.547120
C186	C	0.311405	-0.229012	-0.570537
C187	C	0.385759	-0.160237	-0.570714
C188	C	0.411034	-0.138493	-0.549118
C189	C	0.389362	-0.161943	-0.503923
C190	C	0.687670	0.138113	-0.549581
C191	C	0.731013	0.184975	-0.571332
C192	C	0.752768	0.208484	-0.547886
C193	C	0.799758	0.259295	-0.571462
C194	C	0.731181	0.185126	-0.502686
C195	C	0.687846	0.138265	-0.480939
C196	C	0.666090	0.114761	-0.504391
C197	C	0.342530	-0.207137	-0.204322
C198	C	0.317279	-0.228885	-0.157457
C199	C	0.338974	-0.205438	-0.133949
C200	C	0.311596	-0.229016	-0.083135
C201	C	0.385917	-0.160242	-0.157306
C202	C	0.411164	-0.138495	-0.204168
C203	C	0.389469	-0.161948	-0.227675
C204	C	0.416770	-0.138360	-0.480507
C205	C	0.438617	-0.119563	-0.461842
C206	C	0.438674	-0.119565	-0.318992
C207	C	0.416851	-0.138362	-0.278489
C208	C	0.581640	0.023446	-0.462007
C209	C	0.619097	0.063948	-0.480805
O210	O	-0.184499	-0.723920	0.452666
O211	O	-0.074303	-0.591219	0.397558
O212	O	-0.074284	-0.668816	0.397554
O213	O	-0.184518	-0.646323	0.452669
O214	O	-0.074309	-0.668816	0.334527
O215	O	-0.074329	-0.591219	0.334531
O216	O	-0.184524	-0.723920	0.389639
Cu217	Cu	-0.129429	-0.657569	0.356330
Cu218	Cu	-0.129399	-0.657570	0.430867
O219	O	-0.184544	-0.646323	0.389643
C220	C	0.534506	0.376476	-0.438433
C221	C	0.511794	0.376792	-0.461344
C222	C	0.465891	0.376487	-0.369813
C223	C	0.443283	0.376803	-0.392829
C224	C	0.465862	0.376474	-0.438434
C225	C	0.511823	0.376805	-0.392828
C226	C	0.687598	0.364050	-0.480330
C227	C	0.730953	0.360535	-0.501927
C228	C	0.752687	0.358763	-0.547119
C229	C	0.799690	0.354943	-0.570535
C230	C	0.731064	0.360511	-0.570714
C231	C	0.687717	0.364033	-0.549119
C232	C	0.665983	0.365802	-0.503925
C233	C	0.411473	0.364026	-0.549586
C234	C	0.386346	0.360509	-0.571337
C235	C	0.339384	0.358746	-0.547892
C236	C	0.312131	0.354925	-0.571468
C237	C	0.317554	0.360507	-0.502694
C238	C	0.342686	0.364033	-0.480947
C239	C	0.389648	0.365790	-0.504398
C240	C	0.411620	0.364093	-0.204334
C241	C	0.386517	0.360583	-0.157470
C242	C	0.339556	0.358822	-0.133963
C243	C	0.312334	0.355014	-0.083150
C244	C	0.317697	0.360568	-0.157320
C245	C	0.342800	0.364077	-0.204181
C246	C	0.389765	0.365843	-0.227687
C247	C	0.618976	0.369616	-0.480511
C248	C	0.581509	0.372658	-0.461847
C249	C	0.438673	0.372681	-0.319002
C250	C	0.416979	0.369648	-0.278500
C251	C	0.438613	0.372653	-0.462014
C252	C	0.416893	0.369609	-0.480812
H253	H	-0.002748	-0.156369	0.034934
H254	H	0.278921	-0.265682	-0.482712
Br255	Br	0.112898	-0.289906	-0.470870
Br256	Br	0.543618	-0.019568	-0.362010
Br257	Br	0.053321	0.106571	0.024046
H258	H	-0.142130	-0.101703	0.023084
H259	H	0.404317	0.359158	-0.138455
H260	H	0.199675	-0.304054	0.229027
H261	H	0.748584	0.203989	-0.608132
H262	H	0.453094	-0.304065	-0.024422
H263	H	0.075321	0.318080	0.353477
H264	H	0.124639	0.204274	0.016710
Br265	Br	0.062604	-0.440842	0.378476
Br266	Br	-0.534191	-0.279096	0.216687
H267	H	-0.546797	-0.428539	0.229008
H268	H	0.453127	-0.428533	-0.024430
H269	H	0.075273	0.318063	0.229007
H270	H	0.199783	0.318073	0.229011
Br271	Br	0.658555	0.106567	-0.419604
Br272	Br	0.381868	-0.181350	-0.362022
Br273	Br	0.062538	-0.440837	0.216705
Br274	Br	0.146350	-0.019581	0.035293
Br275	Br	0.543589	-0.019584	-0.523796
H276	H	-0.002795	-0.031906	0.034934
Br277	Br	0.253571	-0.290221	-0.125762
Br278	Br	0.475203	0.366410	-0.581410
Br279	Br	0.658107	0.366453	-0.418998
Br280	Br	0.313086	-0.238965	-0.236223
H281	H	-0.671274	-0.428543	0.353475
H282	H	0.324770	-0.226233	-0.443529
H283	H	0.403399	-0.141150	-0.607512
H284	H	0.449258	-0.101694	-0.568332
H285	H	0.669962	0.118979	-0.568680
H286	H	0.748765	0.359072	-0.607510
Br287	Br	0.215165	0.106224	0.024063
H288	H	0.123603	0.203685	-0.482720
H289	H	0.328616	-0.428528	-0.024420
H290	H	0.279456	0.359132	-0.138176
H291	H	0.748899	0.204267	-0.483598
H292	H	-0.141838	-0.226247	0.023113
H293	H	-0.220786	-0.141162	0.016704
Br294	Br	0.474871	-0.077159	-0.235864
Br295	Br	0.274691	0.216682	0.015775
Br296	Br	0.415350	-0.128409	-0.125398
H297	H	0.406320	0.377317	-0.374349
Br298	Br	0.543462	0.377685	-0.523812
Br299	Br	0.543495	0.377662	-0.362025
Br300	Br	-0.015567	-0.019889	-0.362030
Br301	Br	0.475357	0.366489	-0.236234
H302	H	-0.220482	-0.265699	0.016726
H303	H	0.748548	0.359104	-0.482710
H304	H	0.670117	0.365458	-0.568333
Br305	Br	0.415971	0.358119	-0.632672
Br306	Br	0.253829	0.358127	-0.470876
Br307	Br	0.313065	0.366428	-0.419613
H308	H	0.078308	-0.226236	0.023113
H309	H	0.123892	-0.265687	0.016740
Br310	Br	0.214970	-0.077156	0.024056
Br311	Br	0.274201	-0.128416	0.015768
Br312	Br	-0.015506	-0.181654	-0.362033
H313	H	0.324997	0.365496	-0.223195
H314	H	0.121582	-0.032200	-0.498815
H315	H	0.203304	-0.101389	-0.568684
H316	H	-0.141951	-0.101404	-0.223475
Br317	Br	0.052582	0.105911	-0.419003
Br318	Br	-0.232295	-0.127774	-0.125776
H319	H	0.248427	0.203969	-0.607516
H320	H	0.202891	0.118950	-0.568338
H321	H	0.078808	-0.226193	-0.444146
Br322	Br	0.274636	-0.127763	-0.632670
H323	H	-0.220782	-0.265380	-0.138176
Br324	Br	-0.130413	-0.238998	-0.235875
