data_functionalizedCrystal
_audit_creation_method	'MofGen! by Chris Wilmer'
_symmetry_space_group_name_H-M	'P1'
_symmetry_Int_Tables_number	1
_symmetry_cell_setting	triclinic
loop_
_symmetry_equiv_pos_as_xyz
  x,y,z
_cell_length_a	6.817900
_cell_length_b	8.749629
_cell_length_c	12.200875
_cell_angle_alpha	93.118192
_cell_angle_beta	107.143593
_cell_angle_gamma	105.181975
loop_
_atom_site_label
_atom_site_type_symbol
_atom_site_fract_x
_atom_site_fract_y
_atom_site_fract_z
V1	V	-4.075834	-0.219162	-0.356170
V2	V	-3.575834	0.280838	0.143830
O3	O	-4.054691	0.010162	-0.350922
O4	O	-3.554691	0.510162	0.149078
O5	O	-4.034442	-0.434207	-0.352261
O6	O	-3.534442	0.065793	0.147739
O7	O	-4.045447	-0.215953	-0.512180
O8	O	-3.545447	0.284047	-0.012180
O9	O	-4.043610	-0.209602	-0.189895
O10	O	-3.543610	0.290398	0.310105
V11	V	-4.556219	-0.191713	-0.336461
V12	V	-4.056219	0.308287	0.163539
O13	O	-4.343974	-0.279374	-0.399403
O14	O	-3.843974	0.220626	0.100597
O15	O	-4.738276	-0.131502	-0.293228
O16	O	-4.238276	0.368498	0.206772
O17	O	-4.374405	0.023331	-0.340370
O18	O	-3.874405	0.523331	0.159630
O19	O	-4.694759	-0.421038	-0.341709
O20	O	-4.194759	0.078962	0.158291
O21	O	-4.705840	-0.201274	-0.502736
O22	O	-4.205840	0.298726	-0.002736
O23	O	-4.363400	-0.194922	-0.180451
O24	O	-3.863400	0.305078	0.319549
C25	C	-3.880564	-0.486625	-0.346262
C26	C	-3.380564	0.013375	0.153738
C27	C	-3.928128	-0.662427	-0.344105
C28	C	-3.428128	-0.162427	0.155895
C29	C	-3.894601	-0.208219	-0.550253
C30	C	-3.394601	0.291781	-0.050253
C31	C	-3.951086	-0.207018	-0.677783
C32	C	-3.451086	0.292982	-0.177783
C33	C	-4.054463	-0.204822	-0.911272
C34	C	-3.554463	0.295178	-0.411272
C35	C	-3.996928	-0.206043	-0.781342
C36	C	-3.496928	0.293957	-0.281342
C37	C	-4.191624	0.075741	-0.346366
C38	C	-3.691624	0.575741	0.153634
C39	C	-4.123299	0.251542	-0.348530
C40	C	-3.623299	0.751542	0.151470
C41	C	-4.177587	-0.202662	-0.142371
C42	C	-3.677587	0.297338	0.357629
C43	C	-4.100340	-0.203855	-0.014841
C44	C	-3.600340	0.296145	0.485159
H45	H	-3.797423	-0.723267	-0.338670
H46	H	-3.297423	-0.223267	0.161330
H47	H	-4.254017	-0.687613	-0.353978
H48	H	-3.754017	-0.187613	0.146022
