data_functionalizedCrystal
_audit_creation_method	'MofGen! by Chris Wilmer'
_symmetry_space_group_name_H-M	'P1'
_symmetry_Int_Tables_number	1
_symmetry_cell_setting	triclinic
loop_
_symmetry_equiv_pos_as_xyz
  x,y,z
_cell_length_a	11.792241
_cell_length_b	16.109301
_cell_length_c	10.268362
_cell_angle_alpha	89.994258
_cell_angle_beta	89.991152
_cell_angle_gamma	96.172552
loop_
_atom_site_label
_atom_site_type_symbol
_atom_site_fract_x
_atom_site_fract_y
_atom_site_fract_z
O1	O	1.505894	-0.113955	0.108178
O2	O	2.005894	0.386045	0.608178
O3	O	1.175450	-0.125699	0.108209
O4	O	1.675450	0.374301	0.608209
O5	O	1.349750	0.001161	0.108180
O6	O	1.849750	0.501161	0.608180
O7	O	1.331595	-0.240815	0.108208
O8	O	1.831595	0.259185	0.608208
O9	O	1.349765	0.001167	-0.108421
O10	O	1.849765	0.501167	0.391579
O11	O	1.175465	-0.125694	-0.108392
O12	O	1.675465	0.374306	0.391608
O13	O	1.505909	-0.113950	-0.108422
O14	O	2.005909	0.386050	0.391578
Cu15	Cu	1.340689	-0.119821	-0.128184
Cu16	Cu	1.840689	0.380179	0.371816
Cu17	Cu	1.340671	-0.119827	0.127971
Cu18	Cu	1.840671	0.380173	0.627971
O19	O	1.331610	-0.240810	-0.108393
O20	O	1.831610	0.259190	0.391607
C21	C	1.133173	-0.124959	-0.000087
C22	C	1.633173	0.375041	0.499913
C23	C	1.007179	-0.122751	-0.000076
C24	C	1.507179	0.377249	0.499924
C25	C	1.349022	0.032142	-0.000121
C26	C	1.849022	0.532142	0.499879
C27	C	1.346817	0.124448	-0.000123
C28	C	1.846817	0.624448	0.499877
N29	N	1.340659	-0.119826	0.308137
N30	N	1.840659	0.380174	0.808137
C31	C	0.776502	-0.118690	-0.000114
C32	C	1.276502	0.381310	0.499886
C33	C	0.904868	-0.120946	-0.000093
C34	C	1.404868	0.379054	0.499907
C35	C	1.548186	-0.114690	-0.000123
C36	C	2.048186	0.385310	0.499877
C37	C	1.674181	-0.116898	-0.000126
C38	C	2.174181	0.383102	0.499874
C39	C	1.332338	-0.271791	-0.000089
C40	C	1.832338	0.228209	0.499911
C41	C	1.334542	-0.364097	-0.000079
C42	C	1.834542	0.135903	0.499921
C43	C	1.445116	0.346258	-0.000111
C44	C	1.945116	0.846258	0.499889
C45	C	1.443036	0.432988	-0.000101
C46	C	1.943036	0.932988	0.499899
C47	C	1.236235	0.414087	-0.000086
C48	C	1.736235	0.914087	0.499914
C49	C	1.238317	0.327358	-0.000088
C50	C	1.738317	0.827358	0.499912
C51	C	1.342761	0.293446	-0.000107
C52	C	1.842761	0.793446	0.499893
C53	C	1.338599	0.466905	-0.000095
C54	C	1.838599	0.966905	0.499905
C55	C	1.336342	0.560942	-0.000083
C56	C	1.836342	1.060942	0.499917
C57	C	1.345018	0.199404	-0.000117
C58	C	1.845018	0.699404	0.499883
N59	N	1.340710	-0.119816	-0.308350
N60	N	1.840710	0.380184	0.191650
C61	C	1.340666	-0.119826	0.425979
C62	C	1.840666	0.380174	0.925979
C63	C	1.340687	-0.119823	0.573817
C64	C	1.840687	0.380177	1.073817
H65	H	1.530161	0.318650	-0.000124
H66	H	2.030161	0.818650	0.499876
Br67	Br	1.581953	0.504658	-0.000099
Br68	Br	2.081953	1.004658	0.499901
H69	H	1.151201	0.441709	-0.000073
H70	H	1.651201	0.941709	0.499927
Br71	Br	1.099396	0.255679	-0.000065
Br72	Br	1.599396	0.755679	0.499935
