data_functionalizedCrystal
_audit_creation_method	'MofGen! by Chris Wilmer'
_symmetry_space_group_name_H-M	'P1'
_symmetry_Int_Tables_number	1
_symmetry_cell_setting	triclinic
loop_
_symmetry_equiv_pos_as_xyz
  x,y,z
_cell_length_a	18.760492
_cell_length_b	14.560438
_cell_length_c	14.560438
_cell_angle_alpha	90.001144
_cell_angle_beta	59.998735
_cell_angle_gamma	59.999761
loop_
_atom_site_label
_atom_site_type_symbol
_atom_site_fract_x
_atom_site_fract_y
_atom_site_fract_z
Zr1	Zr	0.780245	-0.120552	0.884728
O2	O	0.928956	-0.267206	0.738072
O3	O	0.631532	-0.075589	0.929690
O4	O	0.780242	-0.267197	0.929682
O5	O	0.780248	0.075540	0.738081
O6	O	0.780241	-0.267196	1.080823
O7	O	0.780246	-0.075598	0.738080
O8	O	0.514226	0.075556	1.080837
O9	O	1.046263	-0.267212	0.738067
O10	O	0.692699	-0.056418	1.061655
O11	O	0.692702	0.056374	0.948861
O12	O	0.867789	-0.169220	0.948852
O13	O	0.867791	-0.056429	0.836058
Zr14	Zr	0.780246	0.120499	1.125780
Zr15	Zr	0.780243	-0.120549	1.125779
Zr16	Zr	0.780248	0.120496	0.884729
Zr17	Zr	0.967336	-0.120561	0.884719
Zr18	Zr	0.593155	0.120508	1.125789
O19	O	0.928958	0.075537	1.080818
O20	O	0.928954	-0.267203	1.080816
O21	O	0.928961	0.075533	0.738074
O22	O	0.631534	0.267154	1.272436
O23	O	0.631530	-0.075585	1.272434
O24	O	0.631537	0.267150	0.929692
O25	O	0.780242	-0.075592	1.272427
O26	O	0.780248	0.267145	1.080826
O27	O	0.780249	0.267143	0.929685
O28	O	0.780244	0.075546	1.272428
O29	O	1.046262	-0.267210	0.929670
O30	O	0.514229	0.267158	1.080838
O31	O	0.514227	0.267160	1.272441
O32	O	0.514225	0.075559	1.272440
O33	O	1.046266	-0.075611	0.738068
O34	O	1.046265	-0.075609	0.929671
O35	O	0.692702	0.169168	1.061656
O36	O	0.692700	0.056376	1.174450
O37	O	0.867789	-0.056426	1.061647
O38	O	0.867792	0.056365	0.948853
C39	C	0.546223	-0.000015	1.005265
C40	C	0.466798	-0.000011	1.005268
C41	C	0.780248	-0.000030	0.703736
C42	C	0.780248	-0.000031	0.601403
C43	C	0.780249	0.301488	1.005256
C44	C	0.780251	0.403819	1.005256
C45	C	0.131004	0.058840	0.946362
C46	C	0.131006	-0.058917	1.064121
C47	C	0.205622	-0.058910	1.064129
C48	C	0.242933	-0.000029	1.005252
C49	C	0.205629	0.058846	0.946366
C50	C	0.242939	-0.117793	1.123005
C51	C	0.317560	-0.117790	1.123014
C52	C	0.354867	-0.058901	1.064143
C53	C	0.317558	-0.000023	1.005256
C54	C	0.354869	0.058858	0.946379
C55	C	0.317555	0.117743	0.887497
C56	C	0.242936	0.117734	0.887495
C57	C	0.429487	-0.058892	1.064146
C58	C	0.429493	0.058863	0.946383
C59	C	1.014268	-0.000037	1.005243
C60	C	1.093693	-0.000041	1.005240
C61	C	0.780241	-0.301541	1.005252
C62	C	0.780240	-0.403872	1.005252
C63	C	0.871644	0.393016	0.946376
C64	C	0.871639	0.489171	0.946370
C65	C	0.688840	0.606929	1.064134
C66	C	0.688846	0.510775	1.064132
C67	C	0.780249	-0.083296	0.553326
C68	C	0.780243	-0.083290	0.457179
C69	C	0.780238	0.083252	0.457190
C70	C	0.780238	0.083249	0.553341
C71	C	0.780243	-0.000023	1.306772
C72	C	0.780242	-0.000022	1.409105
C73	C	0.546221	-0.000012	1.306783
C74	C	0.466795	-0.000007	1.409119
C75	C	0.546227	0.301499	1.005266
C76	C	0.466803	0.403834	1.005271
C77	C	0.546225	0.301503	1.306785
C78	C	0.466800	0.403839	1.409121
C79	C	1.014266	-0.301555	0.703723
C80	C	1.093691	-0.403891	0.601386
C81	C	1.014270	-0.000041	0.703725
C82	C	1.093696	-0.000046	0.601389
C83	C	1.014264	-0.301552	1.005242
C84	C	1.093688	-0.403887	1.005237
C85	C	0.429495	-0.058892	1.398300
C86	C	0.354876	-0.058910	1.494446
C87	C	0.317554	-0.000035	1.601411
C88	C	0.354861	0.058852	1.612229
C89	C	0.429483	0.058862	1.516083
C90	C	0.429505	0.510779	1.064150
C91	C	0.354889	0.606943	1.064150
C92	C	0.317566	0.596160	1.005276
C93	C	0.354871	0.489203	0.946389
C94	C	0.429492	0.393042	0.946383
C95	C	0.429500	0.393021	1.516067
C96	C	0.354883	0.489167	1.612233
C97	C	0.317562	0.596131	1.601450
C98	C	0.354869	0.606946	1.494493
C99	C	0.429490	0.510801	1.398330
C100	C	1.131000	-0.393073	0.494441
C101	C	1.205640	-0.489220	0.398275
C102	C	1.242965	-0.596183	0.409058
C103	C	1.205654	-0.606999	0.516015
C104	C	1.131019	-0.510853	0.612178
C105	C	1.131003	0.058829	0.612208
C106	C	1.205643	0.058821	0.516062
C107	C	1.242968	-0.000057	0.409097
C108	C	1.205658	-0.058939	0.398279
C109	C	1.131025	-0.058937	0.494425
C110	C	1.130987	-0.393067	1.064123
C111	C	1.205604	-0.489213	1.064141
C112	C	1.242926	-0.596177	1.005266
C113	C	1.205620	-0.606994	0.946379
C114	C	1.130999	-0.510850	0.946368
H115	H	0.459865	0.106814	0.898439
Cl116	Cl	1.084119	-0.524473	0.746620
H117	H	1.100611	-0.305980	1.112066
H118	H	0.780234	0.151059	0.592490
H119	H	1.100613	-0.305987	0.485640
Cl120	Cl	1.252527	-0.475597	0.263829
H121	H	0.324523	0.694022	1.112107
H122	H	0.324461	0.106785	1.699332
Cl123	Cl	1.336791	-0.717043	0.288155
H124	H	1.303739	-0.000050	0.330818
Cl125	Cl	1.252527	0.132856	0.529687
Cl126	Cl	0.364476	0.191754	0.813475
Cl127	Cl	0.307993	0.475545	1.746679
H128	H	1.100638	-0.519675	0.898411
Cl129	Cl	0.223749	0.716990	1.722353
Cl130	Cl	0.196015	0.191765	0.813492
Cl131	Cl	0.986552	0.258561	0.872355
H132	H	1.236053	-0.694100	0.524781
Cl133	Cl	0.476404	-0.132920	1.263841
H134	H	0.100618	0.106786	0.898426
H135	H	1.303687	-0.674454	1.005284
Cl136	Cl	0.307988	-0.132939	1.480821
Cl137	Cl	1.252588	-0.132947	0.263800
Cl138	Cl	1.252493	-0.475587	1.138169
Cl139	Cl	0.780231	0.187938	0.396761
Cl140	Cl	1.084101	0.132851	0.746667
H141	H	1.236019	-0.694097	0.898445
H142	H	0.100630	-0.106863	1.112050
Cl143	Cl	0.196039	-0.191820	1.197006
H144	H	0.347935	-0.165736	1.170959
H145	H	0.459850	0.519625	1.311254
H146	H	0.324471	0.694049	1.485730
Cl147	Cl	0.476365	0.258600	0.872362
Cl148	Cl	0.307938	0.475666	0.872384
Cl149	Cl	0.223739	-0.000057	1.722270
Cl150	Cl	0.476358	0.132906	1.529705
Cl151	Cl	1.084126	-0.132950	0.480803
Cl152	Cl	0.223754	0.717061	1.005296
Cl153	Cl	0.573938	0.741391	1.138151
H154	H	0.459868	-0.106842	1.112080
H155	H	0.946060	0.480365	0.898422
Cl156	Cl	0.573942	0.524358	1.138152
H157	H	0.780256	-0.151106	0.592458
Cl158	Cl	0.476407	0.524366	1.138175
Cl159	Cl	0.780241	-0.187968	0.396744
H160	H	0.459876	0.305935	1.524868
