data_functionalizedCrystal
_audit_creation_method	'MofGen! by Chris Wilmer'
_symmetry_space_group_name_H-M	'P1'
_symmetry_Int_Tables_number	1
_symmetry_cell_setting	triclinic
loop_
_symmetry_equiv_pos_as_xyz
  x,y,z
_cell_length_a	30.570277
_cell_length_b	30.570279
_cell_length_c	30.570330
_cell_angle_alpha	59.997668
_cell_angle_beta	89.998668
_cell_angle_gamma	60.000192
loop_
_atom_site_label
_atom_site_type_symbol
_atom_site_fract_x
_atom_site_fract_y
_atom_site_fract_z
O1	O	-0.372836	-0.313095	0.013011
O2	O	-0.309225	-0.223519	-0.012953
O3	O	-0.309223	-0.313094	0.076622
O4	O	-0.372839	-0.223520	-0.076564
O5	O	-0.236468	-0.385848	0.076622
O6	O	-0.236471	-0.296273	-0.012953
O7	O	-0.300082	-0.385850	0.013011
Cu8	Cu	-0.261633	-0.347704	0.000029
Cu9	Cu	-0.347674	-0.261664	0.000029
O10	O	-0.300084	-0.296275	-0.076564
C11	C	-0.188654	-0.082303	-0.027139
C12	C	-0.215647	-0.028318	-0.023422
C13	C	-0.136009	-0.108501	-0.027507
C14	C	-0.188656	-0.161512	-0.027144
C15	C	-0.215651	-0.192218	-0.023433
C16	C	-0.136010	-0.187591	-0.027512
C17	C	-0.109441	-0.161515	-0.027139
C18	C	-0.051740	-0.192225	-0.023422
C19	C	-0.215103	-0.108498	-0.027512
C20	C	-0.005122	-0.217036	-0.020418
C21	C	-0.237454	0.015296	-0.020418
C22	C	-0.237459	-0.217026	-0.020433
C23	C	0.053362	-0.248162	-0.016650
C24	C	-0.264813	0.070012	-0.016651
C25	C	-0.264819	-0.248149	-0.016672
C26	C	-0.528835	-0.481158	0.031534
C27	C	-0.502268	-0.534173	0.031905
C28	C	-0.449624	-0.481155	0.031530
C29	C	-0.423176	-0.534171	0.031901
C30	C	-0.449623	-0.560370	0.031533
C31	C	-0.502268	-0.455079	0.031901
C32	C	-0.614448	-0.395339	0.025106
C33	C	-0.668545	-0.366177	0.021050
C34	C	-0.695677	-0.391210	0.019017
C35	C	-0.754333	-0.359592	0.014617
C36	C	-0.668716	-0.445410	0.021045
C37	C	-0.614621	-0.474572	0.025103
C38	C	-0.587489	-0.449534	0.027131
C39	C	-0.449828	-0.639557	0.025109
C40	C	-0.424894	-0.689598	0.021053
C41	C	-0.372730	-0.714694	0.019016
C42	C	-0.345693	-0.768949	0.014615
C43	C	-0.345492	-0.689758	0.021040
C44	C	-0.370425	-0.639721	0.025098
C45	C	-0.422593	-0.614621	0.027130
C46	C	-0.449831	-0.395334	0.025098
C47	C	-0.424899	-0.366164	0.021031
C48	C	-0.372736	-0.391195	0.018994
C49	C	-0.345699	-0.359574	0.014590
C50	C	-0.345499	-0.445391	0.021019
C51	C	-0.370429	-0.474560	0.025084
C52	C	-0.422594	-0.449529	0.027123
C53	C	-0.449629	-0.128223	-0.400622
C54	C	-0.502274	-0.075208	-0.427071
C55	C	-0.449630	-0.128223	-0.321410
C56	C	-0.502275	-0.075207	-0.347979
C57	C	-0.528843	-0.049010	-0.400624
C58	C	-0.423182	-0.154300	-0.347977
C59	C	-0.370237	-0.214043	-0.400414
C60	C	-0.345131	-0.243207	-0.425348
C61	C	-0.372198	-0.218175	-0.477512
C62	C	-0.344980	-0.249795	-0.504549
C63	C	-0.424371	-0.163975	-0.504752
C64	C	-0.449476	-0.134812	-0.479820
C65	C	-0.422408	-0.159848	-0.427652
C66	C	-0.614455	0.030175	-0.480016
C67	C	-0.668553	0.080216	-0.505123
C68	C	-0.695686	0.105313	-0.478056
C69	C	-0.754343	0.159568	-0.505274
C70	C	-0.668725	0.080378	-0.425883
C71	C	-0.614630	0.030342	-0.400778
C72	C	-0.587497	0.005241	-0.427845
C73	C	-0.370239	-0.214042	-0.235795
C74	C	-0.345135	-0.243209	-0.181695
C75	C	-0.372203	-0.218177	-0.154563
C76	C	-0.344985	-0.249796	-0.095906
C77	C	-0.424374	-0.163982	-0.181523
C78	C	-0.449480	-0.134814	-0.235621
C79	C	-0.422410	-0.159847	-0.262755
O80	O	0.226322	-0.385862	0.013031
O81	O	0.073137	-0.296286	-0.012932
O82	O	0.162706	-0.385864	0.076642
O83	O	0.136754	-0.296283	-0.076544
O84	O	0.162707	-0.313113	0.076647
O85	O	0.073139	-0.223534	-0.012927
O86	O	0.226324	-0.313110	0.013035
Cu87	Cu	0.149732	-0.261680	0.000054
Cu88	Cu	0.149730	-0.347717	0.000049
O89	O	0.136756	-0.223532	-0.076539
O90	O	-0.300077	0.213289	0.013034
O91	O	-0.236463	0.086067	-0.012928
O92	O	-0.236466	0.086060	0.076646
O93	O	-0.300074	0.213297	-0.076541
O94	O	-0.309222	0.086062	0.076641
O95	O	-0.309219	0.086070	-0.012933
O96	O	-0.372833	0.213292	0.013029
Cu97	Cu	-0.347669	0.149681	0.000047
Cu98	Cu	-0.261627	0.149678	0.000053
O99	O	-0.372830	0.213300	-0.076546
O100	O	-0.926872	0.304555	-0.541036
O101	O	-0.773688	0.177328	-0.477419
O102	O	-0.863257	0.177325	-0.477417
O103	O	-0.837303	0.304558	-0.541038
O104	O	-0.863255	0.177323	-0.550170
O105	O	-0.773686	0.177326	-0.550173
O106	O	-0.926870	0.304553	-0.613790
Cu107	Cu	-0.850278	0.240940	-0.588624
Cu108	Cu	-0.850280	0.240942	-0.502585
O109	O	-0.837301	0.304556	-0.613792
O110	O	-0.309222	-0.313094	-0.613776
O111	O	-0.372836	-0.223523	-0.550164
O112	O	-0.372834	-0.313097	-0.550160
O113	O	-0.309224	-0.223521	-0.613781
O114	O	-0.300079	-0.385852	-0.477404
O115	O	-0.300081	-0.296279	-0.477409
O116	O	-0.236467	-0.385850	-0.541021
Cu117	Cu	-0.261631	-0.347707	-0.502572
Cu118	Cu	-0.347672	-0.261666	-0.588613
O119	O	-0.236469	-0.296276	-0.541025
C120	C	-0.109443	-0.527076	0.338416
C121	C	-0.051741	-0.581062	0.365410
C122	C	-0.136011	-0.500878	0.364863
C123	C	-0.188656	-0.447863	0.259202
C124	C	-0.215650	-0.417154	0.201500
C125	C	-0.215104	-0.421785	0.285770
C126	C	-0.188656	-0.447863	0.338415
C127	C	-0.215649	-0.417155	0.365408
C128	C	-0.136011	-0.500878	0.285771
C129	C	-0.237457	-0.392345	0.387215
C130	C	-0.005124	-0.624677	0.387218
C131	C	-0.237457	-0.392344	0.154883
C132	C	-0.264816	-0.361220	0.414573
C133	C	0.053360	-0.679395	0.414577
C134	C	-0.264817	-0.361219	0.096399
C135	C	0.176900	-0.447894	0.338441
C136	C	0.173185	-0.417189	0.365437
C137	C	0.177268	-0.500910	0.364887
C138	C	0.176902	-0.447889	0.259226
C139	C	0.173189	-0.417178	0.201523
C140	C	0.177270	-0.500904	0.285792
C141	C	0.176898	-0.527104	0.338437
C142	C	0.173181	-0.581091	0.365429
C143	C	0.177272	-0.421814	0.285795
C144	C	0.170177	-0.624706	0.387234
C145	C	0.170183	-0.392382	0.387246
C146	C	0.170189	-0.392365	0.154906
C147	C	0.166409	-0.679423	0.414591
C148	C	0.166417	-0.361260	0.414607
C149	C	0.166425	-0.361238	0.096422
C150	C	-0.188656	-0.161565	0.338427
C151	C	-0.215650	-0.192274	0.365416
C152	C	-0.136010	-0.187647	0.364876
C153	C	-0.188655	-0.082342	0.259219
C154	C	-0.215648	-0.028347	0.201519
C155	C	-0.136009	-0.108545	0.285789
C156	C	-0.109441	-0.161568	0.338432
C157	C	-0.051739	-0.192281	0.365427
C158	C	-0.215103	-0.108542	0.285783
C159	C	-0.005121	-0.217095	0.387236
C160	C	-0.237458	-0.217086	0.387220
C161	C	-0.237456	0.015274	0.154902
C162	C	0.053363	-0.248225	0.414596
C163	C	-0.264818	-0.248212	0.414575
C164	C	-0.264815	0.070001	0.096420
C165	C	0.118261	-0.049006	-0.400600
C166	C	0.117891	-0.075201	-0.427049
C167	C	0.118257	-0.128221	-0.321388
C168	C	0.117887	-0.154296	-0.347958
C169	C	0.118259	-0.128216	-0.400603
C170	C	0.117889	-0.075206	-0.347955
C171	C	0.124691	0.030176	-0.400391
C172	C	0.128750	0.080217	-0.425324
C173	C	0.130788	0.105316	-0.477489
C174	C	0.135192	0.159570	-0.504524
C175	C	0.128762	0.080383	-0.504729
C176	C	0.124700	0.030348	-0.479798
C177	C	0.122667	0.005244	-0.427629
C178	C	0.124689	-0.134434	-0.479996
C179	C	0.128747	-0.163423	-0.505104
C180	C	0.130780	-0.217623	-0.478038
C181	C	0.135182	-0.249059	-0.505257
C182	C	0.128752	-0.242837	-0.425864
C183	C	0.124692	-0.213848	-0.400759
C184	C	0.122664	-0.159648	-0.427825
C185	C	0.124683	-0.134448	-0.235773
C186	C	0.128745	-0.163447	-0.181672
C187	C	0.130779	-0.217647	-0.154541
C188	C	0.135178	-0.249089	-0.095884
C189	C	0.128755	-0.242857	-0.181502
C190	C	0.124695	-0.213862	-0.235600
C191	C	0.122659	-0.159658	-0.262733
O192	O	0.136720	-0.296316	0.522623
O193	O	0.162693	-0.385890	0.459012
O194	O	0.073116	-0.296315	0.459000
O195	O	0.226297	-0.385891	0.522635
O196	O	0.073125	-0.223561	0.386249
O197	O	0.162702	-0.313136	0.386260
O198	O	0.136728	-0.223562	0.449871
Cu199	Cu	0.149716	-0.261706	0.411423
Cu200	Cu	0.149706	-0.347746	0.497460
O201	O	0.226306	-0.313137	0.449883
C202	C	-0.528835	0.518896	-0.400596
C203	C	-0.502267	0.544976	-0.427040
C204	C	-0.449621	0.439671	-0.321383
C205	C	-0.423173	0.465871	-0.347947
C206	C	-0.449621	0.518894	-0.400591
C207	C	-0.502267	0.465874	-0.347953
C208	C	-0.614449	0.525120	-0.400395
C209	C	-0.668547	0.554117	-0.425332
C210	C	-0.695679	0.608323	-0.477494
C211	C	-0.754336	0.639767	-0.504533
C212	C	-0.668718	0.633538	-0.504729
C213	C	-0.614622	0.604542	-0.479795
C214	C	-0.587490	0.550335	-0.427628
C215	C	-0.449826	0.604722	-0.479976
C216	C	-0.424890	0.633887	-0.505078
C217	C	-0.372726	0.608850	-0.478008
C218	C	-0.345687	0.640471	-0.505221
C219	C	-0.345487	0.554643	-0.425836
C220	C	-0.370420	0.525478	-0.400737
C221	C	-0.422590	0.550520	-0.427807
C222	C	-0.449827	0.360475	-0.235774
C223	C	-0.424895	0.310431	-0.181675
C224	C	-0.372730	0.285329	-0.154541
C225	C	-0.345693	0.231066	-0.095885
C226	C	-0.345493	0.310267	-0.181496
C227	C	-0.370424	0.360310	-0.235593
C228	C	-0.422591	0.385412	-0.262730
H229	H	-0.523599	-0.556098	0.032502
H230	H	-0.114683	-0.230250	-0.028108
H231	H	0.130388	-0.142913	-0.159727
H232	H	-0.258358	-0.086616	0.264453
C233	C	-0.698207	0.107639	-0.562509
C234	C	-0.723144	0.175939	-0.607631
C235	C	-0.752803	0.203367	-0.665018
C236	C	-0.757525	0.162497	-0.677284
C237	C	-0.732587	0.094193	-0.632162
C238	C	-0.702928	0.066765	-0.574774
H239	H	-0.719650	0.206197	-0.598552
H240	H	-0.771264	0.253930	-0.698421
H241	H	-0.779480	0.182801	-0.719766
H242	H	-0.736081	0.063935	-0.641241
H243	H	-0.684467	0.016202	-0.541372
C244	C	0.178063	-0.530530	0.423319
C245	C	0.178463	-0.588963	0.452530
C246	C	0.179254	-0.618581	0.510959
C247	C	0.179644	-0.589766	0.540178
C248	C	0.179244	-0.531329	0.510967
C249	C	0.178453	-0.501711	0.452538
H250	H	0.178174	-0.610297	0.430900
H251	H	0.179551	-0.661840	0.532582
H252	H	0.180230	-0.611691	0.583430
H253	H	0.179533	-0.509995	0.532597
H254	H	0.178157	-0.458452	0.430915
C255	C	-0.698203	0.526383	-0.395376
C256	C	-0.678466	0.460451	-0.376158
C257	C	-0.708124	0.432717	-0.346204
C258	C	-0.757519	0.470914	-0.335468
C259	C	-0.777258	0.536850	-0.354686
C260	C	-0.747600	0.564585	-0.384640
H261	H	-0.641899	0.432172	-0.384105
H262	H	-0.693512	0.383907	-0.331978
H263	H	-0.779473	0.450384	-0.313295
H264	H	-0.813825	0.565130	-0.346739
H265	H	-0.762213	0.613395	-0.398866
H266	H	-0.114673	-0.522795	0.264437
H267	H	-0.258359	-0.086568	-0.028112
H268	H	0.130406	-0.286972	-0.403829
C269	C	0.178047	-0.364163	0.256969
C270	C	0.178419	-0.335328	0.286174
C271	C	0.179178	-0.277668	0.257342
C272	C	0.179565	-0.248843	0.199305
C273	C	0.179193	-0.277678	0.170096
C274	C	0.178434	-0.335338	0.198928
H275	H	0.178133	-0.356666	0.329140
H276	H	0.179454	-0.256323	0.278965
H277	H	0.180127	-0.206160	0.177961
H278	H	0.179479	-0.256341	0.127130
H279	H	0.178158	-0.356684	0.177306
C280	C	-0.288115	-0.472931	0.018779
C281	C	-0.275750	-0.480436	-0.026816
C282	C	-0.218365	-0.507975	-0.029053
C283	C	-0.173345	-0.528009	0.014304
C284	C	-0.185709	-0.520504	0.059902
C285	C	-0.243093	-0.492965	0.062140
H286	H	-0.309077	-0.465605	-0.058914
H287	H	-0.209213	-0.513531	-0.062808
H288	H	-0.130866	-0.548395	0.012648
H289	H	-0.152381	-0.535335	0.092001
H290	H	-0.252246	-0.487410	0.095894
C291	C	-0.531098	-0.045585	-0.319169
C292	C	-0.539410	-0.083145	-0.267248
C293	C	-0.568236	-0.053522	-0.238442
C294	C	-0.588750	0.013661	-0.261555
C295	C	-0.580439	0.051225	-0.313479
C296	C	-0.551613	0.021602	-0.342286
H297	H	-0.524223	-0.132881	-0.250135
H298	H	-0.574388	-0.081330	-0.200004
H299	H	-0.610089	0.035589	-0.240231
H300	H	-0.595626	0.100961	-0.330592
H301	H	-0.545461	0.049410	-0.380723
C302	C	-0.273539	-0.364157	0.256958
C303	C	-0.302758	-0.335336	0.198925
C304	C	-0.361192	-0.277711	0.170116
C305	C	-0.390407	-0.248907	0.199340
C306	C	-0.361188	-0.277728	0.257375
C307	C	-0.302754	-0.335353	0.286185
H308	H	-0.281132	-0.356659	0.177289
H309	H	-0.382821	-0.256376	0.127154
H310	H	-0.433663	-0.206249	0.178013
H311	H	-0.382814	-0.256405	0.279011
H312	H	-0.281124	-0.356688	0.329147
H313	H	0.117290	-0.196956	-0.326627
C314	C	-0.584965	-0.534196	0.027344
C315	C	-0.535581	-0.594323	0.076293
C316	C	-0.505926	-0.653951	0.078539
C317	C	-0.525655	-0.653451	0.031837
C318	C	-0.575041	-0.593322	-0.017115
C319	C	-0.604696	-0.533695	-0.019362
H320	H	-0.520974	-0.594694	0.110868
H321	H	-0.469366	-0.698462	0.114777
H322	H	-0.503702	-0.697591	0.033500
H323	H	-0.589648	-0.592951	-0.051690
H324	H	-0.641256	-0.489183	-0.055600
C325	C	-0.454851	0.282995	-0.152026
C326	C	-0.465597	0.282538	-0.102635
C327	C	-0.495553	0.255099	-0.072981
C328	C	-0.514762	0.228118	-0.092719
C329	C	-0.504017	0.228574	-0.142113
C330	C	-0.474061	0.256013	-0.171766
H331	H	-0.451377	0.302511	-0.088021
H332	H	-0.503507	0.254761	-0.036417
H333	H	-0.536937	0.207806	-0.070768
H334	H	-0.518237	0.208600	-0.156727
H335	H	-0.466107	0.256350	-0.208331
C336	C	0.178078	-0.530525	0.256978
C337	C	0.178478	-0.501709	0.198945
C338	C	0.179287	-0.531331	0.170135
C339	C	0.179696	-0.589770	0.199357
C340	C	0.179295	-0.618590	0.257393
C341	C	0.178486	-0.588967	0.286204
H342	H	0.178176	-0.458446	0.177310
H343	H	0.179584	-0.509997	0.127172
H344	H	0.180295	-0.611698	0.178030
H345	H	0.179598	-0.661852	0.279028
H346	H	0.178190	-0.610302	0.329166
C347	C	-0.531093	0.602619	-0.485471
C348	C	-0.508002	0.600046	-0.529558
C349	C	-0.536832	0.657689	-0.587985
C350	C	-0.588754	0.717906	-0.602325
C351	C	-0.611848	0.720482	-0.558237
C352	C	-0.583018	0.662839	-0.499810
H353	H	-0.469564	0.555468	-0.518944
H354	H	-0.519736	0.655782	-0.620622
H355	H	-0.610097	0.760577	-0.645577
H356	H	-0.650287	0.765060	-0.568852
H357	H	-0.600114	0.664746	-0.467173
C358	C	-0.454148	-0.136441	-0.562136
C359	C	-0.473322	-0.070563	-0.608426
C360	C	-0.503101	-0.043026	-0.665809
C361	C	-0.513706	-0.081367	-0.676903
C362	C	-0.494531	-0.147249	-0.630612
C363	C	-0.464752	-0.174786	-0.573228
H364	H	-0.465473	-0.042178	-0.600215
H365	H	-0.517296	0.005744	-0.700077
H366	H	-0.535750	-0.060982	-0.719381
H367	H	-0.502381	-0.175634	-0.638823
H368	H	-0.450558	-0.223556	-0.538961
C369	C	-0.107188	-0.078887	-0.028311
C370	C	-0.055258	-0.116460	0.017551
C371	C	-0.026437	-0.086849	0.016746
C372	C	-0.049546	-0.019665	-0.029920
C373	C	-0.101479	0.017911	-0.075786
C374	C	-0.130300	-0.011700	-0.074981
H375	H	-0.038148	-0.166197	0.052100
H376	H	0.012008	-0.114666	0.050699
H377	H	-0.028211	0.002255	-0.030516
H378	H	-0.118588	0.067648	-0.110334
H379	H	-0.168745	0.016117	-0.108934
H380	H	-0.447073	0.678020	-0.547557
H381	H	-0.303007	0.534258	-0.403799
H382	H	-0.690492	-0.322048	0.019398
C383	C	-0.584601	-0.367802	0.027345
C384	C	-0.559621	-0.347761	-0.016018
C385	C	-0.529775	-0.320221	-0.013783
C386	C	-0.524909	-0.312723	0.031815
C387	C	-0.549889	-0.332765	0.075181
C388	C	-0.579736	-0.360305	0.072946
H389	H	-0.563223	-0.353311	-0.049775
H390	H	-0.511283	-0.305384	-0.045886
H391	H	-0.502815	-0.292336	0.033469
H392	H	-0.546288	-0.327215	0.108938
H393	H	-0.598228	-0.375142	0.105049
C394	C	-0.107191	-0.078925	0.256981
C395	C	-0.136402	-0.020487	0.198950
C396	C	-0.107585	0.009131	0.170145
C397	C	-0.049555	-0.019689	0.199371
C398	C	-0.020341	-0.078130	0.257405
C399	C	-0.049158	-0.107748	0.286210
H400	H	-0.179362	0.000850	0.177312
H401	H	-0.129212	0.052393	0.127184
H402	H	-0.028223	0.002236	0.178048
H403	H	0.022619	-0.099467	0.279043
H404	H	-0.027531	-0.151011	0.329171
C405	C	-0.507213	0.388089	-0.265622
C406	C	-0.519587	0.347365	-0.270489
C407	C	-0.576976	0.374984	-0.300334
C408	C	-0.621991	0.443328	-0.325312
C409	C	-0.609618	0.484057	-0.320445
C410	C	-0.552229	0.456437	-0.290600
H411	H	-0.486264	0.296769	-0.251999
H412	H	-0.586135	0.344834	-0.303937
H413	H	-0.664473	0.463773	-0.347405
H414	H	-0.642941	0.534652	-0.338935
H415	H	-0.543070	0.486588	-0.286997
H416	H	-0.523602	-0.412416	0.032492
H417	H	-0.114684	-0.230310	0.408133
C418	C	0.117089	-0.045585	-0.485484
C419	C	0.070426	0.021598	-0.529559
C420	C	0.069625	0.051210	-0.587991
C421	C	0.115487	0.013637	-0.602349
C422	C	0.162154	-0.053550	-0.558274
C423	C	0.162955	-0.083162	-0.499841
H424	H	0.036473	0.049415	-0.518932
H425	H	0.035078	0.100947	-0.620619
H426	H	0.114893	0.035557	-0.645604
H427	H	0.196106	-0.081367	-0.568901
H428	H	0.197501	-0.132899	-0.467214
H429	H	-0.523599	-0.053278	-0.470330
H430	H	-0.592359	0.480981	-0.357920
C431	C	-0.107204	-0.530506	0.423303
C432	C	-0.049174	-0.588943	0.452526
C433	C	-0.020373	-0.618574	0.510966
C434	C	-0.049600	-0.589767	0.540183
C435	C	-0.107633	-0.531326	0.510961
C436	C	-0.136434	-0.501696	0.452521
H437	H	-0.027536	-0.610271	0.430897
H438	H	0.022587	-0.661835	0.532598
H439	H	-0.028279	-0.611701	0.583444
H440	H	-0.129271	-0.509999	0.532589
H441	H	-0.179394	-0.458434	0.430888
H442	H	-0.348248	-0.619417	0.026742
C443	C	0.117081	-0.045595	-0.319131
C444	C	0.162946	-0.039542	-0.310810
C445	C	0.162136	-0.009935	-0.281984
C446	C	0.115460	0.013618	-0.261478
C447	C	0.069592	0.007566	-0.269797
C448	C	0.070402	-0.022041	-0.298624
H449	H	0.197501	-0.056978	-0.325990
H450	H	0.196091	-0.005455	-0.275825
H451	H	0.114861	0.035535	-0.240139
H452	H	0.035037	0.025003	-0.254617
H453	H	0.036447	-0.026521	-0.304783
H454	H	0.123023	-0.090311	-0.257863
C455	C	-0.698575	0.107987	-0.396107
C456	C	-0.748010	0.108477	-0.385499
C457	C	-0.777855	0.136083	-0.355722
C458	C	-0.758266	0.163199	-0.336552
C459	C	-0.708829	0.162710	-0.347159
C460	C	-0.678983	0.135104	-0.376937
H461	H	-0.762513	0.088403	-0.399690
H462	H	-0.814452	0.136445	-0.347869
H463	H	-0.780360	0.183635	-0.314509
H464	H	-0.694326	0.182783	-0.332969
H465	H	-0.642387	0.134741	-0.384789
C466	C	-0.454856	-0.717024	0.018826
C467	C	-0.431676	-0.785323	0.062191
C468	C	-0.461634	-0.812754	0.059965
C469	C	-0.514772	-0.771885	0.014374
C470	C	-0.537955	-0.703582	-0.028993
C471	C	-0.507997	-0.676151	-0.026767
H472	H	-0.392337	-0.815581	0.095942
H473	H	-0.444472	-0.863317	0.092068
H474	H	-0.536949	-0.792191	0.012726
H475	H	-0.577294	-0.673325	-0.062745
H476	H	-0.525159	-0.625588	-0.058871
C477	C	0.122467	-0.241589	-0.265259
C478	C	0.165828	-0.261768	-0.290197
C479	C	0.163600	-0.289496	-0.319856
C480	C	0.118011	-0.297046	-0.324578
C481	C	0.074647	-0.276867	-0.299639
C482	C	0.076874	-0.249139	-0.269980
H483	H	0.199579	-0.256179	-0.286703
H484	H	0.195702	-0.304434	-0.338317
H485	H	0.116362	-0.317572	-0.346533
H486	H	0.040896	-0.282455	-0.303134
H487	H	0.044773	-0.234201	-0.251519
H488	H	0.123031	0.009743	-0.357914
H489	H	-0.447080	-0.322039	0.019384
H490	H	-0.492305	-0.619125	0.026767
H491	H	-0.492305	-0.374951	0.026761
C492	C	0.130983	0.107638	-0.395362
C493	C	0.176574	0.066765	-0.342223
C494	C	0.178805	0.094191	-0.312262
C495	C	0.135444	0.162489	-0.335441
C496	C	0.089850	0.203366	-0.388582
C497	C	0.087619	0.175940	-0.418543
H498	H	0.208676	0.016203	-0.325063
H499	H	0.212557	0.063931	-0.272923
H500	H	0.137095	0.182791	-0.313262
H501	H	0.057748	0.253928	-0.405742
H502	H	0.053867	0.206200	-0.457882
H503	H	0.130421	0.100827	-0.547207
C504	C	-0.364740	-0.563800	0.032710
C505	C	-0.350374	-0.569875	-0.013147
C506	C	-0.291940	-0.599507	-0.012335
C507	C	-0.247872	-0.623064	0.034334
C508	C	-0.262237	-0.616990	0.080195
C509	C	-0.320671	-0.587357	0.079383
H510	H	-0.382997	-0.552436	-0.047698
H511	H	-0.281306	-0.604004	-0.046285
H512	H	-0.204615	-0.645000	0.034935
H513	H	-0.229614	-0.634429	0.114745
H514	H	-0.331304	-0.582861	0.113332
C515	C	-0.364739	-0.211914	-0.319155
C516	C	-0.320681	-0.209288	-0.342275
C517	C	-0.262237	-0.266891	-0.313451
C518	C	-0.247851	-0.327120	-0.261508
C519	C	-0.291910	-0.329748	-0.238385
C520	C	-0.350354	-0.272145	-0.267209
H521	H	-0.331329	-0.164701	-0.380729
H522	H	-0.229621	-0.264945	-0.330568
H523	H	-0.204587	-0.369761	-0.240171
H524	H	-0.281262	-0.374335	-0.199931
H525	H	-0.382970	-0.274091	-0.250092
H526	H	-0.302656	-0.287335	-0.159749
C527	C	-0.340464	0.465853	-0.343352
C528	C	-0.287325	0.407996	-0.331087
C529	C	-0.257370	0.348370	-0.273702
C530	C	-0.280554	0.346601	-0.228583
C531	C	-0.333696	0.404459	-0.240847
C532	C	-0.363651	0.464086	-0.298232
H533	H	-0.270161	0.409305	-0.364488
H534	H	-0.218031	0.305540	-0.264623
H535	H	-0.258380	0.302462	-0.186103
H536	H	-0.350861	0.403151	-0.207447
H537	H	-0.402991	0.506916	-0.307311
H538	H	-0.592670	0.625071	-0.501973
H539	H	-0.348250	-0.518687	0.026730
C540	C	0.130979	-0.135688	-0.562491
C541	C	0.084273	-0.069751	-0.608690
C542	C	0.086505	-0.042020	-0.666078
C543	C	0.135443	-0.080225	-0.677267
C544	C	0.182152	-0.146165	-0.631066
C545	C	0.179920	-0.173897	-0.573678
H546	H	0.048044	-0.041466	-0.600409
H547	H	0.051928	0.006794	-0.700279
H548	H	0.137095	-0.059696	-0.719748
H549	H	0.218381	-0.174450	-0.639347
H550	H	0.214497	-0.222710	-0.539477
H551	H	0.123059	0.010043	-0.501975
H552	H	0.123035	-0.090300	-0.502039
H553	H	0.123038	-0.234377	-0.358280
C554	C	-0.288108	-0.717365	0.018797
C555	C	-0.277011	-0.717856	-0.030147
C556	C	-0.219628	-0.745461	-0.032388
C557	C	-0.173342	-0.772575	0.014316
C558	C	-0.184438	-0.772085	0.063263
C559	C	-0.241821	-0.744480	0.065504
H560	H	-0.311276	-0.697784	-0.064723
H561	H	-0.211414	-0.745824	-0.068622
H562	H	-0.130863	-0.793010	0.012657
H563	H	-0.150173	-0.792157	0.097839
H564	H	-0.250035	-0.744118	0.101739
C565	C	-0.698567	0.693172	-0.562111
C566	C	-0.703419	0.751125	-0.574464
C567	C	-0.733265	0.810757	-0.631845
C568	C	-0.758259	0.812438	-0.676874
C569	C	-0.753408	0.754484	-0.664523
C570	C	-0.723562	0.694851	-0.607141
H571	H	-0.684917	0.749882	-0.541129
H572	H	-0.736856	0.853659	-0.640988
H573	H	-0.780353	0.856581	-0.719351
H574	H	-0.771910	0.755726	-0.697857
H575	H	-0.719971	0.651949	-0.597998
H576	H	0.130414	-0.286994	-0.159406
H577	H	-0.492302	0.625111	-0.502024
C578	C	-0.288107	0.282655	-0.151649
C579	C	-0.243089	0.214312	-0.126669
C580	C	-0.185703	0.186697	-0.096821
C581	C	-0.173335	0.227426	-0.091953
C582	C	-0.218355	0.295773	-0.116933
C583	C	-0.275741	0.323388	-0.146781
H584	H	-0.252243	0.184158	-0.130272
H585	H	-0.152377	0.136102	-0.078329
H586	H	-0.130855	0.206984	-0.069858
H587	H	-0.209201	0.325926	-0.113330
H588	H	-0.309067	0.373983	-0.165273
H589	H	-0.379918	0.443941	-0.326613
H590	H	-0.690815	-0.465790	0.019388
C591	C	-0.287746	-0.302823	-0.395387
C592	C	-0.241549	-0.302313	-0.376162
C593	C	-0.184161	-0.361930	-0.346203
C594	C	-0.172970	-0.422057	-0.335470
C595	C	-0.219169	-0.422570	-0.354696
C596	C	-0.276557	-0.362953	-0.384655
H597	H	-0.249832	-0.257801	-0.384106
H598	H	-0.149962	-0.361550	-0.331971
H599	H	-0.130488	-0.466189	-0.313293
H600	H	-0.210886	-0.467082	-0.346752
H601	H	-0.310756	-0.363333	-0.398887
H602	H	-0.348193	-0.234426	-0.257886
H603	H	-0.348193	-0.234430	-0.357937
H604	H	-0.491953	-0.090678	-0.502003
H605	H	-0.592365	0.009742	-0.502060
C606	C	-0.454155	-0.136442	-0.151679
C607	C	-0.464756	-0.174782	-0.102238
C608	C	-0.494534	-0.147242	-0.072394
C609	C	-0.513710	-0.081363	-0.091989
C610	C	-0.503108	-0.043019	-0.141432
C611	C	-0.473331	-0.070558	-0.171277
H612	H	-0.450561	-0.223553	-0.087730
H613	H	-0.502382	-0.175628	-0.035792
H614	H	-0.535753	-0.060977	-0.069896
H615	H	-0.517304	0.005752	-0.155940
H616	H	-0.465483	-0.042173	-0.207878
H617	H	-0.592678	0.010046	-0.358301
H618	H	-0.523604	0.443957	-0.326623
H619	H	-0.491961	-0.090687	-0.257571
H620	H	-0.348244	0.380614	-0.257539
