data_functionalizedCrystal
_audit_creation_method	'MofGen! by Chris Wilmer'
_symmetry_space_group_name_H-M	'P1'
_symmetry_Int_Tables_number	1
_symmetry_cell_setting	triclinic
loop_
_symmetry_equiv_pos_as_xyz
  x,y,z
_cell_length_a	19.121241
_cell_length_b	16.994746
_cell_length_c	19.120904
_cell_angle_alpha	87.557421
_cell_angle_beta	90.124528
_cell_angle_gamma	92.445635
loop_
_atom_site_label
_atom_site_type_symbol
_atom_site_fract_x
_atom_site_fract_y
_atom_site_fract_z
Zn1	Zn	1.054929	-0.284801	0.442325
Zn2	Zn	1.059876	-0.410858	0.325146
Zn3	Zn	0.942696	-0.284333	0.320094
Zn4	Zn	0.937687	-0.422033	0.437338
O5	O	0.998797	-0.350506	0.381226
O6	O	1.153692	-0.297042	0.430982
O7	O	1.048498	-0.389202	0.226369
O8	O	0.957610	-0.174011	0.336282
O9	O	1.157326	-0.389656	0.344891
O10	O	1.040067	-0.174355	0.426084
O11	O	0.962406	-0.296244	0.222658
O12	O	0.843925	-0.307080	0.331446
O13	O	0.949073	-0.408702	0.536106
O14	O	0.840245	-0.408248	0.417584
O15	O	1.035210	-0.307878	0.539770
O16	O	1.043641	-0.522724	0.340056
O17	O	0.953869	-0.530934	0.422482
C18	C	0.816647	-0.358826	0.373426
C19	C	0.738721	-0.362405	0.370106
C20	C	0.998757	-0.555450	0.381274
C21	C	0.998763	-0.644772	0.381280
Zn22	Zn	0.942816	-0.915386	0.319979
Zn23	Zn	1.059982	-0.778096	0.325229
Zn24	Zn	1.054861	-0.915894	0.442382
Zn25	Zn	0.937620	-0.789439	0.437232
O26	O	0.998820	-0.849704	0.381206
O27	O	0.962676	-0.892214	0.222575
O28	O	1.157403	-0.791841	0.345122
O29	O	1.040029	-1.026204	0.426103
O30	O	1.048757	-0.791349	0.226432
O31	O	0.957710	-1.025831	0.336174
O32	O	1.153640	-0.893080	0.431194
O33	O	1.034991	-0.904079	0.539799
O34	O	0.840209	-0.810681	0.417326
O35	O	0.948855	-0.811173	0.536015
O36	O	0.844027	-0.903213	0.331180
O37	O	1.043719	-0.669223	0.340128
O38	O	0.953820	-0.677557	0.422416
C39	C	0.700217	-0.315951	0.413437
C40	C	0.626999	-0.319310	0.410312
C41	C	0.592285	-0.369128	0.363857
C42	C	0.630794	-0.415583	0.320521
C43	C	0.704012	-0.412220	0.323644
C44	C	0.371310	-0.381688	0.352180
C45	C	0.298087	-0.385049	0.349062
C46	C	0.294296	-0.288774	0.438852
C47	C	0.367515	-0.285419	0.441974
C48	C	0.406018	-0.331871	0.398635
C49	C	0.517443	-0.372564	0.360663
C50	C	0.480859	-0.328430	0.401826
C51	C	1.181658	-0.342154	0.389057
C52	C	1.259583	-0.338595	0.392394
C53	C	0.991031	-0.359588	0.564087
C54	C	0.987722	-0.363459	0.642012
C55	C	0.998840	-0.144761	0.381173
C56	C	0.998862	-0.055437	0.381151
C57	C	1.006573	-0.341401	0.199078
C58	C	1.010018	-0.337302	0.121159
C59	C	1.031012	-0.312786	0.680530
C60	C	1.027894	-0.316420	0.753748
C61	C	0.981489	-0.370731	0.788447
C62	C	0.938194	-0.421406	0.749924
C63	C	0.941309	-0.417768	0.676707
C64	C	0.969838	-0.384339	1.009419
C65	C	0.966727	-0.387975	1.082641
C66	C	1.056427	-0.282987	1.086460
C67	C	1.059540	-0.279357	1.013242
C68	C	1.016243	-0.330029	0.974725
C69	C	0.978303	-0.374448	0.863288
C70	C	1.019427	-0.326307	0.899886
C71	C	0.990803	-0.858912	0.563343
C72	C	0.987357	-0.862833	0.641262
C73	C	0.815971	-0.858155	0.373093
C74	C	0.738051	-0.861757	0.369636
C75	C	1.006867	-0.840459	0.198356
C76	C	1.010297	-0.836520	0.120437
C77	C	1.180959	-0.841339	0.389247
C78	C	1.258884	-0.837951	0.392570
C79	C	0.940956	-0.816221	0.675871
C80	C	0.937705	-0.819906	0.749083
C81	C	0.980857	-0.870198	0.787685
C82	C	1.027259	-0.916815	0.753072
C83	C	1.030507	-0.913135	0.679861
C84	C	0.703443	-0.911631	0.323161
C85	C	0.630229	-0.915032	0.319913
C86	C	0.591625	-0.868553	0.363137
C87	C	0.626238	-0.818676	0.409617
C88	C	0.699451	-0.815281	0.412868
C89	C	0.967084	-0.887186	0.081833
C90	C	0.970292	-0.883485	0.008619
C91	C	1.016717	-0.829122	-0.025990
C92	C	1.059932	-0.778451	0.012620
C93	C	1.056719	-0.782148	0.085832
C94	C	1.293475	-0.888726	0.439267
C95	C	1.366694	-0.885558	0.442390
C96	C	1.405320	-0.831611	0.398818
C97	C	1.370725	-0.780834	0.352116
C98	C	1.297507	-0.784006	0.348990
H99	H	0.728476	-0.275386	0.451267
H100	H	0.602524	-0.456142	0.282694
H101	H	1.019327	-0.826120	-0.085604
H102	H	1.394851	-0.926907	0.480423
H103	H	0.727623	-0.774663	0.450711
H104	H	0.928937	-0.432204	1.110891
C105	C	1.074566	-0.972319	0.795538
N106	N	1.110141	-1.014188	0.827524
C107	C	1.075518	-0.260676	0.796114
N108	N	1.111391	-0.218687	0.828024
C109	C	0.922754	-0.939234	-0.033838
N110	N	0.886948	-0.981225	-0.065814
H111	H	1.262035	-0.932656	0.474753
C112	C	1.110999	-0.718657	-0.025461
N113	N	1.149467	-0.673624	-0.054146
H114	H	0.905816	-0.775263	0.644450
H115	H	1.091912	-0.740891	0.117258
C116	C	1.485862	-0.828143	0.402254
N117	N	1.546527	-0.825538	0.404842
C118	C	0.927254	-0.434185	0.901464
N119	N	0.888800	-0.479174	0.930220
H120	H	0.978206	-0.873187	0.847298
H121	H	1.402185	-0.736911	0.316642
C122	C	1.082061	-0.253038	0.642368
N123	N	1.120510	-0.208031	0.613626
C124	C	0.511090	-0.872289	0.359546
N125	N	0.450431	-0.875103	0.356835
H126	H	1.269349	-0.742654	0.310966
H127	H	0.395774	-0.244855	0.479804
C128	C	0.584647	-0.268209	0.457982
N129	N	0.552749	-0.229717	0.493890
C130	C	0.583764	-0.767535	0.457145
N131	N	0.551769	-0.729007	0.492935
H132	H	0.262940	-0.250954	0.474135
C133	C	0.259903	-0.439855	0.297957
N134	N	0.231143	-0.481134	0.259467
H135	H	1.097330	-0.235133	0.984995
H136	H	0.735361	-0.450047	0.288358
C137	C	0.413653	-0.432791	0.304508
N138	N	0.445549	-0.471286	0.268601
C139	C	0.887141	-0.481142	0.788095
N140	N	0.848687	-0.526136	0.816845
C141	C	1.104042	-0.227242	1.128834
N142	N	1.139904	-0.185248	1.160750
C143	C	0.893688	-0.473514	0.634338
N144	N	0.857816	-0.515502	0.602426
H145	H	0.509126	-0.287866	0.439646
C146	C	0.886665	-0.768612	0.787144
N147	N	0.848223	-0.729974	0.815810
H148	H	0.734865	-0.949482	0.287960
C149	C	1.081574	-0.964392	0.641800
N150	N	1.120045	-1.002995	0.613137
C151	C	0.592169	-0.969892	0.268772
N152	N	0.563505	-1.011210	0.230250
H153	H	0.489171	-0.413126	0.322840
C154	C	0.916006	-0.946989	0.119888
N155	N	0.877528	-0.992032	0.148547
H156	H	1.057206	-0.282084	0.871630
H157	H	0.934592	-0.425611	0.978068
