data_functionalizedCrystal
_audit_creation_method	'MofGen! by Chris Wilmer'
_symmetry_space_group_name_H-M	'P1'
_symmetry_Int_Tables_number	1
_symmetry_cell_setting	triclinic
loop_
_symmetry_equiv_pos_as_xyz
  x,y,z
_cell_length_a	13.185407
_cell_length_b	19.188924
_cell_length_c	11.804365
_cell_angle_alpha	101.787608
_cell_angle_beta	82.231191
_cell_angle_gamma	67.557724
loop_
_atom_site_label
_atom_site_type_symbol
_atom_site_fract_x
_atom_site_fract_y
_atom_site_fract_z
O1	O	1.469951	-0.200301	-0.098977
O2	O	1.152116	-0.129468	-0.098992
O3	O	1.320206	-0.268244	-0.098970
O4	O	1.301861	-0.061525	-0.098999
O5	O	1.275955	-0.231738	0.099081
O6	O	1.107865	-0.092962	0.099059
O7	O	1.425699	-0.163795	0.099074
Cu8	Cu	1.262742	-0.125045	0.117150
Cu9	Cu	1.315074	-0.168218	-0.117068
O10	O	1.257609	-0.025019	0.099052
C11	C	1.089328	-0.104034	0.000032
C12	C	0.968166	-0.082646	0.000027
C13	C	0.679885	-0.286774	0.000060
C14	C	0.793721	-0.306870	0.000073
C15	C	0.837338	-0.250816	0.000061
C16	C	0.767107	-0.174662	0.000037
C17	C	0.653257	-0.154561	0.000034
C18	C	0.810711	-0.118603	0.000035
C19	C	0.740480	-0.042449	0.000011
C20	C	0.626642	-0.022352	0.000007
C21	C	0.583025	-0.078407	0.000019
C22	C	0.924561	-0.138704	0.000038
C23	C	0.897933	-0.006491	0.000012
C24	C	0.784097	0.013605	-0.000001
C25	C	1.297487	-0.275892	0.000057
C26	C	1.295706	-0.353065	0.000060
C27	C	1.318997	-0.409209	-0.107898
C28	C	1.317311	-0.481719	-0.107907
C29	C	1.292355	-0.498088	0.000048
C30	C	1.269055	-0.441931	0.108019
C31	C	1.270731	-0.369419	0.108025
N32	N	1.333882	-0.614001	0.080398
N33	N	1.332294	-0.682885	0.080385
C34	C	1.287301	-0.716559	0.000036
N35	N	1.243975	-0.678753	-0.080318
N36	N	1.245569	-0.609863	-0.080308
C37	C	1.290534	-0.576712	0.000053
C38	C	1.308764	-0.851328	-0.107939
C39	C	1.307070	-0.923837	-0.107944
C40	C	1.258824	-0.884050	0.107986
C41	C	1.260508	-0.811540	0.107987
C42	C	1.285484	-0.795185	0.000022
C43	C	1.488488	-0.189229	0.000048
C44	C	1.609652	-0.210619	0.000045
C45	C	1.280329	-0.017372	0.000023
C46	C	1.282112	0.059800	0.000012
N47	N	1.225942	-0.094682	0.281885
N48	N	1.351883	-0.198588	-0.281803
C49	C	1.440253	-0.271515	0.655862
C50	C	1.468091	-0.294488	0.531204
C51	C	1.407556	-0.244538	0.468868
C52	C	1.319178	-0.171612	0.531203
C53	C	1.291343	-0.148635	0.655873
C54	C	1.258646	-0.121658	0.468879
C55	C	1.170269	-0.048732	0.531214
C56	C	1.142438	-0.025758	0.655872
C57	C	1.202973	-0.075708	0.718208
C58	C	1.286481	-0.144635	0.344209
C59	C	1.137571	-0.021755	0.344220
C60	C	1.109733	0.001218	0.468878
H61	H	0.933444	0.039154	0.000006
C62	C	0.631901	-0.348424	0.000078
C63	C	0.534316	-0.333819	0.102925
C64	C	0.486330	-0.395473	0.102946
C65	C	0.535930	-0.471733	0.000119
C66	C	0.633520	-0.486341	-0.102736
C67	C	0.681506	-0.424687	-0.102757
H68	H	0.497595	-0.277364	0.179051
H69	H	0.414087	-0.384659	0.179086
H70	H	0.500408	-0.517373	0.000134
H71	H	0.670242	-0.542796	-0.178862
H72	H	0.753749	-0.435502	-0.178897
C73	C	1.231390	-0.902058	0.226733
C74	C	1.306493	-0.901419	0.315790
C75	C	1.279063	-0.919434	0.434538
C76	C	1.176529	-0.938089	0.464229
C77	C	1.101419	-0.938728	0.375170
C78	C	1.128850	-0.920713	0.256422
H79	H	1.382401	-0.887609	0.293813
H80	H	1.334665	-0.918961	0.500466
H81	H	1.156224	-0.951425	0.552134
H82	H	1.025512	-0.952538	0.397147
H83	H	1.073248	-0.921186	0.190494
H84	H	1.037775	0.060596	0.519646
C85	C	1.332692	-0.985598	-0.226708
C86	C	1.447590	-1.017776	-0.315755
C87	C	1.473214	-1.079538	-0.434521
C88	C	1.383941	-1.109122	-0.464241
C89	C	1.269035	-1.076944	-0.375192
C90	C	1.243411	-1.015182	-0.256425
H91	H	1.513682	-0.995877	-0.293756
H92	H	1.558275	-1.103358	-0.500441
H93	H	1.402909	-1.154842	-0.552160
H94	H	1.202943	-1.098844	-0.397191
H95	H	1.158350	-0.991362	-0.190506
H96	H	0.569459	0.039660	-0.000000
C97	C	0.706833	0.097375	-0.000017
C98	C	0.647883	0.110410	-0.102865
C99	C	0.570619	0.194179	-0.102882
C100	C	0.552303	0.264913	-0.000050
C101	C	0.611254	0.251880	0.102805
C102	C	0.688519	0.168111	0.102822
H103	H	0.661440	0.058047	-0.178994
H104	H	0.526979	0.203827	-0.179023
H105	H	0.495107	0.326924	-0.000062
H106	H	0.597697	0.304243	0.178934
H107	H	0.732158	0.158464	0.178963
H108	H	1.339331	-0.395898	-0.195812
H109	H	0.490332	-0.062049	0.000003
H110	H	1.336271	-0.527438	-0.195822
H111	H	1.540048	-0.353863	0.480456
H112	H	1.248732	-0.455262	0.195917
C113	C	1.336222	-0.833329	-0.226697
C114	C	1.249255	-0.763213	-0.256389
C115	C	1.276712	-0.745217	-0.375149
C116	C	1.391135	-0.797338	-0.464216
C117	C	1.478110	-0.867459	-0.434526
C118	C	1.450653	-0.885455	-0.315767
H119	H	1.164545	-0.724625	-0.190454
H120	H	1.212327	-0.693308	-0.397126
H121	H	1.411460	-0.784016	-0.552129
H122	H	1.562820	-0.906046	-0.500461
H123	H	1.515038	-0.937363	-0.293789
C124	C	1.234909	-0.749782	0.226744
C125	C	1.207461	-0.767782	0.345495
C126	C	1.181859	-0.706023	0.464258
C127	C	1.183706	-0.626263	0.464270
C128	C	1.211155	-0.608259	0.345514
C129	C	1.236756	-0.670018	0.226751
H130	H	1.206093	-0.826828	0.345491
H131	H	1.161540	-0.719351	0.552169
H132	H	1.164754	-0.580545	0.552185
H133	H	1.212523	-0.549213	0.345519
H134	H	1.257076	-0.656690	0.138841
H135	H	1.489539	-0.312175	0.706624
C136	C	1.045230	0.054462	0.724446
C137	C	0.924769	0.073440	0.707335
C138	C	0.827561	0.153659	0.775908
C139	C	0.850816	0.214901	0.861593
C140	C	0.971283	0.195924	0.878709
C141	C	1.068490	0.115705	0.810135
H142	H	0.907549	0.028103	0.643902
H143	H	0.738384	0.167706	0.763238
H144	H	0.778857	0.274284	0.912356
H145	H	0.988502	0.241261	0.942141
H146	H	1.157668	0.101658	0.822805
H147	H	1.088280	0.018920	0.293467
H148	H	1.251759	-0.323703	0.195940
C149	C	0.870974	-0.390637	0.000086
C150	C	0.823007	-0.452299	0.000089
C151	C	0.900264	-0.536071	0.000098
C152	C	1.025487	-0.558182	0.000103
C153	C	1.073461	-0.496519	0.000100
C154	C	0.996204	-0.412747	0.000091
H155	H	0.730304	-0.435932	0.000086
H156	H	0.864750	-0.581718	0.000100
H157	H	1.082677	-0.620196	0.000109
H158	H	1.166165	-0.512886	0.000103
H159	H	1.031718	-0.367100	0.000089
H160	H	1.358438	-0.204012	0.293467
H161	H	1.430225	-0.263246	0.367366
H162	H	1.180305	-0.057005	0.819715
H163	H	0.930030	-0.267183	0.000071
C164	C	1.001808	-0.222471	0.000055
C165	C	0.974154	-0.255285	0.102905
C166	C	1.051403	-0.339058	0.102919
C167	C	1.156307	-0.390017	0.000083
C168	C	1.183965	-0.357203	-0.102775
C169	C	1.106716	-0.273430	-0.102789
H170	H	0.896494	-0.217562	0.179037
H171	H	1.030928	-0.363349	0.179062
H172	H	1.213491	-0.452031	0.000093
H173	H	1.261625	-0.394926	-0.178908
H174	H	1.127192	-0.249139	-0.178932
