data_functionalizedCrystal
_audit_creation_method	'MofGen! by Chris Wilmer'
_symmetry_space_group_name_H-M	'P1'
_symmetry_Int_Tables_number	1
_symmetry_cell_setting	triclinic
loop_
_symmetry_equiv_pos_as_xyz
  x,y,z
_cell_length_a	14.971486
_cell_length_b	14.971506
_cell_length_c	13.448316
_cell_angle_alpha	90.001849
_cell_angle_beta	90.000041
_cell_angle_gamma	96.381742
loop_
_atom_site_label
_atom_site_type_symbol
_atom_site_fract_x
_atom_site_fract_y
_atom_site_fract_z
O1	O	-1.186954	0.116559	0.082576
O2	O	-0.926555	0.130517	0.082602
O3	O	-1.063724	-0.006661	0.082584
O4	O	-1.049784	0.253737	0.082594
O5	O	-1.063711	-0.006659	-0.082800
O6	O	-0.926541	0.130519	-0.082781
O7	O	-1.186940	0.116560	-0.082808
Cu8	Cu	-1.056740	0.123540	-0.097896
Cu9	Cu	-1.056756	0.123538	0.097690
O10	O	-1.049771	0.253738	-0.082790
C11	C	-0.893223	0.129894	-0.000086
C12	C	-0.793926	0.128023	-0.000076
C13	C	-1.063091	-0.039984	-0.000107
C14	C	-1.061213	-0.139281	-0.000104
C15	C	-1.220272	0.117184	-0.000118
C16	C	-1.319569	0.119054	-0.000121
C17	C	-1.050404	0.287062	-0.000097
C18	C	-1.052282	0.386358	-0.000093
C19	C	-0.736707	0.208612	-0.000074
C20	C	-0.643407	0.206849	-0.000089
C21	C	-0.607329	0.124496	-0.000098
C22	C	-0.664556	0.043901	-0.000103
C23	C	-0.757853	0.045665	-0.000095
C24	C	-0.470093	0.040230	-0.000117
C25	C	-0.376789	0.038466	-0.000123
C26	C	-0.355647	0.201414	-0.000111
C27	C	-0.448944	0.203178	-0.000103
C28	C	-0.506165	0.122582	-0.000106
C29	C	-0.978864	0.824641	-0.000097
C30	C	-0.977107	0.731340	-0.000101
C31	C	-1.057699	0.674121	-0.000104
C32	C	-1.140054	0.710205	-0.000115
C33	C	-1.141811	0.803504	-0.000118
C34	C	-1.136387	0.515742	-0.000105
C35	C	-1.134631	0.422437	-0.000100
C36	C	-0.971683	0.443579	-0.000088
C37	C	-0.973440	0.536877	-0.000091
C38	C	-1.055795	0.572955	-0.000100
N39	N	-1.056735	0.123540	-0.235460
C40	C	-1.002461	0.069190	-0.712704
C41	C	-1.002458	0.069188	-0.608601
C42	C	-1.056757	0.123530	-0.556541
C43	C	-1.111070	0.177872	-0.608590
C44	C	-1.111077	0.177870	-0.712692
C45	C	-1.111049	0.177876	-0.391610
C46	C	-1.111041	0.177880	-0.287502
C47	C	-1.002431	0.069194	-0.287519
C48	C	-1.002438	0.069191	-0.391621
C49	C	-1.056749	0.123535	-0.443663
N50	N	-1.056767	0.123530	0.235254
H51	H	-0.596822	0.272472	-0.000086
H52	H	-0.635173	-0.023152	-0.000125
N53	N	-0.816292	-0.036662	-0.000108
N54	N	-0.784071	-0.110186	-0.000122
H55	H	-0.825342	-0.168334	-0.000137
H56	H	-1.155299	0.222119	-0.755063
H57	H	-1.208868	0.832877	-0.000126
N58	N	-1.166551	0.233361	-0.555407
N59	N	-1.225639	0.198522	-0.497315
H60	H	-1.264824	0.237709	-0.459752
H61	H	-0.958218	0.024945	-0.434005
N62	N	-0.297215	0.283749	-0.000124
N63	N	-0.329439	0.357272	-0.000113
H64	H	-0.288170	0.415421	-0.000119
H65	H	-0.478316	0.270236	-0.000085
H66	H	-1.205674	0.663609	-0.000124
H67	H	-0.347417	-0.028593	-0.000132
H68	H	-1.155253	0.222134	-0.245118
N69	N	-0.892995	0.694476	-0.000098
N70	N	-0.873827	0.644772	-0.069810
H71	H	-0.814419	0.618737	-0.069810
N72	N	-1.220518	0.552581	-0.000126
N73	N	-1.292471	0.501485	-0.000131
H74	H	-1.351888	0.527502	-0.000143
H75	H	-1.200257	0.375850	-0.000098
H76	H	-0.516680	-0.025399	-0.000121
N77	N	-0.896540	0.883087	-0.000069
N78	N	-0.841799	0.879745	0.069652
H79	H	-0.783655	0.921022	0.069672
N80	N	-0.891110	0.595315	-0.000077
N81	N	-0.817586	0.563094	-0.000070
H82	H	-0.759439	0.604365	-0.000062
H83	H	-1.155277	0.222126	-0.433980
H84	H	-0.958240	0.024943	-0.755083
N85	N	-0.887565	0.406718	-0.000095
N86	N	-0.868400	0.357015	-0.069809
H87	H	-0.808993	0.330978	-0.069811
N88	N	-0.773540	0.292742	-0.000055
N89	N	-0.722437	0.364689	-0.000056
H90	H	-0.748447	0.424110	-0.000045
N91	N	-0.946962	0.013694	-0.555457
N92	N	-0.898467	-0.034805	-0.601950
H93	H	-0.859263	-0.073993	-0.564419
N94	N	-0.946954	0.013691	-0.234350
N95	N	-0.946954	0.013697	-0.141403
H96	H	-0.907771	-0.025496	-0.103847
