data_functionalizedCrystal
_audit_creation_method	'MofGen! by Chris Wilmer'
_symmetry_space_group_name_H-M	'P1'
_symmetry_Int_Tables_number	1
_symmetry_cell_setting	triclinic
loop_
_symmetry_equiv_pos_as_xyz
  x,y,z
_cell_length_a	14.519709
_cell_length_b	13.596369
_cell_length_c	11.792241
_cell_angle_alpha	89.993871
_cell_angle_beta	83.936780
_cell_angle_gamma	90.000816
loop_
_atom_site_label
_atom_site_type_symbol
_atom_site_fract_x
_atom_site_fract_y
_atom_site_fract_z
O1	O	-1.224413	0.081652	-0.148782
O2	O	-0.956000	0.081684	-0.166303
O3	O	-1.096720	0.081660	0.007664
O4	O	-1.083693	0.081676	-0.322749
O5	O	-1.096706	-0.081923	0.007673
O6	O	-0.955986	-0.081898	-0.166294
O7	O	-1.224399	-0.081931	-0.148773
Zn8	Zn	-1.090190	-0.107887	-0.157532
Zn9	Zn	-1.090209	0.107640	-0.157544
O10	O	-1.083679	-0.081907	-0.322740
C11	C	-0.921630	-0.000103	-0.165482
C12	C	-0.819240	-0.000091	-0.163035
C13	C	-0.444311	-0.000132	-0.154027
C14	C	-0.548628	-0.000120	-0.156528
C15	C	-0.631772	-0.000110	-0.158531
C16	C	-0.736096	-0.000100	-0.161033
N17	N	-1.090184	-0.254979	-0.157523
C18	C	-1.090208	-0.656270	-0.157545
C19	C	-1.090198	-0.544619	-0.157543
C20	C	-1.090196	-0.455628	-0.157535
C21	C	-1.090186	-0.343970	-0.157531
C22	C	-0.258769	-0.000139	-0.149594
C23	C	-0.361159	-0.000138	-0.152041
C24	C	-1.095895	-0.000131	0.049955
C25	C	-1.093446	-0.000129	0.175955
N26	N	-1.090222	0.254732	-0.157544
C27	C	-1.084504	-0.000114	-0.365031
C28	C	-1.086954	-0.000109	-0.491031
C29	C	-1.088942	-0.000112	0.406642
C30	C	-1.091444	-0.000122	0.278271
