data_functionalizedCrystal
_audit_creation_method	'MofGen! by Chris Wilmer'
_symmetry_space_group_name_H-M	'P1'
_symmetry_Int_Tables_number	1
_symmetry_cell_setting	triclinic
loop_
_symmetry_equiv_pos_as_xyz
  x,y,z
_cell_length_a	8.559649
_cell_length_b	10.868271
_cell_length_c	8.597278
_cell_angle_alpha	82.294856
_cell_angle_beta	102.374898
_cell_angle_gamma	90.004136
loop_
_atom_site_label
_atom_site_type_symbol
_atom_site_fract_x
_atom_site_fract_y
_atom_site_fract_z
O1	O	2.119297	0.096669	0.053142
O2	O	2.619297	0.596669	0.553142
O3	O	1.655358	0.105251	-0.027759
O4	O	2.155358	0.605251	0.472241
O5	O	1.896455	0.076620	0.242260
O6	O	2.396455	0.576620	0.742260
O7	O	1.878199	0.125300	-0.216877
O8	O	2.378199	0.625300	0.283123
O9	O	1.896435	-0.128026	0.242267
O10	O	2.396435	0.371974	0.742267
O11	O	1.655337	-0.099395	-0.027752
O12	O	2.155337	0.400605	0.472248
O13	O	2.119276	-0.107976	0.053149
O14	O	2.619276	0.392024	0.553149
Zn15	Zn	1.887304	-0.136177	0.012699
Zn16	Zn	2.387304	0.363823	0.512699
Zn17	Zn	1.887330	0.133452	0.012690
Zn18	Zn	2.387330	0.633452	0.512690
O19	O	1.878179	-0.079345	-0.216870
O20	O	2.378179	0.420655	0.283130
C21	C	1.595913	0.003579	-0.033886
C22	C	2.095913	0.503579	0.466114
C23	C	1.418819	0.005515	-0.052136
C24	C	1.918819	0.505515	0.447864
N25	N	1.887297	-0.320192	0.012708
N26	N	2.387297	0.179808	0.512708
C27	C	1.887322	-0.571197	0.012693
C28	C	2.387322	-0.071197	0.512693
C29	C	1.887303	-0.431520	0.012696
C30	C	2.387303	0.068480	0.512696
C31	C	2.178721	-0.006302	0.059276
C32	C	2.678721	0.493698	0.559276
C33	C	2.355815	-0.008230	0.077525
C34	C	2.855815	0.491770	0.577525
C35	C	1.894483	-0.031875	0.300499
C36	C	2.394483	0.468125	0.800499
C37	C	1.888618	-0.050265	0.474020
C38	C	2.388618	0.449735	0.974020
N39	N	1.887349	0.317465	0.012696
N40	N	2.387349	0.817465	0.512696
C41	C	1.880151	0.029152	-0.275109
C42	C	2.380151	0.529152	0.224891
C43	C	1.886016	0.047550	-0.448630
C44	C	2.386016	0.547550	0.051370
H45	H	1.437358	-0.021474	0.202495
H46	H	1.937358	0.478526	0.702495
N47	N	1.888865	0.170279	0.467948
N48	N	2.388865	0.670279	0.967948
N49	N	1.886430	0.262242	0.540595
N50	N	2.386430	0.762242	1.040595
H51	H	1.888445	0.348920	0.481680
H52	H	2.388445	0.848920	0.981680
H53	H	1.337267	0.018773	-0.177114
H54	H	1.837267	0.518773	0.322886
H55	H	1.886352	-0.148081	0.540543
H56	H	2.386352	0.351919	1.040543
