data_functionalizedCrystal
_audit_creation_method	'MofGen! by Chris Wilmer'
_symmetry_space_group_name_H-M	'P1'
_symmetry_Int_Tables_number	1
_symmetry_cell_setting	triclinic
loop_
_symmetry_equiv_pos_as_xyz
  x,y,z
_cell_length_a	16.704493
_cell_length_b	23.196402
_cell_length_c	23.196401
_cell_angle_alpha	60.008822
_cell_angle_beta	85.850003
_cell_angle_gamma	57.657816
loop_
_atom_site_label
_atom_site_type_symbol
_atom_site_fract_x
_atom_site_fract_y
_atom_site_fract_z
Zr1	Zr	0.773230	0.630993	-0.116049
O2	O	0.645042	0.751260	-0.201394
O3	O	0.812523	0.510727	-0.089890
O4	O	0.812488	0.630994	-0.210153
O5	O	0.645109	0.630992	0.013739
O6	O	0.944575	0.630993	-0.217058
O7	O	0.645078	0.630993	-0.081131
O8	O	0.944639	0.415857	-0.001929
O9	O	0.645046	0.846128	-0.201391
O10	O	0.927861	0.560192	-0.083882
O11	O	0.829309	0.560192	-0.007929
O12	O	0.829267	0.701791	-0.149523
O13	O	0.730715	0.701791	-0.073570
Zr14	Zr	0.983945	0.630989	0.024244
Zr15	Zr	0.983895	0.630991	-0.127062
Zr16	Zr	0.773281	0.630990	0.035257
Zr17	Zr	0.773236	0.782295	-0.116043
Zr18	Zr	0.983939	0.479686	0.024238
O19	O	0.944652	0.751255	-0.001915
O20	O	0.944580	0.751258	-0.217053
O21	O	0.645114	0.751257	0.013744
O22	O	1.112133	0.510721	0.109590
O23	O	1.112061	0.510724	-0.105549
O24	O	0.812595	0.510723	0.125248
O25	O	1.112066	0.630989	-0.105544
O26	O	0.944687	0.630987	0.118348
O27	O	0.812600	0.630989	0.125253
O28	O	1.112097	0.630988	-0.010674
O29	O	0.812496	0.846126	-0.210144
O30	O	0.944679	0.415855	0.118339
O31	O	1.112129	0.415854	0.109586
O32	O	1.112089	0.415855	-0.010683
O33	O	0.645086	0.846126	-0.081122
O34	O	0.812536	0.846124	-0.089876
O35	O	0.927908	0.560190	0.057718
O36	O	1.026460	0.560190	-0.018235
O37	O	0.927866	0.701789	-0.083876
O38	O	0.829314	0.701789	-0.007923
C39	C	0.878580	0.441734	-0.045910
C40	C	0.878578	0.377502	-0.045913
C41	C	0.615079	0.630993	-0.032127
C42	C	0.525646	0.630993	-0.027452
C43	C	0.930014	0.347332	-0.085562
C44	C	0.930024	0.286971	-0.085557
C45	C	0.878578	0.256794	-0.045911
C46	C	0.827139	0.286969	-0.006254
C47	C	0.827139	0.347323	-0.006255
C48	C	0.792387	0.194766	-0.046680
C49	C	0.792384	0.134416	-0.046684
C50	C	0.878579	0.070640	-0.045904
C51	C	0.964776	0.067227	-0.045134
C52	C	0.964776	0.127581	-0.045135
C53	C	0.878572	0.191350	-0.045905
C54	C	0.930030	-0.024982	-0.085549
C55	C	0.930042	-0.085348	-0.085539
C56	C	0.827148	-0.085343	-0.006240
C57	C	0.827146	-0.024985	-0.006246
C58	C	0.878584	0.005195	-0.045905
C59	C	0.357567	0.630982	-0.123202
C60	C	0.273537	0.630982	-0.118812
C61	C	0.273559	0.630990	-0.014280
C62	C	0.357589	0.630989	-0.018670
C63	C	0.399589	0.630986	-0.073133
C64	C	0.483616	0.630991	-0.077525
C65	C	0.483641	0.630993	0.027009
C66	C	0.399611	0.630994	0.031399
C67	C	1.142097	0.630988	-0.059678
C68	C	1.231529	0.630988	-0.064353
C69	C	0.878525	0.630994	-0.235164
C70	C	0.878503	0.630995	-0.299397
C71	C	0.878595	0.820247	-0.045895
C72	C	0.878597	0.884479	-0.045892
C73	C	0.827043	0.704905	-0.363834
C74	C	0.827068	0.704906	-0.424191
C75	C	0.878540	0.630992	-0.420105
C76	C	0.930011	0.557072	-0.355656
C77	C	0.929993	0.557073	-0.295302
C78	C	0.871228	0.574365	-0.487043
C79	C	0.871239	0.574367	-0.547397
C80	C	0.878602	0.630986	-0.606256
C81	C	0.885933	0.687618	-0.604760
C82	C	0.885915	0.687619	-0.544406
C83	C	0.878566	0.630983	-0.485545
C84	C	0.827166	0.704903	-0.736141
C85	C	0.827198	0.704901	-0.796498
C86	C	0.930135	0.557065	-0.727961
C87	C	0.930109	0.557069	-0.667607
C88	C	0.878620	0.630990	-0.671702
C89	C	0.878651	0.630988	0.143359
C90	C	0.878672	0.630987	0.207592
C91	C	1.142089	0.441732	-0.059686
C92	C	1.231519	0.377500	-0.064363
C93	C	0.878643	0.441731	0.143351
C94	C	0.878662	0.377499	0.207582
C95	C	1.142152	0.441729	0.129576
C96	C	1.231604	0.377496	0.189131
C97	C	0.615023	0.820252	-0.221380
C98	C	0.525571	0.884486	-0.280936
C99	C	0.615086	0.820249	-0.032119
C100	C	0.525656	0.884482	-0.027442
C101	C	0.878532	0.820250	-0.235156
C102	C	0.878513	0.884483	-0.299387
C103	C	1.222049	0.347336	-0.100834
C104	C	1.306070	0.286991	-0.105243
C105	C	1.399561	0.256807	-0.073177
C106	C	1.409029	0.286976	-0.036706
C107	C	1.325009	0.347324	-0.032301
C108	C	0.930139	0.347333	0.272019
C109	C	0.930153	0.286988	0.332376
C110	C	0.878696	0.256805	0.328295
C111	C	0.827213	0.286977	0.263852
C112	C	0.827193	0.347325	0.203496
C113	C	1.325063	0.347331	0.177452
C114	C	1.409120	0.286985	0.233404
C115	C	1.399716	0.256801	0.301036
C116	C	1.306247	0.286972	0.312714
C117	C	1.222192	0.347320	0.256762
C118	C	0.432112	0.914657	-0.269257
C119	C	0.348055	0.975022	-0.325209
C120	C	0.357459	1.005209	-0.392841
C121	C	0.450928	0.975035	-0.404519
C122	C	0.534983	0.914676	-0.348567
C123	C	0.535126	0.914651	0.009022
C124	C	0.451105	0.975013	0.013415
C125	C	0.357615	1.005200	-0.018653
C126	C	0.348146	0.975028	-0.055122
C127	C	0.432166	0.914671	-0.059518
C128	C	0.929980	0.914646	-0.295284
C129	C	0.929982	0.974992	-0.355630
C130	C	0.878509	1.005177	-0.420080
C131	C	0.827040	0.975007	-0.424181
C132	C	0.827045	0.914659	-0.363835
H133	H	0.971901	0.371901	-0.117852
H134	H	1.485219	0.262426	0.223883
H135	H	0.272015	0.999615	-0.081230
H136	H	1.332734	0.371875	-0.002599
H137	H	0.424436	0.890082	-0.214192
H138	H	0.271956	0.999580	-0.315687
H139	H	0.391758	0.630988	-0.167551
H140	H	0.972042	0.371901	0.275355
H141	H	0.971895	0.890079	-0.242811
H142	H	0.239326	0.630977	-0.159581
H143	H	1.298605	0.262387	0.367787
H144	H	0.785133	0.999593	-0.476664
H145	H	1.468167	0.207661	0.346589
H146	H	0.785251	0.371888	0.026033
H147	H	0.971934	-0.109916	-0.117824
H148	H	0.239357	0.630984	0.030066
H149	H	1.034961	0.124798	-0.044507
H150	H	1.298342	0.262435	-0.134941
H151	H	0.971899	0.496884	-0.242833
H152	H	0.785260	-0.109913	0.026040
H153	H	0.972080	0.262430	0.384843
H154	H	0.365407	0.630993	0.075743
H155	H	0.289208	1.054346	-0.015068
H156	H	0.289008	1.054358	-0.438394
H157	H	0.517862	0.631000	0.067776
H158	H	0.785121	0.765098	-0.367175
H159	H	0.611243	0.890078	0.035141
H160	H	0.785161	0.765095	-0.476666
H161	H	0.458834	0.999569	0.043114
H162	H	1.332739	0.371898	0.122387
H163	H	0.785130	0.890106	-0.367186
H164	H	0.971892	0.999549	-0.352277
H165	H	1.034967	0.015293	-0.044491
H166	H	0.424441	0.890109	-0.089208
H167	H	0.785252	0.262394	0.026027
H168	H	0.971911	0.262402	-0.117845
H169	H	0.971918	-0.000411	-0.117839
H170	H	0.878513	1.054317	-0.469212
H171	H	0.878719	0.207666	0.377446
H172	H	0.785317	0.262393	0.260539
H173	H	0.785257	-0.000417	0.026038
H174	H	0.891887	0.733728	-0.543190
H175	H	0.865265	0.528257	-0.548610
H176	H	0.865226	0.528258	-0.439121
H177	H	0.458573	0.999622	-0.459591
H178	H	0.722196	0.137204	-0.047314
H179	H	0.517810	0.630992	-0.121873
H180	H	0.722187	0.246703	-0.047329
H181	H	0.891924	0.733725	-0.652686
H182	H	0.785241	0.765095	-0.739476
H183	H	0.785297	0.765091	-0.848967
H184	H	0.972045	0.496882	-0.724633
H185	H	1.145932	0.371912	-0.126955
H186	H	0.972009	0.496883	-0.615138
H187	H	1.146096	0.371873	0.266282
H188	H	0.971921	0.496891	-0.352334
H189	H	1.467967	0.207667	-0.076768
H190	H	1.485160	0.262391	-0.010600
H191	H	0.785278	0.371878	0.151031
H192	H	0.611080	0.890110	-0.358085
