data_functionalizedCrystal
_audit_creation_method	'MofGen! by Chris Wilmer'
_symmetry_space_group_name_H-M	'P1'
_symmetry_Int_Tables_number	1
_symmetry_cell_setting	triclinic
loop_
_symmetry_equiv_pos_as_xyz
  x,y,z
_cell_length_a	11.792241
_cell_length_b	10.908937
_cell_length_c	10.065875
_cell_angle_alpha	96.607309
_cell_angle_beta	81.196375
_cell_angle_gamma	72.139686
loop_
_atom_site_label
_atom_site_type_symbol
_atom_site_fract_x
_atom_site_fract_y
_atom_site_fract_z
O1	O	1.492895	0.157060	-0.113358
O2	O	1.159042	0.175170	-0.113390
O3	O	1.370222	-0.020506	-0.113366
O4	O	1.281715	0.352736	-0.113383
O5	O	1.329924	0.016957	0.113619
O6	O	1.118744	0.212633	0.113594
O7	O	1.452597	0.194523	0.113626
Zn8	Zn	1.279273	0.209526	0.149649
Zn9	Zn	1.332366	0.160167	-0.149413
O10	O	1.241417	0.390199	0.113602
C11	C	1.096824	0.192763	0.000098
C12	C	0.971473	0.189355	0.000086
C13	C	1.358345	-0.049558	0.000125
C14	C	1.382979	-0.191939	0.000122
C15	C	1.318545	-0.388731	0.000112
C16	C	1.293083	-0.241573	0.000112
C17	C	0.741970	0.183099	0.000126
C18	C	0.869684	0.186575	0.000104
C19	C	1.514816	0.176929	0.000135
C20	C	1.640168	0.180336	0.000138
C21	C	1.253294	0.419250	0.000108
C22	C	1.228662	0.561629	0.000102
N23	N	1.243046	0.243212	0.353750
N24	N	1.368604	0.126471	-0.353514
C25	C	1.319756	0.171879	0.421538
C26	C	1.291882	0.197814	0.578702
H27	H	1.197272	-0.175129	0.000113
H28	H	1.156731	0.323480	0.412066
H29	H	1.414347	-0.455176	0.000128
H30	H	1.454918	0.046188	0.588175
C31	C	1.591764	-0.277438	-0.116543
C32	C	1.512325	-0.281614	0.000133
H33	H	1.671616	-0.332793	-0.116530
H34	H	1.565963	-0.306385	-0.195686
H35	H	1.591603	-0.190304	-0.116528
H36	H	1.512480	-0.368747	0.000113
H37	H	1.538134	-0.252674	0.079296
H38	H	1.132858	-0.371923	0.000103
H39	H	1.406065	0.091602	0.363223
H40	H	1.205562	0.278087	0.637013
