data_functionalizedCrystal
_audit_creation_method	'MofGen! by Chris Wilmer'
_symmetry_space_group_name_H-M	'P1'
_symmetry_Int_Tables_number	1
_symmetry_cell_setting	triclinic
loop_
_symmetry_equiv_pos_as_xyz
  x,y,z
_cell_length_a	10.654558
_cell_length_b	9.730223
_cell_length_c	8.559649
_cell_angle_alpha	90.000781
_cell_angle_beta	102.866510
_cell_angle_gamma	89.999600
loop_
_atom_site_label
_atom_site_type_symbol
_atom_site_fract_x
_atom_site_fract_y
_atom_site_fract_z
O1	O	1.644664	0.114264	-0.224240
O2	O	1.276982	0.114270	-0.245585
O3	O	1.493216	0.114265	-0.002671
O4	O	1.428430	0.114269	-0.467155
O5	O	1.493214	-0.114315	-0.002677
O6	O	1.276979	-0.114310	-0.245591
O7	O	1.644662	-0.114316	-0.224246
Zn8	Zn	1.460820	-0.150605	-0.234920
Zn9	Zn	1.460824	0.150559	-0.234912
O10	O	1.428427	-0.114311	-0.467161
C11	C	1.230345	-0.000019	-0.244018
C12	C	1.091388	-0.000016	-0.239321
C13	C	0.895533	0.124583	-0.232715
C14	C	1.026101	0.124584	-0.237114
C15	C	1.026103	-0.124626	-0.237112
C16	C	0.895539	-0.124626	-0.232701
C17	C	0.830250	0.249191	-0.230524
C18	C	0.895526	0.373802	-0.232730
C19	C	1.026094	0.373803	-0.237129
C20	C	1.091386	0.249194	-0.239323
N21	N	1.460827	-0.356141	-0.234925
C22	C	1.556593	-0.428070	-0.127399
C23	C	1.556592	-0.571953	-0.127379
C24	C	1.365052	-0.571966	-0.342425
C25	C	1.365049	-0.428086	-0.342436
C26	C	1.652371	-0.356125	-0.019888
C27	C	1.748146	-0.428054	0.087646
C28	C	1.748145	-0.571937	0.087665
C29	C	1.652368	-0.643891	-0.019849
C30	C	1.691299	-0.000024	-0.225813
C31	C	1.830256	-0.000018	-0.230511
C32	C	1.498125	-0.000023	0.056801
C33	C	1.512739	-0.000015	0.234019
N34	N	1.460828	0.356095	-0.234895
C35	C	1.423519	-0.000021	-0.526633
C36	C	1.408905	-0.000019	-0.703850
H37	H	1.197705	0.249205	-0.242896
C38	C	0.823731	-0.261693	-0.230277
N39	N	0.769645	-0.364936	-0.228447
H40	H	1.079273	-0.226077	-0.238901
H41	H	1.308828	-0.000022	0.213766
C42	C	1.652379	-0.197851	-0.019896
N43	N	1.652383	-0.078639	-0.019903
C44	C	1.097899	0.510875	-0.239537
N45	N	1.151978	0.614123	-0.241356
C46	C	1.853480	-0.348901	0.205925
N47	N	1.932817	-0.289285	0.295020
H48	H	1.826121	-0.630499	0.175233
C49	C	1.259707	-0.651122	-0.460684
N50	N	1.180360	-0.710742	-0.549761
C51	C	1.647950	-0.000025	0.345322
N52	N	1.749789	-0.000030	0.429157
H53	H	1.652368	-0.761050	-0.019813
H54	H	0.723934	0.249204	-0.226947
H55	H	0.842359	0.475254	-0.230932
C56	C	1.259677	-0.348960	-0.460685
N57	N	1.180296	-0.289363	-0.549736
