data_functionalizedCrystal
_audit_creation_method	'MofGen! by Chris Wilmer'
_symmetry_space_group_name_H-M	'P1'
_symmetry_Int_Tables_number	1
_symmetry_cell_setting	triclinic
loop_
_symmetry_equiv_pos_as_xyz
  x,y,z
_cell_length_a	27.732048
_cell_length_b	9.565339
_cell_length_c	10.489741
_cell_angle_alpha	89.999100
_cell_angle_beta	83.590915
_cell_angle_gamma	89.995294
loop_
_atom_site_label
_atom_site_type_symbol
_atom_site_fract_x
_atom_site_fract_y
_atom_site_fract_z
O1	O	0.068187	-0.116191	1.691056
O2	O	0.074588	-0.116214	1.319579
O3	O	0.001064	-0.116175	1.516855
O4	O	0.141712	-0.116230	1.493780
O5	O	0.001068	0.116345	1.516839
O6	O	0.074593	0.116306	1.319563
O7	O	0.068192	0.116329	1.691040
Zn8	Zn	0.071393	0.153235	1.505299
Zn9	Zn	0.071387	-0.153120	1.505320
O10	O	0.141716	0.116290	1.493765
C11	C	-0.016944	0.000089	1.516363
C12	C	-0.070608	0.000100	1.514904
C13	C	0.074107	0.000043	1.272061
C14	C	0.072661	0.000036	1.130495
N15	N	0.071397	0.362315	1.505295
C16	C	-0.408745	0.000035	1.622299
C17	C	-0.610439	0.000015	1.616888
O18	O	-0.641075	-0.000040	1.715093
N19	N	-0.630301	0.000009	1.499911
C20	C	-0.599736	-0.000001	1.384279
O21	O	-0.621258	-0.000021	1.284660
C22	C	-0.398044	0.000009	1.389692
C23	C	-0.378184	0.000029	1.506676
C24	C	-0.388886	0.000054	1.739274
C25	C	-0.338465	0.000066	1.740625
C26	C	-0.307904	0.000060	1.625002
C27	C	-0.327764	0.000042	1.508028
C28	C	-0.367480	-0.000011	1.274062
C29	C	-0.317054	-0.000012	1.275425
C30	C	-0.297195	0.000008	1.392409
C31	C	-0.246783	0.000048	1.393757
N32	N	-0.226920	0.000054	1.510733
C33	C	-0.257481	0.000060	1.626356
C34	C	-0.705628	-0.000003	1.381446
C35	C	-0.756051	-0.000003	1.380092
C36	C	-0.766751	0.000010	1.612701
C37	C	-0.716327	0.000020	1.614053
C38	C	-0.685766	0.000003	1.498422
C39	C	-0.151594	0.000088	1.629186
C40	C	-0.101169	0.000106	1.630527
C41	C	-0.090474	0.000085	1.397919
C42	C	-0.140895	0.000074	1.396577
C43	C	-0.171454	0.000071	1.512221
O44	O	-0.216118	0.000088	1.295604
O45	O	-0.235950	0.000049	1.725961
C46	C	-0.459166	0.000023	1.620947
C47	C	-0.479025	0.000004	1.503973
C48	C	-0.448464	-0.000002	1.388350
C49	C	-0.529448	0.000004	1.502619
C50	C	-0.560009	0.000010	1.618242
C51	C	-0.540147	0.000016	1.735219
C52	C	-0.489727	0.000029	1.736570
C53	C	-0.468327	-0.000008	1.271374
C54	C	-0.518748	-0.000019	1.270032
C55	C	-0.549308	-0.000013	1.385654
C56	C	0.159724	0.000023	1.494257
C57	C	0.213388	0.000003	1.495715
N58	N	0.071379	-0.362199	1.505335
C59	C	0.105388	0.453500	1.414034
C60	C	0.115168	0.546682	1.529101
C61	C	0.061621	0.546688	1.390277
C62	C	0.081198	0.453445	1.620419
C63	C	0.027633	0.453443	1.481520
C64	C	0.037394	0.546583	1.596671
C65	C	0.025879	0.000067	1.064411
C66	C	0.047976	-0.114583	0.971320
C67	C	0.047992	0.114663	0.971339
C68	C	0.094777	-0.114709	1.039269
C69	C	0.094786	0.114640	1.039297
C70	C	0.116916	-0.000038	0.946232
C71	C	0.068673	0.000069	1.738559
C72	C	0.070119	0.000067	1.880124
H73	H	-0.085003	0.000126	1.725793
H74	H	0.114566	0.211560	1.069467
Br75	Br	0.014991	0.276218	0.921145
Br76	Br	0.176840	0.614942	1.562669
H77	H	0.134160	0.412630	1.336927
Br78	Br	-0.193060	0.000082	1.786132
Br79	Br	0.014984	-0.276121	0.921093
Br80	Br	0.127740	-0.276447	1.089202
Br81	Br	-0.275581	-0.000043	1.118488
Br82	Br	0.181081	-0.000158	0.861030
Br83	Br	-0.782996	0.000003	1.221322
H84	H	-0.012578	-0.000061	1.115791
Br85	Br	-0.010532	0.614287	1.725464
H86	H	-0.443448	-0.000016	1.177217
Br87	Br	0.095038	0.385477	1.782607
H88	H	-0.322301	0.000077	1.835885
H89	H	-0.413764	0.000054	1.833433
H90	H	-0.009359	0.412456	1.461348
H91	H	-0.791642	0.000016	1.706846
Br92	Br	-0.689380	0.000051	1.772822
Br93	Br	-0.664160	-0.000030	1.224502
Br94	Br	0.047852	0.614963	1.228133
H95	H	-0.383640	-0.000036	1.178801
H96	H	-0.157065	0.000097	1.301319
H97	H	-0.065582	0.000085	1.303782
Br98	Br	-0.581633	0.000035	1.892134
H99	H	-0.473562	0.000045	1.831831
H100	H	-0.534912	-0.000023	1.174762
