data_functionalizedCrystal
_audit_creation_method	'MofGen! by Chris Wilmer'
_symmetry_space_group_name_H-M	'P1'
_symmetry_Int_Tables_number	1
_symmetry_cell_setting	triclinic
loop_
_symmetry_equiv_pos_as_xyz
  x,y,z
_cell_length_a	16.109296
_cell_length_b	16.109304
_cell_length_c	15.186229
_cell_angle_alpha	90.003016
_cell_angle_beta	90.001515
_cell_angle_gamma	96.539036
loop_
_atom_site_label
_atom_site_type_symbol
_atom_site_fract_x
_atom_site_fract_y
_atom_site_fract_z
O1	O	-1.103131	0.106848	0.073182
O2	O	-0.861068	0.120152	0.073192
O3	O	-0.988748	-0.007531	0.073187
O4	O	-0.975451	0.234531	0.073186
O5	O	-0.988747	-0.007539	-0.073270
O6	O	-0.861067	0.120144	-0.073266
O7	O	-1.103130	0.106840	-0.073276
Zn8	Zn	-0.982098	0.113491	-0.096524
Zn9	Zn	-0.982100	0.113501	0.096440
O10	O	-0.975450	0.234523	-0.073271
C11	C	-0.830093	0.119610	-0.000036
C12	C	-0.737797	0.117996	-0.000031
C13	C	-0.428799	0.188485	-0.000049
C14	C	-0.515519	0.190009	-0.000043
C15	C	-0.535391	0.038520	-0.000031
C16	C	-0.448672	0.036997	-0.000030
C17	C	-0.395378	0.111983	-0.000044
C18	C	-0.568817	0.115029	-0.000039
C19	C	-0.662844	0.116680	-0.000033
C20	C	-0.301346	0.110331	-0.000048
C21	C	-0.988208	-0.038510	-0.000040
C22	C	-0.986592	-0.130805	-0.000034
C23	C	-0.982859	-0.343138	0.079797
C24	C	-0.981333	-0.429858	0.079796
C25	C	-0.981336	-0.429864	-0.079880
C26	C	-0.982856	-0.343144	-0.079878
C27	C	-0.983622	-0.299785	-0.000037
C28	C	-0.980576	-0.473224	-0.000039
C29	C	-0.978921	-0.567250	-0.000041
C30	C	-0.985275	-0.205753	-0.000035
C31	C	-0.134105	0.107387	-0.000048
C32	C	-0.226398	0.109015	-0.000051
C33	C	-0.975990	0.265502	-0.000042
C34	C	-0.977606	0.357797	-0.000043
N35	N	-0.982101	0.113502	0.228133
N36	N	-0.982104	0.113483	-0.228217
C37	C	-1.038747	0.057073	0.453853
C38	C	-1.038749	0.057071	0.546043
C39	C	-0.925455	0.169918	0.546056
C40	C	-0.925457	0.169924	0.453868
C41	C	-0.982102	0.113496	0.407769
C42	C	-0.982102	0.113489	0.592147
C43	C	-0.982105	0.113487	0.692103
C44	C	-0.982101	0.113499	0.307807
H45	H	-0.578794	-0.022530	-0.000022
H46	H	-0.385409	0.249543	-0.000059
C47	C	-1.087796	-0.086811	0.574235
C48	C	-1.101009	-0.005022	0.596620
H49	H	-1.126233	-0.125164	0.605440
H50	H	-1.095856	-0.094808	0.512726
H51	H	-1.032341	-0.095932	0.589374
H52	H	-1.156463	0.004102	0.581475
H53	H	-1.092957	0.002978	0.658143
C54	C	-1.057041	-0.056062	0.350170
C55	C	-1.101013	-0.004946	0.403178
H56	H	-1.095484	-0.094353	0.318891
H57	H	-1.023313	-0.022458	0.309532
H58	H	-1.022513	-0.086052	0.386140
H59	H	-1.135536	0.025049	0.367207
H60	H	-1.134755	-0.038554	0.443821
H61	H	-0.421462	-0.025304	-0.000023
C62	C	-1.055994	-0.254982	-0.172509
C63	C	-0.983695	-0.295481	-0.167637
H64	H	-1.056504	-0.225553	-0.226683
H65	H	-1.103847	-0.295165	-0.169200
H66	H	-1.056653	-0.216751	-0.124954
H67	H	-0.983038	-0.333717	-0.215189
H68	H	-0.935829	-0.255294	-0.170955
C69	C	-0.911881	-0.307079	0.215887
C70	C	-0.983684	-0.295480	0.167560
H71	H	-0.912386	-0.277655	0.270068
H72	H	-0.910874	-0.364926	0.227300
H73	H	-0.863686	-0.286507	0.183070
H74	H	-1.031879	-0.316058	0.200374
H75	H	-0.984699	-0.237621	0.156150
H76	H	-0.980710	-0.465153	0.144805
C77	C	-0.487161	0.339594	-0.000068
C78	C	-0.552255	0.274104	-0.000055
H79	H	-0.509842	0.391512	-0.000080
H80	H	-0.453749	0.335858	0.051001
H81	H	-0.453754	0.335833	-0.051145
H82	H	-0.585659	0.277861	0.051026
H83	H	-0.585681	0.277842	-0.051129
C84	C	-0.979024	-0.562804	-0.150782
C85	C	-0.980511	-0.477530	-0.167638
H86	H	-0.978523	-0.592229	-0.204963
H87	H	-0.930321	-0.570659	-0.117991
H88	H	-1.027230	-0.583357	-0.117973
H89	H	-0.932302	-0.456976	-0.200441
H90	H	-1.029220	-0.469670	-0.200443
C91	C	-0.875139	0.220009	0.687381
C92	C	-0.863185	0.231932	0.596732
H93	H	-0.836689	0.258291	0.718662
H94	H	-0.930582	0.229169	0.702488
H95	H	-0.866238	0.164483	0.702470
H96	H	-0.872092	0.287456	0.581642
H97	H	-0.807728	0.222779	0.581618
C98	C	-0.813460	0.281466	0.463134
C99	C	-0.863186	0.231947	0.403206
H100	H	-0.775017	0.319752	0.431855
H101	H	-0.847988	0.311455	0.499093
H102	H	-0.783639	0.246774	0.499088
H103	H	-0.893012	0.266639	0.367256
H104	H	-0.828654	0.201956	0.367232
