data_functionalizedCrystal
_audit_creation_method	'MofGen! by Chris Wilmer'
_symmetry_space_group_name_H-M	'P1'
_symmetry_Int_Tables_number	1
_symmetry_cell_setting	triclinic
loop_
_symmetry_equiv_pos_as_xyz
  x,y,z
_cell_length_a	27.731994
_cell_length_b	27.731996
_cell_length_c	10.065875
_cell_angle_alpha	98.708141
_cell_angle_beta	81.334547
_cell_angle_gamma	82.620961
loop_
_atom_site_label
_atom_site_type_symbol
_atom_site_fract_x
_atom_site_fract_y
_atom_site_fract_z
O1	O	0.648049	0.050245	-0.113312
O2	O	0.507254	0.059015	-0.113360
O3	O	0.582036	-0.015767	-0.113305
O4	O	0.573267	0.125028	-0.113367
O5	O	0.567775	-0.001450	0.113673
O6	O	0.492993	0.073332	0.113618
O7	O	0.633789	0.064562	0.113666
Zn8	Zn	0.561127	0.071220	0.149680
Zn9	Zn	0.579916	0.052357	-0.149373
O10	O	0.559007	0.139345	0.113611
C11	C	0.482116	0.065993	0.000124
C12	C	0.428461	0.065450	0.000107
C13	C	0.087967	0.069842	0.123887
C14	C	-0.113692	0.067781	0.123903
O15	O	-0.146375	0.074131	0.229127
N16	N	-0.131134	0.059721	0.000178
C17	C	-0.098156	0.052172	-0.123561
O18	O	-0.117618	0.045264	-0.228797
C19	C	0.103502	0.054229	-0.123576
C20	C	0.120940	0.062295	0.000158
C21	C	0.105405	0.077906	0.247610
C22	C	0.155817	0.078424	0.247605
C23	C	0.188790	0.070877	0.123876
C24	C	0.171351	0.062813	0.000152
C25	C	0.136479	0.046677	-0.247313
C26	C	0.186896	0.047191	-0.247306
C27	C	0.204334	0.055257	-0.123572
C28	C	0.254735	0.055784	-0.123582
N29	N	0.272177	0.063844	0.000144
C30	C	0.239204	0.071391	0.123873
C31	C	-0.204030	0.051094	-0.123544
C32	C	-0.254445	0.050580	-0.123541
C33	C	-0.269977	0.066188	0.123924
C34	C	-0.219562	0.066705	0.123919
C35	C	-0.186589	0.059154	0.000181
C36	C	0.345072	0.072478	0.123852
C37	C	0.395488	0.072997	0.123836
C38	C	0.411016	0.057386	-0.123628
C39	C	0.360604	0.056870	-0.123613
C40	C	0.327633	0.064414	0.000139
O41	O	0.287447	0.049432	-0.228751
O42	O	0.258677	0.078287	0.229093
C43	C	0.037555	0.069324	0.123892
C44	C	0.020117	0.061260	0.000168
C45	C	0.053090	0.053713	-0.123561
C46	C	-0.030298	0.060746	0.000172
C47	C	-0.063270	0.068293	0.123901
C48	C	-0.045829	0.076353	0.247626
C49	C	0.004582	0.076871	0.247621
C50	C	0.035648	0.045653	-0.247286
C51	C	-0.014764	0.045136	-0.247271
C52	C	-0.047737	0.052683	-0.123542
C53	C	0.574725	-0.026616	0.000189
C54	C	0.574181	-0.080271	0.000203
C55	C	0.578544	-0.420795	-0.123591
C56	C	0.576485	-0.622454	-0.123616
O57	O	0.582808	-0.655162	-0.228841
N58	N	0.568455	-0.639867	0.000109
C59	C	0.560937	-0.606862	0.123848
O60	O	0.554056	-0.626299	0.229083
C61	C	0.562993	-0.405203	0.123872
C62	C	0.571028	-0.387793	0.000139
C63	C	0.586578	-0.403385	-0.247314
C64	C	0.587095	-0.352973	-0.247306
C65	C	0.579579	-0.319972	-0.123576
C66	C	0.571545	-0.337382	0.000146
C67	C	0.555472	-0.372197	0.247610
C68	C	0.555985	-0.321780	0.247605
C69	C	0.564020	-0.304371	0.123872
C70	C	0.564547	-0.253969	0.123884
N71	N	0.572576	-0.236556	0.000159
C72	C	0.580092	-0.269557	-0.123571
C73	C	0.559859	-0.712736	0.123827
C74	C	0.559346	-0.763151	0.123822
C75	C	0.574893	-0.778740	-0.123643
C76	C	0.575409	-0.728325	-0.123636
C77	C	0.567889	-0.695323	0.000103
C78	C	0.581179	-0.163689	-0.123546
C79	C	0.581697	-0.113272	-0.123527
C80	C	0.566148	-0.097687	0.123936
C81	C	0.565632	-0.148100	0.123919
C82	C	0.573146	-0.181100	0.000167
O83	O	0.558221	-0.221233	0.229054
O84	O	0.586962	-0.250109	-0.228790
C85	C	0.578027	-0.471206	-0.123598
C86	C	0.569993	-0.488617	0.000124
C87	C	0.562477	-0.455615	0.123854
C88	C	0.569480	-0.539031	0.000119
C89	C	0.576996	-0.572033	-0.123611
C90	C	0.585025	-0.554620	-0.247336
C91	C	0.585543	-0.504208	-0.247328
C92	C	0.554448	-0.473028	0.247579
C93	C	0.553932	-0.523440	0.247561
C94	C	0.561448	-0.556442	0.123831
C95	C	0.658926	0.057584	0.000180
C96	C	0.712582	0.058127	0.000188
C97	C	0.566318	0.150193	0.000115
C98	C	0.566862	0.203848	0.000092
N99	N	0.548308	0.084093	0.353776
N100	N	0.592739	0.039480	-0.353470
C101	C	0.575452	0.056833	0.421575
C102	C	0.565590	0.066744	0.578735
H103	H	0.062491	0.039506	-0.348043
H104	H	0.122291	0.040109	-0.348071
C105	C	0.524326	0.108188	0.657491
N106	N	0.493247	0.139402	0.716812
C107	C	-0.033938	0.036261	-0.383397
N108	N	-0.048378	0.029571	-0.485926
H109	H	0.592697	-0.430250	-0.348075
C110	C	0.616705	0.015382	0.342814
N111	N	0.647774	-0.015842	0.283493
C112	C	0.308810	0.080782	0.259985
N113	N	0.281497	0.087041	0.362520
C114	C	-0.200385	0.075573	0.260034
N115	N	-0.185944	0.082251	0.362562
H116	H	0.547392	-0.537610	0.348327
H117	H	0.548328	-0.446162	0.348337
C118	C	0.414666	0.081867	0.259958
N119	N	0.429109	0.088547	0.362483
C120	C	0.584243	-0.709179	-0.259750
N121	N	0.590896	-0.694761	-0.362277
H122	H	0.623280	0.008800	0.588232
H123	H	0.517765	0.114768	0.412080
C124	C	0.447296	0.049082	-0.259723
N125	N	0.474625	0.042823	-0.362231
C126	C	-0.306256	0.074486	0.260027
N127	N	-0.333583	0.080731	0.362534
C128	C	0.174992	0.087289	0.383723
N129	N	0.189431	0.093965	0.486255
H130	H	0.592085	-0.490039	-0.348084
H131	H	0.553737	-0.685870	0.224596
C132	C	0.069141	0.086215	0.383734
N133	N	0.041828	0.092480	0.486272
H134	H	0.581013	-0.805619	-0.224389
C135	C	-0.273621	0.041712	-0.259658
N136	N	-0.288061	0.035027	-0.362186
C137	C	0.550512	-0.782295	0.259938
N138	N	0.543855	-0.796712	0.362465
C139	C	0.546627	-0.391335	0.383728
N140	N	0.539961	-0.405747	0.486261
C141	C	-0.167765	0.042786	-0.259675
N142	N	-0.140452	0.036529	-0.362210
C143	C	0.589453	-0.199983	-0.259679
N144	N	0.595691	-0.227320	-0.362216
C145	C	0.341422	0.048003	-0.259725
N146	N	0.326977	0.041320	-0.362248
C147	C	0.223164	0.038886	-0.383431
N148	N	0.250480	0.032632	-0.485960
C149	C	0.590535	-0.094126	-0.259649
N150	N	0.597190	-0.079706	-0.362173
C151	C	0.595928	-0.333830	-0.383423
N152	N	0.602580	-0.319414	-0.485954
C153	C	-0.082109	0.084653	0.383729
N154	N	-0.109437	0.090901	0.486235
C155	C	0.547714	-0.285481	0.383731
N156	N	0.541486	-0.258141	0.486261
C157	C	0.556798	-0.167251	0.260030
N158	N	0.550140	-0.181672	0.362552
H159	H	0.560031	-0.070809	0.224674
H160	H	0.018775	0.083438	0.348378
H161	H	0.591147	-0.581499	-0.348081
