data_functionalizedCrystal
_audit_creation_method	'MofGen! by Chris Wilmer'
_symmetry_space_group_name_H-M	'P1'
_symmetry_Int_Tables_number	1
_symmetry_cell_setting	triclinic
loop_
_symmetry_equiv_pos_as_xyz
  x,y,z
_cell_length_a	17.699083
_cell_length_b	15.538191
_cell_length_c	16.176319
_cell_angle_alpha	89.995479
_cell_angle_beta	89.998611
_cell_angle_gamma	65.277554
loop_
_atom_site_label
_atom_site_type_symbol
_atom_site_fract_x
_atom_site_fract_y
_atom_site_fract_z
O1	O	0.971508	0.119201	-0.068626
O2	O	0.746892	0.134709	-0.068653
O3	O	0.902923	-0.010274	-0.068638
O4	O	0.815476	0.264185	-0.068641
O5	O	0.902910	-0.010284	0.068855
O6	O	0.746878	0.134700	0.068840
O7	O	0.971494	0.119192	0.068867
Cu8	Cu	0.859185	0.126945	0.081408
Cu9	Cu	0.859201	0.126956	-0.081194
O10	O	0.815463	0.264175	0.068852
C11	C	0.718840	0.134149	0.000090
C12	C	0.635277	0.132482	0.000080
C13	C	0.563403	0.217584	0.000079
C14	C	0.484889	0.216012	0.000090
C15	C	0.478252	0.129337	0.000095
C16	C	0.550134	0.044228	0.000098
C17	C	0.628646	0.045801	0.000094
C18	C	0.233505	0.037882	0.000119
C19	C	0.154985	0.036316	0.000121
C20	C	0.089748	0.208094	0.000115
C21	C	0.168260	0.209667	0.000111
C22	C	0.240135	0.124558	0.000118
C23	C	0.325269	0.126264	0.000108
C24	C	0.393120	0.127630	0.000100
C25	C	0.912066	-0.045395	0.000107
C26	C	0.939318	-0.150032	0.000102
C27	C	0.668571	-0.437202	0.000087
C28	C	0.694198	-0.535527	0.000092
C29	C	0.838344	-0.558300	0.000109
C30	C	0.812729	-0.459975	0.000100
C31	C	0.727842	-0.399434	0.000090
C32	C	0.872000	-0.422207	0.000103
C33	C	0.846387	-0.323891	0.000098
C34	C	0.761503	-0.263343	0.000091
C35	C	0.702229	-0.301118	0.000085
C36	C	0.956887	-0.482750	0.000118
C37	C	1.016158	-0.444981	0.000121
C38	C	0.990545	-0.346663	0.000111
C39	C	0.905661	-0.286116	0.000103
C40	C	1.049819	-0.308889	0.000116
C41	C	1.024206	-0.210573	0.000111
C42	C	0.880048	-0.187800	0.000099
C43	C	0.999546	0.119752	0.000122
C44	C	1.083109	0.121419	0.000127
C45	C	0.806321	0.299297	0.000106
C46	C	0.779068	0.403933	0.000105
N47	N	0.859180	0.126937	0.195773
N48	N	0.859215	0.126957	-0.195559
C49	C	0.928279	0.062764	0.239044
C50	C	0.928283	0.062763	0.325591
C51	C	0.859189	0.126940	0.368866
C52	C	0.790084	0.191116	0.325589
C53	C	0.790078	0.191111	0.239043
C54	C	0.790105	0.191133	0.674617
C55	C	0.790117	0.191135	0.761169
C56	C	0.928310	0.062785	0.761164
C57	C	0.928304	0.062781	0.674619
C58	C	0.859197	0.126953	0.631350
C59	C	0.859193	0.126952	0.537506
C60	C	0.859195	0.126946	0.462708
H61	H	0.544725	-0.026345	0.000115
O62	O	0.636697	-0.572329	-0.000024
C63	C	0.647193	-0.628498	-0.071241
H64	H	0.713612	-0.653109	-0.094976
H65	H	0.634700	-0.692817	-0.055225
H66	H	0.601755	-0.584989	-0.121108
H67	H	0.733824	0.243367	0.360828
O68	O	0.995474	0.000348	0.632711
C69	C	1.056473	-0.056280	0.689462
H70	H	1.025730	-0.057293	0.751160
H71	H	1.088704	-0.131577	0.664463
H72	H	1.104312	-0.025763	0.698654
O73	O	0.586121	-0.378343	-0.000073
C74	C	0.567013	-0.320774	-0.071274
H75	H	0.615640	-0.356869	-0.121038
H76	H	0.502975	-0.309578	-0.095187
H77	H	0.566972	-0.249326	-0.055174
O78	O	0.019866	0.290709	0.000007
C79	C	-0.027496	0.294953	-0.071209
H80	H	-0.010939	0.220144	-0.094943
H81	H	-0.096511	0.330202	-0.055191
H82	H	-0.013337	0.337943	-0.121078
O83	O	0.981913	-0.578277	0.000160
C84	C	1.069544	-0.623613	0.000155
H85	H	1.095593	-0.573402	0.026190
H86	H	1.091052	-0.690079	0.040077
H87	H	1.092847	-0.644019	-0.065803
O88	O	0.920810	-0.617073	0.000261
C89	C	0.958404	-0.599959	0.071458
H90	H	0.909189	-0.566272	0.121228
H91	H	1.007944	-0.669780	0.095363
H92	H	0.988477	-0.549989	0.055355
O93	O	1.098637	-0.503700	0.000017
C94	C	1.136224	-0.486618	-0.071203
H95	H	1.097134	-0.411996	-0.094948
H96	H	1.201287	-0.493673	-0.055188
H97	H	1.140647	-0.540372	-0.121064
O98	O	0.722903	0.253542	0.197136
C99	C	0.661912	0.310173	0.253887
H100	H	0.692666	0.311195	0.315575
H101	H	0.629674	0.385468	0.228873
H102	H	0.614078	0.279653	0.263103
O103	O	0.723075	0.253520	0.632506
C104	C	0.747640	0.311624	0.582453
H105	H	0.817199	0.273981	0.569474
H106	H	0.711927	0.326600	0.521601
H107	H	0.733659	0.381275	0.615808
H108	H	0.426369	0.285311	0.000089
O109	O	0.569698	0.301865	0.000110
C110	C	0.489420	0.376640	0.000092
H111	H	0.443020	0.350335	0.026127
H112	H	0.489289	0.437164	0.040008
H113	H	0.471035	0.402887	-0.065870
H114	H	0.984548	0.010509	0.360821
O115	O	1.132298	-0.367609	0.000019
C116	C	1.169895	-0.350537	-0.071199
H117	H	1.130809	-0.275917	-0.094950
H118	H	1.234956	-0.357592	-0.055177
H119	H	1.174323	-0.404296	-0.121056
H120	H	0.984579	0.010530	0.796403
H121	H	1.072470	-0.179822	0.000115
H122	H	0.733850	0.243397	0.796402
H123	H	0.173657	0.280246	0.000103
H124	H	0.984544	0.010508	0.203815
H125	H	0.740650	-0.183289	0.000092
O126	O	0.148687	-0.047968	0.000168
C127	C	0.228961	-0.122751	0.000155
H128	H	0.275367	-0.096455	0.026182
H129	H	0.229086	-0.183273	0.040079
H130	H	0.247342	-0.148997	-0.065805
O131	O	0.698528	-0.036805	-0.000019
C132	C	0.745883	-0.041042	-0.071240
H133	H	0.729319	0.033768	-0.094984
H134	H	0.814900	-0.076286	-0.055225
H135	H	0.731723	-0.084033	-0.121101
H136	H	0.292019	-0.031418	0.000126
H137	H	0.810924	-0.138503	0.000085
H138	H	0.633105	-0.251821	0.000071
