data_functionalizedCrystal
_audit_creation_method	'MofGen! by Chris Wilmer'
_symmetry_space_group_name_H-M	'P1'
_symmetry_Int_Tables_number	1
_symmetry_cell_setting	triclinic
loop_
_symmetry_equiv_pos_as_xyz
  x,y,z
_cell_length_a	27.732048
_cell_length_b	27.731996
_cell_length_c	9.130313
_cell_angle_alpha	89.989531
_cell_angle_beta	90.001977
_cell_angle_gamma	82.632022
loop_
_atom_site_label
_atom_site_type_symbol
_atom_site_fract_x
_atom_site_fract_y
_atom_site_fract_z
O1	O	0.640916	0.057518	-0.121629
O2	O	0.500121	0.066264	-0.121676
O3	O	0.574904	-0.008507	-0.121620
O4	O	0.566132	0.132290	-0.121686
O5	O	0.574899	-0.008509	0.121979
O6	O	0.500116	0.066262	0.121923
O7	O	0.640911	0.057516	0.121970
Cu8	Cu	0.570513	0.061889	0.144189
Cu9	Cu	0.570519	0.061891	-0.143895
O10	O	0.566127	0.132288	0.121913
C11	C	0.482111	0.066079	0.000118
C12	C	0.428456	0.065527	0.000101
C13	C	0.574721	-0.026516	0.000185
C14	C	0.574179	-0.080172	0.000199
C15	C	0.570767	-0.412887	-0.132659
C16	C	0.568706	-0.614545	-0.132685
O17	O	0.568421	-0.640615	-0.245616
N18	N	0.568447	-0.639764	0.000099
C19	C	0.568700	-0.614564	0.132899
O20	O	0.568428	-0.640640	0.245840
C21	C	0.570758	-0.412906	0.132924
C22	C	0.571021	-0.387691	0.000131
C23	C	0.571030	-0.387672	-0.265441
C24	C	0.571548	-0.337261	-0.265433
C25	C	0.571802	-0.312065	-0.132643
C26	C	0.571539	-0.337280	0.000139
C27	C	0.571008	-0.387707	0.265723
C28	C	0.571521	-0.337289	0.265718
C29	C	0.571784	-0.312074	0.132925
C30	C	0.572312	-0.261673	0.132937
N31	N	0.572571	-0.236454	0.000153
C32	C	0.572316	-0.261650	-0.132637
C33	C	0.567621	-0.720437	0.132877
C34	C	0.567107	-0.770852	0.132871
C35	C	0.567112	-0.770829	-0.132714
C36	C	0.567629	-0.720415	-0.132707
C37	C	0.567880	-0.695219	0.000093
C38	C	0.573404	-0.155783	-0.132611
C39	C	0.573924	-0.105368	-0.132591
C40	C	0.573917	-0.105394	0.132994
C41	C	0.573399	-0.155805	0.132975
C42	C	0.573141	-0.180999	0.000161
O43	O	0.572592	-0.235571	0.245808
O44	O	0.572578	-0.235564	-0.245561
C45	C	0.570249	-0.463298	-0.132667
C46	C	0.569986	-0.488513	0.000115
C47	C	0.570240	-0.463317	0.132906
C48	C	0.569472	-0.538928	0.000109
C49	C	0.569217	-0.564124	-0.132681
C50	C	0.569476	-0.538906	-0.265465
C51	C	0.569994	-0.488494	-0.265457
C52	C	0.569982	-0.488536	0.265690
C53	C	0.569464	-0.538947	0.265671
C54	C	0.569210	-0.564143	0.132881
C55	C	0.089634	0.106231	0.000145
C56	C	-0.112026	0.104180	0.000159
O57	O	-0.143288	0.141402	0.000205
N58	N	-0.131141	0.059844	0.000178
C59	C	-0.099838	0.016017	0.000202
O60	O	-0.120724	-0.021740	0.000233
C61	C	0.101820	0.018069	0.000198
C62	C	0.120933	0.062408	0.000165
C63	C	0.108747	0.150567	0.000114
C64	C	0.159159	0.151079	0.000102
C65	C	0.190457	0.107256	0.000122
C66	C	0.171344	0.062920	0.000154
C67	C	0.133122	-0.025757	0.000233
C68	C	0.183539	-0.025240	0.000236
C69	C	0.202652	0.019099	0.000203
C70	C	0.253055	0.019609	0.000162
N71	N	0.272171	0.063946	0.000144
C72	C	0.240872	0.107769	0.000124
C73	C	-0.205712	0.014943	0.000201
C74	C	-0.256126	0.014430	0.000199
C75	C	-0.268310	0.102594	0.000159
C76	C	-0.217895	0.103106	0.000151
C77	C	-0.186597	0.059280	0.000183
C78	C	0.346741	0.108842	0.000099
C79	C	0.397158	0.109350	0.000081
C80	C	0.409337	0.021187	0.000129
C81	C	0.358925	0.020678	0.000139
C82	C	0.327627	0.064510	0.000128
O83	O	0.284346	-0.017592	0.000133
O84	O	0.261767	0.145521	0.000126
C85	C	0.039222	0.105719	0.000157
C86	C	0.020109	0.061384	0.000188
C87	C	0.051408	0.017560	0.000208
C88	C	-0.030305	0.060871	0.000187
C89	C	-0.061604	0.104694	0.000167
C90	C	-0.042489	0.149030	0.000148
C91	C	0.007923	0.149543	0.000137
C92	C	0.032292	-0.026776	0.000227
C93	C	-0.018120	-0.027285	0.000236
C94	C	-0.049419	0.016539	0.000216
C95	C	0.658920	0.057701	0.000172
C96	C	0.712575	0.058254	0.000179
C97	C	0.566310	0.150296	0.000105
C98	C	0.566853	0.203952	0.000081
N99	N	0.570512	0.061887	0.346811
N100	N	0.570523	0.061890	-0.346518
C101	C	0.603637	0.028792	0.423488
C102	C	0.603642	0.028792	0.576825
C103	C	0.537395	0.094986	0.576794
C104	C	0.537388	0.094984	0.423460
H105	H	0.574140	-0.084840	-0.240732
Br106	Br	0.492426	0.139898	0.319386
H107	H	0.573191	-0.176289	-0.240760
Br108	Br	0.648596	-0.016127	0.680884
Br109	Br	0.573053	-0.190029	0.313195
H110	H	0.343363	-0.015426	0.000144
H111	H	0.630608	0.001842	0.361084
H112	H	-0.293803	0.138276	0.000143
Br113	Br	-0.044051	-0.087465	0.000257
H114	H	0.571760	-0.316735	-0.373567
H115	H	0.570820	-0.408181	-0.373581
Br116	Br	0.492443	0.139903	0.680823
H117	H	0.566905	-0.791353	-0.240837
Br118	Br	0.567987	-0.686200	-0.312932
Br119	Br	0.185089	0.211257	0.000064
H120	H	0.566900	-0.791378	0.241005
H121	H	0.570794	-0.408228	0.373858
Br122	Br	0.567957	-0.686250	0.313123
Br123	Br	0.033853	0.209720	0.000089
H124	H	0.434830	-0.014493	0.000139
H125	H	0.117570	-0.061863	0.000261
H126	H	-0.180232	-0.020747	0.000227
Br127	Br	0.574264	-0.071190	0.313200
H128	H	0.570208	-0.467969	-0.373591
Br129	Br	0.571860	-0.303097	0.445956
Br130	Br	0.569134	-0.573111	-0.445679
Br131	Br	0.570322	-0.454348	0.445924
Br132	Br	0.304273	0.168327	0.000087
Br133	Br	0.423092	0.169529	0.000026
Br134	Br	-0.191962	0.163283	0.000106
H135	H	0.083267	0.186255	0.000103
Br136	Br	-0.282058	-0.045747	0.000200
H137	H	0.569253	-0.559473	0.373815
H138	H	0.209021	-0.060930	0.000263
H139	H	-0.067981	0.184713	0.000126
H140	H	0.057772	-0.062463	0.000246
