data_functionalizedCrystal
_audit_creation_method	'MofGen! by Chris Wilmer'
_symmetry_space_group_name_H-M	'P1'
_symmetry_Int_Tables_number	1
_symmetry_cell_setting	triclinic
loop_
_symmetry_equiv_pos_as_xyz
  x,y,z
_cell_length_a	12.759401
_cell_length_b	17.640280
_cell_length_c	12.759393
_cell_angle_alpha	101.231919
_cell_angle_beta	90.019837
_cell_angle_gamma	78.802151
loop_
_atom_site_label
_atom_site_type_symbol
_atom_site_fract_x
_atom_site_fract_y
_atom_site_fract_z
Zn1	Zn	1.690807	-0.314590	0.509564
Zn2	Zn	1.726231	-0.446786	0.298394
Zn3	Zn	1.515121	-0.314634	0.333887
Zn4	Zn	1.550612	-0.446728	0.474047
O5	O	1.620692	-0.380685	0.403973
O6	O	1.842528	-0.332131	0.481562
O7	O	1.698199	-0.429299	0.156070
O8	O	1.508747	-0.204022	0.386909
O9	O	1.868554	-0.429255	0.326416
O10	O	1.637823	-0.203989	0.515978
O11	O	1.543097	-0.332207	0.182146
O12	O	1.372806	-0.332151	0.352470
O13	O	1.569237	-0.429157	0.625791
O14	O	1.398881	-0.429200	0.455444
O15	O	1.672237	-0.332075	0.651885
O16	O	1.732613	-0.557385	0.291977
O17	O	1.603586	-0.557342	0.421028
C18	C	1.347723	-0.380675	0.403955
C19	C	1.230950	-0.380690	0.403967
C20	C	1.189713	-0.431300	0.457459
C21	C	1.079990	-0.431303	0.457479
C22	C	1.052749	-0.330083	0.350506
C23	C	1.162469	-0.330077	0.350493
C24	C	1.675824	-0.586043	0.348820
C25	C	1.699505	-0.673896	0.325260
C26	C	1.441218	-0.962860	0.583335
C27	C	1.463472	-1.045411	0.561164
C28	C	1.597911	-1.045390	0.426919
C29	C	1.575672	-0.962837	0.449082
C30	C	1.497323	-0.921579	0.527291
C31	C	1.631777	-0.921556	0.393038
C32	C	1.609535	-0.839010	0.415196
C33	C	1.531188	-0.797746	0.493399
C34	C	1.475081	-0.839033	0.549449
C35	C	1.710120	-0.962816	0.314825
C36	C	1.766225	-0.921534	0.258780
C37	C	1.743989	-0.838987	0.280944
C38	C	1.665642	-0.797723	0.359146
C39	C	1.800096	-0.797700	0.224893
C40	C	1.777854	-0.715154	0.247052
C41	C	1.643400	-0.715177	0.381305
C42	C	1.894728	-0.380695	0.403992
C43	C	2.011506	-0.380699	0.404000
C44	C	1.620744	-0.380605	0.678028
C45	C	1.620766	-0.380571	0.794814
C46	C	1.565375	-0.174525	0.459365
C47	C	1.541801	-0.086672	0.482969
C48	C	1.620686	-0.380707	0.131000
C49	C	1.620808	-0.380519	0.014274
C50	C	1.540027	-0.330006	0.863256
C51	C	1.540044	-0.329982	0.972987
C52	C	1.701552	-0.431089	0.945823
C53	C	1.701529	-0.431117	0.836093
H54	H	1.196042	-0.288859	0.306934
H55	H	1.767280	-0.472295	0.780364
H56	H	1.661700	-1.078994	0.363238
H57	H	1.411289	-0.805439	0.613142
C58	C	1.896894	-0.913220	0.128305
C59	C	1.852345	-0.966889	0.172816
H60	H	1.950058	-0.941221	0.075231
H61	H	1.928366	-0.880984	0.182773
H62	H	1.842469	-0.881066	0.096707
H63	H	1.906768	-0.999040	0.204421
H64	H	1.820874	-0.999139	0.118338
H65	H	1.474297	-0.288807	1.028709
C66	C	1.233961	-0.469949	0.624894
C67	C	1.264988	-0.486923	0.516250
H68	H	1.280436	-0.504286	0.661190
H69	H	1.162724	-0.477199	0.632549
H70	H	1.237700	-0.416853	0.654626
H71	H	1.261242	-0.540018	0.486515
H72	H	1.336244	-0.479680	0.508588
C73	C	0.959665	-0.442420	0.595816
C74	C	1.034665	-0.486937	0.516279
H75	H	0.931691	-0.476769	0.632122
H76	H	0.903182	-0.412290	0.563969
H77	H	0.993267	-0.408021	0.645307
H78	H	1.001061	-0.521333	0.466783
H79	H	1.091157	-0.517080	0.548127
H80	H	1.579608	-0.681583	0.444998
C81	C	1.310564	-0.971164	0.713846
C82	C	1.355109	-0.917500	0.669319
H83	H	1.257407	-0.943159	0.766924
H84	H	1.364984	-1.003317	0.745432
H85	H	1.279076	-1.003402	0.659379
H86	H	1.386605	-0.885266	0.723785
H87	H	1.300680	-0.885334	0.637734
C88	C	1.773305	-0.475937	1.101971
C89	C	1.790329	-0.486641	0.991203
H90	H	1.828120	-0.510230	1.129984
H91	H	1.705830	-0.487498	1.116837
H92	H	1.774438	-0.422824	1.134216
H93	H	1.789188	-0.539753	0.958958
H94	H	1.857822	-0.475085	0.976329
H95	H	1.417791	-1.079020	0.606821
H96	H	0.996979	-0.288877	0.306967
H97	H	1.728229	-1.030030	0.296789
C98	C	1.472617	-0.679554	0.425163
C99	C	1.506737	-0.707009	0.517760
H100	H	1.457529	-0.623538	0.440203
H101	H	1.409880	-0.698274	0.401918
H102	H	1.527315	-0.698222	0.370572
H103	H	1.452036	-0.688346	0.572348
H104	H	1.569482	-0.688281	0.541019
H105	H	1.863880	-0.831305	0.161209
H106	H	1.823540	-0.681542	0.201413
C107	C	1.380376	-0.230074	0.901129
C108	C	1.451244	-0.274457	0.817878
H109	H	1.325559	-0.195786	0.873113
H110	H	1.418046	-0.199830	0.952051
H111	H	1.349448	-0.264510	0.934671
H112	H	1.482178	-0.240021	0.784340
H113	H	1.413568	-0.304703	0.766937
