data_functionalizedCrystal
_audit_creation_method	'MofGen! by Chris Wilmer'
_symmetry_space_group_name_H-M	'P1'
_symmetry_Int_Tables_number	1
_symmetry_cell_setting	triclinic
loop_
_symmetry_equiv_pos_as_xyz
  x,y,z
_cell_length_a	12.594517
_cell_length_b	12.594516
_cell_length_c	19.805399
_cell_angle_alpha	89.979203
_cell_angle_beta	89.981060
_cell_angle_gamma	90.015853
loop_
_atom_site_label
_atom_site_type_symbol
_atom_site_fract_x
_atom_site_fract_y
_atom_site_fract_z
Zn1	Zn	1.627242	-0.423772	-0.382740
Zn2	Zn	1.627140	-0.601766	-0.269565
Zn3	Zn	1.449253	-0.423801	-0.269566
Zn4	Zn	1.449228	-0.601709	-0.382713
O5	O	1.538216	-0.512762	-0.326146
O6	O	1.776174	-0.447396	-0.367738
O7	O	1.603511	-0.578194	-0.174849
O8	O	1.472917	-0.274852	-0.284590
O9	O	1.776099	-0.578167	-0.284589
O10	O	1.603684	-0.274830	-0.367739
O11	O	1.472818	-0.447445	-0.174849
O12	O	1.300304	-0.447389	-0.284564
O13	O	1.472874	-0.578069	-0.477433
O14	O	1.300286	-0.578097	-0.367693
O15	O	1.603660	-0.447340	-0.477453
O16	O	1.603487	-0.750704	-0.284563
O17	O	1.472775	-0.750662	-0.367692
C18	C	1.261675	-0.512741	-0.326126
C19	C	1.143369	-0.512757	-0.326134
C20	C	1.074095	-0.441568	-0.281006
C21	C	1.003286	-0.538654	-0.264360
C22	C	1.003380	-0.415719	-0.342791
C23	C	1.074118	-0.609894	-0.309455
C24	C	1.074219	-0.486893	-0.387915
C25	C	1.003441	-0.584046	-0.371293
C26	C	1.538146	-0.789303	-0.326140
C27	C	1.538214	-0.907608	-0.326159
C28	C	1.467113	-0.976877	-0.371342
C29	C	1.441183	-1.047734	-0.309580
C30	C	1.564240	-1.047551	-0.387932
C31	C	1.512233	-0.976906	-0.264365
C32	C	1.635334	-0.976718	-0.342758
C33	C	1.609442	-1.047542	-0.280954
C34	C	1.815837	-0.512784	-0.326167
C35	C	1.934142	-0.512794	-0.326175
C36	C	1.538275	-0.512695	-0.502689
C37	C	1.538301	-0.512666	-0.577921
C38	C	1.538315	-0.235141	-0.326168
C39	C	1.538357	-0.116836	-0.326177
C40	C	1.606403	-0.444592	-0.613277
C41	C	1.606414	-0.444562	-0.683965
C42	C	1.538327	-0.512611	-0.719297
C43	C	1.470218	-0.580688	-0.683936
C44	C	1.470203	-0.580713	-0.613249
C45	C	1.470278	-0.580589	-0.969010
C46	C	1.470301	-0.580561	-1.039702
C47	C	1.606489	-0.444438	-1.039726
C48	C	1.606474	-0.444462	-0.969038
C49	C	1.538361	-0.512535	-0.933684
C50	C	1.538348	-0.512566	-0.857036
C51	C	1.538344	-0.512586	-0.795944
C52	C	1.538218	-0.512752	-0.150290
C53	C	1.538398	-0.512481	-0.075059
H54	H	1.105400	-0.464964	-0.440129
H55	H	0.972613	-0.644334	-0.409473
H56	H	1.414852	-0.635977	-1.068467
H57	H	1.661872	-0.389131	-0.712748
C58	C	1.681370	-0.369599	-0.930178
N59	N	1.737778	-0.313205	-0.900908
C60	C	1.395349	-0.655467	-0.930129
N61	N	1.338906	-0.711868	-0.900842
H62	H	1.669631	-1.078374	-0.242708
H63	H	1.406878	-0.945848	-0.409495
H64	H	0.972253	-0.333650	-0.356840
H65	H	1.661946	-0.389006	-1.068520
C66	C	1.330310	-1.089875	-0.290617
N67	N	1.246797	-1.121612	-0.276339
C68	C	1.681303	-0.369731	-0.574418
N69	N	1.737717	-0.313338	-0.545152
H70	H	1.414777	-0.636091	-0.712709
C71	C	1.482439	-0.935161	-0.193781
N72	N	1.459993	-0.903716	-0.140619
C73	C	1.395287	-0.655601	-0.574358
N74	N	1.338856	-0.712008	-0.545067
H75	H	1.105119	-0.381425	-0.242796
C76	C	0.961186	-0.568235	-0.193802
N77	N	0.929479	-0.590506	-0.140656
H78	H	1.717382	-0.945504	-0.356813
H79	H	1.105060	-0.691998	-0.295326
C80	C	1.593902	-1.089473	-0.458496
N81	N	1.616236	-1.121045	-0.511647
