data_functionalizedCrystal
_audit_creation_method	'MofGen! by Chris Wilmer'
_symmetry_space_group_name_H-M	'P1'
_symmetry_Int_Tables_number	1
_symmetry_cell_setting	triclinic
loop_
_symmetry_equiv_pos_as_xyz
  x,y,z
_cell_length_a	16.109301
_cell_length_b	11.792241
_cell_length_c	14.586319
_cell_angle_alpha	89.996059
_cell_angle_beta	89.999213
_cell_angle_gamma	83.827448
loop_
_atom_site_label
_atom_site_type_symbol
_atom_site_fract_x
_atom_site_fract_y
_atom_site_fract_z
O1	O	1.103817	0.145885	-0.076183
O2	O	1.603817	0.645885	0.423817
O3	O	0.861841	0.164040	-0.076197
O4	O	1.361841	0.664040	0.423803
O5	O	0.988701	-0.010259	-0.076183
O6	O	1.488701	0.489741	0.423817
O7	O	0.976957	0.320185	-0.076197
O8	O	1.476957	0.820185	0.423803
O9	O	0.988692	-0.010262	0.076298
O10	O	1.488692	0.489738	0.576298
O11	O	0.861832	0.164038	0.076284
O12	O	1.361832	0.664038	0.576284
O13	O	1.103808	0.145883	0.076298
O14	O	1.603808	0.645883	0.576298
Cu15	Cu	0.982819	0.154960	0.090214
Cu16	Cu	1.482819	0.654960	0.590214
Cu17	Cu	0.982830	0.154963	-0.090113
Cu18	Cu	1.482830	0.654963	0.409887
O19	O	0.976948	0.320182	0.076284
O20	O	1.476948	0.820182	0.576284
C21	C	0.830858	0.163304	0.000041
C22	C	1.330858	0.663304	0.500041
C23	C	0.738552	0.161099	0.000036
C24	C	1.238552	0.661099	0.500036
C25	C	0.516743	0.259398	0.000042
C26	C	1.016743	0.759398	0.500042
C27	C	0.430012	0.257318	0.000048
C28	C	0.930012	0.757318	0.500048
C29	C	0.448914	0.050517	0.000053
C30	C	0.948914	0.550517	0.500053
C31	C	0.535642	0.052599	0.000054
C32	C	1.035642	0.552599	0.500054
C33	C	0.569554	0.157043	0.000044
C34	C	1.069554	0.657043	0.500044
C35	C	0.396095	0.152880	0.000049
C36	C	0.896095	0.652880	0.500049
C37	C	0.302059	0.150624	0.000056
C38	C	0.802059	0.650624	0.500056
C39	C	0.663597	0.159300	0.000039
C40	C	1.163597	0.659300	0.500039
C41	C	0.987959	-0.052545	0.000057
C42	C	1.487959	0.447455	0.500057
C43	C	0.985751	-0.178539	0.000056
C44	C	1.485751	0.321461	0.500056
C45	C	0.981691	-0.409216	0.000040
C46	C	1.481691	0.090784	0.500040
C47	C	0.983947	-0.280850	0.000049
C48	C	1.483947	0.219150	0.500049
C49	C	1.134791	0.146619	0.000058
C50	C	1.634791	0.646619	0.500058
C51	C	1.227097	0.148824	0.000057
C52	C	1.727097	0.648824	0.500057
C53	C	0.977690	0.362468	0.000042
C54	C	1.477690	0.862468	0.500042
C55	C	0.979898	0.488462	0.000037
C56	C	1.479898	0.988462	0.500037
N57	N	0.982818	0.154957	0.217045
N58	N	1.482818	0.654957	0.717045
N59	N	0.982838	0.154957	-0.216944
N60	N	1.482838	0.654957	0.283056
C61	C	1.039011	0.077803	0.452058
C62	C	1.539011	0.577803	0.952058
C63	C	1.039013	0.077800	0.548039
C64	C	1.539013	0.577800	1.048039
C65	C	0.926639	0.232115	0.548036
C66	C	1.426639	0.732115	1.048036
C67	C	0.926633	0.232111	0.452057
C68	C	1.426633	0.732111	0.952057
C69	C	0.982824	0.154957	0.404070
C70	C	1.482824	0.654957	0.904070
C71	C	0.982832	0.154957	0.596031
C72	C	1.482832	0.654957	1.096031
C73	C	0.982834	0.154955	0.700098
C74	C	1.482834	0.654955	1.200098
C75	C	0.982821	0.154957	0.299996
C76	C	1.482821	0.654957	0.799996
H77	H	0.578644	-0.030757	0.000057
H78	H	1.078644	0.469243	0.500057
Br79	Br	1.115265	-0.026917	0.613164
Br80	Br	1.615265	0.473083	1.113164
H81	H	0.387016	0.340666	0.000049
H82	H	0.887016	0.840666	0.500049
H83	H	0.880875	0.294939	0.412982
H84	H	1.380875	0.794939	0.912982
H85	H	1.084763	0.014978	0.412989
H86	H	1.584763	0.514978	0.912989
Br87	Br	0.402884	-0.091221	0.000063
Br88	Br	0.902884	0.408779	0.500063
H89	H	0.880891	0.294934	0.587116
H90	H	1.380891	0.794934	1.087116
H91	H	0.544351	0.344443	0.000041
H92	H	1.044351	0.844443	0.500041
