data_functionalizedCrystal
_audit_creation_method	'MofGen! by Chris Wilmer'
_symmetry_space_group_name_H-M	'P1'
_symmetry_Int_Tables_number	1
_symmetry_cell_setting	triclinic
loop_
_symmetry_equiv_pos_as_xyz
  x,y,z
_cell_length_a	8.597314
_cell_length_b	7.681187
_cell_length_c	8.559649
_cell_angle_alpha	94.922842
_cell_angle_beta	102.374712
_cell_angle_gamma	88.176009
loop_
_atom_site_label
_atom_site_type_symbol
_atom_site_fract_x
_atom_site_fract_y
_atom_site_fract_z
O1	O	-2.035275	0.162319	0.254522
O2	O	-1.535275	0.662319	0.754522
O3	O	-1.583924	0.093848	0.265832
O4	O	-1.083924	0.593848	0.765832
O5	O	-1.849364	0.134118	0.028819
O6	O	-1.349364	0.634118	0.528819
O7	O	-1.769836	0.122050	0.491534
O8	O	-1.269836	0.622050	0.991534
O9	O	-1.816651	0.422025	0.058034
O10	O	-1.316651	0.922025	0.558034
O11	O	-1.551212	0.381756	0.295046
O12	O	-1.051212	0.881756	0.795046
O13	O	-2.002563	0.450227	0.283736
O14	O	-1.502563	0.950227	0.783736
Zn15	Zn	-1.771693	0.461703	0.294029
Zn16	Zn	-1.271693	0.961703	0.794029
Zn17	Zn	-1.814794	0.082372	0.255539
Zn18	Zn	-1.314794	0.582372	0.755539
O19	O	-1.737123	0.409957	0.520749
O20	O	-1.237123	0.909957	1.020749
C21	C	-1.510320	0.229117	0.277596
C22	C	-1.010320	0.729117	0.777596
C23	C	-1.339742	0.203240	0.269107
C24	C	-0.839742	0.703240	0.769107
C25	C	-1.839035	0.278983	-0.015915
C26	C	-1.339035	0.778983	0.484085
C27	C	-1.856976	0.281695	-0.192735
C28	C	-1.356976	0.781695	0.307265
N29	N	-1.742290	0.720588	0.320298
N30	N	-1.242290	1.220588	0.820298
C31	C	-1.076167	0.314961	0.271971
C32	C	-0.576167	0.814961	0.771971
C33	C	-1.246745	0.340847	0.280457
C34	C	-0.746745	0.840847	0.780457
N35	N	-1.844211	-0.176510	0.229258
N36	N	-1.344211	0.323490	0.729258
C37	C	-1.747453	0.265089	0.565483
C38	C	-1.247453	0.765089	1.065483
C39	C	-1.729513	0.262365	0.742301
C40	C	-1.229513	0.762365	1.242301
H41	H	-1.297626	0.478463	0.296660
H42	H	-0.797626	0.978463	0.796660
Cl43	Cl	-1.261192	-0.009245	0.244066
Cl44	Cl	-0.761192	0.490755	0.744066
H45	H	-1.638289	0.780046	0.413203
H46	H	-1.138289	1.280046	0.913203
H47	H	-1.948209	0.764021	0.136335
H48	H	-1.448209	1.264021	0.636335
Cl49	Cl	-1.539833	0.233594	-0.134725
Cl50	Cl	-1.039833	0.733594	0.365275
Cl51	Cl	-2.046662	0.310494	-0.315713
Cl52	Cl	-1.546662	0.810494	0.184287
