data_functionalizedCrystal
_audit_creation_method	'MofGen! by Chris Wilmer'
_symmetry_space_group_name_H-M	'P1'
_symmetry_Int_Tables_number	1
_symmetry_cell_setting	triclinic
loop_
_symmetry_equiv_pos_as_xyz
  x,y,z
_cell_length_a	14.519731
_cell_length_b	8.559649
_cell_length_c	7.088929
_cell_angle_alpha	84.655815
_cell_angle_beta	96.215673
_cell_angle_gamma	76.733759
loop_
_atom_site_label
_atom_site_type_symbol
_atom_site_fract_x
_atom_site_fract_y
_atom_site_fract_z
O1	O	1.198185	0.225966	-0.158982
O2	O	0.927943	0.250592	-0.158984
O3	O	1.086873	0.005748	-0.158981
O4	O	1.039256	0.470810	-0.158985
O5	O	1.108117	-0.027047	0.158994
O6	O	0.949188	0.217797	0.158991
O7	O	1.219430	0.193171	0.158993
Cu8	Cu	1.086249	0.202490	0.188026
Cu9	Cu	1.061124	0.241274	-0.188017
O10	O	1.060500	0.438015	0.158990
C11	C	0.904289	0.233041	0.000003
C12	C	0.802157	0.229583	0.000002
C13	C	1.101103	-0.070168	0.000003
C14	C	1.111844	-0.247515	-0.000007
C15	C	0.719214	0.226775	-0.000005
C16	C	0.615157	0.223264	-0.000006
C17	C	0.532218	0.220478	-0.000006
C18	C	0.428154	0.216968	-0.000010
C19	C	1.243084	0.210723	0.000002
C20	C	1.345215	0.214182	-0.000010
C21	C	1.046269	0.513932	0.000002
C22	C	1.035528	0.691280	-0.000000
N23	N	1.103926	0.175210	0.452514
N24	N	1.043455	0.268541	-0.452505
H25	H	0.961973	-0.225444	0.000005
H26	H	1.185406	-0.330802	0.000008
N27	N	0.964818	0.389865	0.445111
N28	N	0.907958	0.477612	0.534307
H29	H	0.852418	0.563300	0.461990
H30	H	1.166608	0.078498	0.534172
