data_functionalizedCrystal
_audit_creation_method	'MofGen! by Chris Wilmer'
_symmetry_space_group_name_H-M	'P1'
_symmetry_Int_Tables_number	1
_symmetry_cell_setting	triclinic
loop_
_symmetry_equiv_pos_as_xyz
  x,y,z
_cell_length_a	20.016444
_cell_length_b	18.426585
_cell_length_c	20.016444
_cell_angle_alpha	60.001313
_cell_angle_beta	90.002955
_cell_angle_gamma	60.001461
loop_
_atom_site_label
_atom_site_type_symbol
_atom_site_fract_x
_atom_site_fract_y
_atom_site_fract_z
Zr1	Zr	0.643572	0.794388	-0.087648
O2	O	0.536893	0.945787	-0.194320
O3	O	0.676275	0.642989	-0.054951
O4	O	0.676267	0.794395	-0.194326
O5	O	0.536907	0.794375	0.054999
O6	O	0.786207	0.794401	-0.194326
O7	O	0.536901	0.794381	-0.054946
O8	O	0.786221	0.523562	0.054990
O9	O	0.536893	1.065214	-0.194316
O10	O	0.772269	0.705266	-0.041002
O11	O	0.690226	0.705257	0.041049
O12	O	0.690217	0.883519	-0.123047
O13	O	0.608174	0.883510	-0.040996
Zr14	Zr	0.818923	0.794388	0.087701
Zr15	Zr	0.818913	0.794397	-0.087649
Zr16	Zr	0.643581	0.794379	0.087701
Zr17	Zr	0.643571	0.984859	-0.087642
Zr18	Zr	0.818923	0.603916	0.087695
O19	O	0.786219	0.945787	0.055004
O20	O	0.786206	0.945800	-0.194321
O21	O	0.536906	0.945774	0.055004
O22	O	0.925601	0.642989	0.194373
O23	O	0.925588	0.643001	-0.054952
O24	O	0.676288	0.642976	0.194373
O25	O	0.925587	0.794401	-0.054946
O26	O	0.786227	0.794381	0.194379
O27	O	0.676288	0.794375	0.194379
O28	O	0.925593	0.794395	0.054999
O29	O	0.676266	1.065221	-0.194317
O30	O	0.786229	0.523555	0.194369
O31	O	0.925602	0.523562	0.194369
O32	O	0.925594	0.523569	0.054989
O33	O	0.536900	1.065207	-0.054937
O34	O	0.676273	1.065214	-0.054937
O35	O	0.772278	0.705257	0.123099
O36	O	0.854320	0.705266	0.041049
O37	O	0.772268	0.883519	-0.040996
O38	O	0.690226	0.883510	0.041055
C39	C	0.511922	0.794377	0.000027
C40	C	0.437485	0.794373	0.000027
C41	C	0.731248	0.556137	0.000018
C42	C	0.731249	0.475277	0.000015
C43	C	0.309048	0.701338	0.042855
C44	C	0.239103	0.701342	0.042857
C45	C	0.153448	0.887445	-0.042804
C46	C	0.223392	0.887439	-0.042800
C47	C	0.301192	0.794383	0.000027
C48	C	0.161302	0.794393	0.000026
C49	C	0.085465	0.794398	0.000028
C50	C	0.377035	0.794377	0.000027
C51	C	0.731244	0.179167	0.000039
C52	C	0.731243	0.261554	0.000034
C53	C	0.731246	0.327220	0.000027
C54	C	0.731246	0.409611	0.000023
C55	C	0.950573	0.794399	0.000026
C56	C	1.025010	0.794403	0.000026
C57	C	0.731236	0.794399	-0.219310
C58	C	0.731232	0.794403	-0.293750
C59	C	0.731246	1.032639	0.000035
C60	C	0.731246	1.113499	0.000037
C61	C	0.688416	0.887438	-0.507833
C62	C	0.688422	0.887433	-0.577774
C63	C	0.774084	0.701331	-0.492106
C64	C	0.774082	0.701336	-0.422167
C65	C	0.731243	0.794393	-0.430033
C66	C	0.731252	0.794383	-0.569914
C67	C	0.731259	0.794378	-0.645747
C68	C	0.731236	0.794399	-0.354196
C69	C	0.731259	0.794377	0.219362
C70	C	0.731263	0.794373	0.293803
C71	C	0.950574	0.556149	0.000018
C72	C	1.025011	0.475292	0.000015
C73	C	0.731260	0.556126	0.219354
C74	C	0.731264	0.475262	0.293792
C75	C	0.950585	0.556137	0.219354
C76	C	1.025027	0.475277	0.293791
C77	C	0.511909	1.032639	-0.219301
C78	C	0.437468	1.113499	-0.293739
C79	C	0.511921	1.032627	0.000035
C80	C	0.437483	1.113484	0.000038
C81	C	0.731235	1.032650	-0.219301
C82	C	0.731230	1.113514	-0.293739
C83	C	1.017138	0.437321	-0.042823
C84	C	1.087073	0.361359	-0.042842
C85	C	1.164881	0.323363	-0.000018
C86	C	1.172752	0.361342	0.042822
C87	C	1.102818	0.437308	0.042836
C88	C	0.774096	0.437287	0.371586
C89	C	0.774097	0.361318	0.441534
C90	C	0.731270	0.323319	0.433688
C91	C	0.688433	0.361301	0.355886
C92	C	0.688428	0.437274	0.285939
C93	C	1.102818	0.437309	0.285918
C94	C	1.172770	0.361343	0.355854
C95	C	1.164929	0.323341	0.433661
C96	C	1.087130	0.361317	0.441533
C97	C	1.017180	0.437287	0.371598
C98	C	0.359677	1.151476	-0.285866
C99	C	0.289724	1.227466	-0.355801
C100	C	0.297565	1.265472	-0.433609
C101	C	0.375365	1.227491	-0.441480
C102	C	0.445315	1.151508	-0.371546
C103	C	0.445357	1.151462	0.042869
C104	C	0.375422	1.227446	0.042868
C105	C	0.297614	1.265444	0.000041
C106	C	0.289742	1.227462	-0.042795
C107	C	0.359677	1.151485	-0.042799
C108	C	0.774065	1.151489	-0.285866
C109	C	0.774077	1.227459	-0.355802
C110	C	0.731249	1.265458	-0.433609
C111	C	0.688413	1.227476	-0.441481
C112	C	0.688406	1.151502	-0.371546
H113	H	0.372393	0.625566	0.077737
Cl114	Cl	0.209618	1.360993	-0.521520
H115	H	0.653521	1.120591	-0.377968
Cl116	Cl	0.919388	0.485003	0.381510
Cl117	Cl	0.349798	1.103713	-0.188059
H118	H	0.381739	1.258445	-0.504839
H119	H	0.653565	0.330351	0.349509
H120	H	0.226384	1.258377	-0.349376
H121	H	0.381847	1.258358	0.077754
H122	H	1.221894	0.261481	0.490600
Cl123	Cl	0.543107	1.103766	-0.381458
Cl124	Cl	0.055641	1.004423	-0.096643
Cl125	Cl	0.543164	1.103714	0.096711
Cl126	Cl	0.827957	0.313581	0.539332
H127	H	0.240676	1.327309	0.000052
Cl128	Cl	0.919331	0.485075	-0.096671
Cl129	Cl	1.077287	0.313531	0.539355
Cl130	Cl	0.827927	1.275199	-0.345888
H131	H	0.808941	1.120562	-0.222518
H132	H	1.236113	0.330395	0.077688
H133	H	0.353255	1.120565	-0.077675
Cl134	Cl	0.213515	1.004420	-0.096641
H135	H	0.731261	1.327322	-0.490548
H136	H	0.226382	1.258412	-0.077663
Cl137	Cl	0.827944	0.485039	0.381471
H138	H	1.109240	0.468214	0.077724
H139	H	0.653549	0.963200	-0.641119
H140	H	0.808961	0.625568	-0.485712
Cl141	Cl	1.077158	0.313626	-0.096698
Cl142	Cl	0.634582	0.484998	0.188144
Cl143	Cl	0.248985	0.584366	0.096704
Cl144	Cl	0.634568	1.004422	-0.517724
H145	H	1.109217	0.468238	0.222570
H146	H	0.731281	0.261456	0.490650
Cl147	Cl	1.270565	0.313613	0.345940
H148	H	0.653543	1.258427	-0.504841
Cl149	Cl	1.252791	0.227859	-0.000041
Cl150	Cl	0.827924	0.584356	-0.324354
