data_functionalizedCrystal
_audit_creation_method	'MofGen! by Chris Wilmer'
_symmetry_space_group_name_H-M	'P1'
_symmetry_Int_Tables_number	1
_symmetry_cell_setting	triclinic
loop_
_symmetry_equiv_pos_as_xyz
  x,y,z
_cell_length_a	19.377372
_cell_length_b	23.196402
_cell_length_c	19.377372
_cell_angle_alpha	48.620752
_cell_angle_beta	93.588494
_cell_angle_gamma	72.113939
loop_
_atom_site_label
_atom_site_type_symbol
_atom_site_fract_x
_atom_site_fract_y
_atom_site_fract_z
Zr1	Zr	0.544110	0.861649	-0.236095
O2	O	0.430303	0.981914	-0.349902
O3	O	0.578995	0.741384	-0.201212
O4	O	0.551827	0.905611	-0.377086
O5	O	0.478905	0.783009	-0.035290
O6	O	0.647691	0.940289	-0.398524
O7	O	0.457471	0.817687	-0.174028
O8	O	0.696289	0.646516	-0.083917
O9	O	0.430307	1.076781	-0.349897
O10	O	0.665419	0.816730	-0.202327
O11	O	0.609873	0.764970	-0.082790
O12	O	0.577886	0.958327	-0.289860
O13	O	0.522340	0.906567	-0.170322
Zr14	Zr	0.731186	0.861648	-0.049014
Zr15	Zr	0.697002	0.916956	-0.270286
Zr16	Zr	0.578295	0.806341	-0.014824
Zr17	Zr	0.544116	1.012950	-0.236087
Zr18	Zr	0.731181	0.710346	-0.049023
O19	O	0.696302	0.981912	-0.083898
O20	O	0.647695	1.060553	-0.398517
O21	O	0.478910	0.903273	-0.035283
O22	O	0.844993	0.741382	0.064793
O23	O	0.796387	0.820023	-0.249827
O24	O	0.627601	0.662743	0.113408
O25	O	0.796391	0.940288	-0.249820
O26	O	0.723470	0.817685	0.091977
O27	O	0.627606	0.783007	0.113415
O28	O	0.817825	0.905609	-0.111081
O29	O	0.551835	1.120743	-0.377074
O30	O	0.723462	0.602554	0.091965
O31	O	0.844990	0.646515	0.064788
O32	O	0.817817	0.690478	-0.111094
O33	O	0.457479	1.032818	-0.174016
O34	O	0.579008	1.076780	-0.201193
O35	O	0.697411	0.764970	0.004750
O36	O	0.752957	0.816729	-0.114787
O37	O	0.665424	0.958326	-0.202319
O38	O	0.609878	0.906566	-0.082782
C39	C	0.637641	0.672393	-0.142565
C40	C	0.637639	0.608162	-0.142569
C41	C	0.666628	0.605008	-0.204969
C42	C	0.666636	0.544648	-0.204962
C43	C	0.637639	0.487453	-0.142566
C44	C	0.608650	0.490606	-0.080154
C45	C	0.608650	0.550961	-0.080155
C46	C	0.573895	0.404724	-0.136291
C47	C	0.573892	0.344375	-0.136297
C48	C	0.637642	0.301296	-0.142556
C49	C	0.701390	0.318585	-0.148831
C50	C	0.701390	0.378939	-0.148832
C51	C	0.637636	0.422005	-0.142557
C52	C	0.666642	0.232694	-0.204952
C53	C	0.666654	0.172327	-0.204938
C54	C	0.608660	0.118292	-0.080135
C55	C	0.608657	0.178652	-0.080144
C56	C	0.637645	0.235853	-0.142557
C57	C	0.446404	0.792468	-0.099787
C58	C	0.381498	0.768989	-0.085272
C59	C	-0.060422	1.061321	-0.265991
C60	C	-0.121400	1.039239	-0.252338
C61	C	-0.030013	0.891423	-0.160962
C62	C	0.030974	0.913492	-0.174602
C63	C	0.015763	0.998443	-0.227118
C64	C	0.107159	0.850613	-0.135730
C65	C	0.168140	0.872681	-0.149373
C66	C	0.152936	0.957629	-0.201890
C67	C	0.076743	1.020511	-0.240762
C68	C	0.122368	0.765664	-0.083220
C69	C	0.198553	0.702786	-0.044347
C70	C	0.259537	0.724852	-0.057985
C71	C	0.244332	0.809799	-0.110501
C72	C	0.335729	0.661970	-0.019112
C73	C	0.396710	0.684038	-0.032756
C74	C	0.305313	0.831867	-0.124145
C75	C	0.828892	0.930829	-0.185322
C76	C	0.893799	0.954308	-0.199837
C77	C	0.594888	0.930830	-0.419332
C78	C	0.580376	0.954310	-0.513267
C79	C	0.637655	1.050903	-0.142544
C80	C	0.637658	1.115135	-0.142540
C81	C	0.761078	0.661974	-0.593756
C82	C	0.747426	0.684055	-0.682035
C83	C	0.656049	0.831871	-0.773402
C84	C	0.669696	0.809804	-0.685131
C85	C	0.722211	0.724853	-0.595313
C86	C	0.630829	0.872683	-0.686687
C87	C	0.644472	0.850615	-0.598422
C88	C	0.696982	0.765669	-0.508601
C89	C	0.735854	0.702786	-0.507048
C90	C	0.578310	0.957631	-0.776505
C91	C	0.539443	1.020510	-0.778061
C92	C	0.553090	0.998445	-0.689796
C93	C	0.605600	0.913498	-0.599976
C94	C	0.514218	1.061328	-0.691350
C95	C	0.527861	1.039260	-0.603085
C96	C	0.619243	0.891431	-0.511711
C97	C	0.680408	0.792466	0.134222
C98	C	0.694921	0.768986	0.228158
C99	C	0.828885	0.741573	-0.185333
C100	C	0.893789	0.700821	-0.199851
C101	C	0.680401	0.603211	0.134212
C102	C	0.694911	0.515500	0.228144
C103	C	0.871645	0.672391	0.091444
C104	C	0.951062	0.608159	0.170861
C105	C	0.403651	1.050905	-0.376554
C106	C	0.324235	1.115137	-0.455971
C107	C	0.446412	0.981723	-0.099777
C108	C	0.381508	1.022475	-0.085258
C109	C	0.594895	1.120086	-0.419321
C110	C	0.580385	1.207797	-0.513253
C111	C	0.878573	0.681686	-0.252374
C112	C	0.939549	0.643406	-0.266035
C113	C	1.015740	0.624257	-0.227166
C114	C	1.030954	0.643397	-0.174642
C115	C	0.969979	0.681682	-0.160988
C116	C	0.747421	0.474307	0.317959
C117	C	0.761053	0.391898	0.406227
C118	C	0.722179	0.350681	0.404677
C119	C	0.669664	0.391881	0.314852
C120	C	0.656028	0.474291	0.226587
C121	C	1.017357	0.605016	0.145758
C122	C	1.091982	0.544675	0.220369
C123	C	1.100309	0.487476	0.320083
C124	C	1.034006	0.490623	0.345186
C125	C	0.959383	0.550967	0.270576
C126	C	0.257939	1.118288	-0.430867
C127	C	0.183315	1.178647	-0.505478
C128	C	0.174987	1.235850	-0.605192
C129	C	0.241290	1.232699	-0.630295
C130	C	0.315913	1.172345	-0.555685
C131	C	0.396722	1.041619	-0.032745
C132	C	0.335743	1.079921	-0.019108
C133	C	0.259551	1.099074	-0.057980
C134	C	0.244337	1.079930	-0.110500
C135	C	0.305315	1.041634	-0.124142
C136	C	0.619271	1.248989	-0.511671
C137	C	0.605653	1.331398	-0.599924
C138	C	0.553144	1.372616	-0.689758
C139	C	0.514257	1.331417	-0.691338
C140	C	0.527880	1.249007	-0.603087
H141	H	0.690243	0.542080	-0.255777
H142	H	0.209906	1.130257	-0.046864
F143	F	0.538652	1.460326	-0.783677
H144	H	0.521972	0.439809	-0.131213
F145	F	0.289111	1.021258	-0.180028
F146	F	0.736700	0.262972	0.498625
F147	F	0.577796	0.429730	-0.013741
H148	H	1.065383	0.593082	-0.238291
F149	F	0.788798	0.617123	-0.680369
F150	F	0.477806	1.021245	0.008631
F151	F	0.797489	0.702062	-0.293752
F152	F	0.232415	1.293583	-0.736425
F153	F	0.675160	1.205137	-0.416072
H154	H	0.471504	1.364989	-0.764493
H155	H	0.803845	0.592800	-0.520620
H156	H	0.182294	1.095530	-0.142145
F157	F	0.647043	1.375232	-0.598221
F158	F	0.289127	0.922279	-0.180028
H159	H	0.496209	1.215476	-0.604388
F160	F	0.888830	0.554299	0.297309
F161	F	0.351905	0.571565	0.036767
H162	H	0.690234	0.651579	-0.255787
H163	H	0.753297	0.393011	-0.153938
H164	H	0.348146	1.095501	0.023661
F165	F	0.769241	0.272743	-0.155497
H166	H	0.927146	0.627826	-0.308803
H167	H	1.145960	0.542122	0.199912
H168	H	0.458747	0.632831	-0.001085
H169	H	0.210928	0.633620	-0.001591
F170	F	0.697500	0.293568	-0.271371
F171	F	1.112049	0.623009	-0.133278
H172	H	0.982380	0.697254	-0.118214
F173	F	0.628297	0.348003	0.313217
F174	F	0.816948	0.348064	0.501814
F175	F	0.217837	0.981117	-0.216414
F176	F	0.788804	0.518157	0.319632
H177	H	0.690265	0.169759	-0.255748
F178	F	0.112761	1.181985	-0.478741
F179	F	0.577799	0.057424	-0.013728
F180	F	0.600143	0.518120	0.131000
F181	F	1.008512	0.665889	0.039639
F182	F	1.179735	0.423256	0.399481
H183	H	0.521982	0.330307	-0.131193
F184	F	0.577800	0.182009	-0.013730
H185	H	1.040799	0.444043	0.426383
F186	F	0.486503	1.106186	-0.604742
H187	H	0.585042	0.553525	-0.029341
H188	H	0.264705	1.071712	-0.349680
H189	H	0.114220	1.284990	-0.665935
F190	F	0.600156	0.922277	-0.868997
H191	H	0.369891	1.169783	-0.576137
H192	H	-0.072806	1.130489	-0.308724
F193	F	0.060557	1.110923	-0.296645
H194	H	-0.183436	1.090450	-0.283999
H195	H	0.072710	0.747701	-0.072120
F196	F	0.675157	0.801024	-0.416118
F197	F	-0.013833	0.801016	-0.105074
H198	H	0.778621	0.633612	-0.433912
F199	F	0.711498	0.742181	-0.414660
H200	H	0.496683	1.089676	-0.851200
F201	F	0.458321	1.151731	-0.786945
F202	F	0.563789	0.981115	-0.870443
