data_functionalizedCrystal
_audit_creation_method	'MofGen! by Chris Wilmer'
_symmetry_space_group_name_H-M	'P1'
_symmetry_Int_Tables_number	1
_symmetry_cell_setting	triclinic
loop_
_symmetry_equiv_pos_as_xyz
  x,y,z
_cell_length_a	16.992694
_cell_length_b	15.021413
_cell_length_c	16.974813
_cell_angle_alpha	93.650548
_cell_angle_beta	92.975366
_cell_angle_gamma	89.997805
loop_
_atom_site_label
_atom_site_type_symbol
_atom_site_fract_x
_atom_site_fract_y
_atom_site_fract_z
O1	O	-1.040216	0.085996	0.167637
O2	O	-0.540216	0.585996	0.667637
O3	O	-0.811933	0.085889	0.165798
O4	O	-0.311933	0.585889	0.665798
O5	O	-0.932438	0.077674	0.052018
O6	O	-0.432438	0.577674	0.552018
O7	O	-0.919711	0.094211	0.281418
O8	O	-0.419711	0.594211	0.781418
O9	O	-0.932418	-0.070389	0.052034
O10	O	-0.432418	0.429611	0.552034
O11	O	-0.811913	-0.062174	0.165814
O12	O	-0.311913	0.437826	0.665814
O13	O	-1.040197	-0.062067	0.167654
O14	O	-0.540197	0.437933	0.667654
Zn15	Zn	-0.926052	-0.085629	0.166736
Zn16	Zn	-0.426052	0.414371	0.666736
Zn17	Zn	-0.926077	0.109451	0.166715
Zn18	Zn	-0.426077	0.609451	0.666715
O19	O	-0.919692	-0.053852	0.281434
O20	O	-0.419692	0.446148	0.781434
C21	C	-0.782713	0.011691	0.163440
C22	C	-0.282713	0.511691	0.663440
C23	C	-0.695676	0.011192	0.156381
C24	C	-0.195676	0.511192	0.656381
C25	C	-0.931944	0.001519	0.022537
C26	C	-0.431944	0.501519	0.522537
C27	C	-0.930491	-0.004809	-0.065331
C28	C	-0.430491	0.495191	0.434669
C29	C	-1.069416	0.012133	0.170012
C30	C	-0.569416	0.512133	0.670012
C31	C	-1.156453	0.012638	0.177071
C32	C	-0.656453	0.512638	0.677071
C33	C	-0.645363	0.016102	0.224496
C34	C	-0.145363	0.516102	0.724496
C35	C	-0.563583	0.015611	0.217858
C36	C	-0.063583	0.515611	0.717858
C37	C	-0.532119	0.010217	0.143104
C38	C	-0.032119	0.510217	0.643104
C39	C	-0.582439	0.005304	0.074984
C40	C	-0.082439	0.505304	0.574984
C41	C	-0.664217	0.005789	0.081623
C42	C	-0.164217	0.505789	0.581623
C43	C	-0.288551	0.008210	0.115590
C44	C	0.211449	0.508210	0.615590
C45	C	-0.206766	0.007728	0.108956
C46	C	0.293234	0.507728	0.608956
C47	C	-0.187916	0.018033	0.251831
C48	C	0.312084	0.518033	0.751831
C49	C	-0.269697	0.018522	0.258463
C50	C	0.230303	0.518522	0.758463
C51	C	-0.320010	0.013605	0.190342
C52	C	0.179990	0.513605	0.690342
N53	N	-0.448527	0.009718	0.136317
N54	N	0.051473	0.509718	0.636317
N55	N	-0.403599	0.014098	0.197130
N56	N	0.096401	0.514098	0.697130
N57	N	-0.926040	-0.218765	0.166751
N58	N	-0.426040	0.281235	0.666751
C59	C	-0.870310	-0.454652	0.219336
C60	C	-0.370310	0.045348	0.719336
C61	C	-0.941141	-0.512566	0.239158
C62	C	-0.441141	-0.012566	0.739158
C63	C	-0.926061	-0.400374	0.166732
C64	C	-0.426061	0.099626	0.666732
C65	C	-0.855250	-0.519200	0.146929
C66	C	-0.355250	-0.019200	0.646929
C67	C	-0.926074	-0.575799	0.166716
C68	C	-0.426074	-0.075799	0.666716
C69	C	-0.996926	-0.456978	0.186592
C70	C	-0.496926	0.043022	0.686592
C71	C	-0.910989	-0.463610	0.094329
C72	C	-0.410989	0.036390	0.594329
C73	C	-0.981870	-0.521499	0.114124
C74	C	-0.481870	-0.021499	0.614124
C75	C	-0.926052	-0.299315	0.166744
C76	C	-0.426052	0.200685	0.666744
C77	C	-0.926090	-0.676855	0.166704
C78	C	-0.426090	-0.176855	0.666704
N79	N	-0.926095	0.242587	0.166695
N80	N	-0.426095	0.742587	0.666695
C81	C	-0.929821	0.072927	-0.106616
C82	C	-0.429821	0.572927	0.393384
C83	C	-0.928451	0.066979	-0.189176
C84	C	-0.428451	0.566979	0.310824
C85	C	-0.927757	-0.016706	-0.230451
C86	C	-0.427757	0.483294	0.269549
C87	C	-0.928425	-0.094448	-0.189161
C88	C	-0.428425	0.405552	0.310839
C89	C	-0.929789	-0.088499	-0.106601
C90	C	-0.429789	0.411501	0.393399
C91	C	-0.923670	-0.043154	-0.477367
C92	C	-0.423670	0.456846	0.022633
C93	C	-0.922308	-0.049097	-0.559933
C94	C	-0.422308	0.450903	-0.059933
C95	C	-0.922333	0.112330	-0.559943
C96	C	-0.422333	0.612330	-0.059943
C97	C	-0.923702	0.118272	-0.477382
C98	C	-0.423702	0.618272	0.022618
C99	C	-0.924366	0.040530	-0.436098
C100	C	-0.424366	0.540530	0.063902
N101	N	-0.926359	-0.022789	-0.314842
N102	N	-0.426359	0.477211	0.185158
N103	N	-0.925758	0.046614	-0.351709
N104	N	-0.425758	0.546614	0.148291
C105	C	-0.920186	0.022305	0.310915
C106	C	-0.420186	0.522305	0.810915
C107	C	-0.921638	0.028639	0.398783
C108	C	-0.421638	0.528639	0.898783
H109	H	-0.670974	0.020495	0.285368
H110	H	-0.170974	0.520495	0.785368
H111	H	-1.029073	-0.550564	0.069632
H112	H	-0.529073	-0.050564	0.569632
H113	H	-0.556814	0.000900	0.014118
H114	H	-0.056814	0.500900	0.514118
H115	H	-0.898207	-0.441912	0.033124
H116	H	-0.398207	0.058088	0.533124
H117	H	-0.921791	0.175623	-0.593565
H118	H	-0.421791	0.675623	-0.093565
H119	H	-0.181152	0.003336	0.048080
H120	H	0.318848	0.503336	0.548080
H121	H	-0.146943	0.022035	0.307290
H122	H	0.353057	0.522035	0.807290
H123	H	-0.930390	0.141072	-0.073016
H124	H	-0.430390	0.641072	0.426984
H125	H	-0.921739	-0.117247	-0.593536
H126	H	-0.421739	0.382753	-0.093536
H127	H	-0.924226	-0.106457	-0.443765
H128	H	-0.424226	0.393543	0.056235
H129	H	-0.927909	0.130279	-0.222787
H130	H	-0.427909	0.630279	0.277213
H131	H	-0.924268	0.186417	-0.443781
H132	H	-0.424268	0.686417	0.056219
H133	H	-0.927855	-0.162586	-0.222773
H134	H	-0.427855	0.337414	0.277227
H135	H	-0.930324	-0.151800	-0.072987
H136	H	-0.430324	0.348200	0.427013
H137	H	-0.795361	-0.546485	0.130188
H138	H	-0.295361	-0.046485	0.630188
H139	H	-1.056828	-0.429800	0.203407
H140	H	-0.556828	0.070200	0.703407
H141	H	-0.295308	0.022925	0.319335
H142	H	0.204692	0.522925	0.819335
H143	H	-0.522621	0.019610	0.273324
H144	H	-0.022621	0.519610	0.773324
H145	H	-0.329506	0.004205	0.060121
H146	H	0.170494	0.504205	0.560121
H147	H	-0.705182	0.001791	0.026156
H148	H	-0.205182	0.501791	0.526156
H149	H	-0.823212	-0.425421	0.263863
H150	H	-0.323212	0.074579	0.763863
H151	H	-0.953900	-0.534241	0.300381
H152	H	-0.453900	-0.034241	0.800381
