data_functionalizedCrystal
_audit_creation_method	'MofGen! by Chris Wilmer'
_symmetry_space_group_name_H-M	'P1'
_symmetry_Int_Tables_number	1
_symmetry_cell_setting	triclinic
loop_
_symmetry_equiv_pos_as_xyz
  x,y,z
_cell_length_a	10.489711
_cell_length_b	10.489741
_cell_length_c	9.730223
_cell_angle_alpha	89.999747
_cell_angle_beta	90.004391
_cell_angle_gamma	84.533091
loop_
_atom_site_label
_atom_site_type_symbol
_atom_site_fract_x
_atom_site_fract_y
_atom_site_fract_z
O1	O	1.694074	0.179779	0.114339
O2	O	1.322873	0.196711	0.114331
O3	O	1.516920	0.002646	0.114327
O4	O	1.500027	0.373844	0.114343
O5	O	1.516907	0.002657	-0.114253
O6	O	1.322860	0.196722	-0.114249
O7	O	1.694061	0.179790	-0.114241
Zn8	Zn	1.508459	0.188258	-0.150537
Zn9	Zn	1.508475	0.188243	0.150627
O10	O	1.500014	0.373855	-0.114237
C11	C	1.275334	0.195446	0.000040
C12	C	1.133703	0.191644	0.000036
C13	C	0.951317	0.308348	0.000057
C14	C	1.043468	0.250047	0.112754
C15	C	1.043429	0.250027	-0.112608
C16	C	0.973517	0.126505	0.112856
C17	C	0.973468	0.126501	-0.112607
C18	C	1.065593	0.068111	0.000117
C19	C	1.515638	-0.044880	0.000038
C20	C	1.511820	-0.186509	0.000040
C21	C	1.388354	-0.254636	0.000047
C22	C	1.446672	-0.346759	-0.112653
C23	C	1.446714	-0.346745	0.112709
C24	C	1.570189	-0.276767	-0.112754
C25	C	1.570214	-0.276743	0.112710
C26	C	1.628622	-0.368839	-0.000018
C27	C	1.741600	0.181055	0.000053
C28	C	1.883231	0.184857	0.000065
C29	C	1.501296	0.421381	0.000055
C30	C	1.505114	0.563010	0.000062
N31	N	1.508457	0.188267	-0.356074
C32	C	1.586528	0.266374	-0.428007
C33	C	1.586547	0.266350	-0.571890
C34	C	1.430413	0.110108	-0.571893
C35	C	1.430401	0.110126	-0.428013
C36	C	1.664584	0.344515	-0.356068
C37	C	1.742660	0.422630	-0.428002
C38	C	1.742679	0.422606	-0.571885
C39	C	1.664622	0.344467	-0.643834
N40	N	1.508487	0.188224	0.356163
H41	H	0.901626	0.409850	0.000173
H42	H	1.664574	0.344546	-0.238912
H43	H	1.286841	-0.204974	-0.000069
H44	H	0.942714	0.074297	0.208244
C45	C	1.764121	-0.434702	-0.000376
C46	C	1.828145	-0.399214	-0.118586
C47	C	1.952959	-0.459877	-0.118979
H48	H	1.808470	-0.409717	0.078833
H49	H	1.761006	-0.524920	0.000310
H50	H	1.831266	-0.309016	-0.119260
H51	H	1.783834	-0.424199	-0.197814
H52	H	1.949845	-0.550095	-0.118292
H53	H	1.997296	-0.434889	-0.039765
H54	H	1.996411	-0.435817	-0.199188
C55	C	1.345497	0.025286	-0.350151
C56	C	1.277108	-0.043117	-0.443943
C57	C	1.198872	-0.121276	-0.372267
H58	H	1.397094	-0.033012	-0.294001
H59	H	1.287199	0.076975	-0.294069
H60	H	1.335399	-0.094802	-0.500002
H61	H	1.225487	0.015149	-0.500096
H62	H	1.140574	-0.069587	-0.316185
H63	H	1.250479	-0.179566	-0.316120
H64	H	1.152452	-0.167687	-0.435894
C65	C	1.827324	0.507671	-0.350070
C66	C	1.793332	0.635864	-0.385129
C67	C	1.871310	0.714239	-0.313383
H68	H	1.816205	0.496674	-0.254056
H69	H	1.914404	0.484888	-0.373657
H70	H	1.706273	0.658640	-0.361532
H71	H	1.804456	0.646901	-0.481131
H72	H	1.958390	0.691456	-0.336970
H73	H	1.860185	0.703231	-0.217372
H74	H	1.848265	0.801225	-0.337169
C75	C	1.084908	0.319469	0.239918
C76	C	1.168454	0.236200	0.317872
C77	C	1.206635	0.300109	0.435028
H78	H	1.127307	0.391557	0.213006
H79	H	1.011728	0.347199	0.293440
H80	H	1.241622	0.208489	0.264361
H81	H	1.126082	0.164112	0.344820
H82	H	1.133454	0.327839	0.488549
H83	H	1.249029	0.372195	0.408102
H84	H	1.263315	0.243618	0.487940
H85	H	1.394426	-0.377761	-0.207936
C86	C	1.131492	-0.067373	0.000469
C87	C	1.096037	-0.131422	0.118678
C88	C	1.156732	-0.256223	0.119064
H89	H	1.106511	-0.111721	-0.078741
H90	H	1.221708	-0.064234	-0.000221
H91	H	1.005842	-0.134568	0.119356
H92	H	1.121020	-0.087113	0.197907
H93	H	1.246947	-0.253084	0.118373
H94	H	1.131746	-0.300559	0.039849
H95	H	1.132694	-0.299692	0.199273
H96	H	1.074380	0.302305	-0.207886
H97	H	1.622416	-0.245708	0.207997
C98	C	0.932126	0.057108	-0.239823
C99	C	0.967140	0.122200	-0.357514
C100	C	0.929057	0.058334	-0.474741
H101	H	0.972806	-0.027757	-0.240830
H102	H	0.841848	0.054518	-0.238511
H103	H	1.057402	0.124776	-0.358826
H104	H	0.926464	0.207061	-0.356553
H105	H	0.838779	0.055743	-0.473429
H106	H	0.969741	-0.026529	-0.475734
H107	H	0.952798	0.102495	-0.554608
C108	C	1.827238	0.507488	-0.650166
C109	C	1.750696	0.593088	-0.732826
C110	C	1.828547	0.671295	-0.804969
H111	H	1.873746	0.554146	-0.586870
H112	H	1.885453	0.455811	-0.706351
H113	H	1.692504	0.644760	-0.676646
H114	H	1.704189	0.546466	-0.796147
H115	H	1.886761	0.619617	-0.861154
H116	H	1.875051	0.717943	-0.741663
H117	H	1.776626	0.729375	-0.861072
C118	C	1.376844	-0.387850	0.239709
C119	C	1.251123	-0.329470	0.239174
C120	C	1.186718	-0.367286	0.356147
H121	H	1.375454	-0.478261	0.239361
H122	H	1.419821	-0.362668	0.319777
H123	H	1.208157	-0.354660	0.159127
H124	H	1.252474	-0.239061	0.239543
H125	H	1.229694	-0.342104	0.436215
H126	H	1.185337	-0.457696	0.355788
H127	H	1.101413	-0.327672	0.355805
H128	H	1.622380	-0.245936	-0.208140
H129	H	1.664656	0.344441	-0.760994
H130	H	1.366860	0.046493	-0.630485
