data_functionalizedCrystal
_audit_creation_method	'MofGen! by Chris Wilmer'
_symmetry_space_group_name_H-M	'P1'
_symmetry_Int_Tables_number	1
_symmetry_cell_setting	triclinic
loop_
_symmetry_equiv_pos_as_xyz
  x,y,z
_cell_length_a	10.654554
_cell_length_b	15.995292
_cell_length_c	9.130313
_cell_angle_alpha	90.001944
_cell_angle_beta	89.999583
_cell_angle_gamma	83.977730
loop_
_atom_site_label
_atom_site_type_symbol
_atom_site_fract_x
_atom_site_fract_y
_atom_site_fract_z
O1	O	1.666257	0.117621	-0.121794
O2	O	1.300630	0.128821	-0.121795
O3	O	1.493476	0.001388	-0.121797
O4	O	1.473411	0.245053	-0.121792
O5	O	1.493474	0.001392	0.121802
O6	O	1.300627	0.128825	0.121804
O7	O	1.666255	0.117624	0.121805
Cu8	Cu	1.483441	0.123225	0.144047
Cu9	Cu	1.483444	0.123221	-0.144037
O10	O	1.473408	0.245057	0.121807
C11	C	1.253842	0.128000	0.000005
C12	C	1.114432	0.125537	0.000004
C13	C	0.932935	0.045875	-0.000010
C14	C	1.063926	0.048188	0.000001
C15	C	1.033939	0.200576	0.000011
C16	C	0.902951	0.198262	0.000011
C17	C	0.882437	-0.031478	-0.000028
C18	C	0.962921	-0.106518	-0.000033
C19	C	1.093912	-0.104205	-0.000022
C20	C	1.144419	-0.026851	-0.000007
C21	C	1.492658	-0.029810	-0.000001
C22	C	1.490210	-0.122778	-0.000012
C23	C	1.481209	-0.460568	0.000001
C24	C	1.620401	-0.436446	0.000546
C25	C	1.623046	-0.339755	-0.000008
C26	C	1.485675	-0.292986	-0.000004
C27	C	1.416088	-0.322494	-0.139107
C28	C	1.414412	-0.419295	-0.139218
C29	C	1.411567	-0.419164	0.137800
C30	C	1.416725	-0.322642	0.139633
C31	C	1.488192	-0.198276	-0.000013
C32	C	1.478688	-0.555279	-0.000000
C33	C	1.713043	0.118445	0.000002
C34	C	1.852453	0.120908	-0.000007
C35	C	1.474226	0.276255	0.000008
C36	C	1.476675	0.369223	0.000009
N37	N	1.483448	0.123227	0.346670
N38	N	1.483446	0.123212	-0.346660
C39	C	1.568862	0.066819	0.423321
C40	C	1.568859	0.066809	0.576657
C41	C	1.398023	0.179622	0.576679
C42	C	1.398022	0.179627	0.423345
C43	C	1.654289	0.010418	0.346646
C44	C	1.739711	-0.045993	0.423297
C45	C	1.739707	-0.046003	0.576634
C46	C	1.654282	0.010398	0.653319
H47	H	0.837419	0.259361	0.000020
N48	N	1.480238	-0.298960	0.268752
N49	N	1.440032	-0.316828	0.392255
H50	H	1.484882	-0.300092	0.483446
N51	N	1.283050	-0.437485	0.139009
N52	N	1.242219	-0.476741	0.244151
H53	H	1.151458	-0.489687	0.244998
H54	H	1.654278	0.010380	0.778177
N55	N	1.278222	-0.024484	0.000045
N56	N	1.343369	-0.057462	0.102742
H57	H	1.437866	-0.055790	0.102778
H58	H	1.455400	-0.446996	0.243239
N59	N	1.310776	0.237224	0.655029
N60	N	1.310790	0.237211	0.791933
H61	H	1.249172	0.277894	0.847269
N62	N	1.826944	-0.103606	0.344950
N63	N	1.826935	-0.103593	0.208046
H64	H	1.888544	-0.144285	0.152713
N65	N	1.826936	-0.103645	0.654919
N66	N	1.825238	-0.181048	0.637755
H67	H	1.886848	-0.221762	0.693036
H68	H	1.159439	-0.165306	-0.000012
N69	N	1.290961	-0.281977	0.150153
N70	N	1.213220	-0.290798	0.050255
H71	H	1.124403	-0.262062	0.057673
H72	H	1.075073	0.263554	0.000022
N73	N	0.748637	-0.033847	0.000005
N74	N	0.683482	-0.000870	0.102701
H75	H	0.588984	-0.002543	0.102728
N76	N	1.310796	0.237259	0.345035
N77	N	1.350622	0.289484	0.259482
H78	H	1.289016	0.330187	0.204174
N79	N	0.911315	-0.185522	-0.000025
N80	N	0.794361	-0.187579	-0.000028
H81	H	0.757914	-0.243377	-0.000019
H82	H	1.654301	0.010423	0.221791
N83	N	1.286399	-0.438315	-0.147175
N84	N	1.262359	-0.513137	-0.148686
H85	H	1.171952	-0.526569	-0.154317
N86	N	1.474872	-0.452578	-0.269670
N87	N	1.518011	-0.404293	-0.359996
H88	H	1.560714	-0.427795	-0.452132
H89	H	1.677545	-0.320412	0.099703
H90	H	1.464413	-0.302154	-0.242629
H91	H	1.673754	-0.465155	-0.098651
N92	N	1.687699	-0.471183	0.125689
N93	N	1.633868	-0.514127	0.215936
H94	H	1.681398	-0.538667	0.304322
H95	H	1.677869	-0.321033	-0.099897
H96	H	1.315001	-0.291215	-0.144275
