data_functionalizedCrystal
_audit_creation_method	'MofGen! by Chris Wilmer'
_symmetry_space_group_name_H-M	'P1'
_symmetry_Int_Tables_number	1
_symmetry_cell_setting	triclinic
loop_
_symmetry_equiv_pos_as_xyz
  x,y,z
_cell_length_a	19.288840
_cell_length_b	16.109301
_cell_length_c	18.366186
_cell_angle_alpha	89.993749
_cell_angle_beta	89.983729
_cell_angle_gamma	83.293800
loop_
_atom_site_label
_atom_site_type_symbol
_atom_site_fract_x
_atom_site_fract_y
_atom_site_fract_z
O1	O	0.921611	0.103617	-0.060671
O2	O	1.421611	0.603617	0.439329
O3	O	0.719382	0.117629	-0.060646
O4	O	1.219382	0.617629	0.439354
O5	O	0.826052	-0.010428	-0.060655
O6	O	1.326052	0.489572	0.439345
O7	O	0.814941	0.231674	-0.060663
O8	O	1.314941	0.731674	0.439337
O9	O	0.826034	-0.010434	0.060445
O10	O	1.326034	0.489566	0.560445
O11	O	0.719364	0.117623	0.060453
O12	O	1.219364	0.617623	0.560453
O13	O	0.921593	0.103610	0.060428
O14	O	1.421593	0.603610	0.560428
Zn15	Zn	0.820475	0.110616	0.079668
Zn16	Zn	1.320475	0.610616	0.579668
Zn17	Zn	0.820499	0.110624	-0.079886
Zn18	Zn	1.320499	0.610624	0.420114
O19	O	0.814923	0.231667	0.060437
O20	O	1.314923	0.731667	0.560437
C21	C	0.693495	0.117179	-0.000093
C22	C	1.193495	0.617179	0.499907
C23	C	0.616387	0.115836	-0.000083
C24	C	1.116387	0.615836	0.499917
C25	C	0.580192	0.115194	-0.066097
C26	C	1.080192	0.615194	0.433903
C27	C	0.507742	0.113923	-0.066105
C28	C	1.007742	0.613923	0.433895
C29	C	0.471492	0.113277	-0.000097
C30	C	0.971492	0.613277	0.499903
C31	C	0.507695	0.113923	0.065924
C32	C	1.007695	0.613923	0.565924
C33	C	0.580143	0.115203	0.065931
C34	C	1.080143	0.615203	0.565931
C35	C	0.362035	0.062549	0.050466
C36	C	0.862035	0.562549	0.550466
C37	C	0.289590	0.061264	0.050456
C38	C	0.789590	0.561264	0.550456
C39	C	0.248039	0.109334	-0.000116
C40	C	0.748039	0.609334	0.499884
C41	C	0.278944	0.158677	-0.050691
C42	C	0.778944	0.658677	0.449309
C43	C	0.351391	0.159957	-0.050684
C44	C	0.851391	0.659957	0.449316
C45	C	0.392934	0.111890	-0.000098
C46	C	0.892934	0.611890	0.499902
C47	C	0.133285	0.107315	-0.066144
C48	C	0.633285	0.607315	0.433856
C49	C	0.060833	0.106049	-0.066150
C50	C	0.560833	0.606049	0.433850
C51	C	0.060789	0.106041	0.065882
C52	C	0.560789	0.606041	0.565882
C53	C	0.133238	0.107315	0.065886
C54	C	0.633238	0.607315	0.565886
C55	C	0.169482	0.107948	-0.000129
C56	C	0.669482	0.607948	0.499871
C57	C	0.825593	-0.041404	-0.000105
C58	C	1.325593	0.458596	0.499895
C59	C	0.824243	-0.133694	-0.000106
C60	C	1.324243	0.366306	0.499894
C61	C	0.883128	-0.442900	-0.000126
C62	C	1.383128	0.057100	0.499874
C63	C	0.884402	-0.356185	-0.000122
C64	C	1.384402	0.143815	0.499878
C65	C	0.757842	-0.335865	-0.000096
C66	C	1.257842	0.164135	0.499904
C67	C	0.756568	-0.422579	-0.000095
C68	C	1.256568	0.077421	0.499905
C69	C	0.819213	-0.476095	-0.000114
C70	C	1.319213	0.023905	0.499886
C71	C	0.821761	-0.302665	-0.000111
C72	C	1.321761	0.197335	0.499889
C73	C	0.823143	-0.208644	-0.000106
C74	C	1.323143	0.291356	0.499894
C75	C	0.817832	-0.570122	-0.000117
C76	C	1.317832	-0.070122	0.499883
C77	C	0.947480	0.104061	-0.000127
C78	C	1.447480	0.604061	0.499873
C79	C	1.024588	0.105404	-0.000141
C80	C	1.524588	0.605404	0.499859
C81	C	0.815382	0.262644	-0.000114
C82	C	1.315382	0.762644	0.499886
C83	C	0.816732	0.354934	-0.000118
C84	C	1.316732	0.854934	0.499882
N85	N	0.820464	0.110610	0.188559
N86	N	1.320464	0.610610	0.688559
N87	N	0.820516	0.110624	-0.188777
N88	N	1.320516	0.610624	0.311223
C89	C	0.867713	0.053934	0.226656
C90	C	1.367713	0.553934	0.726656
C91	C	0.867718	0.053930	0.302883
C92	C	1.367718	0.553930	0.802883
C93	C	0.820480	0.110617	0.341012
C94	C	1.320480	0.610617	0.841012
C95	C	0.773222	0.167297	0.302906
C96	C	1.273222	0.667297	0.802906
C97	C	0.773214	0.167293	0.226679
C98	C	1.273214	0.667293	0.726679
C99	C	0.811362	0.186371	0.461770
C100	C	1.311362	0.686371	0.961770
C101	C	0.811375	0.186376	0.537995
C102	C	1.311375	0.686376	1.037995
C103	C	0.820499	0.110627	0.576119
C104	C	1.320499	0.610627	1.076119
C105	C	0.829626	0.034870	0.538009
C106	C	1.329626	0.534870	1.038009
C107	C	0.829618	0.034867	0.461783
C108	C	1.329618	0.534867	0.961783
C109	C	0.820482	0.110626	0.423666
C110	C	1.320482	0.610626	0.923666
C111	C	0.867756	0.053942	0.696871
C112	C	1.367756	0.553942	1.196871
C113	C	0.867755	0.053937	0.773100
C114	C	1.367755	0.553937	1.273100
C115	C	0.773263	0.167311	0.773121
C116	C	1.273263	0.667311	1.273121
C117	C	0.773260	0.167309	0.696893
C118	C	1.273260	0.667309	1.196893
C119	C	0.820510	0.110625	0.658773
C120	C	1.320510	0.610625	1.158773
H121	H	0.478266	0.113402	-0.119863
H122	H	0.978266	0.613402	0.380137
C123	C	0.173154	0.108026	-0.138760
C124	C	0.673154	0.608026	0.361240
N125	N	0.203182	0.108565	-0.193456
N126	N	0.703182	0.608565	0.306544
H127	H	0.704518	-0.449605	-0.000082
H128	H	1.204518	0.050395	0.499918
H129	H	0.162709	0.107832	0.119641
H130	H	0.662709	0.607832	0.619641
C131	C	0.021019	0.105339	-0.138773
C132	C	0.521019	0.605339	0.361227
N133	N	-0.008969	0.104801	-0.193475
N134	N	0.491031	0.604801	0.306525
H135	H	0.031274	0.105520	0.119627
H136	H	0.531274	0.605520	0.619627
H137	H	0.609697	0.115710	-0.119851
H138	H	1.109697	0.615710	0.380149
H139	H	0.936448	-0.329163	-0.000131
H140	H	1.436448	0.170837	0.499869
H141	H	0.906195	0.007776	0.333907
H142	H	1.406195	0.507776	0.833907
C143	C	0.255600	0.006994	0.106094
C144	C	0.755600	0.506994	0.606094
N145	N	0.230001	-0.033880	0.148006
N146	N	0.730001	0.466120	0.648006
C147	C	0.952040	-0.501765	-0.000137
C148	C	1.452040	-0.001765	0.499863
N149	N	1.003946	-0.546100	-0.000141
N150	N	1.503946	-0.046100	0.499859
C151	C	0.233242	0.211564	-0.106321
C152	C	0.733242	0.711564	0.393679
N153	N	0.198817	0.251397	-0.148219
N154	N	0.698817	0.751397	0.351781
C155	C	0.721332	0.229718	0.654985
C156	C	1.221332	0.729718	1.154985
N157	N	0.682232	0.276746	0.623421
N158	N	1.182232	0.776746	1.123421
C159	C	0.688936	-0.276990	-0.000086
C160	C	1.188936	0.223010	0.499914
N161	N	0.637034	-0.232646	-0.000082
N162	N	1.137034	0.267354	0.499918
H163	H	0.395861	0.023403	0.091651
H164	H	0.895861	0.523403	0.591651
C165	C	0.801324	0.269706	0.419841
C166	C	1.301324	0.769706	0.919841
N167	N	0.793764	0.332472	0.388261
N168	N	1.293764	0.832472	0.888261
C169	C	0.919683	-0.008428	0.184727
C170	C	1.419683	0.491572	0.684727
N171	N	0.958826	-0.055402	0.153146
N172	N	1.458826	0.444598	0.653146
C173	C	0.385379	0.214278	-0.106282
C174	C	0.885379	0.714278	0.393718
N175	N	0.410977	0.255210	-0.148147
N176	N	0.910977	0.755210	0.351853
C177	C	0.919724	-0.008428	0.815006
C178	C	1.419724	0.491572	1.315006
N179	N	0.958865	-0.055407	0.846570
N180	N	1.458865	0.444593	1.346570
H181	H	0.734798	0.213463	0.804164
H182	H	1.234798	0.713463	1.304164
C183	C	0.801328	0.269709	0.579909
C184	C	1.301328	0.769709	1.079909
N185	N	0.793757	0.332477	0.611477
N186	N	1.293757	0.832477	1.111477
H187	H	0.837048	-0.026817	0.430756
H188	H	1.337048	0.473183	0.930756
H189	H	0.906228	0.007784	0.665832
H190	H	1.406228	0.507784	1.165832
C191	C	0.839662	-0.048460	0.579940
C192	C	1.339662	0.451540	1.079940
N193	N	0.847222	-0.111223	0.611525
N194	N	1.347222	0.388777	1.111525
H195	H	0.734759	0.213450	0.333954
H196	H	1.234759	0.713450	0.833954
H197	H	0.609612	0.115726	0.119689
H198	H	1.109612	0.615726	0.619689
H199	H	0.734737	0.213446	0.195661
H200	H	1.234737	0.713446	0.695661
H201	H	0.478175	0.113399	0.119669
H202	H	0.978175	0.613399	0.619669
