data_functionalizedCrystal
_audit_creation_method	'MofGen! by Chris Wilmer'
_symmetry_space_group_name_H-M	'P1'
_symmetry_Int_Tables_number	1
_symmetry_cell_setting	triclinic
loop_
_symmetry_equiv_pos_as_xyz
  x,y,z
_cell_length_a	19.077105
_cell_length_b	19.076929
_cell_length_c	19.077068
_cell_angle_alpha	94.467801
_cell_angle_beta	90.115316
_cell_angle_gamma	90.078300
loop_
_atom_site_label
_atom_site_type_symbol
_atom_site_fract_x
_atom_site_fract_y
_atom_site_fract_z
Zn1	Zn	1.044032	-0.453497	-0.340427
Zn2	Zn	1.544032	0.046503	0.159573
Zn3	Zn	1.043949	-0.340339	-0.453583
Zn4	Zn	1.543949	0.159661	0.046417
Zn5	Zn	0.931648	-0.330929	-0.331006
Zn6	Zn	1.431648	0.169071	0.168994
Zn7	Zn	0.921785	-0.453075	-0.453152
Zn8	Zn	1.421785	0.046925	0.046848
O9	O	0.985354	-0.394460	-0.394542
O10	O	1.485354	0.105540	0.105458
O11	O	1.142180	-0.442602	-0.359560
O12	O	1.642180	0.057398	0.140440
O13	O	1.033146	-0.240615	-0.433560
O14	O	1.533146	0.259385	0.066440
O15	O	0.950719	-0.343427	-0.233781
O16	O	1.450719	0.156573	0.266219
O17	O	1.142120	-0.359465	-0.442695
O18	O	1.642120	0.140535	0.057305
O19	O	1.033287	-0.433477	-0.240703
O20	O	1.533287	0.066523	0.259297
O21	O	0.950638	-0.233702	-0.343504
O22	O	1.450638	0.266298	0.156496
O23	O	0.832180	-0.343017	-0.343086
O24	O	1.332180	0.156983	0.156914
O25	O	0.933908	-0.551606	-0.441962
O26	O	1.433908	-0.051606	0.058038
O27	O	0.824934	-0.432757	-0.432827
O28	O	1.324934	0.067243	0.067173
O29	O	1.023722	-0.551917	-0.359143
O30	O	1.523722	-0.051917	0.140857
O31	O	1.023581	-0.359055	-0.552000
O32	O	1.523581	0.140945	-0.052000
O33	O	0.933828	-0.441881	-0.551684
O34	O	1.433828	0.058119	-0.051684
C35	C	0.803105	-0.386820	-0.386888
C36	C	1.303105	0.113180	0.113112
C37	C	0.725137	-0.383570	-0.383631
C38	C	1.225137	0.116430	0.116369
C39	C	0.977644	-0.401459	-0.577377
C40	C	1.477644	0.098541	-0.077377
C41	C	0.974409	-0.404480	-0.655598
C42	C	1.474409	0.095520	-0.155598
C43	C	0.977724	-0.578009	-0.401555
C44	C	1.477724	-0.078009	0.098445
C45	C	0.974473	-0.656227	-0.404544
C46	C	1.474473	-0.156227	0.095456
C47	C	0.684753	-0.428697	-0.428889
C48	C	1.184753	0.071303	0.071111
C49	C	0.611494	-0.425645	-0.425820
C50	C	1.111494	0.074355	0.074180
C51	C	0.578621	-0.377463	-0.377496
C52	C	1.078621	0.122537	0.122504
C53	C	0.619010	-0.332333	-0.332233
C54	C	1.119010	0.167667	0.167767
C55	C	0.692268	-0.335389	-0.335299
C56	C	1.192268	0.164611	0.164701
C57	C	0.359927	-0.363325	-0.363304
C58	C	0.859927	0.136675	0.136696
C59	C	0.286664	-0.360271	-0.360243
C60	C	0.786664	0.139729	0.139757
C61	C	0.279153	-0.453584	-0.453830
C62	C	0.779153	0.046416	0.046170
C63	C	0.352413	-0.456633	-0.456895
C64	C	0.852413	0.043367	0.043105
C65	C	0.392795	-0.411506	-0.411629
C66	C	0.892795	0.088494	0.088371
N67	N	0.503738	-0.374341	-0.374359
N68	N	1.003738	0.125659	0.125641
N69	N	0.467676	-0.414632	-0.414763
N70	N	0.967676	0.085368	0.085237
C71	C	1.168313	-0.402130	-0.402226
C72	C	1.668313	0.097870	0.097774
C73	C	1.246280	-0.405398	-0.405501
C74	C	1.746280	0.094602	0.094499
C75	C	0.951156	-1.096494	-0.426035
C76	C	1.451156	-0.596494	0.073965
C77	C	0.954209	-1.023000	-0.423217
C78	C	1.454209	-0.523000	0.076783
C79	C	1.002500	-0.986418	-0.378692
C80	C	1.502500	-0.486418	0.121308
C81	C	1.047737	-1.023334	-0.336978
C82	C	1.547737	-0.523334	0.163022
C83	C	1.044681	-1.096827	-0.339794
C84	C	1.544681	-0.596827	0.160206
C85	C	1.016653	-0.766636	-0.365645
C86	C	1.516653	-0.266636	0.134355
C87	C	1.019708	-0.693138	-0.362835
C88	C	1.519708	-0.193138	0.137165
C89	C	0.926178	-0.692809	-0.449072
C90	C	1.426178	-0.192809	0.050928
C91	C	0.923129	-0.766303	-0.451887
C92	C	1.423129	-0.266303	0.048113
C93	C	0.968363	-0.803213	-0.410170
C94	C	1.468363	-0.303213	0.089830
N95	N	1.005623	-0.911295	-0.375812
N96	N	1.505623	-0.411295	0.124188
N97	N	0.965236	-0.878334	-0.413048
N98	N	1.465236	-0.378334	0.086952
C99	C	0.992996	-0.211625	-0.387507
C100	C	1.492996	0.288375	0.112493
C101	C	0.996391	-0.133405	-0.384326
C102	C	1.496391	0.366595	0.115674
C103	C	1.019652	-0.362814	-0.692490
C104	C	1.519652	0.137186	-0.192490
C105	C	1.016613	-0.365660	-0.765988
C106	C	1.516613	0.134340	-0.265988
C107	C	0.968327	-0.410167	-0.802591
C108	C	1.468327	0.089833	-0.302591
C109	C	0.923082	-0.451837	-0.765693
C110	C	1.423082	0.048163	-0.265693
C111	C	0.926124	-0.448995	-0.692198
C112	C	1.426124	0.051005	-0.192198
C113	C	0.954215	-0.423291	-1.022385
C114	C	1.454215	0.076709	-0.522385
C115	C	0.951175	-0.426128	-1.095885
C116	C	1.451175	0.073872	-0.595885
C117	C	1.044708	-0.339951	-1.096175
C118	C	1.544708	0.160049	-0.596175
C119	C	1.047743	-0.337110	-1.022677
C120	C	1.547743	0.162890	-0.522677
C121	C	1.002500	-0.378782	-0.985786
C122	C	1.502500	0.121218	-0.485786
N123	N	0.965218	-0.413075	-0.877717
N124	N	1.465218	0.086925	-0.377717
N125	N	1.005613	-0.375878	-0.910662
N126	N	1.505613	0.124122	-0.410662
C127	C	0.993112	-0.387450	-0.210995
C128	C	1.493112	0.112550	0.289005
C129	C	0.996418	-0.384462	-0.132778
C130	C	1.496418	0.115538	0.367222
H131	H	0.711513	-0.467930	-0.468243
H132	H	1.211513	0.032070	0.031757
H133	H	0.883769	-0.488079	-0.795502
H134	H	1.383769	0.011921	-0.295502
H135	H	0.392798	-0.326574	-0.326451
H136	H	0.892798	0.173426	0.173549
C137	C	0.904454	-0.982398	-0.469097
C138	C	1.404454	-0.482398	0.030903
H139	H	0.913184	-0.933388	-0.461039
H140	H	1.413184	-0.433388	0.038961
H141	H	0.912220	-0.996673	-0.517271
H142	H	1.412220	-0.496673	-0.017271
H143	H	0.857257	-0.992075	-0.457276
H144	H	1.357257	-0.492075	0.042724
C145	C	1.066362	-0.319810	-0.806569
C146	C	1.566362	0.180190	-0.306569
H147	H	1.057637	-0.327877	-0.855582
H148	H	1.557637	0.172123	-0.355582
H149	H	1.058580	-0.271631	-0.792310
H150	H	1.558580	0.228369	-0.292310
H151	H	1.113563	-0.331642	-0.796857
H152	H	1.613563	0.168358	-0.296857
H153	H	1.087054	-0.993544	-0.300722
H154	H	1.587054	-0.493544	0.199278
H155	H	0.917376	-0.457221	-0.992354
H156	H	1.417376	0.042779	-0.492354
H157	H	0.911862	-0.462384	-1.125686
H158	H	1.411862	0.037616	-0.625686
C159	C	1.094441	-1.137430	-0.293917
C160	C	1.594441	-0.637430	0.206083
H161	H	1.123645	-1.105119	-0.267001
H162	H	1.623645	-0.605119	0.232999
H163	H	1.067715	-1.163806	-0.263226
H164	H	1.567715	-0.663806	0.236774
H165	H	1.122675	-1.168406	-0.323224
H166	H	1.622675	-0.668406	0.176776
C167	C	0.876358	-0.494828	-0.651616
C168	C	1.376358	0.005172	-0.151616
H169	H	0.847161	-0.521739	-0.683940
H170	H	1.347161	-0.021739	-0.183940
H171	H	0.903082	-0.525524	-0.625208
H172	H	1.403082	-0.025524	-0.125208
H173	H	0.848118	-0.465496	-0.620671
H174	H	1.348118	0.034504	-0.120671
H175	H	0.578617	-0.462392	-0.462675
H176	H	1.078617	0.037608	0.037325
H177	H	0.883806	-0.796083	-0.488144
H178	H	1.383806	-0.296083	0.011856
H179	H	0.379173	-0.495867	-0.496247
H180	H	0.879173	0.004133	0.003753
H181	H	0.246266	-0.490325	-0.490681
H182	H	0.746266	0.009675	0.009319
H183	H	0.889351	-0.662749	-0.483035
H184	H	1.389351	-0.162749	0.016965
C185	C	1.100862	-0.288156	-0.982419
C186	C	1.600862	0.211844	-0.482419
H187	H	1.127377	-0.263753	-1.014918
H188	H	1.627377	0.236247	-0.514918
H189	H	1.076517	-0.255242	-0.951486
H190	H	1.576517	0.244758	-0.451486
H191	H	1.131473	-0.315277	-0.956024
H192	H	1.631473	0.184723	-0.456024
C193	C	0.250504	-0.307272	-0.307080
C194	C	0.750504	0.192728	0.192920
H195	H	0.285046	-0.280838	-0.280555
H196	H	0.785046	0.219162	0.219445
H197	H	0.222064	-0.276401	-0.331579
H198	H	0.722064	0.223599	0.168421
H199	H	0.222100	-0.331887	-0.276297
H200	H	0.722100	0.168113	0.223703
C201	C	0.582851	-0.279331	-0.279079
C202	C	1.082851	0.220669	0.220921
H203	H	0.533437	-0.283968	-0.283740
H204	H	1.033437	0.216032	0.216260
H205	H	0.596417	-0.288395	-0.232711
H206	H	1.096417	0.211605	0.267289
H207	H	0.596385	-0.232923	-0.288007
H208	H	1.096385	0.267077	0.211993
H209	H	1.058969	-0.326568	-0.662693
H210	H	1.558969	0.173432	-0.162693
C211	C	1.072829	-0.652896	-0.313857
C212	C	1.572829	-0.152896	0.186143
H213	H	1.068175	-0.603841	-0.318163
H214	H	1.568175	-0.103841	0.181837
H215	H	1.064064	-0.662703	-0.266603
H216	H	1.564064	-0.162703	0.233397
H217	H	1.119025	-0.667311	-0.326602
H218	H	1.619025	-0.167311	0.173398
C219	C	0.736690	-0.285750	-0.285514
C220	C	1.236690	0.214250	0.214486
H221	H	0.706621	-0.256613	-0.256298
H222	H	1.206621	0.243387	0.243702
H223	H	0.765441	-0.312742	-0.257123
H224	H	1.265441	0.187258	0.242877
H225	H	0.765407	-0.257261	-0.312409
H226	H	1.265407	0.242739	0.187591
H227	H	1.053489	-0.796679	-0.331681
H228	H	1.553489	-0.296679	0.168319
H229	H	1.081543	-0.306024	-1.126219
H230	H	1.581543	0.193976	-0.626219
H231	H	0.911835	-1.126274	-0.462295
H232	H	1.411835	-0.626274	0.037705
