data_functionalizedCrystal
_audit_creation_method	'MofGen! by Chris Wilmer'
_symmetry_space_group_name_H-M	'P1'
_symmetry_Int_Tables_number	1
_symmetry_cell_setting	triclinic
loop_
_symmetry_equiv_pos_as_xyz
  x,y,z
_cell_length_a	27.732048
_cell_length_b	27.732048
_cell_length_c	26.210047
_cell_angle_alpha	90.000479
_cell_angle_beta	89.996535
_cell_angle_gamma	97.357345
loop_
_atom_site_label
_atom_site_type_symbol
_atom_site_fract_x
_atom_site_fract_y
_atom_site_fract_z
O1	O	0.640931	-0.057510	-0.042369
O2	O	1.140931	0.442490	0.457631
O3	O	0.500138	-0.066256	-0.042385
O4	O	1.000138	0.433744	0.457615
O5	O	0.574907	0.008514	-0.042367
O6	O	1.074907	0.508514	0.457633
O7	O	0.566162	-0.132279	-0.042387
O8	O	1.066162	0.367721	0.457613
O9	O	0.574893	0.008502	0.042491
O10	O	1.074893	0.508502	0.542491
O11	O	0.500123	-0.066267	0.042473
O12	O	1.000123	0.433733	0.542473
O13	O	0.640917	-0.057522	0.042489
O14	O	1.140917	0.442478	0.542489
Cu15	Cu	0.570519	-0.061896	0.050229
Cu16	Cu	1.070519	0.438104	0.550229
Cu17	Cu	0.570536	-0.061882	-0.050125
Cu18	Cu	1.070536	0.438118	0.449875
O19	O	0.566147	-0.132291	0.042471
O20	O	1.066147	0.367709	0.542471
C21	C	0.482124	-0.066078	0.000042
C22	C	0.982124	0.433922	0.500042
C23	C	0.428469	-0.065525	0.000036
C24	C	0.928469	0.434475	0.500036
C25	C	0.089654	-0.106229	0.000053
C26	C	0.589654	0.393771	0.500053
C27	C	-0.112006	-0.104178	0.000057
C28	C	0.387994	0.395822	0.500057
O29	O	-0.143262	-0.141398	0.000074
O30	O	0.356738	0.358602	0.500074
N31	N	-0.131130	-0.059843	0.000063
N32	N	0.368870	0.440157	0.500063
C33	C	-0.099835	-0.016017	0.000071
C34	C	0.400165	0.483983	0.500071
O35	O	-0.120728	0.021740	0.000081
O36	O	0.379272	0.521740	0.500081
C37	C	0.101824	-0.018068	0.000069
C38	C	0.601824	0.481932	0.500069
C39	C	0.120944	-0.062407	0.000059
C40	C	0.620944	0.437593	0.500059
C41	C	0.108775	-0.150563	0.000043
C42	C	0.608775	0.349437	0.500043
C43	C	0.159187	-0.151076	0.000039
C44	C	0.659187	0.348924	0.500039
C45	C	0.190477	-0.107253	0.000045
C46	C	0.690477	0.392747	0.500045
C47	C	0.171356	-0.062919	0.000055
C48	C	0.671356	0.437081	0.500055
C49	C	0.133117	0.025757	0.000081
C50	C	0.633117	0.525757	0.500081
C51	C	0.183535	0.025240	0.000082
C52	C	0.683535	0.525240	0.500082
C53	C	0.202655	-0.019098	0.000071
C54	C	0.702655	0.480902	0.500071
C55	C	0.253059	-0.019609	0.000057
C56	C	0.753059	0.480391	0.500057
N57	N	0.272183	-0.063944	0.000051
N58	N	0.772183	0.436056	0.500051
C59	C	0.240892	-0.107766	0.000045
C60	C	0.740892	0.392234	0.500045
C61	C	-0.205709	-0.014943	0.000070
C62	C	0.294291	0.485057	0.500070
C63	C	-0.256124	-0.014430	0.000070
C64	C	0.243876	0.485570	0.500070
C65	C	-0.268291	-0.102591	0.000057
C66	C	0.231709	0.397409	0.500057
C67	C	-0.217876	-0.103104	0.000054
C68	C	0.282124	0.396896	0.500054
C69	C	-0.186585	-0.059278	0.000065
C70	C	0.313415	0.440722	0.500065
C71	C	0.346761	-0.108839	0.000036
C72	C	0.846761	0.391161	0.500036
C73	C	0.397178	-0.109347	0.000030
C74	C	0.897178	0.390653	0.500030
C75	C	0.409341	-0.021186	0.000045
C76	C	0.909341	0.478814	0.500045
C77	C	0.358929	-0.020678	0.000049
C78	C	0.858929	0.479322	0.500049
C79	C	0.327639	-0.064508	0.000046
C80	C	0.827639	0.435492	0.500046
O81	O	0.284343	0.017592	0.000046
O82	O	0.784343	0.517592	0.500046
O83	O	0.261794	-0.145518	0.000047
O84	O	0.761794	0.354482	0.500047
C85	C	0.039242	-0.105716	0.000057
C86	C	0.539242	0.394284	0.500057
C87	C	0.020120	-0.061382	0.000067
C88	C	0.520120	0.438618	0.500067
C89	C	0.051411	-0.017560	0.000073
C90	C	0.551411	0.482440	0.500073
C91	C	-0.030294	-0.060869	0.000066
C92	C	0.469706	0.439131	0.500066
C93	C	-0.061585	-0.104691	0.000060
C94	C	0.438415	0.395309	0.500060
C95	C	-0.042461	-0.149026	0.000054
C96	C	0.457539	0.350974	0.500054
C97	C	0.007951	-0.149539	0.000050
C98	C	0.507951	0.350461	0.500050
C99	C	0.032287	0.026775	0.000078
C100	C	0.532287	0.526775	0.500078
C101	C	-0.018125	0.027284	0.000082
C102	C	0.481875	0.527284	0.500082
C103	C	-0.049416	-0.016538	0.000076
C104	C	0.450584	0.483462	0.500076
C105	C	0.574716	0.026515	0.000064
C106	C	1.074716	0.526515	0.500064
C107	C	0.574164	0.080170	0.000068
C108	C	1.074164	0.580170	0.500068
C109	C	0.658931	-0.057699	0.000061
C110	C	1.158931	0.442301	0.500061
C111	C	0.712586	-0.058252	0.000064
C112	C	1.212586	0.441748	0.500064
C113	C	0.566338	-0.150292	0.000040
C114	C	1.066338	0.349708	0.500040
C115	C	0.566891	-0.203947	0.000032
C116	C	1.066891	0.296053	0.500032
N117	N	0.570510	-0.061905	0.120813
N118	N	1.070510	0.438095	0.620813
C119	C	0.614867	0.418985	0.000046
C120	C	1.114867	0.918985	0.500046
C121	C	0.612816	0.620645	0.000039
C122	C	1.112816	1.120645	0.500039
O123	O	0.650037	0.651900	0.000021
O124	O	1.150037	1.151900	0.500021
N125	N	0.568481	0.639768	0.000034
N126	N	1.068481	1.139768	0.500034
C127	C	0.524656	0.608474	0.000028
C128	C	1.024656	1.108474	0.500028
O129	O	0.486899	0.629367	0.000019
O130	O	0.986899	1.129367	0.500019
C131	C	0.526707	0.406815	0.000032
C132	C	1.026707	0.906815	0.500032
C133	C	0.571045	0.387694	0.000042
C134	C	1.071045	0.887694	0.500042
C135	C	0.659202	0.399864	0.000056
C136	C	1.159202	0.899864	0.500056
C137	C	0.659714	0.349452	0.000060
C138	C	1.159714	0.849452	0.500060
C139	C	0.615892	0.318161	0.000056
C140	C	1.115892	0.818161	0.500056
C141	C	0.571557	0.337282	0.000046
C142	C	1.071557	0.837282	0.500046
C143	C	0.482882	0.375521	0.000022
C144	C	0.982882	0.875521	0.500022
C145	C	0.483399	0.325104	0.000022
C146	C	0.983399	0.825104	0.500022
C147	C	0.527737	0.305983	0.000032
C148	C	1.027737	0.805983	0.500032
C149	C	0.528247	0.255580	0.000046
C150	C	1.028247	0.755580	0.500046
N151	N	0.572583	0.236456	0.000051
N152	N	1.072583	0.736456	0.500051
C153	C	0.616405	0.267747	0.000056
C154	C	1.116405	0.767747	0.500056
C155	C	0.523582	0.714348	0.000027
C156	C	1.023582	1.214348	0.500027
C157	C	0.523069	0.764762	0.000027
C158	C	1.023069	1.264762	0.500027
C159	C	0.611230	0.776930	0.000037
C160	C	1.111230	1.276930	0.500037
C161	C	0.611742	0.726514	0.000041
C162	C	1.111742	1.226514	0.500041
C163	C	0.567917	0.695224	0.000032
C164	C	1.067917	1.195224	0.500032
C165	C	0.617477	0.161878	0.000066
C166	C	1.117477	0.661878	0.500066
C167	C	0.617986	0.111461	0.000073
C168	C	1.117986	0.611461	0.500073
C169	C	0.529825	0.099298	0.000060
C170	C	1.029825	0.599298	0.500060
C171	C	0.529316	0.149710	0.000056
C172	C	1.029316	0.649710	0.500056
C173	C	0.573147	0.180999	0.000057
C174	C	1.073147	0.680999	0.500057
O175	O	0.491047	0.224296	0.000059
O176	O	0.991047	0.724296	0.500059
O177	O	0.654156	0.246844	0.000054
O178	O	1.154156	0.746844	0.500054
C179	C	0.614355	0.469397	0.000042
C180	C	1.114355	0.969397	0.500042
C181	C	0.570021	0.488518	0.000033
C182	C	1.070021	0.988518	0.500033
C183	C	0.526198	0.457228	0.000028
C184	C	1.026198	0.957228	0.500028
C185	C	0.569508	0.538933	0.000033
C186	C	1.069508	1.038933	0.500033
C187	C	0.613330	0.570223	0.000037
C188	C	1.113330	1.070223	0.500037
C189	C	0.657665	0.551100	0.000042
C190	C	1.157665	1.051100	0.500042
C191	C	0.658177	0.500688	0.000046
C192	C	1.158177	1.000688	0.500046
C193	C	0.481863	0.476351	0.000023
C194	C	0.981863	0.976351	0.500023
C195	C	0.481355	0.526764	0.000019
C196	C	0.981355	1.026764	0.500019
C197	C	0.525177	0.558054	0.000024
C198	C	1.025177	1.058054	0.500024
N199	N	0.570548	-0.061868	-0.120709
N200	N	1.070548	0.438132	0.379291
C201	C	0.603640	-0.028781	0.473336
C202	C	1.103640	0.471219	0.973336
C203	C	0.603651	-0.028774	0.686994
C204	C	1.103651	0.471226	1.186994
O205	O	0.631801	-0.000614	0.714623
O206	O	1.131801	0.499386	1.214623
N207	N	0.570538	-0.061871	0.713707
N208	N	1.070538	0.438129	1.213707
C209	C	0.537419	-0.094970	0.687003
C210	C	1.037419	0.405030	1.187003
O211	O	0.509251	-0.123117	0.714626
O212	O	1.009251	0.376883	1.214626
C213	C	0.537406	-0.094974	0.473345
C214	C	1.037406	0.405026	0.973345
C215	C	0.570524	-0.061878	0.446635
C216	C	1.070524	0.438122	0.946635
C217	C	0.636755	0.004312	0.446625
C218	C	1.136755	0.504312	0.946625
C219	C	0.636754	0.004308	0.393214
C220	C	1.136754	0.504308	0.893214
C221	C	0.603638	-0.028789	0.366513
C222	C	1.103638	0.471211	0.866513
C223	C	0.570523	-0.061882	0.393223
C224	C	1.070523	0.438118	0.893223
C225	C	0.504284	-0.128070	0.446641
C226	C	1.004284	0.371930	0.946641
C227	C	0.504283	-0.128067	0.393223
C228	C	1.004283	0.371933	0.893223
C229	C	0.537401	-0.094971	0.366513
C230	C	1.037401	0.405029	0.866513
C231	C	0.537405	-0.094983	0.313111
C232	C	1.037405	0.405017	0.813111
N233	N	0.570518	-0.061886	0.286397
N234	N	1.070518	0.438114	0.786397
C235	C	0.603634	-0.028789	0.313098
C236	C	1.103634	0.471211	0.813098
C237	C	0.537428	-0.094966	0.799176
C238	C	1.037428	0.405034	1.299176
C239	C	0.537432	-0.094965	0.852590
C240	C	1.037432	0.405035	1.352590
C241	C	0.603664	-0.028769	0.852578
C242	C	1.103664	0.471231	1.352578
C243	C	0.603662	-0.028773	0.799163
C244	C	1.103662	0.471227	1.299163
C245	C	0.570541	-0.061869	0.772463
C246	C	1.070541	0.438131	1.272463
C247	C	0.603629	-0.028800	0.200931
C248	C	1.103629	0.471200	0.700931
C249	C	0.603626	-0.028808	0.147514
C250	C	1.103626	0.471192	0.647514
C251	C	0.537393	-0.095002	0.147531
C252	C	1.037393	0.404998	0.647531
C253	C	0.537397	-0.094996	0.200943
C254	C	1.037397	0.405004	0.700943
C255	C	0.570517	-0.061891	0.227641
C256	C	1.070517	0.438109	0.727641
O257	O	0.509267	-0.123125	0.285449
O258	O	1.009267	0.376875	0.785449
O259	O	0.631790	-0.000639	0.285466
O260	O	1.131790	0.499361	0.785466
C261	C	0.603641	-0.028777	0.526747
C262	C	1.103641	0.471223	1.026747
C263	C	0.570527	-0.061871	0.553457
C264	C	1.070527	0.438129	1.053457
C265	C	0.537410	-0.094968	0.526756
C266	C	1.037410	0.405032	1.026756
C267	C	0.570530	-0.061870	0.606872
C268	C	1.070530	0.438130	1.106872
C269	C	0.603646	-0.028773	0.633573
C270	C	1.103646	0.471227	1.133573
C271	C	0.636759	0.004323	0.606859
C272	C	1.136759	0.504323	1.106859
C273	C	0.636758	0.004320	0.553448
C274	C	1.136758	0.504320	1.053448
C275	C	0.504298	-0.128064	0.553470
C276	C	1.004298	0.371936	1.053470
C277	C	0.504302	-0.128058	0.606881
C278	C	1.004302	0.371942	1.106881
C279	C	0.537418	-0.094961	0.633582
C280	C	1.037418	0.405039	1.133582
H281	H	-0.271687	0.021674	0.000070
H282	H	0.228313	0.521674	0.500070
H283	H	-0.180236	0.020747	0.000079
H284	H	0.319764	0.520747	0.500079
H285	H	0.023514	-0.185643	0.000042
H286	H	0.523514	0.314357	0.500042
N287	N	0.338302	0.027142	0.000051
N288	N	0.838302	0.527142	0.500051
H289	H	0.365776	0.054825	0.000051
H290	H	0.865776	0.554825	0.500051
H291	H	0.317651	0.029272	0.031512
H292	H	0.817651	0.529272	0.531512
H293	H	-0.033688	0.063392	0.000086
H294	H	0.466312	0.563392	0.500086
N295	N	0.672480	0.040019	0.635664
N296	N	1.172480	0.540019	1.135664
H297	H	0.667452	0.034995	0.673553
H298	H	1.167452	0.534995	1.173553
H299	H	0.667154	0.074274	0.626329
H300	H	1.167154	0.574274	1.126329
N301	N	0.434593	0.442610	0.000023
N302	N	0.934593	0.942610	0.500023
H303	H	0.432834	0.421425	0.031483
H304	H	0.932834	0.921425	0.531483
H305	H	0.432867	0.421449	-0.031452
H306	H	0.932867	0.921449	0.468548
H307	H	0.117558	0.061861	0.000090
H308	H	0.617558	0.561861	0.500090
H309	H	0.494146	0.073812	0.000058
H310	H	0.994146	0.573812	0.500058
N311	N	0.501709	-0.130669	0.770378
N312	N	1.001709	0.369331	1.270378
H313	H	0.480441	-0.112348	0.748220
H314	H	0.980441	0.387652	1.248220
H315	H	0.480769	-0.151626	0.795440
H316	H	0.980769	0.348374	1.295440
H317	H	0.486964	0.780325	0.000028
H318	H	0.986964	1.280325	0.500028
N319	N	0.476308	0.680606	0.000024
N320	N	0.976308	1.180606	0.500024
H321	H	0.474548	0.659417	0.031481
H322	H	0.974548	1.159417	0.531481
H323	H	0.474582	0.659449	-0.031454
H324	H	0.974582	1.159449	0.468546
N325	N	0.468576	-0.163753	0.635687
N326	N	0.968576	0.336247	1.135687
H327	H	0.486878	-0.185034	0.657851
H328	H	0.986878	0.314966	1.157851
H329	H	0.447607	-0.184684	0.610629
H330	H	0.947607	0.315316	1.110629
N331	N	0.704932	0.584852	0.000043
N332	N	1.204932	1.084852	0.500043
H333	H	0.724290	0.578744	0.031503
H334	H	1.224290	1.078744	0.531503
H335	H	0.697836	0.619675	0.000020
H336	H	1.197836	1.119675	0.500020
N337	N	0.664748	0.195624	0.000071
N338	N	1.164748	0.695624	0.500071
H339	H	0.684116	0.189507	-0.031381
H340	H	1.184116	0.689507	0.468619
H341	H	0.684060	0.189492	0.031553
H342	H	1.184060	0.689492	0.531553
N343	N	0.468575	-0.163761	0.524675
N344	N	0.968575	0.336239	1.024675
H345	H	0.447601	-0.184724	0.549707
H346	H	0.947601	0.315276	1.049707
H347	H	0.486916	-0.185008	0.502513
H348	H	0.986916	0.314992	1.002513
H349	H	0.321291	-0.144530	0.000036
H350	H	0.821291	0.355470	0.500036
H351	H	-0.067947	-0.184708	0.000047
H352	H	0.432053	0.315292	0.500047
N353	N	0.179806	-0.198897	0.000024
N354	N	0.679806	0.301103	0.500024
H355	H	0.152328	-0.226577	0.000021
H356	H	0.652328	0.273423	0.500021
H357	H	0.200457	-0.201040	0.031481
H358	H	0.700457	0.298960	0.531481
N359	N	0.706470	0.433610	0.000068
N360	N	1.206470	0.933610	0.500068
H361	H	0.708237	0.454801	-0.031387
H362	H	1.208237	0.954801	0.468613
H363	H	0.734602	0.413806	0.000094
H364	H	1.234602	0.913806	0.500094
N365	N	0.417801	-0.157171	0.000014
N366	N	0.917801	0.342829	0.500014
H367	H	0.390325	-0.184853	0.000011
H368	H	0.890325	0.315147	0.500011
H369	H	0.438454	-0.159311	0.031468
H370	H	0.938454	0.340689	0.531468
N371	N	0.075019	-0.197826	0.000036
N372	N	0.575019	0.302174	0.500036
H373	H	0.053830	-0.199580	0.031494
H374	H	0.553830	0.300420	0.531494
H375	H	0.094813	-0.225965	0.000013
H376	H	0.594813	0.274035	0.500013
H377	H	0.630597	-0.001858	0.125768
H378	H	1.130597	0.498142	0.625768
N379	N	0.066033	0.074043	0.000089
N380	N	0.566033	0.574043	0.500089
H381	H	0.046264	0.102203	0.000094
H382	H	0.546264	0.602203	0.500094
H383	H	0.087216	0.075758	-0.031370
H384	H	0.587216	0.575758	0.468630
N385	N	0.436129	0.291355	0.000010
N386	N	0.936129	0.791355	0.500010
H387	H	0.407967	0.311122	0.000003
H388	H	0.907967	0.811122	0.500003
H389	H	0.434412	0.270174	0.031469
H390	H	0.934412	0.770174	0.531469
H391	H	-0.202311	-0.139207	0.000049
H392	H	0.297689	0.360793	0.500049
N393	N	0.672470	0.040007	0.364407
N394	N	1.172470	0.540007	0.864407
H395	H	0.706734	0.034677	0.373703
H396	H	1.206734	0.534677	0.873703
H397	H	0.667116	0.074259	0.373719
H398	H	1.167116	0.574259	0.873719
N399	N	0.665809	0.090838	0.000086
N400	N	1.165809	0.590838	0.500086
H401	H	0.693491	0.118313	0.000087
H402	H	1.193491	0.618313	0.500087
H403	H	0.667950	0.070183	-0.031369
H404	H	1.167950	0.570183	0.468631
N405	N	-0.302045	-0.149857	0.000050
N406	N	0.197955	0.350143	0.500050
H407	H	-0.336882	-0.142800	0.000051
H408	H	0.163118	0.357200	0.500051
H409	H	-0.295894	-0.169198	0.031507
H410	H	0.204106	0.330802	0.531507
N411	N	0.481496	0.170337	0.000053
N412	N	0.981496	0.670337	0.500053
H413	H	0.453813	0.142863	0.000052
H414	H	0.953813	0.642863	0.500052
H415	H	0.479369	0.190984	-0.031410
H416	H	0.979369	0.690984	0.468590
N417	N	0.217283	0.072510	0.000096
N418	N	0.717283	0.572510	0.500096
H419	H	0.197517	0.100672	0.000104
H420	H	0.697517	0.600672	0.500104
H421	H	0.238467	0.074226	-0.031362
H422	H	0.738467	0.574226	0.468638
N423	N	0.443093	0.026078	0.000055
N424	N	0.943093	0.526078	0.500055
H425	H	0.464285	0.027836	-0.031401
H426	H	0.964285	0.527836	0.468599
H427	H	0.464246	0.027791	0.031534
H428	H	0.964246	0.527791	0.531534
N429	N	0.707536	0.328832	0.000069
N430	N	1.207536	0.828832	0.500069
H431	H	0.735215	0.356310	0.000070
H432	H	1.235215	0.856310	0.500070
H433	H	0.709677	0.308181	-0.031388
H434	H	1.209677	0.808181	0.468612
H435	H	0.445246	0.542327	0.000016
H436	H	0.945246	1.042327	0.500016
N437	N	0.639353	0.006902	0.229722
N438	N	1.139353	0.506902	0.729722
H439	H	0.660330	0.027862	0.204690
H440	H	1.160330	0.527862	0.704690
H441	H	0.660584	-0.011459	0.251880
H442	H	1.160584	0.488541	0.751880
N443	N	0.672485	0.040006	0.475417
N444	N	1.172485	0.540006	0.975417
H445	H	0.667184	0.074278	0.466120
H446	H	1.167184	0.574278	0.966120
H447	H	0.706725	0.034619	0.466093
H448	H	1.206725	0.534619	0.966093
H449	H	0.446777	0.391080	0.000011
H450	H	0.946777	0.891080	0.500011
N451	N	0.705998	0.480067	0.000051
N452	N	1.205998	0.980067	0.500051
H453	H	0.708175	0.459423	0.031509
H454	H	1.208175	0.959423	0.531509
H455	H	0.733650	0.507570	0.000033
H456	H	1.233650	1.007570	0.500033
N457	N	0.639381	0.006923	0.770356
N458	N	1.139381	0.506923	1.270356
H459	H	0.660360	0.027887	0.795381
H460	H	1.160360	0.527887	1.295381
H461	H	0.621038	0.028168	0.748198
H462	H	1.121038	0.528168	1.248198
H463	H	0.647846	0.710950	0.000048
H464	H	1.147846	1.210950	0.500048
H465	H	0.630629	-0.001821	0.874327
H466	H	1.130629	0.498179	1.374327
N467	N	0.501715	-0.130664	0.881396
N468	N	1.001715	0.369336	1.381396
H469	H	0.480735	-0.151627	0.856371
H470	H	0.980735	0.348373	1.356371
H471	H	0.480487	-0.112301	0.903558
H472	H	0.980487	0.387699	1.403558
N473	N	0.672475	0.040023	0.524649
N474	N	1.172475	0.540023	1.024649
H475	H	0.654165	0.061301	0.502490
H476	H	1.154165	0.561301	1.002490
H477	H	0.693734	0.021670	0.502514
H478	H	1.193734	0.521670	1.002514
N479	N	0.468556	-0.163758	0.475442
N480	N	0.968556	0.336242	0.975442
H481	H	0.447576	-0.184717	0.450414
H482	H	0.947576	0.315283	0.950414
H483	H	0.447330	-0.145389	0.497599
H484	H	0.947330	0.354611	0.997599
H485	H	0.477311	-0.155018	0.371487
H486	H	0.977311	0.344982	0.871487
H487	H	0.510432	-0.121951	0.125783
H488	H	1.010432	0.378049	0.625783
N489	N	0.501686	-0.130693	0.229760
N490	N	1.001686	0.369307	0.729760
H491	H	0.506996	-0.164964	0.220469
H492	H	1.006996	0.335036	0.720469
H493	H	0.467437	-0.125323	0.220456
H494	H	0.967437	0.374677	0.720456
N495	N	0.658494	0.810686	0.000043
N496	N	1.158494	1.310686	0.500043
H497	H	0.660245	0.831873	-0.031415
H498	H	1.160245	1.331873	0.468585
H499	H	0.686635	0.790894	0.000063
H500	H	1.186635	1.290894	0.500063
