data_functionalizedCrystal
_audit_creation_method	'MofGen! by Chris Wilmer'
_symmetry_space_group_name_H-M	'P1'
_symmetry_Int_Tables_number	1
_symmetry_cell_setting	triclinic
loop_
_symmetry_equiv_pos_as_xyz
  x,y,z
_cell_length_a	15.995292
_cell_length_b	14.853567
_cell_length_c	13.330367
_cell_angle_alpha	90.000844
_cell_angle_beta	89.991273
_cell_angle_gamma	96.448227
loop_
_atom_site_label
_atom_site_type_symbol
_atom_site_fract_x
_atom_site_fract_y
_atom_site_fract_z
O1	O	1.111154	-0.115956	-0.083442
O2	O	1.611154	0.384044	0.416558
O3	O	0.867389	-0.130361	-0.083437
O4	O	1.367389	0.369639	0.416563
O5	O	0.995783	0.008081	-0.083443
O6	O	1.495783	0.508081	0.416557
O7	O	0.982761	-0.254399	-0.083436
O8	O	1.482761	0.245601	0.416564
O9	O	0.995765	0.008085	0.083404
O10	O	1.495765	0.508085	0.583404
O11	O	0.867371	-0.130358	0.083410
O12	O	1.367371	0.369642	0.583410
O13	O	1.111136	-0.115953	0.083405
O14	O	1.611136	0.384047	0.583405
Cu15	Cu	0.989252	-0.123155	0.098642
Cu16	Cu	1.489252	0.376845	0.598642
Cu17	Cu	0.989274	-0.123159	-0.098674
Cu18	Cu	1.489274	0.376841	0.401326
O19	O	0.982742	-0.254395	0.083411
O20	O	1.482742	0.245605	0.583411
C21	C	0.836184	-0.129773	-0.000013
C22	C	1.336184	0.370227	0.499987
C23	C	0.743229	-0.128015	-0.000012
C24	C	1.243229	0.371985	0.499988
C25	C	0.405483	-0.121554	-0.000023
C26	C	0.905483	0.378446	0.499977
C27	C	0.428911	-0.221478	-0.000393
C28	C	0.928911	0.278522	0.499607
C29	C	0.525589	-0.223377	-0.000013
C30	C	1.025589	0.276623	0.499987
C31	C	0.573042	-0.124760	-0.000018
C32	C	1.073042	0.375240	0.499982
C33	C	0.543872	-0.074801	0.095255
C34	C	1.043872	0.425199	0.595255
C35	C	0.447080	-0.073598	0.095331
C36	C	0.947080	0.426402	0.595331
C37	C	0.447243	-0.071561	-0.094406
C38	C	0.947243	0.428439	0.405594
C39	C	0.543740	-0.075264	-0.095660
C40	C	1.043740	0.424736	0.404340
C41	C	0.667741	-0.126567	-0.000012
C42	C	1.167741	0.373433	0.499988
C43	C	0.310785	-0.119744	-0.000023
C44	C	0.810785	0.380256	0.499977
C45	C	0.995184	0.041671	-0.000022
C46	C	1.495184	0.541671	0.499978
C47	C	0.993416	0.141752	-0.000031
C48	C	1.493416	0.641752	0.499969
C49	C	1.142341	-0.116541	-0.000021
C50	C	1.642341	0.383459	0.499979
C51	C	1.235296	-0.118299	-0.000029
C52	C	1.735296	0.381701	0.499971
C53	C	0.983341	-0.287985	-0.000012
C54	C	1.483341	0.212015	0.499988
C55	C	0.985110	-0.388066	-0.000010
C56	C	1.485110	0.111934	0.499990
C57	C	0.909672	0.554154	-0.000010
C58	C	1.409672	1.054154	0.499990
C59	C	1.062207	0.575675	-0.000013
C60	C	1.562207	1.075675	0.499987
C61	C	1.063870	0.481644	-0.000019
C62	C	1.563870	0.981644	0.499981
C63	C	0.988432	0.423863	-0.000019
C64	C	1.488432	0.923863	0.499981
C65	C	0.911333	0.460114	-0.000013
C66	C	1.411333	0.960114	0.499987
C67	C	1.140968	0.445386	-0.000015
C68	C	1.640968	0.945386	0.499985
C69	C	1.142634	0.351349	-0.000020
C70	C	1.642634	0.851349	0.499980
C71	C	1.067196	0.293567	-0.000027
C72	C	1.567196	0.793567	0.499973
C73	C	0.990093	0.329823	-0.000022
C74	C	1.490093	0.829823	0.499978
C75	C	0.914655	0.272042	-0.000022
C76	C	1.414655	0.772042	0.499978
C77	C	0.837551	0.308297	-0.000024
C78	C	1.337551	0.808297	0.499976
C79	C	0.835894	0.402331	-0.000020
C80	C	1.335894	0.902331	0.499980
C81	C	1.068853	0.199532	-0.000031
C82	C	1.568853	0.699532	0.499969
C83	C	0.916316	0.178002	-0.000025
C84	C	1.416316	0.678002	0.499975
N85	N	0.989242	-0.123152	0.237423
N86	N	1.489242	0.376848	0.737423
N87	N	0.989290	-0.123155	-0.237456
N88	N	1.489290	0.376845	0.262544
C89	C	0.932418	-0.184437	0.710049
C90	C	1.432418	0.315563	1.210049
C91	C	1.046151	-0.061874	0.710012
C92	C	1.546151	0.438126	1.210012
C93	C	1.046142	-0.061871	0.604994
C94	C	1.546142	0.438129	1.104994
C95	C	0.989271	-0.123153	0.552498
C96	C	1.489271	0.376847	1.052498
C97	C	0.932409	-0.184438	0.605021
C98	C	1.432409	0.315562	1.105021
C99	C	1.103009	-0.000593	0.552463
C100	C	1.603009	0.499407	1.052463
C101	C	1.103002	-0.000589	0.447438
C102	C	1.603002	0.499411	0.947438
C103	C	1.046126	-0.061867	0.394941
C104	C	1.546126	0.438133	0.894941
C105	C	0.989261	-0.123154	0.447470
C106	C	1.489261	0.376846	0.947470
C107	C	0.932390	-0.184436	0.394974
C108	C	1.432390	0.315564	0.894974
C109	C	0.875520	-0.245719	0.447502
C110	C	1.375520	0.254281	0.947502
C111	C	0.875533	-0.245717	0.552523
C112	C	1.375533	0.254283	1.052523
C113	C	1.046113	-0.061870	0.289919
C114	C	1.546113	0.438130	0.789919
C115	C	0.932380	-0.184437	0.289946
C116	C	1.432380	0.315563	0.789946
H117	H	0.544031	-0.262736	0.068401
H118	H	1.044031	0.237264	0.568401
H119	H	0.829232	-0.295612	0.595298
H120	H	1.329232	0.204388	1.095298
H121	H	0.544669	-0.262498	-0.068311
H122	H	1.044669	0.237502	0.431689
H123	H	1.092459	-0.011984	0.752757
H124	H	1.592459	0.488016	1.252757
H125	H	0.776131	0.261239	-0.000017
H126	H	1.276131	0.761239	0.499983
H127	H	1.149316	0.049297	0.595208
H128	H	1.649316	0.549297	1.095208
H129	H	0.846896	0.583676	-0.000016
H130	H	1.346896	1.083676	0.499984
H131	H	1.131630	0.170018	-0.000023
H132	H	1.631630	0.670018	0.499977
H133	H	0.886065	-0.234338	0.247211
H134	H	1.386065	0.265662	0.747211
H135	H	0.829219	-0.295620	0.404748
H136	H	1.329219	0.204380	0.904748
H137	H	0.886114	-0.234331	0.752819
H138	H	1.386114	0.265669	1.252819
H139	H	1.149307	0.049312	0.404677
H140	H	1.649307	0.549312	0.904677
H141	H	1.092420	-0.011978	0.247156
H142	H	1.592420	0.488022	0.747156
H143	H	0.400968	-0.259994	-0.068718
H144	H	0.900968	0.240006	0.431282
H145	H	0.432444	-0.000334	0.099655
H146	H	0.932444	0.499666	0.599655
H147	H	0.399930	-0.259778	0.067550
H148	H	0.899930	0.240222	0.567550
H149	H	0.576627	-0.003284	-0.101419
H150	H	1.076627	0.496716	0.398581
H151	H	1.205416	0.321840	-0.000019
H152	H	1.705416	0.821840	0.499981
H153	H	0.420295	-0.108195	0.166553
H154	H	0.920295	0.391805	0.666553
H155	H	0.575655	-0.002232	0.098794
H156	H	1.075655	0.497768	0.598794
H157	H	1.202385	0.492437	-0.000006
H158	H	1.702385	0.992437	0.499994
H159	H	0.418961	-0.102795	-0.166618
H160	H	0.918961	0.397205	0.333382
H161	H	0.563963	-0.109492	0.166161
H162	H	1.063963	0.390508	0.666161
H163	H	0.562360	-0.111640	-0.166143
H164	H	1.062360	0.388360	0.333857
H165	H	0.854884	0.130963	-0.000029
H166	H	1.354884	0.630963	0.499971
H167	H	0.433165	0.001990	-0.095053
H168	H	0.933165	0.501990	0.404947
H169	H	0.773120	0.431858	-0.000021
H170	H	1.273120	0.931858	0.499979
H171	H	1.123625	0.622725	-0.000005
H172	H	1.623625	1.122725	0.499995
