data_functionalizedCrystal
_audit_creation_method	'MofGen! by Chris Wilmer'
_symmetry_space_group_name_H-M	'P1'
_symmetry_Int_Tables_number	1
_symmetry_cell_setting	triclinic
loop_
_symmetry_equiv_pos_as_xyz
  x,y,z
_cell_length_a	15.995350
_cell_length_b	15.995350
_cell_length_c	15.072220
_cell_angle_alpha	89.998899
_cell_angle_beta	89.991149
_cell_angle_gamma	96.507625
loop_
_atom_site_label
_atom_site_type_symbol
_atom_site_fract_x
_atom_site_fract_y
_atom_site_fract_z
O1	O	1.110996	-0.107921	-0.073703
O2	O	0.867221	-0.121249	-0.073721
O3	O	0.995772	0.007303	-0.073710
O4	O	0.982444	-0.236472	-0.073713
O5	O	0.995740	0.007296	0.073855
O6	O	0.867189	-0.121256	0.073844
O7	O	1.110964	-0.107928	0.073862
Zn8	Zn	0.989071	-0.114593	0.097283
Zn9	Zn	0.989113	-0.114584	-0.097141
O10	O	0.982413	-0.236480	0.073852
C11	C	0.836010	-0.120701	0.000060
C12	C	0.743060	-0.119049	0.000053
C13	C	0.405312	-0.113117	0.000071
C14	C	0.452746	-0.021565	0.000401
C15	C	0.549436	-0.023217	0.000063
C16	C	0.572873	-0.116060	0.000063
C17	C	0.531804	-0.161212	-0.084201
C18	C	0.435168	-0.158912	-0.084266
C19	C	0.434793	-0.160812	0.083543
C20	C	0.531738	-0.160790	0.084651
C21	C	0.667570	-0.117727	0.000055
C22	C	0.310614	-0.111452	0.000073
C23	C	0.995205	0.038494	0.000070
C24	C	0.993553	0.131444	0.000065
C25	C	1.142175	-0.108476	0.000080
C26	C	1.235125	-0.110127	0.000081
C27	C	0.982980	-0.267671	0.000069
C28	C	0.984631	-0.360621	0.000069
N29	N	0.989049	-0.114599	0.229971
C30	C	0.987621	0.469192	0.000068
C31	C	0.896069	0.421758	-0.000270
C32	C	0.897721	0.325068	0.000063
C33	C	0.990564	0.301631	0.000066
C34	C	1.035702	0.342705	0.084335
C35	C	1.033402	0.439341	0.084405
C36	C	1.035330	0.439707	-0.083404
C37	C	1.035308	0.342761	-0.084518
C38	C	0.992231	0.206934	0.000068
C39	C	0.985956	0.563890	0.000072
N40	N	0.989142	-0.114571	-0.229830
C41	C	0.989112	-0.114580	0.589173
C42	C	0.920095	-0.183135	0.551560
C43	C	0.920254	-0.183385	0.448735
C44	C	0.989080	-0.114590	0.410969
C45	C	1.076445	-0.133671	0.448266
C46	C	1.076058	-0.134159	0.551124
C47	C	0.971542	-0.026741	0.551272
C48	C	0.969537	-0.027327	0.448409
C49	C	0.989067	-0.114593	0.310255
C50	C	0.989130	-0.114579	0.689886
H51	H	0.416873	-0.125979	-0.147255
N52	N	0.852898	0.290100	0.075976
N53	N	0.889707	0.250264	0.132453
H54	H	0.858051	0.225568	0.186072
N55	N	0.585101	0.021306	0.075832
N56	N	0.625327	-0.015758	0.131751
H57	H	0.650512	0.015691	0.185265
N58	N	0.838708	-0.169221	0.417256
N59	N	0.830232	-0.106868	0.369473
H60	H	0.772604	-0.096901	0.347310
N61	N	0.428191	0.024150	-0.074980
N62	N	0.482112	0.052641	-0.130498
H63	H	0.464768	0.084930	-0.183735
N64	N	0.992076	0.462289	0.163427
N65	N	0.965129	0.406960	0.218140
H66	H	0.935940	0.423162	0.273951
H67	H	1.129019	-0.086195	0.576003
H68	H	0.434211	0.015027	0.060830
N69	N	1.120014	0.479533	-0.084133
N70	N	1.180061	0.435905	-0.082022
H71	H	1.239868	0.464033	-0.082533
N72	N	0.394712	-0.243229	-0.089098
N73	N	0.347097	-0.265158	-0.152725
H74	H	0.318529	-0.324706	-0.156147
H75	H	0.577307	0.012521	-0.060446
H76	H	0.545929	-0.229421	-0.087335
N77	N	0.893341	-0.003725	0.583822
N78	N	0.868735	0.064446	0.560723
H79	H	0.813502	0.080694	0.583710
H80	H	1.100617	0.471588	0.088231
N81	N	0.567443	-0.121879	-0.162867
N82	N	0.623076	-0.060603	-0.157090
H83	H	0.648256	-0.032827	-0.212646
H84	H	1.016540	0.026078	0.422704
H85	H	0.905271	-0.012846	0.424032
N86	N	0.853204	0.289423	-0.075718
N87	N	0.820693	0.335950	-0.129221
H88	H	0.789246	0.310780	-0.182743
H89	H	0.859490	0.440293	-0.060701
H90	H	0.414244	-0.130885	0.147414
H91	H	1.103910	0.328579	0.087471
H92	H	0.559041	-0.127829	0.146989
H93	H	0.547102	-0.228494	0.089741
N94	N	0.996325	0.307106	0.162996
N95	N	0.920251	0.313138	0.177215
H96	H	0.892434	0.287998	0.232768
H97	H	1.092297	-0.197002	0.422498
H98	H	1.002306	0.315516	-0.146857
N99	N	1.142406	-0.072694	0.417575
N100	N	1.125721	-0.014354	0.367751
H101	H	1.172305	0.028713	0.346074
H102	H	1.005411	0.460250	-0.147274
H103	H	1.103014	0.327400	-0.089603
H104	H	0.403031	-0.228312	0.084113
H105	H	0.854945	-0.171953	0.576317
N106	N	1.034683	0.037252	0.581790
N107	N	1.092401	0.018366	0.631236
H108	H	1.136996	0.063554	0.652795
H109	H	0.931160	-0.247952	0.577399
N110	N	0.850357	0.446341	0.075111
N111	N	0.884912	0.498643	0.129082
H112	H	0.852630	0.516007	0.182322
H113	H	0.931473	-0.248570	0.424121
N114	N	1.095484	-0.214523	0.581202
N115	N	1.109231	-0.269860	0.526229
H116	H	1.122951	-0.326620	0.547467
