data_functionalizedCrystal
_audit_creation_method	'MofGen! by Chris Wilmer'
_symmetry_space_group_name_H-M	'P1'
_symmetry_Int_Tables_number	1
_symmetry_cell_setting	triclinic
loop_
_symmetry_equiv_pos_as_xyz
  x,y,z
_cell_length_a	8.559649
_cell_length_b	23.532407
_cell_length_c	7.681481
_cell_angle_alpha	84.289450
_cell_angle_beta	94.913240
_cell_angle_gamma	76.313671
loop_
_atom_site_label
_atom_site_type_symbol
_atom_site_fract_x
_atom_site_fract_y
_atom_site_fract_z
O1	O	2.105234	-0.013278	-0.146397
O2	O	1.639561	0.016154	-0.146414
O3	O	1.886443	-0.082081	-0.146373
O4	O	1.858352	0.084957	-0.146438
O5	O	1.916831	-0.094196	0.146490
O6	O	1.669949	0.004039	0.146449
O7	O	2.135622	-0.025394	0.146466
Zn8	Zn	1.907610	-0.012601	0.192956
Zn9	Zn	1.867573	0.003362	-0.192904
O10	O	1.888739	0.072842	0.146425
C11	C	1.595190	0.012327	0.000016
C12	C	1.417704	0.018967	0.000010
C13	C	1.900922	-0.109325	0.000063
C14	C	1.898774	-0.172453	0.000077
C15	C	2.031375	-0.577085	-0.000015
C16	C	2.029376	-0.636401	-0.000028
O17	O	2.152301	-0.678272	-0.000089
N18	N	1.882607	-0.652904	-0.000032
C19	C	1.737825	-0.610085	-0.000041
O20	O	1.612803	-0.629568	-0.000048
C21	C	1.739824	-0.550770	-0.000040
C22	C	1.886605	-0.534272	-0.000018
C23	C	2.178143	-0.560586	0.000005
C24	C	2.180142	-0.501274	0.000022
C25	C	2.035372	-0.458460	0.000019
C26	C	1.888603	-0.474960	-0.000002
C27	C	1.595043	-0.507952	-0.000062
C28	C	1.597055	-0.448633	-0.000062
C29	C	1.743835	-0.432135	-0.000040
C30	C	1.745832	-0.372834	0.000012
N31	N	1.892601	-0.356332	0.000016
C32	C	2.037371	-0.399145	0.000019
C33	C	1.733637	-0.734653	-0.000046
C34	C	1.731638	-0.793968	-0.000034
C35	C	2.023189	-0.820279	-0.000025
C36	C	2.025188	-0.760964	-0.000024
C37	C	1.880407	-0.718150	-0.000042
C38	C	2.041557	-0.274584	0.000056
C39	C	2.043544	-0.215266	0.000080
C40	C	1.751992	-0.188959	0.000061
C41	C	1.750006	-0.248272	0.000046
C42	C	1.894801	-0.291084	0.000038
O43	O	1.622970	-0.330931	0.000065
O44	O	2.162370	-0.379651	0.000003
C45	C	2.179993	-0.021566	0.000033
C46	C	2.357478	-0.028205	0.000026
C47	C	1.874260	0.100086	-0.000015
C48	C	1.876408	0.163214	-0.000040
N49	N	1.934946	-0.023496	0.456295
N50	N	1.840250	0.014252	-0.456243
H51	H	2.163075	-0.201838	0.000103
H52	H	1.441697	-0.073670	0.000035
H53	H	2.031629	-0.062024	0.531517
N54	N	1.712201	0.065290	0.444144
H55	H	1.715299	0.064050	0.313408
H56	H	1.602150	0.062384	0.476297
H57	H	1.612118	-0.807395	-0.000022
H58	H	1.333473	0.064435	-0.000017
N59	N	2.197724	-0.320754	0.000047
H60	H	2.290993	-0.301294	0.000066
H61	H	2.214515	-0.350436	0.108612
H62	H	2.299665	-0.487847	0.000033
H63	H	2.296039	-0.595440	0.000002
H64	H	1.630490	-0.261707	0.000077
N65	N	2.183499	-0.743172	0.000001
H66	H	2.274899	-0.779299	0.000009
H67	H	2.179425	-0.714640	-0.108568
H68	H	2.141068	-0.855149	-0.000029
N69	N	1.577472	-0.688477	-0.000050
H70	H	1.484202	-0.707937	-0.000050
H71	H	1.583210	-0.667790	0.108520
N72	N	1.436718	-0.525728	-0.000074
H73	H	1.362085	-0.505151	-0.108644
H74	H	1.457516	-0.569804	-0.000006
N75	N	1.440906	-0.402451	-0.000072
H76	H	1.365563	-0.402521	-0.108643
H77	H	1.388225	-0.411545	0.108558
N78	N	1.595858	-0.142779	0.000105
H79	H	1.619411	-0.102702	0.000124
H80	H	1.520568	-0.142895	-0.108460
