data_functionalizedCrystal
_audit_creation_method	'MofGen! by Chris Wilmer'
_symmetry_space_group_name_H-M	'P1'
_symmetry_Int_Tables_number	1
_symmetry_cell_setting	triclinic
loop_
_symmetry_equiv_pos_as_xyz
  x,y,z
_cell_length_a	25.639242
_cell_length_b	25.639233
_cell_length_c	11.169416
_cell_angle_alpha	90.007165
_cell_angle_beta	89.995614
_cell_angle_gamma	89.985652
loop_
_atom_site_label
_atom_site_type_symbol
_atom_site_fract_x
_atom_site_fract_y
_atom_site_fract_z
Zn1	Zn	0.799322	-0.295675	0.478200
Zn2	Zn	1.299322	0.204325	0.978200
Zn3	Zn	0.799286	-0.208257	0.678868
Zn4	Zn	1.299286	0.291743	1.178868
Zn5	Zn	0.711898	-0.208251	0.478171
Zn6	Zn	1.211898	0.291749	0.978171
Zn7	Zn	0.711884	-0.295659	0.678812
Zn8	Zn	1.211884	0.204341	1.178812
O9	O	0.755597	-0.251961	0.578513
O10	O	1.255597	0.248039	1.078513
O11	O	0.872482	-0.284088	0.504854
O12	O	1.372482	0.215912	1.004854
O13	O	0.787685	-0.135091	0.652257
O14	O	1.287685	0.364909	1.152257
O15	O	0.723516	-0.219853	0.310225
O16	O	1.223516	0.280147	0.810225
O17	O	0.872456	-0.219863	0.652285
O18	O	1.372456	0.280137	1.152285
O19	O	0.787746	-0.284083	0.310246
O20	O	1.287746	0.215917	0.810246
O21	O	0.723481	-0.135087	0.504805
O22	O	1.223481	0.364913	1.004805
O23	O	0.638731	-0.219837	0.504751
O24	O	1.138731	0.280163	1.004751
O25	O	0.723492	-0.368827	0.652189
O26	O	1.223492	0.131173	1.152189
O27	O	0.638720	-0.284055	0.652161
O28	O	1.138720	0.215945	1.152161
O29	O	0.787732	-0.368838	0.504800
O30	O	1.287732	0.131162	1.004800
O31	O	0.787671	-0.219847	0.846811
O32	O	1.287671	0.280153	1.346811
O33	O	0.723457	-0.284061	0.846770
O34	O	1.223457	0.215939	1.346770
C35	C	0.619755	-0.251944	0.578448
C36	C	1.119755	0.248056	1.078448
C37	C	0.561641	-0.251949	0.578449
C38	C	1.061641	0.248051	1.078449
C39	C	0.310469	-0.285464	0.501882
C40	C	0.810469	0.214536	1.001882
C41	C	0.365073	-0.285461	0.501870
C42	C	0.865073	0.214539	1.001870
O43	O	0.393329	-0.313953	0.436718
O44	O	0.893329	0.186047	0.936718
N45	N	0.392367	-0.251967	0.578499
N46	N	0.892367	0.248033	1.078499
C47	C	0.365053	-0.218477	0.655153
C48	C	0.865053	0.281523	1.155153
O49	O	0.393282	-0.189987	0.720331
O50	O	0.893282	0.310013	1.220331
C51	C	0.310450	-0.218483	0.655170
C52	C	0.810450	0.281517	1.155170
C53	C	0.283159	-0.251976	0.578528
C54	C	0.783159	0.248024	1.078528
C55	C	0.283178	-0.318955	0.425247
C56	C	0.783178	0.181045	0.925247
C57	C	0.228578	-0.318957	0.425258
C58	C	0.728578	0.181043	0.925258
C59	C	0.201268	-0.285468	0.501903
C60	C	0.701268	0.214532	1.001903
C61	C	0.228559	-0.251978	0.578538
C62	C	0.728559	0.248022	1.078538
C63	C	0.283137	-0.184996	0.731829
C64	C	0.783137	0.315004	1.231829
C65	C	0.228530	-0.185005	0.731840
C66	C	0.728530	0.314995	1.231840
C67	C	0.201239	-0.218498	0.655198
C68	C	0.701239	0.281502	1.155198
C69	C	0.146648	-0.218492	0.655194
C70	C	0.646648	0.281508	1.155194
N71	N	0.119355	-0.251986	0.578566
N72	N	0.619355	0.248014	1.078566
C73	C	0.146665	-0.285474	0.501920
C74	C	0.646665	0.214526	1.001920
C75	C	0.479724	-0.218468	0.655113
C76	C	0.979724	0.281532	1.155113
C77	C	0.534326	-0.218459	0.655091
C78	C	1.034326	0.281541	1.155091
C79	C	0.534343	-0.285444	0.501809
C80	C	1.034343	0.214556	1.001809
C81	C	0.479739	-0.285450	0.501826
C82	C	0.979739	0.214550	1.001826
C83	C	0.452430	-0.251962	0.578484
C84	C	0.952430	0.248038	1.078484
C85	C	0.032000	-0.285476	0.501948
C86	C	0.532000	0.214524	1.001948
C87	C	-0.022606	-0.285474	0.501961
C88	C	0.477394	0.214526	1.001961
C89	C	-0.022618	-0.218491	0.655247
C90	C	0.477382	0.281509	1.155247
C91	C	0.031983	-0.218491	0.655229
C92	C	0.531983	0.281509	1.155229
C93	C	0.059290	-0.251988	0.578575
C94	C	0.559290	0.248012	1.078575
O95	O	0.118358	-0.190016	0.720317
O96	O	0.618358	0.309984	1.220317
O97	O	0.118429	-0.313964	0.436764
O98	O	0.618429	0.186036	0.936764
C99	C	0.755614	-0.388334	0.578492
C100	C	1.255614	0.111666	1.078492
C101	C	0.755621	-0.446448	0.578483
C102	C	1.255621	0.053552	1.078483
C103	C	0.789114	-0.806823	0.501509
C104	C	1.289114	-0.306823	1.001509
C105	C	0.789120	-0.861427	0.501476
C106	C	1.289120	-0.361427	1.001476
O107	O	0.817554	-0.889674	0.436172
O108	O	1.317554	-0.389674	0.936172
N109	N	0.755679	-0.888731	0.578201
N110	N	1.255679	-0.388731	1.078201
C111	C	0.722225	-0.861427	0.654957
C112	C	1.222225	-0.361427	1.154957
O113	O	0.693781	-0.889664	0.720214
O114	O	1.193781	-0.389664	1.220214
C115	C	0.722217	-0.806823	0.654983
C116	C	1.222217	-0.306823	1.154983
C117	C	0.755664	-0.779523	0.578261
C118	C	1.255664	-0.279523	1.078261
C119	C	0.822558	-0.779522	0.424792
C120	C	1.322558	-0.279522	0.924792
C121	C	0.822552	-0.724922	0.424828
C122	C	1.322552	-0.224922	0.924828
C123	C	0.789102	-0.697622	0.501579
C124	C	1.289102	-0.197622	1.001579
C125	C	0.755658	-0.724922	0.578296
C126	C	1.255658	-0.224922	1.078296
C127	C	0.688761	-0.779521	0.731731
C128	C	1.188761	-0.279521	1.231731
C129	C	0.688755	-0.724913	0.731750
C130	C	1.188755	-0.224913	1.231750
C131	C	0.722202	-0.697613	0.655028
C132	C	1.222202	-0.197613	1.155028
C133	C	0.722202	-0.643022	0.655083
C134	C	1.222202	-0.143022	1.155083
N135	N	0.755643	-0.615718	0.578357
N136	N	1.255643	-0.115718	1.078357
C137	C	0.789093	-0.643018	0.501605
C138	C	1.289093	-0.143018	1.001605
C139	C	0.722246	-0.976097	0.654894
C140	C	1.222246	-0.476097	1.154894
C141	C	0.722256	-1.030700	0.654875
C142	C	1.222256	-0.530700	1.154875
C143	C	0.789151	-1.030696	0.501392
C144	C	1.289151	-0.530696	1.001392
C145	C	0.789142	-0.976093	0.501419
C146	C	1.289142	-0.476093	1.001419
C147	C	0.755687	-0.948794	0.578169
C148	C	1.255687	-0.448794	1.078169
C149	C	0.789079	-0.528353	0.501686
C150	C	1.289079	-0.028353	1.001686
C151	C	0.789071	-0.473748	0.501731
C152	C	1.289071	0.026252	1.001731
C153	C	0.722175	-0.473756	0.655209
C154	C	1.222175	0.026244	1.155209
C155	C	0.722184	-0.528357	0.655168
C156	C	1.222184	-0.028357	1.155168
C157	C	0.755638	-0.555654	0.578397
C158	C	1.255638	-0.055654	1.078397
O159	O	0.693781	-0.614740	0.720350
O160	O	1.193781	-0.114740	1.220350
O161	O	0.817528	-0.614774	0.436348
O162	O	1.317528	-0.114774	0.936348
C163	C	0.891970	-0.251978	0.578579
C164	C	1.391970	0.248022	1.078579
C165	C	0.950084	-0.251985	0.578607
C166	C	1.450084	0.248015	1.078607
C167	C	0.755572	-0.251964	0.890337
C168	C	1.255572	0.248036	1.390337
C169	C	0.755610	-0.251983	1.023737
C170	C	1.255610	0.248017	1.523737
C171	C	0.755611	-0.116118	0.578447
C172	C	1.255611	0.383882	1.078447
C173	C	0.755705	-0.058005	0.578118
C174	C	1.255705	0.441995	1.078118
C175	C	0.755633	-0.251976	1.265470
C176	C	1.255633	0.248024	1.765470
C177	C	0.755639	-0.252000	1.132070
C178	C	1.255639	0.248000	1.632070
H179	H	0.054204	-0.191214	0.717626
H180	H	0.554204	0.308786	1.217626
H181	H	0.816310	-0.451522	0.439254
H182	H	1.316310	0.048478	0.939254
F183	F	0.824681	-0.557398	0.419972
F184	F	1.324681	-0.057398	0.919972
H185	H	0.054227	-0.312752	0.439528
H186	H	0.554227	0.187248	0.939528
H187	H	0.695026	-1.052923	0.717363
H188	H	1.195026	-0.552923	1.217363
H189	H	0.695002	-0.953874	0.717400
H190	H	1.195002	-0.453874	1.217400
F191	F	0.653163	-0.808564	0.813394
F192	F	1.153163	-0.308564	1.313394
F193	F	-0.051692	-0.182851	0.736811
F194	F	0.448308	0.317149	1.236811
F195	F	0.686590	-0.557413	0.736831
F196	F	1.186590	-0.057413	1.236831
F197	F	0.450664	-0.182818	0.736697
F198	F	0.950664	0.317182	1.236697
H199	H	-0.044823	-0.312748	0.439544
H200	H	0.455177	0.187252	0.939544
F201	F	0.199540	-0.354608	0.343692
F202	F	0.699540	0.145392	0.843692
F203	F	0.858148	-0.695873	0.343163
F204	F	1.358148	-0.195873	0.843163
H205	H	0.816377	-0.953869	0.438943
H206	H	1.316377	-0.453869	0.938943
H207	H	0.694943	-0.451518	0.717702
H208	H	1.194943	0.048482	1.217702
H209	H	0.849797	-0.801744	0.362285
H210	H	1.349797	-0.301744	0.862285
H211	H	0.305408	-0.346227	0.362833
H212	H	0.805408	0.153773	0.862833
H213	H	0.816386	-1.052934	0.438894
H214	H	1.316386	-0.552934	0.938894
F215	F	0.653145	-0.695863	0.813438
F216	F	1.153145	-0.195863	1.313438
H217	H	0.556588	-0.312712	0.439401
H218	H	1.056588	0.187288	0.939401
F219	F	0.450699	-0.321097	0.420256
F220	F	0.950699	0.178903	0.920256
F221	F	0.312170	-0.149341	0.813389
F222	F	0.812170	0.350659	1.313389
F223	F	0.563365	-0.182802	0.736644
F224	F	1.063365	0.317198	1.236644
H225	H	0.206298	-0.157736	0.794269
H226	H	0.706298	0.342264	1.294269
