data_functionalizedCrystal
_audit_creation_method	'MofGen! by Chris Wilmer'
_symmetry_space_group_name_H-M	'P1'
_symmetry_Int_Tables_number	1
_symmetry_cell_setting	triclinic
loop_
_symmetry_equiv_pos_as_xyz
  x,y,z
_cell_length_a	11.792241
_cell_length_b	13.596369
_cell_length_c	11.792254
_cell_angle_alpha	90.000552
_cell_angle_beta	84.196007
_cell_angle_gamma	90.001745
loop_
_atom_site_label
_atom_site_type_symbol
_atom_site_fract_x
_atom_site_fract_y
_atom_site_fract_z
O1	O	1.506919	0.081696	0.155559
O2	O	1.756919	0.331696	0.405559
O3	O	2.006919	0.581696	0.655559
O4	O	2.256919	0.831696	0.905559
O5	O	1.176579	0.081719	0.171592
O6	O	1.426579	0.331719	0.421592
O7	O	1.676579	0.581719	0.671592
O8	O	1.926579	0.831719	0.921592
O9	O	1.349758	0.081700	-0.001594
O10	O	1.599758	0.331700	0.248406
O11	O	1.849758	0.581700	0.498406
O12	O	2.099758	0.831700	0.748406
O13	O	1.333740	0.081715	0.328745
O14	O	1.583740	0.331715	0.578745
O15	O	1.833740	0.581715	0.828745
O16	O	2.083740	0.831715	1.078745
O17	O	1.349736	-0.081883	-0.001584
O18	O	1.599736	0.168117	0.248416
O19	O	1.849736	0.418117	0.498416
O20	O	2.099736	0.668117	0.748416
O21	O	1.176557	-0.081864	0.171602
O22	O	1.426557	0.168136	0.421602
O23	O	1.676557	0.418136	0.671602
O24	O	1.926557	0.668136	0.921602
O25	O	1.506898	-0.081887	0.155569
O26	O	1.756898	0.168113	0.405569
O27	O	2.006898	0.418113	0.655569
O28	O	2.256898	0.668113	0.905569
Zn29	Zn	1.341724	-0.107847	0.163587
Zn30	Zn	1.591724	0.142153	0.413587
Zn31	Zn	1.841724	0.392153	0.663587
Zn32	Zn	2.091724	0.642153	0.913587
Zn33	Zn	1.341752	0.107680	0.163574
Zn34	Zn	1.591752	0.357680	0.413574
Zn35	Zn	1.841752	0.607680	0.663574
Zn36	Zn	2.091752	0.857680	0.913574
O37	O	1.333718	-0.081868	0.328755
O38	O	1.583718	0.168132	0.578755
O39	O	1.833718	0.418132	0.828755
O40	O	2.083718	0.668132	1.078755
C41	C	1.134277	-0.000069	0.170590
C42	C	1.384277	0.249931	0.420590
C43	C	1.634277	0.499931	0.670590
C44	C	1.884277	0.749931	0.920590
C45	C	1.008263	-0.000061	0.167576
C46	C	1.258263	0.249939	0.417576
C47	C	1.508263	0.499939	0.667576
C48	C	1.758263	0.749939	0.917576
N49	N	1.341713	-0.254939	0.163595
N50	N	1.591713	-0.004939	0.413595
N51	N	1.841713	0.245061	0.663595
N52	N	2.091713	0.495061	0.913595
C53	C	0.777551	-0.000089	0.162033
C54	C	1.027551	0.249911	0.412033
C55	C	1.277551	0.499911	0.662033
C56	C	1.527551	0.749911	0.912033
C57	C	0.905936	-0.000074	0.165112
C58	C	1.155936	0.249926	0.415112
C59	C	1.405936	0.499926	0.665112
C60	C	1.655936	0.749926	0.915112
C61	C	1.341719	-0.343937	0.163597
C62	C	1.591719	-0.093937	0.413597
C63	C	1.841719	0.156063	0.663597
C64	C	2.091719	0.406063	0.913597
C65	C	1.341730	-0.455588	0.163590
C66	C	1.591730	-0.205588	0.413590
C67	C	1.841730	0.044412	0.663590
C68	C	2.091730	0.294412	0.913590
C69	C	1.341745	-0.544579	0.163577
C70	C	1.591745	-0.294579	0.413577
C71	C	1.841745	-0.044579	0.663577
C72	C	2.091745	0.205421	0.913577
C73	C	1.341757	-0.656237	0.163570
C74	C	1.591757	-0.406237	0.413570
C75	C	1.841757	-0.156237	0.663570
C76	C	2.091757	0.093763	0.913570
C77	C	1.549199	-0.000096	0.156571
C78	C	1.799199	0.249904	0.406571
C79	C	2.049199	0.499904	0.656571
C80	C	2.299199	0.749904	0.906571
C81	C	1.675213	-0.000098	0.159586
C82	C	1.925213	0.249902	0.409586
C83	C	2.175213	0.499902	0.659586
C84	C	2.425213	0.749902	0.909586
C85	C	1.348738	-0.000091	-0.043880
C86	C	1.598738	0.249909	0.206120
C87	C	1.848738	0.499909	0.456120
C88	C	2.098738	0.749909	0.706120
C89	C	1.345718	-0.000090	-0.169893
C90	C	1.595718	0.249910	0.080107
C91	C	1.845718	0.499910	0.330107
C92	C	2.095718	0.749910	0.580107
N93	N	1.341772	0.254772	0.163557
N94	N	1.591772	0.504772	0.413557
N95	N	1.841772	0.754772	0.663557
N96	N	2.091772	1.004772	0.913557
C97	C	1.343264	-0.000086	-0.272229
C98	C	1.593264	0.249914	-0.022229
C99	C	1.843264	0.499914	0.227771
C100	C	2.093264	0.749914	0.477771
C101	C	1.340196	-0.000077	-0.400616
C102	C	1.590196	0.249923	-0.150616
C103	C	1.840196	0.499923	0.099384
C104	C	2.090196	0.749923	0.349384
C105	C	1.334738	-0.000074	0.371041
C106	C	1.584738	0.249926	0.621041
C107	C	1.834738	0.499926	0.871041
C108	C	2.084738	0.749926	1.121041
C109	C	1.337758	-0.000069	0.497054
C110	C	1.587758	0.249931	0.747054
C111	C	1.837758	0.499931	0.997054
C112	C	2.087758	0.749931	1.247054
