data_functionalizedCrystal
_audit_creation_method	'MofGen! by Chris Wilmer'
_symmetry_space_group_name_H-M	'P1'
_symmetry_Int_Tables_number	1
_symmetry_cell_setting	triclinic
loop_
_symmetry_equiv_pos_as_xyz
  x,y,z
_cell_length_a	17.077404
_cell_length_b	15.297510
_cell_length_c	17.077396
_cell_angle_alpha	99.649353
_cell_angle_beta	90.018362
_cell_angle_gamma	80.293481
loop_
_atom_site_label
_atom_site_type_symbol
_atom_site_fract_x
_atom_site_fract_y
_atom_site_fract_z
Zn1	Zn	1.145934	0.359212	0.497892
Zn2	Zn	1.123110	0.510086	0.389337
Zn3	Zn	1.014662	0.359238	0.366646
Zn4	Zn	0.991912	0.510026	0.520554
O5	O	1.068905	0.434641	0.443607
O6	O	1.252751	0.379240	0.483504
O7	O	1.108693	0.490111	0.276486
O8	O	1.051149	0.232988	0.365076
O9	O	1.235983	0.490086	0.403749
O10	O	1.147594	0.232970	0.461501
O11	O	1.029017	0.379284	0.259815
O12	O	0.901799	0.379226	0.387051
O13	O	1.012374	0.489985	0.627390
O14	O	0.885085	0.490010	0.500126
O15	O	1.125534	0.379183	0.610740
O16	O	1.086633	0.636324	0.425724
O17	O	0.990242	0.636281	0.522129
C18	C	0.864961	0.434615	0.443586
C19	C	0.777709	0.434626	0.443599
C20	C	0.745436	0.377011	0.485219
C21	C	0.663454	0.377017	0.485224
C22	C	0.613747	0.434643	0.443612
C23	C	0.646026	0.492260	0.401986
C24	C	0.728007	0.492249	0.401978
C25	C	0.475153	0.492281	0.402009
C26	C	0.393166	0.492293	0.402019
C27	C	0.410601	0.377048	0.485255
C28	C	0.492581	0.377037	0.485246
C29	C	0.524854	0.434656	0.443622
C30	C	1.033514	0.669037	0.478865
C31	C	1.018445	0.769312	0.493975
C32	C	1.176886	1.051938	0.335930
C33	C	1.191043	0.957724	0.321730
C34	C	1.147895	0.910617	0.364790
C35	C	1.090587	0.957732	0.422052
C36	C	1.076424	1.051955	0.436250
C37	C	1.047433	0.910634	0.465109
C38	C	0.990125	0.957749	0.522372
C39	C	0.975965	1.051963	0.536567
C40	C	1.019113	1.099071	0.493507
C41	C	1.061596	0.816411	0.450912
C42	C	0.961134	0.816428	0.551232
C43	C	0.946977	0.910642	0.565432
C44	C	1.273645	0.434667	0.443630
C45	C	1.360893	0.434678	0.443639
C46	C	1.068962	0.434574	0.648342
C47	C	1.068987	0.434546	0.735587
C48	C	1.104448	1.199329	0.408238
C49	C	1.119575	1.099054	0.393187
C50	C	1.068902	0.434642	0.239660
C51	C	1.069068	0.434416	0.152376
C52	C	1.127911	0.376846	0.767908
C53	C	1.127925	0.376816	0.849884
C54	C	1.069017	0.434491	0.899539
C55	C	1.010086	0.492193	0.867212
C56	C	1.010070	0.492218	0.785237
C57	C	1.010126	0.492139	1.038074
C58	C	1.010143	0.492116	1.120055
C59	C	1.127982	0.376737	1.102722
C60	C	1.127965	0.376762	1.020746
C61	C	1.069035	0.434466	0.988426
H62	H	0.352696	0.539218	0.368135
H63	H	0.900316	0.949017	0.612055
H64	H	0.605548	0.539176	0.368101
F65	F	0.947441	0.553492	1.172899
H66	H	1.175883	0.329884	0.727485
H67	H	0.501426	0.539198	0.368112
H68	H	0.754282	0.539165	0.368086
F69	F	0.914969	1.102105	0.597507
H70	H	0.785902	0.330088	0.519107
F71	F	0.947404	0.553552	1.003678
H72	H	0.533051	0.330118	0.519135
F73	F	0.915206	0.766297	0.597058
H74	H	1.108257	0.778058	0.404289
H75	H	1.175964	0.329751	1.129040
F76	F	0.629111	0.315697	0.529524
H77	H	1.175909	0.329834	0.876196
H78	H	0.384321	0.330131	0.519145
F79	F	1.163132	0.810346	0.349844
F80	F	1.252038	0.907587	0.260795
H81	H	1.175937	0.329803	0.980320
F82	F	1.222798	1.102079	0.290108
F83	F	0.947389	0.553572	0.920060
H84	H	0.962081	0.539194	0.758922
H85	H	1.007591	1.175788	0.505067
