data_functionalizedCrystal
_audit_creation_method	'MofGen! by Chris Wilmer'
_symmetry_space_group_name_H-M	'P1'
_symmetry_Int_Tables_number	1
_symmetry_cell_setting	triclinic
loop_
_symmetry_equiv_pos_as_xyz
  x,y,z
_cell_length_a	13.897449
_cell_length_b	13.897448
_cell_length_c	10.686551
_cell_angle_alpha	85.592616
_cell_angle_beta	85.604174
_cell_angle_gamma	90.018972
loop_
_atom_site_label
_atom_site_type_symbol
_atom_site_fract_x
_atom_site_fract_y
_atom_site_fract_z
Zn1	Zn	1.516569	-0.342068	-0.713463
Zn2	Zn	1.849902	-0.008735	-0.380130
Zn3	Zn	2.183236	0.324598	-0.046796
Zn4	Zn	1.504081	-0.515777	-0.502453
Zn5	Zn	1.837414	-0.182444	-0.169120
Zn6	Zn	2.170748	0.150890	0.164213
Zn7	Zn	1.342877	-0.354500	-0.502476
Zn8	Zn	1.676211	-0.021167	-0.169142
Zn9	Zn	2.009544	0.312167	0.164191
Zn10	Zn	1.355236	-0.503330	-0.713403
Zn11	Zn	1.688570	-0.169997	-0.380069
Zn12	Zn	2.021903	0.163337	-0.046736
O13	O	1.429691	-0.428919	-0.607949
O14	O	1.763024	-0.095586	-0.274615
O15	O	2.096358	0.237748	0.058718
O16	O	1.649895	-0.365117	-0.685488
O17	O	1.983228	-0.031784	-0.352155
O18	O	2.316562	0.301549	-0.018821
O19	O	1.472298	-0.504795	-0.325875
O20	O	1.805632	-0.171462	0.007459
O21	O	2.138965	0.161872	0.340792
O22	O	1.365972	-0.217867	-0.530498
O23	O	1.699305	0.115466	-0.197165
O24	O	2.032639	0.448799	0.136169
O25	O	1.640720	-0.492741	-0.530460
O26	O	1.974053	-0.159407	-0.197127
O27	O	2.307387	0.173926	0.136206
O28	O	1.493583	-0.208734	-0.685510
O29	O	1.826916	0.124600	-0.352176
O30	O	2.160249	0.457933	-0.018843
O31	O	1.353863	-0.386305	-0.325891
O32	O	1.687196	-0.052972	0.007442
O33	O	2.020529	0.280361	0.340776
O34	O	1.209534	-0.374236	-0.530440
O35	O	1.542868	-0.040903	-0.197106
O36	O	1.876201	0.292430	0.136227
O37	O	1.387036	-0.471527	-0.889993
O38	O	1.720370	-0.138193	-0.556659
O39	O	2.053703	0.195140	-0.223326
O40	O	1.218614	-0.483581	-0.685407
O41	O	1.551948	-0.150248	-0.352074
O42	O	1.885281	0.183086	-0.018740
O43	O	1.505567	-0.353048	-0.890037
O44	O	1.838900	-0.019715	-0.556704
O45	O	2.172233	0.313618	-0.223370
O46	O	1.484282	-0.649110	-0.530402
O47	O	1.817616	-0.315776	-0.197069
O48	O	2.150949	0.017557	0.136265
O49	O	1.374927	-0.639965	-0.685385
O50	O	1.708260	-0.306632	-0.352052
O51	O	2.041594	0.026702	-0.018719
C52	C	1.179075	-0.428908	-0.607920
C53	C	1.512408	-0.095574	-0.274587
C54	C	1.845742	0.237759	0.058747
C55	C	1.071862	-0.428924	-0.607938
C56	C	1.405195	-0.095591	-0.274604
C57	C	1.738529	0.237742	0.058729
C58	C	1.429618	-0.679535	-0.607912
C59	C	1.762952	-0.346202	-0.274579
C60	C	2.096285	-0.012869	0.058754
C61	C	1.429678	-0.786748	-0.607939
C62	C	1.763011	-0.453414	-0.274605
C63	C	2.096345	-0.120081	0.058728
C64	C	0.875569	-0.428926	-0.607971
C65	C	1.208902	-0.095592	-0.274637
C66	C	1.542236	0.237741	0.058696
C67	C	0.984800	-0.428922	-0.607949
C68	C	1.318133	-0.095589	-0.274615
C69	C	1.651467	0.237744	0.058718
C70	C	1.429784	-0.983038	-0.608018
C71	C	1.763117	-0.649705	-0.274685
C72	C	2.096451	-0.316371	0.058649
C73	C	1.429723	-0.873808	-0.607978
C74	C	1.763056	-0.540475	-0.274644
C75	C	2.096389	-0.207141	0.058689
C76	C	1.681286	-0.428931	-0.607978
C77	C	2.014619	-0.095597	-0.274645
C78	C	2.347952	0.237736	0.058688
C79	C	1.788500	-0.428936	-0.607991
C80	C	2.121834	-0.095602	-0.274658
C81	C	2.455167	0.237731	0.058676
C82	C	1.449073	-0.409512	-0.937081
C83	C	1.782406	-0.076179	-0.603747
C84	C	2.115740	0.257154	-0.270414
C85	C	1.457333	-0.401242	-1.077337
C86	C	1.790666	-0.067909	-0.744004
C87	C	2.123999	0.265424	-0.410670
C88	C	1.429792	-0.177322	-0.608013
C89	C	1.763125	0.156011	-0.274680
C90	C	2.096458	0.489345	0.058654
C91	C	1.429835	-0.070107	-0.608040
C92	C	1.763168	0.263227	-0.274707
C93	C	2.096501	0.596560	0.058626
C94	C	1.410440	-0.448180	-0.280097
C95	C	1.743773	-0.114847	0.053236
C96	C	2.077106	0.218486	0.386569
C97	C	1.402367	-0.456178	-0.139842
C98	C	1.735700	-0.122845	0.193492
C99	C	2.069034	0.210488	0.526825
H100	H	1.348993	-0.509541	-1.086054
H101	H	1.682326	-0.176208	-0.752721
H102	H	2.015659	0.157126	-0.419387
C103	C	1.529451	-0.329157	-1.149997
C104	C	1.862784	0.004176	-0.816664
C105	C	2.196117	0.337509	-0.483330
H106	H	1.525728	-0.332864	-1.237896
H107	H	1.859062	0.000469	-0.904563
H108	H	2.192395	0.333802	-0.571229
H109	H	1.593000	-0.344534	-1.128457
H110	H	1.926333	-0.011200	-0.795123
H111	H	2.259666	0.322133	-0.461790
H112	H	1.514102	-0.265596	-1.128478
H113	H	1.847435	0.067737	-0.795144
H114	H	2.180768	0.401071	-0.461811
