data_functionalizedCrystal
_audit_creation_method	'MofGen! by Chris Wilmer'
_symmetry_space_group_name_H-M	'P1'
_symmetry_Int_Tables_number	1
_symmetry_cell_setting	triclinic
loop_
_symmetry_equiv_pos_as_xyz
  x,y,z
_cell_length_a	21.395362
_cell_length_b	29.839131
_cell_length_c	21.395356
_cell_angle_alpha	89.970658
_cell_angle_beta	89.957023
_cell_angle_gamma	90.057297
loop_
_atom_site_label
_atom_site_type_symbol
_atom_site_fract_x
_atom_site_fract_y
_atom_site_fract_z
Zn1	Zn	0.957807	-0.178674	-0.354578
Zn2	Zn	0.957692	-0.253802	-0.249798
Zn3	Zn	0.853024	-0.178707	-0.249780
Zn4	Zn	0.852972	-0.253799	-0.354503
O5	O	0.905373	-0.216245	-0.302165
O6	O	1.045470	-0.188627	-0.340718
O7	O	0.943781	-0.243855	-0.162117
O8	O	0.866994	-0.115836	-0.263706
O9	O	1.045385	-0.243823	-0.263737
O10	O	0.943977	-0.115812	-0.340701
O11	O	0.866882	-0.188684	-0.162104
O12	O	0.765339	-0.188681	-0.263632
O13	O	0.866905	-0.243818	-0.442191
O14	O	0.765301	-0.243850	-0.340571
O15	O	0.943927	-0.188625	-0.442246
O16	O	0.943730	-0.316668	-0.263663
O17	O	0.866793	-0.316666	-0.340589
C18	C	0.742586	-0.216269	-0.302092
C19	C	0.672944	-0.216290	-0.302076
C20	C	0.640228	-0.245055	-0.342078
C21	C	0.574792	-0.245044	-0.342106
C22	C	0.542076	-0.216273	-0.302120
C23	C	0.574801	-0.187503	-0.262115
C24	C	0.640235	-0.187511	-0.262093
C25	C	0.438353	-0.212660	-0.245715
C26	C	0.372920	-0.212655	-0.245736
C27	C	0.340256	-0.216244	-0.302189
C28	C	0.373032	-0.219847	-0.358623
C29	C	0.438466	-0.219856	-0.358601
C30	C	0.471124	-0.216260	-0.302140
C31	C	0.236586	-0.244998	-0.342226
C32	C	0.171150	-0.244984	-0.342254
C33	C	0.171159	-0.187445	-0.262258
C34	C	0.236595	-0.187457	-0.262235
C35	C	0.269304	-0.216236	-0.302218
C36	C	0.905260	-0.332968	-0.302133
C37	C	0.905269	-0.382903	-0.302141
C38	C	0.945508	-0.692534	-0.262168
C39	C	0.945585	-0.880207	-0.262192
O40	O	0.979707	-0.904462	-0.228181
N41	N	0.905503	-0.903687	-0.302212
C42	C	0.865403	-0.880247	-0.342231
O43	O	0.831317	-0.904524	-0.376276
C44	C	0.865329	-0.692574	-0.342210
C45	C	0.905409	-0.669097	-0.302183
C46	C	0.985585	-0.669056	-0.222145
C47	C	0.985562	-0.622141	-0.222137
C48	C	0.945463	-0.598703	-0.262152
C49	C	0.905386	-0.622181	-0.302175
C50	C	0.825232	-0.669134	-0.382232
C51	C	0.825218	-0.622213	-0.382224
C52	C	0.865298	-0.598736	-0.342197
C53	C	0.865265	-0.551828	-0.342182
N54	N	0.905347	-0.528348	-0.302162
C55	C	0.945446	-0.551786	-0.262147
C56	C	0.865443	-0.978777	-0.342239
C57	C	0.865461	-1.025695	-0.342244
C58	C	0.945644	-1.025652	-0.262205
C59	C	0.945623	-0.978734	-0.262198
C60	C	0.905525	-0.955297	-0.302219
C61	C	0.945396	-0.453260	-0.262132
C62	C	0.945368	-0.406340	-0.262126
C63	C	0.865188	-0.406387	-0.342167
C64	C	0.865212	-0.453302	-0.342171
C65	C	0.905322	-0.476738	-0.302152
O66	O	0.831166	-0.527544	-0.376180
O67	O	0.979536	-0.527500	-0.228117
C68	C	0.945530	-0.739450	-0.262176
C69	C	0.905453	-0.762928	-0.302199
C70	C	0.865354	-0.739490	-0.342214
C71	C	0.905470	-0.809845	-0.302204
C72	C	0.945569	-0.833283	-0.262189
C73	C	0.985651	-0.809803	-0.222169
C74	C	0.985629	-0.762887	-0.222161
C75	C	0.825272	-0.762970	-0.382234
C76	C	0.825297	-0.809886	-0.382238
C77	C	0.865396	-0.833323	-0.342223
C78	C	1.068797	-0.216222	-0.302238
C79	C	1.138438	-0.216212	-0.302269
C80	C	0.905423	-0.216218	-0.465588
C81	C	0.905444	-0.216206	-0.535229
C82	C	0.905504	-0.099067	-0.302210
C83	C	0.905560	-0.049133	-0.302229
C84	C	0.865413	-0.187475	-0.567926
C85	C	0.865411	-0.187466	-0.633361
C86	C	0.905451	-0.216184	-0.666098
C87	C	0.945484	-0.244921	-0.633393
C88	C	0.945481	-0.244932	-0.567959
C89	C	0.961902	-0.219705	-0.769803
C90	C	0.961906	-0.219691	-0.835236
C91	C	0.905461	-0.216154	-0.867918
C92	C	0.849010	-0.212621	-0.835160
C93	C	0.849006	-0.212632	-0.769726
C94	C	0.905459	-0.216176	-0.737050
C95	C	0.865425	-0.187412	-0.971567
C96	C	0.865422	-0.187407	-1.037004
C97	C	0.945500	-0.244860	-1.037035
C98	C	0.945498	-0.244867	-0.971600
C99	C	0.905461	-0.216141	-0.938870
C100	C	0.905360	-0.216241	-0.139377
C101	C	0.905461	-0.216126	-0.069736
H102	H	0.548159	-0.164076	-0.229560
H103	H	0.792591	-0.688242	-0.414823
C104	C	0.989520	-0.276535	-0.531992
H105	H	1.013369	-0.293636	-0.560858
H106	H	0.965531	-0.296115	-0.506438
H107	H	1.016841	-0.259345	-0.506496
H108	H	0.803047	-0.209738	-0.861769
H109	H	0.666873	-0.164086	-0.229518
H110	H	0.803041	-0.209756	-0.743057
C111	C	0.989461	-0.380517	-0.218098
H112	H	1.013349	-0.401198	-0.194273
H113	H	0.965502	-0.362249	-0.190763
H114	H	1.016743	-0.362179	-0.242101
H115	H	0.666856	-0.268489	-0.374636
H116	H	0.832824	-0.164022	-0.944917
H117	H	0.346437	-0.222769	-0.404593
H118	H	1.007873	-0.222566	-0.861903
H119	H	0.832819	-0.164012	-1.063624
H120	H	0.144523	-0.164017	-0.229704
C121	C	0.336870	-0.208723	-0.183661
H122	H	0.293222	-0.209246	-0.191757
H123	H	0.347599	-0.181362	-0.163667
H124	H	0.347542	-0.233150	-0.157265
H125	H	0.978085	-0.268304	-0.660052
C126	C	0.538796	-0.276660	-0.386147
H127	H	0.567649	-0.293794	-0.409965
H128	H	0.513347	-0.259474	-0.413486
H129	H	0.513194	-0.296218	-0.362165
C130	C	0.989542	-0.276452	-1.073035
H131	H	1.013381	-0.293566	-1.044187
H132	H	1.016862	-0.259261	-1.098589
H133	H	0.965547	-0.296027	-1.098532
C134	C	1.023996	-0.223594	-0.733858
H135	H	1.057616	-0.225688	-0.762738
H136	H	1.023156	-0.249638	-0.708319
H137	H	1.029526	-0.197845	-0.708349
C138	C	0.989750	-1.051439	-0.218188
H139	H	0.984019	-1.082744	-0.223929
H140	H	0.980603	-1.043778	-0.176077
H141	H	1.031844	-1.043711	-0.227415
H142	H	0.832814	-0.164068	-0.659988
C143	C	0.272588	-0.155819	-0.218228
H144	H	0.316243	-0.159942	-0.223945
H145	H	0.261808	-0.162351	-0.176117
H146	H	0.261924	-0.125640	-0.227484
H147	H	0.464944	-0.209736	-0.199741
C148	C	0.989510	-0.479032	-0.218108
H149	H	1.013368	-0.458325	-0.194269
H150	H	1.016811	-0.497300	-0.242105
H151	H	0.965560	-0.497367	-0.190777
H152	H	1.018201	-0.603028	-0.189545
H153	H	0.465149	-0.222789	-0.404551
H154	H	0.978097	-0.268262	-0.944978
H155	H	0.792654	-0.828997	-0.414832
C156	C	0.272569	-0.276648	-0.386210
H157	H	0.243710	-0.293774	-0.410046
H158	H	0.298036	-0.296205	-0.362186
H159	H	0.298154	-0.259488	-0.413545
H160	H	0.144513	-0.268407	-0.374833
H161	H	1.018241	-0.688134	-0.189559
H162	H	0.832818	-1.044807	-0.374832
C163	C	0.989715	-0.952912	-0.218174
H164	H	1.013599	-0.973595	-0.194348
H165	H	0.965759	-0.934641	-0.190841
H166	H	1.017001	-0.934577	-0.242178
H167	H	0.832789	-0.959698	-0.374830
H168	H	0.832578	-0.472419	-0.374766
C169	C	0.781109	-0.596433	-0.426247
H170	H	0.786837	-0.565128	-0.420517
H171	H	0.739019	-0.604168	-0.417029
H172	H	0.790269	-0.604096	-0.468358
C173	C	0.821085	-0.380599	-0.386183
H174	H	0.826821	-0.349295	-0.380447
H175	H	0.778992	-0.388328	-0.376969
H176	H	0.830245	-0.388260	-0.428295
H177	H	1.018266	-0.743775	-0.189567
H178	H	0.792619	-0.743891	-0.414820
C179	C	1.029758	-0.835590	-0.178153
H180	H	1.024029	-0.866894	-0.183897
H181	H	1.020610	-0.827931	-0.136041
H182	H	1.071851	-0.827860	-0.187378
H183	H	0.832810	-0.164085	-0.541281
