data_functionalizedCrystal
_audit_creation_method	'MofGen! by Chris Wilmer'
_symmetry_space_group_name_H-M	'P1'
_symmetry_Int_Tables_number	1
_symmetry_cell_setting	triclinic
loop_
_symmetry_equiv_pos_as_xyz
  x,y,z
_cell_length_a	17.699083
_cell_length_b	15.944551
_cell_length_c	16.176319
_cell_angle_alpha	89.992246
_cell_angle_beta	89.998611
_cell_angle_gamma	83.390877
loop_
_atom_site_label
_atom_site_type_symbol
_atom_site_fract_x
_atom_site_fract_y
_atom_site_fract_z
O1	O	1.004260	0.106222	-0.068632
O2	O	0.783905	0.120042	-0.068660
O3	O	0.900100	-0.009156	-0.068638
O4	O	0.888065	0.235419	-0.068654
O5	O	0.900084	-0.009164	0.068855
O6	O	0.783889	0.120033	0.068833
O7	O	1.004244	0.106214	0.068861
Cu8	Cu	0.894065	0.113123	0.081401
Cu9	Cu	0.894084	0.113133	-0.081200
O10	O	0.888049	0.235411	0.068839
C11	C	0.755700	0.119542	0.000083
C12	C	0.671679	0.118057	0.000073
C13	C	0.899593	-0.040453	0.000109
C14	C	0.898095	-0.133696	0.000109
C15	C	0.623187	0.193893	0.000068
C16	C	0.544242	0.192492	0.000079
C17	C	0.513789	0.115254	0.000089
C18	C	0.562287	0.039412	0.000096
C19	C	0.641231	0.040814	0.000091
C20	C	0.243914	0.033758	0.000117
C21	C	0.164964	0.032362	0.000119
C22	C	0.146925	0.185436	0.000105
C23	C	0.225869	0.186837	0.000100
C24	C	0.274360	0.110996	0.000112
C25	C	0.359962	0.112516	0.000102
C26	C	0.428189	0.113733	0.000093
C27	C	0.822492	-0.348393	0.000088
C28	C	0.857591	-0.409488	0.067885
C29	C	0.895385	-0.304416	0.000102
C30	C	0.857624	-0.409464	-0.067672
C31	C	0.892762	-0.469323	0.000092
C32	C	0.930505	-0.364283	0.067955
C33	C	0.930527	-0.364252	-0.067663
C34	C	0.965680	-0.425329	0.000150
C35	C	0.896894	-0.209417	0.000109
C36	C	0.891259	-0.564321	0.000092
C37	C	1.032450	0.106713	0.000116
C38	C	1.116471	0.108199	0.000121
C39	C	0.888557	0.266708	0.000090
C40	C	0.890055	0.359951	0.000085
N41	N	0.894058	0.113116	0.195767
N42	N	0.894098	0.113133	-0.195565
C43	C	0.945524	0.055930	0.239040
C44	C	0.945528	0.055929	0.325588
C45	C	0.894068	0.113118	0.368859
C46	C	0.842596	0.170306	0.325579
C47	C	0.842589	0.170303	0.239034
C48	C	0.842622	0.170322	0.674608
C49	C	0.842634	0.170323	0.761159
C50	C	0.945561	0.055949	0.761161
C51	C	0.945554	0.055945	0.674616
C52	C	0.894080	0.113130	0.631343
C53	C	0.894075	0.113129	0.537499
C54	C	0.894076	0.113124	0.462702
H55	H	0.647975	0.256789	0.000060
H56	H	0.961303	-0.344360	0.125335
H57	H	0.140173	-0.030538	0.000128
H58	H	0.826754	-0.429535	0.125194
O59	O	0.532745	-0.035639	0.000251
C60	C	0.557540	-0.081874	0.071451
H61	H	0.573961	-0.036709	0.121220
H62	H	0.509717	-0.117518	0.095355
H63	H	0.608991	-0.128781	0.055354
O64	O	0.995424	0.000298	0.367656
C65	C	0.954906	-0.051461	0.417746
H66	H	0.895218	-0.052803	0.391677
H67	H	0.985791	-0.118266	0.418728
H68	H	0.950947	-0.025171	0.483336
H69	H	1.026238	-0.458615	0.000196
O70	O	0.995570	0.000310	0.632711
C71	C	1.041010	-0.050152	0.689465
H72	H	1.009987	-0.051055	0.751163
H73	H	1.052551	-0.117250	0.664469
H74	H	1.097233	-0.022957	0.698655
O75	O	0.290903	-0.039989	0.000088
C76	C	0.247093	-0.108458	0.000116
H77	H	0.188175	-0.087014	-0.025917
H78	H	0.276210	-0.161585	-0.039795
H79	H	0.241467	-0.132141	0.066081
O80	O	0.497104	0.266135	0.000213
C81	C	0.450887	0.269900	0.071412
H82	H	0.479799	0.226896	0.121192
H83	H	0.442009	0.337581	0.095299
H84	H	0.393481	0.248271	0.055321
H85	H	0.800693	0.216868	0.360816
O86	O	0.967175	-0.340324	-0.136118
C87	C	0.928564	-0.363094	-0.207460
H88	H	0.866857	-0.369730	-0.191226
H89	H	0.930420	-0.312168	-0.256654
H90	H	0.957194	-0.425792	-0.232191
H91	H	0.826790	-0.429472	-0.124993
O92	O	0.255324	0.261940	0.000128
C93	C	0.195595	0.328576	0.000107
H94	H	0.141965	0.305139	0.026140
H95	H	0.212096	0.382508	0.040021
H96	H	0.184424	0.351967	-0.065857
H97	H	0.987432	0.009364	0.203814
H98	H	0.680713	-0.020940	0.000095
H99	H	0.761987	-0.314958	0.000149
H100	H	0.107434	0.247189	0.000100
O101	O	0.792565	0.225906	0.803067
C102	C	0.747141	0.276391	0.746316
H103	H	0.746281	0.241954	0.684628
H104	H	0.686704	0.289280	0.771333
H105	H	0.771706	0.338761	0.737098
H106	H	0.987472	0.009383	0.796403
H107	H	0.800711	0.216885	0.639382
O108	O	0.792568	0.225936	0.197123
C109	C	0.747137	0.276401	0.253871
H110	H	0.778172	0.277311	0.315560
H111	H	0.735588	0.343496	0.228854
H112	H	0.690917	0.249203	0.263089
