data_functionalizedCrystal
_audit_creation_method	'MofGen! by Chris Wilmer'
_symmetry_space_group_name_H-M	'P1'
_symmetry_Int_Tables_number	1
_symmetry_cell_setting	triclinic
loop_
_symmetry_equiv_pos_as_xyz
  x,y,z
_cell_length_a	17.699083
_cell_length_b	14.971486
_cell_length_c	13.448316
_cell_angle_alpha	90.006811
_cell_angle_beta	90.000733
_cell_angle_gamma	83.448572
loop_
_atom_site_label
_atom_site_type_symbol
_atom_site_fract_x
_atom_site_fract_y
_atom_site_fract_z
O1	O	-1.004356	-0.113113	-0.082553
O2	O	-0.784014	-0.127829	-0.082586
O3	O	-0.900091	0.009750	-0.082561
O4	O	-0.888280	-0.250691	-0.082577
O5	O	-0.900077	0.009758	0.082823
O6	O	-0.784000	-0.127820	0.082798
O7	O	-1.004342	-0.113104	0.082831
Cu8	Cu	-0.894169	-0.120461	0.097915
Cu9	Cu	-0.894187	-0.120471	-0.097670
O10	O	-0.888265	-0.250683	0.082807
C11	C	-0.755809	-0.127297	0.000102
C12	C	-0.671787	-0.125715	0.000090
C13	C	-0.899556	0.043077	0.000130
C14	C	-0.897973	0.142368	0.000129
C15	C	-1.032547	-0.113636	0.000141
C16	C	-1.116569	-0.115218	0.000147
C17	C	-0.623365	-0.206471	0.000085
C18	C	-0.544418	-0.204979	0.000098
C19	C	-0.513894	-0.122731	0.000109
C20	C	-0.562323	-0.041969	0.000116
C21	C	-0.641268	-0.043462	0.000111
C22	C	-0.243945	-0.035947	0.000141
C23	C	-0.164993	-0.034461	0.000144
C24	C	-0.147094	-0.197465	0.000129
C25	C	-0.226040	-0.198958	0.000123
C26	C	-0.274461	-0.118196	0.000136
C27	C	-0.360064	-0.119815	0.000124
C28	C	-0.428293	-0.121111	0.000114
C29	C	-0.888801	-0.284010	0.000113
C30	C	-0.890383	-0.383301	0.000108
N31	N	-0.894163	-0.120454	0.235480
C32	C	-0.966165	0.199828	0.000140
C33	C	-0.964673	0.293123	0.000130
C34	C	-0.894988	0.328955	0.000116
C35	C	-0.826791	0.271488	0.000102
C36	C	-0.828284	0.178196	0.000105
C37	C	-0.823685	0.465940	0.000098
C38	C	-0.822192	0.559239	0.000097
C39	C	-0.960074	0.580867	0.000123
C40	C	-0.961566	0.487574	0.000126
C41	C	-0.893369	0.430114	0.000114
N42	N	-0.894199	-0.120472	-0.235234
C43	C	-0.945578	-0.059559	0.287531
C44	C	-0.945582	-0.059558	0.391634
C45	C	-0.894175	-0.120457	0.443684
C46	C	-0.842755	-0.181355	0.391626
C47	C	-0.842747	-0.181351	0.287525
C48	C	-0.842776	-0.181361	0.608606
C49	C	-0.842785	-0.181367	0.712715
C50	C	-0.945611	-0.059569	0.712716
C51	C	-0.945603	-0.059564	0.608614
C52	C	-0.894184	-0.120463	0.556563
H53	H	-0.504995	-0.270739	0.000093
O54	O	-0.792932	-0.240555	0.557931
C55	C	-0.776924	-0.362768	0.440421
C56	C	-0.833449	-0.295767	0.497731
H57	H	-0.809659	-0.407437	0.391752
H58	H	-0.739089	-0.324254	0.391629
H59	H	-0.740169	-0.406259	0.495520
H60	H	-0.870254	-0.252260	0.442704
H61	H	-0.871231	-0.334337	0.546539
H62	H	-0.770052	0.300671	0.000084
O63	O	-0.792786	-0.240389	0.442296
C64	C	-0.689425	-0.259584	0.559802
C65	C	-0.745982	-0.192627	0.502500
H66	H	-0.651559	-0.220994	0.608474
H67	H	-0.722103	-0.304210	0.608592
H68	H	-0.652708	-0.303124	0.504698
H69	H	-0.782714	-0.149027	0.557531
H70	H	-0.713259	-0.148063	0.453695
O71	O	-0.652921	-0.286425	-0.000059
C72	C	-0.661800	-0.426188	-0.085780
C73	C	-0.628267	-0.335679	-0.085733
H74	H	-0.641894	-0.466027	-0.155051
H75	H	-0.641843	-0.466144	-0.016616
H76	H	-0.726541	-0.413366	-0.085738
H77	H	-0.563525	-0.348419	-0.085811
H78	H	-0.648284	-0.295751	-0.154892
O79	O	-0.792880	-0.240630	0.237003
C80	C	-0.748630	-0.396223	0.205170
C81	C	-0.805163	-0.329191	0.262428
H82	H	-0.758530	-0.467839	0.225720
H83	H	-0.757452	-0.385836	0.121814
H84	H	-0.688011	-0.384610	0.225639
H85	H	-0.865803	-0.340764	0.242042
H86	H	-0.796274	-0.339594	0.345770
O87	O	-0.688200	0.035067	0.000065
C88	C	-0.697627	0.196908	0.000137
C89	C	-0.644392	0.108039	0.000160
H90	H	-0.662230	0.255929	0.000234
H91	H	-0.735019	0.200343	-0.069094
H92	H	-0.735053	0.200238	0.069331
H93	H	-0.606919	0.104650	-0.068988
H94	H	-0.607052	0.104641	0.069437
H95	H	-0.537465	0.024999	0.000139
O96	O	-0.995544	-0.000315	0.237128
C97	C	-1.097561	0.120460	0.248128
C98	C	-1.041004	0.053424	0.305329
H99	H	-1.134341	0.163912	0.303244
H100	H	-1.064884	0.165160	0.199432
H101	H	-1.135366	0.081883	0.199351
H102	H	-1.003186	0.091927	0.354161
H103	H	-1.073729	0.008724	0.353963
O104	O	-0.995428	-0.000319	0.442235
C105	C	-1.011462	0.121833	0.559821
C106	C	-0.954925	0.054805	0.502564
H107	H	-0.978738	0.166405	0.608627
H108	H	-1.048193	0.165416	0.504777
H109	H	-1.049318	0.083249	0.608502
H110	H	-0.917019	0.093316	0.453882
H111	H	-0.918247	0.011222	0.557663
H112	H	-0.987478	-0.009982	0.755102
H113	H	-0.987466	-0.009980	0.566235
H114	H	-0.250887	-0.265933	0.000110
H115	H	-0.107660	-0.263225	0.000124
H116	H	-0.140145	0.032519	0.000154
H117	H	-1.022910	0.170661	0.000157
H118	H	-1.018310	0.458403	0.000144
O119	O	-1.030985	0.348811	0.000191
C120	C	-1.167902	0.360418	0.000173
C121	C	-1.092857	0.297249	0.000126
H122	H	-1.217945	0.318755	0.000099
H123	H	-1.170692	0.404628	0.069401
H124	H	-1.170621	0.404645	-0.069025
H125	H	-1.090088	0.252965	0.069277
H126	H	-1.090099	0.253100	-0.069147
H127	H	-0.283361	0.029814	0.000153
H128	H	-1.015603	0.627656	0.000129
H129	H	-0.765448	0.588411	0.000101
O130	O	-0.757368	0.410249	0.000128
C131	C	-0.620450	0.398637	0.000046
C132	C	-0.695494	0.461809	0.000031
H133	H	-0.570406	0.440298	-0.000054
H134	H	-0.617643	0.354443	0.069275
H135	H	-0.617751	0.354394	-0.069150
H136	H	-0.698243	0.506109	0.069180
H137	H	-0.698270	0.505942	-0.069245
H138	H	-0.772754	0.131412	0.000096
H139	H	-0.800923	-0.230956	0.755089
