data_functionalizedCrystal
_audit_creation_method	'MofGen! by Chris Wilmer'
_symmetry_space_group_name_H-M	'P1'
_symmetry_Int_Tables_number	1
_symmetry_cell_setting	triclinic
loop_
_symmetry_equiv_pos_as_xyz
  x,y,z
_cell_length_a	10.654556
_cell_length_b	27.731996
_cell_length_c	9.130313
_cell_angle_alpha	89.989531
_cell_angle_beta	89.998135
_cell_angle_gamma	83.554462
loop_
_atom_site_label
_atom_site_type_symbol
_atom_site_fract_x
_atom_site_fract_y
_atom_site_fract_z
O1	O	1.664947	0.067902	-0.121765
O2	O	1.299195	0.074367	-0.121783
O3	O	1.493465	0.000807	-0.121742
O4	O	1.470678	0.141462	-0.121806
O5	O	1.493452	0.000805	0.121857
O6	O	1.299182	0.074365	0.121816
O7	O	1.664934	0.067900	0.121833
Cu8	Cu	1.482057	0.071132	0.144067
Cu9	Cu	1.482072	0.071135	-0.144017
O10	O	1.470665	0.141460	0.121793
C11	C	1.252411	0.073890	0.000015
C12	C	1.113028	0.072468	0.000010
C13	C	0.916575	0.070467	-0.132763
C14	C	1.047541	0.071800	-0.132773
C15	C	1.047545	0.071798	0.132812
C16	C	0.916583	0.070461	0.132820
C17	C	1.492990	-0.017204	0.000063
C18	C	1.491580	-0.070870	0.000077
C19	C	1.482717	-0.403640	-0.132780
C20	C	1.477363	-0.605332	-0.132806
O21	O	1.476622	-0.631406	-0.245736
N22	N	1.476690	-0.630554	-0.000022
C23	C	1.477349	-0.605350	0.132779
O24	O	1.476641	-0.631431	0.245719
C25	C	1.482694	-0.403659	0.132803
C26	C	1.483379	-0.378440	0.000010
C27	C	1.483400	-0.378421	-0.265563
C28	C	1.484745	-0.328001	-0.265555
C29	C	1.485407	-0.302801	-0.132765
C30	C	1.484724	-0.328020	0.000018
C31	C	1.483343	-0.378456	0.265602
C32	C	1.484676	-0.328029	0.265596
C33	C	1.485361	-0.302810	0.132803
C34	C	1.486731	-0.252400	0.132816
N35	N	1.487403	-0.227178	0.000031
C36	C	1.486741	-0.252378	-0.132759
C37	C	1.474545	-0.711241	0.132756
C38	C	1.473211	-0.761664	0.132751
C39	C	1.473223	-0.761641	-0.132835
C40	C	1.474566	-0.711218	-0.132827
C41	C	1.475217	-0.686019	-0.000028
C42	C	1.489568	-0.146493	-0.132732
C43	C	1.490918	-0.096070	-0.132713
C44	C	1.490900	-0.096096	0.132872
C45	C	1.489556	-0.146516	0.132853
C46	C	1.488886	-0.171713	0.000039
O47	O	1.487458	-0.226294	0.245687
O48	O	1.487421	-0.226288	-0.245683
C49	C	1.481371	-0.454059	-0.132788
C50	C	1.480688	-0.479279	-0.000006
C51	C	1.481350	-0.454079	0.132784
C52	C	1.479354	-0.529702	-0.000011
C53	C	1.478692	-0.554902	-0.132802
C54	C	1.479364	-0.529679	-0.265586
C55	C	1.480709	-0.479260	-0.265578
C56	C	1.480678	-0.479301	0.265569
C57	C	1.479334	-0.529721	0.265550
C58	C	1.478672	-0.554921	0.132760
C59	C	1.711718	0.068376	0.000032
C60	C	1.851101	0.069798	0.000028
C61	C	1.471139	0.159471	-0.000015
C62	C	1.472549	0.213136	-0.000040
N63	N	1.482055	0.071130	0.346690
N64	N	1.482084	0.071133	-0.346639
C65	C	1.568106	0.038572	0.423360
C66	C	1.568118	0.038572	0.576697
C67	C	1.396024	0.103693	0.576680
C68	C	1.396007	0.103690	0.423346
H69	H	1.100845	0.072344	-0.240905
C70	C	1.485484	-0.300266	-0.411639
N71	N	1.486035	-0.279378	-0.521678
C72	C	0.844551	0.069732	-0.278838
N73	N	0.790307	0.069176	-0.388866
H74	H	0.863273	0.069916	0.240961
H75	H	1.100877	0.072339	0.240926
H76	H	1.491479	-0.075539	-0.240854
H77	H	1.489016	-0.167003	-0.240882
C78	C	1.482726	-0.406135	-0.411656
N79	N	1.482247	-0.427008	-0.521702
H80	H	1.475121	-0.690688	-0.240959
C81	C	1.662771	0.002751	0.661027
N82	N	1.734063	-0.024233	0.724543
H83	H	1.638170	0.012058	0.360950
C84	C	1.472484	-0.789371	-0.278905
N85	N	1.471917	-0.810258	-0.388919
C86	C	1.301374	0.139506	0.661016
N87	N	1.230081	0.166481	0.724537
H88	H	1.475081	-0.690728	0.240904
C89	C	1.472470	-0.789400	0.278833
N90	N	1.471903	-0.810288	0.388868
C91	C	1.488815	-0.174258	0.278931
N92	N	1.488244	-0.195150	0.388960
H93	H	1.482787	-0.398981	0.373737
C94	C	1.301396	0.139531	0.339004
N95	N	1.230157	0.166533	0.275478
H96	H	1.485188	-0.307513	0.373740
C97	C	1.491616	-0.068365	0.278934
N98	N	1.492141	-0.047477	0.388949
H99	H	1.481266	-0.458731	-0.373712
H100	H	1.478831	-0.550206	-0.373709
H101	H	1.478786	-0.550250	0.373695
H102	H	1.481218	-0.458788	0.373705
