data_functionalizedCrystal
_audit_creation_method	'MofGen! by Chris Wilmer'
_symmetry_space_group_name_H-M	'P1'
_symmetry_Int_Tables_number	1
_symmetry_cell_setting	triclinic
loop_
_symmetry_equiv_pos_as_xyz
  x,y,z
_cell_length_a	13.596369
_cell_length_b	14.519709
_cell_length_c	14.519731
_cell_angle_alpha	96.315501
_cell_angle_beta	90.006971
_cell_angle_gamma	90.000291
loop_
_atom_site_label
_atom_site_type_symbol
_atom_site_fract_x
_atom_site_fract_y
_atom_site_fract_z
O1	O	0.081666	-1.223878	0.120892
O2	O	0.081696	-0.955402	0.135128
O3	O	0.081671	-1.096748	-0.006227
O4	O	0.081690	-1.082532	0.262247
O5	O	-0.081912	-1.096734	-0.006235
O6	O	-0.081887	-0.955388	0.135120
O7	O	-0.081917	-1.223864	0.120884
Zn8	Zn	-0.107874	-1.089623	0.128001
Zn9	Zn	0.107653	-1.089642	0.128011
O10	O	-0.081892	-1.082518	0.262239
C11	C	-0.000092	-0.921035	0.134461
C12	C	-0.000080	-0.818654	0.132473
N13	N	-0.254966	-1.089617	0.127994
C14	C	-0.000121	-1.096075	-0.040591
C15	C	-0.000121	-1.094079	-0.142971
C16	C	-0.656257	-1.089641	0.128012
C17	C	-0.544606	-1.089632	0.128010
C18	C	-0.455615	-1.089630	0.128004
C19	C	-0.343957	-1.089619	0.128000
N20	N	0.254745	-1.089655	0.128011
C21	C	-0.000128	-1.258230	0.121551
C22	C	-0.000132	-1.360612	0.123539
C23	C	-0.000126	-0.443757	0.125153
C24	C	-0.000113	-0.548065	0.127186
C25	C	-0.000102	-0.631202	0.128813
C26	C	-0.000091	-0.735517	0.130846
C27	C	-0.000119	-1.092457	-0.226115
C28	C	-0.000111	-1.090430	-0.330424
C29	C	-0.000104	-1.088822	-0.413563
C30	C	-0.000098	-1.086795	-0.517878
C31	C	-0.000099	-1.083191	0.296603
C32	C	-0.000092	-1.085187	0.398983
