data_functionalizedCrystal
_audit_creation_method	'MofGen! by Chris Wilmer'
_symmetry_space_group_name_H-M	'P1'
_symmetry_Int_Tables_number	1
_symmetry_cell_setting	triclinic
loop_
_symmetry_equiv_pos_as_xyz
  x,y,z
_cell_length_a	17.019383
_cell_length_b	16.098538
_cell_length_c	16.109301
_cell_angle_alpha	87.279371
_cell_angle_beta	83.430593
_cell_angle_gamma	96.605849
loop_
_atom_site_label
_atom_site_type_symbol
_atom_site_fract_x
_atom_site_fract_y
_atom_site_fract_z
O1	O	1.054025	0.144776	0.098207
O2	O	0.823517	0.128263	0.112587
O3	O	0.945102	0.136965	-0.015663
O4	O	0.932439	0.136075	0.226458
O5	O	0.938000	-0.002056	-0.008200
O6	O	0.816414	-0.010758	0.120050
O7	O	1.046922	0.005755	0.105670
Zn8	Zn	0.930540	-0.024574	0.114045
Zn9	Zn	0.939898	0.158592	0.104213
O10	O	0.925336	-0.002947	0.233920
C11	C	0.790469	0.056639	0.115918
C12	C	0.702579	0.050343	0.114715
N13	N	0.924160	-0.149580	0.120754
C14	C	0.665152	0.123159	0.110085
C15	C	0.582568	0.117230	0.108968
C16	C	0.537413	0.038485	0.112477
C17	C	0.574845	-0.034337	0.117110
C18	C	0.657427	-0.028407	0.118233
C19	C	0.287874	0.016791	0.109297
C20	C	0.205287	0.010867	0.108172
C21	C	0.213016	0.162434	0.100032
C22	C	0.295599	0.168357	0.101149
C23	C	0.333024	0.095535	0.105787
C24	C	0.452999	0.032423	0.111333
C25	C	0.417436	0.101598	0.106937
C26	C	0.975785	-0.189470	0.066339
C27	C	0.971328	-0.276978	0.071040
C28	C	0.915251	-0.324594	0.130162
C29	C	0.863620	-0.284698	0.184580
C30	C	0.868073	-0.197192	0.179874
C31	C	0.899108	-0.588999	0.147208
C32	C	0.894660	-0.676511	0.151912
C33	C	1.002368	-0.668785	0.038371
C34	C	1.006819	-0.581278	0.033673
C35	C	0.955186	-0.541389	0.088088
C36	C	0.910696	-0.414041	0.134971
C37	C	0.959738	-0.451944	0.083275
C38	C	1.079970	0.077381	0.102339
C39	C	1.167860	0.083683	0.103541
C40	C	0.941038	0.067417	-0.042904
C41	C	0.939500	0.067306	-0.135192
N42	N	0.946285	0.283599	0.097496
C43	C	1.008071	0.072231	-0.357787
C44	C	1.006620	0.072134	-0.444501
C45	C	0.862362	0.061796	-0.423950
C46	C	0.863814	0.061900	-0.337238
C47	C	0.936671	0.067113	-0.304159
C48	C	0.933768	0.066913	-0.477585
C49	C	0.932194	0.066807	-0.571604
C50	C	0.938245	0.067220	-0.210134
C51	C	0.929401	0.066603	0.261161
C52	C	0.930939	0.066720	0.353449
H53	H	0.701912	0.187282	0.107225
H54	H	0.552099	0.176525	0.105198
H55	H	0.857068	-0.556529	0.191516
H56	H	0.803045	0.057550	-0.450894
H57	H	0.332360	0.232480	0.098287
C58	C	0.171841	0.242533	0.094938
N59	N	0.140828	0.302866	0.091105
H60	H	1.013365	-0.309456	0.026731
H61	H	0.805668	0.057734	-0.293571
H62	H	0.318336	-0.042506	0.113068
C63	C	0.525171	-0.120958	0.120970
N64	N	0.487758	-0.186203	0.123875
C65	C	0.832966	-0.728887	0.216950
N66	N	0.786500	-0.768337	0.265935
H67	H	0.168521	-0.053261	0.111053
H68	H	0.687898	-0.087702	0.122007
C69	C	0.467109	0.188216	0.103075
N70	N	0.504531	0.253457	0.100162
H71	H	0.416224	-0.031692	0.114187
H72	H	0.865038	-0.452817	0.183110
H73	H	1.052482	-0.542510	-0.014468
C74	C	1.037475	-0.137101	0.001300
N75	N	1.083939	-0.097658	-0.047693
C76	C	1.059154	-0.712670	-0.021488
N77	N	1.101925	-0.745725	-0.066580
H78	H	0.817957	-0.323472	0.232715
C79	C	0.811288	-0.153313	0.239742
N80	N	0.768516	-0.120264	0.284837
C81	C	1.085166	0.077757	-0.503488
N82	N	1.144331	0.081991	-0.547917
H83	H	1.005393	-0.413173	0.035135
C84	C	1.088216	0.077975	-0.321404
N85	N	1.148584	0.082306	-0.294003
