data_functionalizedCrystal
_audit_creation_method	'MofGen! by Chris Wilmer'
_symmetry_space_group_name_H-M	'P1'
_symmetry_Int_Tables_number	1
_symmetry_cell_setting	triclinic
loop_
_symmetry_equiv_pos_as_xyz
  x,y,z
_cell_length_a	16.625547
_cell_length_b	12.759393
_cell_length_c	16.625539
_cell_angle_alpha	90.022777
_cell_angle_beta	89.975178
_cell_angle_gamma	89.985236
loop_
_atom_site_label
_atom_site_type_symbol
_atom_site_fract_x
_atom_site_fract_y
_atom_site_fract_z
Zn1	Zn	1.232723	0.418266	-0.456032
Zn2	Zn	1.232645	0.593967	-0.321212
Zn3	Zn	1.097885	0.418303	-0.321202
Zn4	Zn	1.097874	0.593904	-0.455992
O5	O	1.165282	0.506110	-0.388610
O6	O	1.345545	0.441585	-0.438168
O7	O	1.214740	0.570707	-0.208378
O8	O	1.115810	0.271277	-0.339100
O9	O	1.345487	0.570672	-0.339117
O10	O	1.214875	0.271250	-0.438159
O11	O	1.115733	0.441647	-0.208371
O12	O	0.985051	0.441585	-0.339062
O13	O	1.115790	0.570563	-0.568830
O14	O	0.985043	0.570598	-0.438091
O15	O	1.214863	0.441523	-0.568859
O16	O	1.214729	0.740980	-0.339078
O17	O	1.115713	0.740933	-0.438100
C18	C	0.955791	0.506090	-0.388571
C19	C	0.866170	0.506106	-0.388574
C20	C	1.165233	0.779078	-0.388604
C21	C	1.165286	0.895854	-0.388628
C22	C	0.793387	0.506108	-0.388584
C23	C	0.702079	0.506114	-0.388604
C24	C	0.629302	0.506123	-0.388625
C25	C	0.537988	0.506131	-0.388644
C26	C	1.268469	0.895850	-0.285594
C27	C	1.320081	0.950708	-0.234089
C28	C	1.320128	1.060430	-0.234116
C29	C	1.268559	1.115295	-0.285656
C30	C	1.216947	1.060437	-0.337161
C31	C	1.216904	0.950713	-0.337126
C32	C	1.113770	1.060441	-0.440198
C33	C	1.113718	0.950720	-0.440168
C34	C	1.062201	1.115307	-0.491738
C35	C	1.010584	1.060448	-0.543240
C36	C	1.010538	0.950720	-0.543210
C37	C	1.062105	0.895861	-0.491673
C38	C	1.375591	0.506131	-0.388648
C39	C	1.465212	0.506140	-0.388665
C40	C	1.165334	0.506032	-0.598919
C41	C	1.165356	0.505998	-0.688540
C42	C	1.165352	1.232077	-0.388646
C43	C	1.165382	1.115300	-0.388693
C44	C	1.165394	0.505881	-1.016716
C45	C	1.165381	0.505917	-0.925407
C46	C	1.165375	0.505940	-0.852631
C47	C	1.165362	0.505975	-0.761316
C48	C	1.165276	0.506112	-0.179119
C49	C	1.165410	0.505850	-0.089498
H50	H	1.268425	0.806509	-0.285556
O51	O	1.375705	0.891539	-0.178502
H52	H	1.438986	0.912523	-0.192405
O53	O	1.375806	1.119616	-0.178584
H54	H	1.339764	1.169700	-0.137548
O55	O	0.954963	1.119628	-0.598814
H56	H	0.991052	1.169545	-0.639881
O57	O	1.268610	1.233638	-0.285683
H58	H	1.329432	1.262488	-0.302036
H59	H	1.062068	0.806520	-0.491638
O60	O	1.062241	1.233650	-0.491766
H61	H	1.106785	1.262582	-0.447286
H62	H	0.968512	0.906060	-0.585155
