data_functionalizedCrystal
_audit_creation_method	'MofGen! by Chris Wilmer'
_symmetry_space_group_name_H-M	'P1'
_symmetry_Int_Tables_number	1
_symmetry_cell_setting	triclinic
loop_
_symmetry_equiv_pos_as_xyz
  x,y,z
_cell_length_a	16.625548
_cell_length_b	19.121063
_cell_length_c	16.625539
_cell_angle_alpha	92.410374
_cell_angle_beta	89.982945
_cell_angle_gamma	92.470058
loop_
_atom_site_label
_atom_site_type_symbol
_atom_site_fract_x
_atom_site_fract_y
_atom_site_fract_z
Zn1	Zn	1.218929	-0.279606	-0.469578
Zn2	Zn	1.213076	-0.397060	-0.340487
Zn3	Zn	1.084098	-0.279629	-0.334759
Zn4	Zn	1.078299	-0.397023	-0.475275
O5	O	1.148601	-0.338330	-0.405025
O6	O	1.330985	-0.295192	-0.452466
O7	O	1.195945	-0.381507	-0.226896
O8	O	1.106861	-0.181341	-0.347862
O9	O	1.326685	-0.381485	-0.357624
O10	O	1.205920	-0.181324	-0.446913
O11	O	1.101185	-0.295231	-0.222688
O12	O	0.970497	-0.295196	-0.353386
O13	O	1.096976	-0.381423	-0.587350
O14	O	0.966236	-0.381445	-0.456622
O15	O	1.200297	-0.295157	-0.583165
O16	O	1.190321	-0.495340	-0.363148
O17	O	1.091301	-0.495313	-0.462176
C18	C	0.939110	-0.338320	-0.405002
C19	C	0.849489	-0.338332	-0.405012
C20	C	1.139568	-0.520811	-0.413919
C21	C	1.135778	-0.598877	-0.417751
C22	C	0.521313	-0.338337	-0.405046
C23	C	0.612621	-0.338334	-0.405034
C24	C	0.685398	-0.338335	-0.405028
C25	C	0.776712	-0.338331	-0.405017
C26	C	1.185592	-0.635543	-0.368035
C27	C	1.182032	-0.708894	-0.371644
C28	C	1.128653	-0.745578	-0.424965
C29	C	1.078837	-0.708907	-0.474686
C30	C	1.082402	-0.635557	-0.471081
C31	C	1.115313	-0.967048	-0.438432
C32	C	1.111750	-1.040404	-0.442031
C33	C	1.214946	-1.040386	-0.338990
C34	C	1.218503	-0.967035	-0.335386
C35	C	1.168690	-0.930370	-0.385110
C36	C	1.125011	-0.820555	-0.428653
C37	C	1.172336	-0.855394	-0.381425
C38	C	1.358909	-0.338340	-0.405048
C39	C	1.448530	-0.338345	-0.405058
C40	C	1.148642	-0.338283	-0.615331
C41	C	1.148660	-0.338264	-0.704952
C42	C	1.157690	-0.155136	-0.396113
C43	C	1.161564	-0.077070	-0.392316
C44	C	1.148674	-0.338248	-0.777733
C45	C	1.148694	-0.338222	-0.869041
C46	C	1.148715	-0.338197	-0.941816
C47	C	1.148736	-0.338172	-1.033129
C48	C	1.148608	-0.338325	-0.195534
C49	C	1.148756	-0.338147	-0.105904
H50	H	1.229055	-0.605680	-0.324612
H51	H	1.035379	-0.738781	-0.518105
H52	H	1.074751	-0.937202	-0.478917
H53	H	1.255502	-1.070247	-0.298509
N54	N	1.028677	-0.596006	-0.524705
H55	H	0.994320	-0.630374	-0.559030
H56	H	0.992860	-0.565617	-0.490358
H57	H	1.068292	-1.070270	-0.485466
N58	N	1.229910	-0.815828	-0.323922
H59	H	1.198637	-0.785440	-0.285038
H60	H	1.260916	-0.850226	-0.293025
N61	N	1.235756	-0.748444	-0.318021
H62	H	1.293982	-0.735626	-0.329962
H63	H	1.223814	-0.735708	-0.259796
N64	N	1.276087	-0.927470	-0.277888
H65	H	1.307110	-0.961829	-0.246944
H66	H	1.314856	-0.896995	-0.309259
N67	N	1.067432	-0.860119	-0.486158
H68	H	1.098699	-0.890507	-0.525046
H69	H	1.028624	-0.890559	-0.454788
