data_functionalizedCrystal
_audit_creation_method	'MofGen! by Chris Wilmer'
_symmetry_space_group_name_H-M	'P1'
_symmetry_Int_Tables_number	1
_symmetry_cell_setting	triclinic
loop_
_symmetry_equiv_pos_as_xyz
  x,y,z
_cell_length_a	14.853567
_cell_length_b	19.188930
_cell_length_c	13.330367
_cell_angle_alpha	89.990231
_cell_angle_beta	89.995418
_cell_angle_gamma	83.389856
loop_
_atom_site_label
_atom_site_type_symbol
_atom_site_fract_x
_atom_site_fract_y
_atom_site_fract_z
O1	O	1.195862	0.091155	-0.083366
O2	O	1.695862	0.591155	0.416634
O3	O	0.933342	0.102014	-0.083385
O4	O	1.433342	0.602014	0.416615
O5	O	1.072178	-0.005046	-0.083355
O6	O	1.572178	0.494954	0.416645
O7	O	1.057026	0.198215	-0.083395
O8	O	1.557026	0.698215	0.416605
O9	O	1.072158	-0.005048	0.083492
O10	O	1.572158	0.494952	0.583492
O11	O	0.933322	0.102011	0.083462
O12	O	1.433322	0.602011	0.583462
O13	O	1.195842	0.091153	0.083481
O14	O	1.695842	0.591153	0.583481
Cu15	Cu	1.064580	0.096582	0.098706
Cu16	Cu	1.564580	0.596582	0.598706
Cu17	Cu	1.064604	0.096585	-0.098610
Cu18	Cu	1.564604	0.596585	0.401390
O19	O	1.057006	0.198212	0.083452
O20	O	1.557006	0.698212	0.583452
C21	C	0.899746	0.101521	0.000037
C22	C	1.399746	0.601521	0.500037
C23	C	0.799671	0.100046	0.000031
C24	C	1.299671	0.600046	0.500031
C25	C	1.071677	-0.031060	0.000071
C26	C	1.571677	0.468940	0.500071
C27	C	1.070204	-0.108569	0.000080
C28	C	1.570204	0.391431	0.500080
C29	C	0.387525	0.030218	0.000067
C30	C	0.887525	0.530218	0.500067
C31	C	0.365537	0.157407	0.000041
C32	C	0.865537	0.657407	0.500041
C33	C	0.459563	0.158794	0.000037
C34	C	0.959563	0.658794	0.500037
C35	C	0.517574	0.095891	0.000047
C36	C	1.017574	0.595891	0.500047
C37	C	0.481560	0.031602	0.000060
C38	C	0.981560	0.531602	0.500060
C39	C	0.495585	0.223081	0.000014
C40	C	0.995585	0.723081	0.500014
C41	C	0.589616	0.224470	0.000009
C42	C	1.089616	0.724470	0.500009
C43	C	0.647629	0.161567	0.000026
C44	C	1.147629	0.661567	0.500026
C45	C	0.611610	0.097276	0.000041
C46	C	1.111610	0.597276	0.500041
C47	C	0.669621	0.034373	0.000050
C48	C	1.169621	0.534373	0.500050
C49	C	0.633603	-0.029919	0.000072
C50	C	1.133603	0.470081	0.500072
C51	C	0.539574	-0.031301	0.000077
C52	C	1.039574	0.468699	0.500077
C53	C	0.741659	0.162949	0.000021
C54	C	1.241659	0.662949	0.500021
C55	C	0.763656	0.035757	0.000044
C56	C	1.263656	0.535757	0.500044
C57	C	1.151668	-0.153221	0.000090
C58	C	1.651668	0.346779	0.500090
C59	C	1.150285	-0.226050	0.000074
C60	C	1.650285	0.273950	0.500074
C61	C	1.067432	-0.254223	0.000068
C62	C	1.567432	0.245777	0.500068
C63	C	0.985957	-0.209561	0.000051
C64	C	1.485957	0.290439	0.500051
C65	C	0.987343	-0.136734	0.000057
C66	C	1.487343	0.363266	0.500057
N67	N	1.004094	-0.362440	0.056844
N68	N	1.504094	0.137560	0.556844
N69	N	1.002783	-0.431623	0.056841
N70	N	1.502783	0.068377	0.556841
C71	C	1.063251	-0.473645	0.000047
C72	C	1.563251	0.026355	0.500047
N73	N	1.125093	-0.443873	-0.056730
N74	N	1.625093	0.056127	0.443270
N75	N	1.126407	-0.374684	-0.056722
N76	N	1.626407	0.125316	0.443278
C77	C	1.065920	-0.333190	0.000060
C78	C	1.565920	0.166810	0.500060
C79	C	1.143220	-0.597267	0.000039
C80	C	1.643220	-0.097267	0.500039
C81	C	1.141833	-0.670096	0.000016
C82	C	1.641833	-0.170096	0.500016
C83	C	0.977503	-0.653606	0.000003
C84	C	1.477503	-0.153606	0.500003
C85	C	0.978893	-0.580778	0.000016
C86	C	1.478893	-0.080778	0.500016
C87	C	1.061754	-0.552613	0.000038
C88	C	1.561754	-0.052613	0.500038
C89	C	1.229438	0.091646	0.000057
C90	C	1.729438	0.591646	0.500057
C91	C	1.329513	0.093120	0.000057
C92	C	1.829513	0.593120	0.500057
C93	C	1.057507	0.224226	0.000023
C94	C	1.557507	0.724226	0.500023
C95	C	1.058980	0.301736	0.000008
C96	C	1.558980	0.801736	0.500008
N97	N	1.064570	0.096579	0.237488
N98	N	1.564570	0.596579	0.737488
N99	N	1.064621	0.096582	-0.237391
N100	N	1.564621	0.596582	0.262609
C101	C	1.003125	0.143972	0.710098
C102	C	1.503125	0.643972	1.210098
C103	C	1.126107	0.049192	0.710092
C104	C	1.626107	0.549192	1.210092
C105	C	1.126097	0.049190	0.605073
C106	C	1.626097	0.549190	1.105073
C107	C	1.064601	0.096580	0.552562
C108	C	1.564601	0.596580	1.052562
C109	C	1.003115	0.143973	0.605070
C110	C	1.503115	0.643973	1.105070
C111	C	1.187588	0.001803	0.552558
C112	C	1.687588	0.501803	1.052558
C113	C	1.187581	0.001799	0.447533
C114	C	1.687581	0.501799	0.947533
C115	C	1.126080	0.049187	0.395020
C116	C	1.626080	0.549187	0.895020
C117	C	1.064590	0.096581	0.447534
C118	C	1.564590	0.596581	0.947534
C119	C	1.003094	0.143971	0.395023
C120	C	1.503094	0.643971	0.895023
C121	C	0.941600	0.191363	0.447535
C122	C	1.441600	0.691363	0.947535
C123	C	0.941613	0.191361	0.552557
C124	C	1.441613	0.691361	1.052557
C125	C	1.126066	0.049189	0.289999
C126	C	1.626066	0.549189	0.789999
C127	C	1.003084	0.143972	0.289995
C128	C	1.503084	0.643972	0.789995
H129	H	0.810884	-0.015466	0.000056
H130	H	1.310884	0.484534	0.500056
H131	H	0.770981	0.215294	0.000005
H132	H	1.270981	0.715294	0.500005
C133	C	0.935441	0.196104	0.232236
C134	C	1.435441	0.696104	0.732236
H135	H	0.944238	0.189317	0.162167
H136	H	1.444238	0.689317	0.662167
H137	H	0.945045	0.242715	0.249439
H138	H	1.445045	0.742715	0.749439
H139	H	0.875305	0.188430	0.249457
H140	H	1.375305	0.688430	0.749457
C141	C	1.234362	-0.566282	0.000052
C142	C	1.734362	-0.066282	0.500052
H143	H	1.282682	-0.603309	0.000041
H144	H	1.782682	-0.103309	0.500041
H145	H	1.238312	-0.538226	0.058239
H146	H	1.738312	-0.038226	0.558239
H147	H	1.238323	-0.538205	-0.058134
H148	H	1.738323	-0.038205	0.441866
C149	C	0.873960	0.243490	0.389766
C150	C	1.373960	0.743490	0.889766
H151	H	0.882764	0.236699	0.319699
H152	H	1.382764	0.736699	0.819699
H153	H	0.883559	0.290103	0.406964
H154	H	1.383559	0.790103	0.906964
H155	H	0.813822	0.235816	0.406982
H156	H	1.313822	0.735816	0.906982
C157	C	1.231449	-0.719215	0.000030
C158	C	1.731449	-0.219215	0.500030
H159	H	1.280992	-0.692007	0.000054
H160	H	1.780992	-0.192007	0.500054
H161	H	1.234339	-0.747959	-0.058156
H162	H	1.734339	-0.247959	0.441844
H163	H	1.234308	-0.747975	0.058218
H164	H	1.734308	-0.247975	0.558218
H165	H	0.448345	0.274293	-0.000005
H166	H	0.948345	0.774293	0.499995
C167	C	0.886364	-0.684584	-0.000008
C168	C	1.386364	-0.184584	0.499992
H169	H	0.838044	-0.647556	-0.000017
H170	H	1.338044	-0.147556	0.499983
H171	H	0.882398	-0.712662	0.058170
H172	H	1.382398	-0.212662	0.558170
H173	H	0.882418	-0.712639	-0.058204
H174	H	1.382418	-0.212639	0.441796
C175	C	0.629228	0.295187	-0.000001
C176	C	1.129228	0.795187	0.499999
H177	H	0.581211	0.332450	0.000002
H178	H	1.081211	0.832450	0.500002
H179	H	0.665459	0.298376	-0.058182
H180	H	1.165459	0.798376	0.441818
H181	H	0.665445	0.298367	0.058192
H182	H	1.165445	0.798367	0.558192
C183	C	1.193700	-0.002935	0.232240
C184	C	1.693700	0.497065	0.732240
H185	H	1.230325	-0.031159	0.278555
H186	H	1.730325	0.468841	0.778555
H187	H	1.231118	0.022236	0.191252
H188	H	1.731118	0.522236	0.691252
H189	H	1.161380	-0.032050	0.191290
H190	H	1.661380	0.467950	0.691290
C191	C	0.889281	-0.531658	0.000021
C192	C	1.389281	-0.031658	0.500021
H193	H	0.839737	-0.558865	0.000024
H194	H	1.339737	-0.058865	0.500024
H195	H	0.886410	-0.502894	-0.058157
H196	H	1.386410	-0.002894	0.441843
H197	H	0.886403	-0.502918	0.058216
H198	H	1.386403	-0.002918	0.558216
C199	C	0.873986	0.243491	0.610320
C200	C	1.373986	0.743491	1.110320
H201	H	0.882809	0.236708	0.680388
H202	H	1.382809	0.736708	1.180388
H203	H	0.813847	0.235827	0.593131
H204	H	1.313847	0.735827	1.093131
H205	H	0.883597	0.290104	0.593092
H206	H	1.383597	0.790104	1.093092
H207	H	1.216625	-0.262413	0.000079
H208	H	1.716625	0.237587	0.500079
C209	C	0.935489	0.196100	0.767854
C210	C	1.435489	0.696100	1.267854
H211	H	0.944302	0.189318	0.837923
H212	H	1.444302	0.689318	1.337923
H213	H	0.875354	0.188434	0.750653
H214	H	1.375354	0.688434	1.250653
H215	H	0.945099	0.242715	0.750629
H216	H	1.445099	0.742715	1.250629
H217	H	0.510239	-0.083644	0.000119
H218	H	1.010239	0.416356	0.500119
C219	C	1.242812	-0.122244	0.000097
C220	C	1.742812	0.377756	0.500097
H221	H	1.291131	-0.159272	0.000091
H222	H	1.791131	0.340728	0.500091
H223	H	1.246766	-0.094182	0.058279
H224	H	1.746766	0.405818	0.558279
H225	H	1.246772	-0.094172	-0.058095
H226	H	1.746772	0.405828	0.441905
C227	C	0.897729	-0.087614	0.000055
C228	C	1.397729	0.412386	0.500055
H229	H	0.848184	-0.114821	0.000054
H230	H	1.348184	0.385179	0.500054
H231	H	0.894861	-0.058849	-0.058122
H232	H	1.394861	0.441151	0.441878
H233	H	0.894849	-0.058875	0.058252
H234	H	1.394849	0.441125	0.558252
C235	C	0.347910	-0.040498	0.000086
C236	C	0.847910	0.459502	0.500086
H237	H	0.283601	-0.032317	0.000084
H238	H	0.783601	0.467683	0.500084
H239	H	0.367842	-0.066403	0.058271
H240	H	0.867842	0.433597	0.558271
H241	H	0.367839	-0.066397	-0.058102
H242	H	0.867839	0.433603	0.441898
H243	H	0.918498	-0.232504	0.000044
H244	H	1.418498	0.267496	0.500044
H245	H	1.176180	0.010611	0.752849
H246	H	1.676180	0.510611	1.252849
H247	H	1.237652	-0.036790	0.404785
H248	H	1.737652	0.463210	0.904785
C249	C	0.697421	-0.099108	0.000083
C250	C	1.197421	0.400892	0.500083
H251	H	0.758578	-0.089070	0.000079
H252	H	1.258578	0.410930	0.500079
H253	H	0.686532	-0.125468	-0.058090
H254	H	1.186532	0.374532	0.441910
H255	H	0.686536	-0.125463	0.058284
H256	H	1.186536	0.374537	0.558284
C257	C	0.301728	0.226594	0.000032
C258	C	0.801728	0.726594	0.500032
H259	H	0.240569	0.216562	0.000043
H260	H	0.740569	0.716562	0.500043
H261	H	0.312621	0.252956	-0.058154
H262	H	0.812621	0.752956	0.441846
H263	H	0.312618	0.252946	0.058220
H264	H	0.812618	0.752946	0.558220
H265	H	1.237661	-0.036778	0.595316
H266	H	1.737661	0.463222	1.095316
