data_functionalizedCrystal
_audit_creation_method	'MofGen! by Chris Wilmer'
_symmetry_space_group_name_H-M	'P1'
_symmetry_Int_Tables_number	1
_symmetry_cell_setting	triclinic
loop_
_symmetry_equiv_pos_as_xyz
  x,y,z
_cell_length_a	21.295418
_cell_length_b	29.839131
_cell_length_c	21.295411
_cell_angle_alpha	89.979636
_cell_angle_beta	89.956262
_cell_angle_gamma	90.057233
loop_
_atom_site_label
_atom_site_type_symbol
_atom_site_fract_x
_atom_site_fract_y
_atom_site_fract_z
Zn1	Zn	0.962308	-0.178715	-0.356239
Zn2	Zn	0.962190	-0.253830	-0.250967
Zn3	Zn	0.857031	-0.178736	-0.250949
Zn4	Zn	0.856981	-0.253839	-0.356163
O5	O	0.909628	-0.216280	-0.303580
O6	O	1.050382	-0.188667	-0.342314
O7	O	0.948213	-0.243874	-0.162875
O8	O	0.871067	-0.115866	-0.264940
O9	O	1.050295	-0.243854	-0.264971
O10	O	0.948413	-0.115851	-0.342296
O11	O	0.870953	-0.188703	-0.162862
O12	O	0.768935	-0.188711	-0.264867
O13	O	0.870981	-0.243869	-0.444263
O14	O	0.768898	-0.243889	-0.342167
O15	O	0.948364	-0.188675	-0.444319
O16	O	0.948164	-0.316699	-0.264897
O17	O	0.870866	-0.316705	-0.342185
C18	C	0.746076	-0.216304	-0.303507
C19	C	0.676108	-0.216325	-0.303491
C20	C	0.643238	-0.245094	-0.343681
C21	C	0.577496	-0.245083	-0.343710
C22	C	0.544625	-0.216307	-0.303536
C23	C	0.577503	-0.187532	-0.263343
C24	C	0.643244	-0.187541	-0.263321
N25	N	0.441350	-0.212791	-0.248479
N26	N	0.378899	-0.212785	-0.248502
C27	C	0.346551	-0.216279	-0.303603
N28	N	0.379013	-0.219787	-0.358681
N29	N	0.441470	-0.219795	-0.358657
C30	C	0.473340	-0.216294	-0.303557
C31	C	0.242396	-0.245037	-0.343827
C32	C	0.176652	-0.245023	-0.343857
C33	C	0.176660	-0.187475	-0.263485
C34	C	0.242403	-0.187487	-0.263461
C35	C	0.275266	-0.216271	-0.303632
C36	C	0.909514	-0.333003	-0.303548
C37	C	0.909523	-0.382937	-0.303556
C38	C	0.949949	-0.692564	-0.263395
C39	C	0.950027	-0.880238	-0.263419
O40	O	0.984309	-0.904489	-0.229249
N41	N	0.909758	-0.903722	-0.303627
C42	C	0.869470	-0.880286	-0.343835
O43	O	0.835225	-0.904567	-0.378039
C44	C	0.869396	-0.692614	-0.343813
C45	C	0.909663	-0.669131	-0.303598
C46	C	0.990214	-0.669082	-0.223184
C47	C	0.990192	-0.622167	-0.223176
C48	C	0.949905	-0.598734	-0.263379
C49	C	0.909641	-0.622216	-0.303590
C50	C	0.829111	-0.669178	-0.384023
C51	C	0.829097	-0.622257	-0.384015
C52	C	0.869364	-0.598775	-0.343800
C53	C	0.869332	-0.551867	-0.343785
N54	N	0.909601	-0.528383	-0.303577
C55	C	0.949887	-0.551816	-0.263374
C56	C	0.869511	-0.978816	-0.343842
C57	C	0.869528	-1.025734	-0.343847
C58	C	0.950087	-1.025683	-0.263432
C59	C	0.950065	-0.978764	-0.263425
C60	C	0.909780	-0.955332	-0.303634
C61	C	0.949837	-0.453290	-0.263359
C62	C	0.949810	-0.406370	-0.263353
C63	C	0.869254	-0.406426	-0.343770
C64	C	0.869279	-0.453341	-0.343774
C65	C	0.909576	-0.476772	-0.303567
O66	O	0.835073	-0.527587	-0.377942
O67	O	0.984137	-0.527526	-0.229185
C68	C	0.949972	-0.739480	-0.263403
C69	C	0.909707	-0.762962	-0.303614
C70	C	0.869421	-0.739529	-0.343817
C71	C	0.909725	-0.809880	-0.303619
C72	C	0.950012	-0.833313	-0.263416
C73	C	0.990281	-0.809829	-0.223208
C74	C	0.990258	-0.762913	-0.223200
C75	C	0.829152	-0.763014	-0.384025
C76	C	0.829177	-0.809929	-0.384029
C77	C	0.869463	-0.833362	-0.343826
C78	C	1.073818	-0.216257	-0.303653
C79	C	1.143786	-0.216247	-0.303684
C80	C	0.909680	-0.216271	-0.467770
C81	C	0.909702	-0.216267	-0.537738
C82	C	0.909759	-0.099102	-0.303625
C83	C	0.909815	-0.049167	-0.303644
C84	C	0.949994	-0.187526	-0.570635
C85	C	0.949993	-0.187507	-0.636377
C86	C	0.909707	-0.216236	-0.669221
C87	C	0.869407	-0.244978	-0.636316
C88	C	0.869405	-0.244994	-0.570575
N89	N	0.904840	-0.255537	-0.772436
N90	N	0.904846	-0.255521	-0.834887
C91	C	0.909711	-0.216190	-0.867295
N92	N	0.914582	-0.176875	-0.834893
N93	N	0.914580	-0.176891	-0.772436
C94	C	0.909705	-0.216222	-0.740506
C95	C	0.950004	-0.187426	-0.971478
C96	C	0.949999	-0.187406	-1.037221
C97	C	0.869416	-0.244882	-1.037159
C98	C	0.869418	-0.244898	-0.971417
C99	C	0.909716	-0.216171	-0.938580
C100	C	0.909612	-0.216257	-0.140028
C101	C	0.909712	-0.216135	-0.070060
H102	H	0.269155	-0.268472	-0.376540
H103	H	0.836704	-0.959741	-0.376586
H104	H	0.836612	-0.268304	-0.944632
N105	N	0.993459	-0.156508	-0.671864
H106	H	1.022606	-0.174759	-0.699159
H107	H	0.967861	-0.135690	-0.699088
H108	H	0.796318	-0.688289	-0.416767
H109	H	0.669992	-0.268531	-0.376392
H110	H	0.982807	-0.164134	-0.543903
N111	N	0.825945	-0.275958	-0.671735
H112	H	0.832059	-0.271586	-0.718374
H113	H	0.835696	-0.308047	-0.660253
H114	H	0.550728	-0.268510	-0.376440
N115	N	0.993463	-0.156407	-1.072704
H116	H	0.987350	-0.160754	-1.119334
H117	H	0.983708	-0.124326	-1.061205
H118	H	0.670006	-0.164112	-0.230593
H119	H	0.836591	-0.268397	-0.543791
N120	N	1.033737	-0.835109	-0.179851
H121	H	1.059248	-0.813117	-0.154374
H122	H	1.008136	-0.854611	-0.150692
N123	N	0.826090	-1.051054	-0.387219
H124	H	0.851663	-1.070488	-0.416428
H125	H	0.796943	-1.070529	-0.361562
N126	N	0.785640	-0.596982	-0.427378
H127	H	0.811198	-0.577481	-0.456579
H128	H	0.760144	-0.619007	-0.452809
N129	N	1.033633	-0.596844	-0.179809
H130	H	1.062783	-0.577345	-0.205429
H131	H	1.008021	-0.577435	-0.150606
N132	N	0.993463	-0.156443	-0.936055
H133	H	1.018985	-0.138229	-0.966874
H134	H	0.967862	-0.135664	-0.908758
H135	H	0.836608	-0.268269	-1.063899
N136	N	0.993294	-0.478561	-0.219993
H137	H	1.038262	-0.470349	-0.229822
H138	H	0.983477	-0.470408	-0.175022
H139	H	0.149891	-0.268450	-0.376588
N140	N	0.141217	-0.156434	-0.220159
H141	H	0.094582	-0.160793	-0.226272
H142	H	0.152645	-0.163380	-0.175178
N143	N	0.277860	-0.156454	-0.220117
H144	H	0.247063	-0.138221	-0.194673
H145	H	0.305077	-0.174710	-0.190927
N146	N	0.825843	-0.478672	-0.387140
H147	H	0.800316	-0.456706	-0.412605
H148	H	0.851462	-0.498102	-0.416309
H149	H	0.796381	-0.829044	-0.416777
H150	H	1.023023	-0.688157	-0.190445
H151	H	1.023048	-0.743797	-0.190453
H152	H	0.550736	-0.164102	-0.230635
H153	H	0.982600	-0.387253	-0.230603
N154	N	0.993499	-0.953436	-0.220057
H155	H	0.983748	-0.961625	-0.175069
H156	H	1.038455	-0.961571	-0.229947
N157	N	0.993538	-1.050961	-0.220068
H158	H	0.987435	-1.084246	-0.226177
H159	H	1.038488	-1.042719	-0.229925
H160	H	0.836451	-0.387339	-0.376501
N161	N	0.785696	-0.737743	-0.427387
H162	H	0.760191	-0.759744	-0.452856
H163	H	0.756567	-0.718315	-0.401721
