data_functionalizedCrystal
_audit_creation_method	'MofGen! by Chris Wilmer'
_symmetry_space_group_name_H-M	'P1'
_symmetry_Int_Tables_number	1
_symmetry_cell_setting	triclinic
loop_
_symmetry_equiv_pos_as_xyz
  x,y,z
_cell_length_a	11.026607
_cell_length_b	10.654550
_cell_length_c	9.482900
_cell_angle_alpha	99.426343
_cell_angle_beta	78.636152
_cell_angle_gamma	96.535460
loop_
_atom_site_label
_atom_site_type_symbol
_atom_site_fract_x
_atom_site_fract_y
_atom_site_fract_z
O1	O	1.633381	0.511463	-0.120893
O2	O	1.279571	0.451467	-0.120895
O3	O	1.464610	0.300492	-0.120889
O4	O	1.448342	0.662438	-0.120899
O5	O	1.427025	0.331316	0.120903
O6	O	1.241986	0.482291	0.120896
O7	O	1.595797	0.542287	0.120898
Cu8	Cu	1.415460	0.515103	0.142975
Cu9	Cu	1.459908	0.478650	-0.142971
O10	O	1.410758	0.693262	0.120892
C11	C	1.215474	0.455811	0.000000
C12	C	1.080483	0.422816	-0.000001
C13	C	1.007444	0.513919	-0.000004
C14	C	0.867923	0.479820	-0.000005
C15	C	1.444623	0.268847	0.000005
C16	C	1.441050	0.128627	0.000000
C17	C	1.549998	0.072791	0.000005
C18	C	1.546634	-0.058961	-0.000005
C19	C	1.325364	-0.079031	-0.000019
C20	C	1.328730	0.052718	-0.000019
C21	C	1.662318	0.148701	0.000025
C22	C	1.771274	0.092866	0.000031
C23	C	1.767910	-0.038887	0.000021
C24	C	1.655590	-0.114805	0.000004
C25	C	1.659894	0.537943	-0.000000
C26	C	1.794887	0.570936	-0.000009
C27	C	1.430745	0.724907	-0.000005
C28	C	1.434319	0.865125	-0.000010
N29	N	1.384206	0.540743	0.344094
N30	N	1.491171	0.453003	-0.344091
C31	C	1.450681	0.486205	0.416295
C32	C	1.424686	0.507549	0.583712
H33	H	1.665069	0.255982	0.000038
H34	H	1.526832	0.423704	0.354170
C35	C	1.894816	0.176368	0.000049
H36	H	1.881217	0.262833	0.000068
H37	H	1.952835	0.148160	-0.084266
H38	H	1.926606	0.169641	0.084380
H39	H	0.835639	0.674185	-0.000002
C40	C	1.651886	-0.259732	-0.000016
H41	H	1.569391	-0.296945	-0.000031
H42	H	1.678879	-0.275092	0.084298
H43	H	1.705091	-0.296570	-0.084349
C44	C	1.201821	-0.162535	-0.000020
H45	H	1.215418	-0.248995	-0.000005
H46	H	1.170016	-0.155818	-0.084336
H47	H	1.143811	-0.134315	0.084310
H48	H	1.856630	-0.084345	0.000012
C49	C	1.025437	0.283343	0.000004
H50	H	1.089351	0.230608	0.000016
H51	H	0.989609	0.255933	-0.084311
H52	H	0.963402	0.277437	0.084335
C53	C	1.208891	0.114142	-0.000023
H54	H	1.141512	0.050069	-0.000014
H55	H	1.218717	0.154374	-0.084341
H56	H	1.192497	0.175869	0.084305
C57	C	1.321802	0.591982	0.667623
H58	H	1.317834	0.595259	0.769137
H59	H	1.244326	0.557004	0.642769
H60	H	1.339794	0.675786	0.642745
H61	H	1.308046	0.603233	0.406221
C62	C	1.594086	0.368608	0.572002
H63	H	1.598077	0.365354	0.470487
H64	H	1.576141	0.284803	0.596864
H65	H	1.671551	0.403634	0.596874
H66	H	1.048204	0.617161	0.000001
H67	H	0.827174	0.376567	-0.000039
