data_functionalizedCrystal
_audit_creation_method	'MofGen! by Chris Wilmer'
_symmetry_space_group_name_H-M	'P1'
_symmetry_Int_Tables_number	1
_symmetry_cell_setting	triclinic
loop_
_symmetry_equiv_pos_as_xyz
  x,y,z
_cell_length_a	14.971491
_cell_length_b	16.974813
_cell_length_c	13.448316
_cell_angle_alpha	86.338833
_cell_angle_beta	89.991393
_cell_angle_gamma	83.505397
loop_
_atom_site_label
_atom_site_type_symbol
_atom_site_fract_x
_atom_site_fract_y
_atom_site_fract_z
O1	O	1.186694	0.103063	-0.091026
O2	O	0.926264	0.115398	-0.092011
O3	O	1.063738	-0.005866	-0.082252
O4	O	1.049219	0.224327	-0.100785
O5	O	1.063721	-0.005874	0.083132
O6	O	0.926247	0.115390	0.073373
O7	O	1.186676	0.103055	0.074358
Cu8	Cu	1.056460	0.109222	0.088966
Cu9	Cu	1.056480	0.109231	-0.106620
O10	O	1.049202	0.224320	0.064599
C11	C	0.892932	0.114842	-0.009274
C12	C	0.793639	0.113186	-0.009138
C13	C	0.365960	0.106048	-0.098737
C14	C	0.459257	0.107601	-0.098858
C15	C	0.505891	0.108378	-0.008766
C16	C	0.459226	0.107595	0.081453
C17	C	0.365932	0.106036	0.081574
C18	C	0.653680	0.110845	0.081195
C19	C	0.746980	0.112405	0.081075
C20	C	0.747005	0.112410	-0.099237
C21	C	0.653711	0.110851	-0.099116
C22	C	0.607051	0.110069	-0.008896
C23	C	1.063177	-0.035329	0.002809
C24	C	1.061520	-0.123108	0.009870
C25	C	1.060753	-0.164338	-0.076963
C26	C	1.059191	-0.246815	-0.070325
C27	C	1.058402	-0.288060	0.023147
C28	C	1.059166	-0.246824	0.109986
C29	C	1.060722	-0.164348	0.103348
C30	C	1.053740	-0.534727	0.052668
C31	C	1.052187	-0.617209	0.059300
C32	C	1.052210	-0.617193	-0.121012
C33	C	1.053772	-0.534716	-0.127642
C34	C	1.054531	-0.493487	-0.040803
N35	N	1.056807	-0.372365	0.029934
N36	N	1.056119	-0.409183	-0.047590
C37	C	1.220008	0.103611	-0.008382
C38	C	1.319301	0.105267	-0.008524
C39	C	1.049763	0.253782	-0.020465
C40	C	1.051420	0.341561	-0.027533
N41	N	1.056452	0.109215	0.226531
N42	N	1.056495	0.109231	-0.244184
C43	C	1.117345	0.055542	0.282891
C44	C	1.117350	0.055541	0.386994
C45	C	1.056467	0.109219	0.434736
C46	C	0.995568	0.162895	0.378368
C47	C	0.995559	0.162891	0.274267
C48	C	0.995593	0.162900	0.595348
C49	C	0.995603	0.162905	0.699456
C50	C	1.117384	0.055550	0.708075
C51	C	1.117375	0.055546	0.603974
C52	C	1.056477	0.109224	0.547614
H53	H	0.497244	0.108232	-0.172317
F54	F	1.182158	-0.001585	0.446977
H55	H	1.166955	0.011842	0.565103
F56	F	0.508861	0.108420	0.177336
H57	H	1.058518	-0.280413	0.186093
F58	F	0.604080	0.110030	-0.195002
H59	H	1.061334	-0.130779	0.174056
H60	H	0.327942	0.105408	0.155033
F61	F	1.058375	-0.290691	-0.162745
H62	H	1.061401	-0.130762	-0.153077
H63	H	1.166969	0.011844	0.753970
F64	F	0.930801	0.220035	0.750258
H65	H	1.166927	0.011835	0.244027
F66	F	1.054613	-0.490826	-0.227127
H67	H	0.946000	0.206608	0.549462
F68	F	0.930766	0.220020	0.429179
F69	F	0.930746	0.220016	0.214286
F70	F	0.796611	0.113228	0.176960
F71	F	1.051401	-0.661078	-0.213426
H72	H	0.327997	0.105420	-0.172100
H73	H	0.784999	0.113048	-0.172697
H74	H	0.615691	0.110218	0.154661
F75	F	1.051351	-0.661105	0.158791
F76	F	1.054537	-0.490857	0.145092
