data_functionalizedCrystal
_audit_creation_method	'MofGen! by Chris Wilmer'
_symmetry_space_group_name_H-M	'P1'
_symmetry_Int_Tables_number	1
_symmetry_cell_setting	triclinic
loop_
_symmetry_equiv_pos_as_xyz
  x,y,z
_cell_length_a	6.817900
_cell_length_b	17.458045
_cell_length_c	27.923559
_cell_angle_alpha	96.286764
_cell_angle_beta	98.965071
_cell_angle_gamma	106.367962
loop_
_atom_site_label
_atom_site_type_symbol
_atom_site_fract_x
_atom_site_fract_y
_atom_site_fract_z
V1	V	-3.991725	-0.111705	-0.151704
O2	O	-3.964662	0.004198	-0.148372
O3	O	-3.958143	-0.220367	-0.151093
O4	O	-3.921356	-0.110500	-0.217672
O5	O	-4.001704	-0.106430	-0.081332
V6	V	-4.476280	-0.097781	-0.143235
O7	O	-4.250721	-0.142248	-0.170281
O8	O	-4.667482	-0.067238	-0.124658
O9	O	-4.286657	0.010881	-0.143846
O10	O	-4.620740	-0.213684	-0.146566
O11	O	-4.583699	-0.103056	-0.213607
O12	O	-4.323443	-0.098986	-0.077266
C13	C	-3.807459	-0.246841	-0.148810
C14	C	-3.861141	-0.335677	-0.148750
C15	C	-3.760533	-0.106693	-0.233738
C16	C	-3.784379	-0.106427	-0.287670
C17	C	-3.704507	-0.373326	-0.146285
C18	C	-3.754955	-0.456796	-0.146223
C19	C	-3.962042	-0.502616	-0.148630
C20	C	-4.118686	-0.464961	-0.151094
C21	C	-4.068234	-0.381492	-0.151152
C22	C	-4.132431	-0.752690	-0.148713
C23	C	-4.182873	-0.836165	-0.148656
C24	C	-3.819137	-0.827994	-0.143784
C25	C	-3.768703	-0.744524	-0.143845
C26	C	-3.925349	-0.706876	-0.146307
N27	N	-4.013613	-0.587936	-0.148568
N28	N	-3.873774	-0.621557	-0.146365
C29	C	-3.980237	-0.178107	-0.629336
C30	C	-4.069977	-0.177154	-0.832041
O31	O	-4.122253	-0.239316	-0.864389
N32	N	-4.033467	-0.103798	-0.850171
C33	C	-3.974529	-0.030675	-0.817621
O34	O	-3.945555	0.031741	-0.837694
C35	C	-3.884804	-0.031629	-0.614918
C36	C	-3.921299	-0.104990	-0.596790
C37	C	-4.016729	-0.251462	-0.611208
C38	C	-3.994284	-0.251700	-0.560534
C39	C	-3.935346	-0.178582	-0.527989
C40	C	-3.898854	-0.105227	-0.546117
C41	C	-3.825882	0.041493	-0.582369
C42	C	-3.803459	0.041247	-0.531691
C43	C	-3.839954	-0.032113	-0.513563
C44	C	-3.817470	-0.032347	-0.462898
N45	N	-3.853981	-0.105703	-0.444768
C46	C	-3.912919	-0.178821	-0.477313
C47	C	-4.021636	-0.030179	-0.924044
C48	C	-4.044063	-0.029940	-0.974720
C49	C	-4.139513	-0.176420	-0.989136
C50	C	-4.117071	-0.176658	-0.938459
C51	C	-4.058146	-0.103535	-0.905914
C52	C	-3.865777	-0.179314	-0.370895
C53	C	-3.843317	-0.179544	-0.320216
C54	C	-3.747880	-0.033065	-0.305805
C55	C	-3.770327	-0.032834	-0.356479
C56	C	-3.829286	-0.105965	-0.389023
O57	O	-3.765225	0.029781	-0.430522
O58	O	-3.941928	-0.241228	-0.457232
C59	C	-4.002682	-0.177870	-0.680009
C60	C	-3.966189	-0.104515	-0.698137
C61	C	-3.907251	-0.031398	-0.665592
C62	C	-3.988617	-0.104277	-0.748813
C63	C	-4.047554	-0.177394	-0.781358
C64	C	-4.084065	-0.250750	-0.763228
C65	C	-4.061620	-0.250988	-0.712555
C66	C	-3.870741	0.041958	-0.683722
C67	C	-3.893187	0.042190	-0.734396
C68	C	-3.952125	-0.030928	-0.766941
C69	C	-4.100683	0.037351	-0.146128
C70	C	-4.026238	0.126186	-0.146190
C71	C	-4.147610	-0.102795	-0.061198
C72	C	-4.103001	-0.103058	-0.007265
H73	H	-3.535881	-0.336026	-0.144329
Cl74	Cl	-4.158165	-0.342669	-0.804152
Cl75	Cl	-4.265156	-0.334161	-0.154252
Cl76	Cl	-4.443229	-0.893767	-0.151685
H77	H	-3.873033	-0.239286	-0.305460
Cl78	Cl	-3.939890	-0.271251	-0.411800
H79	H	-4.259991	-0.722048	-0.150722
Cl80	Cl	-3.508359	-0.686928	-0.140819
Cl81	Cl	-4.379021	-0.522562	-0.154114
H82	H	-3.822753	0.101501	-0.657227
Cl83	Cl	-3.558024	-0.504120	-0.143113
Cl84	Cl	-4.090827	-0.343394	-0.652114
Cl85	Cl	-3.947472	0.061758	-0.883136
Cl86	Cl	-4.040205	-0.343931	-0.537754
H87	H	-4.146789	-0.236394	-0.923704
Cl88	Cl	-4.213575	-0.268338	-1.030059
H89	H	-3.691610	-0.858656	-0.141779
Cl90	Cl	-3.998137	0.062290	-0.997501
Cl91	Cl	-3.779993	0.133724	-0.605145
Cl92	Cl	-3.729412	0.133178	-0.490780
H93	H	-3.740621	0.026902	-0.371239
H94	H	-3.699884	0.026465	-0.279297
Cl95	Cl	-4.107515	-0.343218	-0.689774
H96	H	-3.863450	0.101934	-0.749149
