data_functionalizedCrystal
_audit_creation_method	'MofGen! by Chris Wilmer'
_symmetry_space_group_name_H-M	'P1'
_symmetry_Int_Tables_number	1
_symmetry_cell_setting	triclinic
loop_
_symmetry_equiv_pos_as_xyz
  x,y,z
_cell_length_a	16.992694
_cell_length_b	27.732048
_cell_length_c	16.053802
_cell_angle_alpha	92.539157
_cell_angle_beta	87.249047
_cell_angle_gamma	86.655439
loop_
_atom_site_label
_atom_site_type_symbol
_atom_site_fract_x
_atom_site_fract_y
_atom_site_fract_z
O1	O	1.042477	0.100541	-0.069340
O2	O	0.814206	0.099416	-0.069364
O3	O	0.935430	0.029889	-0.069335
O4	O	0.921253	0.170068	-0.069368
O5	O	0.928758	0.033699	0.069522
O6	O	0.807534	0.103227	0.069493
O7	O	1.035804	0.104351	0.069518
Zn8	Zn	0.920610	0.104394	0.091552
Zn9	Zn	0.929401	0.099374	-0.091398
O10	O	0.914580	0.173879	0.069489
C11	C	0.781675	0.099876	0.000062
C12	C	0.694684	0.095561	0.000053
C13	C	0.643939	0.137184	0.000044
C14	C	0.562201	0.133129	0.000056
C15	C	0.531209	0.087449	0.000072
C16	C	0.581960	0.045823	0.000084
C17	C	0.663696	0.049880	0.000077
C18	C	0.287814	0.070636	0.000098
C19	C	0.206072	0.066583	0.000103
C20	C	0.186318	0.153889	0.000077
C21	C	0.268057	0.157941	0.000065
C22	C	0.318800	0.116315	0.000081
N23	N	0.447660	0.083302	0.000082
N24	N	0.402348	0.120463	0.000077
C25	C	0.931796	0.013774	0.000096
C26	C	0.930900	-0.039919	0.000103
C27	C	0.996895	-0.375882	0.000067
C28	C	0.993571	-0.577686	0.000055
O29	O	1.053919	-0.606333	0.000025
N30	N	0.921689	-0.599917	0.000048
C31	C	0.850634	-0.571695	0.000038
O32	O	0.789419	-0.595235	0.000024
C33	C	0.853960	-0.369893	0.000045
C34	C	0.925846	-0.347663	0.000060
C35	C	1.068775	-0.353652	0.000081
C36	C	1.069606	-0.303204	0.000089
C37	C	0.998556	-0.274986	0.000082
C38	C	0.926676	-0.297215	0.000067
C39	C	0.782906	-0.341671	0.000029
C40	C	0.783744	-0.291218	0.000029
C41	C	0.855630	-0.268989	0.000044
C42	C	0.856457	-0.218549	0.000068
N43	N	0.928338	-0.196317	0.000075
C44	C	0.999388	-0.224535	0.000082
C45	C	0.848893	-0.677645	0.000037
C46	C	0.848061	-0.728095	0.000037
C47	C	0.990998	-0.734082	0.000052
C48	C	0.991829	-0.683631	0.000058
C49	C	0.920775	-0.655413	0.000044
C50	C	1.001126	-0.118591	0.000098
C51	C	1.001949	-0.068138	0.000109
C52	C	0.859013	-0.062155	0.000090
C53	C	0.858189	-0.112603	0.000084
C54	C	0.929252	-0.140820	0.000085
O55	O	0.796141	-0.189872	0.000089
O56	O	1.060595	-0.200987	0.000078
C57	C	0.996065	-0.426330	0.000059
C58	C	0.924185	-0.448559	0.000045
C59	C	0.853136	-0.420341	0.000038
C60	C	0.923354	-0.499010	0.000045
C61	C	0.994403	-0.527228	0.000052
C62	C	1.066285	-0.504997	0.000059
C63	C	1.067115	-0.454549	0.000066
C64	C	0.781254	-0.442573	0.000031
C65	C	0.780430	-0.493021	0.000024
C66	C	0.851480	-0.521240	0.000031
C67	C	1.068336	0.103892	0.000090
C68	C	1.155327	0.108206	0.000093
C69	C	0.918214	0.189993	0.000056
C70	C	0.919111	0.243686	0.000044
N71	N	0.914616	0.107820	0.216411
N72	N	0.935401	0.095944	-0.216257
C73	C	0.966215	0.078248	0.260117
C74	C	0.962030	0.080649	0.347523
C75	C	0.906248	0.112625	0.391221
C76	C	0.854643	0.142199	0.347509
C77	C	0.858825	0.139794	0.260104
C78	C	0.887978	0.123113	0.652626
C79	C	0.883801	0.125516	0.740037
C80	C	0.991188	0.063966	0.740045
C81	C	0.995369	0.061567	0.652639
C82	C	0.943761	0.091138	0.608934
N83	N	0.901970	0.115082	0.480564
N84	N	0.948036	0.088679	0.519593
H85	H	0.520888	0.167023	0.000048
O86	O	0.337127	0.030222	0.000251
C87	C	0.381568	0.031932	0.072153
H88	H	0.348924	0.056858	0.122417
H89	H	0.390077	-0.005969	0.096296
H90	H	0.441639	0.046288	0.055887
H91	H	0.725882	-0.268245	0.000016
H92	H	0.293284	0.195138	0.000043
O93	O	1.135360	-0.532365	-0.000048
C94	C	1.182486	-0.523837	-0.071971
H95	H	1.163929	-0.487008	-0.095941
H96	H	1.247119	-0.524416	-0.055794
H97	H	1.174520	-0.553190	-0.122333
O98	O	1.049330	0.030456	0.609970
C99	C	1.099818	0.056640	0.559110
H100	H	1.099925	0.095495	0.585431
H101	H	1.162258	0.039095	0.557764
H102	H	1.078098	0.056503	0.493010
O103	O	1.041230	0.035258	0.782630
C104	C	1.025593	0.044243	0.869145
H105	H	0.962496	0.060201	0.881086
H106	H	1.033168	0.008908	0.902376
H107	H	1.068471	0.070885	0.893932
O108	O	0.551728	0.001486	0.000064
C109	C	0.468703	0.006830	0.000086
H110	H	0.450309	0.043069	-0.026213
H111	H	0.445881	-0.023697	-0.040218
H112	H	0.442784	0.005439	0.066705
O113	O	0.136913	0.194274	0.000105
C114	C	0.058125	0.180901	0.000093
H115	H	0.054191	0.143553	0.026390
H116	H	0.018823	0.208344	0.040404
H117	H	0.037652	0.179992	-0.066523
O118	O	1.139408	-0.281587	0.000240
C119	C	1.140717	-0.250607	0.072143
H120	H	1.097498	-0.262731	0.122409
H121	H	1.202779	-0.252028	0.096282
H122	H	1.122935	-0.212011	0.055882
H123	H	0.180842	0.029383	0.000114
H124	H	1.011642	0.052211	0.224544
O125	O	0.829679	0.156567	0.782616
C126	C	0.837048	0.152339	0.869132
H127	H	0.899006	0.137042	0.881062
H128	H	0.826293	0.189501	0.902337
H129	H	0.791803	0.127059	0.893957
O130	O	1.060074	-0.761450	-0.000058
C131	C	1.107194	-0.752922	-0.071986
H132	H	1.088633	-0.716094	-0.095957
H133	H	1.171828	-0.753499	-0.055815
H134	H	1.099225	-0.782276	-0.122346
H135	H	1.004046	0.056569	0.383108
H136	H	0.799653	-0.130703	0.000094
O137	O	0.790073	-0.034668	0.000046
C138	C	0.806228	0.014627	0.000072
H139	H	0.869029	0.018219	-0.026202
H140	H	0.762848	0.034614	-0.040252
H141	H	0.799872	0.030908	0.066689
H142	H	1.125652	-0.436454	0.000078
H143	H	0.705012	0.015986	0.000084
O144	O	1.070211	-0.145948	-0.000008
C145	C	1.117340	-0.137412	-0.071924
H146	H	1.098766	-0.100587	-0.095901
H147	H	1.181969	-0.137976	-0.055737
H148	H	1.109397	-0.166769	-0.122286
O149	O	1.137869	-0.380987	0.000128
C150	C	1.201481	-0.350538	0.000118
H151	H	1.179843	-0.312980	0.026399
H152	H	1.249288	-0.366098	0.040444
H153	H	1.226749	-0.347916	-0.066494
H154	H	0.789524	-0.746189	0.000039
H155	H	1.060490	-0.050041	0.000124
H156	H	1.050364	-0.665535	0.000070
O157	O	0.779792	-0.650308	0.000068
C158	C	0.716179	-0.680755	0.000044
H159	H	0.735288	-0.716875	0.026331
H160	H	0.664498	-0.662987	0.040357
H161	H	0.697314	-0.687024	-0.066574
H162	H	0.845959	0.147193	0.617049
H163	H	0.724370	-0.359762	0.000012
H164	H	0.721887	-0.511115	0.000019
O165	O	0.712159	-0.415236	0.000066
C166	C	0.648546	-0.445683	0.000037
H167	H	0.667654	-0.481805	0.026318
H168	H	0.596865	-0.427916	0.040354
H169	H	0.629680	-0.451947	-0.066581
H170	H	0.809220	0.168233	0.383093
O171	O	0.808629	0.168452	0.217608
C172	C	0.763029	0.139301	0.167054
H173	H	0.760911	0.101872	0.193412
H174	H	0.700545	0.156557	0.166062
H175	H	0.790756	0.135903	0.100810
H176	H	0.669166	0.174382	0.000031
