data_functionalizedCrystal
_audit_creation_method	'MofGen! by Chris Wilmer'
_symmetry_space_group_name_H-M	'P1'
_symmetry_Int_Tables_number	1
_symmetry_cell_setting	triclinic
loop_
_symmetry_equiv_pos_as_xyz
  x,y,z
_cell_length_a	15.995350
_cell_length_b	14.971486
_cell_length_c	14.048226
_cell_angle_alpha	90.001501
_cell_angle_beta	89.995798
_cell_angle_gamma	96.446748
loop_
_atom_site_label
_atom_site_type_symbol
_atom_site_fract_x
_atom_site_fract_y
_atom_site_fract_z
O1	O	0.109116	-1.186822	-0.079046
O2	O	0.122183	-0.926407	-0.079072
O3	O	-0.006231	-1.063733	-0.079057
O4	O	0.237530	-1.049496	-0.079061
O5	O	-0.006238	-1.063717	0.079264
O6	O	0.122176	-0.926391	0.079250
O7	O	0.109109	-1.186806	0.079275
Zn8	Zn	0.115641	-1.056596	0.104399
Zn9	Zn	0.115651	-1.056617	-0.104196
O10	O	0.237523	-1.049480	0.079261
C11	C	-0.037430	-1.063137	0.000101
C12	C	-0.130382	-1.061372	0.000096
C13	C	0.121595	-0.893075	0.000086
C14	C	0.119844	-0.793780	0.000076
C15	C	0.109697	-1.220138	0.000116
C16	C	0.111448	-1.319433	0.000119
C17	C	-0.468136	-1.055035	0.000098
C18	C	-0.420800	-0.957234	-0.000266
C19	C	-0.324108	-0.958999	0.000091
C20	C	-0.300572	-1.058178	0.000097
C21	C	-0.341606	-1.106408	0.090509
C22	C	-0.438244	-1.103951	0.090584
C23	C	-0.438591	-1.105990	-0.089456
C24	C	-0.341646	-1.105967	-0.090651
C25	C	-0.205873	-1.059960	0.000099
C26	C	-0.562835	-1.053256	0.000103
C27	C	0.268722	-1.050077	0.000100
C28	C	0.361674	-1.051841	0.000099
N29	N	0.115634	-1.056587	0.246760
C30	C	0.195284	-0.736468	0.000076
C31	C	0.193633	-0.643171	0.000090
C32	C	0.116542	-0.607187	0.000098
C33	C	0.041097	-0.664505	0.000100
C34	C	0.042748	-0.757801	0.000093
C35	C	0.037660	-0.470047	0.000113
C36	C	0.036008	-0.376745	0.000119
C37	C	0.188545	-0.355417	0.000111
C38	C	0.190197	-0.448712	0.000104
C39	C	0.114751	-0.506025	0.000104
N40	N	0.115652	-1.056633	-0.246557
C41	C	0.058795	-1.117414	0.296584
C42	C	0.058795	-1.117421	0.396242
C43	C	0.115637	-1.056603	0.446073
C44	C	0.172478	-0.995769	0.396242
C45	C	0.172474	-0.995760	0.296586
C46	C	0.172484	-0.995795	0.603956
C47	C	0.172490	-0.995806	0.703619
C48	C	0.058805	-1.117456	0.703612
C49	C	0.058801	-1.117446	0.603956
C50	C	0.115643	-1.056614	0.554132
H51	H	-0.295721	-0.921086	-0.064720
N52	N	-0.002508	-1.183044	0.550213
H53	H	-0.039634	-1.148862	0.508875
H54	H	0.029611	-1.222622	0.508911
H55	H	-0.026766	-0.347450	0.000126
N56	N	-0.002509	-1.183016	0.242841
H57	H	-0.038516	-1.221549	0.289530
H58	H	-0.039581	-1.148775	0.201502
N59	N	-0.445399	-0.905454	-0.086142
H60	H	-0.414322	-0.842892	-0.084997
H61	H	-0.430359	-0.937390	-0.146027
H62	H	-0.296284	-0.920818	0.065005
N63	N	-0.446801	-0.905668	0.085126
H64	H	-0.489110	-0.945384	0.124046
H65	H	-0.395713	-0.886160	0.125424
N66	N	-0.462546	-1.057349	0.180098
H67	H	-0.410506	-1.038591	0.219137
H68	H	-0.490553	-1.002452	0.162499
H69	H	0.012513	-1.166950	0.436809
N70	N	-0.038620	-0.819617	0.000084
H71	H	-0.025877	-0.884180	0.000081
H72	H	-0.072214	-0.807969	0.058778
N73	N	-0.002503	-1.183072	0.757344
H74	H	0.006120	-1.173849	0.828037
H75	H	-0.061920	-1.172748	0.739932
N76	N	-0.042048	-0.625687	0.000107
H77	H	-0.075102	-0.646585	-0.058582
H78	H	-0.075039	-0.646595	0.058836
H79	H	-0.470420	-1.175755	0.094691
H80	H	0.258060	-0.765759	0.000070
N81	N	0.233804	-0.930220	0.757370
H82	H	0.269811	-0.891680	0.710686
H83	H	0.201691	-0.890690	0.798736
N84	N	0.233784	-0.930158	0.242846
H85	H	0.225155	-0.939378	0.172153
H86	H	0.224012	-0.866711	0.260277
N87	N	-0.043712	-0.531865	0.000120
H88	H	-0.092800	-0.494914	0.000123
H89	H	-0.046345	-0.571036	-0.058574
N90	N	0.275000	-0.581355	0.000198
H91	H	0.324086	-0.618308	0.000222
H92	H	0.277702	-0.542127	-0.058454
N93	N	0.269921	-0.293608	0.000107
H94	H	0.257180	-0.229045	0.000117
H95	H	0.303516	-0.305262	0.058792
H96	H	-0.314429	-1.070705	-0.157536
H97	H	0.252971	-0.478007	0.000089
H98	H	-0.327407	-1.179272	0.093875
H99	H	0.218769	-0.946256	0.563393
N100	N	0.233786	-0.930177	0.449993
H101	H	0.293228	-0.940471	0.432637
H102	H	0.223971	-0.866725	0.432644
N103	N	-0.304075	-1.062013	0.179629
H104	H	-0.330886	-1.093521	0.237420
H105	H	-0.241466	-1.065989	0.180572
N106	N	-0.465836	-1.063652	-0.180232
H107	H	-0.497612	-1.011007	-0.164219
H108	H	-0.414600	-1.042111	-0.219465
N109	N	-0.321209	-1.201774	-0.097884
H110	H	-0.284875	-1.215620	-0.042187
H111	H	-0.375105	-1.243964	-0.097105
H112	H	-0.470280	-1.178098	-0.090060
