data_functionalizedCrystal
_audit_creation_method	'MofGen! by Chris Wilmer'
_symmetry_space_group_name_H-M	'P1'
_symmetry_Int_Tables_number	1
_symmetry_cell_setting	triclinic
loop_
_symmetry_equiv_pos_as_xyz
  x,y,z
_cell_length_a	19.288867
_cell_length_b	19.288865
_cell_length_c	17.766277
_cell_angle_alpha	89.988397
_cell_angle_beta	89.992126
_cell_angle_gamma	83.136658
loop_
_atom_site_label
_atom_site_type_symbol
_atom_site_fract_x
_atom_site_fract_y
_atom_site_fract_z
O1	O	0.921352	0.086655	-0.062576
O2	O	1.254685	0.419989	0.270757
O3	O	1.588019	0.753322	0.604090
O4	O	0.719092	0.098343	-0.062585
O5	O	1.052425	0.431676	0.270748
O6	O	1.385758	0.765009	0.604082
O7	O	0.826066	-0.008631	-0.062566
O8	O	1.159400	0.324702	0.270768
O9	O	1.492733	0.658035	0.604101
O10	O	0.814378	0.193629	-0.062596
O11	O	1.147711	0.526963	0.270738
O12	O	1.481044	0.860296	0.604071
O13	O	0.826048	-0.008637	0.062623
O14	O	1.159381	0.324697	0.395956
O15	O	1.492714	0.658030	0.729290
O16	O	0.719073	0.098337	0.062604
O17	O	1.052406	0.431671	0.395937
O18	O	1.385740	0.765004	0.729270
O19	O	0.921333	0.086650	0.062612
O20	O	1.254667	0.419983	0.395945
O21	O	1.588000	0.753317	0.729279
Cu22	Cu	0.820201	0.092493	0.074039
Cu23	Cu	1.153535	0.425826	0.407372
Cu24	Cu	1.486868	0.759160	0.740705
Cu25	Cu	0.820224	0.092500	-0.074011
Cu26	Cu	1.153557	0.425833	0.259322
Cu27	Cu	1.486890	0.759166	0.592655
O28	O	0.814359	0.193624	0.062593
O29	O	1.147692	0.526957	0.395926
O30	O	1.481025	0.860291	0.729259
C31	C	0.693206	0.097964	0.000009
C32	C	1.026539	0.431297	0.333342
C33	C	1.359873	0.764630	0.666675
C34	C	0.616102	0.096834	0.000006
C35	C	0.949436	0.430167	0.333339
C36	C	1.282769	0.763501	0.666673
C37	C	0.060547	0.088701	-0.068224
C38	C	0.393881	0.422034	0.265109
C39	C	0.727214	0.755367	0.598442
C40	C	0.132995	0.089758	-0.068227
C41	C	0.466328	0.423091	0.265106
C42	C	0.799661	0.756425	0.598439
C43	C	0.169213	0.090287	0.000013
C44	C	0.502546	0.423620	0.333346
C45	C	0.835880	0.756954	0.666679
C46	C	0.132980	0.089741	0.068261
C47	C	0.466314	0.423074	0.401594
C48	C	0.799647	0.756407	0.734927
C49	C	0.060535	0.088676	0.068262
C50	C	0.393868	0.422010	0.401595
C51	C	0.727202	0.755343	0.734928
C52	C	0.278533	0.132652	0.052287
C53	C	0.611866	0.465986	0.385620
C54	C	0.945199	0.799319	0.718954
C55	C	0.350976	0.133721	0.052283
C56	C	0.684309	0.467054	0.385617
C57	C	1.017643	0.800387	0.718950
C58	C	0.392659	0.093566	0.000012
C59	C	0.725992	0.426899	0.333346
C60	C	1.059325	0.760233	0.666679
C61	C	0.361888	0.052352	-0.052267
C62	C	0.695221	0.385685	0.281066
C63	C	1.028555	0.719018	0.614399
C64	C	0.289443	0.051288	-0.052266
C65	C	0.622776	0.384621	0.281067
C66	C	0.956110	0.717954	0.614400
C67	C	0.247768	0.091440	0.000019
C68	C	0.581101	0.424774	0.333352
C69	C	0.914435	0.758107	0.666686
C70	C	0.507439	0.095254	-0.068235
C71	C	0.840773	0.428587	0.265099
C72	C	1.174106	0.761920	0.598432
C73	C	0.579889	0.096306	-0.068235
C74	C	0.913222	0.429640	0.265099
C75	C	1.246556	0.762973	0.598432
C76	C	0.579872	0.096296	0.068255
C77	C	0.913205	0.429629	0.401589
C78	C	1.246539	0.762963	0.734922
C79	C	0.507425	0.095236	0.068253
C80	C	0.840758	0.428570	0.401587
C81	C	1.174092	0.761903	0.734920
C82	C	0.471213	0.094718	0.000006
C83	C	0.804546	0.428052	0.333340
C84	C	1.137879	0.761385	0.666673
C85	C	0.825681	-0.034510	0.000031
C86	C	1.159014	0.298823	0.333364
C87	C	1.492347	0.632156	0.666698
C88	C	0.824552	-0.111614	0.000038
C89	C	1.157885	0.221719	0.333371
C90	C	1.491218	0.555053	0.666704
C91	C	0.887320	-0.156310	0.000044
C92	C	1.220653	0.177024	0.333377
C93	C	1.553986	0.510357	0.666711
C94	C	0.886259	-0.228757	0.000032
C95	C	1.219592	0.104576	0.333365
C96	C	1.552926	0.437910	0.666699
C97	C	0.822427	-0.256505	0.000029
C98	C	1.155760	0.076828	0.333362
C99	C	1.489093	0.410162	0.666695
C100	C	0.759651	-0.211799	0.000018
C101	C	1.092984	0.121534	0.333352
C102	C	1.426317	0.454867	0.666685
C103	C	0.760713	-0.139354	0.000023
C104	C	1.094047	0.193980	0.333356
C105	C	1.427380	0.527313	0.666689
C106	C	0.772241	-0.364795	0.043877
C107	C	1.105574	-0.031461	0.377211
C108	C	1.438907	0.301872	0.710544
C109	C	0.771181	-0.437239	0.043878
C110	C	1.104514	-0.103906	0.377211
C111	C	1.437848	0.229428	0.710544
C112	C	0.819147	-0.479951	0.000012
C113	C	1.152481	-0.146617	0.333345
C114	C	1.485814	0.186716	0.666678
C115	C	0.868185	-0.450210	-0.043845
C116	C	1.201518	-0.116877	0.289489
C117	C	1.534852	0.216456	0.622822
C118	C	0.869248	-0.377765	-0.043840
C119	C	1.202581	-0.044431	0.289493
C120	C	1.535914	0.288902	0.622826
C121	C	0.821268	-0.335059	0.000024
C122	C	1.154601	-0.001726	0.333357
C123	C	1.487934	0.331608	0.666690
C124	C	0.880769	-0.603202	0.000004
C125	C	1.214103	-0.269869	0.333337
C126	C	1.547436	0.063464	0.666671
C127	C	0.879706	-0.675650	-0.000013
C128	C	1.213039	-0.342317	0.333321
C129	C	1.546373	-0.008984	0.666654
C130	C	0.753096	-0.658691	-0.000019
C131	C	1.086429	-0.325358	0.333315
C132	C	1.419763	0.007976	0.666648
C133	C	0.754161	-0.586245	-0.000010
C134	C	1.087494	-0.252911	0.333324
C135	C	1.420828	0.080422	0.666657
C136	C	0.818000	-0.558505	0.000005
C137	C	1.151333	-0.225172	0.333339
C138	C	1.484666	0.108162	0.666672
C139	C	0.947219	0.087029	0.000017
C140	C	1.280552	0.420362	0.333350
C141	C	1.613886	0.753696	0.666684
C142	C	1.024323	0.088159	0.000015
C143	C	1.357656	0.421492	0.333348
C144	C	1.690989	0.754825	0.666681
C145	C	0.814744	0.219503	-0.000005
C146	C	1.148078	0.552836	0.333328
C147	C	1.481411	0.886170	0.666661
C148	C	0.815873	0.296607	-0.000017
C149	C	1.149207	0.629940	0.333316
C150	C	1.482540	0.963273	0.666650
N151	N	0.820191	0.092488	0.178169
N152	N	1.153524	0.425822	0.511502
N153	N	1.486858	0.759155	0.844836
N154	N	0.820240	0.092499	-0.178142
N155	N	1.153573	0.425832	0.155192
N156	N	1.486906	0.759166	0.488525
C157	C	0.867575	0.045143	0.217564
C158	C	1.200908	0.378477	0.550898
C159	C	1.534241	0.711810	0.884231
C160	C	0.867579	0.045140	0.296366
C161	C	1.200912	0.378473	0.629700
C162	C	1.534245	0.711807	0.963033
C163	C	0.820206	0.092494	0.335769
C164	C	1.153539	0.425827	0.669103
C165	C	1.486872	0.759160	1.002436
C166	C	0.772813	0.139842	0.296364
C167	C	1.106146	0.473176	0.629698
C168	C	1.439480	0.806509	0.963031
C169	C	0.772806	0.139839	0.217564
C170	C	1.106139	0.473173	0.550898
C171	C	1.439472	0.806506	0.884231
C172	C	0.810907	0.155781	0.460598
C173	C	1.144240	0.489115	0.793931
C174	C	1.477573	0.822448	1.127264
C175	C	0.810919	0.155785	0.539397
C176	C	1.144252	0.489118	0.872730
C177	C	1.477586	0.822452	1.206063
C178	C	0.820224	0.092502	0.578816
C179	C	1.153557	0.425835	0.912149
C180	C	1.486891	0.759169	1.245482
C181	C	0.829532	0.029213	0.539426
C182	C	1.162865	0.362546	0.872760
C183	C	1.496199	0.695879	1.206093
C184	C	0.829525	0.029210	0.460626
C185	C	1.162858	0.362543	0.793960
C186	C	1.496191	0.695877	1.127293
C187	C	0.820208	0.092502	0.421215
C188	C	1.153541	0.425835	0.754548
C189	C	1.486875	0.759168	1.087882
C190	C	0.867615	0.045150	0.703657
C191	C	1.200948	0.378483	1.036991
C192	C	1.534281	0.711816	1.370324
C193	C	0.867614	0.045146	0.782460
C194	C	1.200947	0.378479	1.115794
C195	C	1.534281	0.711812	1.449127
C196	C	0.772852	0.139854	0.782457
C197	C	1.106185	0.473187	1.115791
C198	C	1.439518	0.806520	1.449124
C199	C	0.772849	0.139852	0.703655
C200	C	1.106183	0.473185	1.036989
C201	C	1.439516	0.806519	1.370322
C202	C	0.820234	0.092501	0.664260
C203	C	1.153568	0.425834	0.997594
C204	C	1.486901	0.759167	1.330927
H205	H	0.162494	0.090203	-0.123798
H206	H	0.495827	0.423537	0.209536
H207	H	0.829161	0.756870	0.542869
H208	H	0.703049	-0.549852	-0.000011
H209	H	1.036382	-0.216519	0.333323
H210	H	1.369715	0.116815	0.666656
C211	C	0.691668	-0.090183	0.000017
C212	C	1.025001	0.243150	0.333351
C213	C	1.358334	0.576483	0.666684
H214	H	0.701443	-0.043064	0.000017
H215	H	1.034776	0.290269	0.333350
H216	H	1.368110	0.623602	0.666684
H217	H	0.665473	-0.098582	0.043668
H218	H	0.998806	0.234752	0.377002
H219	H	1.332139	0.568085	0.710335
H220	H	0.665494	-0.098562	-0.043649
H221	H	0.998828	0.234772	0.289684
H222	H	1.332161	0.568105	0.623017
H223	H	0.031041	0.088238	0.123832
H224	H	0.364375	0.421571	0.457165
H225	H	0.697708	0.754904	0.790499
C226	C	0.839752	-0.040401	0.417298
C227	C	1.173085	0.292933	0.750632
C228	C	1.506418	0.626266	1.083965
H229	H	0.845390	-0.078091	0.452053
H230	H	1.178723	0.255243	0.785387
H231	H	1.512057	0.588576	1.118720
H232	H	0.880137	-0.041868	0.386463
H233	H	1.213470	0.291465	0.719796
H234	H	1.546804	0.624798	1.053129
H235	H	0.800023	-0.044192	0.386655
H236	H	1.133357	0.289141	0.719988
H237	H	1.466690	0.622474	1.053322
C238	C	0.919689	-0.006948	0.174234
C239	C	1.253022	0.326385	0.507567
C240	C	1.586355	0.659719	0.840900
H241	H	0.947905	-0.035150	0.208987
H242	H	1.281238	0.298183	0.542320
H243	H	1.614572	0.631516	0.875654
H244	H	0.948519	0.017961	0.143476
H245	H	1.281852	0.351294	0.476809
H246	H	1.615185	0.684627	0.810142
H247	H	0.894787	-0.035804	0.143512
H248	H	1.228120	0.297529	0.476846
H249	H	1.561454	0.630862	0.810179
H250	H	0.909175	-0.353553	-0.079551
H251	H	1.242508	-0.020220	0.253782
H252	H	1.575841	0.313114	0.587116
H253	H	0.376021	0.167297	0.094837
H254	H	0.709355	0.500630	0.428170
H255	H	1.042688	0.833963	0.761503
C256	C	0.957539	-0.125799	0.000047
C257	C	1.290872	0.207534	0.333380
C258	C	1.624206	0.540867	0.666714
H259	H	0.994770	-0.162799	0.000041
H260	H	1.328103	0.170534	0.333375
H261	H	1.661436	0.503868	0.666708
H262	H	0.960582	-0.097897	0.043702
H263	H	1.293916	0.235436	0.377035
H264	H	1.627249	0.568769	0.710368
H265	H	0.960590	-0.097886	-0.043616
H266	H	1.293923	0.235448	0.289718
H267	H	1.627256	0.568781	0.623051
H268	H	0.395825	0.019656	-0.094833
H269	H	0.729158	0.352989	0.238500
H270	H	1.062492	0.686323	0.571833
H271	H	0.701123	-0.681283	-0.000025
H272	H	1.034456	-0.347949	0.333308
H273	H	1.367789	-0.014616	0.666642
H274	H	0.734277	0.178407	0.814539
H275	H	1.067610	0.511741	1.147872
H276	H	1.400944	0.845074	1.481205
C277	C	0.955306	-0.277931	0.000044
C278	C	1.288639	0.055402	0.333378
C279	C	1.621973	0.388736	0.666711
H280	H	0.993477	-0.251034	0.000058
H281	H	1.326810	0.082299	0.333392
H282	H	1.660144	0.415633	0.666725
H283	H	0.957534	-0.306539	-0.043611
H284	H	1.290867	0.026795	0.289723
H285	H	1.624201	0.360128	0.623056
H286	H	0.957508	-0.306550	0.043707
H287	H	1.290841	0.026784	0.377040
H288	H	1.624175	0.360117	0.710373
C289	C	0.919724	-0.006941	0.660316
C290	C	1.253058	0.326393	0.993649
C291	C	1.586391	0.659726	1.326982
H292	H	0.912940	-0.000157	0.607742
H293	H	1.246273	0.333177	0.941076
H294	H	1.579606	0.666510	1.274409
H295	H	0.912327	-0.053278	0.673244
H296	H	1.245660	0.280055	1.006577
H297	H	1.578993	0.613389	1.339910
H298	H	0.966059	0.000486	0.673217
H299	H	1.299393	0.333819	1.006550
H300	H	1.632726	0.667152	1.339883
C301	C	0.467601	0.094676	-0.143299
C302	C	0.800934	0.428009	0.190034
C303	C	1.134267	0.761342	0.523367
H304	H	0.419265	0.093974	-0.133526
H305	H	0.752598	0.427307	0.199807
H306	H	1.085931	0.760641	0.533141
H307	H	0.484898	0.054356	-0.171335
H308	H	0.818231	0.387689	0.161998
H309	H	1.151565	0.721022	0.495332
H310	H	0.474054	0.135353	-0.171342
H311	H	0.807387	0.468686	0.161991
H312	H	1.140720	0.802019	0.495324
H313	H	0.906165	0.006585	0.328448
H314	H	1.239498	0.339918	0.661781
H315	H	1.572832	0.673251	0.995115
C316	C	0.800682	0.225397	0.582721
C317	C	1.134015	0.558730	0.916055
C318	C	1.467348	0.892064	1.249388
H319	H	0.802027	0.216337	0.635297
H320	H	1.135361	0.549670	0.968630
H321	H	1.468694	0.883003	1.301964
H322	H	0.756795	0.250273	0.569813
H323	H	1.090128	0.583606	0.903147
H324	H	1.423462	0.916940	1.236480
H325	H	0.836920	0.252525	0.569788
H326	H	1.170253	0.585858	0.903122
H327	H	1.503586	0.919191	1.236455
H328	H	0.731248	-0.461447	0.079584
H329	H	1.064582	-0.128114	0.412917
H330	H	1.397915	0.205219	0.746251
C331	C	0.800676	0.225397	0.417244
C332	C	1.134009	0.558730	0.750577
C333	C	1.467342	0.892064	1.083911
H334	H	0.795145	0.263089	0.451987
H335	H	1.128479	0.596422	0.785320
H336	H	1.461812	0.929755	1.118653
H337	H	0.760227	0.226910	0.386511
H338	H	1.093560	0.560243	0.719845
H339	H	1.426894	0.893576	1.053178
H340	H	0.840354	0.229144	0.386496
H341	H	1.173688	0.562478	0.719830
H342	H	1.507021	0.895811	1.053163
H343	H	0.837109	-0.022318	0.571520
H344	H	1.170442	0.311015	0.904853
H345	H	1.503775	0.644348	1.238186
C346	C	0.920955	-0.497180	-0.092098
C347	C	1.254288	-0.163847	0.241235
C348	C	1.587622	0.169486	0.574569
H349	H	0.950314	-0.469093	-0.118209
H350	H	1.283647	-0.135760	0.215124
H351	H	1.616981	0.197573	0.548457
H352	H	0.896537	-0.522218	-0.127371
H353	H	1.229870	-0.188885	0.205962
H354	H	1.563203	0.144449	0.539296
H355	H	0.948582	-0.529204	-0.060471
H356	H	1.281915	-0.195870	0.272862
H357	H	1.615248	0.137463	0.606195
C358	C	0.232688	0.176829	0.109785
C359	C	0.566021	0.510162	0.443119
C360	C	0.899354	0.843496	0.776452
H361	H	0.261386	0.201535	0.140911
H362	H	0.594719	0.534868	0.474244
H363	H	0.928053	0.868202	0.807578
H364	H	0.208349	0.147086	0.140026
H365	H	0.541682	0.480419	0.473359
H366	H	0.875016	0.813752	0.806692
H367	H	0.200050	0.209132	0.083885
H368	H	0.533383	0.542465	0.417219
H369	H	0.866717	0.875799	0.750552
C370	C	0.950985	-0.572682	0.000011
C371	C	1.284319	-0.239348	0.333344
C372	C	1.617652	0.093985	0.666678
H373	H	0.942629	-0.523134	0.000023
H374	H	1.275962	-0.189800	0.333356
H375	H	1.609296	0.143533	0.666690
H376	H	0.976828	-0.588026	-0.043645
H377	H	1.310161	-0.254692	0.289688
H378	H	1.643494	0.078641	0.623021
H379	H	0.976814	-0.588050	0.043672
H380	H	1.310147	-0.254717	0.377006
H381	H	1.643480	0.078617	0.710339
C382	C	0.172817	0.090325	0.143323
C383	C	0.506150	0.423659	0.476656
C384	C	0.839484	0.756992	0.809989
H385	H	0.221150	0.091044	0.133549
H386	H	0.554484	0.424378	0.466882
H387	H	0.887817	0.757711	0.800216
H388	H	0.166368	0.049653	0.171368
H389	H	0.499702	0.382986	0.504701
H390	H	0.833035	0.716320	0.838035
H391	H	0.155514	0.130650	0.171356
H392	H	0.488847	0.463983	0.504689
H393	H	0.822181	0.797316	0.838023
H394	H	0.733179	-0.330024	0.079602
H395	H	1.066512	0.003309	0.412936
H396	H	1.399846	0.336643	0.746269
C397	C	0.689437	-0.242319	0.000017
C398	C	1.022771	0.091014	0.333351
C399	C	1.356104	0.424348	0.666684
H400	H	0.697794	-0.291867	0.000024
H401	H	1.031127	0.041466	0.333357
H402	H	1.364461	0.374800	0.666690
H403	H	0.663607	-0.226955	-0.043639
H404	H	0.996941	0.106378	0.289694
H405	H	1.330274	0.439711	0.623027
H406	H	0.663597	-0.226971	0.043678
H407	H	0.996930	0.106363	0.377012
H408	H	1.330263	0.439696	0.710345
H409	H	0.930821	-0.712042	-0.000012
H410	H	1.264155	-0.378709	0.333322
H411	H	1.597488	-0.045375	0.666655
H412	H	0.609382	0.096743	-0.123805
H413	H	0.942716	0.430076	0.209528
H414	H	1.276049	0.763409	0.542861
C415	C	0.619704	0.096877	0.143318
C416	C	0.953037	0.430211	0.476652
C417	C	1.286370	0.763544	0.809985
H418	H	0.668038	0.097592	0.133545
H419	H	1.001371	0.430926	0.466879
H420	H	1.334704	0.764259	0.800212
H421	H	0.613251	0.056206	0.171364
H422	H	0.946585	0.389539	0.504697
H423	H	1.279918	0.722872	0.838030
H424	H	0.602403	0.137203	0.171351
H425	H	0.935737	0.470536	0.504685
H426	H	1.269070	0.803869	0.838018
C427	C	0.919740	-0.006935	0.825796
C428	C	1.253073	0.326398	1.159129
C429	C	1.586407	0.659731	1.492463
H430	H	0.947962	-0.035129	0.791044
H431	H	1.281295	0.298204	1.124378
H432	H	1.614629	0.631537	1.457711
H433	H	0.894855	-0.035790	0.856550
H434	H	1.228188	0.297543	1.189883
H435	H	1.561522	0.630877	1.523216
H436	H	0.948573	0.017988	0.856521
H437	H	1.281907	0.351321	1.189855
H438	H	1.615240	0.684655	1.523188
C439	C	0.720734	0.191939	0.660318
C440	C	1.054068	0.525273	0.993652
C441	C	1.387401	0.858606	1.326985
H442	H	0.692524	0.220146	0.695069
H443	H	1.025858	0.553479	1.028403
H444	H	1.359191	0.886813	1.361736
H445	H	0.691899	0.167028	0.629590
H446	H	1.025232	0.500361	0.962924
H447	H	1.358565	0.833694	1.296257
H448	H	0.745631	0.220791	0.629567
H449	H	1.078964	0.554125	0.962900
H450	H	1.412298	0.887458	1.296233
C451	C	0.720706	0.191932	0.339705
C452	C	1.054040	0.525265	0.673038
C453	C	1.387373	0.858598	1.006371
H454	H	0.727502	0.185158	0.392278
H455	H	1.060835	0.518491	0.725611
H456	H	1.394168	0.851825	1.058945
H457	H	0.674374	0.184506	0.326807
H458	H	1.007708	0.517840	0.660141
H459	H	1.341041	0.851173	0.993474
H460	H	0.728105	0.238272	0.326773
H461	H	1.061438	0.571605	0.660107
H462	H	1.394772	0.904938	0.993440
H463	H	0.734220	0.178394	0.185488
H464	H	1.067553	0.511727	0.518821
H465	H	1.400886	0.845061	0.852154
H466	H	0.031068	0.088276	-0.123797
H467	H	0.364401	0.421610	0.209537
H468	H	0.697735	0.754943	0.542870
H469	H	0.264393	0.017728	-0.094833
H470	H	0.597726	0.351062	0.238500
H471	H	0.931059	0.684395	0.571834
H472	H	0.477930	0.094797	0.123821
H473	H	0.811264	0.428130	0.457154
H474	H	1.144597	0.761464	0.790488
