data_functionalizedCrystal
_audit_creation_method	'MofGen! by Chris Wilmer'
_symmetry_space_group_name_H-M	'P1'
_symmetry_Int_Tables_number	1
_symmetry_cell_setting	triclinic
loop_
_symmetry_equiv_pos_as_xyz
  x,y,z
_cell_length_a	15.944551
_cell_length_b	10.723024
_cell_length_c	9.198806
_cell_angle_alpha	90.003648
_cell_angle_beta	89.995864
_cell_angle_gamma	96.016696
loop_
_atom_site_label
_atom_site_type_symbol
_atom_site_fract_x
_atom_site_fract_y
_atom_site_fract_z
O1	O	0.117808	-1.655699	-0.120886
O2	O	0.129085	-1.292405	-0.120892
O3	O	0.001228	-1.483973	-0.120876
O4	O	0.245664	-1.464131	-0.120902
O5	O	0.001228	-1.483958	0.120909
O6	O	0.129084	-1.292389	0.120893
O7	O	0.117808	-1.655684	0.120899
Cu8	Cu	0.123446	-1.474035	0.142973
Cu9	Cu	0.123446	-1.474053	-0.142966
O10	O	0.245664	-1.464116	0.120883
C11	C	0.128264	-1.245908	0.000000
C12	C	0.125809	-1.107384	-0.000001
C13	C	-0.030070	-1.483141	0.000017
C14	C	-0.123331	-1.480672	0.000018
C15	C	0.118629	-1.702181	0.000003
C16	C	0.121084	-1.840704	-0.000005
C17	C	-0.338901	-1.356026	-0.000004
C18	C	-0.399587	-1.413900	0.119211
C19	C	-0.294082	-1.476205	0.000006
C20	C	-0.399570	-1.413944	-0.119170
C21	C	-0.459020	-1.471880	-0.000011
C22	C	-0.353540	-1.534111	0.119320
C23	C	-0.353516	-1.534138	-0.119168
C24	C	-0.414184	-1.592099	0.000077
C25	C	-0.199066	-1.478692	0.000018
C26	C	-0.554035	-1.469402	-0.000011
C27	C	0.276963	-1.464947	-0.000013
C28	C	0.370223	-1.467417	-0.000024
N29	N	0.123445	-1.474032	0.344087
C30	C	0.197350	-1.031498	-0.000010
C31	C	0.194814	-0.888327	-0.000012
N32	N	0.123441	-1.474067	-0.344080
C33	C	0.069525	-1.554469	0.416290
C34	C	0.069522	-1.554488	0.583703
H35	H	-0.306164	-1.256273	0.000113
F36	F	0.009186	-1.644509	0.664858
H37	H	-0.419938	-1.363104	-0.219964
H38	H	0.169603	-1.405176	0.406209
H39	H	0.059835	-0.905903	-0.000006
H40	H	-0.333095	-1.584931	-0.219959
H41	H	0.023361	-1.623316	0.354170
F42	F	-0.426251	-1.347456	0.250947
F43	F	-0.327035	-1.600491	0.251200
H44	H	0.260477	-1.072523	-0.000009
F45	F	-0.456780	-1.722596	0.000162
H46	H	0.256060	-0.823120	-0.000025
H47	H	0.062682	-1.066360	-0.000032
H48	H	0.169609	-1.405202	0.593837
