data_functionalizedCrystal
_audit_creation_method	'MofGen! by Chris Wilmer'
_symmetry_space_group_name_H-M	'P1'
_symmetry_Int_Tables_number	1
_symmetry_cell_setting	triclinic
loop_
_symmetry_equiv_pos_as_xyz
  x,y,z
_cell_length_a	14.519709
_cell_length_b	13.339070
_cell_length_c	12.376457
_cell_angle_alpha	104.410245
_cell_angle_beta	101.296542
_cell_angle_gamma	80.345281
loop_
_atom_site_label
_atom_site_type_symbol
_atom_site_fract_x
_atom_site_fract_y
_atom_site_fract_z
O1	O	0.449827	-1.362507	-0.094056
O2	O	0.949827	-0.862507	0.405944
O3	O	0.389115	-1.067869	-0.094048
O4	O	0.889115	-0.567869	0.405952
O5	O	0.287221	-1.222998	-0.094042
O6	O	0.787221	-0.722998	0.405958
O7	O	0.551721	-1.207378	-0.094062
O8	O	1.051721	-0.707378	0.405938
O9	O	0.312650	-1.184229	0.093969
O10	O	0.812650	-0.684229	0.593969
O11	O	0.414544	-1.029100	0.093963
O12	O	0.914544	-0.529100	0.593963
O13	O	0.475256	-1.323739	0.093955
O14	O	0.975256	-0.823739	0.593955
Zn15	Zn	0.448937	-1.170264	0.123810
Zn16	Zn	0.948937	-0.670264	0.623810
Zn17	Zn	0.415434	-1.221343	-0.123903
Zn18	Zn	0.915434	-0.721343	0.376097
O19	O	0.577150	-1.168610	0.093949
O20	O	1.077150	-0.668610	0.593949
C21	C	0.265390	-1.202885	-0.000036
C22	C	0.765390	-0.702885	0.499964
C23	C	0.162454	-1.200703	-0.000036
C24	C	0.662454	-0.700703	0.499964
C25	C	0.391574	-1.010777	-0.000041
C26	C	0.891574	-0.510777	0.499959
C27	C	0.361005	-0.898419	-0.000038
C28	C	0.861005	-0.398419	0.499962
C29	C	0.472796	-1.380832	-0.000054
C30	C	0.972796	-0.880832	0.499946
C31	C	0.503364	-1.493191	-0.000065
C32	C	1.003364	-0.993191	0.499935
C33	C	-0.214489	-1.192677	-0.000065
C34	C	0.285511	-0.692677	0.499935
C35	C	-0.109612	-1.194906	-0.000056
C36	C	0.390388	-0.694906	0.499944
C37	C	-0.026021	-1.196690	-0.000049
C38	C	0.473979	-0.696690	0.499951
C39	C	0.078862	-1.198919	-0.000043
C40	C	0.578862	-0.698919	0.499957
C41	C	0.598980	-1.188723	-0.000059
C42	C	1.098980	-0.688723	0.499941
C43	C	0.701915	-1.190906	-0.000067
C44	C	1.201915	-0.690906	0.499933
N45	N	0.471804	-1.135411	0.292866
N46	N	0.971804	-0.635411	0.792866
C47	C	0.598692	-0.534063	-0.000074
C48	C	1.098692	-0.034063	0.499926
C49	C	0.627415	-0.639629	-0.000081
C50	C	1.127415	-0.139629	0.499919
C51	C	0.560815	-0.704332	-0.000070
C52	C	1.060815	-0.204332	0.499930
C53	C	0.465487	-0.663458	-0.000053
C54	C	0.965487	-0.163458	0.499947
C55	C	0.436759	-0.557883	-0.000055
C56	C	0.936759	-0.057883	0.499945
C57	C	0.398883	-0.728152	-0.000050
C58	C	0.898883	-0.228152	0.499950
C59	C	0.303554	-0.687278	-0.000033
C60	C	0.803554	-0.187278	0.499967
C61	C	0.274832	-0.581713	-0.000035
C62	C	0.774832	-0.081713	0.499965
C63	C	0.341432	-0.517011	-0.000046
C64	C	0.841432	-0.017011	0.499954
C65	C	0.427610	-0.833726	-0.000048
C66	C	0.927610	-0.333726	0.499952
C67	C	0.265678	-0.857547	-0.000029
C68	C	0.765678	-0.357547	0.499971
C69	C	0.236954	-0.751980	-0.000022
C70	C	0.736954	-0.251980	0.499978
N71	N	0.392562	-1.256204	-0.292960
N72	N	0.892562	-0.756204	0.207040
C73	C	0.339463	-1.337109	0.647859
C74	C	0.839463	-0.837109	1.147859
C75	C	0.323457	-1.361497	0.529520
C76	C	0.823457	-0.861497	1.029520
C77	C	0.360542	-1.304977	0.470351
C78	C	0.860542	-0.804977	0.970351
C79	C	0.413636	-1.224066	0.529532
C80	C	0.913636	-0.724066	1.029532
C81	C	0.429650	-1.199681	0.647883
C82	C	0.929650	-0.699681	1.147883
C83	C	0.450729	-1.167550	0.470375
C84	C	0.950729	-0.667550	0.970375
C85	C	0.503824	-1.086639	0.529556
C86	C	1.003824	-0.586639	1.029556
C87	C	0.519834	-1.062257	0.647895
C88	C	1.019834	-0.562257	1.147895
C89	C	0.482749	-1.118777	0.707064
C90	C	0.982749	-0.618777	1.207064
C91	C	0.434715	-1.191935	0.352024
C92	C	0.934715	-0.691935	0.852024
C93	C	0.524903	-1.054507	0.352048
C94	C	1.024903	-0.554507	0.852048
C95	C	0.540909	-1.030119	0.470387
C96	C	1.040909	-0.530119	0.970387
H97	H	0.505228	-0.866994	-0.000058
H98	H	1.005228	-0.366994	0.499942
O99	O	0.134137	-0.707893	-0.000004
O100	O	0.634137	-0.207893	0.499996
H101	H	0.106807	-0.676174	-0.076636
H102	H	0.606807	-0.176174	0.423364
O103	O	0.193834	-0.927315	-0.000007
O104	O	0.693834	-0.427315	0.499993
H105	H	0.229826	-1.007587	0.000007
H106	H	0.729826	-0.507587	0.500007
H107	H	0.584207	-0.790288	-0.000078
H108	H	1.084207	-0.290288	0.499922
H109	H	0.318049	-0.431049	-0.000040
H110	H	0.818049	0.068951	0.499960
O111	O	0.598191	-0.942865	0.534217
O112	O	1.098191	-0.442865	1.034217
H113	H	0.554044	-0.882499	0.588161
H114	H	1.054044	-0.382499	1.088161
H115	H	0.391486	-1.257813	0.303849
H116	H	0.891486	-0.757813	0.803849
O117	O	0.564893	-0.993523	0.288247
O118	O	1.064893	-0.493523	0.788247
H119	H	0.544825	-1.024060	0.196013
H120	H	1.044825	-0.524060	0.696013
H121	H	0.652906	-0.481376	-0.000092
H122	H	1.152906	0.018624	0.499908
O123	O	0.577110	-0.974998	0.711723
O124	O	1.077110	-0.474998	1.211723
H125	H	0.582023	-0.967545	0.803954
H126	H	1.082023	-0.467545	1.303954
O127	O	0.299479	-1.398066	0.711681
O128	O	0.799479	-0.898066	1.211681
H129	H	0.259873	-1.458429	0.650652
H130	H	0.759873	-0.958429	1.150652
H131	H	0.705030	-0.672903	-0.000103
H132	H	1.205030	-0.172903	0.499897
H133	H	0.197207	-0.548441	-0.000034
H134	H	0.697207	-0.048441	0.499966
O135	O	0.343266	-1.331262	0.342714
O136	O	0.843266	-0.831262	0.842714
H137	H	0.300106	-1.397009	0.311501
H138	H	0.800106	-0.897009	0.811501
O139	O	0.266186	-1.448749	0.465688
O140	O	0.766186	-0.948749	0.965688
H141	H	0.243078	-1.483947	0.526710
H142	H	0.743078	-0.983947	1.026710
O143	O	0.500025	-1.092476	0.834706
O144	O	1.000025	-0.592476	1.334706
H145	H	0.465320	-1.145375	0.865901
H146	H	0.965320	-0.645375	1.365901
