data_functionalizedCrystal
_audit_creation_method	'MofGen! by Chris Wilmer'
_symmetry_space_group_name_H-M	'P1'
_symmetry_Int_Tables_number	1
_symmetry_cell_setting	triclinic
loop_
_symmetry_equiv_pos_as_xyz
  x,y,z
_cell_length_a	6.817900
_cell_length_b	11.102183
_cell_length_c	14.858572
_cell_angle_alpha	93.467131
_cell_angle_beta	104.524003
_cell_angle_gamma	108.603876
loop_
_atom_site_label
_atom_site_type_symbol
_atom_site_fract_x
_atom_site_fract_y
_atom_site_fract_z
V1	V	-4.064537	-0.176638	-0.289959
O2	O	-4.024475	0.007665	-0.284441
O3	O	-4.041625	-0.349453	-0.287974
O4	O	-4.020827	-0.174282	-0.416420
O5	O	-4.045416	-0.168718	-0.155105
V6	V	-4.544254	-0.154551	-0.273829
O7	O	-4.334143	-0.225089	-0.325340
O8	O	-4.724846	-0.106100	-0.238448
O9	O	-4.343960	0.018263	-0.275814
O10	O	-4.701713	-0.338854	-0.279347
O11	O	-4.680771	-0.162472	-0.408683
O12	O	-4.364757	-0.156907	-0.147368
C13	C	-3.892674	-0.391570	-0.283399
C14	C	-3.955259	-0.532850	-0.282619
C15	C	-3.862503	-0.496103	-0.112284
C16	C	-3.845524	-0.544102	-0.026753
C17	C	-3.904335	-0.676848	-0.026025
C18	C	-3.980138	-0.761600	-0.110838
C19	C	-3.997117	-0.713601	-0.196369
C20	C	-3.938293	-0.580849	-0.197087
C21	C	-4.089886	-0.750348	-0.366703
C22	C	-4.031062	-0.617602	-0.367432
C23	C	-4.165689	-0.835100	-0.451515
C24	C	-4.182655	-0.787100	-0.537048
C25	C	-4.123836	-0.654346	-0.537772
C26	C	-4.048041	-0.569603	-0.452963
C27	C	-3.866143	-0.168121	-0.447244
C28	C	-3.911858	-0.167338	-0.550627
C29	C	-4.079176	-0.164478	-0.929195
C30	C	-4.032614	-0.165274	-0.823866
C31	C	-3.995519	-0.165909	-0.739915
C32	C	-3.948954	-0.166703	-0.634578
C33	C	-4.156253	0.060374	-0.280386
C34	C	-4.072907	0.201653	-0.281172
C35	C	-4.182783	-0.163072	-0.116539
C36	C	-4.116306	-0.163849	-0.013155
H37	H	-4.244386	-0.856115	-0.606095
C38	C	-4.142226	-0.601991	-0.630543
C39	C	-4.074546	-0.467599	-0.613035
C40	C	-4.091490	-0.419332	-0.698475
H41	H	-4.053700	-0.627019	-0.662530
H42	H	-4.288182	-0.635371	-0.668387
H43	H	-3.928614	-0.434231	-0.575207
H44	H	-4.163053	-0.442536	-0.581063
H45	H	-4.237445	-0.452713	-0.736319
H46	H	-4.002963	-0.444369	-0.730455
H47	H	-4.045591	-0.328144	-0.686608
C48	C	-3.886111	-0.728803	0.066896
C49	C	-4.016740	-0.691521	0.113743
C50	C	-3.999986	-0.739344	0.199349
H51	H	-3.932033	-0.819994	0.055308
H52	H	-3.740200	-0.695318	0.104786
H53	H	-4.162621	-0.725012	0.075861
H54	H	-3.970846	-0.600338	0.125355
H55	H	-3.854075	-0.705859	0.237239
H56	H	-4.045907	-0.830533	0.187752
H57	H	-4.088598	-0.714046	0.231149
H58	H	-3.814552	-0.388010	-0.112866
C59	C	-4.229730	-0.979271	-0.450927
C60	C	-4.299784	-1.043215	-0.543506
C61	C	-4.358808	-1.176027	-0.543004
H62	H	-4.108792	-0.998532	-0.416411
H63	H	-4.343226	-1.006730	-0.422315
H64	H	-4.186299	-1.015766	-0.572105
H65	H	-4.420738	-1.023992	-0.578039
H66	H	-4.472304	-1.203486	-0.514392
H67	H	-4.237860	-1.195275	-0.508484
H68	H	-4.406365	-1.219430	-0.605817
H69	H	-4.000112	-0.461510	-0.453543
H70	H	-4.028046	-0.869688	-0.110238
C71	C	-3.763070	-0.451874	0.065230
C72	C	-3.715138	-0.325343	0.046294
C73	C	-3.639157	-0.240354	0.131005
H74	H	-3.870743	-0.470053	0.097451
H75	H	-3.636331	-0.461860	0.103313
H76	H	-3.841861	-0.315362	0.008226
H77	H	-3.607449	-0.307123	0.014087
H78	H	-3.512418	-0.250340	0.169088
H79	H	-3.746840	-0.258545	0.163219
H80	H	-3.606607	-0.154493	0.118169
