data_functionalizedCrystal
_audit_creation_method	'MofGen! by Chris Wilmer'
_symmetry_space_group_name_H-M	'P1'
_symmetry_Int_Tables_number	1
_symmetry_cell_setting	triclinic
loop_
_symmetry_equiv_pos_as_xyz
  x,y,z
_cell_length_a	12.759395
_cell_length_b	18.050589
_cell_length_c	12.759387
_cell_angle_alpha	89.970013
_cell_angle_beta	89.979491
_cell_angle_gamma	90.029758
loop_
_atom_site_label
_atom_site_type_symbol
_atom_site_fract_x
_atom_site_fract_y
_atom_site_fract_z
Zn1	Zn	1.606170	-0.295590	-0.594011
Zn2	Zn	1.606019	-0.419799	-0.418334
Zn3	Zn	1.430468	-0.295630	-0.418348
Zn4	Zn	1.430419	-0.419746	-0.593973
O5	O	1.518269	-0.357691	-0.506166
O6	O	1.753171	-0.312072	-0.570717
O7	O	1.582689	-0.403367	-0.271315
O8	O	1.453859	-0.191700	-0.441672
O9	O	1.753060	-0.403327	-0.441648
O10	O	1.582946	-0.191671	-0.570731
O11	O	1.453713	-0.312141	-0.271325
O12	O	1.283441	-0.312089	-0.441635
O13	O	1.453775	-0.403237	-0.740999
O14	O	1.283405	-0.403277	-0.570666
O15	O	1.582899	-0.312020	-0.741027
O16	O	1.582642	-0.523716	-0.441611
O17	O	1.453629	-0.523677	-0.570652
C18	C	1.245302	-0.357682	-0.506148
C19	C	1.128525	-0.357696	-0.506166
C20	C	1.128526	-0.452803	-0.640308
C21	C	1.073666	-0.500362	-0.707383
C22	C	0.963944	-0.500371	-0.707395
C23	C	0.909080	-0.452814	-0.640329
C24	C	0.963940	-0.405255	-0.573255
C25	C	1.073665	-0.405253	-0.573247
C26	C	0.963939	-0.310146	-0.439119
C27	C	1.073661	-0.310139	-0.439099
C28	C	0.909076	-0.262589	-0.372052
C29	C	0.963936	-0.215032	-0.304971
C30	C	1.073664	-0.215026	-0.304960
C31	C	1.128521	-0.262580	-0.372025
C32	C	1.518142	-0.550643	-0.506149
C33	C	1.518184	-0.633189	-0.506177
C34	C	1.448096	-0.832646	-0.576325
C35	C	1.422480	-0.882094	-0.480456
C36	C	1.518287	-0.784319	-0.506190
C37	C	1.543955	-0.881953	-0.602070
C38	C	1.518385	-0.930304	-0.506212
C39	C	1.492621	-0.832681	-0.410271
C40	C	1.614141	-0.832535	-0.531950
C41	C	1.588561	-0.881961	-0.436015
C42	C	1.518228	-0.700221	-0.506179
C43	C	1.518444	-1.014401	-0.506212
C44	C	1.792302	-0.357701	-0.506185
C45	C	1.909079	-0.357705	-0.506193
C46	C	1.518348	-0.357618	-0.780200
C47	C	1.518382	-0.357587	-0.896977
C48	C	1.518425	-0.163986	-0.506207
C49	C	1.518492	-0.081440	-0.506224
C50	C	1.652848	-0.262609	-0.897026
C51	C	1.720095	-0.215109	-0.951911
C52	C	1.720121	-0.215082	-1.061633
C53	C	1.652889	-0.262559	-1.116472
C54	C	1.585642	-0.310059	-1.061586
C55	C	1.585626	-0.310082	-0.951862
C56	C	1.451173	-0.405032	-1.061538
C57	C	1.451151	-0.405064	-0.951816
C58	C	1.383942	-0.452509	-1.116376
C59	C	1.316698	-0.500013	-1.061491
C60	C	1.316676	-0.500039	-0.951763
C61	C	1.383904	-0.452564	-0.896931
C62	C	1.518251	-0.357710	-0.233199
C63	C	1.518420	-0.357532	-0.116423
H64	H	0.919277	-0.539094	-0.762019
C65	C	1.383777	-0.452736	-0.777804
C66	C	1.310520	-0.504510	-0.741469
C67	C	1.310391	-0.504697	-0.631735
H68	H	1.365619	-0.404861	-0.752850
H69	H	1.451545	-0.465632	-0.752966
H70	H	1.242767	-0.491610	-0.766296
H71	H	1.328661	-0.552393	-0.766394
H72	H	1.378159	-0.517593	-0.606898
H73	H	1.292235	-0.456820	-0.606792
H74	H	1.260694	-0.539830	-0.607068
H75	H	1.261904	-0.538712	-0.907082
H76	H	1.652907	-0.262526	-1.205813
H77	H	1.388650	-0.810991	-0.635551
H78	H	1.217867	-0.452806	-0.640297
H79	H	1.118348	-0.539081	-0.761988
H80	H	1.217863	-0.262581	-0.372019
H81	H	1.383963	-0.452480	-1.205718
H82	H	1.652843	-0.262634	-0.807684
C83	C	0.789953	-0.452957	-0.640462
C84	C	0.753652	-0.504795	-0.713543
C85	C	0.643918	-0.504953	-0.713682
H86	H	0.765039	-0.405094	-0.658790
H87	H	0.765054	-0.465778	-0.572652
H88	H	0.778540	-0.491969	-0.781338
H89	H	0.778537	-0.552666	-0.695232
H90	H	0.619019	-0.517775	-0.645872
H91	H	0.619014	-0.457088	-0.732007
H92	H	0.619274	-0.540130	-0.763258
C93	C	0.904560	-0.163323	-0.232124
C94	C	0.976084	-0.121661	-0.173391
C95	C	0.921422	-0.074012	-0.106281
H96	H	0.861709	-0.191610	-0.186192
H97	H	0.861824	-0.130962	-0.272381
H98	H	1.018802	-0.154018	-0.133137
H99	H	1.018938	-0.093358	-0.219294
H100	H	0.878686	-0.041650	-0.146538
H101	H	0.878572	-0.102305	-0.060356
H102	H	0.969942	-0.045733	-0.066429
C103	C	1.572928	-0.910667	-0.710232
C104	C	1.589972	-0.850698	-0.777772
C105	C	1.616668	-0.877118	-0.877415
H106	H	1.517445	-0.940375	-0.736649
H107	H	1.634977	-0.939554	-0.705592
H108	H	1.527930	-0.821824	-0.782415
H109	H	1.645459	-0.820985	-0.751388
H110	H	1.678717	-0.906004	-0.872776
H111	H	1.561181	-0.906826	-0.903822
H112	H	1.628245	-0.836434	-0.923251
H113	H	1.470856	-0.811126	-0.329173
C114	C	1.667627	-0.910620	-0.356691
C115	C	1.640319	-0.885535	-0.256524
C116	C	1.713116	-0.911930	-0.183422
H117	H	1.735520	-0.892917	-0.374261
H118	H	1.667624	-0.963249	-0.357468
H119	H	1.640332	-0.832916	-0.255750
H120	H	1.572438	-0.903235	-0.238922
H121	H	1.713114	-0.964560	-0.184199
H122	H	1.781004	-0.894225	-0.201001
H123	H	1.694592	-0.894919	-0.115449
C124	C	1.722196	-0.803628	-0.561106
C125	C	1.789290	-0.863475	-0.580207
C126	C	1.888835	-0.836873	-0.607096
H127	H	1.749232	-0.774697	-0.505125
H128	H	1.717174	-0.773925	-0.622388
H129	H	1.794316	-0.893166	-0.518932
H130	H	1.762288	-0.892411	-0.636193
H131	H	1.883813	-0.807170	-0.668378
H132	H	1.915860	-0.807943	-0.551111
H133	H	1.934368	-0.877475	-0.620068
C134	C	1.314378	-0.911082	-0.451607
C135	C	1.241153	-0.886116	-0.525284
C136	C	1.141560	-0.912809	-0.498757
H137	H	1.295553	-0.893503	-0.384020
H138	H	1.315313	-0.963710	-0.451243
H139	H	1.240215	-0.833499	-0.525637
H140	H	1.259943	-0.903693	-0.592877
H141	H	1.142496	-0.965437	-0.498393
H142	H	1.122746	-0.895229	-0.431168
H143	H	1.091867	-0.895880	-0.548747
H144	H	1.774831	-0.176454	-0.907249
H145	H	0.819735	-0.262596	-0.372072
C146	C	1.243826	-0.551526	-1.121219
C147	C	1.258253	-0.541343	-1.229055
C148	C	1.191152	-0.588792	-1.284112
H149	H	1.173199	-0.540705	-1.103353
H150	H	1.259165	-0.601447	-1.103294
H151	H	1.242906	-0.491433	-1.246972
H152	H	1.328866	-0.552170	-1.246952
H153	H	1.206491	-0.638713	-1.266188
H154	H	1.120529	-0.577967	-1.266238
H155	H	1.200938	-0.581894	-1.357284
H156	H	1.118325	-0.176292	-0.250347
H157	H	1.774873	-0.176399	-1.106320
