data_functionalizedCrystal
_audit_creation_method	'MofGen! by Chris Wilmer'
_symmetry_space_group_name_H-M	'P1'
_symmetry_Int_Tables_number	1
_symmetry_cell_setting	triclinic
loop_
_symmetry_equiv_pos_as_xyz
  x,y,z
_cell_length_a	10.654550
_cell_length_b	16.109301
_cell_length_c	9.130313
_cell_angle_alpha	89.997330
_cell_angle_beta	89.996220
_cell_angle_gamma	83.973192
loop_
_atom_site_label
_atom_site_type_symbol
_atom_site_fract_x
_atom_site_fract_y
_atom_site_fract_z
O1	O	1.666250	0.116770	-0.121925
O2	O	1.300621	0.127896	-0.121902
O3	O	1.493479	0.001362	-0.121899
O4	O	1.473391	0.243304	-0.121928
O5	O	1.493477	0.001365	0.121700
O6	O	1.300618	0.127899	0.121697
O7	O	1.666248	0.116774	0.121674
Cu8	Cu	1.483433	0.122337	0.143928
Cu9	Cu	1.483435	0.122333	-0.144156
O10	O	1.473389	0.243308	0.121671
C11	C	1.253832	0.127080	-0.000099
C12	C	1.114422	0.124636	-0.000090
C13	C	1.033926	0.199138	-0.000120
C14	C	0.902936	0.196836	-0.000145
C15	C	0.932952	0.045526	-0.000116
C16	C	1.063939	0.047828	-0.000081
C17	C	1.016595	0.286496	-0.000143
C18	C	0.885606	0.284194	-0.000168
C19	C	1.492665	-0.029616	-0.000099
C20	C	1.490225	-0.121926	-0.000097
C21	C	1.598991	-0.343552	-0.000127
C22	C	1.596689	-0.430286	-0.000139
C23	C	1.367868	-0.411772	-0.000119
C24	C	1.370172	-0.325040	-0.000117
C25	C	1.485737	-0.290932	-0.000114
C26	C	1.481131	-0.464399	-0.000127
C27	C	1.478634	-0.558440	-0.000140
C28	C	1.488234	-0.196885	-0.000104
C29	C	1.713036	0.117589	-0.000132
C30	C	1.852446	0.120033	-0.000151
C31	C	1.474204	0.274286	-0.000132
C32	C	1.476643	0.366595	-0.000144
N33	N	1.483440	0.122339	0.346551
N34	N	1.483438	0.122324	-0.346779
C35	C	1.568859	0.066329	0.423204
C36	C	1.568856	0.066319	0.576541
C37	C	1.398010	0.178336	0.576558
C38	C	1.398008	0.178342	0.423223
C39	C	1.667500	0.001659	0.423195
C40	C	1.667497	0.001649	0.576532
H41	H	0.839575	0.310596	0.104997
C42	C	0.925130	0.357866	-0.221258
C43	C	0.828654	0.328624	-0.137801
H44	H	0.889968	0.385291	-0.306224
H45	H	0.967100	0.395982	-0.164614
H46	H	0.983738	0.312154	-0.249555
H47	H	0.770050	0.374337	-0.109495
H48	H	0.786664	0.290506	-0.194455
C49	C	1.186591	0.334917	0.137485
C50	C	1.055580	0.332617	0.137476
H51	H	1.210655	0.363393	0.222440
H52	H	1.227288	0.279556	0.137504
H53	H	1.210675	0.363374	0.052524
H54	H	1.031496	0.304153	0.222432
H55	H	1.014868	0.387987	0.137470
H56	H	1.688912	-0.473126	-0.000152
C57	C	1.734346	-0.256766	0.125088
C58	C	1.726019	-0.306062	-0.000139
H59	H	1.812775	-0.233629	0.125077
H60	H	1.667237	-0.213015	0.125088
H61	H	1.728693	-0.290228	0.210026
H62	H	1.731663	-0.272598	-0.085077
H63	H	1.793147	-0.349819	-0.000153
C64	C	1.805299	0.110021	0.406408
C65	C	1.790227	0.029002	0.359001
H66	H	1.881070	0.126903	0.366791
H67	H	1.735620	0.147172	0.374269
H68	H	1.809451	0.110929	0.510317
H69	H	1.786065	0.028095	0.255091
H70	H	1.859924	-0.008159	0.391131
H71	H	1.273779	-0.439553	-0.000118
H72	H	1.328442	0.223942	0.360814
H73	H	1.051874	0.314310	-0.105318
C74	C	1.143751	-0.315444	-0.000082
C75	C	1.245673	-0.267193	-0.000098
H76	H	1.066897	-0.279730	-0.000065
H77	H	1.147606	-0.349653	-0.085025
H78	H	1.147620	-0.349662	0.084872
H79	H	1.241809	-0.232978	-0.085058
H80	H	1.241816	-0.232969	0.084855
H81	H	1.328452	0.223932	0.639001
H82	H	1.646924	-0.062245	0.381584
C83	C	1.601171	-0.133420	0.526529
C84	C	1.627468	-0.079884	0.640747
H85	H	1.576479	-0.183758	0.566178
H86	H	1.534730	-0.107212	0.468005
H87	H	1.674482	-0.145607	0.467956
H88	H	1.554154	-0.067691	0.699314
H89	H	1.693915	-0.106097	0.699295
C90	C	1.851075	-0.045958	0.717902
C91	C	1.797516	0.020877	0.632722
H92	H	1.931342	-0.034087	0.752584
H93	H	1.797564	-0.053874	0.798806
H94	H	1.860662	-0.095236	0.660074
H95	H	1.787920	0.070154	0.690554
H96	H	1.851039	0.028803	0.551807
H97	H	0.891833	-0.017009	-0.000131
C98	C	1.080446	-0.101965	-0.000036
C99	C	1.152423	-0.034066	-0.000032
H100	H	1.135075	-0.152524	-0.000013
H101	H	1.028710	-0.099707	0.084890
H102	H	1.028753	-0.099717	-0.085007
H103	H	1.204109	-0.036310	0.084945
H104	H	1.204180	-0.036324	-0.084967
