data_functionalizedCrystal
_audit_creation_method	'MofGen! by Chris Wilmer'
_symmetry_space_group_name_H-M	'P1'
_symmetry_Int_Tables_number	1
_symmetry_cell_setting	triclinic
loop_
_symmetry_equiv_pos_as_xyz
  x,y,z
_cell_length_a	18.101397
_cell_length_b	13.032951
_cell_length_c	13.032268
_cell_angle_alpha	89.114265
_cell_angle_beta	97.146182
_cell_angle_gamma	97.178341
loop_
_atom_site_label
_atom_site_type_symbol
_atom_site_fract_x
_atom_site_fract_y
_atom_site_fract_z
Zn1	Zn	-0.500182	-1.498455	-0.780837
Zn2	Zn	-0.000182	-0.998455	-0.280837
Zn3	Zn	-0.610520	-1.520193	-0.608849
Zn4	Zn	-0.110520	-1.020193	-0.108849
Zn5	Zn	-0.469240	-1.348315	-0.587076
Zn6	Zn	0.030760	-0.848315	-0.087076
Zn7	Zn	-0.606509	-1.326442	-0.758969
Zn8	Zn	-0.106509	-0.826442	-0.258969
O9	O	-0.546613	-1.423351	-0.683933
O10	O	-0.046613	-0.923351	-0.183933
O11	O	-0.529446	-1.645258	-0.776286
O12	O	-0.029446	-1.145258	-0.276286
O13	O	-0.580508	-1.515644	-0.462046
O14	O	-0.080508	-1.015644	0.037954
O15	O	-0.369720	-1.368288	-0.612819
O16	O	0.130280	-0.868288	-0.112819
O17	O	-0.610511	-1.661229	-0.649927
O18	O	-0.110511	-1.161229	-0.149927
O19	O	-0.392453	-1.478595	-0.755174
O20	O	0.107547	-0.978595	-0.255174
O21	O	-0.476711	-1.389366	-0.446049
O22	O	0.023289	-0.889366	0.053951
O23	O	-0.472821	-1.201494	-0.591615
O24	O	0.027179	-0.701494	-0.091615
O25	O	-0.603675	-1.331008	-0.905785
O26	O	-0.103675	-0.831008	-0.405785
O27	O	-0.573672	-1.185424	-0.717904
O28	O	-0.073672	-0.685424	-0.217904
O29	O	-0.525557	-1.457385	-0.921852
O30	O	-0.025557	-0.957385	-0.421852
O31	O	-0.713612	-1.494435	-0.628723
O32	O	-0.213612	-0.994435	-0.128723
O33	O	-0.710665	-1.352087	-0.739016
O34	O	-0.210665	-0.852087	-0.239016
C35	C	-0.519454	-1.156142	-0.650024
C36	C	-0.019454	-0.656142	-0.150024
C37	C	-0.507856	-1.041826	-0.635542
C38	C	-0.007856	-0.541826	-0.135542
C39	C	-0.739012	-1.423271	-0.683885
C40	C	-0.239012	-0.923271	-0.183885
C41	C	-0.821333	-1.423327	-0.683911
C42	C	-0.321333	-0.923327	-0.183911
C43	C	-0.552649	-0.982948	-0.691477
C44	C	-0.052649	-0.482948	-0.191477
C45	C	-0.540662	-0.864796	-0.676511
C46	C	-0.040662	-0.364796	-0.176511
C47	C	-0.972051	-1.423385	-0.683954
C48	C	-0.472051	-0.923385	-0.183954
C49	C	-1.005241	-1.513015	-0.614647
C50	C	-0.505241	-1.013015	-0.114647
C51	C	-1.090817	-1.512854	-0.614330
C52	C	-0.590817	-1.012854	-0.114330
C53	C	-1.120442	-1.423443	-0.683996
C54	C	-0.620442	-0.923443	-0.183996
C55	C	-1.076119	-1.318685	-0.641072
C56	C	-0.576119	-0.818685	-0.141072
C57	C	-0.990470	-1.319184	-0.640529
C58	C	-0.490470	-0.819184	-0.140529
C59	C	-1.014925	-1.437553	-0.796272
C60	C	-0.514925	-0.937553	-0.296272
C61	C	-1.100777	-1.440052	-0.796020
C62	C	-0.600777	-0.940052	-0.296020
C63	C	-1.204306	-1.423470	-0.684021
C64	C	-0.704306	-0.923470	-0.184021
C65	C	-0.888186	-1.423351	-0.683925
C66	C	-0.388186	-0.923351	-0.183925
C67	C	-0.353467	-1.423457	-0.684007
C68	C	0.146533	-0.923457	-0.184007
C69	C	-0.271160	-1.423501	-0.684039
C70	C	0.228840	-0.923501	-0.184039
C71	C	-0.567620	-1.389332	-0.952178
C72	C	-0.067620	-0.889332	-0.452178
C73	C	-0.576572	-1.374835	-1.066487
C74	C	-0.076572	-0.874835	-0.566487
C75	C	-0.573869	-0.691604	-0.717968
C76	C	-0.073869	-0.191604	-0.217968
C77	C	-0.585461	-0.805920	-0.732454
C78	C	-0.085461	-0.305920	-0.232454
C79	C	-0.541912	-1.430901	-1.125400
C80	C	-0.041912	-0.930901	-0.625400
C81	C	-0.551164	-1.415919	-1.243545
C82	C	-0.051164	-0.915919	-0.743545
C83	C	-0.525640	-1.457297	-0.416739
C84	C	-0.025640	-0.957297	0.083261
C85	C	-0.516499	-1.471993	-0.302455
C86	C	-0.016499	-0.971993	0.197545
H87	H	-0.599869	-1.020012	-0.750449
H88	H	-0.099869	-0.520012	-0.250449
H89	H	-1.094691	-1.250699	-0.689412
H90	H	-0.594691	-0.750699	-0.189412
H91	H	-0.632683	-0.842978	-0.791433
H92	H	-0.132683	-0.342978	-0.291433
C93	C	-0.492567	-1.510730	-1.075379
C94	C	0.007433	-1.010730	-0.575379
N95	N	-0.455400	-1.570860	-1.037706
N96	N	0.044600	-1.070860	-0.537706
C97	C	-1.132113	-1.618373	-0.652717
C98	C	-0.632113	-1.118373	-0.152717
N99	N	-1.163214	-1.697857	-0.681622
N100	N	-0.663214	-1.197857	-0.181622
H101	H	-0.613090	-1.315737	-1.103516
H102	H	-0.113090	-0.815737	-0.603516
C103	C	-0.999164	-1.538002	-0.845500
C104	C	-0.499164	-1.038002	-0.345500
N105	N	-0.987293	-1.613667	-0.882568
N106	N	-0.487293	-1.113667	-0.382568
H107	H	-0.460630	-1.004761	-0.576578
H108	H	0.039370	-0.504761	-0.076578
H109	H	-0.994208	-1.591381	-0.642884
H110	H	-0.494208	-1.091381	-0.142884
C111	C	-0.600506	-1.336079	-1.293560
C112	C	-0.100506	-0.836079	-0.793560
N113	N	-0.637669	-1.275945	-1.331233
N114	N	-0.137669	-0.775945	-0.831233
C115	C	-0.476860	-0.814734	-0.596842
C116	C	0.023140	-0.314734	-0.096842
N117	N	-0.428806	-0.777025	-0.536835
N118	N	0.071194	-0.277025	-0.036835
C119	C	-0.965230	-1.502016	-0.503247
C120	C	-0.465230	-1.002016	-0.003247
N121	N	-0.935094	-1.493727	-0.419340
N122	N	-0.435094	-0.993727	0.080660
H123	H	-1.103151	-1.504563	-0.531397
H124	H	-0.603151	-1.004563	-0.031397
C125	C	-1.141445	-1.544109	-0.839421
C126	C	-0.641445	-1.044109	-0.339421
N127	N	-1.172081	-1.622485	-0.872108
N128	N	-0.672081	-1.122485	-0.372108
C129	C	-0.985858	-1.349143	-0.866260
C130	C	-0.485858	-0.849143	-0.366260
N131	N	-0.963959	-1.282552	-0.918968
N132	N	-0.463959	-0.782552	-0.418968
H133	H	-0.479969	-1.531083	-1.265431
H134	H	0.020031	-1.031083	-0.765431
H135	H	-0.961903	-1.305603	-0.558026
H136	H	-0.461903	-0.805603	-0.058026
C137	C	-0.959919	-1.226889	-0.704786
C138	C	-0.459919	-0.726889	-0.204786
N139	N	-0.936911	-1.157374	-0.753186
N140	N	-0.436911	-0.657374	-0.253186
C141	C	-1.128900	-1.356844	-0.871005
C142	C	-0.628900	-0.856844	-0.371005
N143	N	-1.150079	-1.294162	-0.927480
N144	N	-0.650079	-0.794162	-0.427480
C145	C	-1.093521	-1.299660	-0.530732
C146	C	-0.593521	-0.799660	-0.030732
N147	N	-1.106625	-1.285338	-0.447621
N148	N	-0.606625	-0.785338	0.052379
