data_functionalizedCrystal
_audit_creation_method	'MofGen! by Chris Wilmer'
_symmetry_space_group_name_H-M	'P1'
_symmetry_Int_Tables_number	1
_symmetry_cell_setting	triclinic
loop_
_symmetry_equiv_pos_as_xyz
  x,y,z
_cell_length_a	14.519709
_cell_length_b	15.944493
_cell_length_c	12.996460
_cell_angle_alpha	89.999729
_cell_angle_beta	90.000034
_cell_angle_gamma	83.577594
loop_
_atom_site_label
_atom_site_type_symbol
_atom_site_fract_x
_atom_site_fract_y
_atom_site_fract_z
O1	O	1.223651	0.110112	-0.085419
O2	O	1.473651	0.360112	0.164581
O3	O	1.723651	0.610112	0.414581
O4	O	1.973651	0.860112	0.664581
O5	O	0.955148	0.123079	-0.085449
O6	O	1.205148	0.373079	0.164551
O7	O	1.455148	0.623079	0.414551
O8	O	1.705148	0.873079	0.664551
O9	O	1.096760	-0.005672	-0.085442
O10	O	1.346760	0.244328	0.164558
O11	O	1.596760	0.494328	0.414558
O12	O	1.846760	0.744328	0.664558
O13	O	1.082040	0.238863	-0.085426
O14	O	1.332040	0.488863	0.164574
O15	O	1.582040	0.738863	0.414574
O16	O	1.832040	0.988863	0.664574
O17	O	1.096745	-0.005679	0.085692
O18	O	1.346745	0.244321	0.335692
O19	O	1.596745	0.494321	0.585692
O20	O	1.846745	0.744321	0.835692
O21	O	0.955134	0.123072	0.085685
O22	O	1.205134	0.373072	0.335685
O23	O	1.455134	0.623072	0.585685
O24	O	1.705134	0.873072	0.835685
O25	O	1.223636	0.110105	0.085715
O26	O	1.473636	0.360105	0.335715
O27	O	1.723636	0.610105	0.585715
O28	O	1.973636	0.860105	0.835715
Cu29	Cu	1.089384	0.116588	0.101326
Cu30	Cu	1.339384	0.366588	0.351326
Cu31	Cu	1.589384	0.616588	0.601326
Cu32	Cu	1.839384	0.866588	0.851326
Cu33	Cu	1.089401	0.116596	-0.101060
Cu34	Cu	1.339401	0.366596	0.148940
Cu35	Cu	1.589401	0.616596	0.398940
Cu36	Cu	1.839401	0.866596	0.648940
O37	O	1.082025	0.238856	0.085708
O38	O	1.332025	0.488856	0.335708
O39	O	1.582025	0.738856	0.585708
O40	O	1.832025	0.988856	0.835708
C41	C	0.920783	0.122471	0.000114
C42	C	1.170783	0.372471	0.250114
C43	C	1.420783	0.622471	0.500114
C44	C	1.670783	0.872471	0.750114
C45	C	0.818405	0.120660	0.000102
C46	C	1.068405	0.370660	0.250102
C47	C	1.318405	0.620660	0.500102
C48	C	1.568405	0.870660	0.750102
C49	C	0.443522	0.113994	0.000148
C50	C	0.693522	0.363994	0.250148
C51	C	0.943522	0.613994	0.500148
C52	C	1.193522	0.863994	0.750148
C53	C	0.547826	0.115845	0.000135
C54	C	0.797826	0.365845	0.250135
C55	C	1.047826	0.615845	0.500135
C56	C	1.297826	0.865845	0.750135
C57	C	0.630960	0.117327	0.000124
C58	C	0.880960	0.367327	0.250124
C59	C	1.130960	0.617327	0.500124
C60	C	1.380960	0.867327	0.750124
C61	C	0.735271	0.119178	0.000113
C62	C	0.985271	0.369178	0.250113
C63	C	1.235271	0.619178	0.500113
C64	C	1.485271	0.869178	0.750113
C65	C	1.096151	-0.036971	0.000121
C66	C	1.346151	0.213029	0.250121
C67	C	1.596151	0.463029	0.500121
C68	C	1.846151	0.713029	0.750121
C69	C	1.094347	-0.130222	0.000107
C70	C	1.344347	0.119778	0.250107
C71	C	1.594347	0.369778	0.500107
C72	C	1.844347	0.619778	0.750107
C73	C	1.177703	-0.365861	0.000136
C74	C	1.427703	-0.115861	0.250136
C75	C	1.677703	0.134139	0.500136
C76	C	1.927703	0.384139	0.750136
C77	C	1.132759	-0.416491	-0.084246
C78	C	1.382759	-0.166491	0.165754
C79	C	1.632759	0.083509	0.415754
C80	C	1.882759	0.333509	0.665754
C81	C	1.091005	-0.300948	0.000120
C82	C	1.341005	-0.050948	0.250120
C83	C	1.591005	0.199052	0.500120
C84	C	1.841005	0.449052	0.750120
C85	C	1.132725	-0.416474	0.084478
C86	C	1.382725	-0.166474	0.334478
C87	C	1.632725	0.083526	0.584478
C88	C	1.882725	0.333526	0.834478
C89	C	1.087783	-0.465863	0.000136
C90	C	1.337783	-0.215863	0.250136
C91	C	1.587783	0.034137	0.500136
C92	C	1.837783	0.284137	0.750136
C93	C	1.046085	-0.350350	-0.084332
C94	C	1.296085	-0.100350	0.165668
C95	C	1.546085	0.149650	0.415668
C96	C	1.796085	0.399650	0.665668
C97	C	1.046063	-0.350330	0.084468
C98	C	1.296063	-0.100330	0.334468
C99	C	1.546063	0.149670	0.584468
C100	C	1.796063	0.399670	0.834468
C101	C	1.001056	-0.400926	0.000065
C102	C	1.251056	-0.150926	0.250065
C103	C	1.501056	0.099074	0.500065
C104	C	1.751056	0.349074	0.750065
C105	C	1.092863	-0.205946	0.000109
C106	C	1.342863	0.044054	0.250109
C107	C	1.592863	0.294054	0.500109
C108	C	1.842863	0.544054	0.750109
C109	C	1.085918	-0.560862	0.000139
C110	C	1.335918	-0.310862	0.250139
C111	C	1.585918	-0.060862	0.500139
C112	C	1.835918	0.189138	0.750139
C113	C	1.258002	0.110713	0.000150
C114	C	1.508002	0.360713	0.250150
C115	C	1.758002	0.610713	0.500150
C116	C	2.008002	0.860713	0.750150
C117	C	1.360380	0.112524	0.000155
C118	C	1.610380	0.362524	0.250155
C119	C	1.860380	0.612524	0.500155
C120	C	2.110380	0.862524	0.750155
C121	C	1.082634	0.270155	0.000143
C122	C	1.332634	0.520155	0.250143
C123	C	1.582634	0.770155	0.500143
C124	C	1.832634	1.020155	0.750143
C125	C	1.084438	0.363406	0.000149
C126	C	1.334438	0.613406	0.250149
C127	C	1.584438	0.863406	0.500149
C128	C	1.834438	1.113406	0.750149
N129	N	1.089378	0.116581	0.243673
N130	N	1.339378	0.366581	0.493673
N131	N	1.589378	0.616581	0.743673
N132	N	1.839378	0.866581	0.993673
N133	N	1.089414	0.116596	-0.243407
N134	N	1.339414	0.366596	0.006593
N135	N	1.589414	0.616596	0.256593
N136	N	1.839414	0.866596	0.506593
C137	C	1.089400	0.116597	0.663487
C138	C	1.339400	0.366597	0.913487
C139	C	1.589400	0.616597	1.163487
C140	C	1.839400	0.866597	1.413487
C141	C	1.089391	0.116596	0.546682
C142	C	1.339391	0.366596	0.796682
C143	C	1.589391	0.616596	1.046682
C144	C	1.839391	0.866596	1.296682
C145	C	1.089389	0.116590	0.453584
C146	C	1.339389	0.366590	0.703584
C147	C	1.589389	0.616590	0.953584
C148	C	1.839389	0.866590	1.203584
C149	C	1.089380	0.116587	0.336771
C150	C	1.339380	0.366587	0.586771
C151	C	1.589380	0.616587	0.836771
C152	C	1.839380	0.866587	1.086771
H153	H	1.252382	-0.350125	0.000060
H154	H	1.502382	-0.100125	0.250060
H155	H	1.752382	0.149875	0.500060
H156	H	2.002382	0.399875	0.750060
Cl157	Cl	1.189296	-0.461098	-0.194375
Cl158	Cl	1.439296	-0.211098	0.055625
Cl159	Cl	1.689296	0.038902	0.305625
Cl160	Cl	1.939296	0.288902	0.555625
H161	H	1.009475	-0.321425	0.155802
H162	H	1.259475	-0.071425	0.405802
H163	H	1.509475	0.178575	0.655802
H164	H	1.759475	0.428575	0.905802
Cl165	Cl	0.989602	-0.305938	-0.194596
Cl166	Cl	1.239602	-0.055938	0.055404
Cl167	Cl	1.489602	0.194062	0.305404
Cl168	Cl	1.739602	0.444062	0.555404
H169	H	1.169350	-0.445355	0.155812
H170	H	1.419350	-0.195355	0.405812
H171	H	1.669350	0.054645	0.655812
H172	H	1.919350	0.304645	0.905812
H173	H	0.926319	-0.416501	0.000011
H174	H	1.176319	-0.166501	0.250011
H175	H	1.426319	0.083499	0.500011
H176	H	1.676319	0.333499	0.750011
