data_functionalizedCrystal
_audit_creation_method	'MofGen! by Chris Wilmer'
_symmetry_space_group_name_H-M	'P1'
_symmetry_Int_Tables_number	1
_symmetry_cell_setting	triclinic
loop_
_symmetry_equiv_pos_as_xyz
  x,y,z
_cell_length_a	17.077404
_cell_length_b	13.032721
_cell_length_c	17.077396
_cell_angle_alpha	97.153695
_cell_angle_beta	89.981638
_cell_angle_gamma	97.202376
loop_
_atom_site_label
_atom_site_type_symbol
_atom_site_fract_x
_atom_site_fract_y
_atom_site_fract_z
Zn1	Zn	1.160369	-0.416096	-0.483506
Zn2	Zn	1.143608	-0.590861	-0.368909
Zn3	Zn	1.029098	-0.416126	-0.352259
Zn4	Zn	1.012407	-0.590792	-0.500129
O5	O	1.086370	-0.503469	-0.426201
O6	O	1.267991	-0.439296	-0.468316
O7	O	1.128388	-0.567724	-0.256857
O8	O	1.060511	-0.269884	-0.355745
O9	O	1.255676	-0.567695	-0.384122
O10	O	1.156955	-0.269862	-0.452171
O11	O	1.044258	-0.439346	-0.244625
O12	O	0.917038	-0.439280	-0.371863
O13	O	1.032064	-0.567577	-0.607767
O14	O	0.904776	-0.567606	-0.480502
O15	O	1.140771	-0.439229	-0.595554
O16	O	1.112204	-0.737091	-0.400240
O17	O	1.015811	-0.737040	-0.496647
C18	C	0.882425	-0.503439	-0.426180
C19	C	0.795174	-0.503452	-0.426193
C20	C	0.760586	-0.436713	-0.470120
C21	C	0.678605	-0.436720	-0.470125
C22	C	0.631213	-0.503471	-0.426205
C23	C	0.665807	-0.570213	-0.382272
C24	C	0.747787	-0.570200	-0.382264
C25	C	0.494935	-0.570237	-0.382294
C26	C	0.412949	-0.570251	-0.382303
C27	C	0.425752	-0.436756	-0.470155
C28	C	0.507732	-0.436744	-0.470146
C29	C	0.542321	-0.503487	-0.426214
C30	C	1.060399	-0.774983	-0.452071
C31	C	1.049360	-0.891138	-0.463165
C32	C	1.092173	-0.942914	-0.420446
C33	C	1.080765	-1.062966	-0.431911
C34	C	1.291112	-0.503499	-0.426222
C35	C	1.378360	-0.503512	-0.426231
C36	C	1.086425	-0.503392	-0.630938
C37	C	1.086449	-0.503359	-0.718184
C38	C	1.112465	-0.230895	-0.400247
C39	C	1.123585	-0.114740	-0.389187
C40	C	1.143055	-0.436523	-0.752816
C41	C	1.143067	-0.436488	-0.834793
C42	C	1.086477	-0.503296	-0.882138
C43	C	1.029865	-0.570135	-0.847501
C44	C	1.029849	-0.570164	-0.765524
C45	C	1.029902	-0.570072	-1.018365
C46	C	1.029919	-0.570045	-1.100347
C47	C	1.143121	-0.436396	-1.087634
C48	C	1.143105	-0.436425	-1.005658
C49	C	1.086494	-0.503266	-0.971026
C50	C	1.086368	-0.503470	-0.222253
C51	C	1.086525	-0.503209	-0.134979
H52	H	0.397587	-0.382410	-0.505924
H53	H	0.983836	-0.624444	-1.138893
H54	H	0.775948	-0.624545	-0.346493
H55	H	1.168692	-1.070194	-0.344126
H56	H	0.374364	-0.624607	-0.346540
H57	H	0.799167	-0.382359	-0.505887
H58	H	0.523094	-0.624583	-0.346517
H59	H	1.004262	-0.935689	-0.508228
O60	O	0.974992	-0.635161	-0.984766
C61	C	0.919874	-0.812935	-0.976629
C62	C	0.982096	-0.739335	-1.014729
H63	H	0.925585	-0.897175	-1.000850
H64	H	0.929588	-0.801568	-0.909907
H65	H	0.858340	-0.794537	-0.990963
H66	H	1.043655	-0.757688	-1.000456
H67	H	0.972313	-0.750717	-1.081441
H68	H	1.189140	-0.382123	-0.714274
H69	H	1.189163	-0.382065	-0.862987
H70	H	0.650447	-0.382377	-0.505897
H71	H	0.546316	-0.382395	-0.505915
O72	O	0.619727	-0.635167	-0.339731
C73	C	0.513652	-0.776214	-0.342445
C74	C	0.565793	-0.702731	-0.390718
H75	H	0.470023	-0.830843	-0.383646
H76	H	0.552415	-0.823988	-0.311067
H77	H	0.479881	-0.728150	-0.296869
H78	H	0.599573	-0.750714	-0.436335
H79	H	0.526989	-0.654953	-0.422042
O80	O	1.198112	-0.371432	-0.959778
C81	C	1.310422	-0.238910	-0.955818
C82	C	1.248163	-0.312446	-1.007868
H83	H	1.350916	-0.191216	-0.994679
H84	H	1.279650	-0.184207	-0.912245
H85	H	1.346828	-0.286930	-0.921994
H86	H	1.211739	-0.264511	-1.041742
H87	H	1.278984	-0.367152	-1.051392
O88	O	1.145921	-0.889614	-0.366698
C89	C	1.206356	-0.721364	-0.306322
C90	C	1.145444	-0.781592	-0.367208
H91	H	1.206002	-0.634017	-0.306726
H92	H	1.190588	-0.742753	-0.245025
H93	H	1.267617	-0.742745	-0.322183
H94	H	1.084161	-0.760242	-0.351421
H95	H	1.161279	-0.760198	-0.428489
O96	O	1.198028	-0.371485	-1.121393
C97	C	1.248237	-0.312224	-1.242050
C98	C	1.186003	-0.385768	-1.203914
H99	H	1.238547	-0.323762	-1.308775
H100	H	1.242511	-0.227944	-1.217955
H101	H	1.309768	-0.330572	-1.227649
H102	H	1.124445	-0.367514	-1.218301
H103	H	1.191799	-0.470027	-1.228011
O104	O	0.974790	-0.634922	-0.893442
C105	C	0.836414	-0.685666	-0.923298
C106	C	0.898703	-0.612209	-0.871230
H107	H	0.774882	-0.667344	-0.905347
H108	H	0.846080	-0.674167	-0.987847
H109	H	0.842170	-0.769931	-0.915210
H110	H	0.892984	-0.527916	-0.879249
H111	H	0.889018	-0.623799	-0.806700
O112	O	0.974941	-0.635247	-0.731926
C113	C	0.919802	-0.813013	-0.723787
C114	C	0.982035	-0.739426	-0.761885
H115	H	0.925505	-0.897256	-0.748006
H116	H	0.929511	-0.801645	-0.657065
H117	H	0.858272	-0.794604	-0.738126
H118	H	1.043590	-0.757790	-0.747607
H119	H	0.972256	-0.750808	-0.828598
H120	H	1.035665	-1.107513	-0.476978
