data_functionalizedCrystal
_audit_creation_method	'MofGen! by Chris Wilmer'
_symmetry_space_group_name_H-M	'P1'
_symmetry_Int_Tables_number	1
_symmetry_cell_setting	triclinic
loop_
_symmetry_equiv_pos_as_xyz
  x,y,z
_cell_length_a	18.215407
_cell_length_b	13.897448
_cell_length_c	18.215407
_cell_angle_alpha	90.007314
_cell_angle_beta	90.009795
_cell_angle_gamma	90.018140
loop_
_atom_site_label
_atom_site_type_symbol
_atom_site_fract_x
_atom_site_fract_y
_atom_site_fract_z
Zn1	Zn	1.125036	-0.384194	0.416124
Zn2	Zn	1.625036	0.115806	0.916124
Zn3	Zn	1.124981	-0.545450	0.293061
Zn4	Zn	1.624981	-0.045450	0.793061
Zn5	Zn	1.001990	-0.384172	0.293071
Zn6	Zn	1.501990	0.115828	0.793071
Zn7	Zn	1.001950	-0.545450	0.416086
Zn8	Zn	1.501950	-0.045450	0.916086
O9	O	1.063489	-0.464817	0.354586
O10	O	1.563489	0.035183	0.854586
O11	O	1.228013	-0.405595	0.399811
O12	O	1.728013	0.094405	0.899811
O13	O	1.108660	-0.524047	0.190078
O14	O	1.608660	-0.024047	0.690078
O15	O	1.018352	-0.249194	0.309415
O16	O	1.518352	0.250806	0.809415
O17	O	1.227973	-0.524069	0.309397
O18	O	1.727973	-0.024069	0.809397
O19	O	1.108753	-0.249210	0.399821
O20	O	1.608753	0.250790	0.899821
O21	O	1.018299	-0.405557	0.190086
O22	O	1.518299	0.094443	0.690086
O23	O	0.899000	-0.405557	0.309378
O24	O	1.399000	0.094443	0.809378
O25	O	1.018283	-0.524068	0.519075
O26	O	1.518283	-0.024068	1.019075
O27	O	0.898971	-0.524047	0.399756
O28	O	1.398971	-0.024047	0.899756
O29	O	1.108714	-0.405594	0.519103
O30	O	1.608714	0.094406	1.019103
O31	O	1.108621	-0.680432	0.309361
O32	O	1.608621	-0.180432	0.809361
O33	O	1.018230	-0.680432	0.399746
O34	O	1.518230	-0.180432	0.899746
C35	C	0.872283	-0.464800	0.354565
C36	C	1.372283	0.035200	0.854565
C37	C	0.790484	-0.464816	0.354573
C38	C	1.290484	0.035184	0.854573
C39	C	0.602294	-0.526611	0.401574
C40	C	1.102294	-0.026611	0.901574
C41	C	0.525435	-0.526614	0.401583
C42	C	1.025435	-0.026614	0.901583
C43	C	0.525436	-0.403040	0.307613
C44	C	1.025436	0.096960	0.807613
C45	C	0.602294	-0.403033	0.307609
C46	C	1.102294	0.096967	0.807609
C47	C	0.640721	-0.464824	0.354588
C48	C	1.140721	0.035176	0.854588
C49	C	0.487004	-0.464834	0.354602
C50	C	0.987004	0.035166	0.854602
C51	C	0.403671	-0.464837	0.354611
C52	C	0.903671	0.035163	0.854611
C53	C	0.724059	-0.464820	0.354579
C54	C	1.224059	0.035180	0.854579
C55	C	1.063435	-0.715431	0.354564
C56	C	1.563435	-0.215431	0.854564
C57	C	1.063480	-0.822645	0.354580
C58	C	1.563480	-0.322645	0.854580
C59	C	1.063557	-1.018940	0.354626
C60	C	1.563557	-0.518940	0.854626
C61	C	1.063512	-0.909708	0.354603
C62	C	1.563512	-0.409708	0.854603
C63	C	1.255442	-0.464834	0.354607
C64	C	1.755442	0.035166	0.854607
C65	C	1.337241	-0.464841	0.354616
C66	C	1.837241	0.035159	0.854616
C67	C	1.063500	-0.464834	0.546539
C68	C	1.563500	0.035166	1.046539
C69	C	1.063505	-0.464841	0.628337
C70	C	1.563505	0.035159	1.128337
C71	C	1.063563	-0.213224	0.354623
C72	C	1.563563	0.286776	0.854623
C73	C	1.063595	-0.106010	0.354639
C74	C	1.563595	0.393990	0.854639
C75	C	1.110545	-0.526520	0.893395
C76	C	1.610545	-0.026520	1.393395
C77	C	1.110547	-0.526524	0.816537
C78	C	1.610547	-0.026524	1.316537
C79	C	1.016444	-0.403147	0.816528
C80	C	1.516444	0.096853	1.316528
C81	C	1.016439	-0.403148	0.893385
C82	C	1.516439	0.096852	1.393385
C83	C	1.063494	-0.464833	0.931817
C84	C	1.563494	0.035167	1.431817
C85	C	1.063501	-0.464836	0.778101
C86	C	1.563501	0.035164	1.278101
C87	C	1.063502	-0.464841	0.694767
C88	C	1.563502	0.035159	1.194767
C89	C	1.063492	-0.464830	1.015156
C90	C	1.563492	0.035170	1.515156
C91	C	1.063478	-0.464825	1.163379
C92	C	1.563478	0.035175	1.663379
C93	C	1.063489	-0.464829	1.081580
C94	C	1.563489	0.035171	1.581580
H95	H	0.494140	-0.352733	0.269364
H96	H	0.994140	0.147267	0.769364
H97	H	0.633581	-0.352712	0.269347
H98	H	1.133581	0.147288	0.769347
O99	O	1.156185	-0.586414	0.779101
O100	O	1.656185	-0.086414	1.279101
C101	C	1.146113	-0.573175	0.703023
C102	C	1.646113	-0.073175	1.203023
H103	H	1.089327	-0.541587	0.692515
H104	H	1.589327	-0.041587	1.192515
H105	H	1.189778	-0.521808	0.681225
H106	H	1.689778	-0.021808	1.181225
C107	C	1.222585	-0.709571	0.676464
C108	C	1.722585	-0.209571	1.176464
C109	C	1.152836	-0.670782	0.663558
C110	C	1.652836	-0.170782	1.163558
H111	H	1.226734	-0.769778	0.652119
H112	H	1.726734	-0.269778	1.152119
H113	H	1.229373	-0.718489	0.727719
H114	H	1.729373	-0.218489	1.227719
H115	H	1.258964	-0.666756	0.658299
H116	H	1.758964	-0.166756	1.158299
H117	H	1.116458	-0.713591	0.681731
H118	H	1.616458	-0.213591	1.181731
H119	H	1.146042	-0.661874	0.612305
H120	H	1.646042	-0.161874	1.112305
O121	O	0.970812	-0.343254	0.779080
O122	O	1.470812	0.156746	1.279080
C123	C	0.980893	-0.356493	0.703004
C124	C	1.480893	0.143507	1.203004
H125	H	1.037680	-0.388086	0.692517
H126	H	1.537680	0.111914	1.192517
H127	H	0.937230	-0.407858	0.681176
H128	H	1.437230	0.092142	1.181176
C129	C	0.904432	-0.220091	0.676435
C130	C	1.404432	0.279909	1.176435
C131	C	0.974181	-0.258887	0.663555
C132	C	1.474181	0.241113	1.163555
H133	H	0.900288	-0.159884	0.652100
H134	H	1.400288	0.340116	1.152100
H135	H	0.897637	-0.211173	0.727689
H136	H	1.397637	0.288827	1.227689
H137	H	0.868053	-0.262904	0.658245
H138	H	1.368053	0.237096	1.158245
H139	H	1.010558	-0.216080	0.681753
H140	H	1.510558	0.283920	1.181753
H141	H	0.980981	-0.267795	0.612303
H142	H	1.480981	0.232205	1.112303
H143	H	0.978121	-0.352914	0.924669
H144	H	1.478121	0.147086	1.424669
O145	O	0.488027	-0.586684	0.447122
O146	O	0.988027	-0.086684	0.947122
C147	C	0.443559	-0.648915	0.405144
C148	C	0.943559	-0.148915	0.905144
H149	H	0.432035	-0.614778	0.349420
H150	H	0.932035	-0.114778	0.849420
H151	H	0.473163	-0.720378	0.396960
H152	H	0.973163	-0.220378	0.896960
C153	C	0.384714	-0.708399	0.514063
C154	C	0.884714	-0.208399	1.014063
C155	C	0.370555	-0.666467	0.445623
C156	C	0.870555	-0.166467	0.945623
H157	H	0.339683	-0.719230	0.539033
H158	H	0.839683	-0.219230	1.039033
H159	H	0.414674	-0.666475	0.542345
H160	H	0.914674	-0.166475	1.042345
H161	H	0.409385	-0.767947	0.507233
H162	H	0.909385	-0.267947	1.007233
H163	H	0.345893	-0.606915	0.452454
H164	H	0.845893	-0.106915	0.952454
H165	H	0.340589	-0.708381	0.417344
H166	H	0.840589	-0.208381	0.917344
H167	H	1.148859	-0.576749	0.924684
H168	H	1.648859	-0.076749	1.424684
O169	O	0.639590	-0.586522	0.447318
O170	O	1.139590	-0.086522	0.947318
C171	C	0.620815	-0.565605	0.520693
C172	C	1.120815	-0.065605	1.020693
H173	H	0.599703	-0.488556	0.524506
H174	H	1.099703	0.011444	1.024506
H175	H	0.576197	-0.617362	0.539866
H176	H	1.076197	-0.117362	1.039866
C177	C	0.715028	-0.671557	0.565107
C178	C	1.215028	-0.171557	1.065107
C179	C	0.689104	-0.576920	0.569792
C180	C	1.189104	-0.076920	1.069792
H181	H	0.757150	-0.678540	0.595395
H182	H	1.257150	-0.178540	1.095395
H183	H	0.727676	-0.685652	0.515673
H184	H	1.227676	-0.185652	1.015673
H185	H	0.677840	-0.714677	0.581083
H186	H	1.177840	-0.214677	1.081083
H187	H	0.726289	-0.533803	0.553806
H188	H	1.226289	-0.033803	1.053806
H189	H	0.676464	-0.562818	0.619224
H190	H	1.176464	-0.062818	1.119224
