data_functionalizedCrystal
_audit_creation_method	'MofGen! by Chris Wilmer'
_symmetry_space_group_name_H-M	'P1'
_symmetry_Int_Tables_number	1
_symmetry_cell_setting	triclinic
loop_
_symmetry_equiv_pos_as_xyz
  x,y,z
_cell_length_a	12.645331
_cell_length_b	12.645330
_cell_length_c	19.077579
_cell_angle_alpha	87.677471
_cell_angle_beta	87.691152
_cell_angle_gamma	90.013057
loop_
_atom_site_label
_atom_site_type_symbol
_atom_site_fract_x
_atom_site_fract_y
_atom_site_fract_z
Zn1	Zn	1.644768	-0.397970	-0.397887
Zn2	Zn	1.637567	-0.582372	-0.280196
Zn3	Zn	1.460385	-0.405123	-0.280213
Zn4	Zn	1.467479	-0.575195	-0.397863
O5	O	1.552550	-0.490165	-0.339040
O6	O	1.792160	-0.422442	-0.382279
O7	O	1.608080	-0.564856	-0.181707
O8	O	1.484889	-0.255826	-0.295840
O9	O	1.786869	-0.557921	-0.295811
O10	O	1.620355	-0.250571	-0.382295
O11	O	1.477906	-0.434632	-0.181720
O12	O	1.312979	-0.427673	-0.295816
O13	O	1.496979	-0.545689	-0.496357
O14	O	1.318190	-0.552624	-0.382253
O15	O	1.627233	-0.415483	-0.496375
O16	O	1.614959	-0.729768	-0.295788
O17	O	1.489996	-0.724495	-0.382237
C18	C	1.277120	-0.490147	-0.339035
C19	C	1.159291	-0.490164	-0.339049
C20	C	1.117718	-0.568915	-0.393347
C21	C	0.995148	-0.569262	-0.393186
C22	C	0.986860	-0.524491	-0.264784
C23	C	1.109477	-0.525051	-0.265099
C24	C	1.115300	-0.376951	-0.358367
C25	C	0.992793	-0.377471	-0.360002
C26	C	1.552496	-0.765596	-0.339023
C27	C	1.552571	-0.883425	-0.339040
C28	C	1.631047	-1.054268	-0.284544
C29	C	1.631321	-0.931700	-0.284678
C30	C	1.587346	-0.923323	-0.413228
C31	C	1.587977	-1.045938	-0.412939
C32	C	1.439332	-1.051899	-0.320078
C33	C	1.439769	-0.929395	-0.318414
C34	C	1.829055	-0.490184	-0.339046
C35	C	1.946885	-0.490192	-0.339048
C36	C	1.563701	-0.478987	-0.522618
C37	C	1.568453	-0.474224	-0.600848
C38	C	1.552634	-0.213658	-0.339072
C39	C	1.552670	-0.095827	-0.339086
C40	C	1.602536	-0.440138	-1.041201
C41	C	1.598064	-0.444618	-0.967696
C42	C	1.528007	-0.514644	-0.930937
C43	C	1.462425	-0.580201	-0.967688
C44	C	1.466902	-0.575725	-1.041192
C45	C	1.507348	-0.535305	-0.711103
C46	C	1.502873	-0.539773	-0.637593
C47	C	1.638515	-0.404192	-0.637606
C48	C	1.642982	-0.399718	-0.711112
C49	C	1.577403	-0.465278	-0.747856
N50	N	1.523432	-0.519223	-0.855803
N51	N	1.581984	-0.460704	-0.822989
C52	C	1.541503	-0.501223	-0.156176
C53	C	1.536956	-0.505687	-0.077947
H54	H	0.959954	-0.315341	-0.323369
H55	H	0.968415	-0.547338	-0.448242
H56	H	1.714447	-1.084247	-0.296975
N57	N	1.157471	-0.679288	-0.376582
H58	H	1.237405	-0.679343	-0.379033
H59	H	1.131166	-0.703027	-0.327777
N60	N	1.718519	-0.324166	-0.750757
H61	H	1.759380	-0.283312	-0.716325
H62	H	1.769428	-0.365444	-0.781256
N63	N	1.145437	-0.452681	-0.209652
H64	H	1.191221	-0.394442	-0.232438
H65	H	1.081585	-0.420635	-0.185134
N66	N	1.709255	-0.333500	-0.597973
H67	H	1.754317	-0.288463	-0.632414
H68	H	1.664269	-0.286289	-0.567483
H69	H	1.715176	-0.901532	-0.297249
H70	H	1.413629	-0.903699	-0.263818
N71	N	1.697892	-1.082429	-0.434249
H72	H	1.745479	-1.018869	-0.443743
H73	H	1.726880	-1.128655	-0.395123
H74	H	1.405387	-0.637222	-0.937753
H75	H	1.445799	-0.596777	-0.607667
H76	H	1.533636	-1.073065	-0.454976
H77	H	1.453948	-0.588687	-0.741011
N78	N	0.944831	-0.633105	-0.242777
H79	H	0.899902	-0.660252	-0.280799
H80	H	1.006036	-0.682942	-0.235011
H81	H	1.377858	-0.896556	-0.355227
H82	H	1.413501	-0.629103	-1.071109
H83	H	1.141917	-0.318227	-0.318823
N84	N	1.514293	-0.881385	-0.468504
H85	H	1.457819	-0.836009	-0.445933
H86	H	1.556313	-0.837525	-0.505262
N87	N	0.944944	-0.451106	-0.209719
H88	H	0.899528	-0.394787	-0.232438
H89	H	0.901132	-0.492926	-0.172836
H90	H	0.967039	-0.351679	-0.414656
H91	H	0.965024	-0.653070	-0.380369
H92	H	1.669413	-0.891544	-0.429597
H93	H	1.150566	-0.547195	-0.448575
H94	H	1.137064	-0.607927	-0.248771
N95	N	1.160547	-0.336600	-0.428890
H96	H	1.210028	-0.391306	-0.449031
H97	H	1.101056	-0.322715	-0.461795
H98	H	1.609045	-0.905022	-0.229668
N99	N	1.601841	-1.097813	-0.211459
H100	H	1.537525	-1.144910	-0.212993
H101	H	1.662985	-1.140234	-0.192739
N102	N	1.398576	-1.097211	-0.249666
H103	H	1.394489	-1.176852	-0.251148
H104	H	1.448193	-1.077089	-0.212203
H105	H	1.380879	-1.078506	-0.359803
N106	N	1.678094	-0.364598	-1.080839
H107	H	1.753052	-0.381851	-1.068041
H108	H	1.670892	-0.371734	-1.132968
N109	N	1.668800	-0.373922	-0.928062
H110	H	1.713855	-0.328879	-0.962502
H111	H	1.623808	-0.326718	-0.897570
