data_functionalizedCrystal
_audit_creation_method	'MofGen! by Chris Wilmer'
_symmetry_space_group_name_H-M	'P1'
_symmetry_Int_Tables_number	1
_symmetry_cell_setting	triclinic
loop_
_symmetry_equiv_pos_as_xyz
  x,y,z
_cell_length_a	16.704494
_cell_length_b	12.477989
_cell_length_c	12.477989
_cell_angle_alpha	89.511470
_cell_angle_beta	67.647245
_cell_angle_gamma	61.148542
loop_
_atom_site_label
_atom_site_type_symbol
_atom_site_fract_x
_atom_site_fract_y
_atom_site_fract_z
Zr1	Zr	0.956004	-0.259130	1.050920
O2	O	1.093737	-0.420566	0.908498
O3	O	0.797664	-0.201629	1.086565
O4	O	0.945700	-0.423366	1.109801
O5	O	0.961015	-0.033033	0.876051
O6	O	0.961015	-0.434691	1.277710
O7	O	0.945700	-0.198828	0.885262
O8	O	0.696205	-0.038043	1.236146
O9	O	1.225825	-0.429681	0.917616
O10	O	0.881853	-0.195237	1.236760
O11	O	0.881853	-0.063055	1.104577
O12	O	1.056147	-0.324122	1.131934
O13	O	1.056147	-0.191940	0.999752
Zr14	Zr	1.004854	-0.012767	1.304026
Zr15	Zr	0.980429	-0.277191	1.318716
Zr16	Zr	0.980429	0.005294	1.036230
Zr17	Zr	1.166670	-0.273668	1.065462
Zr18	Zr	0.794189	0.001770	1.289484
O19	O	1.163194	-0.070268	1.268381
O20	O	1.128466	-0.446246	1.289269
O21	O	1.128465	-0.044588	0.887610
O22	O	0.867122	0.148668	1.446449
O23	O	0.832393	-0.227309	1.467336
O24	O	0.832393	0.174349	1.065677
O25	O	0.999844	-0.238864	1.478895
O26	O	1.015158	0.151469	1.245146
O27	O	0.999844	0.162793	1.077236
O28	O	1.015158	-0.073069	1.469684
O29	O	1.245239	-0.444037	1.130478
O30	O	0.715619	0.172139	1.224469
O31	O	0.735034	0.157783	1.437331
O32	O	0.715619	-0.052399	1.449008
O33	O	1.245239	-0.219498	0.905939
O34	O	1.264654	-0.233854	1.118801
O35	O	0.904711	0.052225	1.223012
O36	O	0.904711	-0.079957	1.355195
O37	O	1.079005	-0.208842	1.250369
O38	O	1.079005	-0.076660	1.118186
C39	C	0.716919	-0.117765	1.159284
C40	C	0.627486	-0.111593	1.153110
C41	C	0.949877	-0.113357	0.842501
C42	C	0.939508	-0.105690	0.728815
C43	C	1.010981	0.194806	1.159098
C44	C	1.021350	0.307061	1.152861
C45	C	0.459419	-0.237989	1.279537
C46	C	0.375389	-0.232194	1.273741
C47	C	0.375389	-0.094201	1.135727
C48	C	0.459420	-0.099997	1.141524
C49	C	0.501433	-0.171894	1.213430
C50	C	0.585469	-0.177696	1.219220
C51	C	0.585463	-0.039697	1.081213
C52	C	0.501433	-0.033902	1.075416
C53	C	1.243939	-0.154133	1.195663
C54	C	1.333372	-0.160304	1.201836
C55	C	0.949878	-0.466703	1.195849
C56	C	0.939509	-0.578958	1.202085
C57	C	1.010981	-0.158540	1.512445
C58	C	1.021350	-0.166207	1.626131
C59	C	0.747471	-0.140356	1.494255
C60	C	0.668407	-0.141852	1.601768
C61	C	0.747471	0.212990	1.140908
C62	C	0.668407	0.331417	1.128498
C63	C	0.778022	0.190399	1.475880
C64	C	0.709327	0.301158	1.577157
C65	C	1.182836	-0.462296	0.879066
C66	C	1.251531	-0.573055	0.777790
C67	C	1.213388	-0.131541	0.860691
C68	C	1.292452	-0.130045	0.753178
C69	C	1.213388	-0.484887	1.214038
C70	C	1.292452	-0.603314	1.226448
C71	C	0.619345	-0.202741	1.590436
C72	C	0.545064	-0.204171	1.691448
C73	C	0.519842	-0.144704	1.803790
C74	C	0.568912	-0.083814	1.815120
C75	C	0.643196	-0.082392	1.714110
C76	C	0.643210	0.447217	1.184492
C77	C	0.568933	0.558501	1.172827
C78	C	0.519849	0.553982	1.105175
C79	C	0.545052	0.438169	1.049175
C80	C	0.619333	0.326888	1.060833
C81	C	0.677068	0.284173	1.693726
C82	C	0.612534	0.388231	1.788898
C83	C	0.580254	0.509274	1.767497
C84	C	0.612519	0.526257	1.650915
C85	C	0.677058	0.422199	1.555747
C86	C	1.283800	-0.556071	0.661221
C87	C	1.348361	-0.660131	0.566051
C88	C	1.380645	-0.781174	0.587452
C89	C	1.348374	-0.798157	0.704033
C90	C	1.283821	-0.694098	0.799201
C91	C	1.341521	-0.069168	0.764511
C92	C	1.415822	-0.067769	0.663503
C93	C	1.441047	-0.127239	0.551161
C94	C	1.391973	-0.188124	0.539831
C95	C	1.317679	-0.189531	0.640839
C96	C	1.341514	-0.598754	1.294109
C97	C	1.415795	-0.710019	1.305792
C98	C	1.441017	-0.825843	1.249807
C99	C	1.391947	-0.830399	1.182144
C100	C	1.317662	-0.719136	1.170468
H101	H	0.619677	-0.236242	1.277766
H102	H	0.861502	-0.048014	0.729751
H103	H	0.861508	0.432747	1.248999
H104	H	1.257516	-0.457520	0.643772
H105	H	1.320991	-0.020732	0.855975
F106	F	1.520120	-0.125731	0.443668
H107	H	1.433209	-0.865895	0.509950
F108	F	1.418828	-0.251409	0.420259
H109	H	1.455742	-0.706284	1.360887
F110	F	1.382741	-0.926989	0.726792
F111	F	1.382692	-0.642031	0.441986
F112	F	0.711417	0.155359	1.716530
F113	F	1.265456	-0.254320	0.628758
H114	H	0.459367	0.644603	1.095692
H115	H	0.548423	0.652789	1.218435
H116	H	0.505119	-0.253754	1.682200
H117	H	1.257547	-0.707941	0.894115
H118	H	0.639878	-0.251181	1.498973
H119	H	0.619683	0.014117	1.027379
F120	F	1.468035	-0.002960	0.675586
F121	F	0.578155	0.655089	1.628157
H122	H	0.459352	-0.145870	1.886029
F123	F	0.504142	-0.314518	1.356053
H124	H	1.320991	-0.504455	1.339700
H125	H	1.099356	0.295357	1.105952
H126	H	1.501507	-0.916431	1.259323
H127	H	0.505077	0.434508	0.994093
F128	F	1.123304	-0.241609	0.624902
H129	H	0.341183	-0.286013	1.327573
H130	H	1.412495	-0.924718	1.136565
F131	F	0.646135	0.203648	1.001238
F132	F	0.542055	-0.020526	1.934692
H133	H	0.527702	0.593994	1.845000
F134	F	0.578202	0.370131	1.912963
H135	H	0.683135	-0.032802	1.723353
H136	H	0.341158	-0.035650	1.077199
H137	H	0.683168	0.450921	1.239580
H138	H	1.277722	-0.722866	1.115368
H139	H	0.467212	0.024639	1.016876
F140	F	0.711379	0.440296	1.431685
