data_functionalizedCrystal
_audit_creation_method	'MofGen! by Chris Wilmer'
_symmetry_space_group_name_H-M	'P1'
_symmetry_Int_Tables_number	1
_symmetry_cell_setting	triclinic
loop_
_symmetry_equiv_pos_as_xyz
  x,y,z
_cell_length_a	19.288864
_cell_length_b	19.288857
_cell_length_c	18.366186
_cell_angle_alpha	89.991598
_cell_angle_beta	89.977106
_cell_angle_gamma	83.134677
loop_
_atom_site_label
_atom_site_type_symbol
_atom_site_fract_x
_atom_site_fract_y
_atom_site_fract_z
O1	O	0.921350	0.086649	-0.060787
O2	O	1.421350	0.586649	0.439213
O3	O	0.719089	0.098338	-0.060737
O4	O	1.219089	0.598338	0.439263
O5	O	0.826067	-0.008637	-0.060755
O6	O	1.326067	0.491363	0.439245
O7	O	0.814373	0.193624	-0.060769
O8	O	1.314373	0.693624	0.439231
O9	O	0.826049	-0.008643	0.060345
O10	O	1.326049	0.491357	0.560345
O11	O	0.719071	0.098333	0.060362
O12	O	1.219071	0.598333	0.560362
O13	O	0.921332	0.086644	0.060313
O14	O	1.421332	0.586644	0.560313
Zn15	Zn	0.820199	0.092487	0.079565
Zn16	Zn	1.320199	0.592487	0.579565
Zn17	Zn	0.820223	0.092494	-0.079989
Zn18	Zn	1.320223	0.592494	0.420011
O19	O	0.814355	0.193619	0.060330
O20	O	1.314355	0.693619	0.560330
C21	C	0.693204	0.097959	-0.000181
C22	C	1.193204	0.597959	0.499819
C23	C	0.616100	0.096830	-0.000162
C24	C	1.116100	0.596830	0.499838
C25	C	0.571402	0.159598	-0.000178
C26	C	1.071402	0.659598	0.499822
C27	C	0.498955	0.158537	-0.000186
C28	C	0.998955	0.658537	0.499814
C29	C	0.471210	0.094705	-0.000193
C30	C	0.971210	0.594705	0.499807
C31	C	0.515917	0.031929	-0.000172
C32	C	1.015917	0.531929	0.499828
C33	C	0.588363	0.032991	-0.000157
C34	C	1.088363	0.532991	0.499843
C35	C	0.362955	0.044528	-0.042640
C36	C	0.862955	0.544528	0.457360
C37	C	0.290511	0.043468	-0.042660
C38	C	0.790511	0.543468	0.457340
C39	C	0.247764	0.091425	-0.000236
C40	C	0.747764	0.591425	0.499764
C41	C	0.277469	0.140455	0.042197
C42	C	0.777469	0.640455	0.542197
C43	C	0.349914	0.141517	0.042213
C44	C	0.849914	0.641517	0.542213
C45	C	0.392656	0.093546	-0.000209
C46	C	0.892656	0.593546	0.499791
C47	C	0.124510	0.153048	-0.000260
C48	C	0.624510	0.653048	0.499740
C49	C	0.052062	0.151984	-0.000263
C50	C	0.552062	0.651984	0.499737
C51	C	0.069026	0.025374	-0.000257
C52	C	0.569026	0.525374	0.499743
C53	C	0.141472	0.026439	-0.000246
C54	C	0.641472	0.526439	0.499754
C55	C	0.169210	0.090278	-0.000251
C56	C	0.669210	0.590278	0.499749
C57	C	0.825683	-0.034516	-0.000204
C58	C	1.325683	0.465484	0.499796
C59	C	0.824556	-0.111620	-0.000202
C60	C	1.324556	0.388380	0.499798
C61	C	0.824040	-0.147828	-0.066213
C62	C	1.324040	0.352172	0.433787
C63	C	0.822971	-0.220274	-0.066218
C64	C	1.322971	0.279726	0.433782
C65	C	0.822432	-0.256511	-0.000208
C66	C	1.322432	0.243489	0.499792
C67	C	0.822945	-0.220294	0.065812
C68	C	1.322945	0.279706	0.565812
C69	C	0.824006	-0.147849	0.065815
C70	C	1.324006	0.352151	0.565815
C71	C	0.861426	-0.376745	0.050350
C72	C	1.361426	0.123255	0.550350
C73	C	0.860369	-0.449190	0.050344
C74	C	1.360369	0.050810	0.550344
C75	C	0.819155	-0.479957	-0.000216
C76	C	1.319155	0.020043	0.499784
C77	C	0.779007	-0.438272	-0.050781
C78	C	1.279007	0.061728	0.449219
C79	C	0.780068	-0.365827	-0.050778
C80	C	1.280068	0.134173	0.449222
C81	C	0.821281	-0.335066	-0.000205
C82	C	1.321281	0.164934	0.499795
C83	C	0.817479	-0.594719	-0.066237
C84	C	1.317479	-0.094719	0.433763
C85	C	0.816406	-0.667166	-0.066240
C86	C	1.316406	-0.167166	0.433760
C87	C	0.816386	-0.667186	0.065792
C88	C	1.316386	-0.167186	0.565792
C89	C	0.817452	-0.594740	0.065793
C90	C	1.317452	-0.094740	0.565793
C91	C	0.818002	-0.558511	-0.000224
C92	C	1.318002	-0.058511	0.499776
C93	C	0.947218	0.087022	-0.000245
C94	C	1.447218	0.587022	0.499755
C95	C	1.024321	0.088151	-0.000269
C96	C	1.524321	0.588151	0.499731
C97	C	0.814739	0.219498	-0.000222
C98	C	1.314739	0.719498	0.499778
C99	C	0.815866	0.296602	-0.000229
C100	C	1.315866	0.796602	0.499771
N101	N	0.820188	0.092482	0.188456
N102	N	1.320188	0.592482	0.688456
N103	N	0.820240	0.092494	-0.188880
N104	N	1.320240	0.592494	0.311120
C105	C	0.867573	0.045137	0.226548
C106	C	1.367573	0.545137	0.726548
C107	C	0.867577	0.045134	0.302776
C108	C	1.367577	0.545134	0.802776
C109	C	0.820203	0.092488	0.340909
C110	C	1.320203	0.592488	0.840909
C111	C	0.772809	0.139837	0.302807
C112	C	1.272809	0.639837	0.802807
C113	C	0.772801	0.139834	0.226580
C114	C	1.272801	0.639834	0.726580
C115	C	0.810903	0.155776	0.461666
C116	C	1.310903	0.655776	0.961666
C117	C	0.810916	0.155780	0.537891
C118	C	1.310916	0.655780	1.037891
C119	C	0.820223	0.092497	0.576016
C120	C	1.320223	0.592497	1.076016
C121	C	0.829532	0.029207	0.537907
C122	C	1.329532	0.529207	1.037907
C123	C	0.829524	0.029204	0.461681
C124	C	1.329524	0.529204	0.961681
C125	C	0.820206	0.092496	0.423563
C126	C	1.320206	0.592496	0.923563
C127	C	0.867615	0.045144	0.696764
C128	C	1.367615	0.545144	1.196764
C129	C	0.867615	0.045140	0.772993
C130	C	1.367615	0.545140	1.272993
C131	C	0.772850	0.139849	0.773022
C132	C	1.272850	0.639849	1.273022
C133	C	0.772847	0.139847	0.696794
C134	C	1.272847	0.639847	1.196794
C135	C	0.820233	0.092495	0.658670
C136	C	1.320233	0.592495	1.158670
H137	H	0.374097	0.181437	0.076766
H138	H	0.874097	0.681437	0.576766
H139	H	0.046436	-0.026600	-0.000308
H140	H	0.546436	0.473400	0.499692
C141	C	0.733666	-0.472110	-0.106400
C142	C	1.233666	0.027890	0.393600
N143	N	0.699516	-0.497600	-0.148291
N144	N	1.199516	0.002400	0.351709
C145	C	0.839769	-0.040411	0.579839
C146	C	1.339769	0.459589	1.079839
N147	N	0.847480	-0.092844	0.611426
N148	N	1.347480	0.407156	1.111426
H149	H	0.906156	0.006579	0.195510
H150	H	1.406156	0.506579	0.695510
H151	H	0.837103	-0.022329	0.430656
H152	H	1.337103	0.477671	0.930656
C153	C	0.818073	-0.554864	-0.138856
C154	C	1.318073	-0.054864	0.361144
N155	N	0.818518	-0.524847	-0.193553
N156	N	1.318518	-0.024847	0.306447
H157	H	0.177867	-0.024674	-0.000237
H158	H	0.677867	0.475326	0.499763
H159	H	0.624757	-0.018124	-0.000145
H160	H	1.124757	0.481876	0.499855
H161	H	0.266331	0.003548	-0.077215
H162	H	0.766331	0.503548	0.422785
H163	H	0.906165	0.006578	0.333797
H164	H	1.406165	0.506578	0.833797
C165	C	0.824638	-0.107980	-0.138834
C166	C	1.324638	0.392020	0.361166
N167	N	0.825086	-0.077965	-0.193532
N168	N	1.325086	0.422035	0.306468
H169	H	0.906198	0.006585	0.665721
H170	H	1.406198	0.506585	1.165721
H171	H	0.147095	0.205029	-0.000253
H172	H	0.647095	0.705029	0.499747
C173	C	0.720702	0.191950	0.184677
C174	C	1.220702	0.691950	0.684677
N175	N	0.681471	0.231216	0.153114
N176	N	1.181471	0.731216	0.653114
C177	C	0.409970	-0.008231	-0.089315
C178	C	0.909970	0.491769	0.410685
N179	N	0.445380	-0.047966	-0.124471
N180	N	0.945380	0.452034	0.375529
C181	C	0.720769	0.191982	0.654890
C182	C	1.220769	0.691982	1.154890
N183	N	0.681557	0.231267	0.623329
N184	N	1.181557	0.731267	1.123329
C185	C	0.800668	0.225399	0.579803
C186	C	1.300668	0.725399	1.079803
N187	N	0.792946	0.277838	0.611370
N188	N	1.292946	0.777838	1.111370
C189	C	0.485396	-0.038287	-0.000180
C190	C	0.985396	0.461713	0.499820
N191	N	0.462407	-0.091176	-0.000184
N192	N	0.962407	0.408824	0.499816
H193	H	0.822546	-0.249760	-0.119974
H194	H	1.322546	0.250240	0.380026
C195	C	0.735901	-0.319975	-0.106393
C196	C	1.235901	0.180025	0.393607
N197	N	0.702630	-0.285439	-0.148281
N198	N	1.202630	0.214561	0.351719
H199	H	0.815942	-0.696689	0.119539
H200	H	1.315942	-0.196689	0.619539
H201	H	0.815982	-0.696645	-0.119996
H202	H	1.315982	-0.196645	0.380004
C203	C	0.818027	-0.554910	0.138411
C204	C	1.318027	-0.054910	0.638411
N205	N	0.818459	-0.524911	0.193111
N206	N	1.318459	-0.024911	0.693111
H207	H	0.893062	-0.483125	0.091515
H208	H	1.393062	0.016875	0.591515
H209	H	0.593981	0.211581	-0.000183
H210	H	1.093981	0.711581	0.499817
H211	H	0.803312	0.207312	0.430630
H212	H	1.303312	0.707312	0.930630
H213	H	0.894987	-0.351701	0.091527
H214	H	1.394987	0.148299	0.591527
H215	H	0.906199	0.006582	0.804009
H216	H	1.406199	0.506582	1.304009
C217	C	0.720694	0.191924	0.344754
C218	C	1.220694	0.691924	0.844754
N219	N	0.681437	0.231155	0.376348
N220	N	1.181437	0.731155	0.876348
C221	C	0.822350	-0.260157	0.138423
C222	C	1.322350	0.239843	0.638423
N223	N	0.821900	-0.290181	0.193116
N224	N	1.321900	0.209819	0.693116
C225	C	0.720738	0.191940	0.814963
C226	C	1.220738	0.691940	1.314963
N227	N	0.681486	0.231176	0.846556
N228	N	1.181486	0.731176	1.346556
C229	C	0.449778	0.227590	-0.000212
C230	C	0.949778	0.727590	0.499788
N231	N	0.412740	0.279601	-0.000236
N232	N	0.912740	0.779601	0.499764
C233	C	0.230453	0.193211	0.088870
C234	C	0.730453	0.693211	0.588870
N235	N	0.195037	0.232945	0.124021
N236	N	0.695037	0.732945	0.624021
H237	H	0.015669	0.203100	-0.000272
H238	H	0.515669	0.703100	0.499728
C239	C	0.824578	-0.108020	0.138436
C240	C	1.324578	0.391980	0.638436
N241	N	0.825011	-0.078020	0.193135
N242	N	1.325011	0.421980	0.693135
