data_functionalizedCrystal
_audit_creation_method	'MofGen! by Chris Wilmer'
_symmetry_space_group_name_H-M	'P1'
_symmetry_Int_Tables_number	1
_symmetry_cell_setting	triclinic
loop_
_symmetry_equiv_pos_as_xyz
  x,y,z
_cell_length_a	11.026607
_cell_length_b	11.026607
_cell_length_c	9.482900
_cell_angle_alpha	78.599815
_cell_angle_beta	78.637021
_cell_angle_gamma	71.413983
loop_
_atom_site_label
_atom_site_type_symbol
_atom_site_fract_x
_atom_site_fract_y
_atom_site_fract_z
O1	O	1.742232	-0.518014	-0.120860
O2	O	1.375653	-0.457249	-0.120869
O3	O	1.528560	-0.304342	-0.120860
O4	O	1.589325	-0.670921	-0.120869
O5	O	1.497536	-0.335561	0.120931
O6	O	1.344629	-0.488468	0.120922
O7	O	1.711208	-0.549232	0.120931
Cu8	Cu	1.525086	-0.521701	0.143004
Cu9	Cu	1.561775	-0.484781	-0.142942
O10	O	1.558301	-0.702139	0.120922
C11	C	1.312481	-0.461649	0.000025
C12	C	1.170468	-0.428231	0.000022
C13	C	1.501838	-0.272292	0.000033
C14	C	1.468422	-0.130277	0.000027
C15	C	1.774380	-0.544833	0.000033
C16	C	1.916394	-0.578249	0.000027
C17	C	1.970044	-0.485979	0.000028
C18	C	2.116823	-0.520514	0.000021
C19	C	1.585023	-0.734190	0.000025
C20	C	1.618440	-0.876203	0.000022
N21	N	1.499289	-0.547669	0.344122
C22	C	1.560692	-0.076628	0.000028
C23	C	1.526157	0.070152	0.000021
N24	N	1.587579	-0.458805	-0.344060
C25	C	1.554156	-0.492432	0.416325
C26	C	1.532704	-0.514050	0.583741
H27	H	2.179552	-0.625084	0.000025
H28	H	1.469840	-0.577343	0.645862
O29	O	1.343620	-0.055627	-0.000044
C30	C	1.264528	-0.134013	-0.000004
H31	H	1.325733	-0.226239	-0.045772
H32	H	1.185617	-0.079187	-0.070208
H33	H	1.218277	-0.159997	0.115995
O34	O	1.629017	-0.416859	0.342029
C35	C	1.554666	-0.312128	0.253983
H36	H	1.469040	-0.338374	0.231381
H37	H	1.617059	-0.289785	0.146863
H38	H	1.517777	-0.223540	0.312505
O39	O	1.743214	0.049081	0.000221
C40	C	1.788129	0.059215	0.125467
H41	H	1.728021	0.153632	0.167213
H42	H	1.893872	0.057974	0.097308
H43	H	1.778815	-0.025763	0.213156
H44	H	1.421589	0.132882	0.000009
H45	H	1.907307	-0.381420	0.000055
O46	O	2.095627	-0.303462	-0.000234
C47	C	2.033870	-0.262489	-0.125438
H48	H	2.091156	-0.324617	-0.212964
H49	H	2.028626	-0.156938	-0.167474
H50	H	1.931892	-0.272776	-0.097121
O51	O	1.662351	-0.382999	0.582058
C52	C	1.608876	-0.257192	0.619398
H53	H	1.501385	-0.240027	0.661261
H54	H	1.622139	-0.183384	0.519364
H55	H	1.659863	-0.246435	0.707760
O56	O	1.991308	-0.702943	-0.000243
C57	C	2.085181	-0.711576	-0.125456
H58	H	2.050343	-0.626843	-0.212972
H59	H	2.101210	-0.806269	-0.167501
H60	H	2.179896	-0.708599	-0.097146
O61	O	1.685364	-0.151652	0.000097
C62	C	1.692094	-0.281499	0.000063
H63	H	1.593537	-0.296760	0.045835
H64	H	1.766998	-0.347859	0.070264
H65	H	1.721189	-0.304877	-0.115936
H66	H	1.436429	-0.610958	0.406248
