data_functionalizedCrystal
_audit_creation_method	'MofGen! by Chris Wilmer'
_symmetry_space_group_name_H-M	'P1'
_symmetry_Int_Tables_number	1
_symmetry_cell_setting	triclinic
loop_
_symmetry_equiv_pos_as_xyz
  x,y,z
_cell_length_a	12.759401
_cell_length_b	12.645330
_cell_length_c	12.759393
_cell_angle_alpha	90.031109
_cell_angle_beta	90.020938
_cell_angle_gamma	90.014171
loop_
_atom_site_label
_atom_site_type_symbol
_atom_site_fract_x
_atom_site_fract_y
_atom_site_fract_z
Zn1	Zn	1.606281	-0.421945	0.594016
Zn2	Zn	1.606179	-0.599246	0.418334
Zn3	Zn	1.430580	-0.422001	0.418351
Zn4	Zn	1.430578	-0.599171	0.593971
O5	O	1.518405	-0.510591	0.506168
O6	O	1.753289	-0.445472	0.570723
O7	O	1.582843	-0.575788	0.271315
O8	O	1.453931	-0.273647	0.441679
O9	O	1.753213	-0.575734	0.441650
O10	O	1.583018	-0.273605	0.570739
O11	O	1.453831	-0.445568	0.271327
O12	O	1.283559	-0.445496	0.441636
O13	O	1.453928	-0.575607	0.740998
O14	O	1.283557	-0.575662	0.570663
O15	O	1.583016	-0.445400	0.741031
O16	O	1.582841	-0.747583	0.441607
O17	O	1.453828	-0.747529	0.570647
C18	C	1.245437	-0.510578	0.506147
C19	C	1.128661	-0.510598	0.506163
C20	C	1.073825	-0.578479	0.573242
C21	C	0.964101	-0.578483	0.573263
C22	C	0.964057	-0.442722	0.439117
C23	C	1.073779	-0.442714	0.439102
C24	C	0.814207	-0.616521	0.697123
C25	C	0.759368	-0.684418	0.764192
C26	C	0.794969	-0.787874	0.780139
C27	C	0.885408	-0.823454	0.729001
C28	C	0.940241	-0.755562	0.661924
C29	C	0.904641	-0.652092	0.645997
C30	C	1.223676	-0.404686	0.315241
C31	C	1.278511	-0.336799	0.248157
C32	C	1.242912	-0.233341	0.232200
C33	C	1.152470	-0.197766	0.283319
C34	C	1.097635	-0.265653	0.350403
C35	C	1.133242	-0.369109	0.366362
C36	C	1.518352	-0.786021	0.506143
C37	C	1.518426	-0.903851	0.506168
C38	C	1.599457	-1.071405	0.424824
C39	C	1.599721	-0.948844	0.425023
C40	C	1.548455	-0.948224	0.616912
C41	C	1.549098	-1.070822	0.616481
C42	C	1.407332	-1.071183	0.477858
C43	C	1.407865	-0.948579	0.475374
C44	C	1.792438	-0.510605	0.506189
C45	C	1.909215	-0.510610	0.506199
C46	C	1.518483	-0.510489	0.780201
C47	C	1.518517	-0.510446	0.896978
C48	C	1.518486	-0.234086	0.506216
C49	C	1.518521	-0.116255	0.506236
C50	C	1.518387	-0.510616	0.233200
C51	C	1.518557	-0.510360	0.116424
C52	C	1.585738	-0.442636	0.951859
C53	C	1.585756	-0.442590	1.061583
C54	C	1.451328	-0.578173	1.061536
C55	C	1.451306	-0.578213	0.951814
C56	C	1.623363	-0.317515	1.211562
C57	C	1.690601	-0.249715	1.266447
C58	C	1.793113	-0.233459	1.230856
C59	C	1.828409	-0.285019	1.140382
C60	C	1.761177	-0.352827	1.085503
C61	C	1.658650	-0.369063	1.121093
C62	C	1.413709	-0.703289	0.801832
C63	C	1.346481	-0.771104	0.746952
C64	C	1.243967	-0.787370	0.782541
C65	C	1.208676	-0.735829	0.873018
C66	C	1.275903	-0.668014	0.927899
C67	C	1.378416	-0.651746	0.892302
H68	H	1.123472	-0.113529	0.270310
H69	H	1.252676	-0.488927	0.328237
N70	N	1.382547	-0.823751	0.654535
N71	N	1.474078	-0.809213	0.622759
H72	H	1.499549	-0.846391	0.557489
H73	H	1.580932	-0.918848	0.342907
H74	H	1.396610	-0.633349	1.106197
N75	N	1.032605	-0.791898	0.609674
N76	N	1.027740	-0.869260	0.548841
H77	H	1.092975	-0.894924	0.511942
H78	H	1.539887	-0.330737	1.240544
N79	N	1.654589	-0.196942	1.358815
N80	N	1.699807	-0.212068	1.444423
H81	H	1.674388	-0.174762	1.509642
N82	N	1.861786	-0.164182	1.286902
N83	N	1.899463	-0.084797	1.242357
H84	H	1.947958	-0.035864	1.281940
H85	H	1.385222	-0.919589	0.393875
N86	N	1.328126	-0.910161	0.544295
N87	N	1.311658	-0.813009	0.551730
H88	H	1.255345	-0.785876	0.600414
N89	N	1.298928	-0.164014	0.163658
N90	N	1.379669	-0.195787	0.118006
H91	H	1.419228	-0.146825	0.069600
H92	H	0.750312	-0.843156	0.834750
H93	H	1.491300	-0.919075	0.679196
H94	H	1.628811	-0.917432	0.641351
N95	N	1.654380	-0.373393	0.895861
N96	N	1.647438	-0.275569	0.908138
H97	H	1.695916	-0.226660	0.868593
H98	H	0.919360	-0.387455	0.384517
N99	N	1.370889	-0.373127	0.195917
N100	N	1.366047	-0.450497	0.135093
H101	H	1.431291	-0.476147	0.098198
H102	H	1.247160	-0.626047	1.001571
H103	H	0.685733	-0.655439	0.805830
H104	H	1.125202	-0.749078	0.901999
H105	H	0.785218	-0.532276	0.684156
H106	H	1.189235	-0.842600	0.737852
N107	N	1.373085	-1.110096	0.378315
N108	N	1.430218	-1.171530	0.327075
H109	H	1.406042	-1.199014	0.256769
H110	H	1.492730	-1.100486	0.679229
N111	N	1.703037	-0.911955	0.448567
N112	N	1.775170	-0.976755	0.464912
H113	H	1.848141	-0.950704	0.481543
H114	H	1.580903	-1.100964	0.342468
H115	H	1.497182	-0.690042	0.772841
H116	H	1.630372	-1.099331	0.640519
N117	N	1.129870	-0.647826	0.641745
N118	N	1.080891	-0.708428	0.701631
H119	H	1.120469	-0.757407	0.750016
N120	N	1.005262	-0.229293	0.402630
N121	N	0.973489	-0.136913	0.388385
H122	H	0.908255	-0.111230	0.425276
N123	N	1.331690	-1.107574	0.552249
N124	N	1.359404	-1.166446	0.625875
H125	H	1.305989	-1.192153	0.678418
H126	H	0.914381	-0.907702	0.741982
H127	H	1.681369	-1.102131	0.443384
N128	N	1.797235	-0.405489	0.993097
N129	N	1.888773	-0.390975	0.961331
H130	H	1.914242	-0.428162	0.896064
H131	H	1.911888	-0.271785	1.111416
