data_functionalizedCrystal
_audit_creation_method	'MofGen! by Chris Wilmer'
_symmetry_space_group_name_H-M	'P1'
_symmetry_Int_Tables_number	1
_symmetry_cell_setting	triclinic
loop_
_symmetry_equiv_pos_as_xyz
  x,y,z
_cell_length_a	10.654559
_cell_length_b	16.109304
_cell_length_c	9.130313
_cell_angle_alpha	90.001562
_cell_angle_beta	89.999532
_cell_angle_gamma	83.975661
loop_
_atom_site_label
_atom_site_type_symbol
_atom_site_fract_x
_atom_site_fract_y
_atom_site_fract_z
O1	O	1.666244	0.116807	-0.121797
O2	O	1.300617	0.127924	-0.121798
O3	O	1.493473	0.001394	-0.121798
O4	O	1.473388	0.243336	-0.121797
O5	O	1.493471	0.001398	0.121801
O6	O	1.300614	0.127927	0.121801
O7	O	1.666242	0.116810	0.121802
Cu8	Cu	1.483428	0.122369	0.144044
Cu9	Cu	1.483431	0.122365	-0.144040
O10	O	1.473386	0.243340	0.121802
C11	C	1.253829	0.127108	0.000002
C12	C	1.114419	0.124661	0.000001
C13	C	1.063920	0.047862	0.000005
C14	C	0.932929	0.045568	-0.000006
C15	C	0.902947	0.196878	-0.000018
C16	C	1.033935	0.199171	-0.000017
C17	C	1.081229	-0.039496	0.000018
C18	C	0.950238	-0.041790	0.000007
C19	C	1.492658	-0.029584	-0.000002
C20	C	1.490217	-0.121893	-0.000012
C21	C	1.484578	-0.334266	-0.132792
C22	C	1.482273	-0.421000	-0.132791
C23	C	1.482277	-0.420993	0.132794
C24	C	1.484573	-0.334260	0.132791
C25	C	1.485730	-0.290900	-0.000007
C26	C	1.481129	-0.464366	-0.000002
C27	C	1.478630	-0.558407	0.000000
C28	C	1.488227	-0.196853	-0.000010
C29	C	1.713030	0.117626	-0.000001
C30	C	1.852439	0.120073	-0.000010
C31	C	1.474201	0.274318	0.000003
C32	C	1.476642	0.366627	0.000003
N33	N	1.483435	0.122371	0.346667
N34	N	1.483434	0.122356	-0.346663
C35	C	1.568854	0.066363	0.423318
C36	C	1.568850	0.066353	0.576655
C37	C	1.398006	0.178367	0.576675
C38	C	1.398004	0.178372	0.423341
C39	C	1.667493	0.001695	0.423308
C40	C	1.667489	0.001685	0.576645
H41	H	0.837401	0.257541	-0.000033
H42	H	1.481333	-0.456305	-0.240919
H43	H	0.914987	-0.069615	-0.105175
Br44	Br	1.151571	-0.094371	-0.169876
Br45	Br	0.902048	-0.098736	0.169900
H46	H	1.328450	0.223961	0.639120
Br47	Br	1.828023	0.025420	0.646023
Br48	Br	1.819000	0.035463	0.344026
H49	H	1.127228	-0.065886	0.105199
H50	H	1.485517	-0.298964	-0.240925
Br51	Br	1.480703	-0.479845	0.313010
H52	H	1.485504	-0.298950	0.240928
Br53	Br	1.282056	0.254370	0.319310
H54	H	1.646916	-0.062208	0.381687
H55	H	1.075045	0.261708	-0.000045
Br56	Br	1.617981	-0.098957	0.655908
