data_functionalizedCrystal
_audit_creation_method	'MofGen! by Chris Wilmer'
_symmetry_space_group_name_H-M	'P1'
_symmetry_Int_Tables_number	1
_symmetry_cell_setting	triclinic
loop_
_symmetry_equiv_pos_as_xyz
  x,y,z
_cell_length_a	11.792241
_cell_length_b	11.792241
_cell_length_c	10.268362
_cell_angle_alpha	89.999626
_cell_angle_beta	90.000297
_cell_angle_gamma	95.806585
loop_
_atom_site_label
_atom_site_type_symbol
_atom_site_fract_x
_atom_site_fract_y
_atom_site_fract_z
O1	O	-0.155569	1.506909	-0.108158
O2	O	0.177765	1.840242	0.225175
O3	O	0.511098	2.173575	0.558508
O4	O	-0.171602	1.176568	-0.108187
O5	O	0.161732	1.509901	0.225146
O6	O	0.495065	1.843234	0.558480
O7	O	0.001585	1.349755	-0.108180
O8	O	0.334919	1.683088	0.225154
O9	O	0.668252	2.016421	0.558487
O10	O	-0.328756	1.333722	-0.108166
O11	O	0.004578	1.667055	0.225168
O12	O	0.337911	2.000388	0.558501
O13	O	0.001593	1.349740	0.108421
O14	O	0.334926	1.683073	0.441754
O15	O	0.668259	2.016406	0.775088
O16	O	-0.171594	1.176553	0.108414
O17	O	0.161739	1.509886	0.441747
O18	O	0.495072	1.843219	0.775080
O19	O	-0.155561	1.506894	0.108442
O20	O	0.177772	1.840227	0.441776
O21	O	0.511105	2.173560	0.775109
Cu22	Cu	-0.163577	1.341722	0.128205
Cu23	Cu	0.169756	1.675055	0.461539
Cu24	Cu	0.503089	2.008388	0.794872
Cu25	Cu	-0.163586	1.341740	-0.127950
Cu26	Cu	0.169748	1.675073	0.205383
Cu27	Cu	0.503081	2.008406	0.538717
O28	O	-0.328748	1.333707	0.108435
O29	O	0.004585	1.667040	0.441768
O30	O	0.337918	2.000373	0.775102
C31	C	-0.170591	1.134269	0.000109
C32	C	0.162742	1.467603	0.333443
C33	C	0.496076	1.800936	0.666776
C34	C	-0.167576	1.008255	0.000098
C35	C	0.165757	1.341589	0.333431
C36	C	0.499090	1.674922	0.666764
C37	C	-0.162034	0.777543	0.000135
C38	C	0.171300	1.110877	0.333468
C39	C	0.504633	1.444210	0.666801
C40	C	-0.165113	0.905928	0.000114
C41	C	0.168220	1.239262	0.333448
C42	C	0.501553	1.572595	0.666781
C43	C	-0.371043	1.334721	0.000137
C44	C	-0.037710	1.668055	0.333470
C45	C	0.295624	2.001388	0.666803
C46	C	-0.497057	1.337736	0.000143
C47	C	-0.163723	1.671069	0.333476
C48	C	0.169610	2.004402	0.666809
C49	C	-0.727769	1.343279	0.000110
C50	C	-0.394436	1.676612	0.333444
C51	C	-0.061102	2.009945	0.666777
C52	C	-0.599384	1.340199	0.000128
C53	C	-0.266050	1.673532	0.333461
C54	C	0.067283	2.006866	0.666795
C55	C	0.043880	1.348740	0.000116
C56	C	0.377213	1.682073	0.333449
C57	C	0.710547	2.015407	0.666782
C58	C	0.169894	1.345726	0.000101
C59	C	0.503227	1.679059	0.333434
C60	C	0.836560	2.012392	0.666768
C61	C	-0.156572	1.549192	0.000143
C62	C	0.176761	1.882525	0.333476
C63	C	0.510095	2.215859	0.666810
C64	C	-0.159587	1.675206	0.000146
C65	C	0.173747	2.008539	0.333480
C66	C	0.507080	2.341873	0.666813
N67	N	-0.163571	1.341717	0.308371
N68	N	0.169763	1.675051	0.641705
N69	N	0.503096	2.008384	0.975038
N70	N	-0.163584	1.341753	-0.308116
N71	N	0.169750	1.675086	0.025217
N72	N	0.503083	2.008420	0.358551
C73	C	-0.163583	1.341734	0.574042
C74	C	0.169750	1.675067	0.907375
C75	C	0.503083	2.008401	1.240708
C76	C	-0.163580	1.341721	0.426204
C77	C	0.169754	1.675054	0.759537
C78	C	0.503087	2.008388	1.092871
