data_functionalizedCrystal
_audit_creation_method	'MofGen! by Chris Wilmer'
_symmetry_space_group_name_H-M	'P1'
_symmetry_Int_Tables_number	1
_symmetry_cell_setting	triclinic
loop_
_symmetry_equiv_pos_as_xyz
  x,y,z
_cell_length_a	21.295420
_cell_length_b	21.295417
_cell_length_c	21.295396
_cell_angle_alpha	89.894924
_cell_angle_beta	89.929892
_cell_angle_gamma	90.025484
loop_
_atom_site_label
_atom_site_type_symbol
_atom_site_fract_x
_atom_site_fract_y
_atom_site_fract_z
Zn1	Zn	0.962642	-0.250227	-0.355918
Zn2	Zn	0.962462	-0.355634	-0.250645
Zn3	Zn	0.857281	-0.250375	-0.250662
Zn4	Zn	0.857336	-0.355454	-0.355877
O5	O	0.909930	-0.302923	-0.303275
O6	O	1.050707	-0.264223	-0.341963
O7	O	0.948411	-0.341808	-0.162557
O8	O	0.871310	-0.162266	-0.264649
O9	O	1.050575	-0.341665	-0.264619
O10	O	0.948718	-0.162157	-0.341980
O11	O	0.871136	-0.264475	-0.162570
O12	O	0.769199	-0.264301	-0.264609
O13	O	0.871403	-0.341359	-0.443972
O14	O	0.769239	-0.341502	-0.341910
O15	O	0.948771	-0.264048	-0.444002
O16	O	0.948464	-0.443700	-0.264579
O17	O	0.871229	-0.443568	-0.341893
C18	C	0.746379	-0.302898	-0.303257
C19	C	0.676411	-0.302903	-0.303265
C20	C	0.177021	-0.262693	-0.343623
C21	C	0.242763	-0.262689	-0.343623
C22	C	0.275571	-0.302942	-0.303290
C23	C	0.242631	-0.343214	-0.262965
C24	C	0.176890	-0.343222	-0.262971
N25	N	0.378717	-0.307759	-0.248170
N26	N	0.441169	-0.307747	-0.248167
C27	C	0.473646	-0.302921	-0.303271
N28	N	0.441312	-0.298094	-0.358381
N29	N	0.378855	-0.298102	-0.358384
C30	C	0.346856	-0.302938	-0.303280
C31	C	0.577864	-0.262649	-0.343596
C32	C	0.643607	-0.262649	-0.343597
C33	C	0.643474	-0.343171	-0.262934
C34	C	0.577731	-0.343175	-0.262939
C35	C	0.544930	-0.302910	-0.303269
C36	C	0.909850	-0.466474	-0.303243
C37	C	0.909873	-0.536442	-0.303251
C38	C	0.950157	-0.569195	-0.343546
C39	C	0.950179	-0.634938	-0.343561
C40	C	0.909924	-0.667925	-0.303271
C41	C	0.869633	-0.635164	-0.262973
C42	C	0.869608	-0.569423	-0.262963
N43	N	0.905121	-0.771258	-0.248179
N44	N	0.905149	-0.833709	-0.248191
C45	C	0.909998	-0.865999	-0.303299
N46	N	0.914830	-0.833479	-0.358397
N47	N	0.914805	-0.771022	-0.358385
C48	C	0.909947	-0.739210	-0.303277
C49	C	0.950307	-0.970038	-0.343614
C50	C	0.950325	-1.035781	-0.343631
C51	C	0.869783	-1.036007	-0.263037
C52	C	0.869762	-0.970264	-0.263026
C53	C	0.910027	-0.937284	-0.303314
C54	C	1.074120	-0.302947	-0.303293
C55	C	1.144089	-0.302958	-0.303301
C56	C	0.910113	-0.302667	-0.467466
C57	C	0.910191	-0.302558	-0.537434
C58	C	0.910028	-0.138732	-0.303321
C59	C	0.910070	-0.068764	-0.303340
C60	C	0.909784	-0.303132	-0.139723
C61	C	0.909829	-0.303063	-0.069755
C62	C	0.869651	-0.262616	0.429665
C63	C	0.869602	-0.262680	0.363923
C64	C	0.910104	-0.302680	0.331083
C65	C	0.950647	-0.342631	0.363992
C66	C	0.950690	-0.342569	0.429733
N67	N	0.965168	-0.307213	0.227772
N68	N	0.965125	-0.307268	0.165321
C69	C	0.909974	-0.302868	0.133009
N70	N	0.854866	-0.298399	0.165508
N71	N	0.854910	-0.298341	0.227965
C72	C	0.910061	-0.302751	0.259798
C73	C	0.869377	-0.262993	0.028823
C74	C	0.869327	-0.263062	-0.036920
C75	C	0.950377	-0.343009	-0.036850
C76	C	0.950422	-0.342943	0.028892
C77	C	0.909923	-0.302932	0.061725
H78	H	0.550918	-0.375960	-0.230102
H79	H	0.983436	-0.375467	0.055680
C80	C	0.994934	-0.387011	-0.072961
C81	C	0.967962	-0.436671	-0.117967
C82	C	1.012520	-0.480676	-0.154078
C83	C	1.084051	-0.475023	-0.145183
C84	C	1.111027	-0.425361	-0.100175
C85	C	1.066469	-0.381355	-0.064064
H86	H	0.915007	-0.440858	-0.124553
H87	H	0.992550	-0.517439	-0.187397
H88	H	1.117035	-0.507598	-0.171915
H89	H	1.163982	-0.421174	-0.093588
H90	H	1.086439	-0.344592	-0.030745
H91	H	0.150077	-0.376011	-0.230135
C92	C	0.824730	-0.219121	-0.073112
C93	C	0.753209	-0.224744	-0.063918
C94	C	0.708612	-0.180801	-0.100110
C95	C	0.735535	-0.131234	-0.145496
C96	C	0.807059	-0.125609	-0.154692
C97	C	0.851656	-0.169552	-0.118500
H98	H	0.733276	-0.261438	-0.030318
H99	H	0.655665	-0.184965	-0.093302
H100	H	0.702522	-0.098705	-0.172287
H101	H	0.826993	-0.088915	-0.188291
H102	H	0.904603	-0.165388	-0.125308
H103	H	0.836590	-0.230151	0.337130
H104	H	0.982942	-0.542344	-0.376352
H105	H	0.836671	-0.230038	0.456394
H106	H	0.982977	-0.661610	-0.376381
H107	H	0.836804	-0.542755	-0.230150
C108	C	0.994595	-0.933754	-0.387931
C109	C	1.038902	-0.969785	-0.432262
C110	C	1.083191	-0.933503	-0.476579
C111	C	1.083171	-0.861191	-0.476564
C112	C	1.038862	-0.825155	-0.432231
C113	C	0.994573	-0.861437	-0.387915
H114	H	1.038918	-1.023319	-0.432275
H115	H	1.115992	-0.960179	-0.509397
H116	H	1.115956	-0.834333	-0.509369
H117	H	1.038846	-0.771622	-0.432218
H118	H	0.961772	-0.834761	-0.355097
C119	C	0.679836	-0.218361	-0.387961
C120	C	0.752148	-0.218359	-0.387965
C121	C	0.788378	-0.174073	-0.432332
C122	C	0.752294	-0.129790	-0.476694
C123	C	0.679977	-0.129791	-0.476691
C124	C	0.643748	-0.174077	-0.432325
H125	H	0.778863	-0.251141	-0.355124
H126	H	0.841911	-0.174072	-0.432334
H127	H	0.779113	-0.097007	-0.509537
H128	H	0.653262	-0.097009	-0.509532
H129	H	0.590214	-0.174077	-0.432323
C130	C	0.825458	-0.934230	-0.218693
C131	C	0.776027	-0.889019	-0.245914
C132	C	0.731720	-0.852984	-0.201579
C133	C	0.736845	-0.862160	-0.130024
C134	C	0.786277	-0.907373	-0.102799
C135	C	0.830584	-0.943408	-0.147134
H136	H	0.772232	-0.882225	-0.298886
H137	H	0.695127	-0.819515	-0.221733
H138	H	0.704046	-0.835485	-0.097205
H139	H	0.790073	-0.914167	-0.049826
H140	H	0.867177	-0.976877	-0.126980
H141	H	0.983624	-0.375199	0.337249
C142	C	0.679554	-0.387453	-0.218569
C143	C	0.643325	-0.431744	-0.174212
C144	C	0.679409	-0.476030	-0.129848
C145	C	0.751721	-0.476026	-0.129841
C146	C	0.787955	-0.431734	-0.174199
C147	C	0.751871	-0.387447	-0.218563
H148	H	0.589791	-0.431748	-0.174216
H149	H	0.652586	-0.508818	-0.097011
H150	H	0.778433	-0.508809	-0.097000
H151	H	0.841489	-0.431729	-0.174196
H152	H	0.778693	-0.354660	-0.251400
H153	H	0.983706	-0.375095	0.456520
C154	C	0.541780	-0.218361	-0.387960
C155	C	0.496574	-0.168941	-0.360771
C156	C	0.460495	-0.124650	-0.405134
C157	C	0.469622	-0.129779	-0.476686
C158	C	0.514830	-0.179201	-0.503880
C159	C	0.550909	-0.223492	-0.459517
H160	H	0.489816	-0.165142	-0.307800
H161	H	0.427029	-0.088064	-0.385003
H162	H	0.442914	-0.096992	-0.509526
H163	H	0.521588	-0.183000	-0.556850
H164	H	0.584376	-0.260078	-0.479647
C165	C	0.825353	-0.671447	-0.218652
C166	C	0.825382	-0.743759	-0.218658
C167	C	0.781098	-0.780041	-0.174337
C168	C	0.736785	-0.744010	-0.130011
C169	C	0.736755	-0.671693	-0.130004
C170	C	0.781039	-0.635412	-0.174324
H171	H	0.858187	-0.770435	-0.251472
H172	H	0.781121	-0.833575	-0.174343
H173	H	0.704004	-0.770868	-0.097202
H174	H	0.703950	-0.645017	-0.097189
H175	H	0.781016	-0.581878	-0.174318
H176	H	0.150318	-0.229910	-0.376466
C177	C	0.824825	-0.218988	0.064945
C178	C	0.780222	-0.175057	0.028752
C179	C	0.735670	-0.131052	0.064871
C180	C	0.735720	-0.130978	0.137184
C181	C	0.780324	-0.174911	0.173381
C182	C	0.824876	-0.218916	0.137262
H183	H	0.780183	-0.175110	-0.024782
H184	H	0.702651	-0.098530	0.038075
H185	H	0.702740	-0.098403	0.163921
H186	H	0.780363	-0.174857	0.226915
H187	H	0.857895	-0.251438	0.164058
H188	H	0.983129	-1.062448	-0.376446
H189	H	0.269582	-0.229898	-0.376457
H190	H	0.269347	-0.375990	-0.230128
H191	H	0.837003	-1.062864	-0.230235
