data_functionalizedCrystal
_audit_creation_method	'MofGen! by Chris Wilmer'
_symmetry_space_group_name_H-M	'P1'
_symmetry_Int_Tables_number	1
_symmetry_cell_setting	triclinic
loop_
_symmetry_equiv_pos_as_xyz
  x,y,z
_cell_length_a	19.288864
_cell_length_b	19.188930
_cell_length_c	18.366186
_cell_angle_alpha	89.988632
_cell_angle_beta	89.977106
_cell_angle_gamma	83.140512
loop_
_atom_site_label
_atom_site_type_symbol
_atom_site_fract_x
_atom_site_fract_y
_atom_site_fract_z
O1	O	0.921359	0.087099	-0.060791
O2	O	1.421359	0.587099	0.439209
O3	O	0.719099	0.098849	-0.060743
O4	O	1.219099	0.598849	0.439257
O5	O	0.826066	-0.008682	-0.060754
O6	O	1.326066	0.491318	0.439246
O7	O	0.814393	0.194630	-0.060780
O8	O	1.314393	0.694630	0.439220
O9	O	0.826048	-0.008687	0.060345
O10	O	1.326048	0.491313	0.560345
O11	O	0.719081	0.098843	0.060357
O12	O	1.219081	0.598843	0.560357
O13	O	0.921341	0.087094	0.060308
O14	O	1.421341	0.587094	0.560308
Zn15	Zn	0.820208	0.092968	0.079560
Zn16	Zn	1.320208	0.592968	0.579560
Zn17	Zn	0.820232	0.092975	-0.079994
Zn18	Zn	1.320232	0.592975	0.420006
O19	O	0.814374	0.194625	0.060320
O20	O	1.314374	0.694625	0.560320
C21	C	0.693214	0.098468	-0.000186
C22	C	1.193214	0.598468	0.499814
C23	C	0.616110	0.097333	-0.000167
C24	C	1.116110	0.597333	0.499833
C25	C	0.571419	0.160427	-0.000187
C26	C	1.071419	0.660427	0.499813
C27	C	0.498972	0.159361	-0.000195
C28	C	0.998972	0.659361	0.499805
C29	C	0.471219	0.095197	-0.000198
C30	C	0.971219	0.595197	0.499802
C31	C	0.515921	0.032095	-0.000174
C32	C	1.015921	0.532095	0.499826
C33	C	0.588366	0.033163	-0.000159
C34	C	1.088366	0.533163	0.499841
C35	C	0.362960	0.044759	-0.042642
C36	C	0.862960	0.544759	0.457358
C37	C	0.290515	0.043694	-0.042662
C38	C	0.790515	0.543694	0.457338
C39	C	0.247773	0.091900	-0.000241
C40	C	0.747773	0.591900	0.499759
C41	C	0.277483	0.141184	0.042190
C42	C	0.777483	0.641184	0.542190
C43	C	0.349929	0.142253	0.042205
C44	C	0.849929	0.642253	0.542205
C45	C	0.392665	0.094032	-0.000214
C46	C	0.892665	0.594032	0.499786
C47	C	0.124526	0.153843	-0.000268
C48	C	0.624526	0.653843	0.499732
C49	C	0.052078	0.152774	-0.000272
C50	C	0.552078	0.652774	0.499728
C51	C	0.069028	0.025506	-0.000259
C52	C	0.569028	0.525506	0.499741
C53	C	0.141475	0.026576	-0.000248
C54	C	0.641475	0.526576	0.499752
C55	C	0.169219	0.090747	-0.000256
C56	C	0.669219	0.590747	0.499744
C57	C	0.825679	-0.034696	-0.000202
C58	C	1.325679	0.465304	0.499798
C59	C	0.824544	-0.112200	-0.000196
C60	C	1.324544	0.387800	0.499804
C61	C	0.887309	-0.157129	-0.000207
C62	C	1.387309	0.342871	0.499793
C63	C	0.886243	-0.229953	-0.000219
C64	C	1.386243	0.270047	0.499781
C65	C	0.822408	-0.257844	-0.000204
C66	C	1.322408	0.242156	0.499796
C67	C	0.759636	-0.212906	-0.000196
C68	C	1.259636	0.287094	0.499804
C69	C	0.760704	-0.140084	-0.000192
C70	C	1.260704	0.359916	0.499808
N71	N	0.773609	-0.365847	0.041020
N72	N	1.273609	0.134153	0.541020
N73	N	0.772598	-0.435026	0.041018
N74	N	1.272598	0.064974	0.541018
C75	C	0.819187	-0.477253	-0.000218
C76	C	1.319187	0.022747	0.499782
N77	N	0.866835	-0.447689	-0.041442
N78	N	1.366835	0.052311	0.458558
N79	N	0.867847	-0.378504	-0.041436
N80	N	1.367847	0.121496	0.458564
C81	C	0.821243	-0.336807	-0.000209
C82	C	1.321243	0.163193	0.499791
C83	C	0.880800	-0.601146	-0.000243
C84	C	1.380800	-0.101146	0.499757
C85	C	0.879731	-0.673971	-0.000259
C86	C	1.379731	-0.173971	0.499741
C87	C	0.753122	-0.656922	-0.000229
C88	C	1.253122	-0.156922	0.499771
C89	C	0.754193	-0.584099	-0.000220
C90	C	1.254193	-0.084099	0.499780
C91	C	0.818034	-0.556216	-0.000224
C92	C	1.318034	-0.056216	0.499776
C93	C	0.947227	0.087475	-0.000250
C94	C	1.447227	0.587475	0.499750
C95	C	1.024330	0.088609	-0.000274
C96	C	1.524330	0.588609	0.499726
C97	C	0.814762	0.220638	-0.000234
C98	C	1.314762	0.720638	0.499766
C99	C	0.815896	0.298143	-0.000245
C100	C	1.315896	0.798143	0.499755
N101	N	0.820197	0.092963	0.188451
N102	N	1.320197	0.592963	0.688451
N103	N	0.820249	0.092974	-0.188885
N104	N	1.320249	0.592974	0.311115
C105	C	0.867577	0.045371	0.226546
C106	C	1.367577	0.545371	0.726546
C107	C	0.867582	0.045368	0.302774
C108	C	1.367582	0.545368	0.802774
C109	C	0.820213	0.092968	0.340903
C110	C	1.320213	0.592968	0.840903
C111	C	0.772823	0.140563	0.302799
C112	C	1.272823	0.640563	0.802799
C113	C	0.772816	0.140560	0.226573
C114	C	1.272816	0.640560	0.726573
C115	C	0.810919	0.156585	0.461657
C116	C	1.310919	0.656585	0.961657
C117	C	0.810932	0.156589	0.537882
C118	C	1.310932	0.656589	1.037882
C119	C	0.820232	0.092977	0.576011
C120	C	1.320232	0.592977	1.076011
C121	C	0.829535	0.029359	0.537906
C122	C	1.329535	0.529359	1.037906
C123	C	0.829527	0.029356	0.461679
C124	C	1.329527	0.529356	0.961679
C125	C	0.820215	0.092977	0.423558
C126	C	1.320215	0.592977	0.923558
C127	C	0.867620	0.045378	0.696761
C128	C	1.367620	0.545378	1.196761
C129	C	0.867620	0.045374	0.772990
C130	C	1.367620	0.545374	1.272990
C131	C	0.772864	0.140576	0.773014
C132	C	1.272864	0.640576	1.273014
C133	C	0.772862	0.140574	0.696786
C134	C	1.272862	0.640574	1.196786
C135	C	0.820243	0.092976	0.658664
C136	C	1.320243	0.592976	1.158664
H137	H	0.242684	0.180439	0.076733
H138	H	0.742684	0.680439	0.576733
H139	H	0.837100	-0.022445	0.430657
H140	H	1.337100	0.477555	0.930657
H141	H	0.906200	0.006616	0.804008
H142	H	1.406200	0.506616	1.304008
N143	N	0.724478	0.189209	0.811942
N144	N	1.224478	0.689209	1.311942
N145	N	0.682181	0.231705	0.777914
N146	N	1.182181	0.731705	1.277914
H147	H	0.648005	0.266054	0.805409
H148	H	1.148005	0.766054	1.305409
N149	N	0.839027	-0.035632	0.576831
N150	N	1.339027	0.464368	1.076831
N151	N	0.847327	-0.092425	0.542801
N152	N	1.347327	0.407575	1.042801
H153	H	0.854032	-0.138324	0.570294
H154	H	1.354032	0.361676	1.070294
H155	H	0.707661	-0.235620	-0.000186
H156	H	1.207661	0.264380	0.499814
N157	N	0.916009	-0.003278	0.657854
N158	N	1.416009	0.496722	1.157854
N159	N	0.959092	0.018693	0.615292
N160	N	1.459092	0.518693	1.115292
H161	H	0.993267	-0.015686	0.587834
H162	H	1.493267	0.484314	1.087834
H163	H	0.709591	-0.103502	-0.000183
H164	H	1.209591	0.396498	0.499817
H165	H	0.734253	0.179319	0.333848
H166	H	1.234253	0.679319	0.833848
N167	N	0.724419	0.189190	0.187668
N168	N	1.224419	0.689190	0.687668
N169	N	0.725171	0.253724	0.196169
N170	N	1.225171	0.753724	0.696169
H171	H	0.690991	0.288071	0.168692
H172	H	1.190991	0.788071	0.668692
N173	N	0.724459	0.189193	0.657880
N174	N	1.224459	0.689193	1.157880
N175	N	0.682165	0.231688	0.691930
N176	N	1.182165	0.731688	1.191930
H177	H	0.647975	0.266026	0.664453
H178	H	1.147975	0.766026	1.164453
H179	H	0.015690	0.204155	-0.000283
H180	H	0.515690	0.704155	0.499717
H181	H	0.803333	0.208389	0.430619
H182	H	1.303333	0.708389	0.930619
N183	N	0.946002	-0.572646	-0.000265
N184	N	1.446002	-0.072646	0.499735
N185	N	0.946948	-0.507626	-0.000261
N186	N	1.446948	-0.007626	0.499739
H187	H	0.992996	-0.487498	-0.000278
H188	H	1.492996	0.012502	0.499722
H189	H	0.147116	0.206094	-0.000264
H190	H	0.647116	0.706094	0.499736
H191	H	0.594003	0.212680	-0.000195
H192	H	1.094003	0.712680	0.499805
H193	H	0.939293	-0.134431	-0.000213
H194	H	1.439293	0.365569	0.499787
N195	N	0.950358	-0.275857	-0.000210
N196	N	1.450358	0.224143	0.499790
N197	N	0.963867	-0.318401	0.050838
N198	N	1.463867	0.181599	0.550838
H199	H	1.009148	-0.350820	0.050846
H200	H	1.509148	0.149180	0.550846
H201	H	0.803361	0.208391	0.568902
H202	H	1.303361	0.708391	1.068902
H203	H	0.930844	-0.710552	-0.000272
H204	H	1.430844	-0.210552	0.499728
N205	N	0.687922	-0.685415	-0.000207
N206	N	1.187922	-0.185415	0.499793
N207	N	0.673195	-0.724162	0.050839
N208	N	1.173195	-0.224162	0.550839
H209	H	0.627146	-0.744289	0.050853
H210	H	1.127146	-0.244289	0.550853
H211	H	0.462577	0.210742	-0.000208
H212	H	0.962577	0.710742	0.499792
N213	N	0.380267	0.192586	0.085559
N214	N	0.880267	0.692586	0.585559
N215	N	0.372002	0.193471	0.153073
N216	N	0.872002	0.693471	0.653073
H217	H	0.393428	0.229018	0.183696
H218	H	0.893428	0.729018	0.683696
N219	N	0.040692	-0.040038	-0.000243
N220	N	0.540692	0.459962	0.499757
N221	N	0.002134	-0.054833	0.050803
N222	N	0.502134	0.445167	0.550803
H223	H	-0.017881	-0.101126	0.050820
H224	H	0.482119	0.398874	0.550820
H225	H	0.177864	-0.024802	-0.000236
H226	H	0.677864	0.475198	0.499764
N227	N	0.690079	-0.538202	-0.000214
N228	N	1.190079	-0.038202	0.499786
N229	N	0.647583	-0.540615	-0.051252
N230	N	1.147583	-0.040615	0.448748
H231	H	0.602300	-0.508200	-0.051251
H232	H	1.102300	-0.008200	0.448749
N233	N	0.260186	-0.006656	-0.086002
N234	N	0.760186	0.493344	0.413998
N235	N	0.276832	-0.070802	-0.075291
N236	N	0.776832	0.429198	0.424709
H237	H	0.255415	-0.106364	-0.105902
H238	H	0.755415	0.393636	0.394098
N239	N	0.406620	-0.004495	-0.085964
N240	N	0.906620	0.495505	0.414036
N241	N	0.407084	-0.068882	-0.075264
N242	N	0.907084	0.431118	0.424736
H243	H	0.437920	-0.103667	-0.105857
H244	H	0.937920	0.396333	0.394143
N245	N	0.487564	-0.033441	-0.000170
N246	N	0.987564	0.466559	0.499830
N247	N	0.422881	-0.034387	-0.000184
N248	N	0.922881	0.465613	0.499816
H249	H	0.402853	-0.080674	-0.000177
H250	H	0.902853	0.419326	0.499823
H251	H	0.624755	-0.018218	-0.000144
H252	H	1.124755	0.481782	0.499856
H253	H	0.906157	0.006613	0.195509
H254	H	1.406157	0.506613	0.695509
H255	H	0.906166	0.006612	0.333797
H256	H	1.406166	0.506612	0.833797
