data_functionalizedCrystal
_audit_creation_method	'MofGen! by Chris Wilmer'
_symmetry_space_group_name_H-M	'P1'
_symmetry_Int_Tables_number	1
_symmetry_cell_setting	triclinic
loop_
_symmetry_equiv_pos_as_xyz
  x,y,z
_cell_length_a	21.395362
_cell_length_b	12.827892
_cell_length_c	12.827893
_cell_angle_alpha	90.007453
_cell_angle_beta	90.025165
_cell_angle_gamma	90.031271
loop_
_atom_site_label
_atom_site_type_symbol
_atom_site_fract_x
_atom_site_fract_y
_atom_site_fract_z
Zn1	Zn	0.957810	-0.415772	0.591443
Zn2	Zn	1.457810	0.084228	1.091443
Zn3	Zn	0.957775	-0.590481	0.416703
Zn4	Zn	1.457775	-0.090481	0.916703
Zn5	Zn	0.853059	-0.415803	0.416652
Zn6	Zn	1.353059	0.084197	0.916652
Zn7	Zn	0.853022	-0.590520	0.591337
Zn8	Zn	1.353022	-0.090520	1.091337
O9	O	0.905416	-0.503144	0.504034
O10	O	1.405416	-0.003144	1.004034
O11	O	1.045483	-0.438918	0.568329
O12	O	1.545483	0.061082	1.068329
O13	O	0.943885	-0.567306	0.270460
O14	O	1.443885	-0.067306	0.770460
O15	O	0.866985	-0.269562	0.439861
O16	O	1.366985	0.230438	0.939861
O17	O	1.045457	-0.567276	0.439948
O18	O	1.545457	-0.067276	0.939948
O19	O	0.943945	-0.269540	0.568279
O20	O	1.443945	0.230460	1.068279
O21	O	0.866951	-0.438970	0.270422
O22	O	1.366951	0.061030	0.770422
O23	O	0.765376	-0.439009	0.439758
O24	O	1.265376	0.060991	0.939758
O25	O	0.866922	-0.567343	0.737587
O26	O	1.366922	-0.067343	1.237587
O27	O	0.765349	-0.567373	0.568099
O28	O	1.265349	-0.067373	1.068099
O29	O	0.943909	-0.438956	0.737665
O30	O	1.443909	0.061044	1.237665
O31	O	0.943849	-0.736722	0.439846
O32	O	1.443849	-0.236722	0.939846
O33	O	0.866887	-0.736751	0.568149
O34	O	1.366887	-0.236751	1.068149
C35	C	0.742629	-0.503199	0.503912
C36	C	1.242629	-0.003199	1.003912
C37	C	0.672988	-0.503248	0.503885
C38	C	1.172988	-0.003248	1.003885
C39	C	0.640277	-0.570176	0.570612
C40	C	1.140277	-0.070176	1.070612
C41	C	0.574841	-0.570150	0.570659
C42	C	1.074841	-0.070150	1.070659
C43	C	0.542119	-0.503208	0.503960
C44	C	1.042119	-0.003208	1.003960
C45	C	0.574838	-0.436267	0.437228
C46	C	1.074838	0.063733	0.937228
C47	C	0.640272	-0.436287	0.437191
C48	C	1.140272	0.063713	0.937191
C49	C	0.438412	-0.494779	0.409882
C50	C	0.938412	0.005221	0.909882
C51	C	0.372979	-0.494767	0.409918
C52	C	0.872979	0.005233	0.909918
C53	C	0.340299	-0.503139	0.504075
C54	C	0.840299	-0.003139	1.004075
C55	C	0.373059	-0.511547	0.598200
C56	C	0.873059	-0.011547	1.098200
C57	C	0.438494	-0.511567	0.598163
C58	C	0.938494	-0.011567	1.098163
C59	C	0.471167	-0.503178	0.503993
C60	C	0.971167	-0.003178	1.003993
C61	C	0.236635	-0.570043	0.570858
C62	C	0.736635	-0.070043	1.070858
C63	C	0.171199	-0.570010	0.570907
C64	C	0.671199	-0.070010	1.070907
C65	C	0.171197	-0.436132	0.437466
C66	C	0.671197	0.063868	0.937466
C67	C	0.236632	-0.436160	0.437427
C68	C	0.736632	0.063840	0.937427
C69	C	0.269347	-0.503121	0.504122
C70	C	0.769347	-0.003121	1.004122
C71	C	0.905377	-0.774654	0.504014
C72	C	1.405377	-0.274654	1.004014
C73	C	0.905418	-0.890807	0.504041
C74	C	1.405418	-0.390807	1.004041
C75	C	0.943483	-0.942497	0.567644
C76	C	1.443483	-0.442497	1.067644
C77	C	0.943526	-1.062547	0.567673
C78	C	1.443526	-0.562547	1.067673
C79	C	1.068840	-0.503089	0.504156
C80	C	1.568840	-0.003089	1.004156
C81	C	1.138481	-0.503066	0.504208
C82	C	1.638481	-0.003066	1.004208
C83	C	0.905415	-0.503151	0.776604
C84	C	1.405415	-0.003151	1.276604
C85	C	0.905414	-0.503154	0.892757
C86	C	1.405414	-0.003154	1.392757
C87	C	0.905473	-0.230574	0.504076
C88	C	1.405473	0.269426	1.004076
C89	C	0.905497	-0.114420	0.504094
C90	C	1.405497	0.385580	1.004094
C91	C	0.943506	-0.439632	0.944580
C92	C	1.443506	0.060368	1.444580
C93	C	0.943506	-0.439633	1.064630
C94	C	1.443506	0.060367	1.564630
C95	C	0.905413	-0.503160	1.232524
C96	C	1.405413	-0.003160	1.732524
C97	C	0.905414	-0.503157	1.116371
C98	C	1.405414	-0.003157	1.616371
H99	H	0.548203	-0.624650	0.625000
H100	H	1.048203	-0.124650	1.125000
H101	H	0.872858	-0.935430	0.449615
H102	H	1.372858	-0.435430	0.949615
Cl103	Cl	0.855063	-0.587135	1.047576
Cl104	Cl	1.355063	-0.087135	1.547576
Cl105	Cl	0.993847	-1.131173	0.651742
Cl106	Cl	1.493847	-0.631173	1.151742
Cl107	Cl	0.993745	-0.873612	0.651697
Cl108	Cl	1.493745	-0.373612	1.151697
Cl109	Cl	0.993842	-0.355635	0.875870
Cl110	Cl	1.493842	0.144365	1.375870
H111	H	0.872908	-1.069975	0.449634
H112	H	1.372908	-0.569975	0.949634
H113	H	0.976119	-0.385253	1.109197
H114	H	1.476119	0.114747	1.609197
H115	H	0.666909	-0.624699	0.624922
H116	H	1.166909	-0.124699	1.124922
Cl117	Cl	0.479676	-0.522129	0.716486
Cl118	Cl	0.979676	-0.022129	1.216486
Cl119	Cl	0.331983	-0.522067	0.716579
Cl120	Cl	0.831983	-0.022067	1.216579
Cl121	Cl	0.277766	-0.654214	0.654707
Cl122	Cl	0.777766	-0.154214	1.154707
H123	H	0.144566	-0.624509	0.625250
H124	H	0.644566	-0.124509	1.125250
H125	H	0.872799	-0.557531	0.937266
H126	H	1.372799	-0.057531	1.437266
H127	H	0.263265	-0.381665	0.383086
H128	H	0.763265	0.118335	0.883086
Cl129	Cl	0.331800	-0.484196	0.291591
Cl130	Cl	0.831800	0.015804	0.791591
Cl131	Cl	0.130067	-0.351969	0.353621
Cl132	Cl	0.630067	0.148031	0.853621
H133	H	0.548192	-0.381760	0.382923
H134	H	1.048192	0.118240	0.882923
Cl135	Cl	0.479488	-0.484257	0.291500
Cl136	Cl	0.979488	0.015743	0.791500
H137	H	0.666905	-0.381783	0.382853
H138	H	1.166905	0.118217	0.882853
