data_functionalizedCrystal
_audit_creation_method	'MofGen! by Chris Wilmer'
_symmetry_space_group_name_H-M	'P1'
_symmetry_Int_Tables_number	1
_symmetry_cell_setting	triclinic
loop_
_symmetry_equiv_pos_as_xyz
  x,y,z
_cell_length_a	12.827893
_cell_length_b	13.897448
_cell_length_c	12.827885
_cell_angle_alpha	89.967724
_cell_angle_beta	89.980728
_cell_angle_gamma	90.017663
loop_
_atom_site_label
_atom_site_type_symbol
_atom_site_fract_x
_atom_site_fract_y
_atom_site_fract_z
Zn1	Zn	1.597653	-0.383969	-0.590831
Zn2	Zn	1.930986	-0.050636	-0.257497
Zn3	Zn	2.264320	0.282698	0.075836
Zn4	Zn	1.597540	-0.545295	-0.416083
Zn5	Zn	1.930873	-0.211962	-0.082750
Zn6	Zn	2.264207	0.121371	0.250583
Zn7	Zn	1.422894	-0.384016	-0.416104
Zn8	Zn	1.756228	-0.050683	-0.082771
Zn9	Zn	2.089561	0.282651	0.250562
Zn10	Zn	1.422873	-0.545224	-0.590783
Zn11	Zn	1.756206	-0.211890	-0.257450
Zn12	Zn	2.089539	0.121443	0.075883
O13	O	1.510240	-0.464626	-0.503450
O14	O	1.843573	-0.131293	-0.170117
O15	O	2.176907	0.202041	0.163216
O16	O	1.743874	-0.405380	-0.567661
O17	O	2.077207	-0.072046	-0.234328
O18	O	2.410541	0.261287	0.099006
O19	O	1.574335	-0.523951	-0.269850
O20	O	1.907668	-0.190618	0.063483
O21	O	2.241001	0.142716	0.396817
O22	O	1.446133	-0.249028	-0.439311
O23	O	1.779466	0.084305	-0.105977
O24	O	2.112799	0.417639	0.227356
O25	O	1.743791	-0.523905	-0.439275
O26	O	2.077124	-0.190572	-0.105942
O27	O	2.410458	0.142761	0.227392
O28	O	1.574527	-0.248994	-0.567681
O29	O	1.907860	0.084340	-0.234348
O30	O	2.241194	0.417673	0.098985
O31	O	1.446023	-0.405460	-0.269865
O32	O	1.779357	-0.072126	0.063468
O33	O	2.112690	0.261207	0.396801
O34	O	1.276655	-0.405390	-0.439265
O35	O	1.609989	-0.072057	-0.105931
O36	O	1.943322	0.261277	0.227402
O37	O	1.446096	-0.523783	-0.737026
O38	O	1.779429	-0.190450	-0.403692
O39	O	2.112762	0.142884	-0.070359
O40	O	1.276639	-0.523829	-0.567601
O41	O	1.609973	-0.190495	-0.234267
O42	O	1.943306	0.142838	0.099066
O43	O	1.574506	-0.405310	-0.737060
O44	O	1.907839	-0.071977	-0.403727
O45	O	2.241173	0.261357	-0.070394
O46	O	1.574314	-0.680267	-0.439229
O47	O	1.907647	-0.346934	-0.105896
O48	O	2.240980	-0.013601	0.227438
O49	O	1.445986	-0.680215	-0.567580
O50	O	1.779320	-0.346881	-0.234247
O51	O	2.112653	-0.013548	0.099086
C52	C	1.238730	-0.464607	-0.503430
C53	C	1.572063	-0.131274	-0.170097
C54	C	1.905397	0.202059	0.163236
C55	C	1.122577	-0.464623	-0.503447
C56	C	1.455910	-0.131289	-0.170113
C57	C	1.789244	0.202044	0.163220
C58	C	1.510164	-0.715240	-0.503420
C59	C	1.843497	-0.381907	-0.170087
C60	C	2.176830	-0.048574	0.163247
C61	C	1.510227	-0.822454	-0.503442
C62	C	1.843560	-0.489121	-0.170109
C63	C	2.176893	-0.155788	0.163225
C64	C	1.070812	-0.523321	-0.566853
C65	C	1.404145	-0.189988	-0.233520
C66	C	1.737479	0.143345	0.099813
C67	C	0.950762	-0.523338	-0.566872
C68	C	1.284095	-0.190005	-0.233538
C69	C	1.617428	0.143328	0.099795
C70	C	1.510336	-1.018749	-0.503508
C71	C	1.843670	-0.685416	-0.170174
C72	C	2.177003	-0.352083	0.163159
C73	C	1.510272	-0.909517	-0.503474
C74	C	1.843606	-0.576183	-0.170141
C75	C	2.176939	-0.242850	0.163192
C76	C	1.782810	-0.464645	-0.503471
C77	C	2.116143	-0.131312	-0.170138
C78	C	2.449477	0.202021	0.163196
C79	C	1.898963	-0.464654	-0.503480
C80	C	2.232296	-0.131320	-0.170146
C81	C	2.565630	0.202013	0.163187
C82	C	1.510311	-0.464533	-0.776021
C83	C	1.843644	-0.131200	-0.442687
C84	C	2.176978	0.202133	-0.109354
C85	C	1.510341	-0.464494	-0.892174
C86	C	1.843675	-0.131161	-0.558841
C87	C	2.177008	0.202173	-0.225507
C88	C	1.510345	-0.213033	-0.503504
C89	C	1.843678	0.120300	-0.170170
C90	C	2.177012	0.453634	0.163163
C91	C	1.510390	-0.105819	-0.503526
C92	C	1.843723	0.227514	-0.170193
C93	C	2.177056	0.560848	0.163140
C94	C	1.573890	-0.405858	-0.943976
C95	C	1.907223	-0.072525	-0.610642
C96	C	2.240556	0.260809	-0.277309
C97	C	1.573923	-0.405816	-1.064026
C98	C	1.907256	-0.072483	-0.730693
C99	C	2.240589	0.260851	-0.397360
C100	C	1.510229	-0.464649	-0.231940
C101	C	1.843563	-0.131315	0.101393
C102	C	2.176896	0.202018	0.434726
C103	C	1.510401	-0.464416	-0.115788
C104	C	1.843735	-0.131083	0.217546
C105	C	2.177068	0.202250	0.550879
H106	H	1.115371	-0.573559	-0.621128
H107	H	1.448704	-0.240226	-0.287795
H108	H	1.782037	0.093107	0.045538
H109	H	1.628268	-0.355686	-0.899449
H110	H	1.961601	-0.022352	-0.566115
H111	H	2.294934	0.310981	-0.232782
H112	H	0.943473	-0.414400	-0.449188
H113	H	1.276807	-0.081067	-0.115855
H114	H	1.610140	0.252266	0.217478
C115	C	1.647423	-0.337992	-1.124206
C116	C	1.980757	-0.004659	-0.790873
C117	C	2.314090	0.328674	-0.457539
N118	N	1.702784	-0.286904	-1.169536
N119	N	2.036117	0.046430	-0.836203
N120	N	2.369450	0.379763	-0.502869
H121	H	0.906245	-0.573595	-0.621154
H122	H	1.239578	-0.240262	-0.287820
H123	H	1.572911	0.093071	0.045513
H124	H	1.078018	-0.414377	-0.449180
H125	H	1.411351	-0.081044	-0.115846
H126	H	1.744685	0.252289	0.217487
H127	H	1.455953	-0.514656	-0.936701
H128	H	1.789286	-0.181323	-0.603368
H129	H	2.122619	0.152010	-0.270034
C130	C	1.436894	-0.532239	-1.055615
C131	C	1.770228	-0.198906	-0.722282
C132	C	2.103561	0.134427	-0.388948
N133	N	1.381527	-0.583322	-1.010285
N134	N	1.714861	-0.249989	-0.676951
N135	N	2.048194	0.083345	-0.343618
