data_functionalizedCrystal
_audit_creation_method	'MofGen! by Chris Wilmer'
_symmetry_space_group_name_H-M	'P1'
_symmetry_Int_Tables_number	1
_symmetry_cell_setting	triclinic
loop_
_symmetry_equiv_pos_as_xyz
  x,y,z
_cell_length_a	16.625546
_cell_length_b	19.077142
_cell_length_c	19.077271
_cell_angle_alpha	90.085571
_cell_angle_beta	87.715040
_cell_angle_gamma	92.282081
loop_
_atom_site_label
_atom_site_type_symbol
_atom_site_fract_x
_atom_site_fract_y
_atom_site_fract_z
Zn1	Zn	-0.390225	-1.058199	0.440438
Zn2	Zn	-0.519834	-1.062865	0.322929
Zn3	Zn	-0.379386	-0.945440	0.318229
Zn4	Zn	-0.519379	-0.940666	0.435677
O5	O	-0.452206	-1.001793	0.379318
O6	O	-0.412145	-1.157149	0.428810
O7	O	-0.496858	-1.051239	0.223975
O8	O	-0.267995	-0.960443	0.334467
O9	O	-0.507368	-1.160577	0.342476
O10	O	-0.275958	-1.043287	0.424253
O11	O	-0.393671	-0.964967	0.220522
O12	O	-0.393229	-0.846475	0.329849
O13	O	-0.506592	-0.952307	0.534639
O14	O	-0.496081	-0.842968	0.416137
O15	O	-0.411703	-1.038658	0.538137
O16	O	-0.632603	-1.046610	0.337859
O17	O	-0.632268	-0.956831	0.420694
C18	C	-0.661692	-1.001727	0.379286
C19	C	-0.751316	-1.001763	0.379299
C20	C	-0.443430	-0.819226	0.371967
C21	C	-0.439696	-0.741122	0.368839
C22	C	-0.460306	-0.994429	0.562597
C23	C	-0.463758	-0.991292	0.640699
C24	C	-1.079500	-1.001882	0.379377
C25	C	-0.988189	-1.001847	0.379357
C26	C	-0.915411	-1.001822	0.379337
C27	C	-0.824094	-1.001787	0.379318
C28	C	-0.241903	-1.001877	0.379367
C29	C	-0.152285	-1.001913	0.379387
C30	C	-0.491566	-0.702624	0.412224
C31	C	-0.488047	-0.629237	0.409288
C32	C	-0.432662	-0.594350	0.362963
C33	C	-0.380786	-0.632853	0.319576
C34	C	-0.384302	-0.706239	0.322516
C35	C	-0.416393	-0.375065	0.349364
C36	C	-0.412883	-0.301675	0.346425
C37	C	-0.520143	-0.298064	0.436139
C38	C	-0.523657	-0.371451	0.439072
C39	C	-0.471779	-0.409947	0.395687
N40	N	-0.429065	-0.519337	0.359959
N41	N	-0.475372	-0.484959	0.398695
C42	C	-0.461012	-0.185073	0.386690
C43	C	-0.464753	-0.263177	0.389811
C44	C	-0.415978	-1.034774	0.679214
C45	C	-0.419218	-1.031817	0.752599
C46	C	-0.470242	-0.985381	0.787468
C47	C	-0.518023	-0.941894	0.748947
C48	C	-0.514779	-0.944848	0.675563
C49	C	-0.485239	-0.971723	1.006746
C50	C	-0.488482	-0.968774	1.080135
C51	C	-0.389675	-1.058696	1.083782
C52	C	-0.386438	-1.061649	1.010397
C53	C	-0.434216	-1.018159	0.971882
N54	N	-0.473556	-0.982359	0.862479
N55	N	-0.430897	-1.021178	0.896872
C56	C	-0.444155	-1.009121	1.196753
C57	C	-0.440702	-1.012256	1.118650
H58	H	-0.536670	-0.731024	0.449945
F59	F	-0.565630	-0.898567	0.634573
H60	H	-0.530286	-0.597895	0.444616
H61	H	-0.568760	-0.399851	0.476793
H62	H	-0.562378	-0.266712	0.471461
F63	F	-0.353936	-0.264547	0.297113
F64	F	-0.361177	-0.416027	0.303191
H65	H	-0.335687	-0.604442	0.281860
F66	F	-0.332132	-1.111072	0.973292
F67	F	-0.329093	-0.747211	0.276341
H68	H	-0.350776	-1.094102	1.115148
F69	F	-0.361675	-1.084201	0.642111
H70	H	-0.380313	-1.067226	0.783955
H71	H	-0.530033	-0.930958	1.108523
F72	F	-0.536089	-0.925437	0.965766
H73	H	-0.559565	-0.904083	0.777343
