data_functionalizedCrystal
_audit_creation_method	'MofGen! by Chris Wilmer'
_symmetry_space_group_name_H-M	'P1'
_symmetry_Int_Tables_number	1
_symmetry_cell_setting	triclinic
loop_
_symmetry_equiv_pos_as_xyz
  x,y,z
_cell_length_a	18.101398
_cell_length_b	21.295416
_cell_length_c	18.101389
_cell_angle_alpha	90.020092
_cell_angle_beta	89.975673
_cell_angle_gamma	89.974402
loop_
_atom_site_label
_atom_site_type_symbol
_atom_site_fract_x
_atom_site_fract_y
_atom_site_fract_z
Zn1	Zn	1.132125	0.250755	-0.418830
Zn2	Zn	1.132023	0.356008	-0.294985
Zn3	Zn	1.008284	0.250748	-0.294991
Zn4	Zn	1.008236	0.355981	-0.418774
O5	O	1.070167	0.303373	-0.356895
O6	O	1.235744	0.264731	-0.402423
O7	O	1.115585	0.342054	-0.191353
O8	O	1.024774	0.162660	-0.311445
O9	O	1.235669	0.342060	-0.311434
O10	O	1.115760	0.162664	-0.402429
O11	O	1.024675	0.264720	-0.191357
O12	O	0.904645	0.264694	-0.311390
O13	O	1.024693	0.342014	-0.522414
O14	O	0.904610	0.342008	-0.402332
O15	O	1.115714	0.264705	-0.522456
O16	O	1.115539	0.444094	-0.311379
O17	O	1.024594	0.444074	-0.402326
C18	C	0.877756	0.303348	-0.356856
C19	C	0.795442	0.303352	-0.356857
C20	C	1.070070	0.466925	-0.356862
C21	C	1.070097	0.536893	-0.356873
C22	C	0.496351	0.303391	-0.356920
C23	C	0.527674	0.254504	-0.299980
C24	C	0.613292	0.254635	-0.299737
C25	C	0.644734	0.303371	-0.356889
C26	C	0.613617	0.369679	-0.335562
C27	C	0.527972	0.369407	-0.335166
C28	C	0.527966	0.286547	-0.435320
C29	C	0.613616	0.285070	-0.434892
C30	C	0.728593	0.303364	-0.356872
C31	C	0.412492	0.303403	-0.356934
C32	C	1.117494	0.569749	-0.309567
C33	C	1.117529	0.635491	-0.309587
C34	C	1.070154	0.668375	-0.356905
C35	C	1.022753	0.635511	-0.404220
C36	C	1.022725	0.569770	-0.404204
N37	N	1.005370	0.771637	-0.362543
N38	N	1.005399	0.834089	-0.362554
C39	C	1.070237	0.866450	-0.356958
N40	N	1.135047	0.834001	-0.351335
N41	N	1.135017	0.771543	-0.351321
C42	C	1.070179	0.739661	-0.356928
C43	C	1.117676	0.970592	-0.309671
C44	C	1.117713	1.036335	-0.309696
C45	C	1.022930	1.036354	-0.404326
C46	C	1.022900	0.970612	-0.404304
C47	C	1.070273	0.937734	-0.356973
C48	C	1.263329	0.303399	-0.356934
C49	C	1.345643	0.303410	-0.356951
C50	C	1.070210	0.303357	-0.550057
C51	C	1.070228	0.303350	-0.632371
C52	C	1.070285	1.139183	-0.356957
C53	C	1.070337	1.069215	-0.357016
C54	C	1.070271	0.303232	-0.931462
C55	C	1.012806	0.351719	-0.900111
C56	C	1.012962	0.351944	-0.814493
C57	C	1.070249	0.303291	-0.783080
C58	C	1.148275	0.321303	-0.814185
C59	C	1.147955	0.321621	-0.899830
C60	C	1.050389	0.236626	-0.899889
C61	C	1.048653	0.237011	-0.814238
C62	C	1.070241	0.303323	-0.699220
C63	C	1.070284	0.303202	-1.015322
C64	C	1.070167	0.303344	-0.164484
C65	C	1.070292	0.303173	-0.082171
H66	H	0.634332	0.205465	-0.313106
C67	C	0.970638	0.671680	-0.456270
C68	C	0.976630	0.662600	-0.540463
C69	C	0.924515	0.698767	-0.592518
C70	C	0.866408	0.744015	-0.560381
C71	C	0.860413	0.753097	-0.476184
C72	C	0.912528	0.716930	-0.424128
H73	H	1.019647	0.629103	-0.564257
H74	H	0.928954	0.692043	-0.654847
H75	H	0.827830	0.770788	-0.598915
H76	H	0.817397	0.786594	-0.452389
H77	H	0.908090	0.723653	-0.361800
H78	H	1.165421	0.369476	-0.792741
H79	H	0.633982	0.407079	-0.375736
C80	C	0.970755	0.934464	-0.456334
C81	C	1.002791	0.889218	-0.514497
C82	C	0.950646	0.853069	-0.566532
C83	C	0.866465	0.862167	-0.560403
C84	C	0.834424	0.907415	-0.502238
C85	C	0.886569	0.943563	-0.450204
H86	H	1.065112	0.882482	-0.519036
H87	H	0.974365	0.819574	-0.609590
H88	H	0.827864	0.835408	-0.598922
H89	H	0.772104	0.914151	-0.497699
H90	H	0.862850	0.977059	-0.407146
H91	H	1.025803	0.400788	-0.921635
H92	H	0.506125	0.265512	-0.242225
H93	H	0.984127	0.543018	-0.442727
H94	H	1.164810	0.370312	-0.919811
C95	C	0.642538	0.389316	-0.258968
C96	C	0.694347	0.345307	-0.215709
C97	C	0.723266	0.364940	-0.139113
C98	C	0.700376	0.428583	-0.105776
C99	C	0.648563	0.472596	-0.149035
C100	C	0.619644	0.452963	-0.225631
H101	H	0.711295	0.298191	-0.240386
H102	H	0.761621	0.332358	-0.107089
H103	H	0.721783	0.443117	-0.049075
H104	H	0.631615	0.519712	-0.124358
H105	H	0.581289	0.485545	-0.257655
C106	C	1.207771	0.276003	-0.927857
C107	C	1.255679	0.239401	-0.872306
C108	C	1.315503	0.193791	-0.900329
C109	C	1.327418	0.184782	-0.983903
C110	C	1.279508	0.221385	-1.039459
C111	C	1.219685	0.266995	-1.011436
H112	H	1.246860	0.246069	-0.810435
H113	H	1.350968	0.166696	-0.859203
H114	H	1.371702	0.151019	-1.004648
H115	H	1.288327	0.214717	-1.101331
H116	H	1.184219	0.294090	-1.052563
C117	C	0.641094	0.219152	-0.456627
C118	C	0.585144	0.166225	-0.471685
C119	C	0.612625	0.100307	-0.493421
C120	C	0.696056	0.087316	-0.500099
C121	C	0.752012	0.140244	-0.485041
C122	C	0.724530	0.206162	-0.463305
H123	H	0.523378	0.175841	-0.466742
H124	H	0.571203	0.061126	-0.504568
H125	H	0.716400	0.038519	-0.516189
H126	H	0.813778	0.130628	-0.489984
H127	H	0.765953	0.245343	-0.452158
C128	C	1.207674	0.275096	-0.786706
C129	C	1.185969	0.220339	-0.735581
C130	C	1.245367	0.174130	-0.708104
C131	C	1.326470	0.182677	-0.731752
C132	C	1.348179	0.237437	-0.782880
C133	C	1.288781	0.283646	-0.810357
H134	H	1.125928	0.214010	-0.718072
H135	H	1.229296	0.133593	-0.670255
H136	H	1.370440	0.148470	-0.711412
H137	H	1.408220	0.243766	-0.800389
H138	H	1.304852	0.324183	-0.848206
C139	C	0.499878	0.187873	-0.317829
C140	C	0.523556	0.132079	-0.269183
C141	C	0.495753	0.065447	-0.287032
C142	C	0.444272	0.054608	-0.353527
C143	C	0.420592	0.110403	-0.402177
C144	C	0.448395	0.177036	-0.384328
H145	H	0.561668	0.140101	-0.219956
H146	H	0.513283	0.024143	-0.251017
H147	H	0.423690	0.005282	-0.366740
H148	H	0.382480	0.102381	-0.451405
H149	H	0.430865	0.218339	-0.420343
H150	H	0.955102	0.340671	-0.793460
H151	H	1.026088	0.401314	-0.794008
H152	H	0.954773	0.340562	-0.920697
C153	C	0.974858	0.214457	-0.929041
C154	C	0.930266	0.256558	-0.981898
C155	C	0.854732	0.234398	-1.011050
C156	C	0.823789	0.170138	-0.987344
C157	C	0.868381	0.128034	-0.934483
C158	C	0.943916	0.150193	-0.905331
H159	H	0.953171	0.304130	-0.999450
H160	H	0.821722	0.265566	-1.050181
H161	H	0.767874	0.153734	-1.008924
H162	H	0.845476	0.080461	-0.916932
H163	H	0.976925	0.119025	-0.866200
H164	H	0.991233	0.223428	-0.793906
H165	H	1.087453	0.198968	-0.792855
H166	H	1.092243	0.200501	-0.920166
C167	C	1.169790	0.934421	-0.257616
C168	C	1.221937	0.970566	-0.205586
C169	C	1.274051	0.934398	-0.153531
C170	C	1.274018	0.862085	-0.153505
C171	C	1.221868	0.825936	-0.205537
C172	C	1.169755	0.862104	-0.257592
H173	H	1.221964	1.024100	-0.205603
H174	H	1.312656	0.961158	-0.115013
H175	H	1.312595	0.835311	-0.114971
H176	H	1.221842	0.772402	-0.205520
H177	H	1.131150	0.835344	-0.296110
H178	H	1.156314	1.063086	-0.271176
H179	H	0.984359	1.063127	-0.442856
C180	C	0.499968	0.420282	-0.388738
C181	C	0.451205	0.474254	-0.359875
C182	C	0.423204	0.525131	-0.413442
C183	C	0.443965	0.522035	-0.495872
C184	C	0.492731	0.468061	-0.524740
C185	C	0.520732	0.417185	-0.471173
H186	H	0.435834	0.476547	-0.298851
H187	H	0.387104	0.565086	-0.392072
H188	H	0.423237	0.559697	-0.535526
H189	H	0.508102	0.465768	-0.585764
H190	H	0.556832	0.377230	-0.492543
H191	H	0.507960	0.383693	-0.277852
C192	C	0.640929	0.269682	-0.221258
C193	C	0.689678	0.222092	-0.179721
C194	C	0.717312	0.237142	-0.101238
C195	C	0.696198	0.299781	-0.064293
C196	C	0.647447	0.347375	-0.105831
C197	C	0.619812	0.332326	-0.184314
H198	H	0.705310	0.175719	-0.207069
H199	H	0.753402	0.201909	-0.070489
H200	H	0.716655	0.310922	-0.006196
H201	H	0.631815	0.393749	-0.078483
H202	H	0.583723	0.367558	-0.215063
H203	H	0.506393	0.239037	-0.454709
H204	H	0.507710	0.322155	-0.477745
C205	C	0.642542	0.329659	-0.495283
C206	C	0.695156	0.383712	-0.474733
C207	C	0.724088	0.428302	-0.535123
C208	C	0.700406	0.418839	-0.616063
C209	C	0.647789	0.364783	-0.636617
C210	C	0.618857	0.320193	-0.576227
H211	H	0.712690	0.390719	-0.414813
H212	H	0.763038	0.468317	-0.519908
H213	H	0.721823	0.451847	-0.660768
H214	H	0.630255	0.357776	-0.696537
H215	H	0.579906	0.280178	-0.591442
H216	H	1.156069	0.542982	-0.271029
H217	H	1.156128	0.662248	-0.271065
