data_functionalizedCrystal
_audit_creation_method	'MofGen! by Chris Wilmer'
_symmetry_space_group_name_H-M	'P1'
_symmetry_Int_Tables_number	1
_symmetry_cell_setting	triclinic
loop_
_symmetry_equiv_pos_as_xyz
  x,y,z
_cell_length_a	12.811457
_cell_length_b	14.044190
_cell_length_c	11.892095
_cell_angle_alpha	94.240074
_cell_angle_beta	91.498327
_cell_angle_gamma	88.597539
loop_
_atom_site_label
_atom_site_type_symbol
_atom_site_fract_x
_atom_site_fract_y
_atom_site_fract_z
O1	O	1.401373	0.130896	0.049646
O2	O	1.901373	0.630896	0.549646
O3	O	1.099119	0.142797	0.018657
O4	O	1.599119	0.642797	0.518657
O5	O	1.245704	-0.001185	0.033708
O6	O	1.745704	0.498815	0.533708
O7	O	1.254788	0.274878	0.034595
O8	O	1.754788	0.774878	0.534595
O9	O	1.233480	0.010802	0.220460
O10	O	1.733480	0.510802	0.720460
O11	O	1.086895	0.154783	0.205409
O12	O	1.586895	0.654783	0.705409
O13	O	1.389149	0.142883	0.236399
O14	O	1.889149	0.642883	0.736399
Zn15	Zn	1.236081	0.150736	0.250555
Zn16	Zn	1.736081	0.650736	0.750555
Zn17	Zn	1.252187	0.134943	0.004501
Zn18	Zn	1.752187	0.634943	0.504501
O19	O	1.242564	0.286864	0.221347
O20	O	1.742564	0.786864	0.721347
C21	C	1.054092	0.147756	0.108043
C22	C	1.554092	0.647756	0.608043
C23	C	0.938134	0.144663	0.096155
C24	C	1.438134	0.644663	0.596155
C25	C	0.706909	0.151902	0.277437
C26	C	1.206909	0.651902	0.777437
C27	C	0.597956	0.148996	0.266273
C28	C	1.097956	0.648996	0.766273
C29	C	0.611274	0.135938	0.062664
C30	C	1.111274	0.635938	0.562664
C31	C	0.720227	0.138844	0.073828
C32	C	1.220227	0.638844	0.573828
C33	C	0.768040	0.146828	0.181218
C34	C	1.268040	0.646828	0.681218
C35	C	0.876995	0.149740	0.192381
C36	C	1.376995	0.649740	0.692381
C37	C	0.890311	0.136676	-0.011226
C38	C	1.390311	0.636676	0.488774
C39	C	0.781358	0.133770	-0.022390
C40	C	1.281358	0.633770	0.477610
C41	C	1.235619	-0.030548	0.126680
C42	C	1.735619	0.469452	0.626680
C43	C	1.223768	-0.135898	0.125475
C44	C	1.723768	0.364102	0.625475
C45	C	1.286151	-0.385529	0.131827
C46	C	1.786151	0.114471	0.631827
C47	C	1.202122	-0.328786	0.123219
C48	C	1.702122	0.171214	0.623219
C49	C	1.214169	-0.221453	0.124475
C50	C	1.714169	0.278547	0.624475
C51	C	1.274106	-0.492872	0.130571
C52	C	1.774106	0.007128	0.630571
C53	C	1.434177	0.137924	0.147010
C54	C	1.934177	0.637924	0.647010
C55	C	1.550135	0.141016	0.158890
C56	C	2.050135	0.641016	0.658890
C57	C	1.252649	0.316227	0.128373
C58	C	1.752649	0.816227	0.628373
C59	C	1.264501	0.421577	0.129570
C60	C	1.764501	0.921577	0.629570
N61	N	1.225098	0.161513	0.418481
N62	N	1.725098	0.661513	0.918481
N63	N	1.263178	0.124159	-0.163425
N64	N	1.763178	0.624159	0.336575
C65	C	1.339604	0.049111	0.666886
C66	C	1.839604	0.549111	1.166886
C67	C	1.331934	0.056651	0.784441
C68	C	1.831934	0.556651	1.284441
C69	C	1.202085	0.184129	0.771146
C70	C	1.702085	0.684129	1.271146
C71	C	1.209754	0.176588	0.653592
C72	C	1.709754	0.676588	1.153592
C73	C	1.278517	0.109078	0.601466
C74	C	1.778517	0.609078	1.101466
C75	C	1.286191	0.101543	0.483910
C76	C	1.786191	0.601543	0.983910
C77	C	1.156337	0.229016	0.470617
C78	C	1.656337	0.729016	0.970617
C79	C	1.148667	0.236556	0.588171
C80	C	1.648667	0.736556	1.088171
H81	H	0.572326	0.129422	-0.024767
H82	H	1.072326	0.629422	0.475233
N83	N	1.394325	-0.004597	0.851283
N84	N	1.894325	0.495403	1.351283
N85	N	1.387466	0.002139	0.956240
N86	N	1.887466	0.502139	1.456240
H87	H	1.431527	-0.041123	1.003450
H88	H	1.931527	0.458877	1.503450
H89	H	0.742413	0.127265	-0.109824
H90	H	1.242413	0.627265	0.390176
H91	H	1.146092	0.239088	0.813601
H92	H	1.646092	0.739088	1.313601
H93	H	0.745839	0.158415	0.364878
H94	H	1.245839	0.658415	0.864878
N95	N	0.925855	0.157881	0.302064
N96	N	1.425855	0.657881	0.802064
N97	N	1.023134	0.160472	0.312022
N98	N	1.523134	0.660472	0.812022
H99	H	1.057642	0.166218	0.389487
H100	H	1.557642	0.666218	0.889487
H101	H	1.395601	-0.005853	0.624446
H102	H	1.895601	0.494147	1.124446
H103	H	0.940095	0.132550	-0.089575
H104	H	1.440095	0.632550	0.410425
H105	H	1.121136	-0.360816	0.114909
H106	H	1.621136	0.139184	0.614909
N107	N	1.387736	-0.345341	0.142249
N108	N	1.887736	0.154659	0.642249
N109	N	1.397499	-0.256941	0.143268
N110	N	1.897499	0.243059	0.643268
H111	H	1.469242	-0.228546	0.150631
H112	H	1.969242	0.271454	0.650631
H113	H	0.548187	0.153133	0.344624
H114	H	1.048187	0.653133	0.844624
H115	H	1.342184	0.046576	0.441471
H116	H	1.842184	0.546576	0.941471
H117	H	1.106599	0.277848	0.417338
H118	H	1.606599	0.777848	0.917338
H119	H	1.092679	0.291519	0.630625
H120	H	1.592679	0.791519	1.130625
