data_functionalizedCrystal
_audit_creation_method	'MofGen! by Chris Wilmer'
_symmetry_space_group_name_H-M	'P1'
_symmetry_Int_Tables_number	1
_symmetry_cell_setting	triclinic
loop_
_symmetry_equiv_pos_as_xyz
  x,y,z
_cell_length_a	21.395362
_cell_length_b	21.395355
_cell_length_c	21.395361
_cell_angle_alpha	89.978489
_cell_angle_beta	90.046585
_cell_angle_gamma	89.956060
loop_
_atom_site_label
_atom_site_type_symbol
_atom_site_fract_x
_atom_site_fract_y
_atom_site_fract_z
Zn1	Zn	0.957859	-0.354573	-0.249246
Zn2	Zn	1.457859	0.145427	0.250754
Zn3	Zn	0.957762	-0.249790	-0.354005
Zn4	Zn	1.457762	0.250210	0.145995
Zn5	Zn	0.853074	-0.249774	-0.249275
Zn6	Zn	1.353074	0.250226	0.250725
Zn7	Zn	0.853044	-0.354494	-0.354018
Zn8	Zn	1.353044	0.145506	0.145982
O9	O	0.905435	-0.302158	-0.301636
O10	O	1.405435	0.197842	0.198364
O11	O	1.045524	-0.340712	-0.263125
O12	O	1.545524	0.159288	0.236875
O13	O	0.943847	-0.162110	-0.340119
O14	O	1.443847	0.337890	0.159881
O15	O	0.867028	-0.263702	-0.161593
O16	O	1.367028	0.236298	0.338407
O17	O	1.045453	-0.263729	-0.340091
O18	O	1.545453	0.236271	0.159909
O19	O	0.944013	-0.340697	-0.161572
O20	O	1.444013	0.159303	0.338428
O21	O	0.866934	-0.162098	-0.263174
O22	O	1.366934	0.337902	0.236826
O23	O	0.765392	-0.263626	-0.263187
O24	O	1.265392	0.236374	0.236813
O25	O	0.866976	-0.442183	-0.340113
O26	O	1.366976	0.057817	0.159887
O27	O	0.765370	-0.340564	-0.340141
O28	O	1.265370	0.159436	0.159859
O29	O	0.943983	-0.442240	-0.263137
O30	O	1.443983	0.057760	0.236863
O31	O	0.943817	-0.263653	-0.441685
O32	O	1.443817	0.236347	0.058315
O33	O	0.866881	-0.340579	-0.441695
O34	O	1.366881	0.159421	0.058305
C35	C	0.742647	-0.302085	-0.301669
C36	C	1.242647	0.197915	0.198331
C37	C	0.673006	-0.302069	-0.301698
C38	C	1.173006	0.197931	0.198302
C39	C	0.905487	-0.465581	-0.301623
C40	C	1.405487	0.034419	0.198377
C41	C	0.905509	-0.535222	-0.301618
C42	C	1.405509	-0.035222	0.198382
C43	C	0.905352	-0.302123	-0.464424
C44	C	1.405352	0.197877	0.035576
C45	C	0.905374	-0.302129	-0.534065
C46	C	1.405374	0.197871	-0.034065
C47	C	0.640297	-0.342070	-0.341822
C48	C	1.140297	0.157930	0.158178
C49	C	0.574862	-0.342098	-0.341806
C50	C	1.074862	0.157902	0.158194
C51	C	0.542138	-0.302113	-0.301674
C52	C	1.042138	0.197887	0.198326
C53	C	0.574854	-0.262109	-0.261543
C54	C	1.074854	0.237891	0.238457
C55	C	0.640288	-0.262087	-0.261555
C56	C	1.140288	0.237913	0.238445
C57	C	0.438413	-0.245708	-0.296627
C58	C	0.938413	0.254292	0.203373
C59	C	0.372980	-0.245730	-0.296619
C60	C	0.872980	0.254270	0.203381
C61	C	0.340317	-0.302182	-0.301633
C62	C	0.840317	0.197818	0.198367
C63	C	0.373095	-0.358616	-0.306668
C64	C	0.873095	0.141384	0.193332
C65	C	0.438529	-0.358594	-0.306681
C66	C	0.938529	0.141406	0.193319
C67	C	0.471185	-0.302133	-0.301656
C68	C	0.971185	0.197867	0.198344
C69	C	0.236656	-0.342218	-0.341742
C70	C	0.736656	0.157782	0.158258
C71	C	0.171219	-0.342247	-0.341723
C72	C	0.671219	0.157753	0.158277
C73	C	0.171213	-0.262252	-0.261462
C74	C	0.671213	0.237748	0.238538
C75	C	0.236648	-0.262229	-0.261479
C76	C	0.736648	0.237771	0.238521
C77	C	0.269366	-0.302211	-0.301622
C78	C	0.769366	0.197789	0.198378
C79	C	1.068858	-0.302231	-0.301603
C80	C	1.568858	0.197769	0.198397
C81	C	1.138499	-0.302262	-0.301589
C82	C	1.638499	0.197738	0.198411
C83	C	0.945605	-0.567966	-0.261535
C84	C	1.445605	-0.067966	0.238465
C85	C	0.945604	-0.633402	-0.261508
C86	C	1.445604	-0.133402	0.238492
C87	C	0.905514	-0.666091	-0.301575
C88	C	1.405514	-0.166091	0.198425
C89	C	0.865410	-0.633339	-0.341661
C90	C	1.365410	-0.133339	0.158339
C91	C	0.865407	-0.567904	-0.341682
C92	C	1.365407	-0.067904	0.158318
C93	C	0.900538	-0.769752	-0.357992
C94	C	1.400538	-0.269752	0.142008
C95	C	0.900545	-0.835185	-0.357972
C96	C	1.400545	-0.335185	0.142028
C97	C	0.905518	-0.867911	-0.301509
C98	C	1.405518	-0.367911	0.198491
C99	C	0.910497	-0.835197	-0.245065
C100	C	1.410497	-0.335197	0.254935
C101	C	0.910495	-0.769763	-0.245086
C102	C	1.410495	-0.269763	0.254914
C103	C	0.905512	-0.737043	-0.301556
C104	C	1.405512	-0.237043	0.198444
C105	C	0.945615	-0.971608	-0.261393
C106	C	1.445615	-0.471608	0.238607
C107	C	0.945610	-1.037045	-0.261365
C108	C	1.445610	-0.537045	0.238635
C109	C	0.865419	-1.036980	-0.341524
C110	C	1.365419	-0.536980	0.158476
C111	C	0.865421	-0.971545	-0.341547
C112	C	1.365421	-0.471545	0.158453
C113	C	0.905522	-0.938863	-0.301482
C114	C	1.405522	-0.438863	0.198518
C115	C	0.905419	-0.139370	-0.301603
C116	C	1.405419	0.360630	0.198397
C117	C	0.905518	-0.069729	-0.301432
C118	C	1.405518	0.430271	0.198568
C119	C	0.945470	-0.262114	-0.566752
C120	C	1.445470	0.237886	-0.066752
C121	C	0.945499	-0.262128	-0.632188
C122	C	1.445499	0.237872	-0.132188
C123	C	0.905421	-0.302150	-0.664933
C124	C	1.405421	0.197850	-0.164933
C125	C	0.865322	-0.342172	-0.632238
C126	C	1.365322	0.157828	-0.132238
C127	C	0.865299	-0.342162	-0.566804
C128	C	1.365299	0.157838	-0.066804
C129	C	0.849006	-0.307041	-0.768664
C130	C	1.349006	0.192959	-0.268664
C131	C	0.849029	-0.307047	-0.834097
C132	C	1.349029	0.192953	-0.334097
C133	C	0.905494	-0.302187	-0.866754
C134	C	1.405494	0.197813	-0.366754
C135	C	0.961939	-0.297307	-0.833970
C136	C	1.461939	0.202693	-0.333970
C137	C	0.961915	-0.297296	-0.768536
C138	C	1.461915	0.202704	-0.268536
C139	C	0.905443	-0.302167	-0.735886
C140	C	1.405443	0.197833	-0.235886
C141	C	0.945625	-0.262186	-0.970394
C142	C	1.445625	0.237814	-0.470394
C143	C	0.945655	-0.262204	-1.035830
C144	C	1.445655	0.237796	-0.535830
C145	C	0.865473	-0.342245	-1.035879
C146	C	1.365473	0.157755	-0.535879
C147	C	0.865448	-0.342230	-0.970444
C148	C	1.365448	0.157770	-0.470444
C149	C	0.905524	-0.302197	-0.937705
C150	C	1.405524	0.197803	-0.437705
C151	C	0.905535	-0.302206	-0.138213
C152	C	1.405535	0.197794	0.361787
C153	C	0.905578	-0.302227	-0.068571
C154	C	1.405578	0.197773	0.431429
H155	H	0.666932	-0.374627	-0.374509
H156	H	1.166932	0.125373	0.125491
Cl157	Cl	0.479468	-0.174732	-0.290325
Cl158	Cl	0.979468	0.325268	0.209675
Cl159	Cl	0.995860	-0.211796	-0.525598
Cl160	Cl	1.495860	0.288204	-0.025598
Cl161	Cl	0.130099	-0.392543	-0.392165
Cl162	Cl	0.630099	0.107457	0.107835
H163	H	0.346502	-0.404585	-0.310751
H164	H	0.846502	0.095415	0.189249
H165	H	0.263280	-0.229652	-0.228809
H166	H	0.763280	0.270348	0.271191
Cl167	Cl	0.277790	-0.392483	-0.392203
Cl168	Cl	0.777790	0.107517	0.107797
Cl169	Cl	0.130080	-0.211989	-0.211006
Cl170	Cl	0.630080	0.288011	0.288994
H171	H	0.832766	-0.659958	-0.374282
H172	H	1.332766	-0.159958	0.125718
H173	H	0.548226	-0.374674	-0.374479
H174	H	1.048226	0.125326	0.125521
Cl175	Cl	1.032870	-0.291168	-0.727324
Cl176	Cl	1.532870	0.208832	-0.227324
H177	H	0.978153	-0.229544	-0.658807
H178	H	1.478153	0.270456	-0.158807
H179	H	0.803068	-0.311015	-0.860785
H180	H	1.303068	0.188985	-0.360785
Cl181	Cl	1.032928	-0.291190	-0.875017
Cl182	Cl	1.532928	0.208810	-0.375017
Cl183	Cl	0.479734	-0.429535	-0.313006
Cl184	Cl	0.979734	0.070465	0.186994
H185	H	0.978259	-0.229590	-0.943737
H186	H	1.478259	0.270410	-0.443737
Cl187	Cl	0.916749	-0.728639	-0.174132
Cl188	Cl	1.416749	-0.228639	0.325868
Cl189	Cl	0.331780	-0.174786	-0.290289
Cl190	Cl	0.831780	0.325214	0.209711
H191	H	0.548206	-0.229554	-0.228866
H192	H	1.048206	0.270446	0.271134
Cl193	Cl	0.681410	-0.211795	-0.211110
Cl194	Cl	1.181410	0.288205	0.288890
Cl195	Cl	0.996072	-0.211900	-1.076924
Cl196	Cl	1.496072	0.288100	-0.576924
H197	H	0.978258	-0.541360	-0.228910
H198	H	1.478258	-0.041360	0.271090
Cl199	Cl	0.815014	-0.930379	-0.391943
Cl200	Cl	1.315014	-0.430379	0.108057
Cl201	Cl	0.996002	-0.674574	-0.211101
Cl202	Cl	1.496002	-0.174574	0.288899
Cl203	Cl	0.996024	-0.930519	-0.211024
Cl204	Cl	1.496024	-0.430519	0.288976
H205	H	0.914548	-0.861842	-0.199088
H206	H	1.414548	-0.361842	0.300912
Cl207	Cl	0.996031	-1.078209	-0.210980
Cl208	Cl	1.496031	-0.578209	0.289020
H209	H	0.896494	-0.861815	-0.403932
H210	H	1.396494	-0.361815	0.096068
Cl211	Cl	0.778015	-0.313152	-0.727616
Cl212	Cl	1.278015	0.186848	-0.227616
Cl213	Cl	0.815013	-1.078069	-0.391890
Cl214	Cl	1.315013	-0.578069	0.108110
Cl215	Cl	0.815092	-0.392563	-1.077039
Cl216	Cl	1.315092	0.107437	-0.577039
Cl217	Cl	0.814997	-0.526738	-0.392078
Cl218	Cl	1.314997	-0.026738	0.107922
H219	H	0.832795	-0.374811	-0.943828
H220	H	1.332795	0.125189	-0.443828
H221	H	0.896321	-0.743111	-0.403959
H222	H	1.396321	-0.243111	0.096041
H223	H	0.832691	-0.374760	-0.658904
H224	H	1.332691	0.125240	-0.158904
Cl225	Cl	0.814887	-0.392469	-0.525709
Cl226	Cl	1.314887	0.107531	-0.025709
