data_functionalizedCrystal
_audit_creation_method	'MofGen! by Chris Wilmer'
_symmetry_space_group_name_H-M	'P1'
_symmetry_Int_Tables_number	1
_symmetry_cell_setting	triclinic
loop_
_symmetry_equiv_pos_as_xyz
  x,y,z
_cell_length_a	12.811457
_cell_length_b	23.532407
_cell_length_c	11.892095
_cell_angle_alpha	93.859970
_cell_angle_beta	91.498327
_cell_angle_gamma	83.449296
loop_
_atom_site_label
_atom_site_type_symbol
_atom_site_fract_x
_atom_site_fract_y
_atom_site_fract_z
O1	O	1.388390	0.078562	0.048317
O2	O	1.084956	0.085705	0.017206
O3	O	1.245821	-0.000711	0.033720
O4	O	1.227524	0.164978	0.031803
O5	O	1.232409	0.006483	0.220351
O6	O	1.071543	0.092899	0.203837
O7	O	1.374977	0.085756	0.234947
Zn8	Zn	1.221131	0.090470	0.249024
Zn9	Zn	1.238802	0.080991	0.003130
O10	O	1.214112	0.172172	0.218433
C11	C	1.039436	0.088681	0.106542
C12	C	0.923786	0.086825	0.094686
C13	C	0.691843	0.091170	0.275894
C14	C	0.583178	0.089426	0.264759
C15	C	0.597791	0.081588	0.061283
C16	C	0.706456	0.083333	0.072418
C17	C	0.753477	0.088124	0.179727
C18	C	0.862143	0.089872	0.190860
C19	C	0.876754	0.082031	-0.012615
C20	C	0.768090	0.080287	-0.023749
C21	C	1.238649	-0.018334	0.126990
C22	C	1.237247	-0.081564	0.126855
C23	C	1.323662	-0.479855	0.135653
C24	C	1.322361	-0.539268	0.135511
O25	O	1.402466	-0.575259	0.143683
N26	N	1.226725	-0.562796	0.125707
C27	C	1.132385	-0.526908	0.116032
O28	O	1.050920	-0.552375	0.107679
C29	C	1.133688	-0.467496	0.116166
C30	C	1.229329	-0.443971	0.125983
C31	C	1.419295	-0.456330	0.145468
C32	C	1.420595	-0.396921	0.145612
C33	C	1.326262	-0.361037	0.135941
C34	C	1.230629	-0.384563	0.126127
C35	C	1.039350	-0.431610	0.106484
C36	C	1.040661	-0.372195	0.106618
C37	C	1.136301	-0.348670	0.116435
C38	C	1.137596	-0.289270	0.116601
N39	N	1.233232	-0.265742	0.126405
C40	C	1.327565	-0.301626	0.136075
C41	C	1.129657	-0.651676	0.115750
C42	C	1.128353	-0.711086	0.115624
C43	C	1.318329	-0.723442	0.135100
C44	C	1.319631	-0.664031	0.135234
C45	C	1.225292	-0.628148	0.125554
C46	C	1.330288	-0.176863	0.136378
C47	C	1.331580	-0.117448	0.136526
C48	C	1.141605	-0.105097	0.117043
C49	C	1.140312	-0.164506	0.116901
C50	C	1.234663	-0.200388	0.126566
O51	O	1.057533	-0.253245	0.108429
O52	O	1.409017	-0.276151	0.144413
C53	C	1.420497	0.082780	0.145608
C54	C	1.536148	0.084636	0.157458
C55	C	1.221284	0.189795	0.125160
C56	C	1.222687	0.253025	0.125288
N57	N	1.209078	0.096938	0.416840
N58	N	1.250863	0.074519	-0.164686
C59	C	1.334733	0.029476	0.666388
C60	C	1.326315	0.034001	0.783865
C61	C	1.183822	0.110512	0.769276
C62	C	1.192239	0.105986	0.651798
C63	C	1.267698	0.065467	0.600358
C64	C	1.276120	0.060945	0.482879
C65	C	1.133622	0.137452	0.468291
C66	C	1.125204	0.141978	0.585768
H67	H	0.730126	0.095079	0.363269
F68	F	0.912184	0.094974	0.305066
H69	H	1.396181	-0.003513	0.624506
F70	F	1.026557	-0.736115	0.105196
H71	H	0.729791	0.076383	-0.111117
F72	F	0.942356	0.078798	-0.114970
H73	H	1.397511	-0.644881	0.143227
F74	F	1.356431	0.017823	0.428136
H75	H	1.380900	0.004692	0.837624
H76	H	1.063764	0.174966	0.627664
H77	H	1.064802	-0.075870	0.109174
F78	F	1.103508	0.153627	0.824033
F79	F	1.433378	-0.092415	0.146974
H80	H	0.532998	0.091909	0.343069
H81	H	1.079040	0.166761	0.414516
H82	H	1.407118	-0.206072	0.144244
F83	F	1.522392	-0.371893	0.156036
F84	F	1.519706	-0.494512	0.155761
F85	F	0.547740	0.076446	-0.052912
F86	F	1.418727	-0.761643	0.145387
F87	F	0.937554	-0.456633	0.096031
F88	F	1.029241	-0.613491	0.105456
H89	H	0.963837	-0.342981	0.098733
H90	H	1.062432	-0.183660	0.108939
