data_functionalizedCrystal
_audit_creation_method	'MofGen! by Chris Wilmer'
_symmetry_space_group_name_H-M	'P1'
_symmetry_Int_Tables_number	1
_symmetry_cell_setting	triclinic
loop_
_symmetry_equiv_pos_as_xyz
  x,y,z
_cell_length_a	29.839134
_cell_length_b	21.295417
_cell_length_c	21.295412
_cell_angle_alpha	90.030668
_cell_angle_beta	89.966777
_cell_angle_gamma	89.974633
loop_
_atom_site_label
_atom_site_type_symbol
_atom_site_fract_x
_atom_site_fract_y
_atom_site_fract_z
Zn1	Zn	0.686804	0.250711	-0.356074
Zn2	Zn	1.186804	0.750711	0.143926
Zn3	Zn	0.686735	0.355980	-0.250800
Zn4	Zn	1.186735	0.855980	0.249200
Zn5	Zn	0.611672	0.250719	-0.250802
Zn6	Zn	1.111672	0.750719	0.249198
Zn7	Zn	0.611648	0.355937	-0.356014
Zn8	Zn	1.111648	0.855937	0.143986
O9	O	0.649215	0.303337	-0.303422
O10	O	1.149215	0.803337	0.196578
O11	O	0.749662	0.264690	-0.342134
O12	O	1.249662	0.764690	0.157866
O13	O	0.676759	0.342037	-0.162711
O14	O	1.176759	0.842037	0.337289
O15	O	0.621676	0.162628	-0.264792
O16	O	1.121676	0.662628	0.235208
O17	O	0.749611	0.342030	-0.264789
O18	O	1.249611	0.842030	0.235211
O19	O	0.676875	0.162623	-0.342136
O20	O	1.176875	0.662623	0.157864
O21	O	0.621610	0.264703	-0.162712
O22	O	1.121610	0.764703	0.337288
O23	O	0.548801	0.264662	-0.264734
O24	O	1.048801	0.764662	0.235266
O25	O	0.621637	0.341958	-0.444111
O26	O	1.121637	0.841958	0.055889
O27	O	0.548784	0.341965	-0.342032
O28	O	1.048784	0.841965	0.157968
O29	O	0.676853	0.264649	-0.444156
O30	O	1.176853	0.764649	0.055844
O31	O	0.676737	0.444063	-0.264730
O32	O	1.176737	0.944063	0.235270
O33	O	0.621571	0.444032	-0.342031
O34	O	1.121571	0.944032	0.157969
C35	C	0.532492	0.303310	-0.303377
C36	C	1.032492	0.803310	0.196623
C37	C	0.482558	0.303314	-0.303372
C38	C	0.982558	0.803314	0.196628
C39	C	0.649156	0.466888	-0.303388
C40	C	1.149156	0.966888	0.196612
C41	C	0.649172	0.536856	-0.303394
C42	C	1.149172	1.036856	0.196606
C43	C	0.649250	0.303297	-0.467613
C44	C	1.149250	0.803297	0.032387
C45	C	0.649265	0.303281	-0.537581
C46	C	1.149265	0.803281	-0.037581
C47	C	0.172915	0.343648	-0.343623
C48	C	0.672915	0.843648	0.156377
C49	C	-0.014758	0.343666	-0.343651
C50	C	0.485242	0.843666	0.156349
O51	O	-0.039022	0.377930	-0.377846
O52	O	0.460978	0.877930	0.122154
N53	N	-0.038227	0.303360	-0.303470
N54	N	0.461773	0.803360	0.196530
C55	C	-0.014775	0.263043	-0.263282
C56	C	0.485225	0.763043	0.236718
O57	O	-0.039044	0.228756	-0.229111
O58	O	0.460956	0.728756	0.270889
C59	C	0.172897	0.263023	-0.263258
C60	C	0.672897	0.763023	0.236742
C61	C	0.196364	0.303336	-0.303437
C62	C	0.696364	0.803336	0.196563
C63	C	0.196382	0.383957	-0.383799
C64	C	0.696382	0.883957	0.116201
C65	C	0.243297	0.383955	-0.383789
C66	C	0.743297	0.883955	0.116211
C67	C	0.266746	0.343643	-0.343603
C68	C	0.766746	0.843643	0.156397
C69	C	0.243279	0.303334	-0.303427
C70	C	0.743279	0.803334	0.196573
C71	C	0.196348	0.222704	-0.223074
C72	C	0.696348	0.722704	0.276926
C73	C	0.243269	0.222701	-0.223072
C74	C	0.743269	0.722701	0.276928
C75	C	0.266736	0.263015	-0.263251
C76	C	0.766736	0.763015	0.236749
C77	C	0.313643	0.263019	-0.263231
C78	C	0.813643	0.763019	0.236769
N79	N	0.337112	0.303326	-0.303412
N80	N	0.837112	0.803326	0.196588
C81	C	0.313664	0.343637	-0.343598
C82	C	0.813664	0.843637	0.156402
C83	C	-0.113306	0.263058	-0.263297
C84	C	0.386694	0.763058	0.236703
C85	C	-0.160224	0.263064	-0.263302
C86	C	0.339776	0.763064	0.236698
C87	C	-0.160203	0.343685	-0.343671
C88	C	0.339797	0.843685	0.156329
C89	C	-0.113285	0.343682	-0.343663
C90	C	0.386715	0.843682	0.156337
C91	C	-0.089837	0.303364	-0.303478
C92	C	0.410163	0.803364	0.196522
C93	C	0.412190	0.343630	-0.343574
C94	C	0.912190	0.843630	0.156426
C95	C	0.459109	0.343625	-0.343558
C96	C	0.959109	0.843625	0.156442
C97	C	0.459084	0.263002	-0.263192
C98	C	0.959084	0.763002	0.236808
C99	C	0.412169	0.263008	-0.263204
C100	C	0.912169	0.763008	0.236796
C101	C	0.388723	0.303324	-0.303400
C102	C	0.888723	0.803324	0.196600
O103	O	0.337936	0.228768	-0.229059
O104	O	0.837936	0.728768	0.270941
O105	O	0.337940	0.377909	-0.377773
O106	O	0.837940	0.877909	0.122227
C107	C	0.125999	0.343650	-0.343632
C108	C	0.625999	0.843650	0.156368
C109	C	0.102533	0.303341	-0.303456
C110	C	0.602533	0.803341	0.196544
C111	C	0.125981	0.263029	-0.263270
C112	C	0.625981	0.763029	0.236730
C113	C	0.055615	0.303347	-0.303461
C114	C	0.555615	0.803347	0.196539
C115	C	0.032166	0.343659	-0.343647
C116	C	0.532166	0.843659	0.156353
C117	C	0.055635	0.383965	-0.383828
C118	C	0.555635	0.883965	0.116172
C119	C	0.102551	0.383962	-0.383818
C120	C	0.602551	0.883962	0.116182
C121	C	0.102512	0.222723	-0.223090
C122	C	0.602512	0.722723	0.276910
C123	C	0.055597	0.222729	-0.223102
C124	C	0.555597	0.722729	0.276898
C125	C	0.032148	0.263041	-0.263288
C126	C	0.532148	0.763041	0.236712
C127	C	0.766393	0.303364	-0.303468
C128	C	1.266393	0.803364	0.196532
C129	C	0.816327	0.303375	-0.303488
C130	C	1.316327	0.803375	0.196512
C131	C	0.649286	0.139146	-0.303471
C132	C	1.149286	0.639146	0.196529
C133	C	0.649316	0.069178	-0.303492
C134	C	1.149316	0.569178	0.196508
C135	C	0.677922	0.569718	-0.263185
C136	C	1.177922	1.069718	0.236815
C137	C	0.677943	0.635461	-0.263199
C138	C	1.177943	1.135461	0.236801
C139	C	0.649206	0.668339	-0.303415
C140	C	1.149206	1.168339	0.196585
C141	C	0.620453	0.635469	-0.343632
C142	C	1.120453	1.135469	0.156368
C143	C	0.620436	0.569728	-0.343621
C144	C	1.120436	1.069728	0.156379
N145	N	0.609906	0.771600	-0.308199
N146	N	1.109906	1.271600	0.191801
N147	N	0.609923	0.834051	-0.308206
N148	N	1.109923	1.334051	0.191794
C149	C	0.649256	0.866413	-0.303451
C150	C	1.149256	1.366413	0.196549
N151	N	0.688572	0.833965	-0.298678
N152	N	1.188572	1.333965	0.201322
N153	N	0.688554	0.771508	-0.298668
N154	N	1.188554	1.271508	0.201332
C155	C	0.649221	0.739624	-0.303432
C156	C	1.149221	1.239624	0.196568
C157	C	0.678032	0.970561	-0.263256
C158	C	1.178032	1.470561	0.236744
C159	C	0.678054	1.036305	-0.263274
C160	C	1.178054	1.536305	0.236726
C161	C	0.620560	1.036311	-0.343704
C162	C	1.120560	1.536311	0.156296
C163	C	0.620542	0.970569	-0.343689
C164	C	1.120542	1.470569	0.156311
C165	C	0.649277	0.937698	-0.303461
C166	C	1.149277	1.437698	0.196539
C167	C	0.620556	0.263008	-0.570438
C168	C	1.120556	0.763008	-0.070438
C169	C	0.620555	0.262996	-0.636181
C170	C	1.120555	0.762996	-0.136181
C171	C	0.649270	0.303251	-0.669063
C172	C	1.149270	0.803251	-0.169063
C173	C	0.677980	0.343531	-0.636198
C174	C	1.177980	0.843531	-0.136198
C175	C	0.677978	0.343546	-0.570457
C176	C	1.177978	0.843546	-0.070457
N177	N	0.688596	0.308063	-0.772311
N178	N	1.188596	0.808063	-0.272311
N179	N	0.688597	0.308045	-0.834762
N180	N	1.188597	0.808045	-0.334762
C181	C	0.649278	0.303209	-0.867138
C182	C	1.149278	0.803209	-0.367138
N183	N	0.609957	0.298379	-0.834703
N184	N	1.109957	0.798379	-0.334703
N185	N	0.609956	0.298393	-0.772246
N186	N	1.109956	0.798393	-0.272246
C187	C	0.649275	0.303239	-0.740349
C188	C	1.149275	0.803239	-0.240349
C189	C	0.620565	0.262921	-0.971281
C190	C	1.120565	0.762921	-0.471281
C191	C	0.620563	0.262914	-1.037025
C192	C	1.120563	0.762914	-0.537025
C193	C	0.677992	0.343446	-1.037041
C194	C	1.177992	0.843446	-0.537041
C195	C	0.677991	0.343456	-0.971299
C196	C	1.177991	0.843456	-0.471299
C197	C	0.649278	0.303191	-0.938423
C198	C	1.149278	0.803191	-0.438423
C199	C	0.649206	0.303330	-0.139871
C200	C	1.149206	0.803330	0.360129
C201	C	0.649278	0.303170	-0.069903
C202	C	1.149278	0.803170	0.430097
H203	H	0.393105	0.376457	-0.376307
H204	H	0.893105	0.876457	0.123693
C205	C	0.598539	0.655666	-0.450192
C206	C	1.098539	1.155666	0.049808
C207	C	0.588865	0.671607	-0.387840
C208	C	1.088865	1.171607	0.112160
H209	H	0.579040	0.677979	-0.477486
H210	H	1.079040	1.177979	0.022514
H211	H	0.594412	0.611815	-0.455938
H212	H	1.094412	1.111815	0.044062
H213	H	0.628724	0.666403	-0.459442
H214	H	1.128724	1.166403	0.040558
H215	H	0.558680	0.660865	-0.378588
H216	H	1.058680	1.160865	0.121412
H217	H	0.592988	0.715468	-0.382091
H218	H	1.092988	1.215468	0.117909
H219	H	0.121653	0.416789	-0.416536
H220	H	0.621653	0.916789	0.083464
C221	C	0.614308	1.110185	-0.428381
C222	C	1.114308	1.610185	0.071619
C223	C	0.588972	1.072443	-0.387914
C224	C	1.088972	1.572443	0.112086
H225	H	0.594806	1.132495	-0.455673
H226	H	1.094806	1.632495	0.044327
H227	H	0.633862	1.084497	-0.452482
H228	H	1.133862	1.584497	0.047518
H229	H	0.631433	1.139166	-0.404430
H230	H	1.131433	1.639166	0.095570
H231	H	0.571849	1.043459	-0.411865
H232	H	1.071849	1.543459	0.088135
H233	H	0.569410	1.098133	-0.363811
H234	H	1.069410	1.598133	0.136189
H235	H	0.597024	0.542971	-0.376365
H236	H	1.097024	1.042971	0.123635
C237	C	0.734864	0.977155	-0.183757
C238	C	1.234864	1.477155	0.316243
C239	C	0.709620	0.934424	-0.219043
C240	C	1.209620	1.434424	0.280957
H241	H	0.754366	0.954845	-0.156465
H242	H	1.254366	1.454845	0.343535
H243	H	0.715307	1.002837	-0.159656
H244	H	1.215307	1.502837	0.340344
H245	H	0.752046	1.002756	-0.211222
H246	H	1.252046	1.502756	0.288778
H247	H	0.692435	0.908826	-0.191578
H248	H	1.192435	1.408826	0.308422
H249	H	0.729179	0.908731	-0.243146
H250	H	1.229179	1.408731	0.256854
C251	C	0.703475	0.736239	-0.227479
C252	C	1.203475	1.236239	0.272521
C253	C	0.709535	0.671594	-0.218980
C254	C	1.209535	1.171594	0.281020
H255	H	0.722977	0.758543	-0.200177
H256	H	1.222977	1.258543	0.299823
H257	H	0.673295	0.747038	-0.218241
H258	H	1.173295	1.247038	0.281759
H259	H	0.710052	0.746977	-0.269782
H260	H	1.210052	1.246977	0.230218
H261	H	0.702955	0.660855	-0.176679
H262	H	1.202955	1.160855	0.323321
H263	H	0.739722	0.660790	-0.228214
H264	H	1.239722	1.160790	0.271786
H265	H	-0.179327	0.230243	-0.230578
H266	H	0.320673	0.730243	0.269422
C267	C	0.614248	0.896589	-0.428342
C268	C	1.114248	1.396589	0.071658
C269	C	0.588934	0.934444	-0.387884
C270	C	1.088934	1.434444	0.112116
H271	H	0.594733	0.874291	-0.455630
H272	H	1.094733	1.374291	0.044370
H273	H	0.631355	0.867603	-0.404388
H274	H	1.131355	1.367603	0.095612
H275	H	0.633818	0.922203	-0.452453
H276	H	1.133818	1.422203	0.047547
H277	H	0.569366	0.908830	-0.363770
H278	H	1.069366	1.408830	0.136230
H279	H	0.571819	0.963434	-0.411841
H280	H	1.071819	1.463434	0.088159
C281	C	0.738429	0.352180	-1.111000
C282	C	1.238429	0.852180	-0.611000
C283	C	0.709562	0.387692	-1.073172
C284	C	1.209562	0.887692	-0.573172
H285	H	0.757921	0.379498	-1.133303
H286	H	1.257921	0.879498	-0.633303
H287	H	0.721329	0.328205	-1.139981
H288	H	1.221329	0.828205	-0.639981
H289	H	0.755618	0.324762	-1.085366
H290	H	1.255618	0.824762	-0.585366
H291	H	0.692371	0.415107	-1.098807
H292	H	1.192371	0.915107	-0.598807
H293	H	0.726664	0.411677	-1.044188
H294	H	1.226664	0.911677	-0.544188
C295	C	-0.060543	0.428368	-0.352254
C296	C	0.439457	0.928368	0.147746
C297	C	-0.087493	0.387992	-0.387832
C298	C	0.412507	0.887992	0.112168
H299	H	-0.044624	0.455726	-0.379526
H300	H	0.455376	0.955726	0.120474
H301	H	-0.039861	0.404361	-0.328331
H302	H	0.460139	0.904361	0.171669
H303	H	-0.078868	0.452410	-0.324785
H304	H	0.421132	0.952410	0.175215
H305	H	-0.069167	0.363946	-0.415299
H306	H	0.430833	0.863946	0.084701
H307	H	-0.108177	0.412002	-0.411767
H308	H	0.391823	0.912002	0.088233
C309	C	0.563792	0.183404	-0.577031
C310	C	1.063792	0.683404	-0.077031
C311	C	0.588992	0.218754	-0.534302
C312	C	1.088992	0.718754	-0.034302
H313	H	0.544304	0.156087	-0.554720
H314	H	1.044304	0.656087	-0.054720
H315	H	0.583378	0.159326	-0.602692
H316	H	1.083378	0.659326	-0.102692
H317	H	0.546598	0.210827	-0.602654
H318	H	1.046598	0.710827	-0.102654
H319	H	0.606189	0.191331	-0.508682
H320	H	1.106189	0.691331	-0.008682
H321	H	0.569403	0.242834	-0.508631
H322	H	1.069403	0.742834	-0.008631
C323	C	0.734760	0.423047	-0.977920
C324	C	1.234760	0.923047	-0.477920
C325	C	0.709554	0.387718	-0.935177
C326	C	1.209554	0.887718	-0.435177
H327	H	0.754249	0.450370	-0.955619
H328	H	1.254249	0.950370	-0.455619
H329	H	0.715178	0.447117	-1.003536
H330	H	1.215178	0.947117	-0.503536
H331	H	0.751955	0.395611	-1.003585
H332	H	1.251955	0.895611	-0.503585
H333	H	0.692357	0.415153	-0.909515
H334	H	1.192357	0.915153	-0.409515
H335	H	0.729139	0.363646	-0.909550
H336	H	1.229139	0.863646	-0.409550
C337	C	0.560134	0.254206	-0.710078
C338	C	1.060134	0.754206	-0.210078
C339	C	0.588999	0.218722	-0.672309
C340	C	1.088999	0.718722	-0.172309
H341	H	0.540653	0.226871	-0.732377
H342	H	1.040653	0.726871	-0.232377
H343	H	0.577235	0.278177	-0.739063
H344	H	1.077235	0.778177	-0.239063
H345	H	0.542933	0.281628	-0.684406
H346	H	1.042933	0.781628	-0.184406
H347	H	0.606203	0.191304	-0.697982
H348	H	1.106203	0.691304	-0.197982
H349	H	0.571896	0.194740	-0.643320
H350	H	1.071896	0.694740	-0.143320
C351	C	-0.118049	0.183371	-0.183853
C352	C	0.381951	0.683371	0.316147
C353	C	-0.087536	0.218740	-0.219117
C354	C	0.412464	0.718740	0.280883
H355	H	-0.102141	0.156016	-0.156574
H356	H	0.397859	0.656016	0.343426
H357	H	-0.136328	0.159333	-0.211328
H358	H	0.363672	0.659333	0.288672
H359	H	-0.136368	0.210780	-0.159732
H360	H	0.363632	0.710780	0.340268
H361	H	-0.069219	0.191331	-0.243241
H362	H	0.430781	0.691331	0.256759
H363	H	-0.069250	0.242780	-0.191638
H364	H	0.430750	0.742780	0.308362
C365	C	0.473499	0.232201	-0.156653
C366	C	0.973499	0.732201	0.343347
C367	C	0.484868	0.218696	-0.219019
C368	C	0.984868	0.718696	0.280981
H369	H	0.489420	0.204849	-0.129385
H370	H	0.989420	0.704849	0.370615
H371	H	0.442203	0.226424	-0.150906
H372	H	0.942203	0.726424	0.349094
H373	H	0.481170	0.274486	-0.147370
H374	H	0.981170	0.774486	0.352630
H375	H	0.477194	0.176412	-0.228304
H376	H	0.977194	0.676412	0.271696
H377	H	0.516171	0.224468	-0.224769
H378	H	1.016171	0.724468	0.275231
C379	C	0.738553	1.110091	-0.254708
C380	C	1.238553	1.610091	0.245292
C381	C	0.709704	1.072395	-0.219108
C382	C	1.209704	1.572395	0.280892
H383	H	0.758107	1.132359	-0.227450
H384	H	1.258107	1.632359	0.272550
H385	H	0.721444	1.139104	-0.278628
H386	H	1.221444	1.639104	0.221372
H387	H	0.755677	1.084374	-0.282182
H388	H	1.255677	1.584374	0.217818
H389	H	0.692578	1.098113	-0.191637
H390	H	1.192578	1.598113	0.308363
H391	H	0.726814	1.043379	-0.195178
H392	H	1.226814	1.543379	0.304822
H393	H	0.597185	0.230135	-0.944512
H394	H	1.097185	0.730135	-0.444512
H395	H	0.597182	0.230121	-1.063776
H396	H	1.097182	0.730121	-0.563776
C397	C	-0.232120	0.379477	-0.379367
C398	C	0.267880	0.879477	0.120633
C399	C	-0.185984	0.387992	-0.387850
C400	C	0.314016	0.887992	0.112150
H401	H	-0.248036	0.406824	-0.406645
H402	H	0.251964	0.906824	0.093355
H403	H	-0.239828	0.388643	-0.337061
H404	H	0.260172	0.888643	0.162939
H405	H	-0.239785	0.337189	-0.388651
H406	H	0.260215	0.837189	0.111349
H407	H	-0.178318	0.430279	-0.378561
H408	H	0.321682	0.930279	0.121439
H409	H	-0.178273	0.378831	-0.430165
H410	H	0.321727	0.878831	0.069835
C411	C	0.703489	0.379255	-0.736983
C412	C	1.203489	0.879255	-0.236983
C413	C	0.709547	0.387776	-0.672340
C414	C	1.209547	0.887776	-0.172340
H415	H	0.722980	0.406570	-0.759294
H416	H	1.222980	0.906570	-0.259294
H417	H	0.673305	0.388461	-0.747730
H418	H	1.173305	0.888461	-0.247730
H419	H	0.710083	0.336956	-0.747765
H420	H	1.210083	0.836956	-0.247765
H421	H	0.702950	0.430074	-0.661557
H422	H	1.202950	0.930074	-0.161557
H423	H	0.739738	0.378575	-0.661588
H424	H	1.239738	0.878575	-0.161588
C425	C	0.359437	0.178312	-0.254641
C426	C	0.859437	0.678312	0.245359
C427	C	0.386375	0.218687	-0.219044
C428	C	0.886375	0.718687	0.280956
H429	H	0.343516	0.150946	-0.227382
H430	H	0.843516	0.650946	0.272618
H431	H	0.377768	0.154285	-0.282108
H432	H	0.877768	0.654285	0.217892
H433	H	0.338754	0.202325	-0.278568
H434	H	0.838754	0.702325	0.221432
H435	H	0.407061	0.194675	-0.195120
H436	H	0.907061	0.694675	0.304880
H437	H	0.368043	0.242717	-0.191566
H438	H	0.868043	0.742717	0.308434
C439	C	0.699815	0.450150	-0.550199
C440	C	1.199815	0.950150	-0.050199
C441	C	0.709539	0.387815	-0.534337
C442	C	1.209539	0.887815	-0.034337
H443	H	0.719303	0.477477	-0.527901
H444	H	1.219303	0.977477	-0.027901
H445	H	0.669630	0.459352	-0.539394
H446	H	1.169630	0.959352	-0.039394
H447	H	0.703926	0.455896	-0.594058
H448	H	1.203926	0.955896	-0.094058
H449	H	0.705425	0.382067	-0.490478
H450	H	1.205425	0.882067	0.009522
H451	H	0.739731	0.378609	-0.545137
H452	H	1.239731	0.878609	-0.045137
C453	C	0.454410	0.423316	-0.423006
C454	C	0.954410	0.923316	0.076994
C455	C	0.484903	0.387937	-0.387730
C456	C	0.984903	0.887937	0.112270
H457	H	0.470333	0.450667	-0.450277
H458	H	0.970333	0.950667	0.049723
H459	H	0.436090	0.447359	-0.395538
H460	H	0.936090	0.947359	0.104462
H461	H	0.436129	0.395913	-0.447135
H462	H	0.936129	0.895913	0.052865
H463	H	0.503182	0.415340	-0.363597
H464	H	1.003182	0.915340	0.136403
H465	H	0.503230	0.363893	-0.415201
H466	H	1.003230	0.863893	0.084799
H467	H	0.262400	0.416781	-0.416508
H468	H	0.762400	0.916781	0.083492
H469	H	0.177295	0.416784	-0.416526
H470	H	0.677295	0.916784	0.083474
H471	H	0.262358	0.189865	-0.190352
H472	H	0.762358	0.689865	0.309648
C473	C	0.201060	0.143000	-0.143650
C474	C	0.701060	0.643000	0.356350
C475	C	0.170561	0.178384	-0.178912
C476	C	0.670561	0.678384	0.321088
H477	H	0.185140	0.115634	-0.116390
H478	H	0.685140	0.615634	0.383610
H479	H	0.219337	0.170394	-0.119517
H480	H	0.719337	0.670394	0.380483
H481	H	0.219382	0.118967	-0.171132
H482	H	0.719382	0.618967	0.328868
H483	H	0.152241	0.202420	-0.151430
H484	H	0.652241	0.702420	0.348570
H485	H	0.152277	0.150987	-0.203048
H486	H	0.652277	0.650987	0.296952
H487	H	0.036535	0.416790	-0.416547
H488	H	0.536535	0.916790	0.083453
H489	H	0.036494	0.189902	-0.190378
H490	H	0.536494	0.689902	0.309622
H491	H	0.121599	0.189896	-0.190365
H492	H	0.621599	0.689896	0.309635
H493	H	0.701321	0.542956	-0.230431
H494	H	1.201321	1.042956	0.269569
