data_functionalizedCrystal
_audit_creation_method	'MofGen! by Chris Wilmer'
_symmetry_space_group_name_H-M	'P1'
_symmetry_Int_Tables_number	1
_symmetry_cell_setting	triclinic
loop_
_symmetry_equiv_pos_as_xyz
  x,y,z
_cell_length_a	6.817900
_cell_length_b	10.773890
_cell_length_c	10.773894
_cell_angle_alpha	96.485539
_cell_angle_beta	96.645922
_cell_angle_gamma	96.645716
loop_
_atom_site_label
_atom_site_type_symbol
_atom_site_fract_x
_atom_site_fract_y
_atom_site_fract_z
V1	V	-3.915798	-0.168034	-0.386966
O2	O	-3.940463	0.012792	-0.381691
O3	O	-3.834375	-0.337720	-0.382308
O4	O	-3.834377	-0.163379	-0.556653
O5	O	-3.940461	-0.162756	-0.206139
V6	V	-4.407984	-0.146649	-0.365582
O7	O	-4.158054	-0.214942	-0.433873
O8	O	-4.615925	-0.099741	-0.318674
O9	O	-4.266200	0.023037	-0.370240
O10	O	-4.500717	-0.327476	-0.370857
O11	O	-4.500718	-0.151928	-0.546408
O12	O	-4.266199	-0.151304	-0.195895
C13	C	-3.672411	-0.379151	-0.375684
C14	C	-3.686905	-0.517858	-0.373007
C15	C	-3.672413	-0.156760	-0.598077
C16	C	-3.686907	-0.154077	-0.736783
C17	C	-3.864075	-0.585666	-0.377659
C18	C	-3.879059	-0.729028	-0.374892
C19	C	-3.864077	-0.158727	-0.804591
C20	C	-3.879061	-0.155954	-0.947951
C21	C	-4.091506	0.064461	-0.376860
C22	C	-4.056249	0.203167	-0.379545
C23	C	-4.091506	-0.157928	-0.154464
C24	C	-4.056251	-0.160604	-0.015757
H25	H	-4.004664	-0.537585	-0.383698
H26	H	-4.196852	-0.748759	-0.385582
C27	C	-3.563798	-0.037131	-0.962090
C28	C	-3.689246	-0.147803	-1.012842
H29	H	-3.446625	-0.032097	-1.002159
H30	H	-3.528831	-0.037938	-0.874275
H31	H	-3.630856	0.033700	-0.975436
H32	H	-3.622194	-0.218635	-0.999487
H33	H	-3.724211	-0.147006	-1.100678
C34	C	-3.740824	-0.923375	-0.365576
C35	C	-3.689242	-0.793917	-0.366744
H36	H	-3.623639	-0.963431	-0.360537
H37	H	-3.825928	-0.957783	-0.440650
H38	H	-3.807861	-0.936705	-0.294733
H39	H	-3.622217	-0.780586	-0.437593
H40	H	-3.604104	-0.759498	-0.291662
H41	H	-3.546318	-0.565941	-0.366982
C42	C	-4.002297	-0.168046	-0.610239
C43	C	-4.053880	-0.166874	-0.739696
H44	H	-4.119482	-0.173083	-0.570182
H45	H	-3.917190	-0.092974	-0.575829
H46	H	-3.935264	-0.238891	-0.596910
H47	H	-4.120901	-0.096023	-0.753025
H48	H	-4.139021	-0.241954	-0.774116
C49	C	-4.371528	-0.279420	-1.001637
C50	C	-4.246078	-0.168751	-0.950877
H51	H	-4.488720	-0.284442	-0.961588
H52	H	-4.304496	-0.350246	-0.988282
H53	H	-4.406471	-0.278612	-1.089466
H54	H	-4.211122	-0.169563	-0.863049
H55	H	-4.313122	-0.097906	-0.964221
C56	C	-3.371657	-0.035254	-0.750927
C57	C	-3.497105	-0.145926	-0.801679
H58	H	-3.254484	-0.030221	-0.790996
H59	H	-3.336690	-0.036062	-0.663112
H60	H	-3.438715	0.035577	-0.764273
H61	H	-3.430052	-0.216758	-0.788324
H62	H	-3.532070	-0.145130	-0.889515
