data_functionalizedCrystal
_audit_creation_method	'MofGen! by Chris Wilmer'
_symmetry_space_group_name_H-M	'P1'
_symmetry_Int_Tables_number	1
_symmetry_cell_setting	triclinic
loop_
_symmetry_equiv_pos_as_xyz
  x,y,z
_cell_length_a	21.295411
_cell_length_b	19.077142
_cell_length_c	19.077068
_cell_angle_alpha	89.885450
_cell_angle_beta	92.278858
_cell_angle_gamma	92.323127
loop_
_atom_site_label
_atom_site_type_symbol
_atom_site_fract_x
_atom_site_fract_y
_atom_site_fract_z
Zn1	Zn	-0.405704	-1.063027	-0.323084
Zn2	Zn	-0.304479	-1.058205	-0.440571
Zn3	Zn	-0.296058	-0.945509	-0.318353
Zn4	Zn	-0.405322	-0.940762	-0.435824
O5	O	-0.352890	-1.001876	-0.379458
O6	O	-0.395960	-1.160719	-0.342636
O7	O	-0.215271	-1.043224	-0.424365
O8	O	-0.307238	-0.965103	-0.220650
O9	O	-0.321590	-1.157176	-0.428953
O10	O	-0.387794	-1.051443	-0.224126
O11	O	-0.209085	-0.960427	-0.334572
O12	O	-0.306868	-0.846548	-0.329969
O13	O	-0.493463	-0.957012	-0.420862
O14	O	-0.387144	-0.843060	-0.416275
O15	O	-0.493743	-1.046840	-0.338033
O16	O	-0.321220	-1.038621	-0.538272
O17	O	-0.395309	-0.952336	-0.534784
C18	C	-0.346051	-0.819308	-0.372094
C19	C	-0.343141	-0.741204	-0.368960
C20	C	-0.383507	-0.702710	-0.412491
C21	C	-0.380776	-0.629323	-0.409537
C22	C	-0.337673	-0.594431	-0.363056
C23	C	-0.297304	-0.632930	-0.319522
C24	C	-0.300040	-0.706316	-0.322472
C25	C	-0.325020	-0.375145	-0.349403
C26	C	-0.322286	-0.301754	-0.346457
C27	C	-0.405758	-0.298152	-0.436472
C28	C	-0.408487	-0.371539	-0.439422
C29	C	-0.368121	-0.410032	-0.395884
N30	N	-0.334878	-0.519418	-0.360038
N31	N	-0.370919	-0.485044	-0.398900
C32	C	-0.517082	-1.001935	-0.379446
C33	C	-0.587051	-1.001960	-0.379440
C34	C	-0.620065	-1.048731	-0.336309
C35	C	-0.685806	-1.048731	-0.336279
C36	C	-0.718532	-1.001967	-0.379392
C37	C	-0.685511	-0.955187	-0.422526
C38	C	-0.619770	-0.955183	-0.422550
N39	N	-0.823666	-0.994080	-0.440645
N40	N	-0.886117	-0.994087	-0.440621
C41	C	-0.916605	-1.001974	-0.379321
N42	N	-0.882283	-1.009867	-0.318046
N43	N	-0.819827	-1.009863	-0.318072
C44	C	-0.789817	-1.001966	-0.379371
C45	C	-1.020903	-1.048749	-0.336153
C46	C	-1.086645	-1.048744	-0.336121
C47	C	-1.086349	-0.955203	-0.422375
C48	C	-1.020607	-0.955204	-0.422401
C49	C	-0.987888	-1.001981	-0.379291
C50	C	-0.189337	-1.001860	-0.379422
C51	C	-0.119367	-1.001979	-0.379234
C52	C	-0.359151	-0.994459	-0.562025
C53	C	-0.361853	-0.991350	-0.640130
C54	C	-0.359749	-0.185157	-0.386848
C55	C	-0.362653	-0.263261	-0.389988
C56	C	-0.324583	-1.034849	-0.678618
C57	C	-0.327128	-1.031929	-0.752007
C58	C	-0.366940	-0.985507	-0.786906
C59	C	-0.404215	-0.942007	-0.748412
C60	C	-0.401673	-0.944931	-0.675026
C61	C	-0.378679	-0.971945	-1.006197
C62	C	-0.381217	-0.969023	-1.079589
C63	C	-0.304131	-1.058947	-1.083178
C64	C	-0.301590	-1.061863	-1.009789
C65	C	-0.338867	-1.018366	-0.971303
N66	N	-0.369541	-0.982520	-0.861920
N67	N	-0.336269	-1.021357	-0.896290
C68	C	-0.346620	-1.009341	-0.196179
C69	C	-0.343947	-1.012522	-0.118077
H70	H	-0.292146	-0.406477	-0.313957
C71	C	-1.186990	-0.913687	-0.460651
C72	C	-1.122314	-0.903806	-0.469776
H73	H	-1.209194	-0.881959	-0.489919
H74	H	-1.195749	-0.905317	-0.413027
H75	H	-1.199889	-0.960487	-0.472829
H76	H	-1.109414	-0.857007	-0.457593
H77	H	-1.113551	-0.912170	-0.517410
C78	C	-0.919701	-0.913668	-0.460735
C79	C	-0.984314	-0.903797	-0.469819
H80	H	-0.897296	-0.881925	-0.490007
H81	H	-0.911066	-0.960456	-0.472928
H82	H	-0.906920	-0.905305	-0.413110
H83	H	-0.997096	-0.912165	-0.517443
H84	H	-0.992953	-0.856998	-0.457630
H85	H	-0.292161	-1.072647	-0.650209
H86	H	-0.432023	-0.909511	-0.643689
C87	C	-0.398436	-0.781401	-0.510349
C88	C	-0.430888	-0.741059	-0.463585
H89	H	-0.427690	-0.805070	-0.541894
H90	H	-0.374793	-0.814829	-0.484848
H91	H	-0.370824	-0.751660	-0.536028
H92	H	-0.458496	-0.770801	-0.437902
H93	H	-0.454542	-0.707627	-0.489089
C94	C	-0.463540	-0.633133	-0.498828
C95	C	-0.425138	-0.587010	-0.457398
H96	H	-0.490924	-0.607009	-0.528381
H97	H	-0.487690	-0.663006	-0.469408
H98	H	-0.438048	-0.660656	-0.526800
H99	H	-0.450631	-0.559491	-0.429423
H100	H	-0.400987	-0.557125	-0.486821
C101	C	-0.213721	-0.280470	-0.311116
C102	C	-0.274914	-0.263390	-0.295358
H103	H	-0.184480	-0.256785	-0.279568
H104	H	-0.205608	-0.266526	-0.357824
H105	H	-0.209572	-0.329684	-0.306630
H106	H	-0.279064	-0.214176	-0.299849
H107	H	-0.283029	-0.277330	-0.248638
C108	C	-0.256048	-0.522036	-0.275029
C109	C	-0.249927	-0.594579	-0.268426
H110	H	-0.226795	-0.498362	-0.243487
H111	H	-0.297556	-0.510453	-0.264334
H112	H	-0.247932	-0.508095	-0.321745
H113	H	-0.258047	-0.608521	-0.221712
H114	H	-0.208409	-0.606167	-0.279116
H115	H	-0.273784	-1.094360	-1.114522
H116	H	-0.296778	-1.067349	-0.783341
H117	H	-0.592891	-0.917093	-0.457672
H118	H	-0.438623	-0.266804	-0.471917
C119	C	-0.708552	-0.916112	-0.540125
C120	C	-0.721478	-0.903783	-0.469921
H121	H	-0.730753	-0.884371	-0.569382
H122	H	-0.721462	-0.962901	-0.552305
H123	H	-0.664672	-0.909415	-0.546301
H124	H	-0.765358	-0.910486	-0.463743
H125	H	-0.708571	-0.856983	-0.457736
C126	C	-0.225662	-1.150469	-1.020712
C127	C	-0.257835	-1.112900	-0.971431
H128	H	-0.198653	-1.181980	-0.997030
H129	H	-0.201403	-1.118727	-1.048138
H130	H	-0.255113	-1.176187	-1.050384
H131	H	-0.228384	-1.087177	-0.941763
H132	H	-0.282095	-1.144646	-0.943993
C133	C	-1.027796	-1.141203	-0.250886
C134	C	-0.984933	-1.100156	-0.288759
H135	H	-1.005589	-1.172935	-0.221624
H136	H	-1.055505	-1.166836	-0.282573
H137	H	-1.051357	-1.111673	-0.222765
H138	H	-0.961375	-1.129685	-0.316884
H139	H	-0.957213	-1.074521	-0.257068
C140	C	-1.157674	-1.062360	-0.241956
C141	C	-1.122932	-1.100155	-0.288699
H142	H	-1.180072	-1.094100	-0.212676
H143	H	-1.186571	-1.034515	-0.267625
H144	H	-1.129937	-1.032840	-0.213860
H145	H	-1.150670	-1.129671	-0.316799
H146	H	-1.094032	-1.128012	-0.263028
H147	H	-0.267172	-0.737657	-0.287021
H148	H	-0.443584	-0.399943	-0.477273
C149	C	-0.626967	-1.141191	-0.251048
C150	C	-0.584101	-1.100140	-0.288915
H151	H	-0.604761	-1.172924	-0.221785
H152	H	-0.654672	-1.166823	-0.282739
H153	H	-0.650530	-1.111664	-0.222928
H154	H	-0.560540	-1.129667	-0.317038
H155	H	-0.556384	-1.074506	-0.257220
C156	C	-0.457176	-0.880442	-1.068674
C157	C	-0.424989	-0.918000	-1.117952
H158	H	-0.484199	-0.848948	-1.092360
H159	H	-0.427738	-0.854712	-1.039008
H160	H	-0.481426	-0.912197	-1.041243
H161	H	-0.400735	-0.886245	-1.145380
H162	H	-0.454430	-0.943732	-1.147630
H163	H	-0.712691	-1.086817	-0.301152
H164	H	-0.436634	-0.904213	-0.776833
H165	H	-0.409030	-0.936527	-0.974866
