data_functionalizedCrystal
_audit_creation_method	'MofGen! by Chris Wilmer'
_symmetry_space_group_name_H-M	'P1'
_symmetry_Int_Tables_number	1
_symmetry_cell_setting	triclinic
loop_
_symmetry_equiv_pos_as_xyz
  x,y,z
_cell_length_a	19.121102
_cell_length_b	21.295417
_cell_length_c	19.120904
_cell_angle_alpha	92.408338
_cell_angle_beta	90.088173
_cell_angle_gamma	87.584620
loop_
_atom_site_label
_atom_site_type_symbol
_atom_site_fract_x
_atom_site_fract_y
_atom_site_fract_z
Zn1	Zn	1.054814	-0.307921	-0.442032
Zn2	Zn	1.059724	-0.408895	-0.324785
Zn3	Zn	0.942584	-0.298967	-0.319816
Zn4	Zn	0.937535	-0.408472	-0.436987
O5	O	0.998664	-0.356064	-0.380905
O6	O	1.153571	-0.325239	-0.430669
O7	O	1.048352	-0.390743	-0.226021
O8	O	0.957530	-0.212069	-0.336060
O9	O	1.157177	-0.399425	-0.344528
O10	O	1.039985	-0.218647	-0.425851
O11	O	0.962291	-0.309980	-0.222371
O12	O	0.843809	-0.309569	-0.331169
O13	O	0.948925	-0.398703	-0.535761
O14	O	0.840100	-0.390022	-0.417254
O15	O	1.035089	-0.324829	-0.539467
O16	O	1.043456	-0.496925	-0.339637
O17	O	0.953685	-0.496614	-0.422072
C18	C	0.816517	-0.348778	-0.373125
C19	C	0.738593	-0.345677	-0.369814
C20	C	0.700074	-0.386166	-0.413007
C21	C	0.626856	-0.383244	-0.409899
C22	C	0.592158	-0.339836	-0.363593
C23	C	0.630682	-0.299344	-0.320398
C24	C	0.703899	-0.302263	-0.323510
C25	C	0.371187	-0.328921	-0.351961
C26	C	0.297965	-0.326006	-0.348850
C27	C	0.294144	-0.409906	-0.438353
C28	C	0.367362	-0.412824	-0.441458
C29	C	0.405880	-0.372329	-0.398265
C30	C	0.517318	-0.336850	-0.360413
C31	C	0.480719	-0.375313	-0.401449
C32	C	0.998574	-0.519610	-0.380862
C33	C	0.998599	-0.589580	-0.380870
C34	C	1.045380	-0.622590	-0.337994
C35	C	1.045413	-0.688335	-0.338011
C36	C	0.998651	-0.721065	-0.380897
C37	C	0.951865	-0.688046	-0.423781
C38	C	0.951839	-0.622304	-0.423768
N39	N	0.937094	-0.822078	-0.383622
N40	N	0.937121	-0.884530	-0.383630
C41	C	0.998728	-0.919144	-0.380940
N42	N	1.060308	-0.888946	-0.378228
N43	N	1.060281	-0.826487	-0.378215
C44	C	0.998674	-0.792352	-0.380916
C45	C	1.045548	-1.023443	-0.338080
C46	C	1.045581	-1.089189	-0.338103
C47	C	0.952028	-1.088899	-0.423869
C48	C	0.952001	-1.023154	-0.423850
C49	C	0.998760	-0.990430	-0.380953
C50	C	1.181523	-0.363378	-0.388716
C51	C	1.259446	-0.366495	-0.392044
C52	C	0.990896	-0.362718	-0.563763
C53	C	0.987586	-0.365553	-0.641686
C54	C	0.998773	-0.191880	-0.380964
C55	C	0.998820	-0.121914	-0.380989
C56	C	1.030890	-0.328425	-0.680225
C57	C	1.027771	-0.331086	-0.753441
C58	C	0.981351	-0.370880	-0.788118
C59	C	0.938043	-0.408010	-0.749573
C60	C	0.941159	-0.405345	-0.676358
C61	C	0.969696	-0.380849	-1.009084
C62	C	0.966585	-0.383513	-1.082305
C63	C	1.056312	-0.306588	-1.086168
C64	C	1.059427	-0.303929	-1.012951
C65	C	1.016116	-0.341056	-0.974413
C66	C	0.978164	-0.373603	-0.862957
C67	C	1.019300	-0.338330	-0.899575
C68	C	1.006442	-0.349392	-0.198761
C69	C	1.009889	-0.346384	-0.120844
H70	H	0.395608	-0.448173	-0.479164
C71	C	1.096821	-0.586598	-0.290812
C72	C	1.094554	-0.592553	-0.210871
C73	C	1.145997	-0.556560	-0.163690
C74	C	1.199707	-0.514613	-0.196451
C75	C	1.201976	-0.508657	-0.276396
C76	C	1.150533	-0.544649	-0.323577
H77	H	1.054793	-0.623606	-0.186616
H78	H	1.144317	-0.560970	-0.104509
H79	H	1.237788	-0.487969	-0.161524
H80	H	1.241737	-0.477603	-0.300651
H81	H	1.152214	-0.540240	-0.382758
H82	H	0.940372	-0.406006	-0.891199
C83	C	1.070362	-0.294559	-0.861433
C84	C	1.042160	-0.242094	-0.809815
C85	C	1.093225	-0.198325	-0.771665
C86	C	1.172491	-0.207022	-0.785134
C87	C	1.200697	-0.259489	-0.836755
C88	C	1.149633	-0.303257	-0.874904
H89	H	0.983479	-0.235654	-0.799842
H90	H	1.072344	-0.159485	-0.733452
H91	H	1.210292	-0.174621	-0.756894
H92	H	1.259379	-0.265928	-0.846727
H93	H	1.170513	-0.342097	-0.913117
C94	C	0.746271	-0.257725	-0.275995
C95	C	0.798924	-0.284922	-0.223037
C96	C	0.841294	-0.240379	-0.175523
C97	C	0.831013	-0.168640	-0.180967
C98	C	0.778358	-0.141439	-0.233927
C99	C	0.735987	-0.185982	-0.281441
H100	H	0.806537	-0.338031	-0.219005
H101	H	0.880273	-0.260515	-0.136319
H102	H	0.862378	-0.135667	-0.145794
H103	H	0.770745	-0.088331	-0.237959
H104	H	0.697009	-0.165846	-0.320645
H105	H	0.508972	-0.410653	-0.439154
C106	C	1.103946	-0.265744	-1.128560
C107	C	1.100522	-0.268670	-1.209094
C108	C	1.148156	-0.227821	-1.251486
C109	C	1.199214	-0.184048	-1.213343
C110	C	1.202641	-0.181121	-1.132805
C111	C	1.155007	-0.221969	-1.090413
H112	H	1.062723	-0.301075	-1.237333
H113	H	1.145619	-0.229989	-1.311106
H114	H	1.234476	-0.153810	-1.244724
H115	H	1.240439	-0.148715	-1.104565
H116	H	1.157544	-0.219802	-1.030793
H117	H	0.489059	-0.301509	-0.322710
H118	H	1.097229	-0.271526	-0.984722
H119	H	1.083625	-0.996798	-0.303153
H120	H	1.083681	-1.116065	-0.303189
H121	H	0.928782	-0.415919	-1.110536
H122	H	0.269716	-0.290651	-0.311147
C123	C	1.096869	-0.724657	-0.290838
C124	C	1.148298	-0.688662	-0.243650
C125	C	1.199752	-0.724981	-0.196474
C126	C	1.199775	-0.797295	-0.196486
C127	C	1.148343	-0.833294	-0.243675
C128	C	1.096890	-0.796975	-0.290851
H129	H	1.148283	-0.635127	-0.243640
H130	H	1.237825	-0.698332	-0.161542
H131	H	1.237863	-0.824181	-0.161563
H132	H	1.148359	-0.886829	-0.243685
H133	H	1.058817	-0.823624	-0.325783
H134	H	0.913743	-0.595426	-0.458684
C135	C	0.922047	-0.421693	-0.966713
C136	C	0.841927	-0.413727	-0.973401
C137	C	0.794270	-0.454574	-0.931033
C138	C	0.826733	-0.503387	-0.881979
C139	C	0.906857	-0.511355	-0.875289
C140	C	0.954514	-0.470508	-0.917657
H141	H	0.817893	-0.377591	-1.009716
H142	H	0.734957	-0.448675	-0.935985
H143	H	0.791454	-0.533624	-0.850616
H144	H	0.930891	-0.547491	-0.838974
H145	H	1.013827	-0.476407	-0.912704
C146	C	0.900590	-1.124895	-0.471044
C147	C	0.902857	-1.118945	-0.550986
C148	C	0.851420	-1.154946	-0.598165
C149	C	0.797715	-1.196897	-0.565402
C150	C	0.795446	-1.202849	-0.485456
C151	C	0.846883	-1.166848	-0.438277
H152	H	0.942615	-1.087889	-0.575243
H153	H	0.853100	-1.150540	-0.657347
H154	H	0.759639	-1.223547	-0.600327
H155	H	0.755689	-1.233905	-0.461199
H156	H	0.845203	-1.171254	-0.379095
C157	C	0.584488	-0.427786	-0.457412
C158	C	0.594766	-0.499525	-0.451963
C159	C	0.552400	-0.544068	-0.499481
C160	C	0.499756	-0.516872	-0.552447
C161	C	0.489476	-0.445130	-0.557898
C162	C	0.531842	-0.400586	-0.510381
H163	H	0.633739	-0.519660	-0.412753
H164	H	0.560011	-0.597177	-0.495445
H165	H	0.468394	-0.549846	-0.587622
H166	H	0.450503	-0.424995	-0.597109
H167	H	0.524231	-0.347478	-0.514417
C168	C	0.893530	-0.446191	-0.633960
C169	C	0.840650	-0.414882	-0.581280
C170	C	0.793020	-0.455728	-0.538881
C171	C	0.798270	-0.527882	-0.549162
C172	C	0.851152	-0.559194	-0.601844
C173	C	0.898782	-0.518349	-0.644243
H174	H	0.836762	-0.361466	-0.573667
H175	H	0.753874	-0.432548	-0.499882
H176	H	0.763012	-0.558119	-0.517775
H177	H	0.855041	-0.612611	-0.609457
H178	H	0.937929	-0.541528	-0.683242
C179	C	0.251773	-0.454443	-0.485869
C180	C	0.171238	-0.451235	-0.482453
C181	C	0.128868	-0.495772	-0.529974
C182	C	0.167033	-0.543518	-0.580911
C183	C	0.247573	-0.546728	-0.584329
C184	C	0.289943	-0.502191	-0.536808
H185	H	0.142981	-0.415889	-0.444744
H186	H	0.069246	-0.493395	-0.527443
H187	H	0.135668	-0.576487	-0.616089
H188	H	0.275830	-0.582074	-0.622037
H189	H	0.349565	-0.504568	-0.539338
C190	C	0.413543	-0.284388	-0.304430
C191	C	0.403260	-0.212647	-0.309850
C192	C	0.445615	-0.168116	-0.262308
C193	C	0.498255	-0.195326	-0.209346
C194	C	0.508540	-0.267071	-0.203923
C195	C	0.466184	-0.311602	-0.251465
H196	H	0.364291	-0.192501	-0.349058
H197	H	0.438001	-0.115005	-0.266323
H198	H	0.529609	-0.162361	-0.174153
H199	H	0.547509	-0.287217	-0.164716
H200	H	0.473798	-0.364713	-0.247451
H201	H	0.728320	-0.421515	-0.450712
H202	H	0.602426	-0.263997	-0.282698
C203	C	0.900426	-0.724046	-0.470956
C204	C	0.900450	-0.796361	-0.470970
C205	C	0.849012	-0.832360	-0.518150
C206	C	0.797551	-0.796045	-0.565316
C207	C	0.797525	-0.723727	-0.565303
C208	C	0.848963	-0.687728	-0.518123
H209	H	0.938547	-0.823247	-0.436054
H210	H	0.849031	-0.885895	-0.518159
H211	H	0.759473	-0.822694	-0.600241
H212	H	0.759429	-0.696841	-0.600220
H213	H	0.848944	-0.634193	-0.518114
C214	C	0.900534	-0.986839	-0.471011
C215	C	0.821090	-0.992552	-0.461824
C216	C	0.769622	-0.956238	-0.508990
C217	C	0.797599	-0.914211	-0.565344
C218	C	0.877047	-0.908497	-0.574533
C219	C	0.928514	-0.944811	-0.527367
H220	H	0.800376	-1.023664	-0.420106
H221	H	0.710809	-0.960468	-0.502187
H222	H	0.759500	-0.887329	-0.600259
H223	H	0.897761	-0.877385	-0.616252
H224	H	0.987327	-0.940580	-0.534170
H225	H	1.068692	-0.296022	-0.651997
H226	H	1.063035	-0.300854	-0.784817
H227	H	0.900244	-0.440409	-0.777813
