data_functionalizedCrystal
_audit_creation_method	'MofGen! by Chris Wilmer'
_symmetry_space_group_name_H-M	'P1'
_symmetry_Int_Tables_number	1
_symmetry_cell_setting	triclinic
loop_
_symmetry_equiv_pos_as_xyz
  x,y,z
_cell_length_a	14.044220
_cell_length_b	11.792241
_cell_length_c	10.268362
_cell_angle_alpha	89.998512
_cell_angle_beta	90.000071
_cell_angle_gamma	88.691147
loop_
_atom_site_label
_atom_site_type_symbol
_atom_site_fract_x
_atom_site_fract_y
_atom_site_fract_z
O1	O	-1.259114	-0.273764	0.108163
O2	O	-1.009114	-0.023764	0.358163
O3	O	-0.759114	0.226236	0.608163
O4	O	-0.509114	0.476236	0.858163
O5	O	-0.983094	-0.263885	0.108196
O6	O	-0.733094	-0.013885	0.358196
O7	O	-0.483094	0.236115	0.608196
O8	O	-0.233094	0.486115	0.858196
O9	O	-1.127803	-0.104283	0.108169
O10	O	-0.877803	0.145717	0.358169
O11	O	-0.627803	0.395717	0.608169
O12	O	-0.377803	0.645717	0.858169
O13	O	-1.114406	-0.433366	0.108189
O14	O	-0.864406	-0.183366	0.358189
O15	O	-0.614406	0.066634	0.608189
O16	O	-0.364406	0.316634	0.858189
O17	O	-1.127789	-0.104288	-0.108431
O18	O	-0.877789	0.145712	0.141569
O19	O	-0.627789	0.395712	0.391569
O20	O	-0.377789	0.645712	0.641569
O21	O	-0.983080	-0.263890	-0.108405
O22	O	-0.733080	-0.013890	0.141595
O23	O	-0.483080	0.236110	0.391595
O24	O	-0.233080	0.486110	0.641595
O25	O	-1.259100	-0.273769	-0.108438
O26	O	-1.009100	-0.023769	0.141562
O27	O	-0.759100	0.226231	0.391562
O28	O	-0.509100	0.476231	0.641562
Cu29	Cu	-1.121089	-0.268830	-0.128199
Cu30	Cu	-0.871089	-0.018830	0.121801
Cu31	Cu	-0.621089	0.231170	0.371801
Cu32	Cu	-0.371089	0.481170	0.621801
Cu33	Cu	-1.121106	-0.268824	0.127957
Cu34	Cu	-0.871106	-0.018824	0.377957
Cu35	Cu	-0.621106	0.231176	0.627957
Cu36	Cu	-0.371106	0.481176	0.877957
O37	O	-1.114392	-0.433371	-0.108411
O38	O	-0.864392	-0.183371	0.141589
O39	O	-0.614392	0.066629	0.391589
O40	O	-0.364392	0.316629	0.641589
C41	C	-1.126954	-0.061915	-0.000130
C42	C	-0.876954	0.188085	0.249870
C43	C	-0.626954	0.438085	0.499870
C44	C	-0.376954	0.688085	0.749870
C45	C	-1.124435	0.064335	-0.000129
C46	C	-0.874435	0.314335	0.249871
C47	C	-0.624435	0.564335	0.499871
C48	C	-0.374435	0.814335	0.749871
C49	C	-0.947751	-0.259563	-0.000100
C50	C	-0.697751	-0.009563	0.249900
C51	C	-0.447751	0.240437	0.499900
C52	C	-0.197751	0.490437	0.749900
C53	C	-0.842459	-0.246664	-0.000088
C54	C	-0.592459	0.003336	0.249912
C55	C	-0.342459	0.253336	0.499912
C56	C	-0.092459	0.503336	0.749912
C57	C	-1.294444	-0.278091	-0.000139
C58	C	-1.044444	-0.028091	0.249861
C59	C	-0.794444	0.221909	0.499861
C60	C	-0.544444	0.471909	0.749861
C61	C	-1.399736	-0.290990	-0.000143
C62	C	-1.149736	-0.040990	0.249857
C63	C	-0.899736	0.209010	0.499857
C64	C	-0.649736	0.459010	0.749857
C65	C	-0.649676	-0.223082	-0.000115
C66	C	-0.399676	0.026918	0.249885
C67	C	-0.149676	0.276918	0.499885
C68	C	0.100324	0.526918	0.749885
C69	C	-0.592513	-0.314567	-0.000115
C70	C	-0.342513	-0.064567	0.249885
C71	C	-0.092513	0.185433	0.499885
C72	C	0.157487	0.435433	0.749885
C73	C	-0.485242	-0.301445	-0.000130
C74	C	-0.235242	-0.051445	0.249870
C75	C	0.014758	0.198555	0.499870
C76	C	0.264758	0.448555	0.749870
C77	C	-0.756957	-0.236202	-0.000100
C78	C	-0.506957	0.013798	0.249900
C79	C	-0.256957	0.263798	0.499900
C80	C	-0.006957	0.513798	0.749900
C81	C	-1.115241	-0.475739	-0.000109
C82	C	-0.865241	-0.225739	0.249891
C83	C	-0.615241	0.024261	0.499891
C84	C	-0.365241	0.274261	0.749891
C85	C	-1.117759	-0.601989	-0.000102
C86	C	-0.867759	-0.351989	0.249898
C87	C	-0.617759	-0.101989	0.499898
C88	C	-0.367759	0.148011	0.749898
N89	N	-1.121084	-0.268834	-0.308365
N90	N	-0.871084	-0.018834	-0.058365
N91	N	-0.621084	0.231166	0.191635
N92	N	-0.371084	0.481166	0.441635
C93	C	-1.119804	0.295482	-0.000107
C94	C	-0.869804	0.545482	0.249893
C95	C	-0.619804	0.795482	0.499893
C96	C	-0.369804	1.045482	0.749893
C97	C	-1.122377	0.166855	-0.000119
C98	C	-0.872377	0.416855	0.249881
C99	C	-0.622377	0.666855	0.499881
C100	C	-0.372377	0.916855	0.749881
C101	C	-1.121091	-0.268835	-0.426207
C102	C	-0.871091	-0.018835	-0.176207
C103	C	-0.621091	0.231165	0.073793
C104	C	-0.371091	0.481165	0.323793
C105	C	-1.121103	-0.268826	-0.574045
C106	C	-0.871103	-0.018826	-0.324045
C107	C	-0.621103	0.231174	-0.074045
C108	C	-0.371103	0.481174	0.175955
N109	N	-1.121118	-0.268812	0.308123
N110	N	-0.871118	-0.018812	0.558123
N111	N	-0.621118	0.231188	0.808123
N112	N	-0.371118	0.481188	1.058123
H113	H	-0.624137	-0.402744	-0.000104
H114	H	-0.374137	-0.152744	0.249896
H115	H	-0.124137	0.097256	0.499896
H116	H	0.125863	0.347256	0.749896
O117	O	-0.611800	-0.117975	-0.000061
O118	O	-0.361800	0.132025	0.249939
O119	O	-0.111800	0.382025	0.499939
O120	O	0.138200	0.632025	0.749939
C121	C	-0.468783	-0.008908	-0.000147
C122	C	-0.218783	0.241092	0.249853
C123	C	0.031217	0.491092	0.499853
C124	C	0.281217	0.741092	0.749853
C125	C	-0.511566	-0.128004	-0.000185
C126	C	-0.261566	0.121996	0.249815
C127	C	-0.011566	0.371996	0.499815
C128	C	0.238434	0.621996	0.749815
H129	H	-0.387738	-0.016976	-0.000275
H130	H	-0.137738	0.233024	0.249725
H131	H	0.112262	0.483024	0.499725
H132	H	0.362262	0.733024	0.749725
H133	H	-0.493407	0.039224	0.090526
H134	H	-0.243407	0.289224	0.340526
H135	H	0.006593	0.539224	0.590526
H136	H	0.256593	0.789224	0.840526
H137	H	-0.493543	0.039205	-0.090768
H138	H	-0.243543	0.289205	0.159232
H139	H	0.006457	0.539205	0.409232
H140	H	0.256457	0.789205	0.659232
H141	H	-0.486826	-0.176211	0.090375
H142	H	-0.236826	0.073789	0.340375
H143	H	0.013174	0.323789	0.590375
H144	H	0.263174	0.573789	0.840375
H145	H	-0.486946	-0.176050	-0.090918
H146	H	-0.236946	0.073950	0.159082
H147	H	0.013054	0.323950	0.409082
H148	H	0.263054	0.573950	0.659082
