data_functionalizedCrystal
_audit_creation_method	'MofGen! by Chris Wilmer'
_symmetry_space_group_name_H-M	'P1'
_symmetry_Int_Tables_number	1
_symmetry_cell_setting	triclinic
loop_
_symmetry_equiv_pos_as_xyz
  x,y,z
_cell_length_a	16.959455
_cell_length_b	12.645330
_cell_length_c	16.959447
_cell_angle_alpha	89.977495
_cell_angle_beta	89.982507
_cell_angle_gamma	90.014639
loop_
_atom_site_label
_atom_site_type_symbol
_atom_site_fract_x
_atom_site_fract_y
_atom_site_fract_z
Zn1	Zn	1.208422	-0.422142	-0.446932
Zn2	Zn	1.708422	0.077858	0.053068
Zn3	Zn	1.208342	-0.599423	-0.314763
Zn4	Zn	1.708342	-0.099423	0.185237
Zn5	Zn	1.076243	-0.422164	-0.314770
Zn6	Zn	1.576243	0.077836	0.185230
Zn7	Zn	1.076220	-0.599355	-0.446902
Zn8	Zn	1.576220	-0.099355	0.053098
O9	O	1.142307	-0.510771	-0.380842
O10	O	1.642307	-0.010771	0.119158
O11	O	1.319022	-0.445678	-0.429410
O12	O	1.819022	0.054322	0.070590
O13	O	1.190795	-0.575947	-0.204153
O14	O	1.690795	-0.075947	0.295847
O15	O	1.093819	-0.273814	-0.332316
O16	O	1.593819	0.226186	0.167684
O17	O	1.318964	-0.575925	-0.332306
O18	O	1.818964	-0.075925	0.167694
O19	O	1.190930	-0.273798	-0.429416
O20	O	1.690930	0.226202	0.070584
O21	O	1.093742	-0.445716	-0.204158
O22	O	1.593742	0.054284	0.295842
O23	O	0.965629	-0.445650	-0.332287
O24	O	1.465629	0.054350	0.167713
O25	O	1.093781	-0.575809	-0.557517
O26	O	1.593781	-0.075809	-0.057517
O27	O	0.965612	-0.575831	-0.429364
O28	O	1.465612	-0.075831	0.070636
O29	O	1.190909	-0.445612	-0.557539
O30	O	1.690909	0.054388	-0.057539
O31	O	1.190773	-0.747761	-0.332277
O32	O	1.690773	-0.247761	0.167723
O33	O	1.093704	-0.747711	-0.429358
O34	O	1.593704	-0.247711	0.070642
C35	C	0.936940	-0.510736	-0.380824
C36	C	1.436940	-0.010736	0.119176
C37	C	0.849084	-0.510747	-0.380835
C38	C	1.349084	-0.010747	0.119165
C39	C	0.477592	-0.442930	-0.330399
C40	C	0.977592	0.057070	0.169601
C41	C	0.477624	-0.578699	-0.431329
C42	C	0.977624	-0.078699	0.068671
C43	C	0.560170	-0.578684	-0.431325
C44	C	1.060170	-0.078684	0.068675
C45	C	0.601431	-0.510792	-0.380855
C46	C	1.101431	-0.010792	0.119145
C47	C	0.560146	-0.442915	-0.330391
C48	C	1.060146	0.057085	0.169609
C49	C	0.601461	-0.646567	-0.481782
C50	C	1.101461	-0.146567	0.018218
C51	C	0.684012	-0.646555	-0.481779
C52	C	1.184012	-0.146555	0.018221
C53	C	0.725274	-0.578657	-0.431313
C54	C	1.225274	-0.078657	0.068687
C55	C	0.683984	-0.510777	-0.380847
C56	C	1.183984	-0.010777	0.119153
C57	C	0.725245	-0.442885	-0.330378
C58	C	1.225245	0.057115	0.169622
C59	C	0.683957	-0.374999	-0.279916
C60	C	1.183957	0.125001	0.220084
C61	C	0.601408	-0.375017	-0.279925
C62	C	1.101408	0.124983	0.220075
C63	C	0.807823	-0.578638	-0.431304
C64	C	1.307823	-0.078638	0.068696
C65	C	0.807799	-0.442870	-0.330370
C66	C	1.307799	0.057130	0.169630
C67	C	1.142249	-0.786201	-0.380831
C68	C	1.642249	-0.286201	0.119169
C69	C	1.142297	-0.904031	-0.380852
C70	C	1.642297	-0.404031	0.119148
C71	C	1.081482	-1.071607	-0.442115
C72	C	1.581482	-0.571607	0.057885
C73	C	1.081171	-0.949048	-0.441918
C74	C	1.581171	-0.449048	0.058082
C75	C	1.119751	-0.948619	-0.297551
C76	C	1.619751	-0.448619	0.202449
C77	C	1.119379	-1.071217	-0.297922
C78	C	1.619379	-0.571217	0.202078
C79	C	1.226029	-1.071127	-0.402216
C80	C	1.726029	-0.571127	0.097784
C81	C	1.225516	-0.948520	-0.404038
C82	C	1.725516	-0.448520	0.095962
C83	C	1.348475	-0.510807	-0.380860
C84	C	1.848475	-0.010807	0.119140
C85	C	1.436331	-0.510822	-0.380868
C86	C	1.936331	-0.010822	0.119132
C87	C	1.142351	-0.510700	-0.587010
C88	C	1.642351	-0.010700	-0.087010
C89	C	1.142370	-0.510670	-0.674867
C90	C	1.642370	-0.010670	-0.174867
C91	C	1.142386	-0.234266	-0.380870
C92	C	1.642386	0.265734	0.119130
C93	C	1.142420	-0.116436	-0.380882
C94	C	1.642420	0.383564	0.119118
C95	C	1.091810	-0.578445	-0.716131
C96	C	1.591810	-0.078445	-0.216131
C97	C	1.192943	-0.442861	-0.716156
C98	C	1.692943	0.057139	-0.216156
C99	C	1.192960	-0.442826	-0.798702
C100	C	1.692960	0.057174	-0.298702
C101	C	1.142399	-0.510601	-0.839966
C102	C	1.642399	-0.010601	-0.339966
C103	C	1.091823	-0.578410	-0.798684
C104	C	1.591823	-0.078410	-0.298684
C105	C	1.243530	-0.375010	-0.839990
C106	C	1.743530	0.124990	-0.339990
C107	C	1.243547	-0.374972	-0.922541
C108	C	1.743547	0.125028	-0.422541
C109	C	1.192991	-0.442753	-0.963807
C110	C	1.692991	0.057247	-0.463807
C111	C	1.142413	-0.510566	-0.922520
C112	C	1.642413	-0.010566	-0.422520
C113	C	1.091853	-0.578340	-0.963784
C114	C	1.591853	-0.078340	-0.463784
C115	C	1.041278	-0.646160	-0.922498
C116	C	1.541278	-0.146160	-0.422498
C117	C	1.041266	-0.646191	-0.839950
C118	C	1.541266	-0.146191	-0.339950
C119	C	1.193002	-0.442721	-1.046355
C120	C	1.693002	0.057279	-0.546355
C121	C	1.091866	-0.578306	-1.046337
C122	C	1.591866	-0.078306	-0.546337
C123	C	1.142308	-0.510765	-0.175475
C124	C	1.642308	-0.010765	0.324525
C125	C	1.142442	-0.510496	-0.087619
C126	C	1.642442	-0.010496	0.412381
H127	H	0.841388	-0.387577	-0.289276
H128	H	1.341388	0.112423	0.210724
H129	H	0.443972	-0.387656	-0.289316
H130	H	0.943972	0.112344	0.210684
H131	H	1.234103	-0.387677	-0.682554
H132	H	1.734103	0.112323	-0.182554
H133	H	1.284729	-0.319751	-0.956149
H134	H	1.784729	0.180249	-0.456149
H135	H	1.271429	-1.100116	-0.357618
H136	H	1.771429	-0.600116	0.142382
H137	H	0.841436	-0.633914	-0.472387
H138	H	1.341436	-0.133914	0.027613
H139	H	1.058261	-1.099903	-0.279850
H140	H	1.558261	-0.599903	0.220150
H141	H	1.050696	-0.633500	-1.079929
H142	H	1.550696	-0.133500	-0.579929
F143	F	0.987466	-0.718282	-0.966424
F144	F	1.487466	-0.218282	-0.466424
H145	H	1.000090	-0.701405	-0.806328
H146	H	1.500090	-0.201405	-0.306328
F147	F	1.297300	-0.302838	-0.796071
F148	F	1.797300	0.197162	-0.296071
H149	H	1.050635	-0.633665	-0.682512
H150	H	1.550635	-0.133665	-0.182512
H151	H	1.161838	-1.100875	-0.250744
H152	H	1.661838	-0.600875	0.249256
F153	F	0.727879	-0.302751	-0.226201
F154	F	1.227879	0.197249	0.273799
H155	H	1.234173	-0.387496	-1.079966
H156	H	1.734173	0.112504	-0.579966
H157	H	1.095277	-0.918898	-0.503685
H158	H	1.595277	-0.418898	-0.003685
H159	H	1.273308	-0.917871	-0.362687
H160	H	1.773308	-0.417871	0.137313
H161	H	0.444024	-0.633980	-0.472414
H162	H	0.944024	-0.133980	0.027586
F163	F	0.557461	-0.302775	-0.226225
F164	F	1.057461	0.197225	0.273775
F165	F	0.557545	-0.718844	-0.535470
F166	F	1.057545	-0.218844	-0.035470
H167	H	1.095458	-1.101024	-0.504085
H168	H	1.595458	-0.601024	-0.004085
F169	F	1.000972	-1.112008	-0.423891
F170	F	1.500972	-0.612008	0.076109
F171	F	1.000152	-0.910824	-0.423447
F172	F	1.500152	-0.410824	0.076553
F173	F	1.175924	-0.910510	-0.236286
F174	F	1.675924	-0.410510	0.263714
F175	F	0.727947	-0.718803	-0.535486
F176	F	1.227947	-0.218803	-0.035486
H177	H	1.246597	-1.101976	-0.461927
H178	H	1.746597	-0.601976	0.038073
F179	F	1.040695	-0.908607	-0.273500
F180	F	1.540695	-0.408607	0.226500
H181	H	1.242519	-0.919374	-0.465343
H182	H	1.742519	-0.419374	0.034657
