data_functionalizedCrystal
_audit_creation_method	'MofGen! by Chris Wilmer'
_symmetry_space_group_name_H-M	'P1'
_symmetry_Int_Tables_number	1
_symmetry_cell_setting	triclinic
loop_
_symmetry_equiv_pos_as_xyz
  x,y,z
_cell_length_a	16.992694
_cell_length_b	22.010155
_cell_length_c	23.532407
_cell_angle_alpha	89.995744
_cell_angle_beta	93.241514
_cell_angle_gamma	90.003362
loop_
_atom_site_label
_atom_site_type_symbol
_atom_site_fract_x
_atom_site_fract_y
_atom_site_fract_z
O1	O	1.039457	0.050468	-0.120707
O2	O	0.811182	0.050486	-0.119383
O3	O	0.932203	0.050460	-0.037455
O4	O	0.918436	0.050495	-0.202635
O5	O	0.932181	-0.050591	-0.037467
O6	O	0.811160	-0.050564	-0.119395
O7	O	1.039435	-0.050582	-0.120719
Cu8	Cu	0.925296	-0.059800	-0.120058
Cu9	Cu	0.925321	0.059704	-0.120044
O10	O	0.918414	-0.050556	-0.202647
C11	C	0.781972	-0.000037	-0.117685
C12	C	0.694967	-0.000031	-0.112602
N13	N	0.925283	-0.143852	-0.120068
C14	C	0.644345	-0.000021	-0.161648
C15	C	0.562595	-0.000031	-0.156869
C16	C	0.531470	-0.000046	-0.103042
C17	C	0.582099	-0.000058	-0.053992
C18	C	0.663847	-0.000052	-0.058773
C19	C	0.288027	-0.000066	-0.083231
C20	C	0.206272	-0.000069	-0.078454
C21	C	0.186774	-0.000044	-0.181331
C22	C	0.268525	-0.000035	-0.186106
C23	C	0.319146	-0.000050	-0.137056
N24	N	0.447909	-0.000053	-0.098156
N25	N	0.402705	-0.000047	-0.141944
C26	C	0.978913	-0.563643	-0.083772
C27	C	0.978916	-0.627251	-0.083768
O28	O	1.024483	-0.660152	-0.052914
N29	N	0.925321	-0.659059	-0.120032
C30	C	0.871713	-0.627257	-0.156298
O31	O	0.826126	-0.660153	-0.187143
C32	C	0.871707	-0.563651	-0.156298
C33	C	0.925311	-0.531845	-0.120036
C34	C	1.032512	-0.531838	-0.047512
C35	C	1.032509	-0.468235	-0.047517
C36	C	0.978907	-0.436437	-0.083781
C37	C	0.925308	-0.468242	-0.120041
C38	C	0.818096	-0.531849	-0.192561
C39	C	0.818093	-0.468238	-0.192558
C40	C	0.871697	-0.436433	-0.156296
C41	C	0.871703	-0.372841	-0.156310
N42	N	0.925298	-0.341033	-0.120046
C43	C	0.978900	-0.372831	-0.083782
C44	C	0.871731	-0.760835	-0.156294
C45	C	0.871741	-0.824440	-0.156297
C46	C	0.978943	-0.824430	-0.083766
C47	C	0.978936	-0.760823	-0.083766
C48	C	0.925326	-0.729026	-0.120030
C49	C	0.978890	-0.239259	-0.083795
C50	C	0.978885	-0.175650	-0.083804
C51	C	0.871680	-0.175666	-0.156332
C52	C	0.871688	-0.239270	-0.156325
C53	C	0.925296	-0.271064	-0.120052
O54	O	0.826158	-0.339899	-0.187147
O55	O	1.024473	-0.339927	-0.052937
C56	C	1.068645	-0.000058	-0.122417
C57	C	1.155650	-0.000059	-0.127500
C58	C	0.931841	-0.000069	-0.016228
C59	C	0.930787	-0.000078	0.047042
N60	N	0.925340	0.143756	-0.120030
C61	C	0.918776	-0.000026	-0.223875
C62	C	0.919830	-0.000013	-0.287144
C63	C	0.854823	-0.000034	0.316979
C64	C	0.855802	-0.000039	0.257530
O65	O	0.795540	-0.000015	0.223776
N66	N	0.927749	-0.000051	0.231333
C67	C	0.998722	-0.000053	0.264589
O68	O	1.060008	-0.000063	0.236848
C69	C	0.997742	-0.000044	0.324037
C70	C	0.925790	-0.000037	0.350230
C71	C	0.782877	-0.000027	0.343172
C72	C	0.781898	-0.000023	0.402617
C73	C	0.852865	-0.000027	0.435868
C74	C	0.924811	-0.000034	0.409675
C75	C	1.068713	-0.000041	0.357291
C76	C	1.067727	-0.000032	0.416743
C77	C	0.995775	-0.000025	0.442936
C78	C	0.994799	-0.000034	0.502371
N79	N	0.922852	-0.000021	0.528567
C80	C	0.851885	-0.000018	0.495316
C81	C	1.000774	-0.000071	0.139745
C82	C	1.001755	-0.000084	0.080298
C83	C	0.858835	-0.000069	0.073243
C84	C	0.857855	-0.000060	0.132691
C85	C	0.928827	-0.000058	0.165941
C86	C	0.849835	-0.000011	0.620154
C87	C	0.848863	-0.000010	0.679605
C88	C	0.991782	-0.000022	0.686655
C89	C	0.992755	-0.000026	0.627210
C90	C	0.921775	-0.000018	0.593960
O91	O	1.055029	-0.000055	0.536161
O92	O	0.790609	0.000001	0.523064
H93	H	0.669680	-0.000009	-0.205480
H94	H	0.828047	-0.265166	-0.185859
Cl95	Cl	0.123132	-0.000027	-0.242990
Cl96	Cl	0.760602	-0.000003	0.578365
Cl97	Cl	0.498958	-0.000014	-0.218530
H98	H	0.705063	-0.000060	-0.018834
H99	H	0.180934	-0.000081	-0.034620
Cl100	Cl	1.046279	-0.135670	-0.038215
H101	H	1.051344	-0.000040	0.605882
H102	H	0.774435	-0.442352	-0.222087
H103	H	1.022542	-0.265140	-0.054257
H104	H	1.022588	-0.850331	-0.054237
Cl105	Cl	0.307647	-0.000012	-0.253777
H106	H	1.076156	-0.442343	-0.017988
Cl107	Cl	1.099906	-0.571802	-0.001917
Cl108	Cl	0.351655	-0.000084	-0.021567
H109	H	0.556750	-0.000078	-0.010166
Cl110	Cl	1.046325	-0.720847	-0.038177
Cl111	Cl	1.156955	-0.000028	0.458540
H112	H	1.127304	-0.000046	0.335976
H113	H	0.828100	-0.850331	-0.185831
H114	H	0.828077	-0.734949	-0.185828
Cl115	Cl	0.804298	-0.135682	-0.201920
H116	H	0.790268	-0.000007	0.700928
H117	H	0.774446	-0.557736	-0.222088
H118	H	0.723308	-0.000013	0.423938
H119	H	0.725084	-0.000022	0.316105
H120	H	0.799266	-0.000057	0.154013
H121	H	0.801050	-0.000067	0.046159
H122	H	1.060345	-0.000099	0.058977
H123	H	1.058572	-0.000074	0.166814
H124	H	1.049561	-0.000027	0.713738
