data_functionalizedCrystal
_audit_creation_method	'MofGen! by Chris Wilmer'
_symmetry_space_group_name_H-M	'P1'
_symmetry_Int_Tables_number	1
_symmetry_cell_setting	triclinic
loop_
_symmetry_equiv_pos_as_xyz
  x,y,z
_cell_length_a	19.902436
_cell_length_b	14.628931
_cell_length_c	14.628931
_cell_angle_alpha	59.999972
_cell_angle_beta	90.001396
_cell_angle_gamma	59.996936
loop_
_atom_site_label
_atom_site_type_symbol
_atom_site_fract_x
_atom_site_fract_y
_atom_site_fract_z
Zr1	Zr	0.647321	1.000475	-0.119891
O2	O	0.540029	1.191198	-0.265864
O3	O	0.680212	0.809764	-0.075142
O4	O	0.680212	1.000469	-0.265848
O5	O	0.540029	1.000492	0.075274
O6	O	0.790791	1.000452	-0.265836
O7	O	0.540029	1.000492	-0.075158
O8	O	0.790791	0.659314	0.075302
O9	O	0.540029	1.341629	-0.265864
O10	O	0.776763	0.888188	-0.056048
O11	O	0.694240	0.888202	0.056208
O12	O	0.694240	1.112733	-0.168323
O13	O	0.611716	1.112746	-0.056067
Zr14	Zr	0.823682	1.000446	0.120050
Zr15	Zr	0.823682	1.000446	-0.119871
Zr16	Zr	0.647322	1.000475	0.120031
Zr17	Zr	0.647322	1.240396	-0.119891
Zr18	Zr	0.823682	0.760525	0.120051
O19	O	0.790792	1.191157	0.075302
O20	O	0.790791	1.191157	-0.265836
O21	O	0.540030	1.191198	0.075274
O22	O	0.930974	0.809724	0.266023
O23	O	0.930974	0.809724	-0.075114
O24	O	0.680213	0.809764	0.265996
O25	O	0.930974	1.000429	-0.075115
O26	O	0.790792	1.000452	0.266007
O27	O	0.680213	1.000469	0.265995
O28	O	0.930974	1.000429	0.075317
O29	O	0.680212	1.341607	-0.265848
O30	O	0.790791	0.659314	0.266008
O31	O	0.930974	0.659292	0.266023
O32	O	0.930974	0.659292	0.075318
O33	O	0.540030	1.341629	-0.075158
O34	O	0.680213	1.341607	-0.075143
O35	O	0.776764	0.888188	0.168483
O36	O	0.859287	0.888175	0.056226
O37	O	0.776764	1.112720	-0.056049
O38	O	0.694240	1.112733	0.056208
C39	C	0.735501	0.700355	0.000080
C40	C	0.735501	0.598502	0.000080
C41	C	0.776439	0.553087	-0.055606
C42	C	0.776439	0.447816	-0.055607
C43	C	0.514902	1.000496	0.000055
C44	C	0.440032	1.000508	0.000047
C45	C	0.168030	1.000444	0.000091
C46	C	0.144463	1.142091	-0.070395
C47	C	0.222301	1.142180	-0.070787
C48	C	0.302973	1.000477	0.000069
C49	C	0.300562	0.930132	-0.051575
C50	C	0.222334	0.931038	-0.052096
C51	C	0.223322	0.928128	0.122253
C52	C	0.300243	0.930790	0.122065
C53	C	0.379240	1.000488	0.000058
C54	C	0.091765	1.000429	0.000098
C55	C	0.956102	1.000425	0.000104
C56	C	1.030971	1.000413	0.000112
C57	C	0.735501	1.000461	-0.300025
C58	C	0.735501	1.000461	-0.401878
C59	C	0.735502	1.300566	0.000079
C60	C	0.735502	1.402419	0.000079
C61	C	0.793395	1.000451	-0.447281
C62	C	0.793396	1.000451	-0.552552
C63	C	0.735502	1.000461	0.300185
C64	C	0.735502	1.000461	0.402038
C65	C	0.956101	0.700320	0.000105
C66	C	1.030971	0.598455	0.000113
C67	C	0.735502	0.700355	0.300185
C68	C	0.735502	0.598502	0.402039
C69	C	0.956102	0.700320	0.300210
C70	C	1.030972	0.598455	0.402071
C71	C	0.514902	1.300601	-0.300050
C72	C	0.440032	1.402466	-0.401912
C73	C	0.514902	1.300601	0.000055
C74	C	0.440033	1.402466	0.000047
C75	C	0.735502	1.300566	-0.300026
C76	C	0.735502	1.402419	-0.401879
C77	C	1.023054	0.550625	-0.058499
C78	C	1.093395	0.454925	-0.058514
C79	C	1.171652	0.407051	0.000091
C80	C	1.179568	0.454890	0.058705
C81	C	1.109228	0.550595	0.058713
C82	C	1.109215	0.550611	0.391310
C83	C	1.179570	0.454912	0.487010
C84	C	1.171679	0.407051	0.593471
C85	C	1.093428	0.454904	0.604230
C86	C	1.023075	0.550609	0.508531
C87	C	0.361789	1.450322	-0.391150
C88	C	0.291434	1.546051	-0.486850
C89	C	0.299324	1.593917	-0.593311
C90	C	0.377576	1.546057	-0.604071
C91	C	0.447929	1.450336	-0.508371
C92	C	0.447950	1.450306	0.058649
C93	C	0.377609	1.546032	0.058637
C94	C	0.299351	1.593910	0.000029
C95	C	0.291436	1.546066	-0.058581
C96	C	0.361776	1.450348	-0.058575
C97	C	0.776439	0.553087	0.503144
C98	C	0.776440	0.447816	0.608416
H99	H	0.811484	0.408766	-0.103288
H100	H	1.115655	0.589565	0.304632
H101	H	0.242082	1.671850	0.000033
Br102	Br	1.082733	0.389937	0.748722
H103	H	0.384070	1.584971	0.106368
H104	H	0.700456	0.559447	0.047758
Br105	Br	0.161419	1.014367	-0.201926
H106	H	0.511665	1.411331	0.106382
Br107	Br	0.395251	0.756471	0.029875
H108	H	0.227709	1.585063	-0.106298
Br109	Br	0.351016	1.385428	-0.138109
H110	H	0.811490	0.592132	-0.103277
H111	H	0.700451	0.559455	0.393415
Br112	Br	0.220350	1.234164	-0.013051
H113	H	0.700449	0.441475	0.047752
Br114	Br	0.834868	0.382715	0.752977
Br115	Br	1.285781	0.389900	0.138239
Br116	Br	0.079179	1.234768	-0.012960
H117	H	0.811483	0.592144	0.511768
H118	H	1.086934	0.415986	-0.106244
H119	H	0.700458	0.441463	0.511393
H120	H	0.104552	1.197413	-0.159967
Br121	Br	0.388270	1.611029	-0.748563
H122	H	1.228972	0.329122	0.671387
Br123	Br	1.285757	0.389985	0.472382
H124	H	0.355348	1.411354	-0.304473
H125	H	0.227725	1.585002	-0.478068
Br126	Br	0.916890	0.615522	0.523157
H127	H	0.220526	1.197705	-0.160899
Br128	Br	0.554114	1.385395	-0.522997
Br129	Br	0.303146	1.011554	-0.199980
Br130	Br	0.254574	0.757830	0.027922
Br131	Br	0.203836	1.723826	-0.723180
H132	H	0.299866	0.982081	0.160645
Br133	Br	0.395998	0.758460	0.216961
Br134	Br	0.162796	1.003660	0.194165
H135	H	0.243239	0.823784	0.175019
Br136	Br	0.876018	1.000423	-0.382177
H137	H	0.842960	1.000450	-0.591600
H138	H	0.685939	1.000462	-0.440938
Br139	Br	0.652877	1.000489	-0.532904
Br140	Br	1.267107	0.277164	0.000070
Br141	Br	0.916856	0.615580	-0.138048
H142	H	1.115685	0.589526	0.106448
