data_functionalizedCrystal
_audit_creation_method	'MofGen! by Chris Wilmer'
_symmetry_space_group_name_H-M	'P1'
_symmetry_Int_Tables_number	1
_symmetry_cell_setting	triclinic
loop_
_symmetry_equiv_pos_as_xyz
  x,y,z
_cell_length_a	16.109301
_cell_length_b	15.186229
_cell_length_c	16.109301
_cell_angle_alpha	90.011978
_cell_angle_beta	83.461481
_cell_angle_gamma	90.002431
loop_
_atom_site_label
_atom_site_type_symbol
_atom_site_fract_x
_atom_site_fract_y
_atom_site_fract_z
O1	O	1.103132	0.073176	0.106874
O2	O	0.861070	0.073190	0.120173
O3	O	0.988751	0.073174	-0.007507
O4	O	0.975451	0.073192	0.234555
O5	O	0.988740	-0.073284	-0.007525
O6	O	0.861059	-0.073267	0.120156
O7	O	1.103121	-0.073282	0.106856
Zn8	Zn	0.982088	-0.096528	0.113503
Zn9	Zn	0.982103	0.096436	0.113527
O10	O	0.975440	-0.073265	0.234537
C11	C	0.830090	-0.000037	0.119626
C12	C	0.737794	-0.000032	0.118011
C13	C	0.515522	-0.000036	0.190018
C14	C	0.428801	-0.000042	0.188494
C15	C	0.448676	-0.000050	0.037006
C16	C	0.535394	-0.000051	0.038530
C17	C	0.568815	-0.000039	0.115039
C18	C	0.395376	-0.000045	0.111990
C19	C	0.301350	-0.000051	0.110337
C20	C	0.662847	-0.000035	0.116693
C21	C	0.988206	-0.000056	-0.038491
C22	C	0.986591	-0.000057	-0.130786
C23	C	1.134101	-0.000053	0.107404
C24	C	1.226397	-0.000052	0.109019
N25	N	0.982084	-0.228220	0.113486
N26	N	0.982113	0.228129	0.113537
C27	C	1.038744	0.546040	0.057089
C28	C	1.038748	0.453850	0.057096
C29	C	0.925448	0.453875	0.169936
C30	C	0.925440	0.546063	0.169925
C31	C	0.982093	0.592143	0.113503
C32	C	0.982104	0.407765	0.113520
C33	C	0.982108	0.307809	0.113528
C34	C	0.982088	0.692106	0.113494
C35	C	1.058599	-0.000047	-0.353059
C36	C	1.057075	-0.000040	-0.439779
C37	C	0.905586	-0.000034	-0.419905
C38	C	0.907111	-0.000035	-0.333186
C39	C	0.983620	-0.000046	-0.299766
C40	C	0.980571	-0.000038	-0.473205
C41	C	0.978918	-0.000030	-0.567231
C42	C	0.985273	-0.000052	-0.205734
C43	C	0.975984	-0.000034	0.265521
C44	C	0.977600	-0.000027	0.357816
H45	H	0.421454	-0.000065	-0.025285
Cl46	Cl	0.557533	-0.000027	0.286200
Cl47	Cl	0.602397	-0.000061	-0.055737
Cl48	Cl	1.109961	0.603965	-0.013845
Cl49	Cl	0.854213	0.604027	0.240846
Cl50	Cl	1.154781	-0.000058	-0.311047
Cl51	Cl	1.109966	0.395894	-0.013828
Cl52	Cl	1.151339	-0.000039	-0.506773
Cl53	Cl	0.809409	-0.000021	-0.461926
Cl54	Cl	0.812844	-0.000026	-0.266184
H55	H	0.385413	-0.000041	0.249550
Cl56	Cl	0.854234	0.395942	0.240868
