data_functionalizedCrystal
_audit_creation_method	'MofGen! by Chris Wilmer'
_symmetry_space_group_name_H-M	'P1'
_symmetry_Int_Tables_number	1
_symmetry_cell_setting	triclinic
loop_
_symmetry_equiv_pos_as_xyz
  x,y,z
_cell_length_a	10.540510
_cell_length_b	10.540539
_cell_length_c	7.540329
_cell_angle_alpha	89.998539
_cell_angle_beta	89.996792
_cell_angle_gamma	84.519401
loop_
_atom_site_label
_atom_site_type_symbol
_atom_site_fract_x
_atom_site_fract_y
_atom_site_fract_z
O1	O	1.685907	0.178719	-0.147484
O2	O	1.316489	0.195614	-0.147485
O3	O	1.509626	0.002459	-0.147482
O4	O	1.492770	0.371874	-0.147487
O5	O	1.509614	0.002456	0.147483
O6	O	1.316477	0.195611	0.147480
O7	O	1.685895	0.178716	0.147481
Cu8	Cu	1.501185	0.187164	0.174413
Cu9	Cu	1.501199	0.187166	-0.174417
O10	O	1.492758	0.371871	0.147478
C11	C	1.269179	0.194354	-0.000002
C12	C	1.128229	0.190587	-0.000003
C13	C	0.910774	0.324771	-0.000682
C14	C	1.057370	0.328789	-0.000006
C15	C	1.083463	0.119839	0.168434
C16	C	0.936702	0.116800	0.168564
C17	C	0.936909	0.113925	-0.166866
C18	C	1.083250	0.120480	-0.169082
C19	C	1.508356	-0.044845	-0.000003
C20	C	1.504574	-0.185793	-0.000013
C21	C	1.359655	-0.369204	-0.000675
C22	C	1.363489	-0.222587	-0.000011
C23	C	1.572464	-0.247459	0.168427
C24	C	1.567649	-0.394003	0.168569
C25	C	1.570531	-0.394519	-0.166861
C26	C	1.571831	-0.247537	-0.169089
C27	C	1.733204	0.179976	-0.000006
C28	C	1.874154	0.183743	-0.000017
C29	C	1.494028	0.419175	-0.000005
C30	C	1.497810	0.560123	-0.000007
N31	N	1.501185	0.187161	0.419762
N32	N	1.501209	0.187159	-0.419766
H33	H	0.896481	0.165147	0.294471
O34	O	0.855186	0.396106	-0.160669
H35	H	0.892686	0.347764	-0.283269
H36	H	1.111873	0.171955	-0.293690
H37	H	1.114312	0.168970	0.293783
O38	O	0.907580	-0.023523	-0.168401
H39	H	0.802800	-0.027542	-0.173483
O40	O	1.709705	-0.217866	0.176745
H41	H	1.725613	-0.164950	0.300789
H42	H	1.085769	0.384470	0.120937
O43	O	1.292250	-0.167254	0.160213
H44	H	1.254932	-0.245236	0.237533
H45	H	1.669115	-0.441983	0.176211
H46	H	1.310069	-0.179977	-0.120755
H47	H	1.524874	-0.426066	-0.294528
O48	O	0.853173	0.395685	0.158434
H49	H	0.798578	0.330923	0.237990
O50	O	1.506136	-0.193307	-0.334164
H51	H	1.425921	-0.122666	-0.295971
O52	O	0.906223	-0.020112	0.178727
H53	H	0.996277	-0.083860	0.183541
O54	O	1.148233	-0.013178	-0.182543
H55	H	1.252918	-0.009205	-0.190765
O56	O	1.708088	-0.215479	-0.182577
H57	H	1.761764	-0.251908	-0.063522
H58	H	1.086720	0.384136	-0.120753
H59	H	1.525294	-0.204856	0.293774
O60	O	1.501173	-0.431356	0.335350
H61	H	1.497089	-0.536182	0.337113
O62	O	1.705519	-0.457080	-0.168392
H63	H	1.703916	-0.562154	-0.173465
O64	O	1.146249	-0.014922	0.176779
H65	H	1.210183	-0.032945	0.060687
O66	O	0.880698	0.171766	-0.335993
H67	H	0.957279	0.208954	-0.416266
O68	O	1.285810	-0.407095	-0.160645
H69	H	1.346780	-0.476707	-0.241388
H70	H	1.304145	-0.399407	0.119439
