data_functionalizedCrystal
_audit_creation_method	'MofGen! by Chris Wilmer'
_symmetry_space_group_name_H-M	'P1'
_symmetry_Int_Tables_number	1
_symmetry_cell_setting	triclinic
loop_
_symmetry_equiv_pos_as_xyz
  x,y,z
_cell_length_a	16.120530
_cell_length_b	16.120484
_cell_length_c	16.120728
_cell_angle_alpha	84.367400
_cell_angle_beta	89.860094
_cell_angle_gamma	90.167327
loop_
_atom_site_label
_atom_site_type_symbol
_atom_site_fract_x
_atom_site_fract_y
_atom_site_fract_z
Zn1	Zn	1.224873	-0.422442	0.554816
Zn2	Zn	1.724873	0.077558	1.054816
Zn3	Zn	1.224796	-0.555083	0.422120
Zn4	Zn	1.724796	-0.055083	0.922120
Zn5	Zn	1.093642	-0.408310	0.408058
Zn6	Zn	1.593642	0.091690	0.908058
Zn7	Zn	1.078766	-0.554358	0.554054
Zn8	Zn	1.578766	-0.054358	1.054054
O9	O	1.155519	-0.485048	0.484762
O10	O	1.655519	0.014952	0.984762
O11	O	1.340897	-0.446254	0.543418
O12	O	1.840897	0.053746	1.043418
O13	O	1.213591	-0.530003	0.303622
O14	O	1.713591	-0.030003	0.803622
O15	O	1.117308	-0.293553	0.421960
O16	O	1.617308	0.206447	0.921960
O17	O	1.340840	-0.543706	0.445927
O18	O	1.840840	-0.043706	0.945927
O19	O	1.213723	-0.303935	0.529782
O20	O	1.713723	0.196065	1.029782
O21	O	1.117234	-0.422170	0.293290
O22	O	1.617234	0.077830	0.793290
O23	O	0.975634	-0.421466	0.421220
O24	O	1.475634	0.078534	0.921220
O25	O	1.091953	-0.542469	0.670788
O26	O	1.591953	-0.042469	1.170788
O27	O	0.964704	-0.528767	0.528483
O28	O	1.464704	-0.028767	1.028483
O29	O	1.199298	-0.445551	0.671348
O30	O	1.699298	0.054449	1.171348
O31	O	1.199166	-0.671619	0.445188
O32	O	1.699166	-0.171619	0.945188
O33	O	1.091879	-0.671086	0.542118
O34	O	1.591879	-0.171086	1.042118
C35	C	0.940083	-0.473505	0.473243
C36	C	1.440083	0.026495	0.973243
C37	C	0.847916	-0.468588	0.468336
C38	C	1.347916	0.031412	0.968336
C39	C	0.679167	-0.459591	0.459384
C40	C	1.179167	0.040409	0.959384
C41	C	0.632705	-0.510570	0.510204
C42	C	1.132705	-0.010570	1.010204
C43	C	0.538807	-0.505564	0.505223
C44	C	1.038807	-0.005564	1.005223
C45	C	0.773073	-0.464596	0.464364
C46	C	1.273073	0.035404	0.964364
C47	C	1.143921	-0.701596	0.495115
C48	C	1.643921	-0.201596	0.995115
C49	C	1.139034	-0.794242	0.499577
C50	C	1.639034	-0.294242	0.999577
C51	C	1.130115	-0.963868	0.507739
C52	C	1.630115	-0.463868	1.007739
C53	C	1.181071	-1.005397	0.461807
C54	C	1.681071	-0.505397	0.961807
C55	C	1.176108	-1.099782	0.466348
C56	C	1.676108	-0.599782	0.966348
C57	C	1.135076	-0.869474	0.503198
C58	C	1.635076	-0.369474	1.003198
C59	C	1.371796	-0.496637	0.496326
C60	C	1.871796	0.003363	0.996326
C61	C	1.463961	-0.501576	0.501254
C62	C	1.963961	-0.001576	1.001254
C63	C	1.143975	-0.495505	0.702155
C64	C	1.643975	0.004495	1.202155
C65	C	1.139055	-0.499962	0.794795
C66	C	1.639055	0.000038	1.294795
C67	C	1.167184	-0.267657	0.474387
C68	C	1.667184	0.232343	0.974387
C69	C	1.172154	-0.175017	0.469967
C70	C	1.672154	0.324983	0.969967
C71	C	1.130044	-0.508077	0.964408
C72	C	1.630044	-0.008077	1.464408
C73	C	1.180964	-0.462098	1.005970
C74	C	1.680964	0.037902	1.505970
C75	C	1.175950	-0.466613	1.100348
C76	C	1.675950	0.033387	1.600348
C77	C	1.135057	-0.503563	0.870021
C78	C	1.635057	-0.003563	1.370021
C79	C	1.167018	-0.474654	1.268215
C80	C	1.667018	0.025346	1.768215
C81	C	1.171956	-0.470211	1.175577
C82	C	1.671956	0.029789	1.675577
H83	H	1.228421	-0.970065	0.419071
H84	H	1.728421	-0.470065	0.919071
O85	O	1.073662	-0.559184	1.006558
O86	O	1.573662	-0.059184	1.506558
C87	C	1.051363	-0.675697	1.109800
C88	C	1.551363	-0.175697	1.609800
C89	C	1.115299	-0.617889	1.062097
C90	C	1.615299	-0.117889	1.562097
H91	H	1.085001	-0.723162	1.154728
H92	H	1.585001	-0.223162	1.654728
H93	H	1.013820	-0.709676	1.063665
H94	H	1.513820	-0.209676	1.563665
H95	H	1.007923	-0.637002	1.146365
H96	H	1.507923	-0.137002	1.646365
H97	H	1.158793	-0.656522	1.025531
H98	H	1.658793	-0.156522	1.525531
H99	H	1.152782	-0.583906	1.108274
H100	H	1.652782	-0.083906	1.608274
H101	H	1.082767	-0.999197	0.550470
H102	H	1.582767	-0.499197	1.050470
O103	O	0.669508	-0.567102	0.566500
O104	O	1.169508	-0.067102	1.066500
C105	C	0.798013	-0.623639	0.622907
C106	C	1.298013	-0.123639	1.122907
C107	C	0.756438	-0.559594	0.559106
C108	C	1.256438	-0.059594	1.059106
H109	H	0.868303	-0.617579	0.616962
H110	H	1.368303	-0.117579	1.116962
H111	H	0.778286	-0.689247	0.610489
H112	H	1.278286	-0.189247	1.110489
H113	H	0.778220	-0.611466	0.688551
H114	H	1.278220	-0.111466	1.188551
H115	H	0.776211	-0.571690	0.493437
H116	H	1.276211	-0.071690	0.993437
H117	H	0.776165	-0.494007	0.571596
H118	H	1.276165	0.005993	1.071596
H119	H	1.228324	-0.419341	0.970673
H120	H	1.728324	0.080659	1.470673
H121	H	0.648426	-0.412192	0.412137
H122	H	1.148426	0.087808	0.912137
