data_functionalizedCrystal
_audit_creation_method	'MofGen! by Chris Wilmer'
_symmetry_space_group_name_H-M	'P1'
_symmetry_Int_Tables_number	1
_symmetry_cell_setting	triclinic
loop_
_symmetry_equiv_pos_as_xyz
  x,y,z
_cell_length_a	13.897441
_cell_length_b	18.215407
_cell_length_c	18.215405
_cell_angle_alpha	89.974667
_cell_angle_beta	89.965178
_cell_angle_gamma	90.022034
loop_
_atom_site_label
_atom_site_type_symbol
_atom_site_fract_x
_atom_site_fract_y
_atom_site_fract_z
Zn1	Zn	-0.545386	-1.125088	-0.292952
Zn2	Zn	-0.045386	-0.625088	0.207048
Zn3	Zn	-0.384076	-1.124992	-0.416032
Zn4	Zn	0.115924	-0.624992	0.083968
Zn5	Zn	-0.384101	-1.002016	-0.292985
Zn6	Zn	0.115899	-0.502016	0.207015
Zn7	Zn	-0.545325	-1.001986	-0.415982
Zn8	Zn	-0.045325	-0.501986	0.084018
O9	O	-0.464722	-1.063520	-0.354488
O10	O	0.035278	-0.563520	0.145512
O11	O	-0.524003	-1.228059	-0.309286
O12	O	-0.024003	-0.728059	0.190714
O13	O	-0.249097	-1.108651	-0.399745
O14	O	0.250903	-0.608651	0.100255
O15	O	-0.405532	-1.018394	-0.189997
O16	O	0.094468	-0.518394	0.310003
O17	O	-0.405489	-1.227989	-0.399713
O18	O	0.094511	-0.727989	0.100287
O19	O	-0.524028	-1.108815	-0.189972
O20	O	-0.024028	-0.608815	0.310028
O21	O	-0.249116	-1.018301	-0.309343
O22	O	0.250884	-0.518301	0.190657
O23	O	-0.405472	-0.899028	-0.309294
O24	O	0.094528	-0.399028	0.190706
O25	O	-0.680315	-1.018344	-0.399627
O26	O	-0.180315	-0.518344	0.100373
O27	O	-0.523923	-0.899006	-0.399659
O28	O	-0.023923	-0.399006	0.100341
O29	O	-0.680360	-1.108786	-0.309237
O30	O	-0.180360	-0.608786	0.190763
O31	O	-0.405430	-1.108622	-0.519010
O32	O	0.094570	-0.608622	-0.019010
O33	O	-0.523898	-1.018251	-0.518973
O34	O	-0.023898	-0.518251	-0.018973
C35	C	-0.464694	-0.872314	-0.354475
C36	C	0.035306	-0.372314	0.145525
C37	C	-0.464705	-0.790515	-0.354488
C38	C	0.035295	-0.290515	0.145512
C39	C	-0.716315	-1.063573	-0.354423
C40	C	-0.216315	-0.563573	0.145577
C41	C	-0.823529	-1.063595	-0.354395
C42	C	-0.323529	-0.563595	0.145605
C43	C	-0.464676	-1.063443	-0.545694
C44	C	0.035324	-0.563443	-0.045694
C45	C	-0.464688	-1.063477	-0.627493
C46	C	0.035312	-0.563477	-0.127493
C47	C	-1.019824	-1.063615	-0.354345
C48	C	-0.519824	-0.563615	0.145655
C49	C	-0.910592	-1.063602	-0.354375
C50	C	-0.410592	-0.563602	0.145625
C51	C	-0.214108	-1.063511	-0.354500
C52	C	0.285892	-0.563511	0.145500
C53	C	-0.106894	-1.063631	-0.354320
C54	C	0.393106	-0.563631	0.145680
C55	C	-0.464750	-1.255473	-0.354501
C56	C	0.035250	-0.755473	0.145499
C57	C	-0.464762	-1.337272	-0.354507
C58	C	0.035238	-0.837272	0.145493
C59	C	-0.526305	-0.602329	-0.401615
C60	C	-0.026305	-0.102329	0.098385
C61	C	-0.526317	-0.525471	-0.401617
C62	C	-0.026317	-0.025471	0.098383
C63	C	-0.403160	-0.525464	-0.307374
C64	C	0.096840	-0.025464	0.192626
C65	C	-0.403154	-0.602321	-0.307369
C66	C	0.096846	-0.102321	0.192631
C67	C	-0.464725	-0.640752	-0.354493
C68	C	0.035275	-0.140752	0.145507
C69	C	-0.464743	-0.487036	-0.354501
C70	C	0.035257	0.012964	0.145499
C71	C	-0.464756	-0.403702	-0.354503
C72	C	0.035244	0.096298	0.145497
C73	C	-0.464714	-0.724091	-0.354490
C74	C	0.035286	-0.224091	0.145510
C75	C	-0.403115	-1.110644	-0.815682
C76	C	0.096885	-0.610644	-0.315682
C77	C	-0.403138	-1.110677	-0.892541
C78	C	0.096862	-0.610677	-0.392541
C79	C	-0.526399	-1.016491	-0.892542
C80	C	-0.026399	-0.516491	-0.392542
C81	C	-0.526379	-1.016463	-0.815685
C82	C	-0.026379	-0.516463	-0.315685
C83	C	-0.464732	-1.063538	-0.777257
C84	C	0.035268	-0.563538	-0.277257
C85	C	-0.464775	-1.063599	-0.930973
C86	C	0.035225	-0.563599	-0.430973
C87	C	-0.464800	-1.063635	-1.014306
C88	C	0.035200	-0.563635	-0.514306
C89	C	-0.464707	-1.063504	-0.693918
C90	C	0.035293	-0.563504	-0.193918
C91	C	-0.464790	-1.063619	-0.162535
C92	C	0.035210	-0.563619	0.337465
C93	C	-0.464819	-1.063660	-0.080736
C94	C	0.035181	-0.563660	0.419264
H95	H	-0.576463	-0.494190	-0.439987
H96	H	-0.076463	0.005810	0.060013
O97	O	-0.592846	-0.965652	-0.774238
O98	O	-0.092846	-0.465652	-0.274238
H99	H	-0.582483	-0.973549	-0.714339
H100	H	-0.082483	-0.473549	-0.214339
O101	O	-0.336730	-0.643765	-0.256539
O102	O	0.163270	-0.143765	0.243461
H103	H	-0.347080	-0.703665	-0.264447
H104	H	0.152920	-0.203665	0.235553
O105	O	-0.592721	-0.643784	-0.452430
O106	O	-0.092721	-0.143784	0.047570
H107	H	-0.635552	-0.604150	-0.485191
H108	H	-0.135552	-0.104150	0.014809
H109	H	-0.353030	-0.494164	-0.269008
H110	H	0.146970	0.005836	0.230992
H111	H	-0.352919	-1.148976	-0.784395
H112	H	0.147081	-0.648976	-0.284395
H113	H	-0.352965	-1.149036	-0.923823
H114	H	0.147035	-0.649036	-0.423823
O115	O	-0.592870	-0.965704	-0.933988
O116	O	-0.092870	-0.465704	-0.433988
H117	H	-0.582522	-0.973628	-0.993888
H118	H	-0.082522	-0.473628	-0.493888
