data_functionalizedCrystal
_audit_creation_method	'MofGen! by Chris Wilmer'
_symmetry_space_group_name_H-M	'P1'
_symmetry_Int_Tables_number	1
_symmetry_cell_setting	triclinic
loop_
_symmetry_equiv_pos_as_xyz
  x,y,z
_cell_length_a	11.026607
_cell_length_b	15.944551
_cell_length_c	9.482900
_cell_angle_alpha	99.334197
_cell_angle_beta	78.636152
_cell_angle_gamma	96.042377
loop_
_atom_site_label
_atom_site_type_symbol
_atom_site_fract_x
_atom_site_fract_y
_atom_site_fract_z
O1	O	1.629108	0.341447	-0.120915
O2	O	2.129108	0.841447	0.379085
O3	O	1.275798	0.301394	-0.120914
O4	O	1.775798	0.801394	0.379086
O5	O	1.462099	0.200605	-0.120901
O6	O	1.962099	0.700605	0.379099
O7	O	1.442807	0.442235	-0.120927
O8	O	1.942807	0.942235	0.379073
O9	O	1.424257	0.221183	0.120889
O10	O	1.924257	0.721183	0.620889
O11	O	1.237956	0.321972	0.120876
O12	O	1.737956	0.821972	0.620876
O13	O	1.591266	0.362024	0.120875
O14	O	2.091266	0.862024	0.620875
Cu15	Cu	1.411156	0.343877	0.142953
Cu16	Cu	1.911156	0.843877	0.642953
Cu17	Cu	1.455908	0.319541	-0.142992
Cu18	Cu	1.955908	0.819541	0.357008
O19	O	1.404965	0.462813	0.120862
O20	O	1.904965	0.962813	0.620862
C21	C	1.211666	0.304294	-0.000019
C22	C	1.711666	0.804294	0.499981
C23	C	1.076950	0.282267	-0.000019
C24	C	1.576950	0.782267	0.499981
C25	C	1.003151	0.343086	-0.000026
C26	C	1.503151	0.843086	0.499974
C27	C	0.863914	0.320322	-0.000026
C28	C	1.363914	0.820322	0.499974
C29	C	1.442377	0.179479	-0.000006
C30	C	1.942377	0.679479	0.499994
C31	C	1.439975	0.085870	-0.000005
C32	C	1.939975	0.585870	0.499995
C33	C	1.318759	-0.147313	-0.000025
C34	C	1.818759	0.352687	0.499975
C35	C	1.356391	-0.189675	0.119192
C36	C	1.856391	0.310325	0.619192
C37	C	1.435632	-0.085514	-0.000016
C38	C	1.935632	0.414486	0.499984
C39	C	1.393728	-0.209942	-0.119194
C40	C	1.893728	0.290058	0.380806
C41	C	1.431430	-0.251064	-0.000034
C42	C	1.931430	0.248936	0.499966
C43	C	1.473281	-0.126634	0.119299
C44	C	1.973281	0.373366	0.619299
C45	C	1.510618	-0.146907	-0.119194
C46	C	2.010618	0.353093	0.380806
C47	C	1.548331	-0.189236	0.000052
C48	C	2.048331	0.310764	0.500052
C49	C	1.438050	0.009855	-0.000005
C50	C	1.938050	0.509855	0.499995
C51	C	1.429020	-0.346429	-0.000034
C52	C	1.929020	0.153571	0.499966
C53	C	1.655399	0.359124	-0.000023
C54	C	2.155399	0.859124	0.499977
C55	C	1.790116	0.381150	-0.000033
C56	C	2.290116	0.881150	0.499967
C57	C	1.424688	0.483939	-0.000036
C58	C	1.924688	0.983939	0.499964
C59	C	1.427091	0.577547	-0.000046
C60	C	1.927091	1.077547	0.499954
N61	N	1.379688	0.360994	0.344071
N62	N	1.879688	0.860994	0.844071
N63	N	1.487386	0.302419	-0.344110
N64	N	1.987386	0.802419	0.155890
C65	C	1.446618	0.324584	0.416275
C66	C	1.946618	0.824584	0.916275
C67	C	1.420446	0.338834	0.583690
C68	C	1.920446	0.838834	1.083690
H69	H	1.043047	0.412009	-0.000025
H70	H	1.543047	0.912009	0.499975
Cl71	Cl	1.015360	0.175853	0.000003
Cl72	Cl	1.515360	0.675853	0.500003
Cl73	Cl	0.802330	0.213904	-0.000004
Cl74	Cl	1.302330	0.713904	0.499996
Cl75	Cl	1.606038	0.238218	0.559994
Cl76	Cl	2.106038	0.738218	1.059994
H77	H	1.575784	-0.127888	-0.219988
H78	H	2.075784	0.372112	0.280012
Cl79	Cl	1.341727	-0.265745	-0.274792
Cl80	Cl	1.841727	0.234255	0.225208
H81	H	1.523292	0.282860	0.354152
H82	H	2.023292	0.782860	0.854152
Cl83	Cl	0.851692	0.487571	-0.000024
Cl84	Cl	1.351692	0.987571	0.499976
Cl85	Cl	1.261294	0.425404	0.439976
Cl86	Cl	1.761294	0.925404	0.939976
H87	H	1.221729	-0.128660	0.000094
H88	H	1.721729	0.371340	0.500094
H89	H	1.506881	-0.090590	0.220198
H90	H	2.006881	0.409410	0.720198
Cl91	Cl	1.255719	-0.219015	0.274802
Cl92	Cl	1.755719	0.280985	0.774802
Cl93	Cl	1.698222	-0.217765	0.000150
Cl94	Cl	2.198222	0.282235	0.500150
Cl95	Cl	1.302046	0.403247	0.679590
Cl96	Cl	1.802046	0.903247	1.179590
