data_functionalizedCrystal
_audit_creation_method	'MofGen! by Chris Wilmer'
_symmetry_space_group_name_H-M	'P1'
_symmetry_Int_Tables_number	1
_symmetry_cell_setting	triclinic
loop_
_symmetry_equiv_pos_as_xyz
  x,y,z
_cell_length_a	23.532407
_cell_length_b	10.654543
_cell_length_c	22.010155
_cell_angle_alpha	89.991773
_cell_angle_beta	89.996915
_cell_angle_gamma	96.334575
loop_
_atom_site_label
_atom_site_type_symbol
_atom_site_fract_x
_atom_site_fract_y
_atom_site_fract_z
O1	O	0.756255	-0.152421	-0.050445
O2	O	0.590535	-0.174477	-0.050462
O3	O	0.677207	0.019411	-0.050454
O4	O	0.669583	-0.346310	-0.050453
O5	O	0.677192	0.019381	0.050596
O6	O	0.590519	-0.174508	0.050588
O7	O	0.756239	-0.152451	0.050605
Cu8	Cu	0.673378	-0.163483	0.059824
Cu9	Cu	0.673397	-0.163446	-0.059680
O10	O	0.669567	-0.346340	0.050598
C11	C	0.569308	-0.173931	0.000061
C12	C	0.506080	-0.172242	0.000054
C13	C	0.676640	0.066177	0.000069
C14	C	0.674968	0.205567	0.000064
C15	C	0.725999	0.286670	0.000067
C16	C	0.724424	0.417641	0.000056
C17	C	0.620783	0.386394	0.000041
C18	C	0.622358	0.255425	0.000048
C19	C	0.107654	-0.276390	0.000082
C20	C	0.048244	-0.274821	0.000086
O21	O	0.012127	-0.371367	0.000108
N22	N	0.024868	-0.159554	0.000084
C23	C	0.060906	-0.045849	0.000085
O24	O	0.035567	0.052339	0.000085
C25	C	0.120315	-0.047419	0.000086
C26	C	0.143687	-0.162693	0.000081
C27	C	0.131027	-0.391655	0.000078
C28	C	0.190433	-0.393223	0.000073
C29	C	0.226467	-0.279526	0.000072
C30	C	0.203094	-0.164261	0.000076
C31	C	0.156352	0.066285	0.000091
C32	C	0.215765	0.064705	0.000092
C33	C	0.239137	-0.050569	0.000087
C34	C	0.298533	-0.052133	0.000071
N35	N	0.321909	-0.167400	0.000072
C36	C	0.285876	-0.281096	0.000073
C37	C	-0.063858	-0.042560	0.000085
C38	C	-0.123266	-0.040989	0.000080
C39	C	-0.135924	-0.269962	0.000082
C40	C	-0.076515	-0.271532	0.000082
C41	C	-0.040482	-0.157827	0.000086
C42	C	0.410634	-0.284381	0.000062
C43	C	0.470046	-0.285939	0.000055
C44	C	0.482699	-0.056967	0.000056
C45	C	0.423292	-0.055408	0.000061
C46	C	0.387261	-0.169125	0.000066
O47	O	0.334685	0.044362	0.000050
O48	O	0.311222	-0.379268	0.000082
C49	C	0.777467	-0.152998	0.000081
C50	C	0.840695	-0.154686	0.000084
C51	C	0.670137	0.606895	0.000066
C52	C	0.671818	0.467507	0.000046
N53	N	0.673369	-0.163507	0.143876
C54	C	0.711777	-0.077614	0.563659
C55	C	0.711779	-0.077606	0.627266
O56	O	0.744413	-0.004588	0.660161
N57	N	0.673395	-0.163431	0.659083
C58	C	0.635003	-0.249261	0.627289
O59	O	0.602354	-0.322260	0.660192
C60	C	0.634998	-0.249261	0.563683
C61	C	0.673388	-0.163439	0.531869
C62	C	0.750163	0.008202	0.531845
C63	C	0.750161	0.008192	0.468242
C64	C	0.711773	-0.077633	0.436452
C65	C	0.673386	-0.163449	0.468266
C66	C	0.596603	-0.335084	0.531890
C67	C	0.596601	-0.335077	0.468279
C68	C	0.634991	-0.249255	0.436465
C69	C	0.634996	-0.249284	0.372873
N70	N	0.673379	-0.163459	0.341056
C71	C	0.711768	-0.077634	0.372846
C72	C	0.635015	-0.249251	0.760867
C73	C	0.635022	-0.249257	0.824472
C74	C	0.711798	-0.077601	0.824445
C75	C	0.711793	-0.077602	0.760839
C76	C	0.673399	-0.163426	0.729050
C77	C	0.711761	-0.077661	0.239275
C78	C	0.711758	-0.077682	0.175666
C79	C	0.634980	-0.249333	0.175698
C80	C	0.634985	-0.249317	0.239302
C81	C	0.673378	-0.163471	0.271088
O82	O	0.602377	-0.322261	0.339938
O83	O	0.744406	-0.004636	0.339935
N84	N	0.673409	-0.163427	0.856267
H85	H	0.768837	0.246080	0.000079
H86	H	0.580800	0.189388	0.000044
C87	C	-0.175566	-0.395031	0.000087
H88	H	-0.153141	-0.463913	0.000083
H89	H	-0.199006	-0.399180	0.035327
H90	H	-0.199003	-0.399162	-0.035155
H91	H	0.603751	-0.319150	0.734988
H92	H	0.381304	-0.376981	0.000068
C93	C	0.780556	0.506854	0.000057
H94	H	0.772085	0.591997	0.000042
H95	H	0.802102	0.491812	0.035298
H96	H	0.802110	0.491805	-0.035183
C97	C	0.397581	0.071389	0.000059
H98	H	0.427552	0.138877	0.000059
H99	H	0.374665	0.076774	-0.035175
H100	H	0.374672	0.076751	0.035306
C101	C	0.562917	0.441244	0.000032
H102	H	0.569287	0.530860	0.000035
H103	H	0.541887	0.413368	-0.035207
H104	H	0.541880	0.413353	0.035274
H105	H	0.489072	-0.379813	0.000051
C106	C	0.792384	0.102612	0.433255
H107	H	0.815240	0.153729	0.461305
H108	H	0.816269	0.057719	0.408440
H109	H	0.771689	0.154664	0.408445
C110	C	0.522340	0.068093	0.000052
H111	H	0.499915	0.136975	0.000049
H112	H	0.545780	0.072222	0.035288
H113	H	0.545778	0.072243	-0.035193
C114	C	0.554369	-0.429488	0.433312
H115	H	0.559860	-0.417202	0.390873
H116	H	0.560879	-0.513228	0.443746
H117	H	0.516310	-0.416259	0.443740
C118	C	-0.050811	-0.398332	0.000083
H119	H	-0.080784	-0.465814	0.000086
H120	H	-0.027894	-0.403700	-0.035154
H121	H	-0.027904	-0.403719	0.035327
H122	H	0.743054	-0.007718	0.734940
H123	H	0.603767	-0.319155	0.850370
C124	C	0.592736	-0.343671	0.274298
H125	H	0.569864	-0.394766	0.246252
H126	H	0.613397	-0.395735	0.299133
H127	H	0.568862	-0.298691	0.299089
H128	H	0.209457	-0.487091	0.000069
C129	C	0.754020	0.016818	0.859422
H130	H	0.748517	0.004531	0.901859
H131	H	0.792080	0.003619	0.849000
H132	H	0.747500	0.100562	0.848992
C133	C	0.554378	-0.429500	0.566871
H134	H	0.531515	-0.480600	0.538819
H135	H	0.575067	-0.481551	0.591683
H136	H	0.530491	-0.384597	0.591684
H137	H	0.603726	-0.319215	0.149805
C138	C	0.792398	0.102612	0.566804
H139	H	0.815258	0.153705	0.538739
H140	H	0.771720	0.154671	0.591619
H141	H	0.816285	0.057694	0.591613
C142	C	0.091399	-0.516733	0.000074
H143	H	0.113836	-0.585594	0.000067
H144	H	0.067953	-0.520914	0.035310
H145	H	0.067967	-0.520869	-0.035172
C146	C	-0.148970	0.085812	0.000079
H147	H	-0.118996	0.153295	0.000082
H148	H	-0.171883	0.091204	-0.035157
H149	H	-0.171880	0.091177	0.035324
C150	C	0.255400	0.189781	0.000095
H151	H	0.294131	0.172346	0.000097
H152	H	0.248264	0.237093	-0.035141
H153	H	0.248262	0.237057	0.035340
H154	H	-0.034523	0.050038	0.000083
H155	H	0.137333	0.160154	0.000095
H156	H	0.743021	-0.007795	0.149765
H157	H	0.743024	-0.007756	0.265148
