data_functionalizedCrystal
_audit_creation_method	'MofGen! by Chris Wilmer'
_symmetry_space_group_name_H-M	'P1'
_symmetry_Int_Tables_number	1
_symmetry_cell_setting	triclinic
loop_
_symmetry_equiv_pos_as_xyz
  x,y,z
_cell_length_a	21.395362
_cell_length_b	12.759399
_cell_length_c	21.395355
_cell_angle_alpha	89.985737
_cell_angle_beta	89.956060
_cell_angle_gamma	90.030995
loop_
_atom_site_label
_atom_site_type_symbol
_atom_site_fract_x
_atom_site_fract_y
_atom_site_fract_z
Zn1	Zn	0.957927	-0.417943	-0.354604
Zn2	Zn	0.957858	-0.593607	-0.249834
Zn3	Zn	0.853142	-0.417992	-0.249805
Zn4	Zn	0.853140	-0.593629	-0.354539
O5	O	0.905517	-0.505793	-0.302196
O6	O	1.045596	-0.441215	-0.340746
O7	O	0.943940	-0.570323	-0.162153
O8	O	0.867072	-0.270964	-0.263722
O9	O	1.045545	-0.570275	-0.263772
O10	O	0.944057	-0.270928	-0.340717
O11	O	0.867005	-0.441299	-0.162131
O12	O	0.765464	-0.441320	-0.263659
O13	O	0.867068	-0.570312	-0.442226
O14	O	0.765462	-0.570360	-0.340607
O15	O	0.944055	-0.441236	-0.442273
O16	O	0.943937	-0.740631	-0.263709
O17	O	0.867001	-0.740647	-0.340635
C18	C	0.742729	-0.505848	-0.302123
C19	C	0.673088	-0.505897	-0.302107
C20	C	0.640390	-0.573177	-0.342113
C21	C	0.574955	-0.573152	-0.342141
C22	C	0.542220	-0.505857	-0.302152
C23	C	0.574925	-0.438564	-0.262142
C24	C	0.640359	-0.438584	-0.262120
C25	C	0.438494	-0.497393	-0.245746
C26	C	0.373061	-0.497380	-0.245767
C27	C	0.340399	-0.505788	-0.302221
C28	C	0.373178	-0.514231	-0.358655
C29	C	0.438613	-0.514251	-0.358632
C30	C	0.471267	-0.505827	-0.302172
C31	C	0.236749	-0.573044	-0.342261
C32	C	0.171312	-0.573011	-0.342290
C33	C	0.171284	-0.438428	-0.262285
C34	C	0.236719	-0.438456	-0.262262
C35	C	0.269448	-0.505769	-0.302249
C36	C	0.905479	-0.778760	-0.302182
C37	C	0.905519	-0.895537	-0.302196
C38	C	0.945626	-0.950355	-0.262187
C39	C	0.945666	-1.060079	-0.262208
C40	C	0.865488	-1.060156	-0.342250
C41	C	0.865452	-0.950434	-0.342232
C42	C	1.019619	-1.209913	-0.239938
C43	C	1.059720	-1.264735	-0.199919
C44	C	1.069357	-1.229161	-0.138789
C45	C	1.038884	-1.138766	-0.117667
C46	C	0.998779	-1.083949	-0.157683
C47	C	0.989154	-1.119522	-0.218821
C48	C	0.791497	-0.800599	-0.364494
C49	C	0.751388	-0.745780	-0.404508
C50	C	0.741745	-0.781352	-0.465639
C51	C	0.772207	-0.871751	-0.486759
C52	C	0.812316	-0.926570	-0.446745
C53	C	0.821960	-0.890990	-0.385615
C54	C	1.068940	-0.505738	-0.302269
C55	C	1.138582	-0.505714	-0.302300
C56	C	0.905569	-0.505771	-0.465619
C57	C	0.905591	-0.505762	-0.535260
C58	C	0.905573	-0.231759	-0.302224
C59	C	0.905596	-0.114983	-0.302236
C60	C	0.945676	-0.438550	-0.567999
C61	C	0.945676	-0.438504	-0.633435
C62	C	0.905596	-0.505691	-0.666129
C63	C	0.865503	-0.572908	-0.633382
C64	C	0.865500	-0.572944	-0.567948
C65	C	0.900635	-0.600292	-0.769797
C66	C	0.900642	-0.600258	-0.835230
C67	C	0.905600	-0.505580	-0.867950
C68	C	0.910564	-0.410932	-0.835228
C69	C	0.910561	-0.410968	-0.769794
C70	C	0.905594	-0.505659	-0.737081
C71	C	0.945686	-0.438312	-0.971641
C72	C	0.945681	-0.438265	-1.037078
C73	C	0.865512	-0.572678	-1.037024
C74	C	0.865514	-0.572716	-0.971588
C75	C	0.905604	-0.505534	-0.938901
C76	C	0.905501	-0.505738	-0.139408
C77	C	0.905600	-0.505451	-0.069767
H78	H	0.263342	-0.383674	-0.229681
F79	F	0.699026	-0.723040	-0.508211
H80	H	0.832865	-1.104867	-0.374844
F81	F	0.675160	-0.366971	-0.219538
F82	F	0.915843	-0.310161	-0.870046
F83	F	0.822845	-0.644409	-0.668178
F84	F	0.822851	-0.644258	-0.936744
H85	H	0.978252	-0.905660	-0.229588
F86	F	0.136449	-0.366802	-0.219728
H87	H	0.978322	-0.383527	-1.063733
H88	H	0.465299	-0.521123	-0.404583
F89	F	1.009374	-1.247772	-0.305003
H90	H	1.084532	-1.338335	-0.217123
H91	H	0.973969	-1.010350	-0.140486
H92	H	0.346377	-0.490512	-0.199815
H93	H	0.896604	-0.677325	-0.861866
H94	H	0.832872	-0.627372	-1.063642
H95	H	0.978327	-0.383603	-0.945026
H96	H	0.548327	-0.627939	-0.374722
F97	F	0.271583	-0.644679	-0.384821
F98	F	0.844737	-1.022781	-0.469225
F99	F	0.895373	-0.701071	-0.734980
H100	H	0.764355	-0.900714	-0.536537
F101	F	0.718950	-0.649589	-0.382021
H102	H	0.978321	-0.383844	-0.541389
H103	H	0.832855	-0.627675	-0.541292
H104	H	0.799351	-0.771621	-0.314718
H105	H	0.978317	-0.383766	-0.660096
H106	H	0.667034	-0.627988	-0.374675
H107	H	0.914602	-0.333903	-0.743155
H108	H	0.346587	-0.521076	-0.404625
F109	F	0.136513	-0.644618	-0.384876
H110	H	0.465081	-0.490542	-0.199772
F111	F	1.112036	-1.287511	-0.096198
F112	F	0.540085	-0.366940	-0.219585
H113	H	1.046729	-1.109815	-0.067886
