data_functionalizedCrystal
_audit_creation_method	'MofGen! by Chris Wilmer'
_symmetry_space_group_name_H-M	'P1'
_symmetry_Int_Tables_number	1
_symmetry_cell_setting	triclinic
loop_
_symmetry_equiv_pos_as_xyz
  x,y,z
_cell_length_a	12.759401
_cell_length_b	19.805405
_cell_length_c	12.759401
_cell_angle_alpha	90.016552
_cell_angle_beta	90.002178
_cell_angle_gamma	90.026572
loop_
_atom_site_label
_atom_site_type_symbol
_atom_site_fract_x
_atom_site_fract_y
_atom_site_fract_z
Zn1	Zn	1.606001	-0.269561	0.593937
Zn2	Zn	1.605909	-0.382724	0.418238
Zn3	Zn	1.430353	-0.269555	0.418276
Zn4	Zn	1.430255	-0.382714	0.593880
O5	O	1.518129	-0.326139	0.506083
O6	O	1.753010	-0.284579	0.570638
O7	O	1.582624	-0.367714	0.271222
O8	O	1.453732	-0.174839	0.441618
O9	O	1.752942	-0.367720	0.441553
O10	O	1.582780	-0.174844	0.570675
O11	O	1.453643	-0.284569	0.271250
O12	O	1.283319	-0.284559	0.441562
O13	O	1.453566	-0.367702	0.740908
O14	O	1.283247	-0.367696	0.570577
O15	O	1.582685	-0.284569	0.740950
O16	O	1.582529	-0.477440	0.441498
O17	O	1.453477	-0.477432	0.570541
C18	C	1.245162	-0.326126	0.506068
C19	C	1.128385	-0.326137	0.506087
C20	C	1.073514	-0.369496	0.573154
C21	C	0.963790	-0.369505	0.573166
C22	C	0.963819	-0.282793	0.439034
C23	C	1.073541	-0.282782	0.439029
C24	C	1.073496	-0.419560	0.650591
C25	C	0.963772	-0.419569	0.650602
C26	C	1.518011	-0.501995	0.506032
C27	C	1.518057	-0.577227	0.506045
C28	C	1.585319	-0.612552	0.438923
C29	C	1.585364	-0.683241	0.438946
C30	C	1.518140	-0.718602	0.506087
C31	C	1.450874	-0.683272	0.573217
C32	C	1.450836	-0.612584	0.573198
C33	C	1.451029	-0.968345	0.573295
C34	C	1.451071	-1.039037	0.573306
C35	C	1.585557	-1.039001	0.439043
C36	C	1.585519	-0.968314	0.439024
C37	C	1.518258	-0.932990	0.506157
C38	C	1.518212	-0.856341	0.506133
C39	C	1.518180	-0.795249	0.506107
C40	C	1.792163	-0.326152	0.506098
C41	C	1.908939	-0.326157	0.506104
C42	C	1.518125	-0.326135	0.780116
C43	C	1.518123	-0.326134	0.896892
C44	C	1.518277	-0.149596	0.506157
C45	C	1.518339	-0.074364	0.506188
C46	C	1.585349	-0.282855	0.951778
C47	C	1.585343	-0.282857	1.061502
C48	C	1.450881	-0.369421	1.061445
C49	C	1.450883	-0.369416	0.951723
C50	C	1.662983	-0.232880	0.951812
C51	C	1.662976	-0.232882	1.061536
C52	C	1.518123	-0.326153	1.233115
C53	C	1.518115	-0.326141	1.116339
H54	H	0.933966	-0.471972	0.628661
H55	H	1.118213	-0.247471	0.384423
H56	H	1.107503	-0.469322	0.621298
H57	H	0.919151	-0.247495	0.384438
H58	H	1.641239	-0.180455	0.922064
H59	H	1.640056	-0.583766	0.384244
H60	H	0.929758	-0.400876	0.727957
Cl61	Cl	1.119497	-0.398008	0.776276
Cl62	Cl	1.782289	-0.261877	0.899249
Cl63	Cl	1.366369	-0.727726	0.657629
H64	H	1.640135	-0.712000	0.384288
Cl65	Cl	1.617886	-0.156039	1.114125
Cl66	Cl	1.670033	-0.923863	0.354615
H67	H	1.396138	-0.404655	0.907040
Cl68	Cl	1.670122	-1.083413	0.354651
H69	H	1.396330	-1.067826	0.627988
Cl70	Cl	1.366277	-0.568175	0.657588
Cl71	Cl	1.366470	-0.923946	0.657689
Cl72	Cl	1.366357	-0.423830	1.130383
Cl73	Cl	1.788585	-0.254559	1.107516
