data_functionalizedCrystal
_audit_creation_method	'MofGen! by Chris Wilmer'
_symmetry_space_group_name_H-M	'P1'
_symmetry_Int_Tables_number	1
_symmetry_cell_setting	triclinic
loop_
_symmetry_equiv_pos_as_xyz
  x,y,z
_cell_length_a	19.288859
_cell_length_b	10.723023
_cell_length_c	17.766277
_cell_angle_alpha	89.994693
_cell_angle_beta	89.989768
_cell_angle_gamma	83.800637
loop_
_atom_site_label
_atom_site_type_symbol
_atom_site_fract_x
_atom_site_fract_y
_atom_site_fract_z
O1	O	0.922368	0.155622	-0.062607
O2	O	0.720243	0.176628	-0.062605
O3	O	0.825968	-0.015549	-0.062603
O4	O	0.816643	0.347800	-0.062610
O5	O	0.825950	-0.015559	0.062585
O6	O	0.720225	0.176619	0.062583
O7	O	0.922349	0.155612	0.062581
Cu8	Cu	0.821285	0.166115	0.074013
Cu9	Cu	0.821307	0.166126	-0.074037
O10	O	0.816624	0.347790	0.062579
C11	C	0.694353	0.175949	-0.000011
C12	C	0.617236	0.173924	-0.000010
C13	C	0.053840	0.272985	-0.000013
C14	C	0.126299	0.274899	-0.000017
C15	C	0.170272	0.162138	-0.000014
C16	C	0.141781	0.047455	-0.000026
C17	C	0.069323	0.045544	-0.000029
C18	C	0.290989	0.078038	0.043850
C19	C	0.363445	0.079953	0.043858
C20	C	0.393756	0.168026	-0.000006
C21	C	0.351601	0.254204	-0.043868
C22	C	0.279143	0.252294	-0.043872
C23	C	0.248841	0.164197	-0.000010
C24	C	0.500807	0.284777	-0.000004
C25	C	0.573268	0.286686	-0.000012
C26	C	0.588749	0.059238	-0.000013
C27	C	0.516289	0.057333	-0.000012
C28	C	0.472323	0.170105	-0.000004
C29	C	0.825280	-0.062039	-0.000010
C30	C	0.823250	-0.200551	-0.000012
C31	C	0.822355	-0.262293	-0.064865
C32	C	0.820257	-0.405452	-0.064869
C33	C	0.948240	0.156292	-0.000015
C34	C	1.025357	0.158317	-0.000021
C35	C	0.817312	0.394280	-0.000016
C36	C	0.819342	0.532792	-0.000019
N37	N	0.821275	0.166106	0.178143
N38	N	0.821324	0.166125	-0.178168
C39	C	0.868105	0.081051	0.217531
C40	C	0.868109	0.081045	0.296333
C41	C	0.821289	0.166116	0.335744
C42	C	0.774450	0.251177	0.296346
C43	C	0.774443	0.251172	0.217546
C44	C	0.812730	0.279808	0.460580
C45	C	0.812742	0.279815	0.539379
C46	C	0.821308	0.166131	0.578790
C47	C	0.829876	0.052435	0.539393
C48	C	0.829869	0.052430	0.460593
C49	C	0.821292	0.166130	0.421189
C50	C	0.868145	0.081063	0.703624
C51	C	0.868145	0.081055	0.782427
C52	C	0.774489	0.251198	0.782439
C53	C	0.774486	0.251194	0.703637
C54	C	0.821318	0.166128	0.664234
H55	H	0.149495	0.368278	-0.000004
C56	C	0.820381	-0.395489	0.074996
N57	N	0.821161	-0.341460	0.131497
C58	C	0.803307	0.404878	0.417235
N59	N	0.796210	0.499078	0.384589
H60	H	0.822459	-0.253675	0.055507
C61	C	0.384938	0.351089	-0.092125
N62	N	0.410050	0.424060	-0.128471
H63	H	0.596457	0.380066	-0.000012
C64	C	0.257655	-0.018858	0.092104
N65	N	0.232548	-0.091839	0.128448
C66	C	0.919615	-0.012536	0.174192
N67	N	0.958411	-0.083031	0.141548
H68	H	0.906245	0.011781	0.328408
H69	H	0.736307	0.320435	0.185476
C70	C	0.839284	-0.072633	0.417259
N71	N	0.846372	-0.166832	0.384620
C72	C	0.839297	-0.072628	0.582739
N73	N	0.846394	-0.166822	0.615391
C74	C	0.637115	-0.064801	-0.000012
N75	N	0.673549	-0.158230	-0.000013
C76	C	0.190153	-0.076583	-0.000018
N77	N	0.226587	-0.170012	-0.000012
H78	H	0.906277	0.011793	0.671541
C79	C	0.819217	-0.477179	-0.139880
N80	N	0.818432	-0.531206	-0.196381
C81	C	0.409808	-0.014842	0.092109
N82	N	0.444728	-0.086245	0.128452
H83	H	0.244824	0.322461	-0.079588
H84	H	0.046134	-0.047835	-0.000036
H85	H	0.906277	0.011787	0.814497
C86	C	0.723019	0.344852	0.660309
N87	N	0.684267	0.415428	0.627674
C88	C	0.823422	-0.190530	-0.139872
N89	N	0.824229	-0.136480	-0.196370
H90	H	0.736365	0.320459	0.814527
H91	H	0.805770	0.372392	0.571450
H92	H	0.465008	0.376603	0.000002
H93	H	0.736328	0.320440	0.328439
H94	H	0.493099	-0.036043	-0.000014
C95	C	0.005480	0.397039	0.000001
N96	N	-0.030945	0.490478	0.000013
