data_functionalizedCrystal
_audit_creation_method	'MofGen! by Chris Wilmer'
_symmetry_space_group_name_H-M	'P1'
_symmetry_Int_Tables_number	1
_symmetry_cell_setting	triclinic
loop_
_symmetry_equiv_pos_as_xyz
  x,y,z
_cell_length_a	12.759401
_cell_length_b	12.645330
_cell_length_c	12.759393
_cell_angle_alpha	89.968891
_cell_angle_beta	89.979062
_cell_angle_gamma	90.014171
loop_
_atom_site_label
_atom_site_type_symbol
_atom_site_fract_x
_atom_site_fract_y
_atom_site_fract_z
Zn1	Zn	1.606281	-0.421945	-0.594016
Zn2	Zn	1.606179	-0.599246	-0.418334
Zn3	Zn	1.430580	-0.422001	-0.418351
Zn4	Zn	1.430578	-0.599171	-0.593971
O5	O	1.518405	-0.510591	-0.506168
O6	O	1.753289	-0.445472	-0.570723
O7	O	1.582843	-0.575788	-0.271315
O8	O	1.453931	-0.273647	-0.441679
O9	O	1.753213	-0.575734	-0.441650
O10	O	1.583018	-0.273605	-0.570739
O11	O	1.453831	-0.445568	-0.271327
O12	O	1.283559	-0.445496	-0.441636
O13	O	1.453928	-0.575607	-0.740998
O14	O	1.283557	-0.575662	-0.570663
O15	O	1.583016	-0.445400	-0.741031
O16	O	1.582841	-0.747583	-0.441607
O17	O	1.453828	-0.747529	-0.570647
C18	C	1.245437	-0.510578	-0.506147
C19	C	1.128661	-0.510598	-0.506163
C20	C	1.073825	-0.578479	-0.573242
C21	C	0.964101	-0.578483	-0.573263
C22	C	0.964057	-0.442722	-0.439117
C23	C	1.073779	-0.442714	-0.439102
C24	C	1.518352	-0.786021	-0.506143
C25	C	1.518426	-0.903851	-0.506168
C26	C	1.599457	-1.071405	-0.424824
C27	C	1.599721	-0.948844	-0.425023
C28	C	1.548455	-0.948224	-0.616912
C29	C	1.549098	-1.070822	-0.616481
C30	C	1.407332	-1.071183	-0.477858
C31	C	1.407865	-0.948579	-0.475374
C32	C	1.792438	-0.510605	-0.506189
C33	C	1.909215	-0.510610	-0.506199
C34	C	1.518483	-0.510489	-0.780201
C35	C	1.518517	-0.510446	-0.896978
C36	C	1.518486	-0.234086	-0.506216
C37	C	1.518521	-0.116255	-0.506236
C38	C	1.585738	-0.442636	-0.951859
C39	C	1.585756	-0.442590	-1.061583
C40	C	1.451328	-0.578173	-1.061536
C41	C	1.451306	-0.578213	-0.951814
C42	C	1.518387	-0.510616	-0.233200
C43	C	1.518557	-0.510360	-0.116424
H44	H	0.919360	-0.387455	-0.384517
H45	H	1.118507	-0.633751	-0.627850
H46	H	1.630372	-1.099331	-0.640519
C47	C	0.904756	-0.652301	-0.646130
C48	C	0.976307	-0.711763	-0.704833
C49	C	0.921677	-0.779787	-0.771963
H50	H	0.861981	-0.611928	-0.692079
H51	H	0.861945	-0.698500	-0.605889
H52	H	1.019100	-0.665569	-0.745071
H53	H	1.019084	-0.752157	-0.658911
H54	H	0.878867	-0.825986	-0.731722
H55	H	0.878905	-0.739405	-0.817906
H56	H	0.970216	-0.820146	-0.811794
H57	H	1.580903	-1.100964	-0.342468
H58	H	1.396610	-0.633349	-1.106197
C59	C	1.378450	-0.652019	-0.892275
C60	C	1.401316	-0.756901	-0.918923
C61	C	1.334234	-0.824914	-0.864086
H62	H	1.307829	-0.636634	-0.910201
H63	H	1.388072	-0.642404	-0.819066
H64	H	1.391686	-0.766511	-0.992116
H65	H	1.471924	-0.772319	-0.900995
H66	H	1.343855	-0.815299	-0.790877
H67	H	1.263617	-0.809520	-0.882017
H68	H	1.349745	-0.896084	-0.882152
C69	C	1.326902	-1.109646	-0.557002
C70	C	1.281261	-1.022560	-0.607105
C71	C	1.207182	-1.057952	-0.680030
H72	H	1.274131	-1.149142	-0.521945
H73	H	1.360393	-1.153220	-0.607557
H74	H	1.247771	-0.979003	-0.556557
H75	H	1.334006	-0.983054	-0.642183
H76	H	1.240672	-1.101527	-0.730585
H77	H	1.154417	-1.097449	-0.644964
H78	H	1.176212	-0.998871	-0.714040
C79	C	1.658622	-0.369004	-1.121357
C80	C	1.644236	-0.383444	-1.229185
C81	C	1.711331	-0.315657	-1.284280
H82	H	1.729249	-0.384460	-1.103516
H83	H	1.643251	-0.297761	-1.103439
H84	H	1.659614	-0.454670	-1.247095
H85	H	1.573624	-0.367980	-1.247057
H86	H	1.695961	-0.244415	-1.266362
H87	H	1.781954	-0.331119	-1.266431
H88	H	1.701573	-0.325439	-1.357447
C89	C	1.708675	-1.112500	-0.449380
C90	C	1.746488	-1.170003	-0.363558
C91	C	1.847089	-1.207887	-0.386145
H92	H	1.754127	-1.054614	-0.463087
H93	H	1.705809	-1.157098	-0.509209
H94	H	1.749360	-1.125407	-0.303747
H95	H	1.701065	-1.227903	-0.349838
H96	H	1.844223	-1.252485	-0.445974
H97	H	1.892532	-1.149995	-0.399852
H98	H	1.872754	-1.246915	-0.327922
H99	H	1.385222	-0.919589	-0.393875
C100	C	1.658654	-0.369165	-0.892132
C101	C	1.644269	-0.383728	-0.784294
C102	C	1.711428	-0.316068	-0.729245
H103	H	1.643364	-0.297889	-0.910001
H104	H	1.729269	-0.384682	-0.910061
H105	H	1.573671	-0.368203	-0.766373
H106	H	1.659567	-0.454989	-0.766394
H107	H	1.782042	-0.331585	-0.747174
H108	H	1.696132	-0.244797	-0.747123
H109	H	1.701684	-0.325947	-0.656072
C110	C	1.133379	-0.368880	-0.366442
C111	C	1.196390	-0.300985	-0.426044
C112	C	1.251297	-0.232948	-0.359154
H113	H	1.176239	-0.409251	-0.320571
H114	H	1.085014	-0.328396	-0.326519
H115	H	1.244749	-0.341466	-0.465950
H116	H	1.153556	-0.260591	-0.471913
H117	H	1.202932	-0.192463	-0.319230
H118	H	1.294151	-0.273327	-0.313286
H119	H	1.294049	-0.186867	-0.399584
H120	H	1.580932	-0.918848	-0.342907
C121	C	1.709612	-0.909767	-0.449914
C122	C	1.779428	-0.947163	-0.373814
C123	C	1.880675	-0.911202	-0.396723
H124	H	1.710315	-0.834653	-0.450104
H125	H	1.730238	-0.935140	-0.516887
H126	H	1.758808	-0.921785	-0.306858
H127	H	1.778758	-1.022274	-0.373612
H128	H	1.901301	-0.936574	-0.463696
H129	H	1.881367	-0.836088	-0.396913
H130	H	1.928059	-0.936577	-0.345098
H131	H	1.491300	-0.919075	-0.679196
C132	C	1.474068	-1.110329	-0.700285
C133	C	1.506396	-1.072881	-0.798396
C134	C	1.437323	-1.109262	-0.875627
H135	H	1.405404	-1.085290	-0.685753
H136	H	1.473963	-1.185459	-0.700666
H137	H	1.506491	-0.997767	-0.798013
H138	H	1.575050	-1.097917	-0.812961
H139	H	1.437217	-1.184392	-0.876007
H140	H	1.368662	-1.084220	-0.861084
H141	H	1.459253	-1.083867	-0.942204
C142	C	1.655665	-0.907392	-0.649566
C143	C	1.723435	-0.992997	-0.665285
C144	C	1.822203	-0.955428	-0.695372
H145	H	1.682971	-0.863023	-0.596087
H146	H	1.649386	-0.868218	-0.712810
H147	H	1.729717	-1.032154	-0.602049
H148	H	1.696163	-1.037375	-0.718768
H149	H	1.815924	-0.916254	-0.758616
H150	H	1.849500	-0.911059	-0.641889
H151	H	1.868195	-1.013505	-0.706051
H152	H	1.380025	-1.102199	-0.398510
H153	H	1.344307	-0.917962	-0.530323
