data_functionalizedCrystal
_audit_creation_method	'MofGen! by Chris Wilmer'
_symmetry_space_group_name_H-M	'P1'
_symmetry_Int_Tables_number	1
_symmetry_cell_setting	triclinic
loop_
_symmetry_equiv_pos_as_xyz
  x,y,z
_cell_length_a	12.645330
_cell_length_b	12.645331
_cell_length_c	16.120297
_cell_angle_alpha	87.113238
_cell_angle_beta	92.876762
_cell_angle_gamma	89.984155
loop_
_atom_site_label
_atom_site_type_symbol
_atom_site_fract_x
_atom_site_fract_y
_atom_site_fract_z
Zn1	Zn	-0.452501	-1.590322	-0.471228
Zn2	Zn	-0.620790	-1.599199	-0.331827
Zn3	Zn	-0.443537	-1.422031	-0.331851
Zn4	Zn	-0.629716	-1.413019	-0.471214
O5	O	-0.536636	-1.506143	-0.401530
O6	O	-0.474841	-1.739847	-0.452732
O7	O	-0.589791	-1.583184	-0.215166
O8	O	-0.296380	-1.444411	-0.350356
O9	O	-0.598482	-1.746369	-0.350314
O10	O	-0.302966	-1.568054	-0.452756
O11	O	-0.459564	-1.453019	-0.215184
O12	O	-0.468219	-1.272488	-0.350342
O13	O	-0.613695	-1.429052	-0.587880
O14	O	-0.605003	-1.265867	-0.452732
O15	O	-0.483495	-1.559316	-0.587891
O16	O	-0.770321	-1.574446	-0.350301
O17	O	-0.776878	-1.437660	-0.452708
C18	C	-0.536608	-1.230713	-0.401539
C19	C	-0.536622	-1.112881	-0.401562
C20	C	-0.812065	-1.506066	-0.401518
C21	C	-0.929897	-1.506129	-0.401541
C22	C	-0.623098	-0.941209	-0.465643
C23	C	-0.622851	-1.063752	-0.465908
C24	C	-0.426516	-1.066854	-0.425566
C25	C	-0.427045	-0.944227	-0.426020
C26	C	-0.559334	-0.951332	-0.313282
C27	C	-0.561808	-1.073908	-0.313756
C28	C	-1.101643	-1.420402	-0.466164
C29	C	-0.979070	-1.419998	-0.465957
C30	C	-0.968819	-1.481553	-0.313684
C31	C	-1.091442	-1.481030	-0.314076
C32	C	-1.098443	-1.616976	-0.424063
C33	C	-0.975960	-1.616164	-0.425984
C34	C	-0.260133	-1.506247	-0.401560
C35	C	-0.142304	-1.506292	-0.401573
C36	C	-0.550591	-1.492188	-0.618981
C37	C	-0.556537	-1.486242	-0.711646
C38	C	-0.536661	-0.782648	-0.401528
C39	C	-0.536661	-0.900477	-0.401542
C40	C	-0.567370	-1.475346	-0.881305
C41	C	-0.505584	-1.537148	-0.922607
C42	C	-0.511612	-1.531086	-1.017011
C43	C	-0.561344	-1.481407	-0.786892
C44	C	-0.522660	-1.520104	-0.184925
C45	C	-0.516414	-1.526256	-0.092261
H46	H	-0.704679	-1.094795	-0.450865
H47	H	-0.448160	-1.594611	-0.887067
H48	H	-0.942496	-1.683073	-0.382364
H49	H	-0.950984	-1.634801	-0.490643
H50	H	-0.624790	-1.417888	-0.916843
H51	H	-1.133353	-1.640502	-0.487039
C52	C	-0.671214	-1.114785	-0.289288
H53	H	-0.701424	-1.155437	-0.332397
H54	H	-0.716141	-1.056405	-0.281087
H55	H	-0.663563	-1.157766	-0.239285
C56	C	-0.337480	-1.110128	-0.364459
H57	H	-0.271611	-1.081278	-0.380115
H58	H	-0.334912	-1.185103	-0.365739
H59	H	-0.350986	-1.090673	-0.309816
H60	H	-0.953122	-1.434717	-0.531103
H61	H	-0.637955	-0.921818	-0.291466
H62	H	-0.936953	-1.401687	-0.294285
C63	C	-0.734025	-0.902658	-0.445557
H64	H	-0.728622	-0.861370	-0.397902
H65	H	-0.778236	-0.962000	-0.434840
H66	H	-0.763648	-0.860793	-0.491539
H67	H	-0.608762	-0.906222	-0.530660
H68	H	-0.407147	-0.911488	-0.490541
C69	C	-0.603177	-1.097707	-0.554247
H70	H	-0.595293	-1.036574	-0.590110
H71	H	-0.661558	-1.138138	-0.574156
H72	H	-0.540518	-1.139344	-0.552976
C73	C	-1.147204	-1.439930	-0.554442
H74	H	-1.191423	-1.500646	-0.552703
H75	H	-1.090868	-1.451131	-0.589856
H76	H	-1.187492	-1.380034	-0.575220
C77	C	-1.133394	-1.703310	-0.360456
H78	H	-1.174530	-1.672114	-0.320392
H79	H	-1.072627	-1.736287	-0.333406
H80	H	-1.174579	-1.754773	-0.388311
H81	H	-0.360653	-0.917420	-0.381472
H82	H	-0.406135	-1.093460	-0.489387
H83	H	-0.496304	-0.925397	-0.265521
C84	C	-0.482315	-1.119642	-0.245770
H85	H	-0.432498	-1.163292	-0.270155
H86	H	-0.519141	-1.160517	-0.205487
H87	H	-0.446241	-1.063323	-0.219734
H88	H	-1.131592	-1.338738	-0.451456
H89	H	-1.118901	-1.400287	-0.295022
C90	C	-0.938265	-1.308999	-0.445818
H91	H	-0.996622	-1.263981	-0.437725
H92	H	-0.899434	-1.280633	-0.490679
H93	H	-0.893576	-1.313904	-0.396608
C94	C	-1.127175	-1.562268	-0.246837
H95	H	-1.066754	-1.595438	-0.219398
H96	H	-1.170477	-1.614263	-0.272070
H97	H	-1.166324	-1.527204	-0.207545
C98	C	-0.925116	-1.563712	-0.246889
H99	H	-0.882639	-1.613849	-0.272050
H100	H	-0.982327	-1.599066	-0.221489
H101	H	-0.883400	-1.528904	-0.205926
