data_functionalizedCrystal
_audit_creation_method	'MofGen! by Chris Wilmer'
_symmetry_space_group_name_H-M	'P1'
_symmetry_Int_Tables_number	1
_symmetry_cell_setting	triclinic
loop_
_symmetry_equiv_pos_as_xyz
  x,y,z
_cell_length_a	10.654556
_cell_length_b	14.519731
_cell_length_c	9.730223
_cell_angle_alpha	89.997677
_cell_angle_beta	89.999363
_cell_angle_gamma	84.088131
loop_
_atom_site_label
_atom_site_type_symbol
_atom_site_fract_x
_atom_site_fract_y
_atom_site_fract_z
O1	O	1.666597	0.129554	-0.114307
O2	O	2.166597	0.629554	0.385693
O3	O	1.301002	0.141889	-0.114307
O4	O	1.801002	0.641889	0.385693
O5	O	1.493479	0.001535	-0.114295
O6	O	1.993479	0.501535	0.385705
O7	O	1.474121	0.269908	-0.114320
O8	O	1.974121	0.769908	0.385680
O9	O	1.493477	0.001538	0.114285
O10	O	1.993477	0.501538	0.614285
O11	O	1.301000	0.141892	0.114273
O12	O	1.801000	0.641892	0.614273
O13	O	1.666595	0.129557	0.114273
O14	O	2.166595	0.629557	0.614273
Zn15	Zn	1.483797	0.135725	0.150565
Zn16	Zn	1.983797	0.635725	0.650565
Zn17	Zn	1.483800	0.135721	-0.150599
Zn18	Zn	1.983800	0.635721	0.349401
O19	O	1.474118	0.269912	0.114260
O20	O	1.974118	0.769912	0.614260
C21	C	1.254212	0.140984	-0.000017
C22	C	1.754212	0.640984	0.499983
C23	C	1.114795	0.138271	-0.000017
C24	C	1.614795	0.638271	0.499983
C25	C	1.492571	-0.032828	-0.000004
C26	C	1.992571	0.467172	0.499996
C27	C	1.489853	-0.135222	-0.000004
C28	C	1.989853	0.364778	0.499996
C29	C	0.918302	0.134450	-0.124627
C30	C	1.418302	0.634450	0.375373
C31	C	1.049301	0.136994	-0.124621
C32	C	1.549301	0.636994	0.375379
C33	C	1.049286	0.136993	0.124590
C34	C	1.549286	0.636993	0.624590
C35	C	0.918292	0.134442	0.124582
C36	C	1.418292	0.634442	0.624582
C37	C	0.918311	0.134455	-0.268506
C38	C	1.418311	0.634455	0.231494
C39	C	1.049309	0.136999	-0.268501
C40	C	1.549309	0.636999	0.231499
C41	C	1.487644	-0.218378	-0.000007
C42	C	1.987644	0.281622	0.499993
C43	C	1.484885	-0.322701	-0.000017
C44	C	1.984885	0.177299	0.499983
C45	C	1.482694	-0.405851	-0.000026
C46	C	1.982694	0.094149	0.499974
C47	C	1.479935	-0.510181	-0.000034
C48	C	1.979935	-0.010181	0.499966
C49	C	1.713385	0.130462	-0.000020
C50	C	2.213385	0.630462	0.499980
C51	C	1.852802	0.133176	-0.000030
C52	C	2.352802	0.633176	0.499970
C53	C	1.475027	0.304274	-0.000033
C54	C	1.975027	0.804274	0.499967
C55	C	1.477745	0.406668	-0.000043
C56	C	1.977745	0.906668	0.499957
N57	N	1.483804	0.135728	0.356101
N58	N	1.983804	0.635728	0.856101
N59	N	1.483803	0.135711	-0.356136
N60	N	1.983803	0.635711	0.143864
C61	C	1.569055	0.073600	0.428033
C62	C	2.069055	0.573600	0.928033
C63	C	1.569052	0.073589	0.571916
C64	C	2.069052	0.573589	1.071916
C65	C	1.398543	0.197841	0.571923
C66	C	1.898543	0.697841	1.071923
C67	C	1.398542	0.197847	0.428042
C68	C	1.898542	0.697847	0.928042
C69	C	1.667500	0.001867	0.428030
C70	C	2.167500	0.501867	0.928030
C71	C	1.667497	0.001856	0.571913
C72	C	2.167497	0.501856	1.071913
H73	H	0.864970	0.133386	0.226041
H74	H	1.364970	0.633386	0.726041
H75	H	1.101641	0.071317	-0.313141
H76	H	1.601641	0.571317	0.186859
H77	H	1.073523	0.202119	-0.323735
H78	H	1.573523	0.702119	0.176265
H79	H	1.329113	0.248429	0.369477
H80	H	1.829113	0.748429	0.869477
H81	H	1.329124	0.248417	0.630513
H82	H	1.829124	0.748417	1.130513
H83	H	0.865981	0.200134	-0.313157
H84	H	1.365981	0.700134	0.186843
H85	H	1.758470	0.024330	0.383401
H86	H	2.258470	0.524330	0.883401
H87	H	0.894107	0.069340	-0.323749
H88	H	1.394107	0.569340	0.176251
F89	F	1.793447	0.022504	0.622959
F90	F	2.293447	0.522504	1.122959
H91	H	1.637621	-0.065130	0.616534
H92	H	2.137621	0.434870	1.116534
H93	H	1.102624	0.138024	0.226044
H94	H	1.602624	0.638024	0.726044
F95	F	1.640354	-0.090782	0.376985
F96	F	2.140354	0.409218	0.876985
