data_functionalizedCrystal
_audit_creation_method	'MofGen! by Chris Wilmer'
_symmetry_space_group_name_H-M	'P1'
_symmetry_Int_Tables_number	1
_symmetry_cell_setting	triclinic
loop_
_symmetry_equiv_pos_as_xyz
  x,y,z
_cell_length_a	10.654545
_cell_length_b	9.065215
_cell_length_c	9.730223
_cell_angle_alpha	89.996553
_cell_angle_beta	89.997167
_cell_angle_gamma	84.748888
loop_
_atom_site_label
_atom_site_type_symbol
_atom_site_fract_x
_atom_site_fract_y
_atom_site_fract_z
O1	O	1.668661	0.207203	-0.114273
O2	O	1.303260	0.226954	-0.114279
O3	O	1.493515	0.002394	-0.114270
O4	O	1.478406	0.431763	-0.114282
O5	O	1.493503	0.002388	0.114310
O6	O	1.303248	0.226948	0.114301
O7	O	1.668649	0.207197	0.114307
Zn8	Zn	1.485946	0.217071	0.150596
Zn9	Zn	1.485963	0.217080	-0.150568
O10	O	1.478394	0.431757	0.114298
C11	C	1.256450	0.225502	0.000011
C12	C	1.116989	0.221167	0.000009
C13	C	1.051470	0.219124	0.124608
C14	C	0.920434	0.215026	0.124609
C15	C	0.920448	0.215023	-0.124602
C16	C	1.051483	0.219110	-0.124601
C17	C	1.492058	-0.052587	0.000019
C18	C	1.487718	-0.216407	0.000014
C19	C	1.715459	0.208649	0.000014
C20	C	1.854919	0.212984	0.000007
C21	C	1.479851	0.486738	0.000006
C22	C	1.484190	0.650558	0.000002
N23	N	1.485944	0.217065	0.356132
N24	N	1.485974	0.217074	-0.356104
C25	C	1.570219	0.117672	0.428062
C26	C	1.570231	0.117673	0.571945
C27	C	1.401691	0.316472	0.571956
C28	C	1.401673	0.316463	0.428076
H29	H	0.867097	0.213349	-0.226054
H30	H	1.638835	0.036734	0.369489
O31	O	1.661142	0.010490	0.649532
H32	H	1.719743	-0.058611	0.575328
O33	O	1.122152	0.221311	-0.259005
H34	H	1.191898	0.122775	-0.264958
O35	O	1.310824	0.423694	0.649561
H36	H	1.252215	0.492802	0.575366
O37	O	0.849761	0.212836	0.258997
H38	H	0.917329	0.214966	0.345639
O39	O	1.310778	0.423674	0.350478
H40	H	1.252196	0.492810	0.424673
H41	H	1.104802	0.220799	0.226073
