data_functionalizedCrystal
_audit_creation_method	'MofGen! by Chris Wilmer'
_symmetry_space_group_name_H-M	'P1'
_symmetry_Int_Tables_number	1
_symmetry_cell_setting	triclinic
loop_
_symmetry_equiv_pos_as_xyz
  x,y,z
_cell_length_a	16.625548
_cell_length_b	19.805405
_cell_length_c	19.805399
_cell_angle_alpha	90.029301
_cell_angle_beta	89.981391
_cell_angle_gamma	89.972522
loop_
_atom_site_label
_atom_site_type_symbol
_atom_site_fract_x
_atom_site_fract_y
_atom_site_fract_z
Zn1	Zn	1.232643	0.269460	-0.382694
Zn2	Zn	1.565976	0.602793	-0.049361
Zn3	Zn	1.899309	0.936126	0.283973
Zn4	Zn	1.232541	0.382648	-0.269502
Zn5	Zn	1.565875	0.715981	0.063831
Zn6	Zn	1.899208	1.049315	0.397164
Zn7	Zn	1.097809	0.269480	-0.269521
Zn8	Zn	1.431143	0.602814	0.063813
Zn9	Zn	1.764476	0.936147	0.397146
Zn10	Zn	1.097766	0.382614	-0.382651
Zn11	Zn	1.431099	0.715947	-0.049318
Zn12	Zn	1.764432	1.049281	0.284016
O13	O	1.165190	0.326051	-0.326092
O14	O	1.498523	0.659384	0.007241
O15	O	1.831856	0.992717	0.340575
O16	O	1.345462	0.284480	-0.367689
O17	O	1.678795	0.617813	-0.034356
O18	O	2.012128	0.951146	0.298977
O19	O	1.214645	0.367659	-0.174788
O20	O	1.547978	0.700992	0.158545
O21	O	1.881311	1.034326	0.491878
O22	O	1.115756	0.174761	-0.284559
O23	O	1.449089	0.508094	0.048774
O24	O	1.782422	0.841428	0.382108
O25	O	1.345387	0.367639	-0.284528
O26	O	1.678720	0.700972	0.048805
O27	O	2.012054	1.034305	0.382139
O28	O	1.214817	0.174746	-0.367707
O29	O	1.548151	0.508079	-0.034374
O30	O	1.881484	0.841412	0.298960
O31	O	1.115657	0.284515	-0.174802
O32	O	1.448991	0.617848	0.158532
O33	O	1.782324	0.951182	0.491865
O34	O	0.984971	0.284482	-0.284517
O35	O	1.318304	0.617816	0.048816
O36	O	1.651638	0.951149	0.382149
O37	O	1.115682	0.367581	-0.477373
O38	O	1.449015	0.700914	-0.144040
O39	O	1.782348	1.034248	0.189293
O40	O	0.984939	0.367601	-0.367634
O41	O	1.318272	0.700935	-0.034300
O42	O	1.651606	1.034268	0.299033
O43	O	1.214775	0.284447	-0.477405
O44	O	1.548109	0.617780	-0.144072
O45	O	1.881442	0.951114	0.189262
O46	O	1.214602	0.477360	-0.284486
O47	O	1.547936	0.810693	0.048847
O48	O	1.881269	1.144027	0.382180
O49	O	1.115583	0.477335	-0.367616
O50	O	1.448917	0.810669	-0.034283
O51	O	1.782250	1.144002	0.299051
C52	C	0.955699	0.326041	-0.326073
C53	C	1.289032	0.659374	0.007260
C54	C	1.622366	0.992707	0.340593
C55	C	0.866078	0.326053	-0.326081
C56	C	1.199411	0.659386	0.007252
C57	C	1.532744	0.992720	0.340586
C58	C	1.165099	0.501907	-0.326059
C59	C	1.498432	0.835240	0.007274
C60	C	1.831766	1.168573	0.340607
C61	C	1.165134	0.577139	-0.326068
C62	C	1.498467	0.910472	0.007265
C63	C	1.831801	1.243805	0.340599
C64	C	1.165235	0.326008	-0.502635
C65	C	1.498568	0.659341	-0.169302
C66	C	1.831902	0.992675	0.164032
C67	C	1.165254	0.325990	-0.577867
C68	C	1.498588	0.659323	-0.244534
C69	C	1.831921	0.992656	0.088800
C70	C	0.537902	0.326057	-0.326110
C71	C	0.871235	0.659391	0.007223
C72	C	1.204569	0.992724	0.340557
C73	C	0.629211	0.326054	-0.326100
C74	C	0.962544	0.659388	0.007233
C75	C	1.295877	0.992721	0.340567
C76	C	0.701987	0.326056	-0.326095
C77	C	1.035320	0.659389	0.007238
C78	C	1.368654	0.992722	0.340572
C79	C	0.793301	0.326052	-0.326086
C80	C	1.126635	0.659385	0.007247
C81	C	1.459968	0.992718	0.340581
C82	C	1.375499	0.326061	-0.326111
C83	C	1.708832	0.659394	0.007222
C84	C	2.042165	0.992727	0.340555
C85	C	1.465120	0.326065	-0.326120
C86	C	1.798453	0.659398	0.007214
C87	C	2.131786	0.992732	0.340547
C88	C	1.165303	0.149508	-0.326140
C89	C	1.498636	0.482841	0.007194
C90	C	1.831969	0.816174	0.340527
C91	C	1.165351	0.074276	-0.326160
C92	C	1.498684	0.407609	0.007173
C93	C	1.832018	0.740942	0.340507
C94	C	1.216743	0.612473	-0.282828
C95	C	1.550077	0.945806	0.050506
C96	C	1.883410	1.279140	0.383839
C97	C	1.216778	0.683162	-0.282843
C98	C	1.550111	1.016495	0.050491
C99	C	1.883444	1.349828	0.383824
C100	C	1.165198	0.718514	-0.326095
C101	C	1.498531	1.051847	0.007238
C102	C	1.831864	1.385181	0.340572
C103	C	1.113586	0.683174	-0.369340
C104	C	1.446920	1.016508	-0.036007
C105	C	1.780253	1.349841	0.297327
C106	C	1.113557	0.612487	-0.369328
C107	C	1.446890	0.945821	-0.035995
C108	C	1.780223	1.279154	0.297339
C109	C	1.113705	0.968248	-0.369390
C110	C	1.447038	1.301581	-0.036057
C111	C	1.780372	1.634914	0.297276
C112	C	1.113737	1.038940	-0.369398
C113	C	1.447070	1.372273	-0.036064
C114	C	1.780404	1.705606	0.297269
C115	C	1.216926	1.038922	-0.282905
C116	C	1.550259	1.372255	0.050429
C117	C	1.883593	1.705589	0.383762
C118	C	1.216896	0.968235	-0.282893
C119	C	1.550230	1.301568	0.050441
C120	C	1.883563	1.634901	0.383774
C121	C	1.165288	0.932901	-0.326140
C122	C	1.498622	1.266235	0.007193
C123	C	1.831955	1.599568	0.340527
C124	C	1.165253	0.856253	-0.326124
C125	C	1.498586	1.189586	0.007209
C126	C	1.831919	1.522920	0.340542
C127	C	1.165229	0.795161	-0.326108
C128	C	1.498562	1.128495	0.007225
C129	C	1.831895	1.461828	0.340559
C130	C	1.216853	0.282700	-0.613229
C131	C	1.550187	0.616033	-0.279895
C132	C	1.883520	0.949366	0.053438
C133	C	1.216862	0.282680	-0.683917
C134	C	1.550195	0.616013	-0.350584
C135	C	1.883528	0.949347	-0.017250
C136	C	1.165274	0.325954	-0.719243
C137	C	1.498608	0.659288	-0.385909
C138	C	1.831941	0.992621	-0.052576
C139	C	1.113669	0.369246	-0.683876
C140	C	1.447003	0.702580	-0.350543
C141	C	1.780336	1.035913	-0.017209
C142	C	1.113658	0.369262	-0.613189
C143	C	1.446991	0.702595	-0.279855
C144	C	1.780324	1.035929	0.053478
C145	C	1.113715	0.369183	-0.968949
C146	C	1.447048	0.702517	-0.635616
C147	C	1.780382	1.035850	-0.302283
C148	C	1.113732	0.369166	-1.039642
C149	C	1.447066	0.702499	-0.706308
C150	C	1.780399	1.035832	-0.372975
C151	C	1.216919	0.282601	-1.039678
C152	C	1.550252	0.615934	-0.706344
C153	C	1.883586	0.949268	-0.373011
C154	C	1.216907	0.282617	-0.968991
C155	C	1.550241	0.615950	-0.635657
C156	C	1.883574	0.949284	-0.302324
C157	C	1.165300	0.325906	-0.933630
C158	C	1.498633	0.659239	-0.600297
C159	C	1.831966	0.992573	-0.266963
C160	C	1.165290	0.325926	-0.856982
C161	C	1.498624	0.659259	-0.523648
C162	C	1.831957	0.992593	-0.190315
C163	C	1.165287	0.325938	-0.795890
C164	C	1.498621	0.659272	-0.462556
C165	C	1.831954	0.992605	-0.129223
C166	C	1.165191	0.326044	-0.150236
C167	C	1.498524	0.659377	0.183097
C168	C	1.831858	0.992711	0.516431
C169	C	1.165328	0.325872	-0.075005
C170	C	1.498661	0.659205	0.258329
C171	C	1.831995	0.992538	0.591662
H172	H	1.258742	0.583694	-0.247604
H173	H	1.592075	0.917027	0.085730
H174	H	1.925408	1.250360	0.419063
Cl175	Cl	1.048837	0.423605	-0.924505
Cl176	Cl	1.382171	0.756938	-0.591172
Cl177	Cl	1.715504	1.090271	-0.257839
Cl178	Cl	1.281663	0.727579	-0.228483
Cl179	Cl	1.614997	1.060913	0.104851
Cl180	Cl	1.948330	1.394246	0.438184
Cl181	Cl	1.048747	0.727618	-0.423719
Cl182	Cl	1.382081	1.060951	-0.090386
Cl183	Cl	1.715414	1.394284	0.242948
H184	H	1.258895	0.939453	-0.247670
H185	H	1.592228	1.272786	0.085663
H186	H	1.925561	1.606120	0.418996
H187	H	1.258951	1.067699	-0.247693
H188	H	1.592284	1.401032	0.085640
H189	H	1.925618	1.734366	0.418973
Cl190	Cl	1.048874	0.423571	-1.084050
Cl191	Cl	1.382207	0.756905	-0.750717
Cl192	Cl	1.715540	1.090238	-0.417383
Cl193	Cl	1.048785	0.423684	-0.568734
Cl194	Cl	1.382118	0.757018	-0.235400
Cl195	Cl	1.715451	1.090351	0.097933
H196	H	1.258938	0.247351	-1.068477
H197	H	1.592271	0.580684	-0.735143
H198	H	1.925604	0.914017	-0.401810
H199	H	1.071736	1.067722	-0.404624
H200	H	1.405069	1.401055	-0.071291
H201	H	1.738402	1.734389	0.262043
Cl202	Cl	1.048825	0.923838	-0.423757
Cl203	Cl	1.382158	1.257171	-0.090424
Cl204	Cl	1.715491	1.590504	0.242909
Cl205	Cl	1.048676	0.568066	-0.423692
Cl206	Cl	1.382010	0.901400	-0.090359
Cl207	Cl	1.715343	1.234733	0.242975
H208	H	1.258881	0.247430	-0.712705
H209	H	1.592214	0.580764	-0.379372
H210	H	1.925548	0.914097	-0.046039
H211	H	1.258865	0.247463	-0.584472
H212	H	1.592198	0.580796	-0.251138
H213	H	1.925531	0.914129	0.082195
H214	H	1.258918	0.247381	-0.940232
H215	H	1.592251	0.580714	-0.606899
H216	H	1.925584	0.914047	-0.273565
Cl217	Cl	1.048813	0.423646	-0.728285
Cl218	Cl	1.382147	0.756980	-0.394952
Cl219	Cl	1.715480	1.090313	-0.061619
