data_functionalizedCrystal
_audit_creation_method	'MofGen! by Chris Wilmer'
_symmetry_space_group_name_H-M	'P1'
_symmetry_Int_Tables_number	1
_symmetry_cell_setting	triclinic
loop_
_symmetry_equiv_pos_as_xyz
  x,y,z
_cell_length_a	14.044220
_cell_length_b	19.288840
_cell_length_c	18.366186
_cell_angle_alpha	90.016305
_cell_angle_beta	90.005656
_cell_angle_gamma	88.157446
loop_
_atom_site_label
_atom_site_type_symbol
_atom_site_fract_x
_atom_site_fract_y
_atom_site_fract_z
O1	O	0.118099	0.928952	0.060674
O2	O	0.618099	1.428952	0.560674
O3	O	0.134070	0.727715	0.060649
O4	O	0.634070	1.227715	0.560649
O5	O	-0.011887	0.825313	0.060654
O6	O	0.488113	1.325313	0.560654
O7	O	0.264056	0.831354	0.060669
O8	O	0.764056	1.331354	0.560669
O9	O	-0.011891	0.825294	-0.060445
O10	O	0.488109	1.325294	0.439555
O11	O	0.134066	0.727697	-0.060450
O12	O	0.634066	1.227697	0.439550
O13	O	0.118095	0.928933	-0.060425
O14	O	0.618095	1.428933	0.439575
Zn15	Zn	0.126080	0.828312	-0.079665
Zn16	Zn	0.626080	1.328312	0.420335
Zn17	Zn	0.126085	0.828337	0.079889
Zn18	Zn	0.626085	1.328337	0.579889
O19	O	0.264052	0.831336	-0.060430
O20	O	0.764052	1.331336	0.439570
C21	C	0.133559	0.701796	0.000096
C22	C	0.633559	1.201796	0.500096
C23	C	0.132028	0.624594	0.000087
C24	C	0.632028	1.124594	0.500087
C25	C	-0.047191	0.822659	0.000104
C26	C	0.452809	1.322659	0.500104
C27	C	-0.152383	0.814772	0.000102
C28	C	0.347617	1.314772	0.500102
C29	C	0.131295	0.588353	0.066100
C30	C	0.631295	1.088353	0.566100
C31	C	0.129846	0.515813	0.066109
C32	C	0.629846	1.015813	0.566109
C33	C	0.129111	0.479517	0.000101
C34	C	0.629111	0.979517	0.500101
C35	C	0.129850	0.515766	-0.065921
C36	C	0.629850	1.015766	0.434079
C37	C	0.131308	0.588304	-0.065928
C38	C	0.631308	1.088304	0.434072
C39	C	0.071294	0.366467	-0.050464
C40	C	0.571294	0.866467	0.449536
C41	C	0.069829	0.293930	-0.050454
C42	C	0.569829	0.793930	0.449546
C43	C	0.124617	0.255785	0.000119
C44	C	0.624617	0.755785	0.500119
C45	C	0.180856	0.290185	0.050695
C46	C	0.680856	0.790185	0.550695
C47	C	0.182315	0.362724	0.050688
C48	C	0.682315	0.862724	0.550688
C49	C	0.127530	0.400861	0.000101
C50	C	0.627530	0.900861	0.500101
C51	C	0.122314	0.140888	0.066147
C52	C	0.622314	0.640888	0.566147
C53	C	0.120871	0.068346	0.066153
C54	C	0.620871	0.568346	0.566153
C55	C	0.120865	0.068301	-0.065879
C56	C	0.620865	0.568301	0.434121
C57	C	0.122318	0.140841	-0.065883
C58	C	0.622318	0.640841	0.434117
C59	C	0.123037	0.177130	0.000132
C60	C	0.623037	0.677130	0.500132
C61	C	-0.344981	0.800351	0.000111
C62	C	0.155019	1.300351	0.500111
C63	C	-0.402860	0.856295	0.000120
C64	C	0.097140	1.356295	0.500120
C65	C	-0.510028	0.848271	0.000125
C66	C	-0.010028	1.348271	0.500125
C67	C	-0.237802	0.808374	0.000106
C68	C	0.262198	1.308374	0.500106
C69	C	0.299357	0.833989	0.000122
C70	C	0.799357	1.333989	0.500122
C71	C	0.404548	0.841877	0.000129
C72	C	0.904548	1.341877	0.500129
C73	C	0.118607	0.954852	0.000129
C74	C	0.618607	1.454852	0.500129
C75	C	0.120138	1.032055	0.000144
C76	C	0.620138	1.532055	0.500144
N77	N	0.126076	0.828300	-0.188556
N78	N	0.626076	1.328300	0.311444
C79	C	0.183403	0.873972	-0.226641
C80	C	0.683403	1.373972	0.273359
C81	C	0.183401	0.873983	-0.302869
C82	C	0.683401	1.373983	0.197131
C83	C	0.126082	0.828310	-0.341009
C84	C	0.626082	1.328310	0.158991
C85	C	0.068743	0.782635	-0.302914
C86	C	0.568743	1.282635	0.197086
C87	C	0.068740	0.782630	-0.226687
C88	C	0.568740	1.282630	0.273313
C89	C	0.123692	0.765544	-0.461798
C90	C	0.623692	1.265544	0.038202
C91	C	0.123702	0.765548	-0.538022
C92	C	0.623702	1.265548	-0.038022
C93	C	0.126085	0.828326	-0.576116
C94	C	0.626085	1.328326	-0.076116
C95	C	0.128478	0.891102	-0.537975
C96	C	0.628478	1.391102	-0.037975
C97	C	0.128475	0.891097	-0.461749
C98	C	0.628475	1.391097	0.038251
C99	C	0.126078	0.828311	-0.423663
C100	C	0.626078	1.328311	0.076337
C101	C	0.183412	0.874014	-0.696856
C102	C	0.683412	1.374014	-0.196856
C103	C	0.183403	0.874026	-0.773086
C104	C	0.683403	1.374026	-0.273086
C105	C	0.068750	0.782672	-0.773129
C106	C	0.568750	1.282672	-0.273129
C107	C	0.068754	0.782666	-0.696901
C108	C	0.568754	1.282666	-0.196901
C109	C	0.126090	0.828336	-0.658770
C110	C	0.626090	1.328336	-0.158770
N111	N	0.126082	0.828354	0.188780
N112	N	0.626082	1.328354	0.688780
H113	H	0.131881	0.617895	0.119854
H114	H	0.631881	1.117895	0.619854
Br115	Br	0.128853	0.466618	0.155704
Br116	Br	0.628853	0.966618	0.655704
H117	H	0.120273	0.038749	-0.119624
H118	H	0.620273	0.538749	0.380376
Br119	Br	-0.396537	0.710484	0.000106
Br120	Br	0.103463	1.210484	0.500106
Br121	Br	-0.351306	0.946168	0.000125
Br122	Br	0.148694	1.446168	0.500125
H123	H	0.230087	0.911162	-0.195599
H124	H	0.730087	1.411162	0.304401
H125	H	0.230086	0.911175	-0.333884
H126	H	0.730086	1.411175	0.166116
H127	H	0.130421	0.942212	-0.430698
H128	H	0.630421	1.442212	0.069302
Br129	Br	0.131715	0.976307	-0.589663
Br130	Br	0.631715	1.476307	-0.089663
Br131	Br	0.261202	0.936006	-0.645102
Br132	Br	0.761202	1.436006	-0.145102
Br133	Br	0.261204	0.936019	-0.824775
Br134	Br	0.761204	1.436019	-0.324775
Br135	Br	0.258638	0.409409	0.119321
Br136	Br	0.758638	0.909409	0.619321
Br137	Br	-0.009057	0.720697	-0.824881
Br138	Br	0.490943	1.220697	-0.324881
Br139	Br	-0.009034	0.720668	-0.645210
Br140	Br	0.490966	1.220668	-0.145210
Br141	Br	-0.009064	0.720640	-0.174996
Br142	Br	0.490936	1.220640	0.325004
Br143	Br	0.120469	0.680353	-0.589777
Br144	Br	0.620469	1.180353	-0.089777
Br145	Br	0.120368	0.680342	-0.410107
Br146	Br	0.620368	1.180342	0.089893
Br147	Br	-0.009054	0.720655	-0.354672
Br148	Br	0.490946	1.220655	0.145328
H149	H	0.122910	0.170436	0.119900
H150	H	0.622910	0.670436	0.619900
Br151	Br	0.119888	0.019160	0.155750
Br152	Br	0.619888	0.519160	0.655750
Br153	Br	0.255218	0.238426	0.119335
Br154	Br	0.755218	0.738426	0.619335
H155	H	0.122909	0.170349	-0.119638
H156	H	0.622909	0.670349	0.380362
H157	H	0.129254	0.486209	-0.119665
H158	H	0.629254	0.986209	0.380335
H159	H	0.026677	0.397519	-0.091650
H160	H	0.526677	0.897519	0.408350
Br161	Br	-0.006471	0.247250	-0.119106
Br162	Br	0.493529	0.747250	0.380894
H163	H	0.131906	0.617811	-0.119686
H164	H	0.631906	1.117811	0.380314
