data_functionalizedCrystal
_audit_creation_method	'MofGen! by Chris Wilmer'
_symmetry_space_group_name_H-M	'P1'
_symmetry_Int_Tables_number	1
_symmetry_cell_setting	triclinic
loop_
_symmetry_equiv_pos_as_xyz
  x,y,z
_cell_length_a	14.908520
_cell_length_b	14.908558
_cell_length_c	10.686551
_cell_angle_alpha	97.926721
_cell_angle_beta	90.862058
_cell_angle_gamma	90.204982
loop_
_atom_site_label
_atom_site_type_symbol
_atom_site_fract_x
_atom_site_fract_y
_atom_site_fract_z
Zn1	Zn	-0.393148	1.403651	0.858280
Zn2	Zn	-0.553815	1.383307	0.658589
Zn3	Zn	-0.396040	1.240323	0.634365
Zn4	Zn	-0.534845	1.244494	0.856822
O5	O	-0.469462	1.317944	0.752014
O6	O	-0.421190	1.527399	0.842538
O7	O	-0.542035	1.354081	0.478705
O8	O	-0.270326	1.268757	0.654539
O9	O	-0.539232	1.512453	0.695826
O10	O	-0.268202	1.388753	0.819049
O11	O	-0.426119	1.249031	0.460907
O12	O	-0.407724	1.114429	0.653126
O13	O	-0.506899	1.275866	1.033687
O14	O	-0.509703	1.117494	0.816565
O15	O	-0.402795	1.392797	1.034757
O16	O	-0.676629	1.358125	0.694413
O17	O	-0.662691	1.256140	0.840054
C18	C	-0.456969	1.083175	0.732060
C19	C	-0.451645	0.982741	0.723554
C20	C	-0.390954	0.839573	0.626599
C21	C	-0.395953	0.933940	0.634585
C22	C	-0.502340	0.937168	0.804547
C23	C	-0.497341	0.842801	0.796561
C24	C	-0.441647	0.794007	0.707583
C25	C	-0.436654	0.699637	0.699592
C26	C	-0.543036	0.702867	0.869559
C27	C	-0.548034	0.797234	0.877544
C28	C	-0.702157	1.305404	0.769734
C29	C	-0.801707	1.300124	0.777364
C30	C	-1.003223	1.396527	0.640185
C31	C	-1.096760	1.391570	0.647351
C32	C	-1.082318	1.285256	0.798865
C33	C	-0.988781	1.290214	0.791700
C34	C	-0.949238	1.345850	0.712356
C35	C	-0.855700	1.350803	0.705185
C36	C	-0.841259	1.244495	0.856706
C37	C	-0.934796	1.239537	0.863871
C38	C	-0.235859	1.330559	0.734255
C39	C	-0.136311	1.335935	0.726687
C40	C	-0.452408	1.337066	1.081311
C41	C	-0.445141	1.345215	1.221638
C42	C	-0.482004	1.553629	0.772047
C43	C	-0.487349	1.654064	0.780584
C44	C	-0.486387	1.298951	0.423997
C45	C	-0.493412	1.290991	0.283666
H46	H	-0.547678	0.976913	0.876994
C47	C	-0.382477	1.415382	1.293791
C48	C	-0.294458	1.398666	1.253373
C49	C	-0.236710	1.463291	1.319798
H50	H	-0.385616	1.411780	1.381673
H51	H	-0.399866	1.474165	1.278365
H52	H	-0.277073	1.339898	1.268809
H53	H	-0.291291	1.402276	1.165501
H54	H	-0.254100	1.522074	1.304372
H55	H	-0.239857	1.459684	1.407677
H56	H	-0.176984	1.451963	1.292376
C57	C	-0.608483	0.850371	0.974014
C58	C	-0.602028	0.942765	0.963657
C59	C	-0.657713	0.991738	1.052492
H60	H	-0.590321	0.840656	1.056639
H61	H	-0.668806	0.830639	0.958657
H62	H	-0.541718	0.962490	0.979023
H63	H	-0.620197	0.952507	0.881052
H64	H	-0.718037	0.972007	1.037135
H65	H	-0.639547	0.982016	1.135110
H66	H	-0.653348	1.054432	1.045469
C67	C	-0.782599	1.189631	0.935236
C68	C	-0.727368	1.248290	1.016469
C69	C	-0.673329	1.197781	1.088835
H70	H	-0.746492	1.149406	0.880896
H71	H	-0.819520	1.155810	0.983585
H72	H	-0.690451	1.282096	0.968124
H73	H	-0.763452	1.288515	1.070835
H74	H	-0.710250	1.163960	1.137183
H75	H	-0.637227	1.157558	1.034484
H76	H	-0.635854	1.237574	1.143967
C77	C	-0.376101	0.646824	0.602952
C78	C	-0.332756	0.706935	0.533766
C79	C	-0.276955	0.658321	0.444743
H80	H	-0.411106	0.604960	0.547231
H81	H	-0.332630	0.614944	0.645227
H82	H	-0.376221	0.738800	0.491493
H83	H	-0.297734	0.748800	0.589453
H84	H	-0.233485	0.626441	0.487018
H85	H	-0.311967	0.616459	0.389030
H86	H	-0.247533	0.699099	0.397797
C87	C	-0.341038	0.983349	0.546448
C88	C	-0.365676	0.952089	0.421023
C89	C	-0.315115	0.997592	0.339793
H90	H	-0.279077	0.972232	0.559003
H91	H	-0.352004	1.046542	0.563860
H92	H	-0.354704	0.888911	0.403616
H93	H	-0.427629	0.963207	0.408427
H94	H	-0.326080	1.060786	0.357206
H95	H	-0.253156	0.986472	0.352360
H96	H	-0.331830	0.976395	0.254685
C97	C	-0.597974	0.653233	0.957423
C98	C	-0.581665	0.560148	0.931408
C99	C	-0.632250	0.514398	1.012328
H100	H	-0.659939	0.664279	0.944772
H101	H	-0.581372	0.674288	1.042622
H102	H	-0.598273	0.539099	0.846230
H103	H	-0.519710	0.549075	0.944067
H104	H	-0.615648	0.535453	1.097527
H105	H	-0.694212	0.525451	0.999670
H106	H	-0.621185	0.451236	0.994696
C107	C	-0.812933	1.411293	0.619016
C108	C	-0.880236	1.454631	0.557373
C109	C	-0.840876	1.510373	0.477998
H110	H	-0.777513	1.375592	0.558133
H111	H	-0.776007	1.455423	0.667881
H112	H	-0.917146	1.410507	0.508511
H113	H	-0.915660	1.490348	0.618225
H114	H	-0.803950	1.554503	0.526863
H115	H	-0.805457	1.474665	0.417122
H116	H	-0.886535	1.539790	0.436172
C117	C	-0.555870	1.220643	1.211491
C118	C	-0.529993	1.134129	1.234417
C119	C	-0.587520	1.069304	1.167959
H120	H	-0.552666	1.224185	1.123599
H121	H	-0.615655	1.231807	1.238770
H122	H	-0.470224	1.122968	1.207131
H123	H	-0.533202	1.130557	1.322296
H124	H	-0.647305	1.080468	1.195238
H125	H	-0.584311	1.072854	1.080071
H126	H	-0.569976	1.010597	1.183514
H127	H	-0.345608	0.799844	0.554148
H128	H	-0.971027	1.441822	0.575571
H129	H	-1.114531	1.239966	0.863472
C130	C	-1.155246	1.446762	0.569067
C131	C	-1.135688	1.538953	0.602514
C132	C	-1.189531	1.589834	0.530414
H133	H	-1.216646	1.435976	0.584612
H134	H	-1.143621	1.429534	0.481916
H135	H	-1.147320	1.556175	0.689645
H136	H	-1.074298	1.549767	0.586965
H137	H	-1.177906	1.572605	0.443263
H138	H	-1.250929	1.579040	0.545964
H139	H	-1.176263	1.652390	0.553089
H140	H	-0.967005	1.194242	0.928474
