data_functionalizedCrystal
_audit_creation_method	'MofGen! by Chris Wilmer'
_symmetry_space_group_name_H-M	'P1'
_symmetry_Int_Tables_number	1
_symmetry_cell_setting	triclinic
loop_
_symmetry_equiv_pos_as_xyz
  x,y,z
_cell_length_a	16.992694
_cell_length_b	10.540539
_cell_length_c	16.053802
_cell_angle_alpha	92.593658
_cell_angle_beta	87.249047
_cell_angle_gamma	87.596857
loop_
_atom_site_label
_atom_site_type_symbol
_atom_site_fract_x
_atom_site_fract_y
_atom_site_fract_z
O1	O	1.045174	0.264306	-0.069318
O2	O	0.816873	0.261349	-0.069343
O3	O	0.936232	0.078573	-0.069329
O4	O	0.925815	0.447082	-0.069332
O5	O	0.929662	0.088589	0.069529
O6	O	0.810303	0.271366	0.069516
O7	O	1.038604	0.274322	0.069540
Zn8	Zn	0.923410	0.274434	0.091575
Zn9	Zn	0.932067	0.261237	-0.091377
O10	O	0.919245	0.457098	0.069526
C11	C	0.784355	0.262556	0.000083
C12	C	0.697247	0.251215	0.000074
C13	C	0.647620	0.360635	0.000073
C14	C	0.565773	0.349973	0.000085
C15	C	0.533555	0.229889	0.000091
C16	C	0.583189	0.120461	0.000094
C17	C	0.665034	0.131125	0.000088
C18	C	0.289709	0.185691	0.000114
C19	C	0.207858	0.175036	0.000117
C20	C	0.190447	0.404549	0.000110
C21	C	0.272294	0.415202	0.000099
C22	C	0.321921	0.305774	0.000106
N23	N	0.449895	0.218988	0.000100
N24	N	0.405579	0.316677	0.000103
C25	C	0.932166	0.036210	0.000099
C26	C	0.929829	-0.104941	0.000094
C27	C	0.840283	-0.296162	-0.000227
C28	C	0.842638	-0.149316	0.000086
C29	C	0.968037	-0.157237	0.079393
C30	C	0.965058	-0.304035	0.079460
C31	C	0.974303	-0.315790	-0.078448
C32	C	0.975156	-0.168814	-0.079496
C33	C	1.071123	0.273115	0.000112
C34	C	1.158230	0.284456	0.000117
C35	C	0.923311	0.499461	0.000097
C36	C	0.925649	0.640612	0.000096
N37	N	0.917508	0.283440	0.216434
N38	N	0.937975	0.252222	-0.216237
C39	C	0.968315	0.205700	0.260134
C40	C	0.964193	0.212013	0.347540
C41	C	0.909269	0.296073	0.391245
C42	C	0.858458	0.373817	0.347539
C43	C	0.862576	0.367497	0.260134
C44	C	0.891281	0.323645	0.652653
C45	C	0.887169	0.329962	0.740063
C46	C	0.992904	0.168156	0.740059
C47	C	0.997020	0.161848	0.652652
C48	C	0.946206	0.239587	0.608954
N49	N	0.905057	0.302531	0.480588
N50	N	0.950415	0.233122	0.519612
H51	H	0.298520	0.512986	0.000084
C52	C	0.135856	0.524908	0.000112
H53	H	0.082498	0.501364	0.000124
H54	H	0.147975	0.570318	-0.048310
H55	H	0.143410	0.577293	0.048542
H56	H	0.525369	0.439075	0.000084
C57	C	0.344292	0.065328	0.000109
H58	H	0.397651	0.088870	0.000113
H59	H	0.336738	0.012941	-0.048313
H60	H	0.332170	0.019924	0.048539
C61	C	1.048787	0.082639	0.788128
H62	H	1.038466	0.098431	0.846443
H63	H	1.101898	0.100750	0.773796
H64	H	1.040461	-0.004037	0.773810
C65	C	0.798044	0.466283	0.395612
H66	H	0.802873	0.458925	0.453926
H67	H	0.746283	0.446097	0.381298
H68	H	0.807717	0.550889	0.381276
H69	H	0.705441	0.042023	0.000088
H70	H	0.947229	-0.134851	-0.138159
C71	C	1.061339	-0.129119	-0.085957
H72	H	1.070850	-0.072828	-0.039991
H73	H	1.070630	-0.087583	-0.136566
H74	H	1.095713	-0.202467	-0.085279
C75	C	0.835410	0.409186	0.604591
H76	H	0.845723	0.393387	0.546277
H77	H	0.843742	0.495851	0.618917
H78	H	0.782292	0.391083	0.618919
H79	H	0.931243	-0.330650	0.138731
H80	H	0.808532	-0.331853	-0.057095
H81	H	0.821203	0.430799	0.224555
H82	H	0.181630	0.077244	0.000121
C83	C	0.683055	0.492726	0.000064
H84	H	0.738908	0.483409	0.000053
H85	H	0.663781	0.541625	0.048487
H86	H	0.668347	0.534629	-0.048365
C87	C	1.059410	-0.372266	-0.079168
H88	H	1.065297	-0.422179	-0.031863
H89	H	1.095126	-0.305349	-0.077425
H90	H	1.070304	-0.424142	-0.128655
C91	C	0.801659	-0.101163	-0.076698
H92	H	0.783416	-0.171379	-0.108361
H93	H	0.838056	-0.057163	-0.110246
H94	H	0.758204	-0.045258	-0.058851
C95	C	0.547753	-0.011628	0.000099
H96	H	0.491901	-0.002311	0.000093
H97	H	0.562458	-0.053541	0.048521
H98	H	0.567030	-0.060521	-0.048331
H99	H	0.803306	-0.325268	0.056314
C100	C	0.794096	-0.091248	0.077002
H101	H	0.772865	-0.157418	0.108184
H102	H	0.752329	-0.037764	0.059320
H103	H	0.827156	-0.042753	0.110969
C104	C	1.028731	0.113231	0.212066
H105	H	1.058393	0.067828	0.250614
H106	H	1.063250	0.159792	0.177960
H107	H	1.001815	0.055001	0.177980
H108	H	1.027595	-0.346303	0.083064
C109	C	0.826707	0.422360	0.788138
H110	H	0.797017	0.467725	0.749595
H111	H	0.853575	0.480611	0.822247
H112	H	0.792209	0.375715	0.822221
H113	H	1.031928	-0.129114	0.082349
C114	C	0.924885	-0.097379	0.159107
H115	H	0.883582	-0.040521	0.144231
H116	H	0.961051	-0.052222	0.191195
H117	H	0.903380	-0.162480	0.191064
C118	C	0.940022	-0.367568	-0.159643
H119	H	0.895710	-0.416264	-0.146398
H120	H	0.979038	-0.419772	-0.190601
H121	H	0.924147	-0.298600	-0.192014
H122	H	1.005563	0.148710	0.383120
H123	H	1.041744	0.093400	0.617070
