data_functionalizedCrystal
_audit_creation_method	'MofGen! by Chris Wilmer'
_symmetry_space_group_name_H-M	'P1'
_symmetry_Int_Tables_number	1
_symmetry_cell_setting	triclinic
loop_
_symmetry_equiv_pos_as_xyz
  x,y,z
_cell_length_a	11.792254
_cell_length_b	19.188925
_cell_length_c	10.868271
_cell_angle_alpha	89.995220
_cell_angle_beta	89.995741
_cell_angle_gamma	83.670573
loop_
_atom_site_label
_atom_site_type_symbol
_atom_site_fract_x
_atom_site_fract_y
_atom_site_fract_z
O1	O	1.505464	0.095737	-0.102320
O2	O	2.005464	0.595737	0.397680
O3	O	1.174977	0.105591	-0.102323
O4	O	1.674977	0.605591	0.397677
O5	O	1.349761	-0.000938	-0.102314
O6	O	1.849761	0.499062	0.397686
O7	O	1.330680	0.202266	-0.102328
O8	O	1.830680	0.702266	0.397672
O9	O	1.349746	-0.000942	0.102330
O10	O	1.849746	0.499058	0.602330
O11	O	1.174963	0.105586	0.102322
O12	O	1.674963	0.605586	0.602322
O13	O	1.505450	0.095733	0.102325
O14	O	2.005450	0.595733	0.602325
Zn15	Zn	1.340204	0.100659	0.134815
Zn16	Zn	1.840204	0.600659	0.634815
Zn17	Zn	1.340223	0.100665	-0.134813
Zn18	Zn	1.840223	0.600665	0.365187
O19	O	1.330666	0.202261	0.102316
O20	O	1.830666	0.702261	0.602316
C21	C	1.132688	0.104968	-0.000001
C22	C	1.632688	0.604968	0.499999
C23	C	1.006703	0.103110	-0.000002
C24	C	1.506703	0.603110	0.499998
C25	C	0.904389	0.101601	-0.000007
C26	C	1.404389	0.601601	0.499993
C27	C	0.776031	0.099713	-0.000007
C28	C	1.276031	0.599713	0.499993
C29	C	1.349137	-0.026954	0.000007
C30	C	1.849137	0.473046	0.500007
C31	C	1.347285	-0.104470	0.000005
C32	C	1.847285	0.395530	0.500005
C33	C	1.437443	-0.665727	-0.000026
C34	C	1.937443	-0.165727	0.499974
C35	C	1.439193	-0.592893	-0.000015
C36	C	1.939193	-0.092893	0.499985
C37	C	1.336635	-0.548543	-0.000016
C38	C	1.836635	-0.048543	0.499984
C39	C	1.232320	-0.577031	0.000003
C40	C	1.732320	-0.077031	0.500003
C41	C	1.230573	-0.649863	0.000004
C42	C	1.730573	-0.149863	0.500004
N43	N	1.262393	-0.428283	-0.069672
N44	N	1.762393	0.071717	0.430328
N45	N	1.264059	-0.359097	-0.069676
N46	N	1.764059	0.140903	0.430324
C47	C	1.341892	-0.329104	-0.000017
C48	C	1.841892	0.170896	0.499983
N49	N	1.418013	-0.370912	0.069631
N50	N	1.918013	0.129088	0.569631
N51	N	1.416350	-0.440106	0.069629
N52	N	1.916350	0.059894	0.569629
C53	C	1.338518	-0.469568	-0.000016
C54	C	1.838518	0.030432	0.499984
C55	C	1.448098	-0.221650	-0.000015
C56	C	1.948098	0.278350	0.499985
C57	C	1.449844	-0.148815	0.000004
C58	C	1.949844	0.351185	0.500004
C59	C	1.242968	-0.132954	0.000009
C60	C	1.742968	0.367046	0.500009
C61	C	1.241225	-0.205787	0.000003
C62	C	1.741225	0.294213	0.500003
C63	C	1.343794	-0.250131	-0.000015
C64	C	1.843794	0.249869	0.499985
C65	C	1.547738	0.096356	-0.000000
C66	C	2.047738	0.596356	0.500000
C67	C	1.673723	0.098214	-0.000007
C68	C	2.173723	0.598214	0.499993
C69	C	1.331290	0.228278	-0.000008
C70	C	1.831290	0.728278	0.499992
C71	C	1.333141	0.305793	-0.000014
C72	C	1.833141	0.805793	0.499986
N73	N	1.340199	0.100655	0.318829
N74	N	1.840199	0.600655	0.818829
N75	N	1.340236	0.100663	-0.318827
N76	N	1.840236	0.600663	0.181173
C77	C	1.340217	0.100663	0.569835
C78	C	1.840217	0.600663	1.069835
C79	C	1.340203	0.100661	0.430158
C80	C	1.840203	0.600661	0.930158
H81	H	1.524130	-0.569700	-0.000024
H82	H	2.024130	-0.069700	0.499976
H83	H	1.145636	-0.673049	0.000017
H84	H	1.645636	-0.173049	0.500017
H85	H	1.159464	-0.096844	0.000019
H86	H	1.659464	0.403156	0.500019
N87	N	1.542213	-0.711019	0.000001
N88	N	2.042213	-0.211019	0.500001
N89	N	1.564315	-0.753426	0.086275
N90	N	2.064315	-0.253426	0.586275
H91	H	1.638311	-0.785414	0.086301
H92	H	2.138311	-0.285414	0.586301
H93	H	1.156292	-0.228975	0.000004
H94	H	1.656292	0.271025	0.500004
N95	N	1.127570	-0.531721	0.000013
N96	N	1.627570	-0.031721	0.500013
N97	N	1.129143	-0.466694	0.000011
N98	N	1.629143	0.033306	0.500011
H99	H	1.055160	-0.434693	0.000024
H100	H	1.555160	0.065307	0.500024
H101	H	1.531615	-0.257757	-0.000029
H102	H	2.031615	0.242243	0.499971
N103	N	1.556382	-0.119711	0.000008
N104	N	2.056382	0.380289	0.500008
N105	N	1.580436	-0.080847	0.086274
N106	N	2.080436	0.419153	0.586274
H107	H	1.655681	-0.060290	0.086279
H108	H	2.155681	0.439710	0.586279
