data_functionalizedCrystal
_audit_creation_method	'MofGen! by Chris Wilmer'
_symmetry_space_group_name_H-M	'P1'
_symmetry_Int_Tables_number	1
_symmetry_cell_setting	triclinic
loop_
_symmetry_equiv_pos_as_xyz
  x,y,z
_cell_length_a	16.120530
_cell_length_b	17.077403
_cell_length_c	17.077396
_cell_angle_alpha	89.982408
_cell_angle_beta	92.916610
_cell_angle_gamma	92.903188
loop_
_atom_site_label
_atom_site_type_symbol
_atom_site_fract_x
_atom_site_fract_y
_atom_site_fract_z
Zn1	Zn	-1.274703	-0.373449	-0.504701
Zn2	Zn	-1.274658	-0.504721	-0.373458
Zn3	Zn	-1.135284	-0.366810	-0.366799
Zn4	Zn	-1.135304	-0.498012	-0.498034
O5	O	-1.204987	-0.435748	-0.435748
O6	O	-1.391365	-0.396448	-0.492868
O7	O	-1.256143	-0.486457	-0.262726
O8	O	-1.153788	-0.257845	-0.385095
O9	O	-1.391333	-0.492894	-0.396444
O10	O	-1.256219	-0.262722	-0.486411
O11	O	-1.153745	-0.385134	-0.257834
O12	O	-1.018618	-0.378629	-0.378631
O13	O	-1.153822	-0.481459	-0.608767
O14	O	-1.018633	-0.475022	-0.475049
O15	O	-1.256239	-0.389943	-0.613665
O16	O	-1.256162	-0.613678	-0.389980
O17	O	-1.153779	-0.608748	-0.481506
C18	C	-0.988375	-0.425377	-0.425395
C19	C	-0.895707	-0.420960	-0.420984
C20	C	-1.204991	-0.639696	-0.435760
C21	C	-1.205068	-0.726950	-0.435795
C22	C	-1.422446	-0.446160	-0.446142
C23	C	-1.515113	-0.450597	-0.450572
C24	C	-0.726042	-0.412876	-0.412938
C25	C	-0.684773	-0.458678	-0.458615
C26	C	-0.590366	-0.454180	-0.454138
C27	C	-0.820458	-0.417373	-0.417414
C28	C	-1.205038	-0.435693	-0.640495
C29	C	-1.205059	-0.435669	-0.727746
C30	C	-1.205007	-0.231005	-0.435754
C31	C	-1.205015	-0.143755	-0.435756
C32	C	-1.151692	-0.100225	-0.383010
C33	C	-1.151698	-0.018245	-0.383020
C34	C	-1.205032	0.020203	-0.435774
C35	C	-1.258358	-0.023333	-0.488526
C36	C	-1.258347	-0.105311	-0.488519
C37	C	-1.258379	0.147536	-0.488536
C38	C	-1.258391	0.229520	-0.488542
C39	C	-1.151730	0.234603	-0.383037
C40	C	-1.151719	0.152624	-0.383030
C41	C	-1.205046	0.109094	-0.435781
C42	C	-1.258389	-0.388012	-0.771287
C43	C	-1.258399	-0.387987	-0.853268
C44	C	-1.205083	-0.435622	-0.891706
C45	C	-1.151747	-0.483281	-0.848158
C46	C	-1.151733	-0.483302	-0.766179
C47	C	-1.151780	-0.483235	-1.019030
C48	C	-1.151795	-0.483216	-1.101016
C49	C	-1.258446	-0.387920	-1.106120
C50	C	-1.258433	-0.387941	-1.024140
C51	C	-1.205098	-0.435601	-0.980598
C52	C	-1.204985	-0.435749	-0.231800
C53	C	-1.205125	-0.435559	-0.144557
H54	H	-0.720344	-0.501268	-0.501083
N55	N	-1.315888	0.018134	-0.545420
H56	H	-1.349666	-0.021884	-0.578835
H57	H	-1.281968	0.053784	-0.580128
H58	H	-0.690473	-0.370288	-0.370474
N59	N	-1.094195	0.111148	-0.326138
H60	H	-1.128065	0.075503	-0.291380
H61	H	-1.060421	0.151208	-0.292774
H62	H	-1.108263	-0.131523	-0.340049
N63	N	-1.315865	-0.152256	-0.545413
H64	H	-1.354491	-0.188129	-0.515361
H65	H	-1.281929	-0.184587	-0.580157
H66	H	-1.108278	0.017197	-0.340070
N67	N	-1.094213	0.281547	-0.326137
H68	H	-1.102309	0.339315	-0.334147
H69	H	-1.034671	0.270071	-0.335503
N70	N	-1.315901	-0.336639	-0.729832
H71	H	-1.349685	-0.306444	-0.769859
H72	H	-1.281963	-0.298696	-0.694195
N73	N	-1.315916	0.270992	-0.545437
H74	H	-1.349693	0.230978	-0.578858
H75	H	-1.281990	0.306643	-0.580139
N76	N	-1.315903	-0.336570	-0.900231
H77	H	-1.349675	-0.306395	-0.863441
H78	H	-1.354491	-0.370348	-0.936101
H79	H	-1.301852	-0.349157	-0.992847
N80	N	-1.315890	0.100583	-0.545435
H81	H	-1.349681	0.137377	-0.578854
H82	H	-1.354459	0.064713	-0.515322
N83	N	-1.315976	-0.336517	-1.153077
H84	H	-1.307894	-0.343727	-1.210843
H85	H	-1.303008	-0.279837	-1.138127
N86	N	-1.094291	-0.534593	-1.142477
H87	H	-1.060497	-0.564784	-1.102455
H88	H	-1.055724	-0.500780	-1.174648
H89	H	-1.108336	-0.522032	-0.983580
H90	H	-1.108333	-0.522064	-0.879461
H91	H	-1.108298	-0.522100	-0.730727
