data_functionalizedCrystal
_audit_creation_method	'MofGen! by Chris Wilmer'
_symmetry_space_group_name_H-M	'P1'
_symmetry_Int_Tables_number	1
_symmetry_cell_setting	triclinic
loop_
_symmetry_equiv_pos_as_xyz
  x,y,z
_cell_length_a	21.395362
_cell_length_b	14.908520
_cell_length_c	21.395355
_cell_angle_alpha	86.719675
_cell_angle_beta	90.043940
_cell_angle_gamma	93.337688
loop_
_atom_site_label
_atom_site_type_symbol
_atom_site_fract_x
_atom_site_fract_y
_atom_site_fract_z
Zn1	Zn	0.943513	-0.358891	0.368965
Zn2	Zn	0.937386	-0.509736	0.270231
Zn3	Zn	0.838727	-0.358933	0.264168
Zn4	Zn	0.832667	-0.509755	0.374937
O5	O	0.888073	-0.434329	0.319575
O6	O	1.030380	-0.378876	0.355906
O7	O	0.924270	-0.489742	0.181749
O8	O	0.857727	-0.232679	0.273033
O9	O	1.025878	-0.489701	0.283367
O10	O	0.934713	-0.232649	0.350027
O11	O	0.851786	-0.378948	0.177295
O12	O	0.750244	-0.378966	0.278823
O13	O	0.847399	-0.489733	0.461822
O14	O	0.745792	-0.489773	0.360205
O15	O	0.928838	-0.378894	0.457435
O16	O	0.918395	-0.635987	0.289157
O17	O	0.841458	-0.636001	0.366084
C18	C	0.725284	-0.434377	0.319504
C19	C	0.655641	-0.434419	0.319490
C20	C	0.620623	-0.492193	0.361808
C21	C	0.555188	-0.492171	0.361835
C22	C	0.524774	-0.434384	0.319533
C23	C	0.559800	-0.376599	0.277212
C24	C	0.625234	-0.376616	0.277190
C25	C	0.421340	-0.427116	0.262837
C26	C	0.355907	-0.427105	0.262858
C27	C	0.322956	-0.434325	0.319600
C28	C	0.355444	-0.441575	0.376324
C29	C	0.420877	-0.441593	0.376302
C30	C	0.453823	-0.434358	0.319552
C31	C	0.216986	-0.492079	0.361951
C32	C	0.151550	-0.492050	0.361979
C33	C	0.156163	-0.376483	0.277350
C34	C	0.221598	-0.376506	0.277327
C35	C	0.252005	-0.434309	0.319627
C36	C	0.878621	-0.668729	0.328940
C37	C	0.874634	-0.769006	0.332968
C38	C	0.947340	-0.957362	0.260497
C39	C	0.943596	-1.051582	0.264279
C40	C	0.863407	-1.051666	0.344317
C41	C	0.867151	-0.957446	0.340535
C42	C	0.909118	-0.910298	0.298623
C43	C	0.912858	-0.816077	0.294838
C44	C	0.832672	-0.816163	0.374879
C45	C	0.828929	-0.910382	0.378661
C46	C	1.051498	-0.434282	0.319647
C47	C	1.121141	-0.434262	0.319677
C48	C	0.888126	-0.434311	0.482998
C49	C	0.888148	-0.434303	0.552639
C50	C	0.897580	-0.199014	0.310187
C51	C	0.901631	-0.098737	0.306187
C52	C	0.888059	-0.434282	0.156786
C53	C	0.888169	-0.434036	0.087135
C54	C	0.930552	-0.376587	0.583068
C55	C	0.930553	-0.376548	0.648502
C56	C	0.888156	-0.434242	0.683505
C57	C	0.845745	-0.491962	0.653068
C58	C	0.845741	-0.491992	0.587635
C59	C	0.879933	-0.515477	0.790423
C60	C	0.879941	-0.515447	0.855855
C61	C	0.888164	-0.434146	0.885322
C62	C	0.896392	-0.352872	0.849348
C63	C	0.896388	-0.352902	0.783915
C64	C	0.888155	-0.434214	0.754456
C65	C	0.930570	-0.376383	0.986702
C66	C	0.930566	-0.376343	1.052137
C67	C	0.845761	-0.491764	1.056701
C68	C	0.845762	-0.491797	0.991267
C69	C	0.888170	-0.434107	0.956272
H70	H	0.241745	-0.539140	0.396397
H71	H	0.965081	-0.329544	0.673283
H72	H	0.794762	-0.948783	0.412786
H73	H	0.329460	-0.421207	0.216670
N74	N	0.818150	-1.102526	0.389522
H75	H	0.821581	-1.169355	0.386132
H76	H	0.774057	-1.086144	0.379052
N77	N	0.800030	-0.553984	1.094449
H78	H	0.823804	-0.595773	1.123292
H79	H	0.773178	-0.590496	1.065200
N80	N	0.791440	-0.765402	0.416000
H81	H	0.800176	-0.698559	0.407244
H82	H	0.800512	-0.781823	0.461421
H83	H	0.981507	-0.918973	0.226366
H84	H	0.123040	-0.539095	0.396443
N85	N	0.976299	-0.314072	1.084952
H86	H	1.020501	-0.328077	1.074161
H87	H	0.969814	-0.322820	1.131704
H88	H	0.535033	-0.329547	0.242770
H89	H	0.873070	-0.581665	0.766437
H90	H	0.965083	-0.329610	0.554579
N91	N	0.123369	-0.314147	0.231727
H92	H	0.076603	-0.322900	0.238163
H93	H	0.134189	-0.328095	0.187516
H94	H	0.447326	-0.447493	0.422489
H95	H	0.811223	-0.538933	0.681571
H96	H	0.448164	-0.421233	0.216627
N97	N	0.905264	-0.265251	0.745115
H98	H	0.910475	-0.213739	0.773706
H99	H	0.867426	-0.256898	0.717602
N100	N	0.905267	-0.265175	0.881119
H101	H	0.904019	-0.277483	0.928029
H102	H	0.870665	-0.224854	0.868037
N103	N	0.800017	-0.554034	0.958441
H104	H	0.773155	-0.590572	0.990542
H105	H	0.823821	-0.595796	0.932977
N106	N	0.976305	-0.314163	0.948951
H107	H	1.003165	-0.277587	0.978159
H108	H	0.952486	-0.272435	0.920108
N109	N	0.800002	-0.554255	0.554820
H110	H	0.823771	-0.596074	0.529367
H111	H	0.772456	-0.517552	0.526215
N112	N	0.653419	-0.554534	0.407430
H113	H	0.621302	-0.591131	0.434243
H114	H	0.682091	-0.517882	0.434996
N115	N	0.517408	-0.554485	0.407481
H116	H	0.546600	-0.591103	0.434275
H117	H	0.488536	-0.596169	0.383599
N118	N	0.871066	-0.603101	0.894653
H119	H	0.908896	-0.611545	0.922165
H120	H	0.865830	-0.654554	0.866017
N121	N	0.319914	-0.449369	0.437531
H122	H	0.273533	-0.448253	0.428940
H123	H	0.333505	-0.397261	0.463516
N124	N	0.259364	-0.314186	0.231681
H125	H	0.247362	-0.328095	0.187458
H126	H	0.305420	-0.322985	0.238138
N127	N	0.663001	-0.314293	0.231544
H128	H	0.650997	-0.328201	0.187321
H129	H	0.709056	-0.323097	0.238001
N130	N	0.958119	-0.765220	0.249634
H131	H	0.981766	-0.809336	0.226058
H132	H	0.988654	-0.726064	0.273607
H133	H	0.974722	-1.089898	0.233234
