data_functionalizedCrystal
_audit_creation_method	'MofGen! by Chris Wilmer'
_symmetry_space_group_name_H-M	'P1'
_symmetry_Int_Tables_number	1
_symmetry_cell_setting	triclinic
loop_
_symmetry_equiv_pos_as_xyz
  x,y,z
_cell_length_a	15.297475
_cell_length_b	25.639240
_cell_length_c	15.296720
_cell_angle_alpha	99.632790
_cell_angle_beta	91.617114
_cell_angle_gamma	80.333474
loop_
_atom_site_label
_atom_site_type_symbol
_atom_site_fract_x
_atom_site_fract_y
_atom_site_fract_z
Zn1	Zn	1.253298	-0.406890	-0.726448
Zn2	Zn	1.278542	-0.482171	-0.579936
Zn3	Zn	1.132184	-0.377519	-0.554699
Zn4	Zn	1.106770	-0.477032	-0.701066
O5	O	1.192698	-0.435903	-0.640537
O6	O	1.379221	-0.431318	-0.728196
O7	O	1.280328	-0.458148	-0.454017
O8	O	1.148321	-0.308263	-0.577543
O9	O	1.397768	-0.486627	-0.620555
O10	O	1.237304	-0.329842	-0.703726
O11	O	1.172799	-0.381261	-0.435476
O12	O	1.006238	-0.376278	-0.552931
O13	O	1.105007	-0.477868	-0.827004
O14	O	0.987566	-0.449389	-0.660466
O15	O	1.212661	-0.426335	-0.845652
O16	O	1.255685	-0.554641	-0.595943
O17	O	1.129484	-0.550866	-0.684937
C18	C	0.965120	-0.409089	-0.601207
C19	C	0.867757	-0.397632	-0.584402
C20	C	0.554581	-0.517791	-0.760647
C21	C	0.646058	-0.528559	-0.776434
C22	C	0.701487	-0.495828	-0.728428
C23	C	0.665430	-0.452327	-0.664631
C24	C	0.573945	-0.441561	-0.648838
C25	C	0.720851	-0.419598	-0.616618
C26	C	0.684794	-0.376098	-0.552822
C27	C	0.593317	-0.365333	-0.537032
C28	C	0.537888	-0.398064	-0.585039
C29	C	0.812337	-0.430365	-0.632411
C30	C	0.831701	-0.354135	-0.520602
C31	C	0.740223	-0.343367	-0.504816
C32	C	1.192586	-0.571725	-0.640447
C33	C	1.192614	-0.629843	-0.640452
C34	C	1.239042	-1.001432	-0.706346
C35	C	1.239065	-1.056040	-0.706369
O36	O	1.278405	-1.093799	-0.762299
N37	N	1.192805	-1.072163	-0.640643
C38	C	1.146513	-1.033674	-0.574896
O39	O	1.107167	-1.052402	-0.518993
C40	C	1.146485	-0.979066	-0.574878
C41	C	1.192755	-0.962947	-0.640603
C42	C	1.285307	-0.985312	-0.772067
C43	C	1.285286	-0.930706	-0.772043
C44	C	1.238999	-0.892222	-0.706299
C45	C	1.192734	-0.908342	-0.640579
C46	C	1.100188	-0.940577	-0.509135
C47	C	1.100164	-0.885967	-0.509123
C48	C	1.146434	-0.869847	-0.574848
C49	C	1.146425	-0.815252	-0.574812
N50	N	1.192685	-0.799129	-0.640538
C51	C	1.238971	-0.837614	-0.706282
C52	C	1.146573	-1.148355	-0.574939
C53	C	1.146605	-1.202962	-0.574952
C54	C	1.239155	-1.225325	-0.706427
C55	C	1.239128	-1.170717	-0.706409
C56	C	1.192832	-1.132232	-0.640665
C57	C	1.238923	-0.722938	-0.706227
C58	C	1.238900	-0.668328	-0.706196
C59	C	1.146346	-0.645969	-0.574724
C60	C	1.146372	-0.700575	-0.574753
C61	C	1.192663	-0.739059	-0.640512
O62	O	1.107102	-0.777463	-0.518913
O63	O	1.278301	-0.818877	-0.762181
C64	C	1.421165	-0.462822	-0.680022
C65	C	1.518524	-0.474293	-0.696848
C66	C	1.153183	-0.454805	-0.868998
C67	C	1.136344	-0.462859	-0.966354
C68	C	1.192831	-0.299555	-0.640651
C69	C	1.192888	-0.241451	-0.640699
C70	C	1.313083	-0.378247	-1.279622
C71	C	1.328910	-0.370680	-1.188152
C72	C	1.280770	-0.393724	-1.132698
C73	C	1.216800	-0.424336	-1.168723
C74	C	1.200977	-0.431907	-1.260203
C75	C	1.168663	-0.447384	-1.113279
C76	C	1.104694	-0.477996	-1.149304
C77	C	1.088873	-0.485565	-1.240775
C78	C	1.137013	-0.462521	-1.296229
C79	C	1.184486	-0.439814	-1.021799
C80	C	1.072380	-0.493474	-1.002380
C81	C	1.056553	-0.501040	-1.093850
C82	C	1.232111	-0.417043	-0.412974
C83	C	1.249119	-0.408861	-0.315648
H84	H	0.775972	-0.504598	-0.741285
C85	C	0.500774	-0.552340	-0.904014
C86	C	0.493650	-0.553761	-0.813413
H87	H	0.463159	-0.574549	-0.936592
H88	H	0.483577	-0.516533	-0.914353
H89	H	0.560417	-0.564981	-0.922544
H90	H	0.434008	-0.541115	-0.794881
H91	H	0.510842	-0.589574	-0.803069
C92	C	1.230792	-1.120436	-0.826309
C93	C	1.289980	-1.152999	-0.778658
H94	H	1.262188	-1.109498	-0.870912
H95	H	1.186831	-1.140023	-0.853185
H96	H	1.203226	-1.089699	-0.787147
H97	H	1.317540	-1.183738	-0.817820
H98	H	1.333957	-1.133412	-0.751783
H99	H	1.276843	-1.256669	-0.759960
C100	C	0.768546	-0.269095	-0.395883
C101	C	0.700584	-0.295554	-0.434688
H102	H	0.744071	-0.239575	-0.352594
H103	H	0.810008	-0.293260	-0.368456
H104	H	0.797639	-0.256497	-0.440282
H105	H	0.671495	-0.308155	-0.390290
H106	H	0.659107	-0.271385	-0.462114
H107	H	0.841685	-0.465783	-0.684356
C108	C	0.728577	-0.557785	-0.911987
C109	C	0.685688	-0.576368	-0.846562
H110	H	0.753045	-0.587303	-0.955282
H111	H	0.687104	-0.533621	-0.939404
H112	H	0.774678	-0.539836	-0.885646
H113	H	0.639582	-0.594314	-0.872902
H114	H	0.727164	-0.600541	-0.819142
H115	H	1.236570	-0.414889	-0.992477
H116	H	1.276582	-0.655207	-0.759717
H117	H	0.463399	-0.389298	-0.572190
C118	C	1.364467	-0.353665	-1.012240
C119	C	1.298158	-0.385403	-1.032151
H120	H	1.375195	-0.348523	-0.950163
H121	H	1.417396	-0.371082	-1.042686
H122	H	1.345770	-0.319862	-1.030356
H123	H	1.316857	-0.419207	-1.014041
H124	H	1.245218	-0.367986	-1.001693
C125	C	0.980528	-0.336786	-0.495168
C126	C	0.892620	-0.318152	-0.467830
H127	H	1.018138	-0.314571	-0.462593
H128	H	0.997724	-0.372589	-0.484815
H129	H	0.985342	-0.335825	-0.556636
H130	H	0.887805	-0.319117	-0.406363
H131	H	0.875419	-0.282340	-0.478176
H132	H	1.352277	-0.359491	-1.324781
C133	C	1.330402	-0.739543	-0.836183
C134	C	1.289804	-0.765235	-0.778511
H135	H	1.361818	-0.765656	-0.880803
H136	H	1.286410	-0.716522	-0.863038
H137	H	1.370524	-0.719034	-0.803821
H138	H	1.249677	-0.785741	-0.810872
H139	H	1.333801	-0.788265	-0.751655
H140	H	1.108663	-0.614626	-0.521194
H141	H	1.033182	-0.512239	-0.957229
H142	H	1.108704	-0.713700	-0.521228
H143	H	1.322959	-0.917586	-0.825564
H144	H	1.322998	-1.016642	-0.825608
H145	H	1.108938	-1.216080	-0.521425
C146	C	0.982530	-0.536470	-1.225456
C147	C	0.986246	-0.534693	-1.133457
H148	H	0.939130	-0.557249	-1.249906
H149	H	0.967152	-0.501080	-1.238254
H150	H	1.038788	-0.552295	-1.250601
H151	H	0.929990	-0.518864	-1.108311
H152	H	1.001619	-0.570090	-1.120651
H153	H	1.108877	-1.117021	-0.521395
C154	C	0.510847	-0.336131	-0.401445
C155	C	0.553709	-0.317531	-0.466869
H156	H	0.486409	-0.306623	-0.358118
H157	H	0.464736	-0.354067	-0.427773
H158	H	0.552336	-0.360312	-0.374063
H159	H	0.512218	-0.293353	-0.494256
H160	H	0.599826	-0.299587	-0.440538
H161	H	1.062511	-0.953691	-0.455614
H162	H	1.380996	-0.345758	-1.158828
C163	C	1.008672	-0.869350	-0.379174
C164	C	1.049273	-0.843664	-0.436852
H165	H	0.977260	-0.843235	-0.334556
H166	H	0.968555	-0.889859	-0.411528
H167	H	1.052670	-0.892372	-0.352312
H168	H	1.005274	-0.820646	-0.463720
H169	H	1.089394	-0.823147	-0.404495
C170	C	1.136621	-0.525720	-1.431087
C171	C	1.119617	-0.470839	-1.396778
H172	H	1.125877	-0.530852	-1.493161
H173	H	1.196711	-0.539701	-1.420157
H174	H	1.098792	-0.543823	-1.403217
H175	H	1.157450	-0.452736	-1.424643
H176	H	1.059517	-0.456851	-1.407715
H177	H	1.036791	-0.510496	-1.270104
