data_functionalizedCrystal
_audit_creation_method	'MofGen! by Chris Wilmer'
_symmetry_space_group_name_H-M	'P1'
_symmetry_Int_Tables_number	1
_symmetry_cell_setting	triclinic
loop_
_symmetry_equiv_pos_as_xyz
  x,y,z
_cell_length_a	21.395362
_cell_length_b	16.959454
_cell_length_c	21.395355
_cell_angle_alpha	89.987004
_cell_angle_beta	89.956060
_cell_angle_gamma	90.035955
loop_
_atom_site_label
_atom_site_type_symbol
_atom_site_fract_x
_atom_site_fract_y
_atom_site_fract_z
Zn1	Zn	0.957906	-0.314438	-0.354610
Zn2	Zn	1.207906	-0.064438	-0.104610
Zn3	Zn	1.457906	0.185562	0.145390
Zn4	Zn	1.707906	0.435562	0.395390
Zn5	Zn	0.957828	-0.446599	-0.249842
Zn6	Zn	1.207828	-0.196599	0.000158
Zn7	Zn	1.457828	0.053401	0.250158
Zn8	Zn	1.707828	0.303401	0.500158
Zn9	Zn	0.853121	-0.314475	-0.249811
Zn10	Zn	1.103121	-0.064475	0.000189
Zn11	Zn	1.353121	0.185525	0.250189
Zn12	Zn	1.603121	0.435525	0.500189
Zn13	Zn	0.853109	-0.446615	-0.354547
Zn14	Zn	1.103109	-0.196615	-0.104547
Zn15	Zn	1.353109	0.053385	0.145453
Zn16	Zn	1.603109	0.303385	0.395453
O17	O	0.905491	-0.380532	-0.302202
O18	O	1.155491	-0.130532	-0.052202
O19	O	1.405491	0.119468	0.197798
O20	O	1.655491	0.369468	0.447798
O21	O	1.045573	-0.331947	-0.340751
O22	O	1.295573	-0.081947	-0.090751
O23	O	1.545573	0.168053	0.159249
O24	O	1.795573	0.418053	0.409249
O25	O	0.943910	-0.429081	-0.162160
O26	O	1.193910	-0.179081	0.087840
O27	O	1.443910	0.070919	0.337840
O28	O	1.693910	0.320919	0.587840
O29	O	0.867058	-0.203859	-0.263726
O30	O	1.117058	0.046141	-0.013726
O31	O	1.367058	0.296141	0.236274
O32	O	1.617058	0.546141	0.486274
O33	O	1.045516	-0.429045	-0.263779
O34	O	1.295516	-0.179045	-0.013779
O35	O	1.545516	0.070955	0.236221
O36	O	1.795516	0.320955	0.486221
O37	O	0.944043	-0.203832	-0.340721
O38	O	1.194043	0.046168	-0.090721
O39	O	1.444043	0.296168	0.159279
O40	O	1.694043	0.546168	0.409279
O41	O	0.866982	-0.332010	-0.162137
O42	O	1.116982	-0.082010	0.087863
O43	O	1.366982	0.167990	0.337863
O44	O	1.616982	0.417990	0.587863
O45	O	0.765441	-0.332026	-0.263665
O46	O	1.015441	-0.082026	-0.013665
O47	O	1.265441	0.167974	0.236335
O48	O	1.515441	0.417974	0.486335
O49	O	0.867039	-0.429073	-0.442233
O50	O	1.117039	-0.179073	-0.192233
O51	O	1.367039	0.070927	0.057767
O52	O	1.617039	0.320927	0.307767
O53	O	0.765433	-0.429109	-0.340614
O54	O	1.015433	-0.179109	-0.090614
O55	O	1.265433	0.070891	0.159386
O56	O	1.515433	0.320891	0.409386
O57	O	0.944032	-0.331963	-0.442279
O58	O	1.194032	-0.081963	-0.192279
O59	O	1.444032	0.168037	0.057721
O60	O	1.694032	0.418037	0.307721
O61	O	0.943899	-0.557212	-0.263718
O62	O	1.193899	-0.307212	-0.013718
O63	O	1.443899	-0.057212	0.236282
O64	O	1.693899	0.192788	0.486282
O65	O	0.866963	-0.557224	-0.340645
O66	O	1.116963	-0.307224	-0.090645
O67	O	1.366963	-0.057224	0.159355
O68	O	1.616963	0.192776	0.409355
C69	C	0.742703	-0.380574	-0.302130
C70	C	0.992703	-0.130574	-0.052130
C71	C	1.242703	0.119426	0.197870
C72	C	1.492703	0.369426	0.447870
C73	C	0.673062	-0.380610	-0.302114
C74	C	0.923062	-0.130610	-0.052114
C75	C	1.173062	0.119390	0.197886
C76	C	1.423062	0.369390	0.447886
C77	C	0.905438	-0.585898	-0.302192
C78	C	1.155438	-0.335898	-0.052192
C79	C	1.405438	-0.085898	0.197808
C80	C	1.655438	0.164102	0.447808
C81	C	0.905473	-0.673755	-0.302208
C82	C	1.155473	-0.423755	-0.052208
C83	C	1.405473	-0.173755	0.197792
C84	C	1.655473	0.076245	0.447792
C85	C	0.640361	-0.431228	-0.342121
C86	C	0.890361	-0.181228	-0.092121
C87	C	1.140361	0.068772	0.157879
C88	C	1.390361	0.318772	0.407879
C89	C	0.574925	-0.431209	-0.342149
C90	C	0.824925	-0.181209	-0.092149
C91	C	1.074925	0.068791	0.157851
C92	C	1.324925	0.318791	0.407851
C93	C	0.542194	-0.380580	-0.302158
C94	C	0.792194	-0.130580	-0.052158
C95	C	1.042194	0.119420	0.197842
C96	C	1.292194	0.369420	0.447842
C97	C	0.574903	-0.329952	-0.262148
C98	C	0.824903	-0.079952	-0.012148
C99	C	1.074903	0.170048	0.237852
C100	C	1.324903	0.420048	0.487852
C101	C	0.640337	-0.329967	-0.262126
C102	C	0.890337	-0.079967	-0.012126
C103	C	1.140337	0.170033	0.237874
C104	C	1.390337	0.420033	0.487874
C105	C	0.438468	-0.374212	-0.245752
C106	C	0.688468	-0.124212	0.004248
C107	C	0.938468	0.125788	0.254248
C108	C	1.188468	0.375788	0.504248
C109	C	0.373035	-0.374203	-0.245774
C110	C	0.623035	-0.124203	0.004226
C111	C	0.873035	0.125797	0.254226
C112	C	1.123035	0.375797	0.504226
C113	C	0.340373	-0.380528	-0.302227
C114	C	0.590373	-0.130528	-0.052227
C115	C	0.840373	0.119472	0.197773
C116	C	1.090373	0.369472	0.447773
C117	C	0.373152	-0.386881	-0.358661
C118	C	0.623152	-0.136881	-0.108661
C119	C	0.873152	0.113119	0.141339
C120	C	1.123152	0.363119	0.391339
C121	C	0.438586	-0.386896	-0.358639
C122	C	0.688586	-0.136896	-0.108639
C123	C	0.938586	0.113104	0.141361
C124	C	1.188586	0.363104	0.391361
C125	C	0.471241	-0.380557	-0.302178
C126	C	0.721241	-0.130557	-0.052178
C127	C	0.971241	0.119443	0.197822
C128	C	1.221241	0.369443	0.447822
C129	C	0.236719	-0.431128	-0.342268
C130	C	0.486719	-0.181128	-0.092268
C131	C	0.736719	0.068872	0.157732
C132	C	0.986719	0.318872	0.407732
C133	C	0.171283	-0.431103	-0.342297
C134	C	0.421283	-0.181103	-0.092297
C135	C	0.671283	0.068897	0.157703
C136	C	0.921283	0.318897	0.407703
C137	C	0.171261	-0.329850	-0.262291
C138	C	0.421261	-0.079850	-0.012291
C139	C	0.671261	0.170150	0.237709
C140	C	0.921261	0.420150	0.487709
C141	C	0.236697	-0.329871	-0.262267
C142	C	0.486697	-0.079871	-0.012267
C143	C	0.736697	0.170129	0.237733
C144	C	0.986697	0.420129	0.487733
C145	C	0.269422	-0.380514	-0.302255
C146	C	0.519422	-0.130514	-0.052255
C147	C	0.769422	0.119486	0.197745
C148	C	1.019422	0.369486	0.447745
C149	C	0.865488	-1.045266	-0.342254
C150	C	1.115488	-0.795266	-0.092254
C151	C	1.365488	-0.545266	0.157746
C152	C	1.615488	-0.295266	0.407746
C153	C	0.945668	-1.045194	-0.262215
C154	C	1.195668	-0.795194	-0.012215
C155	C	1.445668	-0.545194	0.237785
C156	C	1.695668	-0.295194	0.487785
C157	C	0.945646	-0.962648	-0.262209
C158	C	1.195646	-0.712648	-0.012209
C159	C	1.445646	-0.462648	0.237791
C160	C	1.695646	-0.212648	0.487791
C161	C	0.905544	-0.921407	-0.302226
C162	C	1.155544	-0.671407	-0.052226
C163	C	1.405544	-0.421407	0.197774
C164	C	1.655544	-0.171407	0.447774
C165	C	0.865464	-0.962713	-0.342248
C166	C	1.115464	-0.712713	-0.092248
C167	C	1.365464	-0.462713	0.157752
C168	C	1.615464	-0.212713	0.407752
C169	C	0.985721	-0.921337	-0.222184
C170	C	1.235721	-0.671337	0.027816
C171	C	1.485721	-0.421337	0.277816
C172	C	1.735721	-0.171337	0.527816
C173	C	0.985700	-0.838786	-0.222176
C174	C	1.235700	-0.588786	0.027824
C175	C	1.485700	-0.338786	0.277824
C176	C	1.735700	-0.088786	0.527824
C177	C	0.945601	-0.797544	-0.262196
C178	C	1.195601	-0.547544	-0.012196
C179	C	1.445601	-0.297544	0.237804
C180	C	1.695601	-0.047544	0.487804
C181	C	0.905520	-0.838854	-0.302220
C182	C	1.155520	-0.588854	-0.052220
C183	C	1.405520	-0.338854	0.197780
C184	C	1.655520	-0.088854	0.447780
C185	C	0.865418	-0.797613	-0.342236
C186	C	1.115418	-0.547613	-0.092236
C187	C	1.365418	-0.297613	0.157764
C188	C	1.615418	-0.047613	0.407764
C189	C	0.825339	-0.838922	-0.382264
C190	C	1.075339	-0.588922	-0.132264
C191	C	1.325339	-0.338922	0.117736
C192	C	1.575339	-0.088922	0.367736
C193	C	0.825365	-0.921471	-0.382268
C194	C	1.075365	-0.671471	-0.132268
C195	C	1.325365	-0.421471	0.117732
C196	C	1.575365	-0.171471	0.367732
C197	C	0.945575	-0.714995	-0.262192
C198	C	1.195575	-0.464995	-0.012192
C199	C	1.445575	-0.214995	0.237808
C200	C	1.695575	0.035005	0.487808
C201	C	0.865393	-0.715060	-0.342230
C202	C	1.115393	-0.465060	-0.092230
C203	C	1.365393	-0.215060	0.157770
C204	C	1.615393	0.034940	0.407770
C205	C	1.068914	-0.380490	-0.302276
C206	C	1.318914	-0.130490	-0.052276
C207	C	1.568914	0.119510	0.197724
C208	C	1.818914	0.369510	0.447724
C209	C	1.138555	-0.380473	-0.302307
C210	C	1.388555	-0.130473	-0.052307
C211	C	1.638555	0.119527	0.197693
C212	C	1.888555	0.369527	0.447693
C213	C	0.905543	-0.380516	-0.465626
C214	C	1.155543	-0.130516	-0.215626
C215	C	1.405543	0.119484	0.034374
C216	C	1.655543	0.369484	0.284374
C217	C	0.905565	-0.380509	-0.535267
C218	C	1.155565	-0.130509	-0.285267
C219	C	1.405565	0.119491	-0.035267
C220	C	1.655565	0.369491	0.214733
C221	C	0.905561	-0.174363	-0.302227
C222	C	1.155561	0.075637	-0.052227
C223	C	1.405561	0.325637	0.197773
C224	C	1.655561	0.575637	0.447773
C225	C	0.905590	-0.086507	-0.302237
C226	C	1.155590	0.163493	-0.052237
C227	C	1.405590	0.413493	0.197763
C228	C	1.655590	0.663493	0.447763
C229	C	0.945654	-0.329942	-0.568005
C230	C	1.195654	-0.079942	-0.318005
C231	C	1.445654	0.170058	-0.068005
C232	C	1.695654	0.420058	0.181995
C233	C	0.945653	-0.329908	-0.633441
C234	C	1.195653	-0.079908	-0.383441
C235	C	1.445653	0.170092	-0.133441
C236	C	1.695653	0.420092	0.116559
C237	C	0.905570	-0.380455	-0.666135
C238	C	1.155570	-0.130455	-0.416135
C239	C	1.405570	0.119545	-0.166135
C240	C	1.655570	0.369545	0.083865
C241	C	0.865473	-0.431026	-0.633389
C242	C	1.115473	-0.181026	-0.383389
C243	C	1.365473	0.068974	-0.133389
C244	C	1.615473	0.318974	0.116611
C245	C	0.865471	-0.431053	-0.567955
C246	C	1.115471	-0.181053	-0.317955
C247	C	1.365471	0.068947	-0.067955
C248	C	1.615471	0.318947	0.182045
C249	C	0.900604	-0.451628	-0.769805
C250	C	1.150604	-0.201628	-0.519805
C251	C	1.400604	0.048372	-0.269805
C252	C	1.650604	0.298372	-0.019805
C253	C	0.900611	-0.451602	-0.835238
C254	C	1.150611	-0.201602	-0.585238
C255	C	1.400611	0.048398	-0.335238
C256	C	1.650611	0.298398	-0.085238
C257	C	0.905574	-0.380371	-0.867956
C258	C	1.155574	-0.130371	-0.617956
C259	C	1.405574	0.119629	-0.367956
C260	C	1.655574	0.369629	-0.117956
C261	C	0.910543	-0.309164	-0.835234
C262	C	1.160543	-0.059164	-0.585234
C263	C	1.410543	0.190836	-0.335234
C264	C	1.660543	0.440836	-0.085234
C265	C	0.910540	-0.309191	-0.769800
C266	C	1.160540	-0.059191	-0.519800
C267	C	1.410540	0.190809	-0.269800
C268	C	1.660540	0.440809	-0.019800
C269	C	0.905568	-0.380431	-0.737088
C270	C	1.155568	-0.130431	-0.487088
C271	C	1.405568	0.119569	-0.237088
C272	C	1.655568	0.369569	0.012912
C273	C	0.945664	-0.329763	-0.971647
C274	C	1.195664	-0.079763	-0.721647
C275	C	1.445664	0.170237	-0.471647
C276	C	1.695664	0.420237	-0.221647
C277	C	0.945659	-0.329728	-1.037084
C278	C	1.195659	-0.079728	-0.787084
C279	C	1.445659	0.170272	-0.537084
C280	C	1.695659	0.420272	-0.287084
C281	C	0.865482	-0.430853	-1.037031
C282	C	1.115482	-0.180853	-0.787031
C283	C	1.365482	0.069147	-0.537031
C284	C	1.615482	0.319147	-0.287031
C285	C	0.865484	-0.430881	-0.971596
C286	C	1.115484	-0.180881	-0.721596
C287	C	1.365484	0.069119	-0.471596
C288	C	1.615484	0.319119	-0.221596
C289	C	0.905578	-0.380337	-0.938908
C290	C	1.155578	-0.130337	-0.688908
C291	C	1.405578	0.119663	-0.438908
C292	C	1.655578	0.369663	-0.188908
C293	C	0.905475	-0.380491	-0.139415
C294	C	1.155475	-0.130491	0.110585
C295	C	1.405475	0.119509	0.360585
C296	C	1.655475	0.369509	0.610585
C297	C	0.905574	-0.380275	-0.069774
C298	C	1.155574	-0.130275	0.180226
C299	C	1.405574	0.119725	0.430226
C300	C	1.655574	0.369725	0.680226
H301	H	0.667002	-0.472465	-0.374683
H302	H	0.917002	-0.222465	-0.124683
H303	H	1.167002	0.027535	0.125317
H304	H	1.417002	0.277535	0.375317
H305	H	0.978297	-0.288725	-0.660101
H306	H	1.228297	-0.038725	-0.410101
H307	H	1.478297	0.211275	-0.160101
H308	H	1.728297	0.461275	0.089899
F309	F	0.895328	-0.527387	-0.870057
F310	F	1.145328	-0.277387	-0.620057
F311	F	1.395328	-0.027387	-0.370057
F312	F	1.645328	0.222613	-0.120057
H313	H	0.465056	-0.369058	-0.199778
H314	H	0.715056	-0.119058	0.050222
H315	H	0.965056	0.130942	0.300222
H316	H	1.215056	0.380942	0.550222
H317	H	0.832859	-1.078904	-0.374845
H318	H	1.082859	-0.828904	-0.124845
H319	H	1.332859	-0.578904	0.125155
H320	H	1.582859	-0.328904	0.375155
H321	H	0.914584	-0.251211	-0.743160
H322	H	1.164584	-0.001211	-0.493160
H323	H	1.414584	0.248789	-0.243160
H324	H	1.664584	0.498789	0.006840
H325	H	0.263322	-0.288656	-0.229686
H326	H	0.513322	-0.038656	0.020314
H327	H	0.763322	0.211344	0.270314
H328	H	1.013322	0.461344	0.520314
H329	H	0.144659	-0.472321	-0.374880
H330	H	0.394659	-0.222321	-0.124880
H331	H	0.644659	0.027679	0.125120
H332	H	0.894659	0.277679	0.375120
H333	H	0.832823	-0.472230	-0.541300
H334	H	1.082823	-0.222230	-0.291300
H335	H	1.332823	0.027770	-0.041300
H336	H	1.582823	0.277770	0.208700
F337	F	0.782658	-0.795022	-0.424848
F338	F	1.032658	-0.545022	-0.174848
F339	F	1.282658	-0.295022	0.075152
F340	F	1.532658	-0.045022	0.325152
H341	H	0.978303	-0.288545	-1.063738
H342	H	1.228303	-0.038545	-0.813738
H343	H	1.478303	0.211455	-0.563738
H344	H	1.728303	0.461455	-0.313738
F345	F	0.895337	-0.527449	-0.734990
F346	F	1.145337	-0.277449	-0.484990
F347	F	1.395337	-0.027449	-0.234990
F348	F	1.645337	0.222551	0.015010
H349	H	0.832739	-0.681487	-0.374819
H350	H	1.082739	-0.431487	-0.124819
H351	H	1.332739	-0.181487	0.125181
H352	H	1.582739	0.068513	0.375181
F353	F	0.782713	-0.965440	-0.424863
F354	F	1.032713	-0.715440	-0.174863
F355	F	1.282713	-0.465440	0.075137
F356	F	1.532713	-0.215440	0.325137
F357	F	0.988344	-1.089087	-0.219629
F358	F	1.238344	-0.839087	0.030371
F359	F	1.488344	-0.589087	0.280371
F360	F	1.738344	-0.339087	0.530371
H361	H	0.346351	-0.369035	-0.199822
H362	H	0.596351	-0.119035	0.050178
H363	H	0.846351	0.130965	0.300178
H364	H	1.096351	0.380965	0.550178
H365	H	0.832835	-0.472179	-0.660014
H366	H	1.082835	-0.222179	-0.410014
H367	H	1.332835	0.027821	-0.160014
H368	H	1.582835	0.277821	0.089986
H369	H	0.914585	-0.251161	-0.861872
H370	H	1.164585	-0.001161	-0.611872
H371	H	1.414585	0.248839	-0.361872
H372	H	1.664585	0.498839	-0.111872
F373	F	0.473469	-0.393653	-0.418699
F374	F	0.723469	-0.143653	-0.168699
F375	F	0.973469	0.106347	0.081301
F376	F	1.223469	0.356347	0.331301
H377	H	0.978307	-0.288603	-0.945031
H378	H	1.228307	-0.038603	-0.695031
H379	H	1.478307	0.211397	-0.445031
H380	H	1.728307	0.461397	-0.195031
F381	F	0.338396	-0.393610	-0.418749
F382	F	0.588396	-0.143610	-0.168749
F383	F	0.838396	0.106390	0.081251
F384	F	1.088396	0.356390	0.331251
F385	F	0.540115	-0.485086	-0.384732
F386	F	0.790115	-0.235086	-0.134732
F387	F	1.040115	0.014914	0.115268
F388	F	1.290115	0.264914	0.365268
H389	H	1.018365	-0.954921	-0.189600
H390	H	1.268365	-0.704921	0.060400
H391	H	1.518365	-0.454921	0.310400
H392	H	1.768365	-0.204921	0.560400
H393	H	0.832839	-0.472002	-1.063651
H394	H	1.082839	-0.222002	-0.813651
H395	H	1.332839	0.027998	-0.563651
H396	H	1.582839	0.277998	-0.313651
H397	H	1.018335	-0.805157	-0.189584
H398	H	1.268335	-0.555157	0.060416
H399	H	1.518335	-0.305157	0.310416
H400	H	1.768335	-0.055157	0.560416
H401	H	0.548248	-0.288728	-0.229588
H402	H	0.798248	-0.038728	0.020412
H403	H	1.048248	0.211272	0.270412
H404	H	1.298248	0.461272	0.520412
H405	H	0.144612	-0.288624	-0.229733
H406	H	0.394612	-0.038624	0.020267
H407	H	0.644612	0.211376	0.270267
H408	H	0.894612	0.461376	0.520267
F409	F	0.271550	-0.485022	-0.384829
F410	F	0.521550	-0.235022	-0.134829
F411	F	0.771550	0.014978	0.115171
F412	F	1.021550	0.264978	0.365171
F413	F	0.675141	-0.276090	-0.219543
F414	F	0.925141	-0.026090	0.030457
F415	F	1.175141	0.223910	0.280457
F416	F	1.425141	0.473910	0.530457
F417	F	0.822818	-0.484705	-0.936752
F418	F	1.072818	-0.234705	-0.686752
F419	F	1.322818	0.015295	-0.436752
F420	F	1.572818	0.265295	-0.186752
H421	H	0.978204	-0.681365	-0.229599
H422	H	1.228204	-0.431365	0.020401
H423	H	1.478204	-0.181365	0.270401
H424	H	1.728204	0.068635	0.520401
H425	H	0.978301	-0.288784	-0.541395
H426	H	1.228301	-0.038784	-0.291395
H427	H	1.478301	0.211216	-0.041395
H428	H	1.728301	0.461216	0.208605
