data_functionalizedCrystal
_audit_creation_method	'MofGen! by Chris Wilmer'
_symmetry_space_group_name_H-M	'P1'
_symmetry_Int_Tables_number	1
_symmetry_cell_setting	triclinic
loop_
_symmetry_equiv_pos_as_xyz
  x,y,z
_cell_length_a	12.759401
_cell_length_b	10.686285
_cell_length_c	12.759393
_cell_angle_alpha	85.601950
_cell_angle_beta	89.980163
_cell_angle_gamma	85.633237
loop_
_atom_site_label
_atom_site_type_symbol
_atom_site_fract_x
_atom_site_fract_y
_atom_site_fract_z
Zn1	Zn	1.638389	-0.502223	-0.562006
Zn2	Zn	1.651787	-0.713267	-0.372874
Zn3	Zn	1.462695	-0.502295	-0.386337
Zn4	Zn	1.476177	-0.713175	-0.548517
O5	O	1.557262	-0.607740	-0.467434
O6	O	1.787188	-0.530227	-0.536929
O7	O	1.626668	-0.685349	-0.227634
O8	O	1.474753	-0.325709	-0.420920
O9	O	1.797031	-0.685280	-0.397974
O10	O	1.603834	-0.325656	-0.549983
O11	O	1.487744	-0.530349	-0.237526
O12	O	1.317462	-0.530259	-0.407840
O13	O	1.497730	-0.685123	-0.697332
O14	O	1.327367	-0.685192	-0.526992
O15	O	1.616906	-0.530138	-0.707243
O16	O	1.639740	-0.889831	-0.384893
O17	O	1.510721	-0.889763	-0.513938
C18	C	1.284294	-0.607724	-0.467414
C19	C	1.167518	-0.607748	-0.467428
C20	C	1.117849	-0.688544	-0.529358
C21	C	1.008125	-0.688549	-0.529378
C22	C	0.997750	-0.526958	-0.405531
C23	C	1.107471	-0.526948	-0.405517
C24	C	1.578176	-0.935581	-0.446514
C25	C	1.587219	-1.075833	-0.437599
C26	C	1.831296	-0.607756	-0.467454
C27	C	1.948073	-0.607763	-0.467463
C28	C	1.557327	-0.607612	-0.741475
C29	C	1.557355	-0.607558	-0.858255
C30	C	1.536295	-0.278618	-0.488458
C31	C	1.527360	-0.138366	-0.497418
C32	C	1.485040	-0.526834	-0.918268
C33	C	1.485062	-0.526796	-1.027995
C34	C	1.629723	-0.688207	-1.017686
C35	C	1.629695	-0.688251	-0.907961
C36	C	1.557252	-0.607776	-0.194464
C37	C	1.557405	-0.607475	-0.077707
H38	H	0.948846	-0.461175	-0.355124
H39	H	1.469195	-1.084607	-0.555452
H40	H	1.147912	-0.461146	-0.355087
H41	H	1.645381	-1.129600	-0.379554
H42	H	1.426136	-0.461129	-0.877802
H43	H	1.426175	-0.461064	-1.076853
H44	H	1.688620	-0.753904	-1.058170
H45	H	1.688585	-0.753991	-0.859096
H46	H	0.967690	-0.754340	-0.579809
C47	C	1.183902	-0.777412	-0.597466
C48	C	1.177962	-0.920847	-0.579551
C49	C	1.244011	-1.009714	-0.647665
C50	C	1.316002	-0.955145	-0.733694
C51	C	1.321946	-0.811702	-0.751613
C52	C	1.255896	-0.722836	-0.683499
H53	H	1.124667	-0.961249	-0.515864
H54	H	1.239611	-1.115900	-0.634400
H55	H	1.364896	-1.020929	-0.784116
H56	H	1.375240	-0.771301	-0.815300
H57	H	1.260296	-0.616650	-0.696765
