data_functionalizedCrystal
_audit_creation_method	'MofGen! by Chris Wilmer'
_symmetry_space_group_name_H-M	'P1'
_symmetry_Int_Tables_number	1
_symmetry_cell_setting	triclinic
loop_
_symmetry_equiv_pos_as_xyz
  x,y,z
_cell_length_a	16.109301
_cell_length_b	10.489741
_cell_length_c	15.186229
_cell_angle_alpha	89.996534
_cell_angle_beta	89.999362
_cell_angle_gamma	84.000327
loop_
_atom_site_label
_atom_site_type_symbol
_atom_site_fract_x
_atom_site_fract_y
_atom_site_fract_z
O1	O	1.104141	0.163947	-0.073172
O2	O	0.862205	0.184350	-0.073186
O3	O	0.988678	-0.011529	-0.073174
O4	O	0.977668	0.359826	-0.073185
O5	O	0.988670	-0.011532	0.073284
O6	O	0.862196	0.184347	0.073271
O7	O	1.104133	0.163944	0.073285
Zn8	Zn	0.983163	0.174145	0.096531
Zn9	Zn	0.983174	0.174149	-0.096433
O10	O	0.977659	0.359823	0.073272
C11	C	0.831221	0.183522	0.000041
C12	C	0.738910	0.181044	0.000035
C13	C	0.987842	-0.059050	0.000054
C14	C	0.985354	-0.200644	0.000053
C15	C	0.517319	0.291514	0.000042
C16	C	0.430584	0.289175	0.000048
C17	C	0.449026	0.056771	0.000051
C18	C	0.535759	0.059111	0.000052
C19	C	0.569903	0.176486	0.000043
C20	C	0.396435	0.171808	0.000048
C21	C	0.302393	0.169272	0.000054
C22	C	0.663950	0.179022	0.000038
C23	C	0.904883	-0.267616	0.000042
C24	C	0.942893	-0.360292	0.072255
C25	C	0.942920	-0.360264	-0.072141
C26	C	1.023397	-0.291454	0.072325
C27	C	1.023413	-0.291417	-0.072135
C28	C	1.061482	-0.384066	0.000096
C29	C	1.135117	0.164772	0.000056
C30	C	1.227427	0.167250	0.000056
C31	C	0.978495	0.407344	0.000042
C32	C	0.980983	0.548938	0.000038
N33	N	0.983162	0.174142	0.228224
N34	N	0.983183	0.174142	-0.228125
C35	C	1.039183	0.087436	0.453952
C36	C	1.039186	0.087433	0.546142
C37	C	0.927155	0.260852	0.546140
C38	C	0.927149	0.260848	0.453952
C39	C	0.983168	0.174141	0.407860
C40	C	0.983176	0.174142	0.592238
C41	C	0.983179	0.174140	0.692194
C42	C	0.983165	0.174142	0.307898
H43	H	0.387773	0.382843	0.000049
N44	N	0.554145	0.418107	0.000049
H45	H	0.617069	0.402139	0.000048
H46	H	0.534957	0.468448	-0.054243
H47	H	1.084798	0.016828	0.583667
N48	N	0.412199	-0.069821	0.000065
H49	H	0.349274	-0.053851	0.000065
H50	H	0.431386	-0.120157	-0.054225
N51	N	0.817247	-0.200566	0.000129
H52	H	0.808394	-0.145763	-0.054429
H53	H	0.775862	-0.266544	0.000759
H54	H	1.057413	-0.261117	0.133445
N55	N	0.592483	-0.064960	0.000063
H56	H	0.557693	-0.139672	0.000064
H57	H	0.628875	-0.069051	-0.054228
N58	N	0.897798	-0.400709	0.153127
H59	H	0.838647	-0.357914	0.153074
H60	H	0.896985	-0.496850	0.152779
N61	N	0.866735	0.354373	0.404226
H62	H	0.829633	0.305607	0.365985
H63	H	0.831307	0.409289	0.447463
H64	H	1.127704	-0.434450	0.000140
N65	N	1.099580	-0.006113	0.404241
H66	H	1.091076	0.007033	0.338845
H67	H	1.158653	0.008624	0.420342
H68	H	1.057437	-0.260865	-0.133185
N69	N	0.897810	-0.400658	-0.153006
H70	H	0.838660	-0.357859	-0.152940
H71	H	0.927675	-0.374382	-0.207502
N72	N	0.866749	0.354383	0.595856
H73	H	0.831262	0.409309	0.552666
H74	H	0.829706	0.305543	0.634115
