data_functionalizedCrystal
_audit_creation_method	'MofGen! by Chris Wilmer'
_symmetry_space_group_name_H-M	'P1'
_symmetry_Int_Tables_number	1
_symmetry_cell_setting	triclinic
loop_
_symmetry_equiv_pos_as_xyz
  x,y,z
_cell_length_a	14.853569
_cell_length_b	14.853567
_cell_length_c	9.730223
_cell_angle_alpha	90.002458
_cell_angle_beta	90.001765
_cell_angle_gamma	83.635248
loop_
_atom_site_label
_atom_site_type_symbol
_atom_site_fract_x
_atom_site_fract_y
_atom_site_fract_z
O1	O	1.196359	0.117707	-0.114215
O2	O	1.696359	0.617707	0.385785
O3	O	0.933899	0.131727	-0.114230
O4	O	1.433899	0.631727	0.385770
O5	O	1.072140	-0.006513	-0.114226
O6	O	1.572140	0.493487	0.385774
O7	O	1.058118	0.255947	-0.114219
O8	O	1.558118	0.755947	0.385781
O9	O	1.072138	-0.006509	0.114354
O10	O	1.572138	0.493491	0.614354
O11	O	0.933898	0.131730	0.114350
O12	O	1.433898	0.631730	0.614350
O13	O	1.196357	0.117710	0.114365
O14	O	1.696357	0.617710	0.614365
Zn15	Zn	1.065127	0.124721	0.150649
Zn16	Zn	1.565127	0.624721	0.650649
Zn17	Zn	1.065129	0.124716	-0.150515
Zn18	Zn	1.565129	0.624716	0.349485
O19	O	1.058117	0.255950	0.114361
O20	O	1.558117	0.755950	0.614361
C21	C	0.900310	0.131093	0.000058
C22	C	1.400310	0.631093	0.500058
C23	C	0.800226	0.129189	0.000051
C24	C	1.300226	0.629189	0.500051
C25	C	0.763850	0.046178	0.000044
C26	C	1.263850	0.546178	0.500044
C27	C	0.742560	0.210410	0.000064
C28	C	1.242560	0.710410	0.500064
C29	C	0.648526	0.208624	0.000066
C30	C	1.148526	0.708624	0.500066
C31	C	0.612150	0.125613	0.000058
C32	C	1.112150	0.625613	0.500058
C33	C	0.669807	0.044389	0.000050
C34	C	1.169807	0.544389	0.500050
C35	C	0.590862	0.289847	0.000088
C36	C	1.090862	0.789847	0.500088
C37	C	0.496821	0.288064	0.000091
C38	C	0.996821	0.788064	0.500091
C39	C	0.460443	0.205052	0.000074
C40	C	0.960443	0.705052	0.500074
C41	C	0.518107	0.123824	0.000064
C42	C	1.018107	0.623824	0.500064
C43	C	0.481730	0.040813	0.000057
C44	C	0.981730	0.540813	0.500057
C45	C	0.539393	-0.040415	0.000037
C46	C	1.039393	0.459585	0.500037
C47	C	0.633429	-0.038623	0.000033
C48	C	1.133429	0.461377	0.500033
C49	C	0.366407	0.203259	0.000079
C50	C	0.866407	0.703259	0.500079
C51	C	0.387688	0.039024	0.000063
C52	C	0.887688	0.539024	0.500063
C53	C	1.071504	-0.040100	0.000060
C54	C	1.571504	0.459900	0.500060
C55	C	1.069600	-0.140183	0.000047
C56	C	1.569600	0.359817	0.500047
C57	C	0.979434	-0.552718	0.000068
C58	C	1.479434	-0.052718	0.500068
C59	C	1.143667	-0.573998	0.000078
C60	C	1.643667	-0.073998	0.500078
C61	C	1.145457	-0.479964	0.000070
C62	C	1.645457	0.020036	0.500070
C63	C	1.064234	-0.422303	0.000063
C64	C	1.564234	0.077697	0.500063
C65	C	0.981222	-0.458675	0.000065
C66	C	1.481222	0.041325	0.500065
C67	C	1.228468	-0.443585	0.000082
C68	C	1.728468	0.056415	0.500082
C69	C	1.230262	-0.349545	0.000076
C70	C	1.730262	0.150455	0.500076
C71	C	1.149038	-0.291882	0.000060
C72	C	1.649038	0.208118	0.500060
C73	C	1.066022	-0.328260	0.000059
C74	C	1.566022	0.171740	0.500059
C75	C	0.984800	-0.270599	0.000053
C76	C	1.484800	0.229401	0.500053
C77	C	0.901783	-0.306974	0.000043
C78	C	1.401783	0.193026	0.500043
C79	C	0.899998	-0.401012	0.000048
C80	C	1.399998	0.098988	0.500048
C81	C	1.150822	-0.197845	0.000054
C82	C	1.650822	0.302155	0.500054
C83	C	0.986587	-0.176556	0.000049
C84	C	1.486587	0.323444	0.500049
C85	C	1.229947	0.118344	0.000074
C86	C	1.729947	0.618344	0.500074
C87	C	1.330030	0.120249	0.000071
C88	C	1.830030	0.620249	0.500071
C89	C	1.058753	0.289537	0.000072
C90	C	1.558753	0.789537	0.500072
C91	C	1.060657	0.389621	0.000075
C92	C	1.560657	0.889621	0.500075
N93	N	1.065132	0.124724	0.356186
N94	N	1.565132	0.624724	0.856186
N95	N	1.065131	0.124707	-0.356051
N96	N	1.565131	0.624707	0.143949
C97	C	1.126361	0.063532	0.428113
C98	C	1.626361	0.563532	0.928113
C99	C	1.126358	0.063521	0.571996
C100	C	1.626358	0.563521	1.071996
C101	C	1.003896	0.185901	0.572011
C102	C	1.503896	0.685901	1.072011
C103	C	1.003895	0.185907	0.428131
C104	C	1.503895	0.685907	0.928131
C105	C	1.197066	-0.007121	0.428106
C106	C	1.697066	0.492879	0.928106
C107	C	1.197064	-0.007132	0.571989
C108	C	1.697064	0.492868	1.071989
H109	H	0.319463	0.269395	0.000107
H110	H	0.819463	0.769395	0.500107
H111	H	1.262361	0.014350	0.383484
H112	H	1.762361	0.514350	0.883484
H113	H	1.294595	-0.490539	0.000101
H114	H	1.794595	0.009461	0.500101
H115	H	0.810802	-0.019956	0.000022
H116	H	1.310802	0.480044	0.500022
H117	H	0.920445	-0.129613	0.000037
H118	H	1.420445	0.370387	0.500037
Br119	Br	0.920783	0.268940	0.330511
Br120	Br	1.420783	0.768940	0.830511
Br121	Br	1.161358	-0.115999	0.646361
Br122	Br	1.661358	0.384001	1.146361
H123	H	0.449880	0.354205	0.000106
H124	H	0.949880	0.854205	0.500106
Br125	Br	1.342924	-0.300186	0.000068
Br126	Br	1.842924	0.199814	0.500068
H127	H	1.209794	-0.620951	0.000094
H128	H	1.709794	-0.120951	0.500094
H129	H	1.266232	0.007799	0.611044
H130	H	1.766232	0.507799	1.111044
H131	H	0.835651	-0.260014	0.000047
H132	H	1.335651	0.239986	0.500047
Br133	Br	0.490013	-0.153069	0.000046
Br134	Br	0.990013	0.346931	0.500046
Br135	Br	0.338328	-0.073640	0.000036
Br136	Br	0.838328	0.426360	0.500036
H137	H	1.182189	-0.076305	0.389049
H138	H	1.682189	0.423695	0.889049
H139	H	0.832410	-0.430638	0.000041
H140	H	1.332410	0.069362	0.500041
H141	H	0.680385	-0.104755	0.000019
H142	H	1.180385	0.395245	0.500019
Br143	Br	0.791929	0.323063	0.000081
Br144	Br	1.291929	0.823063	0.500081
H145	H	0.620487	0.357430	0.000103
H146	H	1.120487	0.857430	0.500103
Br147	Br	0.866774	-0.602081	0.000035
Br148	Br	1.366774	-0.102081	0.500035
H149	H	1.218413	-0.168232	0.000071
H150	H	1.718413	0.331768	0.500071
Br151	Br	0.920790	0.268931	0.669658
Br152	Br	1.420790	0.768931	1.169658
