data_functionalizedCrystal
_audit_creation_method	'MofGen! by Chris Wilmer'
_symmetry_space_group_name_H-M	'P1'
_symmetry_Int_Tables_number	1
_symmetry_cell_setting	triclinic
loop_
_symmetry_equiv_pos_as_xyz
  x,y,z
_cell_length_a	17.699083
_cell_length_b	11.792241
_cell_length_c	16.176319
_cell_angle_alpha	89.993071
_cell_angle_beta	89.998611
_cell_angle_gamma	83.738215
loop_
_atom_site_label
_atom_site_type_symbol
_atom_site_fract_x
_atom_site_fract_y
_atom_site_fract_z
O1	O	1.004844	0.143527	-0.068631
O2	O	1.504844	0.643527	0.431369
O3	O	0.784565	0.162200	-0.068658
O4	O	1.284565	0.662200	0.431342
O5	O	0.900050	-0.012371	-0.068638
O6	O	1.400050	0.487629	0.431362
O7	O	0.889359	0.318098	-0.068651
O8	O	1.389359	0.818098	0.431349
O9	O	0.900034	-0.012382	0.068855
O10	O	1.400034	0.487618	0.568855
O11	O	0.784549	0.162189	0.068835
O12	O	1.284549	0.662189	0.568835
O13	O	1.004828	0.143516	0.068862
O14	O	1.504828	0.643516	0.568862
Cu15	Cu	0.894687	0.152851	0.081403
Cu16	Cu	1.394687	0.652851	0.581403
Cu17	Cu	0.894706	0.152865	-0.081199
Cu18	Cu	1.394706	0.652865	0.418801
O19	O	0.889343	0.318087	0.068842
O20	O	1.389343	0.818087	0.568842
C21	C	0.756356	0.161525	0.000085
C22	C	1.256356	0.661525	0.500085
C23	C	0.672328	0.159518	0.000075
C24	C	1.172328	0.659518	0.500075
C25	C	0.624253	0.261988	0.000071
C26	C	1.124253	0.761988	0.500071
C27	C	0.545299	0.260095	0.000082
C28	C	1.045299	0.760095	0.500082
C29	C	0.514422	0.155731	0.000091
C30	C	1.014422	0.655731	0.500091
C31	C	0.562503	0.053254	0.000097
C32	C	1.062503	0.553254	0.500097
C33	C	0.641455	0.055148	0.000092
C34	C	1.141455	0.555148	0.500092
C35	C	0.244099	0.045613	0.000118
C36	C	0.744099	0.545613	0.500118
C37	C	0.165141	0.043727	0.000120
C38	C	0.665141	0.543727	0.500120
C39	C	0.147944	0.250560	0.000108
C40	C	0.647944	0.750560	0.500108
C41	C	0.226896	0.252454	0.000103
C42	C	0.726896	0.752454	0.500103
C43	C	0.274970	0.149977	0.000113
C44	C	0.774970	0.649977	0.500113
C45	C	0.360580	0.152031	0.000103
C46	C	0.860580	0.652031	0.500103
C47	C	0.428814	0.153676	0.000095
C48	C	0.928814	0.653676	0.500095
C49	C	0.899370	-0.054660	0.000108
C50	C	1.399370	0.445340	0.500108
C51	C	0.897360	-0.180649	0.000107
C52	C	1.397360	0.319351	0.500107
C53	C	0.893664	-0.411317	0.000093
C54	C	1.393664	0.088683	0.500093
C55	C	0.895718	-0.282956	0.000101
C56	C	1.395718	0.217044	0.500101
C57	C	1.033036	0.144190	0.000117
C58	C	1.533036	0.644190	0.500117
C59	C	1.117065	0.146198	0.000122
C60	C	1.617065	0.646198	0.500122
C61	C	0.890022	0.360375	0.000094
C62	C	1.390022	0.860375	0.500094
C63	C	0.892032	0.486365	0.000090
C64	C	1.392032	0.986365	0.500090
N65	N	0.894679	0.152841	0.195768
N66	N	1.394679	0.652841	0.695768
N67	N	0.894720	0.152865	-0.195564
N68	N	1.394720	0.652865	0.304436
C69	C	0.945831	0.075573	0.239041
C70	C	1.445831	0.575573	0.739041
C71	C	0.945835	0.075572	0.325588
C72	C	1.445835	0.575572	0.825588
C73	C	0.894690	0.152845	0.368861
C74	C	1.394690	0.652845	0.868861
C75	C	0.843532	0.230118	0.325582
C76	C	1.343532	0.730118	0.825582
C77	C	0.843525	0.230113	0.239036
C78	C	1.343525	0.730113	0.739036
C79	C	0.843558	0.230139	0.674610
C80	C	1.343558	0.730139	1.174610
C81	C	0.843570	0.230140	0.761161
C82	C	1.343570	0.730140	1.261161
C83	C	0.945868	0.075598	0.761162
C84	C	1.445868	0.575598	1.261162
C85	C	0.945861	0.075593	0.674617
C86	C	1.445861	0.575593	1.174617
C87	C	0.894701	0.152861	0.631345
C88	C	1.394701	0.652861	1.131345
C89	C	0.894697	0.152860	0.537501
C90	C	1.394697	0.652860	1.037501
C91	C	0.894697	0.152853	0.462703
C92	C	1.394697	0.652853	0.962703
H93	H	0.680598	-0.028294	0.000095
H94	H	1.180598	0.471706	0.500095
H95	H	0.140005	-0.041263	0.000128
H96	H	0.640005	0.458737	0.500128
C97	C	1.002091	-0.009431	0.191449
C98	C	1.502091	0.490569	0.691449
H99	H	1.032551	-0.055456	0.229620
H100	H	1.532551	0.444544	0.729620
H101	H	1.033760	0.031331	0.157677
H102	H	1.533760	0.531331	0.657677
H103	H	0.974666	-0.056632	0.157699
H104	H	1.474666	0.443368	0.657699
C105	C	0.658211	0.376789	0.000061
C106	C	1.158211	0.876789	0.500061
H107	H	0.618268	0.437544	0.000068
H108	H	1.118268	0.937544	0.500068
H109	H	0.688651	0.381834	-0.047887
H110	H	1.188651	0.881834	0.452113
H111	H	0.688652	0.381823	0.048013
H112	H	1.188652	0.881823	0.548013
H113	H	0.801919	0.293068	0.796392
H114	H	1.301919	0.793068	1.296392
H115	H	0.283232	-0.037830	0.000127
H116	H	0.783232	0.462170	0.500127
C117	C	0.787249	0.315086	0.373175
C118	C	1.287249	0.815086	0.873175
H119	H	0.756772	0.361087	0.335006
H120	H	1.256772	0.861087	0.835006
H121	H	0.814644	0.362298	0.406940
H122	H	1.314644	0.862298	0.906940
H123	H	0.755588	0.274277	0.406932
H124	H	1.255588	0.774277	0.906932
H125	H	0.801871	0.293031	0.203804
H126	H	1.301871	0.793031	0.703804
C127	C	0.787305	0.315156	0.627018
C128	C	1.287305	0.815156	1.127018
H129	H	0.794621	0.304091	0.569277
H130	H	1.294621	0.804091	1.069277
H131	H	0.795849	0.390880	0.641201
H132	H	1.295849	0.890880	1.141201
H133	H	0.736739	0.302941	0.641205
H134	H	1.236739	0.802941	1.141205
C135	C	0.528541	-0.061544	0.000105
C136	C	1.028541	0.438456	0.500105
H137	H	0.474634	-0.047998	0.000098
H138	H	0.974634	0.452002	0.500098
H139	H	0.545014	-0.103733	0.048052
H140	H	1.045014	0.396267	0.548052
H141	H	0.545014	-0.103719	-0.047848
H142	H	1.045014	0.396281	0.452152
H143	H	0.506159	0.343536	0.000078
H144	H	1.006159	0.843536	0.500078
H145	H	0.252031	0.337438	0.000092
H146	H	0.752031	0.837438	0.500092
H147	H	0.987487	0.012653	0.360821
H148	H	1.487487	0.512653	0.860821
H149	H	0.108792	0.334002	0.000103
H150	H	0.608792	0.834002	0.500103
C151	C	1.002119	-0.009411	0.627021
C152	C	1.502119	0.490589	1.127021
H153	H	1.032580	-0.055439	0.665189
H154	H	1.532580	0.444561	1.165189
H155	H	1.033786	0.031351	0.593248
H156	H	1.533786	0.531351	1.093248
H157	H	0.974691	-0.056610	0.593273
H158	H	1.474691	0.443390	1.093273
C159	C	1.002137	-0.009408	0.808763
C160	C	1.502137	0.490592	1.308763
H161	H	0.994812	0.001649	0.866504
H162	H	1.494812	0.501649	1.366504
H163	H	1.052695	0.002823	0.794573
H164	H	1.552695	0.502823	1.294573
H165	H	0.993604	-0.085144	0.794586
H166	H	1.493604	0.414856	1.294586
