data_functionalizedCrystal
_audit_creation_method	'MofGen! by Chris Wilmer'
_symmetry_space_group_name_H-M	'P1'
_symmetry_Int_Tables_number	1
_symmetry_cell_setting	triclinic
loop_
_symmetry_equiv_pos_as_xyz
  x,y,z
_cell_length_a	25.639242
_cell_length_b	25.639240
_cell_length_c	11.169409
_cell_angle_alpha	89.953536
_cell_angle_beta	89.968060
_cell_angle_gamma	90.028283
loop_
_atom_site_label
_atom_site_type_symbol
_atom_site_fract_x
_atom_site_fract_y
_atom_site_fract_z
Zn1	Zn	0.799297	-0.208171	-0.678813
Zn2	Zn	0.799215	-0.295621	-0.478080
Zn3	Zn	0.711858	-0.208194	-0.478105
Zn4	Zn	0.711828	-0.295570	-0.678683
O5	O	0.755549	-0.251889	-0.578420
O6	O	0.872451	-0.219783	-0.652229
O7	O	0.787605	-0.284055	-0.310134
O8	O	0.723505	-0.135026	-0.504794
O9	O	0.872391	-0.284032	-0.504752
O10	O	0.787746	-0.135009	-0.652253
O11	O	0.723425	-0.219823	-0.310152
O12	O	0.638689	-0.219774	-0.504668
O13	O	0.723452	-0.283945	-0.846650
O14	O	0.638666	-0.283968	-0.652031
O15	O	0.787716	-0.219733	-0.846745
O16	O	0.787575	-0.368779	-0.504626
O17	O	0.723372	-0.368742	-0.652007
C18	C	0.619707	-0.251868	-0.578339
C19	C	0.561593	-0.251872	-0.578332
C20	C	0.201227	-0.285371	-0.655080
C21	C	0.146623	-0.285374	-0.655098
O22	O	0.118383	-0.313831	-0.720283
N23	N	0.119310	-0.251903	-0.578498
C24	C	0.146605	-0.218424	-0.501883
O25	O	0.118360	-0.189954	-0.436731
C26	C	0.201209	-0.218418	-0.501871
C27	C	0.228518	-0.251895	-0.578467
C28	C	0.228536	-0.318845	-0.731671
C29	C	0.283137	-0.318842	-0.731650
C30	C	0.310428	-0.285366	-0.655038
C31	C	0.283119	-0.251892	-0.578447
C32	C	0.228503	-0.184936	-0.425262
C33	C	0.283110	-0.184933	-0.425258
C34	C	0.310419	-0.218410	-0.501854
C35	C	0.365010	-0.218413	-0.501814
N36	N	0.392322	-0.251884	-0.578414
C37	C	0.365031	-0.285360	-0.655026
C38	C	0.031935	-0.218437	-0.501915
C39	C	-0.022668	-0.218445	-0.501920
C40	C	-0.022647	-0.285395	-0.655138
C41	C	0.031957	-0.285389	-0.655126
C42	C	0.059247	-0.251908	-0.578515
C43	C	0.479696	-0.285353	-0.654976
C44	C	0.534302	-0.285348	-0.654944
C45	C	0.534276	-0.218397	-0.501732
C46	C	0.479675	-0.218402	-0.501758
C47	C	0.452387	-0.251882	-0.578390
O48	O	0.393284	-0.189970	-0.436666
O49	O	0.393283	-0.313820	-0.720178
C50	C	0.755476	-0.387732	-0.578326
C51	C	0.755492	-0.445846	-0.578326
C52	C	0.789016	-0.806161	-0.655341
C53	C	0.789032	-0.860765	-0.655365
O54	O	0.817447	-0.888962	-0.720749
N55	N	0.755622	-0.888128	-0.578536
C56	C	0.722191	-0.860884	-0.501686
O57	O	0.693775	-0.889172	-0.436340
C58	C	0.722173	-0.806280	-0.501669
C59	C	0.755589	-0.778920	-0.578494
C60	C	0.822429	-0.778801	-0.732161
C61	C	0.822414	-0.724201	-0.732134
C62	C	0.788987	-0.696960	-0.655288
C63	C	0.755574	-0.724320	-0.578468
C64	C	0.688740	-0.779037	-0.424826
C65	C	0.688725	-0.724430	-0.424816
C66	C	0.722141	-0.697070	-0.501641
C67	C	0.722132	-0.642479	-0.501595
N68	N	0.755542	-0.615116	-0.578424
C69	C	0.788969	-0.642357	-0.655271
C70	C	0.722230	-0.975554	-0.501730
C71	C	0.722250	-1.030157	-0.501741
C72	C	0.789090	-1.030035	-0.655421
C73	C	0.789072	-0.975431	-0.655404
C74	C	0.755640	-0.948192	-0.578559
C75	C	0.788935	-0.527692	-0.655209
C76	C	0.788919	-0.473086	-0.655172
C77	C	0.722077	-0.473213	-0.501497
C78	C	0.722095	-0.527814	-0.501528
C79	C	0.755526	-0.555052	-0.578394
O80	O	0.693729	-0.614248	-0.436248
O81	O	0.817376	-0.614062	-0.720617
C82	C	0.891922	-0.251910	-0.578502
C83	C	0.950036	-0.251919	-0.578537
C84	C	0.755590	-0.251831	-0.891463
C85	C	0.755607	-0.251806	-1.024863
C86	C	0.755638	-0.115516	-0.578541
C87	C	0.755676	-0.057402	-0.578592
C88	C	0.755540	-0.251909	-0.266595
C89	C	0.755624	-0.251787	-0.133196
H90	H	-0.044877	-0.312651	-0.717524
H91	H	0.457439	-0.191144	-0.439385
H92	H	0.816132	-0.450812	-0.717733
H93	H	0.054188	-0.312648	-0.717499
H94	H	0.816154	-0.549862	-0.717809
H95	H	0.054151	-0.191173	-0.439521
H96	H	0.849622	-0.701928	-0.794696
H97	H	0.206277	-0.157677	-0.362886
H98	H	0.457484	-0.312614	-0.717379
H99	H	0.206322	-0.346105	-0.794064
H100	H	0.556506	-0.191143	-0.439352
H101	H	0.849649	-0.800975	-0.794745
H102	H	0.305367	-0.346101	-0.794025
H103	H	0.695007	-0.953378	-0.439144
H104	H	0.661530	-0.801304	-0.362266
H105	H	-0.044898	-0.191190	-0.439536
H106	H	0.816282	-0.953158	-0.717962
H107	H	0.305327	-0.157665	-0.362878
H108	H	0.816308	-1.052224	-0.717996
H109	H	0.695045	-1.052428	-0.439169
H110	H	0.661498	-0.702254	-0.362241
H111	H	0.694890	-0.550091	-0.438961
H112	H	0.556534	-0.312611	-0.717320
H113	H	0.694863	-0.451025	-0.438925
