data_functionalizedCrystal
_audit_creation_method	'MofGen! by Chris Wilmer'
_symmetry_space_group_name_H-M	'P1'
_symmetry_Int_Tables_number	1
_symmetry_cell_setting	triclinic
loop_
_symmetry_equiv_pos_as_xyz
  x,y,z
_cell_length_a	13.033293
_cell_length_b	16.625545
_cell_length_c	13.033255
_cell_angle_alpha	97.153062
_cell_angle_beta	74.801189
_cell_angle_gamma	97.195104
loop_
_atom_site_label
_atom_site_type_symbol
_atom_site_fract_x
_atom_site_fract_y
_atom_site_fract_z
Zn1	Zn	1.700224	-0.233626	-0.807154
Zn2	Zn	1.677536	-0.353291	-0.629524
Zn3	Zn	1.500032	-0.233642	-0.606960
Zn4	Zn	1.522526	-0.383595	-0.784494
O5	O	1.600080	-0.301038	-0.707033
O6	O	1.845867	-0.236810	-0.802518
O7	O	1.635080	-0.324743	-0.477894
O8	O	1.526670	-0.120803	-0.633557
O9	O	1.829198	-0.324728	-0.672014
O10	O	1.673750	-0.120791	-0.780638
O11	O	1.504670	-0.236838	-0.461316
O12	O	1.354363	-0.266222	-0.611584
O13	O	1.565007	-0.376377	-0.936137
O14	O	1.370889	-0.376393	-0.742017
O15	O	1.695561	-0.266195	-0.952785
O16	O	1.656892	-0.470147	-0.650041
O17	O	1.543007	-0.492412	-0.763896
C18	C	1.324082	-0.324598	-0.671893
C19	C	1.206013	-0.334699	-0.656886
C20	C	1.161634	-0.295787	-0.714865
C21	C	1.039603	-0.306226	-0.699356
C22	C	1.599960	-0.510536	-0.706985
C23	C	1.600010	-0.600155	-0.707012
C24	C	1.600054	-0.672936	-0.707038
C25	C	1.600119	-0.764241	-0.707070
C26	C	1.600176	-0.837014	-0.707090
C27	C	1.600240	-0.928325	-0.707120
C28	C	1.877155	-0.277387	-0.742310
C29	C	1.995227	-0.267308	-0.757344
C30	C	1.635324	-0.324665	-0.984079
C31	C	1.650343	-0.334733	-1.102139
C32	C	1.600232	-0.090722	-0.707108
C33	C	1.600296	-0.001098	-0.707140
C34	C	1.608044	-0.306131	-1.268599
C35	C	1.592512	-0.295724	-1.146576
C36	C	1.565033	-0.277440	-0.431073
C37	C	1.550220	-0.267128	-0.313039
H38	H	1.153664	-0.375739	-0.595762
N39	N	1.469418	-0.212678	-1.243797
H40	H	1.395942	-0.233307	-1.253383
H41	H	1.469867	-0.212975	-1.166473
N42	N	0.970269	-0.360588	-0.618382
H43	H	0.929713	-0.405588	-0.655649
H44	H	1.016716	-0.385064	-0.581839
N45	N	1.064549	-0.212932	-0.838306
H46	H	1.141898	-0.213179	-0.837910
H47	H	1.054874	-0.233678	-0.911698
N48	N	1.511708	-0.241278	-1.077318
H49	H	1.530686	-0.183888	-1.098689
H50	H	1.438261	-0.261973	-1.086925
N51	N	1.731150	-0.389182	-1.171382
H52	H	1.730792	-0.388902	-1.248736
H53	H	1.804583	-0.368519	-1.161708
N54	N	1.230964	-0.241436	-0.795849
H55	H	1.308313	-0.241692	-0.795460
H56	H	1.221274	-0.262203	-0.869230
N57	N	1.688840	-0.360582	-1.337847
H58	H	1.688478	-0.360302	-1.415200
H59	H	1.762276	-0.339924	-1.328178
