data_functionalizedCrystal
_audit_creation_method	'MofGen! by Chris Wilmer'
_symmetry_space_group_name_H-M	'P1'
_symmetry_Int_Tables_number	1
_symmetry_cell_setting	triclinic
loop_
_symmetry_equiv_pos_as_xyz
  x,y,z
_cell_length_a	17.699077
_cell_length_b	10.723024
_cell_length_c	16.776229
_cell_angle_alpha	89.994545
_cell_angle_beta	89.993415
_cell_angle_gamma	83.874223
loop_
_atom_site_label
_atom_site_type_symbol
_atom_site_fract_x
_atom_site_fract_y
_atom_site_fract_z
O1	O	1.005076	0.157762	-0.066276
O2	O	1.505076	0.657762	0.433724
O3	O	0.784827	0.178299	-0.066279
O4	O	1.284827	0.678299	0.433721
O5	O	0.900032	-0.013633	-0.066274
O6	O	1.400032	0.486367	0.433726
O7	O	0.889871	0.349694	-0.066280
O8	O	1.389871	0.849694	0.433720
O9	O	0.900017	-0.013645	0.066302
O10	O	1.400017	0.486355	0.566302
O11	O	0.784811	0.178287	0.066297
O12	O	1.284811	0.678287	0.566297
O13	O	1.005061	0.157750	0.066301
O14	O	1.505061	0.657750	0.566301
Zn15	Zn	0.894934	0.168017	0.087348
Zn16	Zn	1.394934	0.668017	0.587348
Zn17	Zn	0.894954	0.168032	-0.087327
Zn18	Zn	1.394954	0.668032	0.412673
O19	O	0.889856	0.349682	0.066296
O20	O	1.389856	0.849682	0.566296
C21	C	0.756618	0.177559	0.000009
C22	C	1.256618	0.677559	0.500009
C23	C	0.672585	0.175355	0.000007
C24	C	1.172585	0.675355	0.500007
C25	C	0.633103	0.174310	0.072275
C26	C	1.133103	0.674310	0.572275
C27	C	0.554147	0.172219	0.072276
C28	C	1.054147	0.672219	0.572276
C29	C	0.514675	0.171182	0.000008
C30	C	1.014675	0.671182	0.500008
C31	C	0.554163	0.172223	-0.072266
C32	C	1.054163	0.672223	0.427734
C33	C	0.633118	0.174305	-0.072266
C34	C	1.133118	0.674305	0.427734
C35	C	0.235747	0.163826	-0.072267
C36	C	0.735747	0.663826	0.427733
C37	C	0.156786	0.161748	-0.072262
C38	C	0.656786	0.661748	0.427738
C39	C	0.156776	0.161740	0.072275
C40	C	0.656776	0.661740	0.572275
C41	C	0.235731	0.163822	0.072275
C42	C	0.735731	0.663822	0.572275
C43	C	0.275213	0.164856	0.000002
C44	C	0.775213	0.664856	0.500002
C45	C	0.360826	0.167121	0.000001
C46	C	0.860826	0.667121	0.500001
C47	C	0.429062	0.168927	0.000007
C48	C	0.929062	0.668927	0.500007
C49	C	0.899285	-0.060126	0.000013
C50	C	1.399285	0.439874	0.500013
C51	C	0.897073	-0.198642	0.000010
C52	C	1.397073	0.301358	0.500010
C53	C	0.961535	-0.274732	0.000010
C54	C	1.461535	0.225268	0.500010
C55	C	0.959250	-0.417896	0.000007
C56	C	1.459250	0.082104	0.500007
C57	C	1.033270	0.158490	0.000011
C58	C	1.533270	0.658490	0.500011
C59	C	1.117303	0.160694	0.000008
C60	C	1.617303	0.660694	0.500008
C61	C	0.890603	0.396175	0.000007
C62	C	1.390603	0.896175	0.500007
C63	C	0.892815	0.534691	0.000005
C64	C	1.392815	1.034691	0.500005
N65	N	0.894925	0.168005	0.206560
N66	N	1.394925	0.668005	0.706560
N67	N	0.894969	0.168034	-0.206538
N68	N	1.394969	0.668034	0.293462
C69	C	0.945954	0.083053	0.248279
C70	C	1.445954	0.583053	0.748279
C71	C	0.945958	0.083052	0.331731
C72	C	1.445958	0.583052	0.831731
C73	C	0.894937	0.168010	0.373463
C74	C	1.394937	0.668010	0.873463
C75	C	0.843903	0.252967	0.331737
C76	C	1.343903	0.752967	0.831737
C77	C	0.843895	0.252961	0.248287
C78	C	1.343895	0.752961	0.748287
C79	C	0.843930	0.252992	0.668285
C80	C	1.343930	0.752992	1.168285
C81	C	0.843943	0.252993	0.751741
C82	C	1.343943	0.752993	1.251741
C83	C	0.945993	0.083082	0.751729
C84	C	1.445993	0.583082	1.251729
C85	C	0.945986	0.083076	0.668278
C86	C	1.445986	0.583076	1.168278
C87	C	0.894949	0.168028	0.626561
C88	C	1.394949	0.668028	1.126561
C89	C	0.894944	0.168026	0.536072
C90	C	1.394944	0.668026	1.036072
C91	C	0.894945	0.168019	0.463949
C92	C	1.394945	0.668019	0.963949
H93	H	0.267865	0.164672	0.131123
H94	H	0.767865	0.664672	0.631123
Cl95	Cl	1.049359	-0.211683	0.000006
Cl96	Cl	1.549359	0.288317	0.500006
Cl97	Cl	1.010152	-0.023722	0.804179
Cl98	Cl	1.510152	0.476278	1.304179
Cl99	Cl	0.682717	0.175621	0.163133
Cl100	Cl	1.182717	0.675621	0.663133
H101	H	0.522019	0.171370	-0.131108
H102	H	1.022019	0.671370	0.368892
H103	H	0.665263	0.175158	-0.131114
H104	H	1.165263	0.675158	0.368886
Cl105	Cl	1.010109	-0.023749	0.384180
Cl106	Cl	1.510109	0.476251	0.884180
H107	H	0.802392	0.322179	0.785718
H108	H	1.302392	0.822179	1.285718
Cl109	Cl	1.044457	-0.518833	0.000013
Cl110	Cl	1.544457	-0.018833	0.500013
Cl111	Cl	0.779775	0.359790	0.615845
Cl112	Cl	1.279775	0.859790	1.115845
Cl113	Cl	0.779739	0.359760	0.195840
Cl114	Cl	1.279739	0.859760	0.695840
H115	H	0.124621	0.160892	0.131124
H116	H	0.624621	0.660892	0.631124
H117	H	0.837627	-0.399936	0.000010
H118	H	1.337627	0.100064	0.500010
Cl119	Cl	0.285370	0.165129	-0.163126
Cl120	Cl	0.785370	0.665129	0.336874
Cl121	Cl	1.010103	-0.023754	0.195825
Cl122	Cl	1.510103	0.476246	0.695825
H123	H	0.124649	0.160903	-0.131115
H124	H	0.624649	0.660903	0.368885
Cl125	Cl	0.809249	-0.261692	0.000001
Cl126	Cl	1.309249	0.238308	0.500001
H127	H	0.987535	0.013899	0.634303
H128	H	1.487535	0.513899	1.134303
Cl129	Cl	0.779756	0.359769	0.384198
Cl130	Cl	1.279756	0.859769	0.884198
H131	H	0.522006	0.171347	0.131124
H132	H	1.022006	0.671347	0.631124
