data_functionalizedCrystal
_audit_creation_method	'MofGen! by Chris Wilmer'
_symmetry_space_group_name_H-M	'P1'
_symmetry_Int_Tables_number	1
_symmetry_cell_setting	triclinic
loop_
_symmetry_equiv_pos_as_xyz
  x,y,z
_cell_length_a	21.395364
_cell_length_b	18.050590
_cell_length_c	21.395355
_cell_angle_alpha	90.018036
_cell_angle_beta	90.024516
_cell_angle_gamma	90.014317
loop_
_atom_site_label
_atom_site_type_symbol
_atom_site_fract_x
_atom_site_fract_y
_atom_site_fract_z
Zn1	Zn	0.957912	-0.295829	0.354263
Zn2	Zn	1.457912	0.204171	0.854263
Zn3	Zn	0.957837	-0.420001	0.249486
Zn4	Zn	1.457837	0.079999	0.749486
Zn5	Zn	0.853127	-0.295820	0.249500
Zn6	Zn	1.353127	0.204180	0.749500
Zn7	Zn	0.853118	-0.419973	0.354227
Zn8	Zn	1.353118	0.080027	0.854227
O9	O	0.905498	-0.357906	0.301869
O10	O	1.405498	0.142094	0.801869
O11	O	1.045580	-0.312317	0.340374
O12	O	1.545580	0.187683	0.840374
O13	O	0.943919	-0.403536	0.161810
O14	O	1.443919	0.096464	0.661810
O15	O	0.867062	-0.191897	0.263418
O16	O	1.367062	0.308103	0.763418
O17	O	1.045525	-0.403545	0.263395
O18	O	1.545525	0.096455	0.763395
O19	O	0.944047	-0.191904	0.340387
O20	O	1.444047	0.308096	0.840387
O21	O	0.866989	-0.312301	0.161820
O22	O	1.366989	0.187699	0.661820
O23	O	0.765448	-0.312274	0.263382
O24	O	1.265448	0.187726	0.763382
O25	O	0.867047	-0.403497	0.441909
O26	O	1.367047	0.096503	0.941909
O27	O	0.765442	-0.403488	0.340325
O28	O	1.265442	0.096512	0.840325
O29	O	0.944039	-0.312289	0.441936
O30	O	1.444039	0.187711	0.941936
O31	O	0.943910	-0.523922	0.263360
O32	O	1.443910	-0.023922	0.763360
O33	O	0.866974	-0.523901	0.340312
O34	O	1.366974	-0.023901	0.840312
C35	C	0.742711	-0.357877	0.301851
C36	C	1.242711	0.142123	0.801851
C37	C	0.673070	-0.357883	0.301859
C38	C	1.173070	0.142117	0.801859
C39	C	0.171302	-0.310515	0.342026
C40	C	0.671302	0.189485	0.842026
C41	C	0.236737	-0.310510	0.342026
C42	C	0.736737	0.189490	0.842026
C43	C	0.269431	-0.357929	0.301883
C44	C	0.769431	0.142071	0.801883
C45	C	0.236685	-0.405370	0.261749
C46	C	0.736685	0.094630	0.761749
C47	C	0.171251	-0.405379	0.261754
C48	C	0.671251	0.094621	0.761754
C49	C	0.373069	-0.363679	0.245416
C50	C	0.873069	0.136321	0.745416
C51	C	0.438502	-0.363665	0.245409
C52	C	0.938502	0.136335	0.745409
C53	C	0.471252	-0.357904	0.301866
C54	C	0.971252	0.142096	0.801866
C55	C	0.438561	-0.352142	0.358331
C56	C	0.938561	0.147858	0.858331
C57	C	0.373127	-0.352152	0.358337
C58	C	0.873127	0.147848	0.858337
C59	C	0.340384	-0.357924	0.301873
C60	C	0.840384	0.142076	0.801873
C61	C	0.574943	-0.310463	0.342000
C62	C	1.074943	0.189537	0.842000
C63	C	0.640380	-0.310463	0.342001
C64	C	1.140380	0.189537	0.842001
C65	C	0.640326	-0.405319	0.261718
C66	C	1.140326	0.094681	0.761718
C67	C	0.574891	-0.405323	0.261723
C68	C	1.074891	0.094677	0.761723
C69	C	0.542203	-0.357892	0.301863
C70	C	1.042203	0.142108	0.801863
C71	C	0.905450	-0.550858	0.301844
C72	C	1.405450	-0.050858	0.801844
C73	C	0.905487	-0.633404	0.301854
C74	C	1.405487	-0.133404	0.801854
C75	C	0.947412	-0.832839	0.260066
C76	C	1.447412	-0.332839	0.760066
C77	C	0.962722	-0.882185	0.317250
C78	C	1.462722	-0.382185	0.817250
C79	C	0.905523	-0.784534	0.301879
C80	C	1.405523	-0.284534	0.801879
C81	C	0.890276	-0.882270	0.244721
C82	C	1.390276	-0.382270	0.744721
C83	C	0.905558	-0.930519	0.301898
C84	C	1.405558	-0.430519	0.801898
C85	C	0.920862	-0.832793	0.359093
C86	C	1.420862	-0.332793	0.859093
C87	C	0.848390	-0.832873	0.286526
C88	C	1.348390	-0.332873	0.786526
C89	C	0.863678	-0.882197	0.343749
C90	C	1.363678	-0.382197	0.843749
C91	C	0.905504	-0.700436	0.301867
C92	C	1.405504	-0.200436	0.801867
C93	C	0.905577	-1.014616	0.301917
C94	C	1.405577	-0.514616	0.801917
C95	C	1.068922	-0.357935	0.301887
C96	C	1.568922	0.142065	0.801887
C97	C	1.138563	-0.357947	0.301894
C98	C	1.638563	0.142053	0.801894
C99	C	0.905550	-0.357891	0.465292
C100	C	1.405550	0.142109	0.965292
C101	C	0.905573	-0.357885	0.534933
C102	C	1.405573	0.142115	1.034933
C103	C	0.905564	-0.164200	0.301908
C104	C	1.405564	0.335800	0.801908
C105	C	0.905592	-0.081655	0.301924
C106	C	1.405592	0.418345	0.801924
C107	C	0.905483	-0.357867	0.139081
C108	C	1.405483	0.142133	0.639081
C109	C	0.905582	-0.357665	0.069440
C110	C	1.405582	0.142335	0.569440
C111	C	0.945660	-0.310391	0.567662
C112	C	1.445660	0.189609	1.067662
C113	C	0.945659	-0.310359	0.633097
C114	C	1.445659	0.189641	1.133097
C115	C	0.905578	-0.357834	0.665802
C116	C	1.405578	0.142166	1.165802
C117	C	0.865482	-0.405331	0.633066
C118	C	1.365482	0.094669	1.133066
C119	C	0.865480	-0.405356	0.567632
C120	C	1.365480	0.094644	1.067632
C121	C	0.900614	-0.424703	0.769468
C122	C	1.400614	0.075297	1.269468
C123	C	0.900620	-0.424678	0.834901
C124	C	1.400620	0.075322	1.334901
C125	C	0.905581	-0.357755	0.867623
C126	C	1.405581	0.142245	1.367623
C127	C	0.910549	-0.290854	0.834904
C128	C	1.410549	0.209146	1.334904
C129	C	0.910546	-0.290880	0.769469
C130	C	1.410546	0.209120	1.269469
C131	C	0.905575	-0.357811	0.736754
C132	C	1.405575	0.142189	1.236754
C133	C	0.945670	-0.310223	0.971303
C134	C	1.445670	0.189777	1.471303
C135	C	0.945665	-0.310190	1.036740
C136	C	1.445665	0.189810	1.536740
C137	C	0.865491	-0.405169	1.036708
C138	C	1.365491	0.094831	1.536708
C139	C	0.865493	-0.405195	0.971272
C140	C	1.365493	0.094805	1.471272
C141	C	0.905586	-0.357723	0.938574
C142	C	1.405586	0.142277	1.438574
H143	H	0.548328	-0.271841	0.374685
H144	H	1.048328	0.228159	0.874685
Cl145	Cl	0.809009	-0.915452	0.398415
Cl146	Cl	1.309009	-0.415452	0.898415
Cl147	Cl	1.002120	-0.799374	0.205528
Cl148	Cl	1.502120	-0.299374	0.705528
H149	H	0.263309	-0.443981	0.229066
H150	H	0.763309	0.056019	0.729066
H151	H	0.667035	-0.271840	0.374686
H152	H	1.167035	0.228160	0.874686
H153	H	0.144595	-0.444006	0.229074
H154	H	0.644595	0.055994	0.729074
Cl155	Cl	0.916788	-0.206717	0.876032
Cl156	Cl	1.416788	0.293283	1.376032
H157	H	0.832853	-0.443874	0.944625
H158	H	1.332853	0.056126	1.444625
Cl159	Cl	0.130212	-0.250893	0.392493
Cl160	Cl	0.630212	0.249107	0.892493
Cl161	Cl	0.479725	-0.344889	0.429309
Cl162	Cl	0.979725	0.155111	0.929309
Cl163	Cl	1.037343	-0.915613	0.337330
Cl164	Cl	1.537343	-0.415613	0.837330
H165	H	0.933724	-0.811153	0.407481
H166	H	1.433724	-0.311153	0.907481
H167	H	0.832832	-0.444031	0.540985
H168	H	1.332832	0.055969	1.040985
Cl169	Cl	0.681422	-0.464938	0.211258
Cl170	Cl	1.181422	0.035062	0.711258
Cl171	Cl	0.773788	-0.799406	0.266433
Cl172	Cl	1.273788	-0.299406	0.766433
Cl173	Cl	0.870344	-0.915824	0.170080
Cl174	Cl	1.370344	-0.415824	0.670080
H175	H	0.978307	-0.271734	0.541043
H176	H	1.478307	0.228266	1.041043
Cl177	Cl	0.916786	-0.206780	0.728339
Cl178	Cl	1.416786	0.293220	1.228339
Cl179	Cl	0.533731	-0.464944	0.211259
Cl180	Cl	1.033731	0.035056	0.711259
Cl181	Cl	0.996047	-0.250633	0.674249
Cl182	Cl	1.496047	0.249367	1.174249
Cl183	Cl	0.815091	-0.465011	0.674180
Cl184	Cl	1.315091	0.034989	1.174180
Cl185	Cl	0.479592	-0.370894	0.174424
Cl186	Cl	0.979592	0.129106	0.674424
Cl187	Cl	0.996068	-0.250542	0.930194
Cl188	Cl	1.496068	0.249458	1.430194
H189	H	0.346409	-0.368374	0.199439
H190	H	0.846409	0.131626	0.699439
H191	H	0.978308	-0.271510	1.063386
H192	H	1.478308	0.228490	1.563386
H193	H	0.832849	-0.443816	1.063335
H194	H	1.332849	0.056184	1.563335
Cl195	Cl	0.894395	-0.508845	0.728339
Cl196	Cl	1.394395	-0.008845	1.228339
Cl197	Cl	0.277903	-0.250874	0.392479
Cl198	Cl	0.777903	0.249126	0.892479
Cl199	Cl	0.332032	-0.344915	0.429318
Cl200	Cl	0.832032	0.155085	0.929318
Cl201	Cl	0.894382	-0.508782	0.876027
Cl202	Cl	1.394382	-0.008782	1.376027
