data_functionalizedCrystal
_audit_creation_method	'MofGen! by Chris Wilmer'
_symmetry_space_group_name_H-M	'P1'
_symmetry_Int_Tables_number	1
_symmetry_cell_setting	triclinic
loop_
_symmetry_equiv_pos_as_xyz
  x,y,z
_cell_length_a	12.759401
_cell_length_b	12.759400
_cell_length_c	14.908308
_cell_angle_alpha	86.728204
_cell_angle_beta	86.719755
_cell_angle_gamma	90.013956
loop_
_atom_site_label
_atom_site_type_symbol
_atom_site_fract_x
_atom_site_fract_y
_atom_site_fract_z
Zn1	Zn	1.571947	-0.452536	0.510072
Zn2	Zn	1.581989	-0.618104	0.359229
Zn3	Zn	1.406395	-0.442440	0.359236
Zn4	Zn	1.396240	-0.628170	0.510044
O5	O	1.489143	-0.535313	0.434645
O6	O	1.720299	-0.474511	0.490071
O7	O	1.567149	-0.586364	0.232987
O8	O	1.428403	-0.296759	0.379259
O9	O	1.727677	-0.596154	0.379247
O10	O	1.550033	-0.304176	0.490078
O11	O	1.438141	-0.457304	0.232992
O12	O	1.258028	-0.467064	0.379232
O13	O	1.411096	-0.613310	0.636290
O14	O	1.250567	-0.603520	0.490030
O15	O	1.540186	-0.484272	0.636311
O16	O	1.557302	-0.766460	0.379220
O17	O	1.420833	-0.773855	0.490023
C18	C	1.216177	-0.535290	0.434629
C19	C	1.099399	-0.535307	0.434643
C20	C	0.938660	-0.598561	0.376876
C21	C	1.048385	-0.598538	0.376860
C22	C	1.040683	-0.472085	0.492439
C23	C	0.930960	-0.472102	0.492449
C24	C	0.887651	-0.661804	0.319095
C25	C	0.946360	-0.725025	0.261298
C26	C	1.056085	-0.725003	0.261282
C27	C	1.107101	-0.661760	0.319064
C28	C	1.489083	-0.808279	0.434637
C29	C	1.489151	-0.925058	0.434664
C30	C	1.418081	-0.983806	0.492313
C31	C	1.418136	-1.093530	0.492322
C32	C	1.560342	-1.085749	0.377029
C33	C	1.560281	-0.976026	0.377016
C34	C	1.346952	-0.932837	0.549961
C35	C	1.275876	-0.991585	0.607616
C36	C	1.275931	-1.101310	0.607624
C37	C	1.347062	-1.152286	0.549978
C38	C	1.763175	-0.535336	0.434662
C39	C	1.879951	-0.535346	0.434669
C40	C	1.473388	-0.551040	0.669948
C41	C	1.466674	-0.557742	0.770221
C42	C	1.489230	-0.261281	0.434673
C43	C	1.489267	-0.144505	0.434685
C44	C	1.504897	-0.519571	0.200257
C45	C	1.511814	-0.512573	0.099985
C46	C	1.588477	-0.435944	0.958667
C47	C	1.582172	-0.442238	1.052882
C48	C	1.447755	-0.576617	1.052867
C49	C	1.454059	-0.570323	0.958652
C50	C	1.524424	-0.499986	0.911555
C51	C	1.530734	-0.493698	0.817339
C52	C	1.396312	-0.628071	0.817326
C53	C	1.390007	-0.634364	0.911541
H54	H	0.798308	-0.661832	0.319103
O55	O	1.606629	-0.417839	0.766543
H56	H	1.600264	-0.424228	0.693113
H57	H	1.634328	-0.390086	1.091236
O58	O	1.664368	-0.360090	0.907860
H59	H	1.707848	-0.316612	0.956449
O60	O	1.636939	-0.912651	0.314845
H61	H	1.686422	-0.966524	0.274772
O62	O	0.891337	-0.793222	0.198973
H63	H	0.950599	-0.837165	0.158774
O64	O	1.371848	-0.652459	1.103670
H65	H	1.378226	-0.646069	1.177098
H66	H	1.346901	-0.843494	0.549962
O67	O	1.199157	-0.936614	0.669789
H68	H	1.211063	-0.850447	0.660106
O69	O	1.199275	-1.164680	0.669803
H70	H	1.149813	-1.110801	0.709888
O71	O	0.867638	-0.403919	0.554786
H72	H	0.820355	-0.347703	0.514484
H73	H	1.332716	-0.691629	0.949900
H74	H	1.347098	-1.241632	0.549987
H75	H	1.618254	-1.127263	0.330097
H76	H	1.344158	-0.680221	0.778958
H77	H	1.196448	-0.661739	0.319040
O78	O	1.119413	-0.793177	0.198942
H79	H	1.065506	-0.837157	0.158771
H80	H	1.082229	-0.420597	0.539483
