data_functionalizedCrystal
_audit_creation_method	'MofGen! by Chris Wilmer'
_symmetry_space_group_name_H-M	'P1'
_symmetry_Int_Tables_number	1
_symmetry_cell_setting	triclinic
loop_
_symmetry_equiv_pos_as_xyz
  x,y,z
_cell_length_a	21.295418
_cell_length_b	25.639240
_cell_length_c	21.295411
_cell_angle_alpha	89.973291
_cell_angle_beta	89.956262
_cell_angle_gamma	90.048568
loop_
_atom_site_label
_atom_site_type_symbol
_atom_site_fract_x
_atom_site_fract_y
_atom_site_fract_z
Zn1	Zn	0.962346	-0.207990	-0.356211
Zn2	Zn	1.462346	0.292010	0.143789
Zn3	Zn	0.962244	-0.295410	-0.250928
Zn4	Zn	1.462244	0.204590	0.249072
Zn5	Zn	0.857069	-0.208014	-0.250921
Zn6	Zn	1.357069	0.291986	0.249079
Zn7	Zn	0.857034	-0.295420	-0.356124
Zn8	Zn	1.357034	0.204580	0.143876
O9	O	0.909673	-0.251708	-0.303546
O10	O	1.409673	0.248292	0.196454
O11	O	1.050422	-0.219572	-0.342285
O12	O	1.550422	0.280428	0.157715
O13	O	0.948264	-0.283822	-0.162837
O14	O	1.448264	0.216178	0.337163
O15	O	0.871091	-0.134846	-0.264922
O16	O	1.371091	0.365154	0.235078
O17	O	1.050347	-0.283799	-0.264933
O18	O	1.550347	0.216201	0.235067
O19	O	0.948438	-0.134828	-0.342278
O20	O	1.448438	0.365172	0.157722
O21	O	0.870993	-0.219613	-0.162833
O22	O	1.370993	0.280387	0.337167
O23	O	0.768975	-0.219623	-0.264837
O24	O	1.268975	0.280377	0.235163
O25	O	0.871032	-0.283816	-0.444225
O26	O	1.371032	0.216184	0.055775
O27	O	0.768950	-0.283840	-0.342129
O28	O	1.268950	0.216160	0.157871
O29	O	0.948404	-0.219582	-0.444289
O30	O	1.448404	0.280418	0.055711
O31	O	0.948231	-0.368576	-0.264848
O32	O	1.448231	0.131424	0.235152
O33	O	0.870934	-0.368584	-0.342136
O34	O	1.370934	0.131416	0.157864
C35	C	0.746122	-0.251736	-0.303474
C36	C	1.246122	0.248264	0.196526
C37	C	0.676154	-0.251760	-0.303458
C38	C	1.176154	0.248240	0.196542
C39	C	0.643290	-0.285242	-0.343643
C40	C	1.143290	0.214758	0.156357
C41	C	0.577548	-0.285229	-0.343672
C42	C	1.077548	0.214771	0.156328
C43	C	0.544671	-0.251740	-0.303503
C44	C	1.044671	0.248260	0.196497
C45	C	0.577543	-0.218252	-0.263314
C46	C	1.077543	0.281748	0.236686
C47	C	0.643284	-0.218262	-0.263292
C48	C	1.143284	0.281738	0.236708
N49	N	0.441395	-0.247648	-0.248446
N50	N	0.941395	0.252352	0.251554
N51	N	0.378944	-0.247641	-0.248469
N52	N	0.878944	0.252359	0.251531
C53	C	0.346596	-0.251707	-0.303570
C54	C	0.846596	0.248293	0.196430
N55	N	0.379060	-0.255789	-0.358647
N56	N	0.879060	0.244211	0.141353
N57	N	0.441517	-0.255798	-0.358623
N58	N	0.941517	0.244202	0.141377
C59	C	0.473386	-0.251725	-0.303523
C60	C	0.973386	0.248275	0.196477
C61	C	0.242448	-0.285176	-0.343789
C62	C	0.742448	0.214824	0.156211
C63	C	0.176704	-0.285160	-0.343819
C64	C	0.676704	0.214840	0.156181
C65	C	0.176700	-0.218185	-0.263456
C66	C	0.676700	0.281815	0.236544
C67	C	0.242442	-0.218199	-0.263432
C68	C	0.742442	0.281801	0.236568
C69	C	0.275312	-0.251697	-0.303598
C70	C	0.775312	0.248303	0.196402
C71	C	0.909584	-0.387551	-0.303497
C72	C	1.409584	0.112449	0.196503
C73	C	0.909604	-0.445665	-0.303497
C74	C	1.409604	0.054335	0.196503
C75	C	0.949968	-0.805980	-0.343898
C76	C	1.449968	-0.305980	0.156102
C77	C	0.949986	-0.860584	-0.343911
C78	C	1.449986	-0.360584	0.156089
O79	O	0.984199	-0.888781	-0.378211
O80	O	1.484199	-0.388781	0.121789
N81	N	0.909761	-0.887947	-0.303607
N82	N	1.409761	-0.387947	0.196393
C83	C	0.869510	-0.860703	-0.263292
C84	C	1.369510	-0.360703	0.236708
O85	O	0.835296	-0.888991	-0.229012
O86	O	1.335296	-0.388991	0.270988
C87	C	0.869488	-0.806100	-0.263283
C88	C	1.369488	-0.306100	0.236717
C89	C	0.909721	-0.778740	-0.303585
C90	C	1.409721	-0.278740	0.196415
C91	C	0.990197	-0.778620	-0.384197
C92	C	1.490197	-0.278620	0.115803
C93	C	0.990179	-0.724019	-0.384184
C94	C	1.490179	-0.224019	0.115816
C95	C	0.949932	-0.696779	-0.343871
C96	C	1.449932	-0.196779	0.156129
C97	C	0.909703	-0.724139	-0.303571
C98	C	1.409703	-0.224139	0.196429
C99	C	0.829234	-0.778857	-0.222972
C100	C	1.329234	-0.278857	0.277028
C101	C	0.829216	-0.724250	-0.222966
C102	C	1.329216	-0.224250	0.277034
C103	C	0.869449	-0.696890	-0.263268
C104	C	1.369449	-0.196890	0.236732
C105	C	0.869438	-0.642298	-0.263244
C106	C	1.369438	-0.142298	0.236756
N107	N	0.909664	-0.614935	-0.303548
N108	N	1.409664	-0.114935	0.196452
C109	C	0.949911	-0.642176	-0.343861
C110	C	1.449911	-0.142176	0.156139
C111	C	0.869557	-0.975374	-0.263315
C112	C	1.369557	-0.475374	0.236685
C113	C	0.869581	-1.029976	-0.263321
C114	C	1.369581	-0.529976	0.236679
C115	C	0.950057	-1.029854	-0.343941
C116	C	1.450057	-0.529854	0.156059
C117	C	0.950035	-0.975250	-0.343931
C118	C	1.450035	-0.475250	0.156069
C119	C	0.909782	-0.948011	-0.303619
C120	C	1.409782	-0.448011	0.196381
C121	C	0.949870	-0.527511	-0.343829
C122	C	1.449870	-0.027511	0.156171
C123	C	0.949851	-0.472905	-0.343810
C124	C	1.449851	0.027095	0.156190
C125	C	0.869373	-0.473033	-0.263193
C126	C	1.369373	0.026967	0.236807
C127	C	0.869394	-0.527633	-0.263209
C128	C	1.369394	-0.027633	0.236791
C129	C	0.909645	-0.554871	-0.303532
C130	C	1.409645	-0.054871	0.196468
O131	O	0.835241	-0.614068	-0.228964
O132	O	1.335241	-0.114068	0.271036
O133	O	0.984113	-0.613881	-0.378142
O134	O	1.484113	-0.113881	0.121858
C135	C	1.073864	-0.251681	-0.303619
C136	C	1.573864	0.248319	0.196381
C137	C	1.143832	-0.251670	-0.303650
C138	C	1.643832	0.248330	0.196350
C139	C	0.909726	-0.251697	-0.467736
C140	C	1.409726	0.248303	0.032264
C141	C	0.909748	-0.251693	-0.537705
C142	C	1.409748	0.248307	-0.037705
C143	C	0.909780	-0.115335	-0.303609
C144	C	1.409780	0.384665	0.196391
C145	C	0.909825	-0.057221	-0.303636
C146	C	1.409825	0.442779	0.196364
C147	C	0.950034	-0.218244	-0.570606
C148	C	1.450034	0.281756	-0.070606
C149	C	0.950033	-0.218221	-0.636348
C150	C	1.450033	0.281779	-0.136348
C151	C	0.909753	-0.251657	-0.669187
C152	C	1.409753	0.248343	-0.169187
C153	C	0.869459	-0.285108	-0.636278
C154	C	1.369459	0.214892	-0.136278
C155	C	0.869457	-0.285126	-0.570537
C156	C	1.369457	0.214874	-0.070537
N157	N	0.904894	-0.297396	-0.772396
N158	N	1.404894	0.202604	-0.272396
N159	N	0.904900	-0.297377	-0.834848
N160	N	1.404900	0.202623	-0.334848
C161	C	0.909757	-0.251604	-0.867262
C162	C	1.409757	0.248396	-0.367262
N163	N	0.914620	-0.205848	-0.834866
N164	N	1.414620	0.294152	-0.334866
N165	N	0.914617	-0.205867	-0.772408
N166	N	1.414617	0.294133	-0.272408
C167	C	0.909751	-0.251641	-0.740473
C168	C	1.409751	0.248359	-0.240473
C169	C	0.950044	-0.218128	-0.971449
C170	C	1.450044	0.281872	-0.471449
C171	C	0.950039	-0.218104	-1.037192
C172	C	1.450039	0.281896	-0.537192
C173	C	0.869468	-0.284995	-1.037121
C174	C	1.369468	0.215005	-0.537121
C175	C	0.869470	-0.285014	-0.971379
C176	C	1.369470	0.214986	-0.471379
C177	C	0.909761	-0.251581	-0.938546
C178	C	1.409761	0.248419	-0.438546
C179	C	0.909658	-0.251682	-0.139995
C180	C	1.409658	0.248318	0.360005
C181	C	0.909757	-0.251539	-0.070027
C182	C	1.409757	0.248461	0.429973
H183	H	0.269200	-0.190937	-0.230705
H184	H	0.769200	0.309063	0.269295
O185	O	0.989240	-1.056297	-0.383039
O186	O	1.489240	-0.556297	0.116961
C187	C	1.051984	-1.042898	-0.369374
C188	C	1.551984	-0.542898	0.130626
H189	H	1.055187	-1.027908	-0.319088
H190	H	1.555187	-0.527908	0.180912
H191	H	1.068413	-1.011174	-0.403142
H192	H	1.568413	-0.511174	0.096858
C193	C	1.090067	-1.109776	-0.438522
C194	C	1.590067	-0.609776	0.061478
C195	C	1.094002	-1.091369	-0.376758
C196	C	1.594002	-0.591369	0.123242
H197	H	1.115987	-1.139674	-0.443080
H198	H	1.615987	-0.639674	0.056920
H199	H	1.047795	-1.118802	-0.447731
H200	H	1.547795	-0.618802	0.052269
H201	H	1.103756	-1.083334	-0.466655
H202	H	1.603756	-0.583334	0.033345
H203	H	1.080305	-1.117808	-0.348627
H204	H	1.580305	-0.617808	0.151373
H205	H	1.136273	-1.082348	-0.367545
H206	H	1.636273	-0.582348	0.132455
O207	O	0.675248	-0.317831	-0.382575
O208	O	1.175248	0.182169	0.117425
C209	C	0.713210	-0.351553	-0.346649
C210	C	1.213210	0.148447	0.153351
H211	H	0.693342	-0.354723	-0.297069
H212	H	1.193342	0.145277	0.202931
H213	H	0.763051	-0.335390	-0.344502
H214	H	1.263051	0.164610	0.155498
C215	C	0.738592	-0.402049	-0.438175
C216	C	1.238592	0.097951	0.061825
C217	C	0.714187	-0.405945	-0.377282
C218	C	1.214187	0.094055	0.122718
H219	H	0.739198	-0.435600	-0.457071
H220	H	1.239198	0.064400	0.042929
H221	H	0.713019	-0.379328	-0.462380
H222	H	1.213019	0.120672	0.037620
H223	H	0.780124	-0.388577	-0.436378
H224	H	1.280124	0.111423	0.063622
H225	H	0.672654	-0.419411	-0.379080
H226	H	1.172654	0.080589	0.120920
H227	H	0.739754	-0.428670	-0.353078
H228	H	1.239754	0.071330	0.146922
H229	H	0.149947	-0.312424	-0.376547
H230	H	0.649947	0.187576	0.123453
O231	O	0.830243	-0.317532	-0.668147
O232	O	1.330243	0.182468	-0.168147
C233	C	0.767512	-0.306129	-0.652030
C234	C	1.267512	0.193871	-0.152030
H235	H	0.764364	-0.264365	-0.633964
H236	H	1.264364	0.235635	-0.133964
H237	H	0.751032	-0.334173	-0.613854
H238	H	1.251032	0.165827	-0.113854
C239	C	0.729366	-0.363500	-0.732590
C240	C	1.229366	0.136500	-0.232590
C241	C	0.725499	-0.312204	-0.710405
C242	C	1.225499	0.187796	-0.210405
H243	H	0.703449	-0.367249	-0.768597
H244	H	1.203449	0.132751	-0.268597
H245	H	0.771629	-0.371185	-0.743447
H246	H	1.271629	0.128815	-0.243447
H247	H	0.715634	-0.386864	-0.700770
H248	H	1.215634	0.113136	-0.200770
H249	H	0.739239	-0.288841	-0.742222
H250	H	1.239239	0.211159	-0.242222
H251	H	0.683238	-0.304515	-0.699555
H252	H	1.183238	0.195485	-0.199555
O253	O	0.989000	-0.446305	-0.382874
O254	O	1.489000	0.053695	0.117126
C255	C	1.029657	-0.414692	-0.347083
C256	C	1.529657	0.085308	0.152917
H257	H	1.033577	-0.431169	-0.297512
H258	H	1.533577	0.068831	0.202488
H259	H	1.010184	-0.373328	-0.344882
H260	H	1.510184	0.126672	0.155118
C261	C	1.090266	-0.393542	-0.438805
C262	C	1.590266	0.106458	0.061195
C263	C	1.095085	-0.413782	-0.377923
C264	C	1.595085	0.086218	0.122077
H265	H	1.130624	-0.392978	-0.457830
H266	H	1.630624	0.107022	0.042170
H267	H	1.062873	-0.414839	-0.462919
H268	H	1.562873	0.085161	0.037081
H269	H	1.074036	-0.359074	-0.436963
H270	H	1.574036	0.140926	0.063037
H271	H	1.111307	-0.448252	-0.379767
H272	H	1.611307	0.051748	0.120233
H273	H	1.122482	-0.392491	-0.353810
H274	H	1.622482	0.107509	0.146190
H275	H	0.149933	-0.190915	-0.230753
H276	H	0.649933	0.309085	0.269247
H277	H	1.022970	-0.800793	-0.417029
H278	H	1.522970	-0.300793	0.082971
O279	O	0.989026	-0.553884	-0.383021
O280	O	1.489026	-0.053884	0.116979
C281	C	1.024512	-0.518017	-0.418596
C282	C	1.524512	-0.018017	0.081404
H283	H	1.026689	-0.479109	-0.392798
H284	H	1.526689	0.020891	0.107202
H285	H	1.001430	-0.512200	-0.466371
H286	H	1.501430	-0.012200	0.033629
C287	C	1.088839	-0.587041	-0.459452
C288	C	1.588839	-0.087041	0.040548
C289	C	1.091517	-0.539255	-0.427764
C290	C	1.591517	-0.039255	0.072236
H291	H	1.130171	-0.600141	-0.465111
H292	H	1.630171	-0.100141	0.034889
H293	H	1.064931	-0.611205	-0.435487
H294	H	1.564931	-0.111205	0.064513
H295	H	1.069602	-0.582187	-0.499262
H296	H	1.569602	-0.082187	0.000738
H297	H	1.110747	-0.544110	-0.387953
H298	H	1.610747	-0.044110	0.112047
H299	H	1.115431	-0.515091	-0.451723
H300	H	1.615431	-0.015091	0.048277
O301	O	0.830371	-0.948973	-0.224177
O302	O	1.330371	-0.448973	0.275823
C303	C	0.767629	-0.962363	-0.237867
C304	C	1.267629	-0.462363	0.262133
H305	H	0.766331	-1.001995	-0.262076
H306	H	1.266331	-0.501995	0.237924
H307	H	0.746394	-0.931634	-0.270193
H308	H	1.246394	-0.431634	0.229807
C309	C	0.731129	-0.916286	-0.146715
C310	C	1.231129	-0.416286	0.353285
C311	C	0.729533	-0.964965	-0.176445
C312	C	1.229533	-0.464965	0.323555
H313	H	0.707628	-0.917889	-0.108828
H314	H	1.207628	-0.417889	0.391172
H315	H	0.773399	-0.907263	-0.137493
H316	H	1.273399	-0.407263	0.362507
H317	H	0.713434	-0.890683	-0.173659
H318	H	1.213434	-0.390683	0.326341
H319	H	0.747235	-0.990565	-0.149503
H320	H	1.247235	-0.490565	0.350497
H321	H	0.687266	-0.973992	-0.185661
H322	H	1.187266	-0.473992	0.314339
H323	H	0.836648	-0.312363	-0.543749
H324	H	1.336648	0.187637	-0.043749
O325	O	0.830188	-0.446622	-0.224070
O326	O	1.330188	0.053378	0.275930
C327	C	0.767447	-0.460005	-0.237770
C328	C	1.267447	0.039995	0.262230
H329	H	0.766145	-0.499643	-0.261967
H330	H	1.266145	0.000357	0.238033
H331	H	0.746228	-0.429280	-0.270112
H332	H	1.246228	0.070720	0.229888
C333	C	0.730935	-0.413900	-0.146644
C334	C	1.230935	0.086100	0.353356
C335	C	0.729335	-0.462586	-0.176357
C336	C	1.229335	0.037414	0.323643
H337	H	0.707424	-0.415490	-0.108762
H338	H	1.207424	0.084510	0.391238
H339	H	0.773204	-0.404882	-0.137414
H340	H	1.273204	0.095118	0.362586
H341	H	0.713253	-0.388301	-0.173602
H342	H	1.213253	0.111699	0.326398
H343	H	0.747024	-0.488183	-0.149403
H344	H	1.247024	0.011817	0.350597
H345	H	0.687068	-0.471609	-0.185581
H346	H	1.187068	0.028391	0.314419
H347	H	0.269212	-0.312450	-0.376498
H348	H	0.769212	0.187550	0.123502
O349	O	0.790092	-0.697871	-0.183747
O350	O	1.290092	-0.197871	0.316253
C351	C	0.754578	-0.733733	-0.148195
C352	C	1.254578	-0.233733	0.351805
H353	H	0.780379	-0.772632	-0.146055
H354	H	1.280379	-0.272632	0.353945
H355	H	0.706763	-0.739575	-0.171194
H356	H	1.206763	-0.239575	0.328806
C357	C	0.713832	-0.664695	-0.083810
C358	C	1.213832	-0.164695	0.416190
C359	C	0.745524	-0.712469	-0.081177
C360	C	1.245524	-0.212469	0.418823
H361	H	0.708244	-0.651578	-0.042471
H362	H	1.208244	-0.151578	0.457529
H363	H	0.737756	-0.640533	-0.107763
H364	H	1.237756	-0.140533	0.392237
H365	H	0.673989	-0.669569	-0.102978
H366	H	1.173989	-0.169569	0.397022
H367	H	0.785368	-0.707593	-0.062017
H368	H	1.285368	-0.207593	0.437983
H369	H	0.721606	-0.736630	-0.057219
H370	H	1.221606	-0.236630	0.442781
H371	H	1.022938	-0.701746	-0.417003
H372	H	1.522938	-0.201746	0.082997
H373	H	0.796473	-0.801124	-0.190153
H374	H	1.296473	-0.301124	0.309847
O375	O	0.830362	-0.317462	-0.939318
O376	O	1.330362	0.182538	-0.439318
C377	C	0.839009	-0.310319	-0.874252
C378	C	1.339009	0.189681	-0.374252
H379	H	0.859656	-0.269968	-0.865294
H380	H	1.359656	0.230032	-0.365294
H381	H	0.872508	-0.341330	-0.855616
H382	H	1.372508	0.158670	-0.355616
C383	C	0.749955	-0.364692	-0.851452
C384	C	1.249955	0.135308	-0.351452
C385	C	0.775308	-0.315130	-0.840450
C386	C	1.275308	0.184870	-0.340450
H387	H	0.710662	-0.367662	-0.830601
H388	H	1.210662	0.132338	-0.330601
H389	H	0.744130	-0.369506	-0.895288
H390	H	1.244130	0.130494	-0.395288
H391	H	0.777877	-0.390529	-0.835923
H392	H	1.277877	0.109471	-0.335923
H393	H	0.747390	-0.289294	-0.855987
H394	H	1.247390	0.210706	-0.355987
H395	H	0.781127	-0.310312	-0.796616
H396	H	1.281127	0.189688	-0.296616
H397	H	0.982841	-0.191020	-0.543878
H398	H	1.482841	0.308980	-0.043878
O399	O	0.989203	-0.185803	-0.668386
O400	O	1.489203	0.314197	-0.168386
C401	C	1.029844	-0.215562	-0.706423
C402	C	1.529844	0.284438	-0.206423
H403	H	1.007604	-0.255183	-0.716246
H404	H	1.507604	0.244817	-0.216246
H405	H	1.076487	-0.221310	-0.681118
H406	H	1.576487	0.278690	-0.181118
C407	C	1.068588	-0.138117	-0.756821
C408	C	1.568588	0.361883	-0.256821
C409	C	1.041271	-0.186780	-0.768890
C410	C	1.541271	0.313220	-0.268890
H411	H	1.075640	-0.120363	-0.795353
H412	H	1.575640	0.379637	-0.295353
H413	H	1.041210	-0.118068	-0.731193
H414	H	1.541210	0.381932	-0.231193
H415	H	1.107454	-0.142915	-0.735733
H416	H	1.607454	0.357085	-0.235733
H417	H	1.002402	-0.181981	-0.789971
H418	H	1.502402	0.318019	-0.289971
H419	H	1.068643	-0.206828	-0.794523
H420	H	1.568643	0.293172	-0.294523
O421	O	0.989195	-0.185599	-0.939648
O422	O	1.489195	0.314401	-0.439648
C423	C	1.024760	-0.156076	-0.982789
C424	C	1.524760	0.343924	-0.482789
H425	H	0.998978	-0.154256	-1.029632
H426	H	1.498978	0.345744	-0.529632
H427	H	1.072555	-0.175211	-0.989815
H428	H	1.572555	0.324789	-0.489815
C429	C	1.065540	-0.102671	-0.899611
C430	C	1.565540	0.397329	-0.399611
C431	C	1.033871	-0.100432	-0.957144
C432	C	1.533871	0.399568	-0.457144
H433	H	1.071163	-0.068347	-0.883792
H434	H	1.571163	0.431653	-0.383792
H435	H	1.041582	-0.122562	-0.870546
H436	H	1.541582	0.377438	-0.370546
H437	H	1.105366	-0.118619	-0.905474
H438	H	1.605366	0.381381	-0.405474
H439	H	0.994044	-0.084490	-0.951279
H440	H	1.494044	0.415510	-0.451279
H441	H	1.057824	-0.080536	-0.986208
H442	H	1.557824	0.419464	-0.486208
H443	H	0.982843	-0.190863	-1.063979
H444	H	1.482843	0.309137	-0.563979
H445	H	0.550785	-0.312494	-0.376398
H446	H	1.050785	0.187506	0.123602
H447	H	0.982796	-0.952977	-0.376749
H448	H	1.482796	-0.452977	0.123251
O449	O	0.675280	-0.185811	-0.224219
O450	O	1.175280	0.314189	0.275781
C451	C	0.713209	-0.215538	-0.183467
C452	C	1.213209	0.284462	0.316533
H453	H	0.723030	-0.255190	-0.205573
H454	H	1.223030	0.244810	0.294427
H455	H	0.687813	-0.221220	-0.136814
H456	H	1.187813	0.278780	0.363186
C457	C	0.763620	-0.138069	-0.144963
C458	C	1.263620	0.361931	0.355037
C459	C	0.775687	-0.186769	-0.172116
C460	C	1.275687	0.313231	0.327884
H461	H	0.802158	-0.120323	-0.137958
H462	H	1.302158	0.379677	0.362042
H463	H	0.738065	-0.118041	-0.172416
H464	H	1.238065	0.381959	0.327584
H465	H	0.742455	-0.142811	-0.106088
H466	H	1.242455	0.357189	0.393912
H467	H	0.796845	-0.182026	-0.210993
H468	H	1.296845	0.317974	0.289007
H469	H	0.801247	-0.206795	-0.144669
H470	H	1.301247	0.293205	0.355331
H471	H	0.550770	-0.190983	-0.230610
H472	H	1.050770	0.309017	0.269390
H473	H	0.836826	-1.052248	-0.230496
H474	H	1.336826	-0.552248	0.269504
H475	H	0.836639	-0.549911	-0.230387
H476	H	1.336639	-0.049911	0.269613
H477	H	0.836665	-0.312213	-1.063858
H478	H	1.336665	0.187787	-0.563858
