data_functionalizedCrystal
_audit_creation_method	'MofGen! by Chris Wilmer'
_symmetry_space_group_name_H-M	'P1'
_symmetry_Int_Tables_number	1
_symmetry_cell_setting	triclinic
loop_
_symmetry_equiv_pos_as_xyz
  x,y,z
_cell_length_a	17.077404
_cell_length_b	19.805405
_cell_length_c	17.077396
_cell_angle_alpha	89.971037
_cell_angle_beta	89.981638
_cell_angle_gamma	90.024696
loop_
_atom_site_label
_atom_site_type_symbol
_atom_site_fract_x
_atom_site_fract_y
_atom_site_fract_z
Zn1	Zn	1.200034	-0.269500	-0.443816
Zn2	Zn	1.199932	-0.382693	-0.312549
Zn3	Zn	1.068765	-0.269519	-0.312567
Zn4	Zn	1.068725	-0.382648	-0.443775
O5	O	1.134364	-0.326090	-0.378177
O6	O	1.309867	-0.284526	-0.426413
O7	O	1.182507	-0.367707	-0.202704
O8	O	1.086238	-0.174800	-0.330002
O9	O	1.309792	-0.367688	-0.329972
O10	O	1.182680	-0.174786	-0.426430
O11	O	1.086139	-0.284559	-0.202717
O12	O	0.958913	-0.284515	-0.329962
O13	O	1.086169	-0.367612	-0.553628
O14	O	0.958883	-0.367631	-0.426360
O15	O	1.182641	-0.284482	-0.553658
O16	O	1.182467	-0.477404	-0.329932
O17	O	1.086070	-0.477371	-0.426343
C18	C	0.930416	-0.326071	-0.378159
C19	C	0.843166	-0.326079	-0.378170
C20	C	0.802216	-0.282853	-0.428464
C21	C	0.720235	-0.282858	-0.428468
C22	C	0.679207	-0.326092	-0.378181
C23	C	0.720163	-0.369319	-0.327882
C24	C	0.802142	-0.369311	-0.327875
C25	C	0.549293	-0.369335	-0.327901
C26	C	0.467308	-0.369344	-0.327909
C27	C	0.467386	-0.282881	-0.428494
C28	C	0.549365	-0.282873	-0.428487
C29	C	0.590316	-0.326102	-0.378189
C30	C	1.134274	-0.501946	-0.378148
C31	C	1.134308	-0.577178	-0.378163
C32	C	1.184496	-0.612457	-0.428412
C33	C	1.184524	-0.683145	-0.428427
C34	C	1.134368	-0.718554	-0.378187
C35	C	1.084175	-0.683270	-0.327935
C36	C	1.084143	-0.612583	-0.327925
C37	C	1.084301	-0.968343	-0.327976
C38	C	1.084338	-1.039035	-0.327988
C39	C	1.184682	-1.038905	-0.428477
C40	C	1.184650	-0.968218	-0.428467
C41	C	1.134454	-0.932941	-0.378218
C42	C	1.134423	-0.856293	-0.378204
C43	C	1.134403	-0.795201	-0.378197
C44	C	1.339108	-0.326110	-0.378195
C45	C	1.426358	-0.326118	-0.378203
C46	C	1.134411	-0.326040	-0.582921
C47	C	1.134432	-0.326019	-0.670171
C48	C	1.134475	-0.149547	-0.378223
C49	C	1.134522	-0.074315	-0.378242
C50	C	1.184667	-0.282730	-0.711178
C51	C	1.184676	-0.282707	-0.793159
C52	C	1.134454	-0.325978	-0.834131
C53	C	1.084214	-0.369269	-0.793118
C54	C	1.084201	-0.369287	-0.711139
C55	C	1.084245	-0.369228	-0.963988
C56	C	1.084259	-0.369211	-1.045973
C57	C	1.184720	-0.282648	-1.046008
C58	C	1.184708	-0.282666	-0.964029
C59	C	1.134468	-0.325959	-0.923022
C60	C	1.134362	-0.326091	-0.174229
C61	C	1.134494	-0.325921	-0.086980
H62	H	0.433905	-0.404549	-0.286962
H63	H	0.686897	-0.247660	-0.469423
H64	H	1.225584	-0.247458	-0.826543
H65	H	1.225342	-0.583632	-0.469320
H66	H	1.043431	-0.939626	-0.287060
H67	H	0.686751	-0.404518	-0.286934
H68	H	1.043322	-0.404471	-0.930602
N69	N	1.238811	-1.076948	-0.482695
H70	H	1.294899	-1.064614	-0.470554
H71	H	1.231157	-1.127090	-0.475066
N72	N	1.030082	-0.721457	-0.273742
H73	H	0.973982	-0.709193	-0.285879
H74	H	1.037788	-0.771578	-0.281395
N75	N	1.030036	-0.415925	-0.837317
H76	H	1.061916	-0.447288	-0.871331
H77	H	0.998212	-0.443306	-0.798856
N78	N	1.030012	-0.415971	-0.666905
H79	H	0.998197	-0.443380	-0.705299
H80	H	1.061932	-0.447307	-0.632884
N81	N	0.846462	-0.236227	-0.482711
H82	H	0.904610	-0.242783	-0.475081
H83	H	0.832144	-0.246833	-0.538748
N84	N	0.593611	-0.236238	-0.482724
H85	H	0.627622	-0.204836	-0.450883
H86	H	0.627585	-0.263828	-0.519032
N87	N	0.423224	-0.236257	-0.482748
H88	H	0.365065	-0.242819	-0.475122
H89	H	0.437569	-0.187902	-0.470634
H90	H	1.225398	-0.711866	-0.469339
H91	H	1.225607	-0.247436	-0.930672
H92	H	0.582633	-0.404534	-0.286941
N93	N	1.030016	-0.574525	-0.273729
H94	H	0.973928	-0.586860	-0.285871
H95	H	1.042311	-0.586860	-0.217676
N96	N	0.846314	-0.415929	-0.273626
H97	H	0.807885	-0.443320	-0.241770
H98	H	0.880332	-0.447284	-0.305508
N99	N	1.238911	-0.235955	-1.090231
H100	H	1.231298	-0.242505	-1.148381
H101	H	1.226727	-0.187616	-1.075910
H102	H	1.225495	-0.939391	-0.469374
H103	H	1.225566	-0.247496	-0.677825
N104	N	1.030073	-0.415851	-1.090183
H105	H	1.061944	-0.447216	-1.124202
H106	H	0.998236	-0.443231	-1.051731
N107	N	1.030240	-1.077229	-0.273798
H108	H	0.998435	-1.044155	-0.241964
H109	H	0.993914	-1.106568	-0.305725
