data_functionalizedCrystal
_audit_creation_method	'MofGen! by Chris Wilmer'
_symmetry_space_group_name_H-M	'P1'
_symmetry_Int_Tables_number	1
_symmetry_cell_setting	triclinic
loop_
_symmetry_equiv_pos_as_xyz
  x,y,z
_cell_length_a	18.050590
_cell_length_b	13.897447
_cell_length_c	13.897441
_cell_angle_alpha	89.973472
_cell_angle_beta	90.006213
_cell_angle_gamma	89.989639
loop_
_atom_site_label
_atom_site_type_symbol
_atom_site_fract_x
_atom_site_fract_y
_atom_site_fract_z
Zn1	Zn	1.135380	0.384263	0.545035
Zn2	Zn	1.635380	0.884263	1.045035
Zn3	Zn	1.135291	0.545585	0.383747
Zn4	Zn	1.635291	1.045585	0.883747
Zn5	Zn	1.011184	0.384275	0.383794
Zn6	Zn	1.511184	0.884275	0.883794
Zn7	Zn	1.011162	0.545487	0.545041
Zn8	Zn	1.511162	1.045487	1.045041
O9	O	1.073254	0.464903	0.464404
O10	O	1.573254	0.964903	0.964404
O11	O	1.239293	0.405699	0.523617
O12	O	1.739293	0.905699	1.023617
O13	O	1.118799	0.524232	0.248772
O14	O	1.618799	1.024232	0.748772
O15	O	1.027705	0.249292	0.405200
O16	O	1.527705	0.749292	0.905200
O17	O	1.239227	0.524221	0.405120
O18	O	1.739227	1.024221	0.905120
O19	O	1.118951	0.249283	0.523662
O20	O	1.618951	0.749283	1.023662
O21	O	1.027619	0.405719	0.248806
O22	O	1.527619	0.905719	0.748806
O23	O	0.907256	0.405624	0.405206
O24	O	1.407256	0.905624	0.905206
O25	O	1.027668	0.524055	0.680022
O26	O	1.527668	1.024055	1.180022
O27	O	0.907241	0.524066	0.523673
O28	O	1.407241	1.024066	1.023673
O29	O	1.118930	0.405604	0.680017
O30	O	1.618930	0.905604	1.180017
O31	O	1.118778	0.680554	0.405127
O32	O	1.618778	1.180554	0.905127
O33	O	1.027582	0.680482	0.523628
O34	O	1.527582	1.180482	1.023628
C35	C	0.880302	0.464837	0.464446
C36	C	1.380302	0.964837	0.964446
C37	C	0.797756	0.464832	0.464486
C38	C	1.297756	0.964832	0.964486
C39	C	0.598318	0.529425	0.528756
C40	C	1.098318	1.029425	1.028756
C41	C	0.548919	0.441470	0.552484
C42	C	1.048919	0.941470	1.052484
C43	C	0.646626	0.464886	0.464439
C44	C	1.146626	0.964886	0.964439
C45	C	0.548943	0.552891	0.440711
C46	C	1.048943	1.052891	0.940711
C47	C	0.500641	0.464945	0.464396
C48	C	1.000641	0.964945	0.964396
C49	C	0.598314	0.376884	0.488213
C50	C	1.098314	0.876884	0.988213
C51	C	0.598342	0.488364	0.376399
C52	C	1.098342	0.988364	0.876399
C53	C	0.548966	0.400348	0.400093
C54	C	1.048966	0.900348	0.900093
C55	C	0.730724	0.464852	0.464467
C56	C	1.230724	0.964852	0.964467
C57	C	0.416544	0.464969	0.464368
C58	C	0.916544	0.964969	0.964368
C59	C	1.073188	0.715517	0.464394
C60	C	1.573188	1.215517	0.964394
C61	C	1.073228	0.822731	0.464422
C62	C	1.573228	1.322731	0.964422
C63	C	1.073262	0.909801	0.464448
C64	C	1.573262	1.409801	0.964448
C65	C	1.073311	1.019033	0.464478
C66	C	1.573311	1.519033	0.964478
C67	C	1.266960	0.464969	0.464363
C68	C	1.766960	0.964969	0.964363
C69	C	1.349506	0.464998	0.464346
C70	C	1.849506	0.964998	0.964346
C71	C	1.073307	0.464817	0.715997
C72	C	1.573307	0.964817	1.215997
C73	C	1.073329	0.464781	0.823211
C74	C	1.573329	0.964781	1.323211
C75	C	1.073335	1.213310	0.464448
C76	C	1.573335	1.713310	0.964448
C77	C	1.073355	1.106096	0.464498
C78	C	1.573355	1.606096	0.964498
C79	C	1.073244	0.464918	0.213790
C80	C	1.573244	0.964918	0.713790
C81	C	1.073366	0.464683	0.106576
C82	C	1.573366	0.964683	0.606576
C83	C	1.073349	0.464716	1.019507
C84	C	1.573349	0.964716	1.519507
C85	C	1.073336	0.464755	0.910274
C86	C	1.573336	0.964755	1.410274
H87	H	0.527210	0.421631	0.626919
H88	H	1.027210	0.921631	1.126919
C89	C	0.627368	0.602061	0.601269
C90	C	1.127368	1.102061	1.101269
C91	C	0.704925	0.601707	0.599734
C92	C	1.204925	1.101707	1.099734
C93	C	0.731712	0.668610	0.666512
C94	C	1.231712	1.168610	1.166512
H95	H	0.610524	0.585326	0.663828
H96	H	1.110524	1.085326	1.163828
H97	H	0.609781	0.664427	0.585036
H98	H	1.109781	1.164427	1.085036
H99	H	0.722505	0.539355	0.615973
H100	H	1.222505	1.039355	1.115973
H101	H	0.721788	0.618453	0.537192
H102	H	1.221788	1.118453	1.037192
H103	H	0.714125	0.730976	0.650279
H104	H	1.214125	1.230976	1.150279
H105	H	0.714864	0.651869	0.729066
H106	H	1.214864	1.151869	1.229066
H107	H	0.784337	0.668385	0.665473
H108	H	1.284337	1.168385	1.165473
C109	C	0.520070	0.652063	0.413774
C110	C	1.020070	1.152063	0.913774
C111	C	0.546169	0.677023	0.322237
C112	C	1.046169	1.177023	0.822237
C113	C	0.519581	0.768369	0.297398
C114	C	1.019581	1.268369	0.797398
H115	H	0.536953	0.697910	0.459456
H116	H	1.036953	1.197910	0.959456
H117	H	0.467442	0.651241	0.413320
H118	H	0.967442	1.151241	0.913320
H119	H	0.598786	0.677852	0.322699
H120	H	1.098786	1.177852	0.822699
H121	H	0.529288	0.631201	0.276535
H122	H	1.029288	1.131201	0.776535
H123	H	0.466953	0.767547	0.296943
H124	H	0.966953	1.267547	0.796943
H125	H	0.536465	0.814208	0.343086
H126	H	1.036465	1.314208	0.843086
H127	H	0.537279	0.785313	0.235285
H128	H	1.037279	1.285313	0.735285
H129	H	0.620068	0.508230	0.301985
H130	H	1.120068	1.008230	0.801985
H131	H	0.527432	0.345732	0.345684
H132	H	1.027432	0.845732	0.845684
H133	H	0.619910	0.302462	0.508349
H134	H	1.119910	0.802462	1.008349
