data_functionalizedCrystal
_audit_creation_method	'MofGen! by Chris Wilmer'
_symmetry_space_group_name_H-M	'P1'
_symmetry_Int_Tables_number	1
_symmetry_cell_setting	triclinic
loop_
_symmetry_equiv_pos_as_xyz
  x,y,z
_cell_length_a	16.109301
_cell_length_b	19.188930
_cell_length_c	14.586319
_cell_angle_alpha	89.991095
_cell_angle_beta	89.999213
_cell_angle_gamma	83.303131
loop_
_atom_site_label
_atom_site_type_symbol
_atom_site_fract_x
_atom_site_fract_y
_atom_site_fract_z
O1	O	1.102833	0.089744	-0.076193
O2	O	0.860734	0.100912	-0.076209
O3	O	0.988770	-0.006311	-0.076182
O4	O	0.974797	0.196968	-0.076219
O5	O	0.988762	-0.006313	0.076298
O6	O	0.860726	0.100911	0.076272
O7	O	1.102825	0.089742	0.076288
Cu8	Cu	0.981774	0.095326	0.090203
Cu9	Cu	0.981785	0.095328	-0.090124
O10	O	0.974789	0.196966	0.076262
C11	C	0.829757	0.100459	0.000030
C12	C	0.737466	0.099103	0.000025
C13	C	0.988313	-0.032324	0.000061
C14	C	0.986955	-0.109832	0.000068
C15	C	0.514993	0.159573	0.000024
C16	C	0.428277	0.158294	0.000030
C17	C	0.448573	0.031076	0.000050
C18	C	0.535287	0.032357	0.000050
C19	C	0.568495	0.096608	0.000033
C20	C	0.395064	0.094047	0.000038
C21	C	0.301043	0.092659	0.000045
C22	C	0.662522	0.097996	0.000028
C23	C	1.062082	-0.154580	0.000078
C24	C	1.060806	-0.227407	0.000063
C25	C	0.984399	-0.255482	0.000057
C26	C	0.909261	-0.210724	0.000043
C27	C	0.910540	-0.137899	0.000048
N28	N	0.925991	-0.363624	0.051945
N29	N	0.924782	-0.432805	0.051942
C30	C	0.980543	-0.474900	0.000038
N31	N	1.037571	-0.445200	-0.051850
N32	N	1.038783	-0.376013	-0.051843
C33	C	0.983004	-0.334448	0.000051
C34	C	1.054292	-0.598616	0.000030
C35	C	1.053012	-0.671443	0.000010
C36	C	0.901465	-0.654759	-0.000001
C37	C	0.902747	-0.581933	0.000010
C38	C	0.979162	-0.553866	0.000030
C39	C	1.133802	0.090196	0.000047
C40	C	1.226093	0.091552	0.000046
C41	C	0.975246	0.222979	0.000017
C42	C	0.976604	0.300486	0.000003
N43	N	0.981773	0.095325	0.217034
N44	N	0.981793	0.095325	-0.216955
C45	C	1.038486	0.047862	0.452052
C46	C	1.038488	0.047860	0.548034
C47	C	0.925074	0.142790	0.548020
C48	C	0.925068	0.142787	0.452040
C49	C	0.981779	0.095324	0.404059
C50	C	0.981787	0.095325	0.596020
C51	C	0.981789	0.095323	0.700087
C52	C	0.981776	0.095325	0.299985
H53	H	0.384719	0.209567	0.000025
H54	H	1.124306	-0.131733	0.000091
H55	H	0.878902	0.181434	0.587096
C56	C	0.579297	-0.075681	-0.078326
C57	C	0.594105	-0.036860	0.000055
H58	H	0.615613	-0.118408	-0.078321
H59	H	0.522909	-0.085640	-0.078318
H60	H	0.589342	-0.049325	-0.131496
H61	H	0.584055	-0.063214	0.053226
H62	H	0.650507	-0.026903	0.000057
H63	H	1.114193	-0.707878	0.000012
C64	C	0.638908	0.218026	0.000004
C65	C	0.551497	0.230196	0.000009
H66	H	0.661440	0.261628	-0.000010
H67	H	0.657285	0.192106	0.053178
H68	H	0.657279	0.192102	-0.053169
H69	H	0.533125	0.256116	0.053186
H70	H	0.533113	0.256128	-0.053171
C71	C	0.812120	-0.726961	-0.078400
C72	C	0.817475	-0.685610	-0.000011
H73	H	0.760268	-0.746012	-0.078405
H74	H	0.815770	-0.698887	-0.131559
H75	H	0.856686	-0.764035	-0.078389
H76	H	0.772913	-0.648533	-0.000025
H77	H	0.813817	-0.713686	0.053162
H78	H	1.084663	0.009211	0.587107
C79	C	0.773975	-0.545284	-0.078373
C80	C	0.820161	-0.532742	0.000013
H81	H	0.722986	-0.514918	-0.078368
H82	H	0.805318	-0.536762	-0.131534
H83	H	0.762287	-0.592676	-0.078369
H84	H	0.831855	-0.485351	0.000005
H85	H	0.788812	-0.541259	0.053188
C86	C	0.812964	0.236630	0.461660
C87	C	0.862733	0.194964	0.399279
H88	H	0.774486	0.268841	0.429085
H89	H	0.783168	0.207563	0.499104
H90	H	0.847488	0.261754	0.499087
H91	H	0.828209	0.169836	0.361855
H92	H	0.892531	0.224036	0.361819
C93	C	1.087717	-0.073004	0.422579
C94	C	1.100813	-0.004331	0.399333
H95	H	1.126192	-0.105231	0.390036
H96	H	1.095824	-0.079773	0.486606
H97	H	1.032256	-0.080583	0.406843
H98	H	1.156272	0.003251	0.415075
H99	H	1.092713	0.002441	0.335291
C100	C	0.362835	-0.044162	-0.078332
C101	C	0.412068	-0.039546	0.000056
H102	H	0.340305	-0.087765	-0.078331
H103	H	0.318564	-0.006850	-0.078330
H104	H	0.396253	-0.041015	-0.131497
H105	H	0.378649	-0.042688	0.053222
H106	H	0.456345	-0.076868	0.000063
C107	C	1.210732	-0.236591	0.000098
C108	C	1.143392	-0.276606	0.000080
H109	H	1.261716	-0.266965	0.000115
H110	H	1.208091	-0.207836	-0.053072
H111	H	1.208066	-0.207844	0.053275
H112	H	1.146055	-0.305350	-0.053101
H113	H	1.146034	-0.305374	0.053255
C114	C	0.840015	-0.314953	0.000044
C115	C	0.825272	-0.241581	0.000040
H116	H	0.788160	-0.334000	0.000045
H117	H	0.870936	-0.330303	-0.053124
H118	H	0.870935	-0.330314	0.053223
H119	H	0.794357	-0.226220	-0.053143
H120	H	0.794338	-0.226224	0.053213
C121	C	0.760615	-0.128723	0.000037
C122	C	0.827954	-0.088706	0.000047
H123	H	0.709631	-0.098351	0.000044
H124	H	0.763270	-0.157461	-0.053137
H125	H	0.763271	-0.157488	0.053210
H126	H	0.825302	-0.059945	-0.053129
H127	H	0.825297	-0.059956	0.053227
C128	C	1.203960	-0.622420	0.000018
C129	C	1.138285	-0.567759	0.000030
H130	H	1.255812	-0.603369	0.000009
H131	H	1.200314	-0.650484	0.053187
H132	H	1.200299	-0.650469	-0.053161
H133	H	1.141942	-0.539712	0.053213
H134	H	1.141932	-0.539682	-0.053144
