data_functionalizedCrystal
_audit_creation_method	'MofGen! by Chris Wilmer'
_symmetry_space_group_name_H-M	'P1'
_symmetry_Int_Tables_number	1
_symmetry_cell_setting	triclinic
loop_
_symmetry_equiv_pos_as_xyz
  x,y,z
_cell_length_a	16.959455
_cell_length_b	19.120786
_cell_length_c	16.959447
_cell_angle_alpha	87.526589
_cell_angle_beta	89.985678
_cell_angle_gamma	92.462118
loop_
_atom_site_label
_atom_site_type_symbol
_atom_site_fract_x
_atom_site_fract_y
_atom_site_fract_z
Zn1	Zn	1.194928	-0.279674	-0.433464
Zn2	Zn	1.694928	0.220326	0.066536
Zn3	Zn	1.189199	-0.397142	-0.295639
Zn4	Zn	1.689199	0.102858	0.204361
Zn5	Zn	1.062756	-0.279696	-0.301301
Zn6	Zn	1.562756	0.220304	0.198699
Zn7	Zn	1.057072	-0.397089	-0.427780
Zn8	Zn	1.557072	0.102911	0.072220
O9	O	1.125989	-0.338400	-0.364546
O10	O	1.625989	0.161600	0.135454
O11	O	1.304779	-0.295269	-0.415191
O12	O	1.804779	0.204731	0.084809
O13	O	1.172407	-0.381593	-0.185777
O14	O	1.672407	0.118407	0.314223
O15	O	1.085065	-0.181402	-0.323581
O16	O	1.585065	0.318598	0.176419
O17	O	1.300570	-0.381572	-0.313931
O18	O	1.800570	0.118428	0.186069
O19	O	1.182171	-0.181386	-0.420681
O20	O	1.682171	0.318614	0.079319
O21	O	1.079510	-0.295306	-0.189937
O22	O	1.579510	0.204694	0.310063
O23	O	0.951392	-0.295255	-0.318069
O24	O	1.451392	0.204745	0.181931
O25	O	1.075378	-0.381482	-0.539146
O26	O	1.575378	0.118518	-0.039146
O27	O	0.947216	-0.381504	-0.410993
O28	O	1.447216	0.118496	0.089007
O29	O	1.176661	-0.295218	-0.543323
O30	O	1.676661	0.204782	-0.043323
O31	O	1.166896	-0.495425	-0.308419
O32	O	1.666896	0.004575	0.191581
O33	O	1.069823	-0.495386	-0.405503
O34	O	1.569823	0.004614	0.094497
C35	C	0.920624	-0.338377	-0.364529
C36	C	1.420624	0.161623	0.135471
C37	C	0.832767	-0.338384	-0.364539
C38	C	1.332767	0.161616	0.135461
C39	C	1.117143	-0.520891	-0.355747
C40	C	1.617143	-0.020891	0.144253
C41	C	1.113431	-0.598962	-0.352009
C42	C	1.613431	-0.098962	0.147991
C43	C	0.463442	-0.293454	-0.316268
C44	C	0.963442	0.206546	0.183732
C45	C	0.459136	-0.383404	-0.412866
C46	C	0.959136	0.116596	0.087134
C47	C	0.541683	-0.383394	-0.412862
C48	C	1.041683	0.116606	0.087138
C49	C	0.585112	-0.338414	-0.364559
C50	C	1.085112	0.161586	0.135441
C51	C	0.545996	-0.293444	-0.316260
C52	C	1.045996	0.206556	0.183740
C53	C	0.580805	-0.428368	-0.461154
C54	C	1.080805	0.071632	0.038846
C55	C	0.663356	-0.428361	-0.461151
C56	C	1.163356	0.071639	0.038849
C57	C	0.706788	-0.383376	-0.412851
C58	C	1.206788	0.116624	0.087149
C59	C	0.667666	-0.338404	-0.364551
C60	C	1.167666	0.161596	0.135449
C61	C	0.711096	-0.293424	-0.316248
C62	C	1.211096	0.206576	0.183752
C63	C	0.671977	-0.248447	-0.267952
C64	C	1.171977	0.251553	0.232048
C65	C	0.589428	-0.248459	-0.267961
C66	C	1.089428	0.251541	0.232039
C67	C	0.789337	-0.383364	-0.412843
C68	C	1.289337	0.116636	0.087157
C69	C	0.793650	-0.293414	-0.316241
C70	C	1.293650	0.206586	0.183759
C71	C	1.162207	-0.635571	-0.400849
C72	C	1.662207	-0.135571	0.099151
C73	C	1.158716	-0.708926	-0.397338
C74	C	1.658716	-0.208926	0.102662
C75	C	1.106452	-0.745672	-0.344983
C76	C	1.606452	-0.245672	0.155017
C77	C	1.057670	-0.709058	-0.296141
C78	C	1.557670	-0.209058	0.203859
C79	C	1.061158	-0.635703	-0.299656
C80	C	1.561158	-0.135703	0.200344
C81	C	1.093390	-0.967157	-0.331842
C82	C	1.593390	-0.467157	0.168158
C83	C	1.089908	-1.040517	-0.328328
C84	C	1.589908	-0.540517	0.171672
C85	C	1.190954	-1.040380	-0.429527
C86	C	1.690954	-0.540380	0.070473
C87	C	1.194440	-0.967025	-0.433034
C88	C	1.694440	-0.467025	0.066966
C89	C	1.145655	-0.930417	-0.384195
C90	C	1.645655	-0.430417	0.115805
C91	C	1.102884	-0.820653	-0.341391
C92	C	1.602884	-0.320653	0.158609
C93	C	1.149220	-0.855437	-0.387791
C94	C	1.649220	-0.355437	0.112209
C95	C	1.332156	-0.338424	-0.364563
C96	C	1.832156	0.161576	0.135437
C97	C	1.420012	-0.338434	-0.364571
C98	C	1.920012	0.161566	0.135429
C99	C	1.126025	-0.338342	-0.570717
C100	C	1.626025	0.161658	-0.070717
C101	C	1.126040	-0.338317	-0.658575
C102	C	1.626040	0.161683	-0.158575
C103	C	1.134891	-0.155196	-0.373397
C104	C	1.634891	0.344804	0.126603
C105	C	1.138685	-0.077126	-0.377168
C106	C	1.638685	0.422874	0.122832
C107	C	1.073405	-0.383157	-1.027882
C108	C	1.573405	0.116843	-0.527882
C109	C	1.178871	-0.293329	-1.032226
C110	C	1.678871	0.206671	-0.532226
C111	C	1.178849	-0.293344	-0.949679
C112	C	1.678849	0.206656	-0.449679
C113	C	1.126105	-0.338267	-0.906230
C114	C	1.626105	0.161733	-0.406230
C115	C	1.073383	-0.383175	-0.945328
C116	C	1.573383	0.116825	-0.445328
C117	C	1.231576	-0.248442	-0.910576
C118	C	1.731576	0.251558	-0.410576
C119	C	1.231557	-0.248455	-0.828024
C120	C	1.731557	0.251545	-0.328024
C121	C	1.178808	-0.293375	-0.784573
C122	C	1.678808	0.206625	-0.284573
C123	C	1.126083	-0.338284	-0.823676
C124	C	1.626083	0.161716	-0.323676
C125	C	1.073339	-0.383207	-0.780227
C126	C	1.573339	0.116793	-0.280227
C127	C	1.020610	-0.428114	-0.819328
C128	C	1.520610	0.071886	-0.319328
C129	C	1.020635	-0.428095	-0.901877
C130	C	1.520635	0.071905	-0.401877
C131	C	1.178784	-0.293394	-0.702024
C132	C	1.678784	0.206606	-0.202024
C133	C	1.073318	-0.383225	-0.697672
C134	C	1.573318	0.116775	-0.197672
C135	C	1.126001	-0.338407	-0.159179
C136	C	1.626001	0.161593	0.340821
C137	C	1.126149	-0.338234	-0.071331
C138	C	1.626149	0.161766	0.428669
H139	H	0.829006	-0.256780	-0.276911
H140	H	1.329006	0.243220	0.223089
H141	H	0.695200	-0.464983	-0.500477
H142	H	1.195200	0.035017	-0.000477
C143	C	1.236881	-0.243912	-1.080023
C144	C	1.736881	0.256088	-0.580023
N145	N	1.280572	-0.206686	-1.116027
N146	N	1.780572	0.293314	-0.616027
C147	C	1.015292	-0.432644	-0.649885
C148	C	1.515292	0.067356	-0.149885
N149	N	0.971588	-0.469866	-0.613892
N150	N	1.471588	0.030134	-0.113892
C151	C	1.007500	-0.595434	-0.245928
C152	C	1.507500	-0.095434	0.254072
N153	N	0.967082	-0.565104	-0.205460
N154	N	1.467082	-0.065104	0.294540
C155	C	0.719760	-0.198968	-0.214823
C156	C	1.219760	0.301032	0.285177
N157	N	0.755754	-0.161699	-0.174810
N158	N	1.255754	0.338301	0.325190
H159	H	0.557569	-0.211843	-0.228639
H160	H	1.057569	0.288157	0.271361
C161	C	0.420410	-0.243981	-0.263145
C162	C	0.920410	0.256019	0.236855
N163	N	0.387998	-0.206718	-0.223132
N164	N	0.887998	0.293282	0.276868
C165	C	1.212385	-0.749193	-0.451056
C166	C	1.712385	-0.249193	0.048944
N167	N	1.252814	-0.779521	-0.491515
N168	N	1.752814	-0.279521	0.008485
C169	C	0.832365	-0.432835	-0.465965
C170	C	1.332365	0.067165	0.034035
N171	N	0.864773	-0.470098	-0.505982
N172	N	1.364773	0.029902	-0.005982
H173	H	1.047344	-1.070433	-0.285694
H174	H	1.547344	-0.570433	0.214306
H175	H	1.030472	-0.419717	-1.059722
H176	H	1.530472	0.080283	-0.559722
H177	H	0.423771	-0.420029	-0.452188
H178	H	0.923771	0.079971	0.047812
H179	H	1.230671	-1.070194	-0.469289
H180	H	1.730671	-0.570194	0.030711
H181	H	0.977669	-0.464693	-0.783941
H182	H	1.477669	0.035307	-0.283941
H183	H	0.545438	-0.464994	-0.500474
H184	H	1.045438	0.035006	-0.000474
H185	H	1.053669	-0.937357	-0.292074
H186	H	1.553669	-0.437357	0.207926
H187	H	1.274522	-0.211872	-0.945958
H188	H	1.774522	0.288128	-0.445958
C189	C	1.219704	-0.595158	-0.458443
C190	C	1.719704	-0.095158	0.041557
N191	N	1.263010	-0.564720	-0.501826
N192	N	1.763010	-0.064720	-0.001826
C193	C	1.251949	-0.926610	-0.490614
C194	C	1.751949	-0.426610	0.009386
N195	N	1.295273	-0.896170	-0.533977
N196	N	1.795273	-0.396170	-0.033977
H197	H	1.221717	-0.256834	-0.670191
H198	H	1.721717	0.243166	-0.170191
C199	C	0.962634	-0.477483	-0.944895
C200	C	1.462634	0.022517	-0.444895
N201	N	0.918947	-0.514682	-0.977299
N202	N	1.418947	-0.014682	-0.477299
H203	H	1.015112	-0.738981	-0.253516
H204	H	1.515112	-0.238981	0.246484
C205	C	1.045465	-0.861080	-0.283731
C206	C	1.545465	-0.361080	0.216269
N207	N	1.002241	-0.891532	-0.240278
N208	N	1.502241	-0.391532	0.259722
H209	H	1.191770	-0.825517	-0.430422
H210	H	1.691770	-0.325517	0.069578
H211	H	1.274492	-0.211890	-0.796195
H212	H	1.774492	0.288110	-0.296195
