data_functionalizedCrystal
_audit_creation_method	'MofGen! by Chris Wilmer'
_symmetry_space_group_name_H-M	'P1'
_symmetry_Int_Tables_number	1
_symmetry_cell_setting	triclinic
loop_
_symmetry_equiv_pos_as_xyz
  x,y,z
_cell_length_a	8.559649
_cell_length_b	15.944551
_cell_length_c	7.088929
_cell_angle_alpha	83.774879
_cell_angle_beta	95.325015
_cell_angle_gamma	76.638701
loop_
_atom_site_label
_atom_site_type_symbol
_atom_site_fract_x
_atom_site_fract_y
_atom_site_fract_z
O1	O	2.103727	-0.018804	-0.158956
O2	O	1.638526	0.024575	-0.158968
O3	O	1.883832	-0.120210	-0.158944
O4	O	1.858421	0.125981	-0.158979
O5	O	1.916614	-0.139599	0.159034
O6	O	1.671309	0.005187	0.159010
O7	O	2.136509	-0.038193	0.159023
Cu8	Cu	1.906902	-0.018273	0.188050
Cu9	Cu	1.868133	0.004656	-0.187996
O10	O	1.891203	0.106593	0.158999
C11	C	1.595388	0.018169	0.000020
C12	C	1.418008	0.027954	0.000015
C13	C	1.899168	-0.161130	0.000045
C14	C	1.896006	-0.254172	0.000046
C15	C	1.736394	-0.458727	0.000015
C16	C	1.826675	-0.534087	0.156800
C17	C	1.890284	-0.424528	0.000031
C18	C	1.794391	-0.514957	-0.156702
C19	C	1.884745	-0.589082	0.000009
C20	C	1.980621	-0.498671	0.156945
C21	C	1.948300	-0.479525	-0.156697
C22	C	2.038697	-0.554877	0.000126
C23	C	1.893471	-0.329732	0.000046
C24	C	1.881571	-0.683878	0.000008
C25	C	2.179647	-0.031786	0.000031
C26	C	2.357025	-0.041571	0.000022
C27	C	1.875866	0.147513	0.000005
C28	C	1.879027	0.240556	-0.000008
N29	N	1.934182	-0.034401	0.452541
N30	N	1.840866	0.020776	-0.452487
H31	H	1.608676	-0.417185	0.000169
N32	N	1.461732	-0.125645	0.000063
N33	N	1.404483	-0.191012	0.000081
H34	H	1.478440	-0.250392	0.000113
N35	N	2.055496	-0.106143	0.554994
N36	N	2.016089	-0.161733	0.666740
H37	H	2.101761	-0.212403	0.739098
N38	N	1.719512	0.092507	0.445119
N39	N	1.631769	0.144384	0.534308
H40	H	1.546059	0.195046	0.461984
H41	H	1.334507	0.094969	-0.000005
H42	H	1.775252	-0.558076	0.289345
H43	H	2.059335	-0.490968	0.289640
N44	N	2.199095	-0.606826	0.000249
N45	N	2.305897	-0.609324	0.134983
H46	H	2.419179	-0.646013	0.135079
N47	N	2.012760	-0.449409	-0.322978
N48	N	2.055231	-0.499697	-0.442479
H49	H	2.100746	-0.478426	-0.559931
N50	N	1.695546	-0.524748	-0.322960
N51	N	1.549057	-0.486005	-0.350852
H52	H	1.479236	-0.492917	-0.468263
