data_functionalizedCrystal
_audit_creation_method	'MofGen! by Chris Wilmer'
_symmetry_space_group_name_H-M	'P1'
_symmetry_Int_Tables_number	1
_symmetry_cell_setting	triclinic
loop_
_symmetry_equiv_pos_as_xyz
  x,y,z
_cell_length_a	15.995343
_cell_length_b	12.837942
_cell_length_c	11.295483
_cell_angle_alpha	85.469583
_cell_angle_beta	85.899052
_cell_angle_gamma	90.840938
loop_
_atom_site_label
_atom_site_type_symbol
_atom_site_fract_x
_atom_site_fract_y
_atom_site_fract_z
O1	O	1.126724	-0.126607	-0.098903
O2	O	0.884267	-0.143113	-0.098932
O3	O	1.000119	0.016042	-0.098911
O4	O	1.010872	-0.285762	-0.098924
O5	O	0.989942	0.002085	0.099138
O6	O	0.874089	-0.157071	0.099117
O7	O	1.116547	-0.140564	0.099146
Cu8	Cu	0.994389	-0.150092	0.117215
Cu9	Cu	1.006425	-0.133586	-0.117001
O10	O	1.000695	-0.299720	0.099125
C11	C	0.847929	-0.149411	0.000089
C12	C	0.754816	-0.147368	0.000078
C13	C	0.584333	-0.143663	0.000095
C14	C	0.551821	-0.028776	0.000099
C15	C	0.454947	-0.026647	0.000556
C16	C	0.416481	-0.140014	0.000109
C17	C	0.444382	-0.205735	0.112977
C18	C	0.541278	-0.207104	0.113065
C19	C	0.552897	-0.192913	-0.112162
C20	C	0.456139	-0.188568	-0.113638
C21	C	0.321618	-0.137958	0.000121
C22	C	0.679195	-0.145723	0.000090
C23	C	0.991398	0.047684	0.000113
C24	C	0.980565	0.162761	0.000109
C25	C	1.152885	-0.134267	0.000122
C26	C	1.245998	-0.136309	0.000125
C27	C	1.009416	-0.331361	0.000099
C28	C	1.020249	-0.446438	0.000094
N29	N	0.985930	-0.161701	0.281950
C30	C	1.110803	0.403724	0.000100
C31	C	1.100628	0.511850	0.000097
C32	C	0.950041	0.487141	0.000091
C33	C	0.960216	0.379015	0.000095
C34	C	1.040599	0.337311	0.000101
C35	C	1.050773	0.229183	0.000112
C36	C	0.900187	0.204476	0.000098
C37	C	0.890012	0.312602	0.000095
N38	N	1.014890	-0.121968	-0.281736
C39	C	1.075780	-0.038343	0.531255
C40	C	1.069394	-0.047123	0.655918
C41	C	0.966767	-0.188036	0.655940
C42	C	0.973153	-0.179256	0.531277
C43	C	1.027662	-0.104408	0.468939
C44	C	1.034052	-0.095633	0.344275
C45	C	0.931422	-0.236541	0.344298
C46	C	0.925036	-0.245321	0.468961
H47	H	0.560557	-0.173534	0.197760
Cl48	Cl	1.211851	0.351290	0.000137
H49	H	1.120169	0.022595	0.480499
H50	H	1.157795	0.565921	0.000092
H51	H	0.580434	0.021458	-0.080827
H52	H	0.824566	0.346573	0.000086
Cl53	Cl	0.811925	0.120977	0.000115
H54	H	0.436476	0.024273	-0.080336
Cl55	Cl	0.401794	-0.153717	0.243163
Cl56	Cl	0.898236	-0.282115	0.734319
H57	H	0.884597	0.521116	0.000074
H58	H	1.078439	-0.034691	0.293520
Cl59	Cl	1.129885	0.035936	0.734255
H60	H	0.880653	-0.306259	0.519731
H61	H	0.892244	-0.290338	0.293546
Cl62	Cl	0.584757	0.030066	0.124883
H63	H	0.428737	0.012625	0.081942
Cl64	Cl	0.405189	-0.335010	0.118970
Cl65	Cl	0.573779	-0.337699	0.120499
Cl66	Cl	0.598865	-0.127637	-0.244288
Cl67	Cl	1.151824	0.176755	0.000128
H68	H	0.430153	-0.270804	-0.120807
Cl69	Cl	0.428959	-0.114512	-0.242561
H70	H	0.573713	-0.277400	-0.113254
