data_functionalizedCrystal
_audit_creation_method	'MofGen! by Chris Wilmer'
_symmetry_space_group_name_H-M	'P1'
_symmetry_Int_Tables_number	1
_symmetry_cell_setting	triclinic
loop_
_symmetry_equiv_pos_as_xyz
  x,y,z
_cell_length_a	16.625546
_cell_length_b	12.759401
_cell_length_c	12.759393
_cell_angle_alpha	90.018713
_cell_angle_beta	89.964856
_cell_angle_gamma	89.976007
loop_
_atom_site_label
_atom_site_type_symbol
_atom_site_fract_x
_atom_site_fract_y
_atom_site_fract_z
Zn1	Zn	-0.320930	-1.606187	-0.593986
Zn2	Zn	-0.455784	-1.606061	-0.418292
Zn3	Zn	-0.320973	-1.430492	-0.418322
Zn4	Zn	-0.455728	-1.430453	-0.593930
O5	O	-0.388353	-1.518298	-0.506132
O6	O	-0.338824	-1.753191	-0.570692
O7	O	-0.437942	-1.582735	-0.271275
O8	O	-0.208134	-1.453867	-0.441660
O9	O	-0.437901	-1.753098	-0.441610
O10	O	-0.208103	-1.582949	-0.570720
O11	O	-0.338897	-1.453745	-0.271297
O12	O	-0.338842	-1.283466	-0.441605
O13	O	-0.437805	-1.453801	-0.740958
O14	O	-0.437846	-1.283438	-0.570623
O15	O	-0.338769	-1.582912	-0.741000
O16	O	-0.568609	-1.582697	-0.441555
O17	O	-0.568567	-1.453679	-0.570595
C18	C	-0.388344	-1.245331	-0.506112
C19	C	-0.388359	-1.128554	-0.506128
C20	C	-0.597844	-1.518199	-0.506088
C21	C	-0.687465	-1.518252	-0.506105
C22	C	-0.388276	-1.518366	-0.780166
C23	C	-0.388243	-1.518395	-0.896943
C24	C	-1.015641	-1.518436	-0.506214
C25	C	-0.924332	-1.518381	-0.506187
C26	C	-0.851556	-1.518343	-0.506159
C27	C	-0.760242	-1.518290	-0.506132
C28	C	-0.178044	-1.518427	-0.506200
C29	C	-0.088423	-1.518481	-0.506228
C30	C	-0.388364	-1.792331	-0.506154
C31	C	-0.388368	-1.909108	-0.506163
C32	C	-0.439989	-1.073705	-0.573202
C33	C	-0.439992	-0.963981	-0.573223
C34	C	-0.336733	-0.963965	-0.439086
C35	C	-0.336726	-1.073687	-0.439071
C36	C	-0.468924	-0.814075	-0.697080
C37	C	-0.520566	-0.759222	-0.764145
C38	C	-0.599254	-0.794805	-0.780084
C39	C	-0.626316	-0.885240	-0.728944
C40	C	-0.574678	-0.940087	-0.661871
C41	C	-0.495978	-0.904505	-0.645952
C42	C	-0.307803	-1.223595	-0.315212
C43	C	-0.256168	-1.278444	-0.248134
C44	C	-0.177479	-1.242863	-0.232183
C45	C	-0.150420	-1.152425	-0.283306
C46	C	-0.202054	-1.097576	-0.350384
C47	C	-0.280743	-1.133165	-0.366336
C48	C	-0.439787	-1.451190	-0.951785
C49	C	-0.439757	-1.451227	-1.061509
C50	C	-0.336632	-1.585678	-1.061539
C51	C	-0.336667	-1.585645	-0.951817
C52	C	-0.534799	-1.413674	-1.211433
C53	C	-0.586336	-1.346452	-1.266279
C54	C	-0.598721	-1.243920	-1.230662
C55	C	-0.559558	-1.208587	-1.140201
C56	C	-0.508016	-1.275803	-1.085361
C57	C	-0.495646	-1.378351	-1.120976
C58	C	-0.241623	-1.623188	-0.801891
C59	C	-0.190076	-1.690399	-0.747049
C60	C	-0.177682	-1.792934	-0.782664
C61	C	-0.216831	-1.828262	-0.873128
C62	C	-0.268379	-1.761051	-0.927970
C63	C	-0.280773	-1.658517	-0.892348
C64	C	-0.388372	-1.518291	-0.233165
C65	C	-0.388178	-1.518466	-0.116389
H66	H	-0.482029	-1.118375	-0.627806
C67	C	-0.656058	-0.734464	-0.853860
N68	N	-0.698838	-0.689014	-0.909433
H69	H	-0.251713	-1.539696	-0.772881
C70	C	-0.496527	-1.377221	-0.891426
N71	N	-0.539268	-1.321507	-0.845968
H72	H	-0.596711	-1.013716	-0.620233
C73	C	-0.172284	-0.998095	-0.406626
N74	N	-0.149861	-0.923168	-0.448989
C75	C	-0.573176	-1.095786	-1.101038
N76	N	-0.583435	-1.010823	-1.071537
H77	H	-0.206735	-1.911752	-0.902131
H78	H	-0.294640	-1.640429	-1.106232
H79	H	-0.086349	-1.123442	-0.270302
C80	C	-0.120975	-1.866864	-0.722333
N81	N	-0.078266	-1.922551	-0.676894
H82	H	-0.498525	-0.685591	-0.805785
C83	C	-0.712883	-0.924367	-0.746472
N84	N	-0.778087	-0.953841	-0.759677
C85	C	-0.382359	-0.774931	-0.679562
N86	N	-0.317158	-0.745443	-0.666366
H87	H	-0.294697	-0.919279	-0.384490
H88	H	-0.135441	-1.287527	-0.177553
H89	H	-0.278207	-1.352083	-0.206507
C90	C	-0.147013	-1.651534	-0.647533
N91	N	-0.114582	-1.622263	-0.572575
H92	H	-0.640683	-1.189187	-1.275325
H93	H	-0.371876	-1.252581	-0.328203
H94	H	-0.618222	-1.375229	-1.339932
C95	C	-0.464941	-1.236946	-0.985856
N96	N	-0.432503	-1.207677	-0.910903
C97	C	-0.521256	-1.526506	-1.250549
N98	N	-0.511078	-1.611506	-1.279994
H99	H	-0.300252	-1.789822	-1.001634
