data_functionalizedCrystal
_audit_creation_method	'MofGen! by Chris Wilmer'
_symmetry_space_group_name_H-M	'P1'
_symmetry_Int_Tables_number	1
_symmetry_cell_setting	triclinic
loop_
_symmetry_equiv_pos_as_xyz
  x,y,z
_cell_length_a	14.395555
_cell_length_b	14.395555
_cell_length_c	27.440280
_cell_angle_alpha	89.995703
_cell_angle_beta	119.993490
_cell_angle_gamma	59.996404
loop_
_atom_site_label
_atom_site_type_symbol
_atom_site_fract_x
_atom_site_fract_y
_atom_site_fract_z
Zr1	Zr	1.016775	0.894853	0.063923
O2	O	1.210567	0.746513	0.141737
O3	O	0.822975	0.940336	0.040069
O4	O	1.016756	0.940326	0.141732
O5	O	1.016805	0.746520	-0.040119
O6	O	1.016749	1.093200	0.141728
O7	O	1.016787	0.746522	0.040075
O8	O	0.670111	1.093217	-0.040128
O9	O	1.363443	0.746503	0.141737
O10	O	0.902686	1.073811	0.029893
O11	O	0.902704	0.959722	-0.029952
O12	O	1.130855	0.959711	0.089743
O13	O	1.130874	0.845621	0.029899
Zr14	Zr	1.016793	1.138666	-0.063983
Zr15	Zr	1.016764	1.138669	0.063917
Zr16	Zr	1.016804	0.894849	-0.063976
Zr17	Zr	1.260593	0.894838	0.063923
Zr18	Zr	0.772975	1.138681	-0.063982
O19	O	1.210593	1.093183	-0.040129
O20	O	1.210552	1.093188	0.141727
O21	O	1.210608	0.746508	-0.040119
O22	O	0.823001	1.287006	-0.141796
O23	O	0.822960	1.287011	0.040060
O24	O	0.823016	0.940330	-0.141787
O25	O	1.016763	1.286999	0.040060
O26	O	1.016812	1.093193	-0.141791
O27	O	1.016819	0.940318	-0.141787
O28	O	1.016781	1.286997	-0.040134
O29	O	1.363434	0.940305	0.141732
O30	O	0.670134	1.093214	-0.141791
O31	O	0.670125	1.287016	-0.141796
O32	O	0.670103	1.287018	-0.040133
O33	O	1.363465	0.746500	0.040074
O34	O	1.363457	0.940302	0.040069
O35	O	0.902713	1.073808	-0.089802
O36	O	0.902694	1.187898	-0.029958
O37	O	1.130864	1.073797	0.029892
O38	O	1.130882	0.959707	-0.029952
C39	C	0.711804	1.016778	-0.000029
C40	C	0.608297	1.016785	-0.000029
C41	C	0.485802	1.078966	0.032602
C42	C	0.623929	0.971705	0.056260
C43	C	0.471581	1.124026	-0.023660
C44	C	0.562097	0.909409	0.023661
C45	C	0.409676	1.061808	-0.056290
C46	C	0.547794	0.954482	-0.032646
C47	C	1.016798	0.711782	-0.000021
C48	C	1.016802	0.608276	-0.000018
C49	C	1.141211	0.485474	0.032610
C50	C	1.079010	0.454643	0.056256
C51	C	1.078998	0.454683	-0.023660
C52	C	0.954601	0.578808	0.023661
C53	C	0.954607	0.578845	-0.056286
C54	C	0.892315	0.548087	-0.032654
C55	C	1.321764	1.016741	-0.000030
C56	C	1.425271	1.016734	-0.000030
C57	C	1.016748	1.016764	0.159953
C58	C	1.016736	1.016765	0.214249
C59	C	1.016770	1.321737	-0.000038
C60	C	1.016766	1.425243	-0.000041
C61	C	0.897660	1.076333	0.417716
C62	C	0.897653	1.076337	0.366694
O63	O	0.796361	1.127022	0.313736
N64	N	1.016754	1.016773	0.372418
C65	C	1.135870	0.957210	0.429168
O66	O	1.237174	0.906547	0.429352
C67	C	1.135875	0.957213	0.480189
C68	C	1.016767	1.016772	0.474461
C69	C	0.778561	1.135888	0.411990
C70	C	0.778569	1.135882	0.463009
C71	C	0.897676	1.076321	0.519754
C72	C	1.016775	1.016766	0.525480
C73	C	1.254990	0.897657	0.536939
C74	C	1.254986	0.897666	0.587961
C75	C	1.135877	0.957225	0.582232
C76	C	1.135889	0.957198	0.633243
N77	N	1.016788	1.016763	0.627520
C78	C	0.897681	1.076324	0.570775
C79	C	1.135848	0.957209	0.322018
C80	C	1.135844	0.957199	0.270999
C81	C	0.897626	1.076328	0.208528
C82	C	0.897632	1.076331	0.259549
C83	C	1.016747	1.016774	0.316295
C84	C	0.897707	1.076306	0.677921
C85	C	0.897725	1.076290	0.728947
C86	C	1.135942	0.957166	0.791413
C87	C	1.135924	0.957176	0.740392
C88	C	1.016796	1.016754	0.683644
O89	O	1.237129	0.906543	0.686220
O90	O	0.796394	1.126990	0.570602
C91	C	1.016820	1.016749	0.839988
C92	C	1.016832	1.016729	0.785692
C93	C	0.711791	1.321756	-0.000038
C94	C	0.608279	1.425269	-0.000040
C95	C	0.711840	1.016774	-0.160012
C96	C	0.608345	1.016779	-0.214308
C97	C	0.711827	1.321751	-0.160020
C98	C	0.608327	1.425263	-0.214319
C99	C	1.321741	0.711768	0.159961
C100	C	1.425241	0.608256	0.214260
C101	C	1.321777	0.711763	-0.000021
C102	C	1.425289	0.608250	-0.000019
C103	C	1.321728	1.016745	0.159952
C104	C	1.425223	1.016740	0.214249
C105	C	0.559747	1.076333	-0.271053
C106	C	0.462516	1.076333	-0.322075
C107	C	0.413879	1.016785	-0.316351
C108	C	0.462486	0.957224	-0.259600
C109	C	0.559722	0.957217	-0.208579
C110	C	0.559713	1.533437	-0.208581
C111	C	0.462477	1.630706	-0.259596
C112	C	0.413851	1.619799	-0.316349
C113	C	0.462475	1.511613	-0.322086
C114	C	0.559715	1.414346	-0.271072
C115	C	1.473867	0.500082	0.208522
C116	C	1.571133	0.402813	0.259537
C117	C	1.619764	0.413720	0.316290
C118	C	1.571134	0.521906	0.322027
C119	C	1.473877	0.619172	0.271013
C120	C	1.473830	1.076300	0.208506
C121	C	1.571061	1.076317	0.259518
C122	C	1.619691	1.016768	0.316273
C123	C	1.571074	0.957207	0.322015
C124	C	1.473838	0.957196	0.271003
C125	C	0.547722	1.548066	-0.032658
C126	C	0.409613	1.578935	-0.056292
C127	C	0.562005	1.578834	0.023623
C128	C	0.471469	1.454774	-0.023708
C129	C	0.623936	1.454676	0.056238
C130	C	0.485836	1.485472	0.032617
H131	H	0.715533	0.933598	0.103840
C132	C	0.766606	1.141854	0.146103
H133	H	0.695666	1.177324	0.149995
H134	H	0.761659	1.198204	0.124900
H135	H	0.761659	1.090442	0.124906
H136	H	0.422897	1.718786	-0.254914
C137	C	0.883616	0.650881	0.050737
H138	H	0.853941	0.614771	0.062009
H139	H	0.942561	0.658124	0.084881
H140	H	0.810535	0.724212	0.022016
H141	H	1.434286	0.707250	0.275692
H142	H	0.800701	1.124820	0.631719
H143	H	1.610635	1.124818	0.254831
H144	H	1.610711	0.314733	0.254854
C145	C	0.409055	1.141858	-0.384494
H146	H	0.344190	1.133328	-0.414065
H147	H	0.371109	1.220209	-0.388968
H148	H	0.478893	1.112442	-0.388961
C149	C	0.612295	1.651075	0.050633
H150	H	0.611892	1.657780	0.084980
H151	H	0.699261	1.615416	0.061577
H152	H	0.556733	1.724615	0.022001
H153	H	1.232912	0.908661	0.745057
C154	C	0.306913	1.016808	-0.372477
H155	H	0.284933	1.060818	-0.407090
H156	H	0.338781	0.940938	-0.372486
H157	H	0.231017	1.048713	-0.372487
H158	H	1.698957	0.334510	0.357824
H159	H	1.610742	0.530773	0.368242
H160	H	0.318048	1.099941	-0.103860
H161	H	0.458680	1.131484	0.060230
C162	C	0.613192	1.545451	-0.146158
H163	H	0.678063	1.472036	-0.116591
H164	H	0.651136	1.585852	-0.141685
H165	H	0.543364	1.585870	-0.141685
C166	C	0.613161	0.891713	-0.146163
H167	H	0.570253	0.856262	-0.150067
H168	H	0.704978	0.835347	-0.124952
H169	H	0.597192	0.943126	-0.124967
H170	H	0.800728	1.124790	0.724275
C171	C	0.612639	0.786805	0.050738
H172	H	0.546141	0.787538	0.050591
H173	H	0.634564	0.742518	0.027738
H174	H	0.688387	0.754728	0.090598
H175	H	0.787031	0.573751	-0.060250
H176	H	0.334672	1.699009	-0.357883
C177	C	0.613240	1.141834	-0.277358
H178	H	0.678106	1.133317	-0.238848
H179	H	0.651193	1.112414	-0.298552
H180	H	0.543416	1.220192	-0.298561
C181	C	0.449322	1.450829	0.069902
H182	H	0.416456	1.407539	0.053022
H183	H	0.525089	1.406390	0.109690
H184	H	0.383864	1.517198	0.069984
C185	C	0.647548	1.201423	0.456701
H186	H	0.576621	1.236905	0.415595
H187	H	0.642571	1.150042	0.475305
H188	H	0.642608	1.257786	0.475300
C189	C	1.150055	0.382425	-0.050669
H190	H	1.238441	0.359419	-0.027432
H191	H	1.148846	0.317048	-0.050827
H192	H	1.106726	0.426247	-0.090409
C193	C	0.584313	1.582416	-0.069993
H194	H	0.508889	1.625664	-0.109960
H195	H	0.615792	1.626824	-0.053596
H196	H	0.650822	1.515940	-0.069467
C197	C	0.408966	1.499630	-0.384516
H198	H	0.344080	1.573057	-0.414072
H199	H	0.478767	1.459218	-0.389003
H200	H	0.371005	1.459238	-0.388992
C201	C	1.420350	1.141814	0.146082
H202	H	1.463225	1.177293	0.149976
H203	H	1.436299	1.090415	0.124880
H204	H	1.328527	1.198176	0.124882
H205	H	0.599285	1.326270	-0.275753
C206	C	1.266863	0.891677	0.277305
H207	H	1.337793	0.856214	0.318411
H208	H	1.271824	0.835321	0.258704
H209	H	1.271812	0.943089	0.258701
H210	H	1.434277	0.491179	0.162315
C211	C	0.285818	1.651277	-0.120552
H212	H	0.307075	1.674305	-0.143696
H213	H	0.253809	1.607520	-0.137570
H214	H	0.220205	1.716656	-0.120035
C215	C	0.747765	1.382338	0.120485
H216	H	0.780701	1.425652	0.137227
H217	H	0.726222	1.360472	0.143842
H218	H	0.812789	1.316269	0.120021
C219	C	1.726659	1.016778	0.372381
H220	H	1.748645	1.060772	0.360826
H221	H	1.694790	1.048665	0.395464
H222	H	1.802550	0.940896	0.395460
H223	H	0.574863	0.901803	-0.060235
C224	C	0.420910	1.382742	-0.050798
H225	H	0.487388	1.316991	-0.050673
H226	H	0.399018	1.360340	-0.027792
H227	H	0.345140	1.426459	-0.090651
C228	C	0.883661	0.651154	-0.120538
H229	H	0.928009	0.607818	-0.137275
H230	H	0.795731	0.673033	-0.143894
H231	H	0.883507	0.717217	-0.120081
C232	C	1.624587	0.891697	0.384447
H233	H	1.689469	0.900229	0.414000
H234	H	1.554785	0.921093	0.388934
H235	H	1.662552	0.813337	0.388926
C236	C	0.421294	1.246572	-0.050666
H237	H	0.421737	1.252877	-0.085002
H238	H	0.334313	1.297885	-0.061628
H239	H	0.476831	1.264547	-0.022027
H240	H	1.434273	0.908691	0.275688
H241	H	1.246409	0.460025	0.060244
H242	H	0.681564	1.184396	0.365789
C243	C	1.150023	0.382329	0.120520
H244	H	1.090833	0.375624	0.123808
H245	H	1.222573	0.308804	0.129940
H246	H	1.180459	0.417958	0.147461
C247	C	0.766614	1.141844	0.253243
H248	H	0.695684	1.177315	0.212138
H249	H	0.761667	1.090442	0.271852
H250	H	0.761650	1.198214	0.271839
C251	C	1.266883	0.891673	0.384437
H252	H	1.337806	0.856193	0.380533
H253	H	1.271853	0.943064	0.405641
H254	H	1.271837	0.835309	0.405640
C255	C	0.408974	0.891731	-0.253308
H256	H	0.451843	0.856250	-0.212206
H257	H	0.317156	0.943150	-0.271920
H258	H	0.424931	0.835371	-0.271911
C259	C	1.386012	0.832149	0.543252
H260	H	1.456937	0.796695	0.584358
H261	H	1.390987	0.775785	0.524655
H262	H	1.390958	0.883563	0.524646
C263	C	1.386016	0.832144	0.650379
H264	H	1.456943	0.796669	0.646478
H265	H	1.390974	0.883540	0.671582
H266	H	1.390974	0.775777	0.671582
H267	H	1.232916	0.908670	0.837623
