data_functionalizedCrystal
_audit_creation_method	'MofGen! by Chris Wilmer'
_symmetry_space_group_name_H-M	'P1'
_symmetry_Int_Tables_number	1
_symmetry_cell_setting	triclinic
loop_
_symmetry_equiv_pos_as_xyz
  x,y,z
_cell_length_a	21.295418
_cell_length_b	17.077402
_cell_length_c	21.295412
_cell_angle_alpha	89.972221
_cell_angle_beta	90.035621
_cell_angle_gamma	89.961304
loop_
_atom_site_label
_atom_site_type_symbol
_atom_site_fract_x
_atom_site_fract_y
_atom_site_fract_z
Zn1	Zn	0.962339	0.312192	0.356249
Zn2	Zn	0.962270	0.443463	0.250980
Zn3	Zn	0.857077	0.312251	0.250958
Zn4	Zn	0.857045	0.443456	0.356177
O5	O	0.909683	0.377841	0.303591
O6	O	1.050419	0.329584	0.342324
O7	O	0.948300	0.426084	0.162888
O8	O	0.871082	0.202396	0.264946
O9	O	1.050369	0.426027	0.264983
O10	O	0.948417	0.202353	0.342302
O11	O	0.871015	0.329684	0.162872
O12	O	0.768983	0.329678	0.264877
O13	O	0.871028	0.426017	0.444276
O14	O	0.768960	0.426074	0.342180
O15	O	0.948387	0.329578	0.444328
O16	O	0.948270	0.553309	0.264914
O17	O	0.870962	0.553304	0.342201
C18	C	0.909622	0.581788	0.303566
C19	C	0.909654	0.669038	0.303576
C20	C	0.746131	0.377882	0.303518
C21	C	0.676163	0.377918	0.303502
C22	C	0.909712	0.377790	0.467781
C23	C	0.909724	0.377768	0.537749
C24	C	0.643301	0.428178	0.343694
C25	C	0.577558	0.428159	0.343722
C26	C	0.544680	0.377888	0.303548
C27	C	0.577551	0.327618	0.263353
C28	C	0.643292	0.327634	0.263330
N29	N	0.441412	0.371755	0.248490
N30	N	0.378960	0.371745	0.248513
C31	C	0.346606	0.377838	0.303614
N32	N	0.379062	0.383956	0.358693
N33	N	0.441519	0.383970	0.358669
C34	C	0.473395	0.377866	0.303568
C35	C	0.242458	0.428079	0.343840
C36	C	0.176714	0.428055	0.343870
C37	C	0.176708	0.327518	0.263495
C38	C	0.242450	0.327539	0.263471
C39	C	0.275321	0.377824	0.303643
C40	C	1.073873	0.377800	0.303664
C41	C	1.143841	0.377782	0.303695
C42	C	0.909761	0.173096	0.303630
C43	C	0.909794	0.085846	0.303647
C44	C	0.949949	0.710005	0.263376
C45	C	0.949980	0.791985	0.263392
C46	C	0.909711	0.832998	0.303605
C47	C	0.869414	0.792025	0.343810
C48	C	0.869387	0.710046	0.343797
C49	C	0.869473	0.962895	0.343834
C50	C	0.869499	1.044880	0.343847
C51	C	0.950065	1.044834	0.263429
C52	C	0.950038	0.962855	0.263416
C53	C	0.909740	0.921889	0.303620
C54	C	0.909690	0.377834	0.140039
C55	C	0.909800	0.377635	0.070072
C56	C	0.950064	0.327428	1.037236
C57	C	0.950060	0.327447	0.971494
C58	C	0.909779	0.377665	0.938589
C59	C	0.869511	0.427881	0.971433
C60	C	0.869522	0.427866	1.037174
N61	N	0.854658	0.383724	0.835342
N62	N	0.854650	0.383733	0.772891
C63	C	0.909746	0.377714	0.740514
N64	N	0.964851	0.371669	0.772948
N65	N	0.964859	0.371655	0.835406
C66	C	0.909763	0.377687	0.867304
C67	C	0.950008	0.327525	0.636393
C68	C	0.950005	0.327549	0.570649
C69	C	0.869451	0.427979	0.570590
C70	C	0.869460	0.427959	0.636332
C71	C	0.909738	0.377727	0.669230
H72	H	0.670060	0.469123	0.376406
F73	F	0.542577	0.481654	0.386502
H74	H	0.550777	0.286686	0.230644
H75	H	0.836720	1.078270	0.376604
H76	H	0.982737	0.676618	0.230626
H77	H	0.269207	0.286616	0.230739
F78	F	0.141740	0.481547	0.386653
F79	F	0.992949	1.088434	0.220636
F80	F	0.826665	0.481306	1.072121
H81	H	0.982805	0.286623	0.663180
F82	F	0.678267	0.274137	0.220551
H83	H	0.269223	0.469020	0.376554
H84	H	0.836575	0.676692	0.376533
H85	H	0.149940	0.286583	0.230787
F86	F	0.992866	0.274114	0.535703
F87	F	0.992895	0.919208	0.220615
F88	F	0.826586	0.481432	0.535575
H89	H	0.982792	0.825336	0.230656
F90	F	0.826603	0.481395	0.671279
H91	H	0.836659	0.929543	0.376575
H92	H	0.982865	0.286529	1.064017
H93	H	0.982848	0.286560	0.944754
H94	H	0.836630	0.825424	0.376556
F95	F	0.826643	0.481328	0.936412
