data_functionalizedCrystal
_audit_creation_method	'MofGen! by Chris Wilmer'
_symmetry_space_group_name_H-M	'P1'
_symmetry_Int_Tables_number	1
_symmetry_cell_setting	triclinic
loop_
_symmetry_equiv_pos_as_xyz
  x,y,z
_cell_length_a	10.654550
_cell_length_b	17.699083
_cell_length_c	9.730223
_cell_angle_alpha	89.997786
_cell_angle_beta	89.996251
_cell_angle_gamma	83.883958
loop_
_atom_site_label
_atom_site_type_symbol
_atom_site_fract_x
_atom_site_fract_y
_atom_site_fract_z
O1	O	1.665973	0.106299	-0.114406
O2	O	1.300318	0.116427	-0.114384
O3	O	1.493476	0.001240	-0.114384
O4	O	1.472815	0.221487	-0.114407
O5	O	1.493474	0.001243	0.114196
O6	O	1.300315	0.116430	0.114196
O7	O	1.665971	0.106302	0.114174
Zn8	Zn	1.483143	0.111366	0.150477
Zn9	Zn	1.483146	0.111363	-0.150687
O10	O	1.472813	0.221490	0.114173
C11	C	1.253531	0.115685	-0.000091
C12	C	1.114127	0.113460	-0.000083
C13	C	1.033454	0.181281	-0.000110
C14	C	0.902470	0.179185	-0.000133
C15	C	0.932845	0.041443	-0.000108
C16	C	1.063826	0.043539	-0.000075
C17	C	1.015917	0.260805	-0.000130
C18	C	0.884933	0.258710	-0.000154
C19	C	1.492735	-0.026961	-0.000093
C20	C	1.490514	-0.110993	-0.000093
C21	C	1.603894	-0.158893	-0.000097
C22	C	1.601799	-0.237850	-0.000109
C23	C	1.486324	-0.268905	-0.000107
C24	C	1.372935	-0.220998	-0.000106
C25	C	1.375031	-0.142043	-0.000104
C26	C	1.364481	-0.539415	-0.000117
C27	C	1.362394	-0.618376	-0.000115
C28	C	1.591249	-0.635222	-0.000122
C29	C	1.593345	-0.556266	-0.000120
C30	C	1.479957	-0.508367	-0.000127
C31	C	1.482229	-0.422753	-0.000116
C32	C	1.484050	-0.354517	-0.000107
C33	C	1.712757	0.107044	-0.000122
C34	C	1.852161	0.109269	-0.000140
C35	C	1.473554	0.249690	-0.000120
C36	C	1.475775	0.333722	-0.000130
N37	N	1.483150	0.111369	0.356013
N38	N	1.483149	0.111355	-0.356223
C39	C	1.568702	0.060381	0.427940
C40	C	1.568699	0.060372	0.571823
C41	C	1.397587	0.162345	0.571840
C42	C	1.397585	0.162349	0.427960
C43	C	1.667496	0.001510	0.427931
C44	C	1.667493	0.001501	0.571814
H45	H	1.051130	0.286125	-0.098820
C46	C	1.783931	0.025202	0.223943
C47	C	1.790123	0.026431	0.367660
H48	H	1.859624	0.040605	0.186737
H49	H	1.773862	-0.024834	0.193786
H50	H	1.714115	0.059014	0.193840
H51	H	1.859934	-0.007385	0.397764
H52	H	1.800206	0.076475	0.397829
H53	H	1.129507	-0.011687	-0.000033
H54	H	1.272153	-0.500424	-0.000122
H55	H	1.044703	0.291908	0.095532
C56	C	0.745545	-0.022930	-0.000148
C57	C	0.877548	-0.035411	-0.000114
H58	H	0.711413	-0.070379	-0.000162
H59	H	0.717828	0.005019	0.079550
H60	H	0.717871	0.005023	-0.079872
H61	H	0.905223	-0.063360	0.079616
H62	H	0.905276	-0.063372	-0.079820
C63	C	1.728462	-0.477243	-0.117630
C64	C	1.720278	-0.522130	-0.000127
H65	H	1.806824	-0.456166	-0.117631
H66	H	1.722893	-0.507693	-0.197325
H67	H	1.661229	-0.437417	-0.117608
H68	H	1.787506	-0.561959	-0.000154
H69	H	1.725859	-0.491678	0.079588
C70	C	1.623177	-0.124648	0.487138
C71	C	1.639913	-0.077016	0.375205
H72	H	1.606139	-0.173123	0.454584
H73	H	1.697723	-0.129993	0.541357
H74	H	1.554300	-0.103135	0.541371
H75	H	1.708795	-0.098526	0.320977
H76	H	1.565358	-0.071673	0.320963
H77	H	0.838840	0.282744	0.098528
H78	H	1.763777	0.014468	0.610857
C79	C	0.924282	0.325776	-0.207611
C80	C	0.827876	0.299155	-0.129300
H81	H	0.889055	0.350741	-0.287338
H82	H	0.966162	0.360473	-0.154459
H83	H	0.982999	0.284163	-0.234164
H84	H	0.769164	0.340769	-0.102738
H85	H	0.785976	0.264456	-0.182462
C86	C	1.828229	-0.246570	-0.000083
C87	C	1.726431	-0.290502	-0.000099
H88	H	1.905173	-0.279077	-0.000067
H89	H	1.824296	-0.215425	-0.079788
H90	H	1.824264	-0.215424	0.079634
H91	H	1.730390	-0.321644	-0.079822
H92	H	1.730365	-0.321660	0.079615
C93	C	1.323410	0.292951	0.616149
C94	C	1.303537	0.218383	0.650923
H95	H	1.265339	0.327547	0.664963
H96	H	1.407178	0.301639	0.639739
H97	H	1.311170	0.300242	0.520162
H98	H	1.315786	0.211091	0.746909
H99	H	1.219750	0.209693	0.627342
C100	C	1.817688	-0.643941	-0.000121
C101	C	1.715893	-0.687874	-0.000130
H102	H	1.894634	-0.676447	-0.000115
H103	H	1.813748	-0.612794	-0.079824
H104	H	1.813729	-0.612797	0.079598
H105	H	1.719847	-0.719015	-0.079855
H106	H	1.719835	-0.719035	0.079581
H107	H	1.268354	-0.643658	-0.000110
H108	H	1.278912	-0.246289	-0.000113
C109	C	1.148599	-0.133317	-0.000088
C110	C	1.250400	-0.089388	-0.000095
H111	H	1.071656	-0.100809	-0.000079
H112	H	1.152545	-0.164460	-0.079793
H113	H	1.152546	-0.164466	0.079630
H114	H	1.246457	-0.058243	-0.079818
H115	H	1.246452	-0.058232	0.079618
C116	C	1.369993	0.265208	0.266168
C117	C	1.303540	0.218395	0.348899
H118	H	1.311929	0.299807	0.217356
H119	H	1.422164	0.292723	0.322298
H120	H	1.420939	0.234840	0.202727
H121	H	1.252601	0.248763	0.412347
H122	H	1.251348	0.190878	0.292764
H123	H	1.697927	-0.133615	-0.000091
H124	H	1.637942	-0.053472	0.616437
