data_functionalizedCrystal
_audit_creation_method	'MofGen! by Chris Wilmer'
_symmetry_space_group_name_H-M	'P1'
_symmetry_Int_Tables_number	1
_symmetry_cell_setting	triclinic
loop_
_symmetry_equiv_pos_as_xyz
  x,y,z
_cell_length_a	21.295420
_cell_length_b	21.295417
_cell_length_c	21.295411
_cell_angle_alpha	89.978356
_cell_angle_beta	89.975408
_cell_angle_gamma	90.026289
loop_
_atom_site_label
_atom_site_type_symbol
_atom_site_fract_x
_atom_site_fract_y
_atom_site_fract_z
Zn1	Zn	0.962355	-0.250752	-0.355912
Zn2	Zn	1.462355	0.249248	0.144088
Zn3	Zn	0.962258	-0.356004	-0.250637
Zn4	Zn	1.462258	0.143996	0.249363
Zn5	Zn	0.857079	-0.250744	-0.250657
Zn6	Zn	1.357079	0.249256	0.249343
Zn7	Zn	0.857048	-0.355979	-0.355869
Zn8	Zn	1.357048	0.144021	0.144131
O9	O	0.909685	-0.303370	-0.303269
O10	O	1.409685	0.196630	0.196731
O11	O	1.050432	-0.264727	-0.341957
O12	O	1.550432	0.235273	0.158043
O13	O	0.948277	-0.342048	-0.162550
O14	O	1.448277	0.157952	0.337450
O15	O	0.871097	-0.162656	-0.264645
O16	O	1.371097	0.337344	0.235355
O17	O	1.050360	-0.342055	-0.264612
O18	O	1.550360	0.157945	0.235388
O19	O	0.948444	-0.162661	-0.341976
O20	O	1.448444	0.337339	0.158024
O21	O	0.871003	-0.264714	-0.162565
O22	O	1.371003	0.235286	0.337435
O23	O	0.768985	-0.264691	-0.264604
O24	O	1.268985	0.235309	0.235396
O25	O	0.871045	-0.342014	-0.443964
O26	O	1.371045	0.157986	0.056036
O27	O	0.768963	-0.342006	-0.341903
O28	O	1.268963	0.157994	0.158097
O29	O	0.948414	-0.264703	-0.443996
O30	O	1.448414	0.235297	0.056004
O31	O	0.948248	-0.444090	-0.264570
O32	O	1.448248	0.055910	0.235430
O33	O	0.870951	-0.444072	-0.341884
O34	O	1.370951	0.055928	0.158116
C35	C	0.746133	-0.303346	-0.303251
C36	C	1.246133	0.196654	0.196749
C37	C	0.676165	-0.303351	-0.303258
C38	C	1.176165	0.196649	0.196742
C39	C	0.176744	-0.263200	-0.343617
C40	C	0.676744	0.236800	0.156383
C41	C	0.242486	-0.263195	-0.343617
C42	C	0.742486	0.236805	0.156383
C43	C	0.275326	-0.303389	-0.303283
C44	C	0.775326	0.196611	0.196717
C45	C	0.242417	-0.343602	-0.262958
C46	C	0.742417	0.156398	0.237042
C47	C	0.176676	-0.343610	-0.262964
C48	C	0.676676	0.156390	0.237036
N49	N	0.378516	-0.308125	-0.248164
N50	N	0.878516	0.191875	0.251836
N51	N	0.440967	-0.308113	-0.248160
N52	N	0.940967	0.191887	0.251840
C53	C	0.473400	-0.303368	-0.303265
C54	C	0.973400	0.196632	0.196735
N55	N	0.441023	-0.298623	-0.358375
N56	N	0.941023	0.201377	0.141625
N57	N	0.378566	-0.298631	-0.358377
N58	N	0.878566	0.201369	0.141623
C59	C	0.346611	-0.303385	-0.303273
C60	C	0.846611	0.196615	0.196727
C61	C	0.577587	-0.263156	-0.343591
C62	C	1.077587	0.236844	0.156409
C63	C	0.643330	-0.263156	-0.343592
C64	C	1.143330	0.236844	0.156408
C65	C	0.643260	-0.343559	-0.262927
C66	C	1.143260	0.156441	0.237073
C67	C	0.577517	-0.343562	-0.262932
C68	C	1.077517	0.156438	0.237068
C69	C	0.544685	-0.303358	-0.303263
C70	C	1.044685	0.196642	0.196737
C71	C	0.909602	-0.466921	-0.303234
C72	C	1.409602	0.033079	0.196766
C73	C	0.909625	-0.536890	-0.303240
C74	C	1.409625	-0.036890	0.196760
C75	C	0.949909	-0.569745	-0.263024
C76	C	1.449909	-0.069745	0.236976
C77	C	0.949939	-0.635487	-0.263038
C78	C	1.449939	-0.135487	0.236962
C79	C	0.909672	-0.668372	-0.303262
C80	C	1.409672	-0.168372	0.196738
C81	C	0.869385	-0.635509	-0.343485
C82	C	1.369385	-0.135509	0.156515
C83	C	0.869361	-0.569768	-0.343474
C84	C	1.369361	-0.069768	0.156526
N85	N	0.854605	-0.771635	-0.308055
N86	N	1.354605	-0.271635	0.191945
N87	N	0.854630	-0.834086	-0.308061
N88	N	1.354630	-0.334086	0.191939
C89	C	0.909743	-0.866447	-0.303298
C90	C	1.409743	-0.366447	0.196702
N91	N	0.964832	-0.833997	-0.298515
N92	N	1.464832	-0.333997	0.201485
N93	N	0.964807	-0.771540	-0.298505
N94	N	1.464807	-0.271540	0.201495
C95	C	0.909694	-0.739657	-0.303278
C96	C	1.409694	-0.239657	0.196722
C97	C	0.950063	-0.970587	-0.263095
C98	C	1.450063	-0.470587	0.236905
C99	C	0.950093	-1.036331	-0.263114
C100	C	1.450093	-0.536331	0.236886
C101	C	0.869534	-1.036352	-0.343557
C102	C	1.369534	-0.536352	0.156443
C103	C	0.869509	-0.970609	-0.343542
C104	C	1.369509	-0.470609	0.156458
C105	C	0.909773	-0.937731	-0.303308
C106	C	1.409773	-0.437731	0.196692
C107	C	1.073875	-0.303394	-0.303287
C108	C	1.573875	0.196606	0.196713
C109	C	1.143843	-0.303405	-0.303295
C110	C	1.643843	0.196595	0.196705
C111	C	0.909737	-0.303357	-0.467459
C112	C	1.409737	0.196643	0.032541
C113	C	0.909759	-0.303351	-0.537427
C114	C	1.409759	0.196649	-0.037427
C115	C	0.909785	-0.139180	-0.303318
C116	C	1.409785	0.360820	0.196682
C117	C	0.909827	-0.069211	-0.303338
C118	C	1.409827	0.430789	0.196662
C119	C	0.950044	-0.263094	-0.570311
C120	C	1.450044	0.236906	-0.070311
C121	C	0.950043	-0.263066	-0.636054
C122	C	1.450043	0.236934	-0.136054
C123	C	0.909764	-0.303308	-0.668910
C124	C	1.409764	0.196692	-0.168910
C125	C	0.869472	-0.343568	-0.636018
C126	C	1.369472	0.156432	-0.136018
C127	C	0.869470	-0.343589	-0.570276
C128	C	1.369470	0.156411	-0.070276
N129	N	0.904908	-0.358375	-0.772125
N130	N	1.404908	0.141625	-0.272125
N131	N	0.904914	-0.358353	-0.834577
N132	N	1.404914	0.141647	-0.334577
C133	C	0.909768	-0.303244	-0.866985
C134	C	1.409768	0.196756	-0.366985
N135	N	0.914629	-0.248157	-0.834582
N136	N	1.414629	0.251843	-0.334582
N137	N	0.914626	-0.248180	-0.772125
N138	N	1.414626	0.251820	-0.272125
C139	C	0.909762	-0.303288	-0.740195
C140	C	1.409762	0.196712	-0.240195
C141	C	0.950054	-0.262953	-0.971154
C142	C	1.450054	0.237047	-0.471154
C143	C	0.950048	-0.262925	-1.036898
C144	C	1.450048	0.237075	-0.536898
C145	C	0.869481	-0.343432	-1.036861
C146	C	1.369481	0.156568	-0.536861
C147	C	0.869483	-0.343455	-0.971118
C148	C	1.369483	0.156545	-0.471118
C149	C	0.909773	-0.303216	-0.938269
C150	C	1.409773	0.196784	-0.438269
C151	C	0.909669	-0.303338	-0.139717
C152	C	1.409669	0.196662	0.360283
C153	C	0.909769	-0.303166	-0.069749
C154	C	1.409769	0.196834	0.430251
H155	H	0.269159	-0.376329	-0.230120
H156	H	0.769159	0.123671	0.269880
H157	H	0.982850	-0.943817	-0.230336
H158	H	1.482850	-0.443817	0.269664
H159	H	0.550853	-0.230419	-0.376430
H160	H	1.050853	0.269581	0.123570
H161	H	0.982902	-1.063080	-0.230367
H162	H	1.482902	-0.563080	0.269633
H163	H	0.836679	-0.376191	-1.063611
H164	H	1.336679	0.123809	-0.563611
H165	H	0.836752	-1.063126	-0.376311
H166	H	1.336752	-0.563126	0.123689
Cl167	Cl	0.684692	-0.212613	-0.394293
Cl168	Cl	1.184692	0.287387	0.105707
H169	H	0.669997	-0.376290	-0.230092
H170	H	1.169997	0.123710	0.269908
Cl171	Cl	0.818768	-0.676849	-0.394055
Cl172	Cl	1.318768	-0.176849	0.105945
H173	H	0.836675	-0.376330	-0.662773
H174	H	1.336675	0.123670	-0.162773
H175	H	0.150016	-0.230465	-0.376460
H176	H	0.650016	0.269535	0.123540
H177	H	0.982745	-0.662243	-0.230290
H178	H	1.482745	-0.162243	0.269710
Cl179	Cl	0.818860	-0.929303	-0.394099
Cl180	Cl	1.318860	-0.429303	0.105901
H181	H	0.982850	-0.230328	-0.543570
H182	H	1.482850	0.269672	-0.043570
Cl183	Cl	0.536154	-0.394099	-0.212228
Cl184	Cl	1.036154	0.105901	0.287772
Cl185	Cl	0.283856	-0.212646	-0.394310
Cl186	Cl	0.783856	0.287354	0.105690
Cl187	Cl	0.818840	-0.394070	-0.929776
Cl188	Cl	1.318840	0.105930	-0.429776
Cl189	Cl	0.135313	-0.394154	-0.212266
Cl190	Cl	0.635313	0.105846	0.287734
H191	H	0.982695	-0.542977	-0.230265
H192	H	1.482695	-0.042977	0.269735
Cl193	Cl	0.818713	-0.528462	-0.394035
Cl194	Cl	1.318713	-0.028462	0.105965
H195	H	0.982846	-0.230281	-0.662833
H196	H	1.482846	0.269719	-0.162833
H197	H	0.836663	-0.376371	-0.543503
H198	H	1.336663	0.123629	-0.043503
H199	H	0.982856	-0.230185	-0.944407
H200	H	1.482856	0.269815	-0.444407
H201	H	0.982852	-0.230139	-1.063671
H202	H	1.482852	0.269861	-0.563671
