data_functionalizedCrystal
_audit_creation_method	'MofGen! by Chris Wilmer'
_symmetry_space_group_name_H-M	'P1'
_symmetry_Int_Tables_number	1
_symmetry_cell_setting	triclinic
loop_
_symmetry_equiv_pos_as_xyz
  x,y,z
_cell_length_a	8.559649
_cell_length_b	14.853559
_cell_length_c	7.088929
_cell_angle_alpha	83.769914
_cell_angle_beta	95.325015
_cell_angle_gamma	76.705059
loop_
_atom_site_label
_atom_site_type_symbol
_atom_site_fract_x
_atom_site_fract_y
_atom_site_fract_z
O1	O	2.103685	-0.020180	-0.158958
O2	O	1.638581	0.026373	-0.158965
O3	O	1.883564	-0.129003	-0.158959
O4	O	1.858702	0.135196	-0.158964
O5	O	1.916303	-0.149810	0.159017
O6	O	1.671320	0.005567	0.159011
O7	O	2.136424	-0.040986	0.159018
Cu8	Cu	1.906861	-0.019610	0.188048
Cu9	Cu	1.868143	0.004996	-0.187995
O10	O	1.891441	0.114390	0.159012
C11	C	1.595428	0.019498	0.000022
C12	C	1.418070	0.029999	0.000019
C13	C	1.898809	-0.172917	0.000025
C14	C	1.895439	-0.272764	0.000014
C15	C	1.863303	-0.683598	-0.173315
C16	C	1.898997	-0.706277	0.173355
C17	C	1.902175	-0.612466	0.173356
C18	C	1.885915	-0.554217	0.000020
C19	C	1.866476	-0.589778	-0.173319
C20	C	1.921597	-0.576895	0.346692
C21	C	1.924775	-0.483079	0.346700
C22	C	1.908526	-0.424829	0.173361
C23	C	1.889088	-0.460396	0.000016
C24	C	1.872828	-0.402146	-0.173320
C25	C	1.853402	-0.437713	-0.346668
C26	C	1.850228	-0.531528	-0.346657
C27	C	1.911700	-0.331014	0.173351
C28	C	1.876001	-0.308326	-0.173324
C29	C	2.179576	-0.034111	0.000027
C30	C	2.356933	-0.044611	0.000017
C31	C	1.876195	0.158303	0.000024
C32	C	1.879564	0.258152	0.000022
N33	N	1.934105	-0.036917	0.452537
N34	N	1.840912	0.022296	-0.452484
H35	H	1.440273	-0.116522	0.000009
O36	O	1.318867	0.115871	-0.000071
C37	C	1.411323	0.183126	-0.000017
H38	H	1.529481	0.155653	-0.060208
H39	H	1.438889	0.197765	0.152533
C40	C	1.170347	0.307672	-0.050793
C41	C	1.315464	0.273932	-0.124736
H42	H	1.111215	0.363687	-0.127718
H43	H	1.108056	0.262361	-0.050822
H44	H	1.193339	0.319864	0.076331
H45	H	1.292470	0.261730	-0.251848
H46	H	1.377749	0.319243	-0.124731
O47	O	2.049465	-0.110154	0.549643
C48	C	2.131667	-0.162424	0.418568
H49	H	2.119041	-0.116333	0.275828
H50	H	2.077302	-0.224368	0.397359
C51	C	2.327465	-0.254712	0.672171
C52	C	2.311968	-0.198101	0.496860
H53	H	2.438681	-0.276724	0.720466
H54	H	2.272081	-0.219500	0.760480
H55	H	2.282151	-0.306326	0.654473
H56	H	2.357263	-0.146483	0.514564
H57	H	2.367364	-0.233306	0.408555
H58	H	1.862767	-0.260905	-0.314478
H59	H	1.927480	-0.302054	0.314488
O60	O	1.725648	0.095572	0.450419
C61	C	1.643381	0.147814	0.581489
H62	H	1.723494	0.134997	0.724217
H63	H	1.526728	0.125446	0.602729
C64	C	1.504482	0.268148	0.327868
C65	C	1.602883	0.252413	0.503164
H66	H	1.479493	0.332670	0.279552
H67	H	1.559901	0.232951	0.239561
H68	H	1.407283	0.249502	0.345592
H69	H	1.700088	0.271048	0.485434
H70	H	1.547479	0.287616	0.591466
O71	O	1.837309	-0.381125	-0.515098
C72	C	1.687442	-0.377389	-0.620569
H73	H	1.600385	-0.395994	-0.519152
H74	H	1.705739	-0.429243	-0.728652
C75	C	1.723545	-0.255277	-0.851340
C76	C	1.616615	-0.278121	-0.726775
H77	H	1.679857	-0.194046	-0.916861
H78	H	1.824516	-0.257796	-0.780287
H79	H	1.738783	-0.298497	-0.941392
H80	H	1.601395	-0.234909	-0.636713
H81	H	1.515640	-0.275592	-0.797816
H82	H	1.847493	-0.712562	-0.314450
O83	O	1.915023	-0.762792	0.341850
C84	C	2.064933	-0.766572	0.447268
H85	H	2.108256	-0.701829	0.397969
H86	H	2.157479	-0.831657	0.423241
C87	C	1.991938	-0.849755	0.722020
C88	C	2.045142	-0.770233	0.661481
H89	H	1.979734	-0.852018	0.854157
H90	H	1.890943	-0.847213	0.650997
H91	H	2.069069	-0.903985	0.701982
H92	H	1.968002	-0.716006	0.681497
H93	H	2.146124	-0.772767	0.732513
H94	H	1.834410	-0.560495	-0.487787
H95	H	1.934827	-0.624327	0.487813
H96	H	1.940599	-0.454130	0.487850
