data_functionalizedCrystal
_audit_creation_method	'MofGen! by Chris Wilmer'
_symmetry_space_group_name_H-M	'P1'
_symmetry_Int_Tables_number	1
_symmetry_cell_setting	triclinic
loop_
_symmetry_equiv_pos_as_xyz
  x,y,z
_cell_length_a	13.032831
_cell_length_b	16.959454
_cell_length_c	13.032268
_cell_angle_alpha	97.150351
_cell_angle_beta	90.886977
_cell_angle_gamma	82.825094
loop_
_atom_site_label
_atom_site_type_symbol
_atom_site_fract_x
_atom_site_fract_y
_atom_site_fract_z
Zn1	Zn	1.498450	-0.533808	-0.780847
Zn2	Zn	1.520186	-0.651576	-0.608869
Zn3	Zn	1.348310	-0.500789	-0.587087
Zn4	Zn	1.326434	-0.647302	-0.758994
O5	O	1.423345	-0.583369	-0.683949
O6	O	1.645253	-0.565038	-0.776295
O7	O	1.515638	-0.619543	-0.462063
O8	O	1.368285	-0.394566	-0.612819
O9	O	1.661222	-0.651561	-0.649944
O10	O	1.478592	-0.418826	-0.755173
O11	O	1.389361	-0.508760	-0.446059
O12	O	1.201488	-0.504616	-0.591629
O13	O	1.331000	-0.644277	-0.905810
O14	O	1.185416	-0.612259	-0.717929
O15	O	1.457380	-0.560894	-0.921865
O16	O	1.494425	-0.761611	-0.628754
O17	O	1.352077	-0.758471	-0.739051
C18	C	1.156135	-0.554392	-0.650045
C19	C	1.041819	-0.542016	-0.635565
C20	C	0.982940	-0.589828	-0.691506
C21	C	0.864788	-0.577038	-0.676542
C22	C	1.423261	-0.788724	-0.683921
C23	C	1.423315	-0.876589	-0.683955
C24	C	1.349320	-1.246472	-0.741386
C25	C	1.497643	-1.249702	-0.626654
C26	C	1.497608	-1.167152	-0.626640
C27	C	1.423427	-1.124257	-0.683998
C28	C	1.349281	-1.163913	-0.741371
C29	C	1.571746	-1.127488	-0.569260
C30	C	1.571713	-1.044932	-0.569243
C31	C	1.497536	-1.002037	-0.626608
C32	C	1.423388	-1.041698	-0.683984
C33	C	1.349208	-0.998804	-0.741342
C34	C	1.275063	-1.038465	-0.798724
C35	C	1.275104	-1.121018	-0.798736
C36	C	1.497495	-0.919484	-0.626597
C37	C	1.349169	-0.916245	-0.741327
C38	C	1.691598	-0.612460	-0.717986
C39	C	1.805911	-0.624856	-0.732491
C40	C	1.389325	-0.605792	-0.952197
C41	C	1.374828	-0.615348	-1.066508
C42	C	1.423454	-0.377216	-0.684004
C43	C	1.423501	-0.289366	-0.684027
C44	C	1.430895	-0.578351	-1.125415
C45	C	1.415913	-0.588227	-1.243562
C46	C	1.457291	-0.560982	-0.416753
C47	C	1.471987	-0.551225	-0.302467
H48	H	0.827729	-0.526630	-0.617570
C49	C	0.855433	-0.691958	-0.811211
C50	C	0.908784	-0.659431	-0.884974
C51	C	0.954426	-0.721220	-0.957498
H52	H	0.803275	-0.720333	-0.844479
H53	H	0.902383	-0.727556	-0.777101
H54	H	0.861838	-0.623847	-0.919081
H55	H	0.960958	-0.631063	-0.851737
H56	H	1.001376	-0.756818	-0.923388
H57	H	0.902261	-0.749591	-0.990758
H58	H	0.990638	-0.699160	-1.007549
C59	C	0.992222	-0.474887	-0.556932
C60	C	0.884897	-0.475570	-0.557690
C61	C	0.839180	-0.413752	-0.485249
H62	H	1.007751	-0.424896	-0.574214
H63	H	1.018475	-0.482490	-0.489986
H64	H	0.858653	-0.467961	-0.624620
H65	H	0.869338	-0.525546	-0.540396
H66	H	0.865432	-0.421355	-0.418304
H67	H	0.854716	-0.363765	-0.502539
H68	H	0.766356	-0.414212	-0.485747
H69	H	1.632133	-1.162417	-0.522554
H70	H	1.531079	-0.512233	-1.265438
H71	H	1.288765	-0.881326	-0.788040
H72	H	1.214661	-1.003530	-0.845421
H73	H	1.214739	-1.153317	-0.845452
H74	H	1.558032	-1.284630	-0.579948
C75	C	1.032474	-0.656926	-0.770218
C76	C	1.085827	-0.624400	-0.843978
C77	C	1.131479	-0.686188	-0.916497
H78	H	0.980320	-0.685305	-0.803488
H79	H	1.079423	-0.692521	-0.736102
H80	H	1.038882	-0.588819	-0.878090
H81	H	1.137997	-0.596027	-0.810739
H82	H	1.178428	-0.721783	-0.882381
H83	H	1.079318	-0.714563	-0.949759
H84	H	1.167692	-0.664129	-0.966546
C85	C	1.268875	-1.289664	-0.803575
C86	C	1.284767	-1.371140	-0.791300
C87	C	1.210672	-1.410951	-0.848562
H88	H	1.275028	-1.283604	-0.874620
H89	H	1.201675	-1.267467	-0.779684
H90	H	1.351950	-1.393330	-0.815196
H91	H	1.278605	-1.377224	-0.720267
H92	H	1.143472	-1.388754	-0.824671
H93	H	1.216831	-1.404885	-0.919604
H94	H	1.221438	-1.466235	-0.840233
H95	H	1.632086	-1.012646	-0.522521
H96	H	1.489984	-0.539364	-1.088380
H97	H	1.356810	-0.627208	-1.280591
H98	H	1.557858	-0.887195	-0.579871
H99	H	1.315729	-0.654327	-1.103542
