data_functionalizedCrystal
_audit_creation_method	'MofGen! by Chris Wilmer'
_symmetry_space_group_name_H-M	'P1'
_symmetry_Int_Tables_number	1
_symmetry_cell_setting	triclinic
loop_
_symmetry_equiv_pos_as_xyz
  x,y,z
_cell_length_a	6.817900
_cell_length_b	19.453067
_cell_length_c	19.453114
_cell_angle_alpha	96.315275
_cell_angle_beta	101.709288
_cell_angle_gamma	101.708464
loop_
_atom_site_label
_atom_site_type_symbol
_atom_site_fract_x
_atom_site_fract_y
_atom_site_fract_z
V1	V	-3.997992	-0.097913	-0.219326
O2	O	-3.995098	0.003953	-0.214817
O3	O	-3.941006	-0.193422	-0.218146
O4	O	-3.941013	-0.096737	-0.314835
O5	O	-3.995092	-0.093401	-0.117459
V6	V	-4.483844	-0.085690	-0.207103
O7	O	-4.254141	-0.124726	-0.246138
O8	O	-4.677892	-0.058877	-0.180290
O9	O	-4.317623	0.009819	-0.208282
O10	O	-4.604135	-0.187556	-0.211611
O11	O	-4.604141	-0.090202	-0.308969
O12	O	-4.317617	-0.086866	-0.111593
C13	C	-3.784196	-0.216694	-0.214769
C14	C	-3.818833	-0.294776	-0.214442
C15	C	-4.034529	-0.841951	-0.147825
C16	C	-4.001966	-0.768584	-0.148126
C17	C	-4.017292	-0.742101	-0.212595
C18	C	-4.065135	-0.788992	-0.276767
C19	C	-4.097677	-0.862357	-0.276464
N20	N	-4.103240	-0.636813	-0.263556
N21	N	-4.072329	-0.567119	-0.263839
C22	C	-3.919243	-0.521056	-0.213511
N23	N	-3.798256	-0.547320	-0.162879
N24	N	-3.829178	-0.617021	-0.162594
C25	C	-3.982008	-0.662550	-0.212931
C26	C	-3.836083	-0.394622	-0.149669
C27	C	-3.803508	-0.321253	-0.149972
C28	C	-3.866699	-0.341663	-0.278616
C29	C	-3.899252	-0.415030	-0.278310
C30	C	-3.883951	-0.441504	-0.213835
C31	C	-3.784203	-0.093363	-0.338104
C32	C	-3.818843	-0.093033	-0.416185
C33	C	-4.016582	-0.096404	-0.456453
C34	C	-4.049131	-0.096095	-0.529819
C35	C	-3.883936	-0.092428	-0.562916
C36	C	-3.686167	-0.089053	-0.522637
C37	C	-3.653621	-0.089356	-0.449272
N38	N	-3.820858	-0.129522	-0.681829
N39	N	-3.851789	-0.129237	-0.751523
C40	C	-3.981984	-0.091515	-0.783961
N41	N	-4.080115	-0.054100	-0.744074
N42	N	-4.049189	-0.054389	-0.674373
C43	C	-3.919206	-0.092100	-0.642468
C44	C	-4.215028	-0.094550	-0.903781
C45	C	-4.247567	-0.094236	-0.977147
C46	C	-3.884601	-0.087201	-0.969965
C47	C	-3.852064	-0.087508	-0.896599
C48	C	-4.017287	-0.091186	-0.863512
C49	C	-4.137775	0.033088	-0.211657
C50	C	-4.082376	0.111168	-0.211989
C51	C	-4.137768	-0.090243	-0.088321
C52	C	-4.082367	-0.090568	-0.010239
H53	H	-3.764537	-0.283083	-0.097719
H54	H	-3.750092	-0.084210	-0.996911
H55	H	-4.210161	-0.098843	-0.562613
H56	H	-4.408590	-0.096976	-1.009932
H57	H	-4.022062	-0.863501	-0.095324
H58	H	-4.136636	-0.900528	-0.328716
H59	H	-3.823610	-0.416178	-0.097169
N60	N	-3.638779	-0.083876	-0.853168
H61	H	-3.587862	-0.126052	-0.871331
H62	H	-3.643373	-0.084599	-0.801681
N63	N	-3.950355	-0.718007	-0.078918
H64	H	-3.945599	-0.745912	-0.038028
H65	H	-4.059131	-0.689640	-0.079094
N66	N	-3.507985	-0.085094	-0.558328
H67	H	-3.558607	-0.085416	-0.610916
H68	H	-3.445800	-0.127377	-0.550900
N69	N	-3.883240	-0.313109	-0.348151
H70	H	-3.918499	-0.353944	-0.388754
H71	H	-3.747468	-0.280601	-0.348233
N72	N	-4.393226	-0.098502	-0.868094
H73	H	-4.365045	-0.055018	-0.830849
H74	H	-4.410509	-0.142578	-0.844824
N75	N	-4.081645	-0.760433	-0.346302
H76	H	-4.053772	-0.706843	-0.336759
H77	H	-4.224767	-0.780227	-0.377185
H78	H	-3.938225	-0.453202	-0.330560
H79	H	-4.151122	-0.099396	-0.429518
H80	H	-3.492592	-0.086605	-0.416485
