data_functionalizedCrystal
_audit_creation_method	'MofGen! by Chris Wilmer'
_symmetry_space_group_name_H-M	'P1'
_symmetry_Int_Tables_number	1
_symmetry_cell_setting	triclinic
loop_
_symmetry_equiv_pos_as_xyz
  x,y,z
_cell_length_a	14.908571
_cell_length_b	18.101395
_cell_length_c	14.908854
_cell_angle_alpha	86.671533
_cell_angle_beta	89.795614
_cell_angle_gamma	86.727274
loop_
_atom_site_label
_atom_site_type_symbol
_atom_site_fract_x
_atom_site_fract_y
_atom_site_fract_z
Zn1	Zn	1.345241	-0.330798	-0.587590
Zn2	Zn	1.845241	0.169202	-0.087590
Zn3	Zn	1.353786	-0.462180	-0.437225
Zn4	Zn	1.853786	0.037820	0.062775
Zn5	Zn	1.203550	-0.331639	-0.428584
Zn6	Zn	1.703550	0.168361	0.071416
Zn7	Zn	1.194822	-0.447879	-0.578880
Zn8	Zn	1.694822	0.052121	-0.078880
O9	O	1.274350	-0.393124	-0.508070
O10	O	1.774350	0.106876	-0.008070
O11	O	1.472199	-0.353860	-0.574905
O12	O	1.972199	0.146140	-0.074905
O13	O	1.341086	-0.451200	-0.310251
O14	O	1.841086	0.048800	0.189749
O15	O	1.222422	-0.227897	-0.449706
O16	O	1.722422	0.272103	0.050294
O17	O	1.478478	-0.450385	-0.464432
O18	O	1.978478	0.049615	0.035568
O19	O	1.326522	-0.227279	-0.566527
O20	O	1.826522	0.272721	-0.066527
O21	O	1.230709	-0.355292	-0.303903
O22	O	1.730709	0.144708	0.196097
O23	O	1.076568	-0.341425	-0.441260
O24	O	1.576568	0.158575	0.058740
O25	O	1.207546	-0.426012	-0.705863
O26	O	1.707546	0.073988	-0.205863
O27	O	1.070155	-0.426827	-0.551682
O28	O	1.570155	0.073173	-0.051682
O29	O	1.318058	-0.339993	-0.712263
O30	O	1.818058	0.160007	-0.212263
O31	O	1.332623	-0.563914	-0.455986
O32	O	1.832623	-0.063914	0.044014
O33	O	1.215832	-0.553407	-0.560060
O34	O	1.715832	-0.053407	-0.060060
C35	C	1.040736	-0.382666	-0.494588
C36	C	1.540736	0.117334	0.005412
C37	C	0.940794	-0.378209	-0.488842
C38	C	1.440794	0.121791	0.011158
C39	C	0.746372	-0.458916	-0.592872
C40	C	1.246372	0.041084	-0.092872
C41	C	0.652467	-0.454730	-0.587477
C42	C	1.152467	0.045270	-0.087477
C43	C	0.659078	-0.365647	-0.472660
C44	C	1.159078	0.134353	0.027340
C45	C	0.752982	-0.369833	-0.478056
C46	C	1.252982	0.130167	0.021944
C47	C	0.796626	-0.416470	-0.538163
C48	C	1.296626	0.083530	-0.038163
C49	C	0.890533	-0.420659	-0.543554
C50	C	1.390533	0.079341	-0.043554
C51	C	0.897142	-0.331573	-0.428743
C52	C	1.397142	0.168427	0.071257
C53	C	0.803237	-0.327387	-0.423347
C54	C	1.303237	0.172613	0.076653
C55	C	1.274231	-0.585531	-0.508036
C56	C	1.774231	-0.085531	-0.008036
C57	C	1.274261	-0.667845	-0.508057
C58	C	1.774261	-0.167845	-0.008057
C59	C	1.274455	-0.966942	-0.508117
C60	C	1.774455	-0.466942	-0.008117
C61	C	1.201125	-0.929036	-0.573779
C62	C	1.701125	-0.429036	-0.073779
C63	C	1.200808	-0.843415	-0.573542
C64	C	1.700808	-0.343415	-0.073542
C65	C	1.274359	-0.818557	-0.508088
C66	C	1.774359	-0.318557	-0.008088
C67	C	1.254170	-0.853313	-0.411846
C68	C	1.754170	-0.353313	0.088154
C69	C	1.253699	-0.938917	-0.412237
C70	C	1.753699	-0.438917	0.087763
C71	C	1.368174	-0.938322	-0.537871
C72	C	1.868174	-0.438322	-0.037871
C73	C	1.367494	-0.852542	-0.539917
C74	C	1.867494	-0.352542	-0.039917
C75	C	1.274306	-0.734696	-0.508066
C76	C	1.774306	-0.234696	-0.008066
C77	C	1.274506	-1.050804	-0.508132
C78	C	1.774506	-0.550804	-0.008132
C79	C	1.508876	-0.403624	-0.521604
C80	C	2.008876	0.096376	-0.021604
C81	C	1.608817	-0.408098	-0.527372
C82	C	2.108817	0.091902	-0.027372
C83	C	1.260875	-0.381313	-0.742601
C84	C	1.760875	0.118687	-0.242601
C85	C	1.255133	-0.376280	-0.842544
C86	C	1.755133	0.123720	-0.342544
C87	C	1.274492	-0.199966	-0.508124
C88	C	1.774492	0.300034	-0.008124
C89	C	1.274553	-0.117654	-0.508148
C90	C	1.774553	0.382346	-0.008148
C91	C	1.359300	-0.466690	-1.036961
C92	C	1.859300	0.033310	-0.536961
C93	C	1.353908	-0.461964	-1.130867
C94	C	1.853908	0.038036	-0.630867
C95	C	1.238962	-0.362098	-1.124263
C96	C	1.738962	0.137902	-0.624263
C97	C	1.244354	-0.366824	-1.030358
C98	C	1.744354	0.133176	-0.530358
C99	C	1.304524	-0.419123	-0.986710
C100	C	1.804524	0.080877	-0.486710
C101	C	1.309911	-0.423853	-0.892802
C102	C	1.809911	0.076147	-0.392802
C103	C	1.194970	-0.323983	-0.886200
C104	C	1.694970	0.176017	-0.386200
C105	C	1.189578	-0.319257	-0.980106
C106	C	1.689578	0.180743	-0.480106
C107	C	1.287824	-0.404838	-0.274454
C108	C	1.787824	0.095162	0.225546
C109	C	1.293740	-0.409670	-0.174521
C110	C	1.793740	0.090330	0.325479
H111	H	0.611553	-0.489292	-0.632029
H112	H	1.111553	0.010708	-0.132029
H113	H	1.424581	-0.835919	-0.496014
H114	H	1.924581	-0.335919	0.003986
H115	H	0.623526	-0.327673	-0.423730
H116	H	1.123526	0.172327	0.076270
C117	C	0.938032	-0.471171	-0.608872
C118	C	1.438032	0.028829	-0.108872
C119	C	0.988678	-0.428808	-0.669673
C120	C	1.488678	0.071192	-0.169673
C121	C	1.032453	-0.475314	-0.729853
C122	C	1.532453	0.024686	-0.229853
H123	H	0.894748	-0.495866	-0.640776
H124	H	1.394748	0.004134	-0.140776
H125	H	0.976672	-0.506756	-0.576544
H126	H	1.476672	-0.006756	-0.076544
H127	H	0.950042	-0.393237	-0.701998
H128	H	1.450042	0.106763	-0.201998
H129	H	1.031978	-0.404114	-0.637795
H130	H	1.531978	0.095886	-0.137795
H131	H	1.071093	-0.510899	-0.697525
H132	H	1.571093	-0.010899	-0.197525
H133	H	0.989163	-0.500007	-0.761750
H134	H	1.489163	-0.000007	-0.261750
H135	H	1.066828	-0.446579	-0.771108
H136	H	1.566828	0.053421	-0.271108
H137	H	1.150367	-0.285251	-0.845276
H138	H	1.650367	0.214749	-0.345276
C139	C	1.394010	-0.963794	-0.630320
C140	C	1.894010	-0.463794	-0.130320
C141	C	1.329036	-0.936015	-0.692986
C142	C	1.829036	-0.436015	-0.192986
C143	C	1.352802	-0.959456	-0.778163
C144	C	1.852802	-0.459456	-0.278163
H145	H	1.397483	-1.016412	-0.628859
H146	H	1.897483	-0.516412	-0.128859
H147	H	1.450733	-0.945907	-0.647058
H148	H	1.950733	-0.445907	-0.147058
H149	H	1.272329	-0.953905	-0.676252
H150	H	1.772329	-0.453905	-0.176252
H151	H	1.325554	-0.883399	-0.694475
H152	H	1.825554	-0.383399	-0.194475
H153	H	1.409524	-0.941568	-0.794901
H154	H	1.909524	-0.441568	-0.294901
H155	H	1.356275	-1.012073	-0.776692
H156	H	1.856275	-0.512073	-0.276692
H157	H	1.308726	-0.940605	-0.820693
H158	H	1.808726	-0.440605	-0.320693
C159	C	0.793595	-0.509565	-0.658214
C160	C	1.293595	-0.009565	-0.158214
C161	C	0.729483	-0.545832	-0.704986
C162	C	1.229483	-0.045832	-0.204986
C163	C	0.772950	-0.592489	-0.765196
C164	C	1.272950	-0.092489	-0.265196
H165	H	0.832183	-0.545216	-0.625954
H166	H	1.332183	-0.045216	-0.125954
H167	H	0.827972	-0.480956	-0.699606
H168	H	1.327972	0.019044	-0.199606
H169	H	0.695121	-0.574440	-0.663600
H170	H	1.195121	-0.074440	-0.163600
H171	H	0.690892	-0.510200	-0.737265
H172	H	1.190892	-0.010200	-0.237265
H173	H	0.807327	-0.563880	-0.806587
H174	H	1.307327	-0.063880	-0.306587
H175	H	0.811537	-0.628135	-0.732928
H176	H	1.311537	-0.128135	-0.232928
H177	H	0.729457	-0.617097	-0.796943
H178	H	1.229457	-0.117097	-0.296943
H179	H	1.131965	-0.948286	-0.553865
H180	H	1.631965	-0.448286	-0.053865
H181	H	0.938069	-0.297012	-0.384192
H182	H	1.438069	0.202988	0.115808
H183	H	1.358909	-0.466434	-0.857266
H184	H	1.858909	0.033566	-0.357266
H185	H	1.186583	-0.829901	-0.386951
H186	H	1.686583	-0.329901	0.113049
H187	H	1.140592	-0.276675	-1.015657
H188	H	1.640592	0.223325	-0.515657
H189	H	1.185354	-0.956882	-0.387669
H190	H	1.685354	-0.456882	0.112331
H191	H	1.382818	-0.829547	-0.610772
H192	H	1.882818	-0.329547	-0.110772
H193	H	1.212806	-0.819545	-0.644733
H194	H	1.712806	-0.319545	-0.144733
C195	C	0.755684	-0.276825	-0.358118
C196	C	1.255684	0.223175	0.141882
C197	C	0.662690	-0.282253	-0.365088
C198	C	1.162690	0.217747	0.134912
C199	C	0.618858	-0.235693	-0.305004
C200	C	1.118858	0.264307	0.194996
H201	H	0.770235	-0.227071	-0.372202
H202	H	1.270235	0.272929	0.127798
H203	H	0.774472	-0.291323	-0.298541
H204	H	1.274472	0.208677	0.201459
H205	H	0.643909	-0.267750	-0.424653
H206	H	1.143909	0.232250	0.075347
H207	H	0.648112	-0.331996	-0.350996
H208	H	1.148112	0.168004	0.149004
H209	H	0.637646	-0.250191	-0.245427
H210	H	1.137646	0.249809	0.254573
H211	H	0.633417	-0.185942	-0.319094
H212	H	1.133417	0.314058	0.180906
H213	H	0.555758	-0.239375	-0.309719
H214	H	1.055758	0.260625	0.190281
H215	H	1.212950	-0.946760	-0.645188
H216	H	1.712950	-0.446760	-0.145188
H217	H	1.131232	-0.820645	-0.553401
H218	H	1.631232	-0.320645	-0.053401
C219	C	1.413421	-0.513701	-1.185266
C220	C	1.913421	-0.013701	-0.685266
C221	C	1.467251	-0.560523	-1.126937
C222	C	1.967251	-0.060523	-0.626937
C223	C	1.522080	-0.608201	-1.177017
C224	C	2.022080	-0.108201	-0.677017
H225	H	1.450593	-0.485368	-1.224176
H226	H	1.950593	0.014632	-0.724176
H227	H	1.376921	-0.542629	-1.219886
H228	H	1.876921	-0.042629	-0.719886
H229	H	1.503747	-0.531599	-1.092333
H230	H	2.003747	-0.031599	-0.592333
H231	H	1.430103	-0.588873	-1.088026
H232	H	1.930103	-0.088873	-0.588026
H233	H	1.485580	-0.637128	-1.211636
H234	H	1.985580	-0.137128	-0.711636
H235	H	1.559245	-0.579861	-1.215925
H236	H	2.059245	-0.079861	-0.715925
H237	H	1.558604	-0.639979	-1.137448
H238	H	2.058604	-0.139979	-0.637448
H239	H	1.305089	-0.964484	-0.361351
H240	H	1.805089	-0.464484	0.138649
C241	C	1.323521	-0.832519	-0.344634
C242	C	1.823521	-0.332519	0.155366
C243	C	1.385799	-0.788005	-0.388578
C244	C	1.885799	-0.288005	0.111422
C245	C	1.449691	-0.768827	-0.326691
C246	C	1.949691	-0.268827	0.173309
H247	H	1.353784	-0.876224	-0.318857
H248	H	1.853784	-0.376224	0.181143
H249	H	1.294351	-0.805986	-0.298624
H250	H	1.794351	-0.305986	0.201376
H251	H	1.414967	-0.814538	-0.434572
H252	H	1.914967	-0.314538	0.065428
H253	H	1.355563	-0.744291	-0.414351
H254	H	1.855563	-0.244291	0.085649
H255	H	1.420521	-0.742294	-0.280681
H256	H	1.920521	-0.242294	0.219319
H257	H	1.479946	-0.812536	-0.300918
H258	H	1.979946	-0.312536	0.199082
H259	H	1.491949	-0.738617	-0.356496
H260	H	1.991949	-0.238617	0.143504
H261	H	1.189979	-0.319515	-1.159818
H262	H	1.689979	0.180485	-0.659818
H263	H	1.422740	-0.963424	-0.490113
H264	H	1.922740	-0.463424	0.009887
H265	H	1.408297	-0.509271	-1.001423
H266	H	1.908297	-0.009271	-0.501423
