data_functionalizedCrystal
_audit_creation_method	'MofGen! by Chris Wilmer'
_symmetry_space_group_name_H-M	'P1'
_symmetry_Int_Tables_number	1
_symmetry_cell_setting	triclinic
loop_
_symmetry_equiv_pos_as_xyz
  x,y,z
_cell_length_a	17.699083
_cell_length_b	19.188930
_cell_length_c	16.176319
_cell_angle_alpha	89.988074
_cell_angle_beta	89.998611
_cell_angle_gamma	83.213899
loop_
_atom_site_label
_atom_site_type_symbol
_atom_site_fract_x
_atom_site_fract_y
_atom_site_fract_z
O1	O	1.003963	0.088294	-0.068640
O2	O	1.503963	0.588294	0.431360
O3	O	0.783569	0.099782	-0.068668
O4	O	1.283569	0.599782	0.431332
O5	O	0.900126	-0.007610	-0.068637
O6	O	1.400126	0.492390	0.431363
O7	O	0.887406	0.195687	-0.068671
O8	O	1.387406	0.695687	0.431329
O9	O	0.900110	-0.007617	0.068856
O10	O	1.400110	0.492383	0.568856
O11	O	0.783553	0.099775	0.068825
O12	O	1.283553	0.599775	0.568825
O13	O	1.003947	0.088288	0.068853
O14	O	1.503947	0.588288	0.568853
Cu15	Cu	0.893748	0.094031	0.081393
Cu16	Cu	1.393748	0.594031	0.581393
Cu17	Cu	0.893767	0.094039	-0.081208
Cu18	Cu	1.393767	0.594039	0.418792
O19	O	0.887390	0.195680	0.068822
O20	O	1.387390	0.695680	0.568822
C21	C	0.755365	0.099367	0.000075
C22	C	1.255365	0.599367	0.500075
C23	C	0.671348	0.098132	0.000065
C24	C	1.171348	0.598132	0.500065
C25	C	0.622644	0.161169	0.000055
C26	C	1.122644	0.661169	0.500055
C27	C	0.543702	0.160004	0.000065
C28	C	1.043702	0.660004	0.500065
C29	C	0.513466	0.095802	0.000081
C30	C	1.013466	0.595802	0.500081
C31	C	0.562176	0.032761	0.000093
C32	C	1.062176	0.532761	0.500093
C33	C	0.641117	0.033926	0.000088
C34	C	1.141117	0.533926	0.500088
C35	C	0.243819	0.028060	0.000115
C36	C	0.743819	0.528060	0.500115
C37	C	0.164873	0.026900	0.000117
C38	C	0.664873	0.526900	0.500117
C39	C	0.146405	0.154139	0.000092
C40	C	0.646405	0.654139	0.500092
C41	C	0.225345	0.155304	0.000087
C42	C	0.725345	0.655304	0.500087
C43	C	0.274049	0.092263	0.000104
C44	C	0.774049	0.592263	0.500104
C45	C	0.359646	0.093526	0.000094
C46	C	0.859646	0.593526	0.500094
C47	C	0.427870	0.094538	0.000085
C48	C	0.927870	0.594538	0.500085
C49	C	0.899706	-0.033625	0.000112
C50	C	1.399706	0.466375	0.500112
C51	C	0.898469	-0.111131	0.000119
C52	C	1.398469	0.388869	0.500119
C53	C	0.966861	-0.155978	0.000131
C54	C	1.466861	0.344022	0.500131
C55	C	0.965699	-0.228804	0.000118
C56	C	1.465699	0.271196	0.500118
C57	C	0.896142	-0.256778	0.000108
C58	C	1.396142	0.243222	0.500108
C59	C	0.827741	-0.211921	0.000091
C60	C	1.327741	0.288079	0.500091
C61	C	0.828905	-0.139098	0.000096
C62	C	1.328905	0.360902	0.500096
N63	N	0.842968	-0.364845	0.046893
N64	N	1.342968	0.135155	0.546893
N65	N	0.841868	-0.434025	0.046890
N66	N	1.341868	0.065975	0.546890
C67	C	0.892632	-0.476191	0.000091
C68	C	1.392632	0.023809	0.500091
N69	N	0.944550	-0.446565	-0.046694
N70	N	1.444550	0.053435	0.453306
N71	N	0.945653	-0.377379	-0.046687
N72	N	1.445653	0.122621	0.453313
C73	C	0.894873	-0.335742	0.000102
C74	C	1.394873	0.164258	0.500102
C75	C	0.959769	-0.600004	0.000088
C76	C	1.459769	-0.100004	0.500088
C77	C	0.958604	-0.672830	0.000070
C78	C	1.458604	-0.172830	0.500070
C79	C	0.820644	-0.655946	0.000051
C80	C	1.320644	-0.155946	0.500051
C81	C	0.821811	-0.583121	0.000061
C82	C	1.321811	-0.083121	0.500061
C83	C	0.891375	-0.555155	0.000084
C84	C	1.391375	-0.055155	0.500084
C85	C	1.032151	0.088703	0.000108
C86	C	1.532151	0.588703	0.500108
C87	C	1.116167	0.089938	0.000113
C88	C	1.616167	0.589938	0.500113
C89	C	0.887810	0.221695	0.000071
C90	C	1.387810	0.721695	0.500071
C91	C	0.889046	0.299201	0.000059
C92	C	1.389046	0.799201	0.500059
N93	N	0.893741	0.094025	0.195758
N94	N	1.393741	0.594025	0.695758
N95	N	0.893781	0.094039	-0.195574
N96	N	1.393781	0.594039	0.304426
C97	C	0.945367	0.046491	0.239036
C98	C	1.445367	0.546491	0.739036
C99	C	0.945371	0.046490	0.325584
C100	C	1.445371	0.546490	0.825584
C101	C	0.893751	0.094027	0.368851
C102	C	1.393751	0.594027	0.868851
C103	C	0.842119	0.141563	0.325567
C104	C	1.342119	0.641563	0.825567
C105	C	0.842112	0.141560	0.239022
C106	C	1.342112	0.641560	0.739022
C107	C	0.842145	0.141576	0.674595
C108	C	1.342145	0.641576	1.174595
C109	C	0.842157	0.141577	0.761147
C110	C	1.342157	0.641577	1.261147
C111	C	0.945404	0.046506	0.761157
C112	C	1.445404	0.546506	1.261157
C113	C	0.945397	0.046503	0.674612
C114	C	1.445397	0.546503	1.174612
C115	C	0.893763	0.094036	0.631335
C116	C	1.393763	0.594036	1.131335
C117	C	0.893758	0.094036	0.537491
C118	C	1.393758	0.594036	1.037491
C119	C	0.893759	0.094031	0.462694
C120	C	1.393759	0.594031	0.962694
H121	H	0.680771	-0.017406	0.000096
H122	H	1.180771	0.482594	0.500096
N123	N	0.293551	-0.036339	0.000129
N124	N	0.793551	0.463661	0.500129
N125	N	0.266541	-0.093656	0.000137
N126	N	0.766541	0.406344	0.500137
H127	H	0.301666	-0.139141	0.000146
H128	H	0.801666	0.360859	0.500146
H129	H	0.987405	0.007784	0.203814
H130	H	1.487405	0.507784	0.703814
N131	N	0.749585	-0.684500	0.000048
N132	N	1.249585	-0.184500	0.500048
N133	N	0.688524	-0.644445	0.000044
N134	N	1.188524	-0.144445	0.500044
H135	H	0.638335	-0.664613	0.000040
H136	H	1.138335	-0.164613	0.500040
H137	H	0.140258	-0.025384	0.000131
H138	H	0.640258	0.474616	0.500131
H139	H	0.800119	0.180289	0.796374
H140	H	1.300119	0.680289	1.296374
H141	H	1.023506	-0.133213	0.000147
H142	H	1.523506	0.366787	0.500147
N143	N	0.531294	-0.032821	0.000093
N144	N	1.031294	0.467179	0.500093
N145	N	0.546295	-0.075286	-0.057859
N146	N	1.046295	0.424714	0.442141
H147	H	0.524485	-0.121605	-0.057863
H148	H	1.024485	0.378395	0.442137
H149	H	0.766119	-0.546605	0.000056
H150	H	1.266119	-0.046605	0.500056
N151	N	0.789396	0.190130	0.630410
N152	N	1.289396	0.690130	1.130410
N153	N	0.743312	0.232569	0.669054
N154	N	1.243312	0.732569	1.169054
H155	H	0.706054	0.266862	0.637846
H156	H	1.206054	0.766862	1.137846
N157	N	0.998109	-0.002072	0.369778
N158	N	1.498109	0.497928	0.869778
N159	N	1.044196	-0.044510	0.331137
N160	N	1.544196	0.455490	0.831137
H161	H	1.081444	-0.078811	0.362348
H162	H	1.581444	0.421189	0.862348
N163	N	0.998143	-0.002065	0.805352
N164	N	1.498143	0.497935	1.305352
N165	N	1.044227	-0.044504	0.766709
N166	N	1.544227	0.455496	1.266709
H167	H	1.081475	-0.078807	0.797918
H168	H	1.581475	0.421193	1.297918
N169	N	0.493942	0.224389	0.000064
N170	N	0.993942	0.724389	0.500064
N171	N	0.423461	0.223343	0.000084
N172	N	0.923461	0.723343	0.500084
H173	H	0.388316	0.268817	0.000091
H174	H	0.888316	0.768817	0.500091
N175	N	0.789389	0.190112	0.369774
N176	N	1.289389	0.690112	0.869774
N177	N	0.789401	0.190109	0.447046
N178	N	1.289401	0.690109	0.947046
H179	H	0.752161	0.224398	0.478267
H180	H	1.252161	0.724398	0.978267
H181	H	1.021394	-0.265325	0.000125
H182	H	1.521394	0.234675	0.500125
N183	N	1.028477	-0.718632	0.000090
N184	N	1.528477	-0.218632	0.500090
N185	N	1.074779	-0.716160	0.058060
N186	N	1.574779	-0.216160	0.558060
H187	H	1.124129	-0.748507	0.058076
H188	H	1.624129	-0.248507	0.558076
N189	N	0.998117	-0.002066	0.630420
N190	N	1.498117	0.497934	1.130420
N191	N	0.974245	-0.045382	0.582147
N192	N	1.474245	0.454618	1.082147
H193	H	1.011478	-0.079687	0.550938
H194	H	1.511478	0.420313	1.050938
N195	N	0.756697	-0.240504	0.000074
N196	N	1.256697	0.259496	0.500074
N197	N	0.755666	-0.305526	0.000070
N198	N	1.255666	0.194474	0.500070
H199	H	0.705489	-0.325713	0.000054
H200	H	1.205489	0.174287	0.500054
N201	N	0.653539	0.226745	0.000032
N202	N	1.153539	0.726745	0.500032
N203	N	0.695526	0.241594	-0.057930
N204	N	1.195526	0.741594	0.442070
H205	H	0.717344	0.287909	-0.057944
H206	H	1.217344	0.787909	0.442056
H207	H	0.773210	-0.102582	0.000086
H208	H	1.273210	0.397418	0.500086
N209	N	1.030830	-0.571443	0.000113
N210	N	1.530830	-0.071443	0.500113
N211	N	1.091891	-0.611498	0.000120
N212	N	1.591891	-0.111498	0.500120
H213	H	1.142079	-0.591329	0.000139
H214	H	1.642079	-0.091329	0.500139
H215	H	0.800071	0.180266	0.203785
H216	H	1.300071	0.680266	0.703785
N217	N	0.256217	0.220891	0.000063
N218	N	0.756217	0.720891	0.500063
N219	N	0.212722	0.277171	0.000054
N220	N	0.712722	0.777171	0.500054
H221	H	0.234524	0.323494	0.000039
H222	H	0.734524	0.823494	0.500039
H223	H	0.106741	0.205470	0.000082
H224	H	0.606741	0.705470	0.500082
