data_functionalizedCrystal
_audit_creation_method	'MofGen! by Chris Wilmer'
_symmetry_space_group_name_H-M	'P1'
_symmetry_Int_Tables_number	1
_symmetry_cell_setting	triclinic
loop_
_symmetry_equiv_pos_as_xyz
  x,y,z
_cell_length_a	21.295417
_cell_length_b	18.215407
_cell_length_c	18.215399
_cell_angle_alpha	89.980167
_cell_angle_beta	90.032152
_cell_angle_gamma	89.969045
loop_
_atom_site_label
_atom_site_type_symbol
_atom_site_fract_x
_atom_site_fract_y
_atom_site_fract_z
Zn1	Zn	-0.250608	-1.125043	0.416094
Zn2	Zn	0.249392	-0.625043	0.916094
Zn3	Zn	-0.355879	-1.124940	0.293019
Zn4	Zn	0.144121	-0.624940	0.793019
Zn5	Zn	-0.250629	-1.001976	0.293042
Zn6	Zn	0.249371	-0.501976	0.793042
Zn7	Zn	-0.355844	-1.001930	0.416044
Zn8	Zn	0.144156	-0.501930	0.916044
O9	O	-0.303240	-1.063472	0.354550
O10	O	0.196760	-0.563472	0.854550
O11	O	-0.264579	-1.228014	0.399780
O12	O	0.235421	-0.728014	0.899780
O13	O	-0.341941	-1.108604	0.190038
O14	O	0.158059	-0.608604	0.690038
O15	O	-0.162537	-1.018364	0.309396
O16	O	0.337463	-0.518364	0.809396
O17	O	-0.341921	-1.227938	0.309357
O18	O	0.158079	-0.727938	0.809357
O19	O	-0.162521	-1.108781	0.399802
O20	O	0.337479	-0.608781	0.899802
O21	O	-0.264614	-1.018263	0.190054
O22	O	0.235386	-0.518263	0.690054
O23	O	-0.264580	-0.898985	0.309347
O24	O	0.235420	-0.398985	0.809347
O25	O	-0.341861	-1.018285	0.519035
O26	O	0.158139	-0.518285	1.019035
O27	O	-0.341881	-0.898951	0.399716
O28	O	0.158119	-0.398951	0.899716
O29	O	-0.264545	-1.108736	0.519072
O30	O	0.235455	-0.608736	1.019072
O31	O	-0.443964	-1.108559	0.309308
O32	O	0.056036	-0.608559	0.809308
O33	O	-0.443938	-1.018184	0.399694
O34	O	0.056062	-0.518184	0.899694
C35	C	-0.303229	-0.872266	0.354529
C36	C	0.196771	-0.372266	0.854529
C37	C	-0.303240	-0.790467	0.354537
C38	C	0.196760	-0.290467	0.854537
C39	C	-0.466792	-1.063376	0.354509
C40	C	0.033208	-0.563376	0.854509
C41	C	-0.536760	-1.063402	0.354516
C42	C	-0.036760	-0.563402	0.854516
C43	C	-0.303197	-1.063517	0.546503
C44	C	0.196803	-0.563517	1.046503
C45	C	-0.303178	-1.063536	0.628302
C46	C	0.196822	-0.563536	1.128302
C47	C	-0.569619	-1.110502	0.307500
C48	C	-0.069619	-0.610502	0.807500
C49	C	-0.635361	-1.110536	0.307517
C50	C	-0.135361	-0.610536	0.807517
C51	C	-0.668242	-1.063457	0.354542
C52	C	-0.168242	-0.563457	0.854542
C53	C	-0.635375	-1.016354	0.401566
C54	C	-0.135375	-0.516354	0.901566
C55	C	-0.569634	-1.016326	0.401554
C56	C	-0.069634	-0.516326	0.901554
N57	N	-0.771508	-0.999079	0.360145
N58	N	-0.271508	-0.499079	0.860145
N59	N	-0.833960	-0.999107	0.360153
N60	N	-0.333960	-0.499107	0.860153
C61	C	-0.866317	-1.063540	0.354584
C62	C	-0.366317	-0.563540	0.854584
N63	N	-0.833863	-1.127944	0.348993
N64	N	-0.333863	-0.627944	0.848993
N65	N	-0.771406	-1.127915	0.348981
N66	N	-0.271406	-0.627915	0.848981
C67	C	-0.739528	-1.063483	0.354561
C68	C	-0.239528	-0.563483	0.854561
C69	C	-0.970462	-1.110681	0.307584
C70	C	-0.470462	-0.610681	0.807584
C71	C	-1.036205	-1.110717	0.307605
C72	C	-0.536205	-0.610717	0.807605
C73	C	-1.036218	-1.016528	0.401651
C74	C	-0.536218	-0.516528	0.901651
C75	C	-0.970475	-1.016499	0.401633
C76	C	-0.470475	-0.516499	0.901633
C77	C	-0.937601	-1.063575	0.354595
C78	C	-0.437601	-0.563575	0.854595
C79	C	-0.139050	-1.063589	0.354607
C80	C	0.360950	-0.563589	0.854607
C81	C	-0.069082	-1.063639	0.354631
C82	C	0.430918	-0.563639	0.854631
C83	C	-0.303251	-1.255425	0.354571
C84	C	0.196749	-0.755425	0.854571
C85	C	-0.303256	-1.337224	0.354581
C86	C	0.196744	-0.837224	0.854581
C87	C	-0.343554	-0.602275	0.401533
C88	C	0.156446	-0.102275	0.901533
C89	C	-0.343556	-0.525416	0.401542
C90	C	0.156444	-0.025416	0.901542
C91	C	-0.262938	-0.525422	0.307582
C92	C	0.237062	-0.025422	0.807582
C93	C	-0.262933	-0.602279	0.307577
C94	C	0.237067	-0.102279	0.807577
C95	C	-0.303245	-0.640703	0.354552
C96	C	0.196755	-0.140703	0.854552
C97	C	-0.303251	-0.486987	0.354566
C98	C	0.196749	0.013013	0.854566
C99	C	-0.303253	-0.403654	0.354575
C100	C	0.196747	0.096346	0.854575
C101	C	-0.303242	-0.724042	0.354543
C102	C	0.196758	-0.224042	0.854543
C103	C	-0.303238	-1.063470	0.163344
C104	C	0.196762	-0.563470	0.663344
C105	C	-0.303079	-1.063593	0.081545
C106	C	0.196921	-0.563593	0.581545
C107	C	-0.262882	-1.110651	0.816516
C108	C	0.237118	-0.610651	1.316516
C109	C	-0.262863	-1.110660	0.893375
C110	C	0.237137	-0.610660	1.393375
C111	C	-0.343377	-1.016473	0.893325
C112	C	0.156623	-0.516473	1.393325
C113	C	-0.343392	-1.016461	0.816468
C114	C	0.156608	-0.516461	1.316468
C115	C	-0.303145	-1.063554	0.778065
C116	C	0.196855	-0.563554	1.278065
C117	C	-0.303112	-1.063575	0.931781
C118	C	0.196888	-0.563575	1.431781
C119	C	-0.303093	-1.063584	1.015115
C120	C	0.196907	-0.563584	1.515115
C121	C	-0.303164	-1.063544	0.694726
C122	C	0.196836	-0.563544	1.194726
H123	H	-0.542855	-1.148835	0.269202
H124	H	-0.042855	-0.648835	0.769202
H125	H	-0.230118	-0.494127	0.269336
H126	H	0.269882	0.005873	0.769336
C127	C	-0.934298	-1.162475	0.255853
C128	C	-0.434298	-0.662475	0.755853
N129	N	-0.907061	-1.201490	0.216891
N130	N	-0.407061	-0.701490	0.716891
H131	H	-0.943720	-0.978143	0.439914
H132	H	-0.443720	-0.478143	0.939914
H133	H	-0.662121	-1.148893	0.269231
H134	H	-0.162121	-0.648893	0.769231
H135	H	-0.230076	-1.149009	0.924678
H136	H	0.269924	-0.649009	1.424678
C137	C	-0.671545	-0.964565	0.453291
C138	C	-0.171545	-0.464565	0.953291
N139	N	-0.698789	-0.925556	0.492252
N140	N	-0.198789	-0.425556	0.992252
H141	H	-0.376377	-0.633557	0.439785
H142	H	0.123623	-0.133557	0.939785
H143	H	-1.062958	-1.149076	0.269321
H144	H	-0.562958	-0.649076	0.769321
C145	C	-1.072383	-0.964742	0.453380
C146	C	-0.572383	-0.464742	0.953380
N147	N	-1.099626	-0.925737	0.492345
N148	N	-0.599626	-0.425737	0.992345
C149	C	-0.387645	-0.964672	0.935575
C150	C	0.112355	-0.464672	1.435575
N151	N	-0.420988	-0.925655	0.967397
N152	N	0.079012	-0.425655	1.467397
H153	H	-0.230104	-0.633569	0.269319
H154	H	0.269896	-0.133569	0.769319
C155	C	-0.387685	-0.964646	0.774169
C156	C	0.112315	-0.464646	1.274169
N157	N	-0.421044	-0.925619	0.742310
N158	N	0.078956	-0.425619	1.242310
H159	H	-0.376379	-0.494130	0.439801
H160	H	0.123621	0.005870	0.939801
H161	H	-0.542879	-0.977971	0.439840
H162	H	-0.042879	-0.477971	0.939840
H163	H	-0.230109	-1.148995	0.785251
H164	H	0.269891	-0.648995	1.285251
