data_functionalizedCrystal
_audit_creation_method	'MofGen! by Chris Wilmer'
_symmetry_space_group_name_H-M	'P1'
_symmetry_Int_Tables_number	1
_symmetry_cell_setting	triclinic
loop_
_symmetry_equiv_pos_as_xyz
  x,y,z
_cell_length_a	17.038272
_cell_length_b	10.908937
_cell_length_c	10.065875
_cell_angle_alpha	83.441416
_cell_angle_beta	99.426590
_cell_angle_gamma	75.598756
loop_
_atom_site_label
_atom_site_type_symbol
_atom_site_fract_x
_atom_site_fract_y
_atom_site_fract_z
O1	O	-0.132801	1.708126	-0.113530
O2	O	0.367199	2.208126	0.386470
O3	O	-0.072602	1.340841	-0.113525
O4	O	0.427398	1.840841	0.386475
O5	O	-0.216232	1.522299	-0.113517
O6	O	0.283768	2.022299	0.386483
O7	O	0.010829	1.526668	-0.113538
O8	O	0.510829	2.026668	0.386462
O9	O	-0.188753	1.487707	0.113471
O10	O	0.311247	1.987707	0.613471
O11	O	-0.045123	1.306249	0.113462
O12	O	0.454877	1.806249	0.613462
O13	O	-0.105322	1.673534	0.113457
O14	O	0.394678	2.173534	0.613457
Zn15	Zn	-0.070860	1.484399	0.149499
Zn16	Zn	0.429140	1.984399	0.649499
Zn17	Zn	-0.107064	1.529975	-0.149566
Zn18	Zn	0.392936	2.029975	0.350434
O19	O	0.038308	1.492076	0.113449
O20	O	0.538308	1.992076	0.613449
C21	C	-0.053237	1.276318	-0.000031
C22	C	0.446763	1.776318	0.499969
C23	C	-0.036483	1.135597	-0.000029
C24	C	0.463517	1.635597	0.499971
C25	C	-0.080310	0.934470	-0.000049
C26	C	0.419690	1.434470	0.499951
C27	C	-0.097625	1.079910	-0.000031
C28	C	0.402375	1.579910	0.499969
C29	C	-0.231105	1.501032	-0.000023
C30	C	0.268895	2.001032	0.499977
C31	C	-0.316360	1.489185	-0.000023
C32	C	0.183640	1.989185	0.499977
C33	C	-0.380598	1.597952	-0.000023
C34	C	0.119402	2.097952	0.499977
C35	C	-0.460704	1.586815	-0.000036
C36	C	0.039296	2.086815	0.499964
C37	C	-0.476568	1.466909	-0.000039
C38	C	0.023432	1.966909	0.499961
C39	C	-0.412323	1.358135	-0.000043
C40	C	0.087677	1.858135	0.499957
C41	C	-0.332221	1.369274	-0.000040
C42	C	0.167779	1.869274	0.499960
C43	C	-0.717218	1.427556	-0.000057
C44	C	-0.217218	1.927556	0.499943
C45	C	-0.797328	1.416424	-0.000056
C46	C	-0.297328	1.916424	0.499944
C47	C	-0.845703	1.645107	-0.000052
C48	C	-0.345703	2.145107	0.499948
C49	C	-0.765595	1.656234	-0.000040
C50	C	-0.265595	2.156234	0.499960
C51	C	-0.701358	1.547461	-0.000052
C52	C	-0.201358	2.047461	0.499948
C53	C	-0.558448	1.455522	-0.000048
C54	C	-0.058448	1.955522	0.499952
C55	C	-0.619481	1.558851	-0.000053
C56	C	-0.119481	2.058851	0.499947
C57	C	0.053181	1.513343	-0.000048
C58	C	0.553181	2.013343	0.499952
C59	C	0.138434	1.525191	-0.000056
C60	C	0.638434	2.025191	0.499944
C61	C	-0.124687	1.738057	-0.000040
C62	C	0.375313	2.238057	0.499960
C63	C	-0.141442	1.878780	-0.000051
C64	C	0.358558	2.378780	0.499949
N65	N	-0.046153	1.453304	0.353603
N66	N	0.453847	1.953304	0.853603
N67	N	-0.131779	1.561080	-0.353671
N68	N	0.368221	2.061080	0.146329
C69	C	-0.098472	1.519148	0.421385
C70	C	0.401528	2.019148	0.921385
C71	C	-0.079452	1.495227	0.578551
C72	C	0.420548	1.995227	1.078551
H73	H	-0.206600	0.938776	-0.000047
H74	H	0.293400	1.438776	0.499953
C75	C	-0.185654	1.160937	-0.000021
C76	C	0.314346	1.660937	0.499979
H77	H	-0.221764	1.107139	-0.000036
H78	H	0.278236	1.607139	0.499964
H79	H	-0.185175	1.200759	0.079137
H80	H	0.314825	1.700759	0.579137
H81	H	-0.204336	1.224894	-0.079184
H82	H	0.295664	1.724894	0.420816
H83	H	0.028678	1.075608	-0.000044
H84	H	0.528678	1.575608	0.499956
C85	C	0.033373	1.353205	0.432374
C86	C	0.533373	1.853205	0.932374
H87	H	0.063726	1.314986	0.369468
H88	H	0.563726	1.814986	0.869468
H89	H	0.066166	1.393949	0.488118
H90	H	0.566166	1.893949	0.988118
H91	H	0.019285	1.288902	0.488117
H92	H	0.519285	1.788902	0.988117
H93	H	-0.367688	1.695592	-0.000012
H94	H	0.132312	2.195592	0.499988
H95	H	-0.513005	1.675385	-0.000033
H96	H	-0.013005	2.175385	0.499967
H97	H	-0.752686	1.753875	-0.000038
H98	H	-0.252686	2.253875	0.499962
C99	C	-0.211319	1.661163	0.567567
C100	C	0.288681	2.161163	1.067567
H101	H	-0.241678	1.699363	0.630475
H102	H	0.258322	2.199363	1.130475
H103	H	-0.197252	1.725469	0.511804
H104	H	0.302748	2.225469	1.011804
H105	H	-0.244106	1.620388	0.511843
H106	H	0.255894	2.120388	1.011843
H107	H	-0.898012	1.733664	-0.000045
H108	H	-0.398012	2.233664	0.499955
C109	C	0.000086	1.395145	0.657323
C110	C	0.500086	1.895145	1.157323
H111	H	0.002439	1.392203	0.752622
H112	H	0.502439	1.892203	1.252622
H113	H	0.000021	1.313213	0.633993
H114	H	0.500021	1.813213	1.133993
H115	H	0.046873	1.418297	0.633966
H116	H	0.546873	1.918297	1.133966
H117	H	-0.810236	1.318774	-0.000037
H118	H	-0.310236	1.818774	0.499963
C119	C	-0.575899	1.323629	-0.000051
C120	C	-0.075899	1.823629	0.499949
H121	H	-0.526171	1.260440	-0.000058
H122	H	-0.026171	1.760440	0.499942
H123	H	-0.596569	1.302469	0.079097
H124	H	-0.096569	1.802469	0.579097
H125	H	-0.615720	1.326607	-0.079224
H126	H	-0.115720	1.826607	0.420776
H127	H	-0.015154	0.874477	-0.000069
H128	H	0.484846	1.374477	0.499931
H129	H	-0.664924	1.338985	-0.000066
H130	H	-0.164924	1.838985	0.499934
C131	C	-0.429770	1.226239	-0.000057
C132	C	0.070230	1.726239	0.499943
H133	H	-0.380039	1.163059	-0.000072
H134	H	0.119961	1.663059	0.499928
H135	H	-0.450434	1.205069	0.079094
H136	H	0.049566	1.705069	0.579094
H137	H	-0.469592	1.229214	-0.079226
H138	H	0.030408	1.729214	0.420774
C139	C	-0.261556	1.249635	-0.000041
C140	C	0.238444	1.749635	0.499959
H141	H	-0.211580	1.273443	-0.000053
H142	H	0.288420	1.773443	0.499947
H143	H	-0.255162	1.188760	0.079111
H144	H	0.244838	1.688760	0.579111
H145	H	-0.274329	1.212903	-0.079210
H146	H	0.225671	1.712903	0.420790
H147	H	-0.606564	1.656483	-0.000080
H148	H	-0.106564	2.156483	0.499920
H149	H	-0.157348	1.593225	0.363064
H150	H	0.342652	2.093225	0.863064
