data_functionalizedCrystal
_audit_creation_method	'MofGen! by Chris Wilmer'
_symmetry_space_group_name_H-M	'P1'
_symmetry_Int_Tables_number	1
_symmetry_cell_setting	triclinic
loop_
_symmetry_equiv_pos_as_xyz
  x,y,z
_cell_length_a	12.759395
_cell_length_b	12.759394
_cell_length_c	14.908854
_cell_angle_alpha	86.675367
_cell_angle_beta	93.280132
_cell_angle_gamma	90.014617
loop_
_atom_site_label
_atom_site_type_symbol
_atom_site_fract_x
_atom_site_fract_y
_atom_site_fract_z
Zn1	Zn	1.571963	-0.383945	-0.510078
Zn2	Zn	2.071963	0.116055	-0.010078
Zn3	Zn	1.582004	-0.569789	-0.359227
Zn4	Zn	2.082004	-0.069789	0.140773
Zn5	Zn	1.406408	-0.394127	-0.359238
Zn6	Zn	1.906408	0.105873	0.140762
Zn7	Zn	1.396259	-0.559587	-0.510044
Zn8	Zn	1.896259	-0.059587	-0.010044
O9	O	1.489159	-0.476862	-0.434647
O10	O	1.989159	0.023138	0.065353
O11	O	1.720316	-0.408606	-0.490077
O12	O	2.220316	0.091394	0.009923
O13	O	1.567160	-0.555018	-0.232985
O14	O	2.067160	-0.055018	0.267015
O15	O	1.428415	-0.245754	-0.379266
O16	O	1.928415	0.254246	0.120734
O17	O	1.727692	-0.545145	-0.379248
O18	O	2.227692	-0.045145	0.120752
O19	O	1.550048	-0.238273	-0.490087
O20	O	2.050048	0.261727	0.009913
O21	O	1.438151	-0.425960	-0.232993
O22	O	1.938151	0.074040	0.267007
O23	O	1.258041	-0.416067	-0.379233
O24	O	1.758041	0.083933	0.120767
O25	O	1.411117	-0.527757	-0.636292
O26	O	1.911117	-0.027757	-0.136292
O27	O	1.250585	-0.537630	-0.490029
O28	O	1.750585	-0.037630	0.009971
O29	O	1.540206	-0.398713	-0.636317
O30	O	2.040206	0.101287	-0.136317
O31	O	1.557319	-0.715458	-0.379215
O32	O	2.057319	-0.215458	0.120785
O33	O	1.420853	-0.707963	-0.490019
O34	O	1.920853	-0.207963	0.009981
C35	C	1.216192	-0.476847	-0.434629
C36	C	1.716192	0.023153	0.065371
C37	C	1.099415	-0.476864	-0.434643
C38	C	1.599415	0.023136	0.065357
C39	C	0.872284	-0.334911	-0.550266
C40	C	1.372284	0.165089	-0.050266
C41	C	0.923304	-0.263915	-0.608051
C42	C	1.423304	0.236085	-0.108051
C43	C	1.033027	-0.263898	-0.608036
C44	C	1.533027	0.236102	-0.108036
C45	C	1.091732	-0.334887	-0.550230
C46	C	1.591732	0.165113	-0.050230
C47	C	1.040712	-0.405884	-0.492444
C48	C	1.540712	0.094116	0.007556
C49	C	0.930987	-0.405891	-0.492464
C50	C	1.430987	0.094109	0.007536
C51	C	1.048395	-0.547861	-0.376857
C52	C	1.548395	-0.047861	0.123143
C53	C	0.938672	-0.547875	-0.376867
C54	C	1.438672	-0.047875	0.123133
C55	C	1.107100	-0.618851	-0.319052
C56	C	1.607100	-0.118851	0.180948
C57	C	1.056080	-0.689844	-0.261260
C58	C	1.556080	-0.189844	0.238740
C59	C	0.946351	-0.689857	-0.261277
C60	C	1.446351	-0.189857	0.238723
C61	C	0.887652	-0.618871	-0.319081
C62	C	1.387652	-0.118871	0.180919
C63	C	1.489101	-0.749830	-0.434632
C64	C	1.989101	-0.249830	0.065368
C65	C	1.489171	-0.866606	-0.434656
C66	C	1.989171	-0.366606	0.065344
C67	C	1.615720	-0.858652	-0.550140
C68	C	2.115720	-0.358652	-0.050140
C69	C	1.679028	-0.909536	-0.607890
C70	C	2.179028	-0.409536	-0.107890
C71	C	1.679089	-1.019256	-0.607909
C72	C	2.179089	-0.519256	-0.107909
C73	C	1.615834	-1.078095	-0.550175
C74	C	2.115834	-0.578095	-0.050175
C75	C	1.552526	-1.027212	-0.492426
C76	C	2.052526	-0.527212	0.007574
C77	C	1.552474	-0.917489	-0.492411
C78	C	2.052474	-0.417489	0.007589
C79	C	1.425972	-1.035165	-0.376947
C80	C	1.925972	-0.535165	0.123053
C81	C	1.425915	-0.925445	-0.376922
C82	C	1.925915	-0.425445	0.123078
C83	C	1.362717	-1.094004	-0.319213
C84	C	1.862717	-0.594004	0.180787
C85	C	1.299413	-1.043121	-0.261458
C86	C	1.799413	-0.543121	0.238542
C87	C	1.299356	-0.933394	-0.261440
C88	C	1.799356	-0.433394	0.238560
C89	C	1.362608	-0.874561	-0.319173
C90	C	1.862608	-0.374561	0.180827
C91	C	1.763191	-0.476878	-0.434665
C92	C	2.263191	0.023122	0.065335
C93	C	1.879967	-0.476885	-0.434673
C94	C	2.379967	0.023115	0.065327
C95	C	1.473409	-0.460961	-0.669954
C96	C	1.973409	0.039039	-0.169954
C97	C	1.466698	-0.454185	-0.770228
C98	C	1.966698	0.045815	-0.270228
C99	C	1.489243	-0.202826	-0.434681
C100	C	1.989243	0.297174	0.065319
C101	C	1.489280	-0.086049	-0.434696
C102	C	1.989280	0.413951	0.065304
C103	C	1.588449	-0.575838	-0.958647
C104	C	2.088449	-0.075838	-0.458647
C105	C	1.582146	-0.569475	-1.052863
C106	C	2.082146	-0.069475	-0.552863
C107	C	1.447797	-0.435091	-1.052878
C108	C	1.947797	0.064909	-0.552878
C109	C	1.454099	-0.441454	-0.958662
C110	C	1.954099	0.058546	-0.458662
C111	C	1.524426	-0.511831	-0.911549
C112	C	2.024426	-0.011831	-0.411549
C113	C	1.530723	-0.518199	-0.817331
C114	C	2.030723	-0.018199	-0.317331
C115	C	1.396380	-0.383810	-0.817348
C116	C	1.896380	0.116190	-0.317348
C117	C	1.390077	-0.377447	-0.911565
C118	C	1.890077	0.122553	-0.411565
C119	C	1.504907	-0.492625	-0.200255
C120	C	2.004907	0.007375	0.299745
C121	C	1.511822	-0.499105	-0.099982
C122	C	2.011822	0.000895	0.400018
H123	H	0.782943	-0.334897	-0.550265
H124	H	1.282943	0.165103	-0.050265
Br125	Br	1.294643	-0.281936	-0.975511
Br126	Br	1.794643	0.218064	-0.475511
H127	H	0.798311	-0.618863	-0.319090
H128	H	1.298311	-0.118863	0.180910
H129	H	1.344247	-0.331692	-0.778992
H130	H	1.844247	0.168308	-0.278992
Br131	Br	1.765000	-1.088317	-0.686288
Br132	Br	2.265000	-0.588317	-0.186288
H133	H	1.196441	-0.618838	-0.319048
H134	H	1.696441	-0.118838	0.180952
H135	H	1.730528	-0.861619	-0.654898
H136	H	2.230528	-0.361619	-0.154898
Br137	Br	1.616091	-1.227012	-0.550062
Br138	Br	2.116091	-0.727012	-0.050062
H139	H	0.875494	-0.206118	-0.655117
H140	H	1.375494	0.293882	-0.155117
Br141	Br	1.362965	-1.242921	-0.319103
Br142	Br	1.862965	-0.742921	0.180897
H143	H	1.074566	-0.206087	-0.655091
H144	H	1.574566	0.293913	-0.155091
H145	H	1.181073	-0.334876	-0.550231
H146	H	1.681073	0.165124	-0.050231
H147	H	1.587992	-0.575499	-0.778974
H148	H	2.087992	-0.075499	-0.278974
H149	H	1.645716	-0.633138	-0.920287
H150	H	2.145716	-0.133138	-0.420287
H151	H	1.103886	-0.747643	-0.214204
H152	H	1.603886	-0.247643	0.285796
Br153	Br	1.615628	-0.709744	-0.550129
Br154	Br	2.115628	-0.209744	-0.050129
H155	H	0.904817	-0.747676	-0.214225
H156	H	1.404817	-0.247676	0.285775
H157	H	1.390546	-0.377787	-1.091253
H158	H	1.890546	0.122213	-0.591253
Br159	Br	1.213562	-1.122977	-0.183124
Br160	Br	1.713562	-0.622977	0.316876
Br161	Br	1.669042	-0.656340	-1.116779
Br162	Br	2.169042	-0.156340	-0.616779
Br163	Br	1.213425	-0.864347	-0.183069
Br164	Br	1.713425	-0.364347	0.316931
H165	H	1.362572	-0.785221	-0.319160
H166	H	1.862572	-0.285221	0.180840
