data_functionalizedCrystal
_audit_creation_method	'MofGen! by Chris Wilmer'
_symmetry_space_group_name_H-M	'P1'
_symmetry_Int_Tables_number	1
_symmetry_cell_setting	triclinic
loop_
_symmetry_equiv_pos_as_xyz
  x,y,z
_cell_length_a	14.044191
_cell_length_b	13.101039
_cell_length_c	17.699083
_cell_angle_alpha	93.354568
_cell_angle_beta	91.762604
_cell_angle_gamma	93.662449
loop_
_atom_site_label
_atom_site_type_symbol
_atom_site_fract_x
_atom_site_fract_y
_atom_site_fract_z
O1	O	1.262509	0.085168	-0.178644
O2	O	1.595842	0.418502	0.154689
O3	O	1.929175	0.751835	0.488022
O4	O	0.986555	0.085181	-0.172055
O5	O	1.319888	0.418515	0.161279
O6	O	1.653222	0.751848	0.494612
O7	O	1.132328	0.085165	-0.065699
O8	O	1.465661	0.418499	0.267635
O9	O	1.798994	0.751832	0.600968
O10	O	1.116736	0.085184	-0.285000
O11	O	1.450069	0.418518	0.048333
O12	O	1.783403	0.751851	0.381666
O13	O	1.121869	-0.085263	-0.073343
O14	O	1.455202	0.248070	0.259990
O15	O	1.788535	0.581403	0.593323
O16	O	0.976096	-0.085247	-0.179699
O17	O	1.309429	0.248086	0.153634
O18	O	1.642763	0.581419	0.486967
O19	O	1.252050	-0.085260	-0.186289
O20	O	1.585383	0.248073	0.147044
O21	O	1.918716	0.581406	0.480378
Zn22	Zn	1.112412	-0.112313	-0.184208
Zn23	Zn	1.445745	0.221020	0.149125
Zn24	Zn	1.779079	0.554354	0.482459
Zn25	Zn	1.126192	0.112234	-0.174136
Zn26	Zn	1.459526	0.445567	0.159198
Zn27	Zn	1.792859	0.778901	0.492531
O28	O	1.106277	-0.085244	-0.292645
O29	O	1.439610	0.248089	0.040688
O30	O	1.772944	0.581422	0.374022
C31	C	0.946018	-0.000032	-0.172994
C32	C	1.279351	0.333302	0.160339
C33	C	1.612684	0.666635	0.493672
C34	C	0.840812	-0.000027	-0.164396
C35	C	1.174145	0.333306	0.168937
C36	C	1.507479	0.666640	0.502270
C37	C	0.590421	-0.000033	-0.209657
C38	C	0.923754	0.333300	0.123676
C39	C	1.257087	0.666633	0.457010
C40	C	0.648190	-0.000037	-0.148690
C41	C	0.981523	0.333297	0.184644
C42	C	1.314857	0.666630	0.517977
C43	C	0.755375	-0.000031	-0.157431
C44	C	1.088708	0.333302	0.175902
C45	C	1.422041	0.666635	0.509236
C46	C	0.483226	-0.000039	-0.200917
C47	C	0.816559	0.333295	0.132416
C48	C	1.149893	0.666628	0.465750
N49	N	1.103014	-0.265561	-0.191082
N50	N	1.436348	0.067773	0.142251
N51	N	1.769681	0.401106	0.475585
C52	C	1.090228	-0.474602	-0.200441
C53	C	1.423562	-0.141268	0.132892
C54	C	1.756895	0.192065	0.466225
C55	C	1.148381	-0.525484	-0.157899
C56	C	1.481714	-0.192150	0.175434
C57	C	1.815047	0.141183	0.508767
C58	C	1.141266	-0.641801	-0.163107
C59	C	1.474600	-0.308468	0.170227
C60	C	1.807933	0.024865	0.503560
C61	C	1.097341	-0.358274	-0.195235
C62	C	1.430675	-0.024940	0.138099
C63	C	1.764008	0.308393	0.471432
C64	C	1.292587	-0.000045	-0.185349
C65	C	1.625920	0.333288	0.147984
C66	C	1.959254	0.666621	0.481318
C67	C	1.397793	-0.000043	-0.193947
C68	C	1.731127	0.333290	0.139386
C69	C	2.064460	0.666624	0.472720
C70	C	1.126539	-0.000049	-0.041286
C71	C	1.459873	0.333284	0.292048
C72	C	1.793206	0.666618	0.625381
C73	C	1.124863	-0.000049	0.042848
C74	C	1.458197	0.333284	0.376182
C75	C	1.791530	0.666617	0.709515
N76	N	1.135598	0.265482	-0.167256
N77	N	1.468931	0.598815	0.166077
N78	N	1.802264	0.932148	0.499410
C79	C	1.112065	-0.000028	-0.317058
C80	C	1.445399	0.333306	0.016275
C81	C	1.778732	0.666639	0.349609
C82	C	1.113742	-0.000021	-0.401192
C83	C	1.447075	0.333313	-0.067858
C84	C	1.780409	0.666646	0.265475
C85	C	1.210429	-0.000055	0.085565
C86	C	1.543762	0.333279	0.418898
C87	C	1.877096	0.666612	0.752231
C88	C	1.208849	-0.000046	0.164617
C89	C	1.542182	0.333288	0.497951
C90	C	1.875515	0.666621	0.831284
C91	C	1.121702	-0.000038	0.200952
C92	C	1.455035	0.333295	0.534285
C93	C	1.788368	0.666628	0.867619
C94	C	1.036130	-0.000030	0.158230
C95	C	1.369463	0.333303	0.491563
C96	C	1.702796	0.666637	0.824897
C97	C	1.037711	-0.000032	0.079179
C98	C	1.371044	0.333302	0.412512
C99	C	1.704378	0.666635	0.745846
C100	C	1.029750	-0.000021	0.477034
C101	C	1.363083	0.333312	0.810367
C102	C	1.696417	0.666645	1.143700
C103	C	1.028175	-0.000023	0.556090
C104	C	1.361508	0.333311	0.889424
C105	C	1.694841	0.666644	1.222757
C106	C	1.200888	-0.000035	0.562472
C107	C	1.534221	0.333298	0.895805
C108	C	1.867554	0.666631	1.229139
C109	C	1.202469	-0.000037	0.483421
C110	C	1.535802	0.333296	0.816755
C111	C	1.869136	0.666630	1.150088
C112	C	1.116898	-0.000023	0.440706
C113	C	1.450231	0.333310	0.774040
C114	C	1.783565	0.666644	1.107373
C115	C	1.118612	-0.000031	0.354988
C116	C	1.451946	0.333302	0.688322
C117	C	1.785279	0.666636	1.021655
C118	C	1.119986	-0.000038	0.286668
C119	C	1.453319	0.333296	0.620001
C120	C	1.786652	0.666629	0.953335
H121	H	1.203510	-0.481687	-0.117567
H122	H	1.536843	-0.148354	0.215766
H123	H	1.870176	0.184979	0.549099
H124	H	1.281394	-0.000067	0.055987
H125	H	1.614727	0.333266	0.389320
H126	H	1.948060	0.666600	0.722654
H127	H	0.617154	0.000030	-0.089926
H128	H	0.950487	0.333364	0.243407
H129	H	1.283821	0.666697	0.576741
H130	H	0.621460	-0.000025	-0.268413
H131	H	0.954793	0.333308	0.064921
H132	H	1.288126	0.666641	0.398254
Cl133	Cl	1.005121	-0.542214	-0.262711
Cl134	Cl	1.338454	-0.208880	0.070622
Cl135	Cl	1.671788	0.124453	0.403955
Cl136	Cl	1.316422	-0.000056	0.218315
Cl137	Cl	1.649756	0.333278	0.551648
Cl138	Cl	1.983089	0.666611	0.884982
Cl139	Cl	1.312030	-0.000043	0.437748
Cl140	Cl	1.645363	0.333291	0.771081
Cl141	Cl	1.978697	0.666624	1.104415
Cl142	Cl	1.308465	-0.000049	0.616176
Cl143	Cl	1.641799	0.333285	0.949509
Cl144	Cl	1.975132	0.666618	1.282843
H145	H	0.957205	-0.000019	0.585671
H146	H	1.290538	0.333315	0.919004
H147	H	1.623872	0.666648	1.252338
Cl148	Cl	0.922174	-0.000001	0.423345
Cl149	Cl	1.255508	0.333332	0.756678
Cl150	Cl	1.588841	0.666665	1.090012
H151	H	0.965173	-0.000018	0.187820
H152	H	1.298506	0.333316	0.521153
H153	H	1.631840	0.666649	0.854487
H154	H	0.968035	-0.000027	0.044400
H155	H	1.301368	0.333306	0.377733
H156	H	1.634701	0.666640	0.711066
