data_functionalizedCrystal
_audit_creation_method	'MofGen! by Chris Wilmer'
_symmetry_space_group_name_H-M	'P1'
_symmetry_Int_Tables_number	1
_symmetry_cell_setting	triclinic
loop_
_symmetry_equiv_pos_as_xyz
  x,y,z
_cell_length_a	16.120484
_cell_length_b	13.032831
_cell_length_c	13.032268
_cell_angle_alpha	89.113023
_cell_angle_beta	80.357249
_cell_angle_gamma	86.078521
loop_
_atom_site_label
_atom_site_type_symbol
_atom_site_fract_x
_atom_site_fract_y
_atom_site_fract_z
Zn1	Zn	-0.562103	1.458766	0.811459
Zn2	Zn	-0.228769	1.792099	1.144793
Zn3	Zn	0.104564	2.125432	1.478126
Zn4	Zn	-0.686112	1.471747	0.646236
Zn5	Zn	-0.352779	1.805080	0.979569
Zn6	Zn	-0.019446	2.138413	1.312902
Zn7	Zn	-0.527333	1.311081	0.615806
Zn8	Zn	-0.193999	1.644414	0.949139
Zn9	Zn	0.139334	1.977747	1.282473
Zn10	Zn	-0.681612	1.278313	0.796116
Zn11	Zn	-0.348279	1.611646	1.129449
Zn12	Zn	-0.014945	1.944979	1.462782
O13	O	-0.614290	1.379976	0.717404
O14	O	-0.280957	1.713310	1.050738
O15	O	0.052377	2.046643	1.384071
O16	O	-0.594988	1.603247	0.808698
O17	O	-0.261654	1.936581	1.142032
O18	O	0.071679	2.269914	1.475365
O19	O	-0.652382	1.469580	0.497592
O20	O	-0.319048	1.802913	0.830926
O21	O	0.014285	2.136247	1.164259
O22	O	-0.415480	1.338953	0.635446
O23	O	-0.082147	1.672286	0.968780
O24	O	0.251186	2.005619	1.302113
O25	O	-0.686097	1.612784	0.687309
O26	O	-0.352764	1.946117	1.020643
O27	O	-0.019430	2.279451	1.353976
O28	O	-0.441026	1.447456	0.779192
O29	O	-0.107692	1.780789	1.112525
O30	O	0.225641	2.114123	1.445859
O31	O	-0.535727	1.351539	0.475236
O32	O	-0.202394	1.684873	0.808569
O33	O	0.130939	2.018206	1.141902
O34	O	-0.531364	1.163974	0.620568
O35	O	-0.198030	1.497308	0.953902
O36	O	0.135303	1.830641	1.287235
O37	O	-0.678427	1.283104	0.942758
O38	O	-0.345094	1.616437	1.276091
O39	O	-0.011760	1.949771	1.609425
O40	O	-0.644712	1.139900	0.753041
O41	O	-0.311379	1.473233	1.086374
O42	O	0.021955	1.806567	1.419708
O43	O	-0.590624	1.415682	0.954031
O44	O	-0.257291	1.749016	1.287364
O45	O	0.076043	2.082349	1.620698
O46	O	-0.801980	1.437806	0.672431
O47	O	-0.468647	1.771139	1.005764
O48	O	-0.135314	2.104473	1.339098
O49	O	-0.798674	1.295691	0.782547
O50	O	-0.465341	1.629024	1.115881
O51	O	-0.132007	1.962358	1.449214
C52	C	-0.583777	1.114921	0.681838
C53	C	-0.250444	1.448254	1.015172
C54	C	0.082890	1.781588	1.348505
C55	C	-0.570746	1.001525	0.666648
C56	C	-0.237412	1.334858	0.999982
C57	C	0.095921	1.668191	1.333315
C58	C	-0.621091	0.939092	0.725332
C59	C	-0.287758	1.272425	1.058665
C60	C	0.045575	1.605758	1.391998
C61	C	-0.607624	0.821890	0.709634
C62	C	-0.274291	1.155223	1.042967
C63	C	0.059043	1.488557	1.376301
C64	C	-0.830530	1.364626	0.729153
C65	C	-0.497197	1.697959	1.062486
C66	C	-0.163864	2.031293	1.395819
C67	C	-0.923053	1.358148	0.734226
C68	C	-0.589719	1.691481	1.067559
C69	C	-0.256386	2.024815	1.400892
C70	C	-1.092455	1.346324	0.743510
C71	C	-0.759121	1.679657	1.076843
C72	C	-0.425788	2.012990	1.410176
C73	C	-1.135307	1.413810	0.691340
C74	C	-0.801974	1.747143	1.024674
C75	C	-0.468641	2.080477	1.358007
C76	C	-1.229569	1.407231	0.696506
C77	C	-0.896235	1.740564	1.029839
C78	C	-0.562902	2.073897	1.363173
C79	C	-0.998185	1.352901	0.738345
C80	C	-0.664852	1.686234	1.071678
C81	C	-0.331518	2.019568	1.405012
C82	C	-0.397210	1.395412	0.705636
C83	C	-0.063877	1.728745	1.038970
C84	C	0.269456	2.062078	1.372303
C85	C	-0.304704	1.401989	0.700622
C86	C	0.028629	1.735322	1.033955
C87	C	0.361963	2.068656	1.367288
C88	C	-0.637902	1.344290	0.986938
C89	C	-0.304569	1.677623	1.320271
C90	C	0.028765	2.010957	1.653605
C91	C	-0.647964	1.329082	1.101797
C92	C	-0.314631	1.662416	1.435130
C93	C	0.018703	1.995749	1.768464
C94	C	-0.644923	1.646067	0.753110
C95	C	-0.311589	1.979400	1.086443
C96	C	0.021744	2.312733	1.419776
C97	C	-0.657977	1.759458	0.768325
C98	C	-0.324643	2.092792	1.101659
C99	C	0.008690	2.426125	1.434992
C100	C	-0.590717	1.415587	0.448924
C101	C	-0.257383	1.748920	0.782257
C102	C	0.075950	2.082254	1.115590
C103	C	-0.580443	1.431009	0.334079
C104	C	-0.247109	1.764342	0.667412
C105	C	0.086224	2.097675	1.000746
C106	C	-0.609007	1.387900	1.158582
C107	C	-0.275673	1.721233	1.491916
C108	C	0.057660	2.054566	1.825249
C109	C	-0.619405	1.372183	1.277296
C110	C	-0.286072	1.705517	1.610629
C111	C	0.047261	2.038850	1.943962
H112	H	-0.517670	0.968208	0.604790
H113	H	-0.184336	1.301541	0.938123
H114	H	0.148997	1.634875	1.271457
H115	H	-0.554544	0.788578	0.647771
H116	H	-0.221211	1.121912	0.981105
H117	H	0.112122	1.455245	1.314438
H118	H	-0.539383	1.492999	1.294813
H119	H	-0.206050	1.826332	1.628146
H120	H	0.127283	2.159665	1.961480
O121	O	-0.673782	1.290055	1.329293
O122	O	-0.340449	1.623388	1.662627
O123	O	-0.007116	1.956721	1.995960
H124	H	-0.725663	1.326236	1.386891
H125	H	-0.392330	1.659569	1.720224
H126	H	-0.058997	1.992902	2.053558
O127	O	-0.728283	0.803566	0.850283
O128	O	-0.394950	1.136899	1.183617
O129	O	-0.061617	1.470232	1.516950
H130	H	-0.727832	0.888698	0.849752
H131	H	-0.394499	1.222031	1.183086
H132	H	-0.061165	1.555365	1.516419
H133	H	-0.689009	1.267086	1.141066
H134	H	-0.355676	1.600419	1.474400
H135	H	-0.022342	1.933752	1.807733
H136	H	-0.674162	0.972408	0.787198
H137	H	-0.340828	1.305741	1.120531
H138	H	-0.007495	1.639074	1.453864
H139	H	-1.101202	1.476527	0.642796
H140	H	-0.767869	1.809860	0.976130
H141	H	-0.434536	2.143194	1.309463
H142	H	-1.126557	1.283610	0.792048
H143	H	-0.793224	1.616943	1.125381
H144	H	-0.459890	1.950277	1.458715
H145	H	-0.567952	1.449887	1.119311
H146	H	-0.234619	1.783220	1.452645
H147	H	0.098714	2.116553	1.785978
