data_functionalizedCrystal
_audit_creation_method	'MofGen! by Chris Wilmer'
_symmetry_space_group_name_H-M	'P1'
_symmetry_Int_Tables_number	1
_symmetry_cell_setting	triclinic
loop_
_symmetry_equiv_pos_as_xyz
  x,y,z
_cell_length_a	18.215407
_cell_length_b	21.295411
_cell_length_c	18.215405
_cell_angle_alpha	89.979957
_cell_angle_beta	90.025333
_cell_angle_gamma	89.975315
loop_
_atom_site_label
_atom_site_type_symbol
_atom_site_fract_x
_atom_site_fract_y
_atom_site_fract_z
Zn1	Zn	1.125107	-0.355921	-0.293059
Zn2	Zn	1.375107	-0.105921	-0.043059
Zn3	Zn	1.625107	0.144079	0.206941
Zn4	Zn	1.875107	0.394079	0.456941
Zn5	Zn	1.125005	-0.250649	-0.416108
Zn6	Zn	1.375005	-0.000649	-0.166108
Zn7	Zn	1.625005	0.249351	0.083892
Zn8	Zn	1.875005	0.499351	0.333892
Zn9	Zn	1.002029	-0.250665	-0.293061
Zn10	Zn	1.252029	-0.000665	-0.043061
Zn11	Zn	1.502029	0.249335	0.206939
Zn12	Zn	1.752029	0.499335	0.456939
Zn13	Zn	1.002006	-0.355880	-0.416090
Zn14	Zn	1.252006	-0.105880	-0.166090
Zn15	Zn	1.502006	0.144120	0.083910
Zn16	Zn	1.752006	0.394120	0.333910
O17	O	1.063537	-0.303279	-0.354579
O18	O	1.313537	-0.053279	-0.104579
O19	O	1.563537	0.196721	0.145421
O20	O	1.813537	0.446721	0.395421
O21	O	1.228078	-0.341966	-0.309389
O22	O	1.478078	-0.091966	-0.059389
O23	O	1.728078	0.158034	0.190611
O24	O	1.978078	0.408034	0.440611
O25	O	1.108659	-0.162562	-0.399794
O26	O	1.358659	0.087438	-0.149794
O27	O	1.608659	0.337438	0.100206
O28	O	1.858659	0.587438	0.350206
O29	O	1.018408	-0.264651	-0.190076
O30	O	1.268408	-0.014651	0.059924
O31	O	1.518408	0.235349	0.309924
O32	O	1.768408	0.485349	0.559924
O33	O	1.228003	-0.264623	-0.399792
O34	O	1.478003	-0.014623	-0.149792
O35	O	1.728003	0.235377	0.100208
O36	O	1.978003	0.485377	0.350208
O37	O	1.108833	-0.341982	-0.190075
O38	O	1.358833	-0.091982	0.059925
O39	O	1.608833	0.158018	0.309925
O40	O	1.858833	0.408018	0.559925
O41	O	1.018310	-0.162574	-0.309392
O42	O	1.268310	0.087426	-0.059392
O43	O	1.518310	0.337426	0.190608
O44	O	1.768310	0.587426	0.440608
O45	O	0.899042	-0.264612	-0.309374
O46	O	1.149042	-0.014612	-0.059374
O47	O	1.399042	0.235388	0.190626
O48	O	1.649042	0.485388	0.440626
O49	O	1.018368	-0.443975	-0.399761
O50	O	1.268368	-0.193975	-0.149761
O51	O	1.518368	0.056025	0.100239
O52	O	1.768368	0.306025	0.350239
O53	O	0.899024	-0.341913	-0.399763
O54	O	1.149024	-0.091913	-0.149763
O55	O	1.399024	0.158087	0.100237
O56	O	1.649024	0.408087	0.350237
O57	O	1.108810	-0.444005	-0.309371
O58	O	1.358810	-0.194005	-0.059371
O59	O	1.608810	0.055995	0.190629
O60	O	1.858810	0.305995	0.440629
O61	O	1.108636	-0.264584	-0.519090
O62	O	1.358636	-0.014584	-0.269090
O63	O	1.608636	0.235416	-0.019090
O64	O	1.858636	0.485416	0.230910
O65	O	1.018269	-0.341897	-0.519076
O66	O	1.268269	-0.091897	-0.269076
O67	O	1.518269	0.158103	-0.019076
O68	O	1.768269	0.408103	0.230924
C69	C	0.872331	-0.303261	-0.354567
C70	C	1.122331	-0.053261	-0.104567
C71	C	1.372331	0.196739	0.145433
C72	C	1.622331	0.446739	0.395433
C73	C	0.790532	-0.303268	-0.354579
C74	C	1.040532	-0.053268	-0.104579
C75	C	1.290532	0.196732	0.145421
C76	C	1.540532	0.446732	0.395421
C77	C	0.602348	-0.343468	-0.401719
C78	C	0.852348	-0.093468	-0.151719
C79	C	1.102348	0.156532	0.098281
C80	C	1.352348	0.406532	0.348281
C81	C	0.525489	-0.343476	-0.401721
C82	C	0.775489	-0.093476	-0.151721
C83	C	1.025489	0.156524	0.098279
C84	C	1.275489	0.406524	0.348279
C85	C	0.525478	-0.263103	-0.307454
C86	C	0.775478	-0.013103	-0.057454
C87	C	1.025478	0.236897	0.192546
C88	C	1.275478	0.486897	0.442546
C89	C	0.602335	-0.263099	-0.307448
C90	C	0.852335	-0.013099	-0.057448
C91	C	1.102335	0.236901	0.192552
C92	C	1.352335	0.486901	0.442552
C93	C	0.640768	-0.303280	-0.354585
C94	C	0.890768	-0.053280	-0.104585
C95	C	1.140768	0.196720	0.145415
C96	C	1.390768	0.446720	0.395415
C97	C	0.487052	-0.303293	-0.354593
C98	C	0.737052	-0.053293	-0.104593
C99	C	0.987052	0.196707	0.145407
C100	C	1.237052	0.446707	0.395407
C101	C	0.403718	-0.303301	-0.354595
C102	C	0.653718	-0.053301	-0.104595
C103	C	0.903718	0.196699	0.145405
C104	C	1.153718	0.446699	0.395405
C105	C	0.724107	-0.303273	-0.354582
C106	C	0.974107	-0.053273	-0.104582
C107	C	1.224107	0.196727	0.145418
C108	C	1.474107	0.446727	0.395418
C109	C	1.063598	-0.467469	-0.354564
C110	C	1.313598	-0.217469	-0.104564
C111	C	1.563598	0.032531	0.145436
C112	C	1.813598	0.282531	0.395436
C113	C	1.063624	-0.537437	-0.354557
C114	C	1.313624	-0.287437	-0.104557
C115	C	1.563624	-0.037437	0.145443
C116	C	1.813624	0.212563	0.395443
C117	C	1.110715	-0.570320	-0.307489
C118	C	1.360715	-0.320320	-0.057489
C119	C	1.610715	-0.070320	0.192511
C120	C	1.860715	0.179680	0.442511
C121	C	1.110714	-0.636063	-0.307457
C122	C	1.360714	-0.386063	-0.057457
C123	C	1.610714	-0.136063	0.192543
C124	C	1.860714	0.113937	0.442543
C125	C	1.063630	-0.668920	-0.354507
C126	C	1.313630	-0.418920	-0.104507
C127	C	1.563630	-0.168920	0.145493
C128	C	1.813630	0.081080	0.395493
C129	C	1.016529	-0.636029	-0.401578
C130	C	1.266529	-0.386029	-0.151578
C131	C	1.516529	-0.136029	0.098422
C132	C	1.766529	0.113971	0.348422
C133	C	1.016526	-0.570288	-0.401603
C134	C	1.266526	-0.320288	-0.151603
C135	C	1.516526	-0.070288	0.098397
C136	C	1.766526	0.179712	0.348397
N137	N	1.057958	-0.772137	-0.418886
N138	N	1.307958	-0.522137	-0.168886
N139	N	1.557958	-0.272137	0.081114
N140	N	1.807958	-0.022137	0.331114
N141	N	1.057965	-0.834588	-0.418860
N142	N	1.307965	-0.584588	-0.168860
N143	N	1.557965	-0.334588	0.081140
N144	N	1.807965	-0.084588	0.331140
C145	C	1.063634	-0.866995	-0.354432
C146	C	1.313634	-0.616995	-0.104432
C147	C	1.563634	-0.366995	0.145568
C148	C	1.813634	-0.116995	0.395568
N149	N	1.069311	-0.834590	-0.290030
N150	N	1.319311	-0.584590	-0.040030
N151	N	1.569311	-0.334590	0.209970
N152	N	1.819311	-0.084590	0.459970
N153	N	1.069307	-0.772133	-0.290057
N154	N	1.319307	-0.522133	-0.040057
N155	N	1.569307	-0.272133	0.209943
N156	N	1.819307	-0.022133	0.459943
C157	C	1.063627	-0.740205	-0.354484
C158	C	1.313627	-0.490205	-0.104484
C159	C	1.563627	-0.240205	0.145516
C160	C	1.813627	0.009795	0.395516
C161	C	1.110727	-0.971163	-0.307325
C162	C	1.360727	-0.721163	-0.057325
C163	C	1.610727	-0.471163	0.192675
C164	C	1.860727	-0.221163	0.442675
C165	C	1.110721	-1.036907	-0.307292
C166	C	1.360721	-0.786907	-0.057292
C167	C	1.610721	-0.536907	0.192708
C168	C	1.860721	-0.286907	0.442708
C169	C	1.016540	-1.036872	-0.401419
C170	C	1.266540	-0.786872	-0.151419
C171	C	1.516540	-0.536872	0.098581
C172	C	1.766540	-0.286872	0.348581
C173	C	1.016542	-0.971129	-0.401446
C174	C	1.266542	-0.721129	-0.151446
C175	C	1.516542	-0.471129	0.098554
C176	C	1.766542	-0.221129	0.348554
C177	C	1.063640	-0.938279	-0.354400
C178	C	1.313640	-0.688279	-0.104400
C179	C	1.563640	-0.438279	0.145600
C180	C	1.813640	-0.188279	0.395600
C181	C	1.255490	-0.303297	-0.354593
C182	C	1.505490	-0.053297	-0.104593
C183	C	1.755490	0.196703	0.145407
C184	C	2.005490	0.446703	0.395407
C185	C	1.337289	-0.303305	-0.354598
C186	C	1.587289	-0.053305	-0.104598
C187	C	1.837289	0.196695	0.145402
C188	C	2.087289	0.446695	0.395402
C189	C	1.063459	-0.303248	-0.545786
C190	C	1.313459	-0.053248	-0.295786
C191	C	1.563459	0.196752	-0.045786
C192	C	1.813459	0.446752	0.204214
C193	C	1.063493	-0.303257	-0.627585
C194	C	1.313493	-0.053257	-0.377585
C195	C	1.563493	0.196743	-0.127585
C196	C	1.813493	0.446743	0.122415
C197	C	1.063518	-0.139727	-0.354542
C198	C	1.313518	0.110273	-0.104542
C199	C	1.563518	0.360273	0.145458
C200	C	1.813518	0.610273	0.395458
C201	C	1.063635	-0.069759	-0.354341
C202	C	1.313635	0.180241	-0.104341
C203	C	1.563635	0.430241	0.145659
C204	C	1.813635	0.680241	0.395659
C205	C	1.110658	-0.263074	-0.815761
C206	C	1.360658	-0.013074	-0.565761
C207	C	1.610658	0.236926	-0.315761
C208	C	1.860658	0.486926	-0.065761
C209	C	1.110691	-0.263089	-0.892620
C210	C	1.360691	-0.013089	-0.642620
C211	C	1.610691	0.236911	-0.392620
C212	C	1.860691	0.486911	-0.142620
C213	C	1.016510	-0.343529	-0.892646
C214	C	1.266510	-0.093529	-0.642646
C215	C	1.516510	0.156471	-0.392646
C216	C	1.766510	0.406471	-0.142646
C217	C	1.016481	-0.343517	-0.815788
C218	C	1.266481	-0.093517	-0.565788
C219	C	1.516481	0.156483	-0.315788
C220	C	1.766481	0.406483	-0.065788
C221	C	1.063554	-0.303285	-0.777348
C222	C	1.313554	-0.053285	-0.527348
C223	C	1.563554	0.196715	-0.277348
C224	C	1.813554	0.446715	-0.027348
C225	C	1.063616	-0.303313	-0.931064
C226	C	1.313616	-0.053313	-0.681064
C227	C	1.563616	0.196687	-0.431064
C228	C	1.813616	0.446687	-0.181064
C229	C	1.063651	-0.303330	-1.014398
C230	C	1.313651	-0.053330	-0.764398
C231	C	1.563651	0.196670	-0.514398
C232	C	1.813651	0.446670	-0.264398
C233	C	1.063520	-0.303269	-0.694009
C234	C	1.313520	-0.053269	-0.444009
C235	C	1.563520	0.196731	-0.194009
C236	C	1.813520	0.446731	0.055991
C237	C	1.063635	-0.303323	-0.162627
C238	C	1.313635	-0.053323	0.087373
C239	C	1.563635	0.196677	0.337373
C240	C	1.813635	0.446677	0.587373
C241	C	1.063677	-0.303342	-0.080828
C242	C	1.313677	-0.053342	0.169172
C243	C	1.563677	0.196658	0.419172
C244	C	1.813677	0.446658	0.669172
H245	H	0.633618	-0.230373	-0.269062
H246	H	0.883618	0.019627	-0.019062
H247	H	1.133618	0.269627	0.230938
H248	H	1.383618	0.519627	0.480938
N249	N	1.161487	-0.219714	-0.934055
N250	N	1.411487	0.030286	-0.684055
N251	N	1.661487	0.280286	-0.434055
N252	N	1.911487	0.530286	-0.184055
H253	H	1.195591	-0.245327	-0.965898
H254	H	1.445591	0.004673	-0.715898
H255	H	1.695591	0.254673	-0.465898
H256	H	1.945591	0.504673	-0.215898
H257	H	1.191252	-0.194234	-0.897995
H258	H	1.441252	0.055766	-0.647995
H259	H	1.691252	0.305766	-0.397995
H260	H	1.941252	0.555766	-0.147995
H261	H	0.494211	-0.376202	-0.440101
H262	H	0.744211	-0.126202	-0.190101
H263	H	0.994211	0.123798	0.059899
H264	H	1.244211	0.373798	0.309899
H265	H	1.149065	-0.543578	-0.269180
H266	H	1.399065	-0.293578	-0.019180
H267	H	1.649065	-0.043578	0.230820
H268	H	1.899065	0.206422	0.480820
H269	H	0.978184	-0.376283	-0.923953
H270	H	1.228184	-0.126283	-0.673953
H271	H	1.478184	0.123717	-0.423953
H272	H	1.728184	0.373717	-0.173953
H273	H	0.978200	-0.944356	-0.439778
H274	H	1.228200	-0.694356	-0.189778
H275	H	1.478200	-0.444356	0.060222
H276	H	1.728200	-0.194356	0.310222
H277	H	0.978176	-0.543515	-0.439931
H278	H	1.228176	-0.293515	-0.189931
H279	H	1.478176	-0.043515	0.060069
H280	H	1.728176	0.206485	0.310069
H281	H	1.149072	-0.944415	-0.269014
H282	H	1.399072	-0.694415	-0.019014
H283	H	1.649072	-0.444415	0.230986
H284	H	1.899072	-0.194415	0.480986
N285	N	0.965733	-0.671463	-0.452313
N286	N	1.215733	-0.421463	-0.202313
N287	N	1.465733	-0.171463	0.047687
N288	N	1.715733	0.078537	0.297687
H289	H	0.972878	-0.718100	-0.445154
H290	H	1.222878	-0.468100	-0.195154
H291	H	1.472878	-0.218100	0.054846
H292	H	1.722878	0.031900	0.304846
H293	H	0.977148	-0.659977	-0.504881
H294	H	1.227148	-0.409977	-0.254881
H295	H	1.477148	-0.159977	-0.004881
H296	H	1.727148	0.090023	0.245119
N297	N	0.965676	-0.386891	-0.774350
N298	N	1.215676	-0.136891	-0.524350
N299	N	1.465676	0.113109	-0.274350
N300	N	1.715676	0.363109	-0.024350
H301	H	0.935856	-0.412376	-0.810363
H302	H	1.185856	-0.162376	-0.560363
H303	H	1.435856	0.087624	-0.310363
H304	H	1.685856	0.337624	-0.060363
H305	H	0.931625	-0.361233	-0.742505
H306	H	1.181625	-0.111233	-0.492505
H307	H	1.431625	0.138767	-0.242505
H308	H	1.681625	0.388767	0.007495
N309	N	0.643804	-0.386809	-0.452549
N310	N	0.893804	-0.136809	-0.202549
N311	N	1.143804	0.113191	0.047451
N312	N	1.393804	0.363191	0.297451
H313	H	0.675662	-0.361174	-0.486610
H314	H	0.925662	-0.111174	-0.236610
H315	H	1.175662	0.138826	0.013390
H316	H	1.425662	0.388826	0.263390
H317	H	0.607754	-0.412261	-0.482358
H318	H	0.857754	-0.162261	-0.232358
H319	H	1.107754	0.087739	0.017642
H320	H	1.357754	0.337739	0.267642
H321	H	0.494176	-0.230388	-0.269078
H322	H	0.744176	0.019612	-0.019078
H323	H	0.994176	0.269612	0.230922
H324	H	1.244176	0.519612	0.480922
H325	H	1.149060	-0.662841	-0.269125
H326	H	1.399060	-0.412841	-0.019125
H327	H	1.649060	-0.162841	0.230875
H328	H	1.899060	0.087159	0.480875
H329	H	1.149067	-1.063679	-0.268959
H330	H	1.399067	-0.813679	-0.018959
H331	H	1.649067	-0.563679	0.231041
H332	H	1.899067	-0.313679	0.481041
N333	N	0.965752	-1.072305	-0.452160
N334	N	1.215752	-0.822305	-0.202160
N335	N	1.465752	-0.572305	0.047840
N336	N	1.715752	-0.322305	0.297840
H337	H	0.995641	-1.099592	-0.486256
H338	H	1.245641	-0.849592	-0.236256
H339	H	1.495641	-0.599592	0.013744
H340	H	1.745641	-0.349592	0.263744
H341	H	0.935929	-1.041457	-0.481936
H342	H	1.185929	-0.791457	-0.231936
H343	H	1.435929	-0.541457	0.018064
H344	H	1.685929	-0.291457	0.268064
N345	N	1.161430	-0.219687	-0.774299
N346	N	1.411430	0.030313	-0.524299
N347	N	1.661430	0.280313	-0.274299
N348	N	1.911430	0.530313	-0.024299
H349	H	1.191276	-0.194217	-0.810299
H350	H	1.441276	0.055783	-0.560299
H351	H	1.691276	0.305783	-0.310299
H352	H	1.941276	0.555783	-0.060299
H353	H	1.195458	-0.245335	-0.742367
H354	H	1.445458	0.004665	-0.492367
H355	H	1.695458	0.254665	-0.242367
H356	H	1.945458	0.504665	0.007633
