data_functionalizedCrystal
_audit_creation_method	'MofGen! by Chris Wilmer'
_symmetry_space_group_name_H-M	'P1'
_symmetry_Int_Tables_number	1
_symmetry_cell_setting	triclinic
loop_
_symmetry_equiv_pos_as_xyz
  x,y,z
_cell_length_a	19.077105
_cell_length_b	29.839131
_cell_length_c	29.839126
_cell_angle_alpha	89.970347
_cell_angle_beta	87.677237
_cell_angle_gamma	87.731134
loop_
_atom_site_label
_atom_site_type_symbol
_atom_site_fract_x
_atom_site_fract_y
_atom_site_fract_z
Zn1	Zn	1.075974	-0.206539	-0.281538
Zn2	Zn	1.575974	0.293461	0.218462
Zn3	Zn	1.075852	-0.281653	-0.206395
Zn4	Zn	1.575852	0.218347	0.293605
Zn5	Zn	0.958263	-0.203517	-0.203406
Zn6	Zn	1.458263	0.296483	0.296594
Zn7	Zn	0.958222	-0.278617	-0.278484
Zn8	Zn	1.458222	0.221383	0.221516
O9	O	1.017078	-0.242582	-0.242456
O10	O	1.517078	0.257418	0.257544
O11	O	1.174448	-0.219038	-0.274100
O12	O	1.674448	0.280962	0.225900
O13	O	1.060220	-0.271294	-0.143131
O14	O	1.560220	0.228706	0.356869
O15	O	0.973946	-0.141053	-0.213798
O16	O	1.473946	0.358947	0.286202
O17	O	1.174359	-0.274224	-0.218892
O18	O	1.674359	0.225776	0.281108
O19	O	1.060427	-0.143272	-0.271201
O20	O	1.560427	0.356728	0.228799
O21	O	0.973828	-0.213888	-0.140935
O22	O	1.473828	0.286112	0.359065
O23	O	0.859767	-0.210944	-0.210836
O24	O	1.359767	0.289056	0.289164
O25	O	0.973876	-0.269050	-0.341757
O26	O	1.473876	0.230950	0.158243
O27	O	0.859737	-0.266120	-0.265996
O28	O	1.359737	0.233880	0.234004
O29	O	1.060388	-0.216094	-0.344001
O30	O	1.560388	0.283906	0.155999
O31	O	1.060180	-0.344116	-0.215930
O32	O	1.560180	0.155884	0.284070
O33	O	0.973758	-0.341885	-0.268894
O34	O	1.473758	0.158115	0.231106
C35	C	0.834215	-0.237875	-0.237761
C36	C	1.334215	0.262125	0.262239
C37	C	0.755985	-0.235873	-0.235763
C38	C	1.255985	0.264127	0.264237
C39	C	0.719235	-0.263702	-0.263497
C40	C	1.219235	0.236298	0.236503
C41	C	0.645730	-0.261815	-0.261622
C42	C	1.145730	0.238185	0.238378
C43	C	0.608976	-0.232100	-0.232009
C44	C	1.108976	0.267900	0.267991
C45	C	0.645731	-0.204267	-0.204274
C46	C	1.145731	0.295733	0.295726
C47	C	0.719235	-0.206153	-0.206152
C48	C	1.219235	0.293847	0.293848
C49	C	0.389143	-0.223373	-0.223321
C50	C	0.889143	0.276627	0.276679
C51	C	0.315634	-0.221490	-0.221444
C52	C	0.815634	0.278510	0.278556
C53	C	0.315638	-0.279038	-0.278793
C54	C	0.815638	0.220962	0.221207
C55	C	0.389144	-0.280923	-0.280666
C56	C	0.889144	0.219077	0.219334
C57	C	0.425892	-0.253088	-0.252932
C58	C	0.925892	0.246912	0.247068
N59	N	0.533842	-0.230171	-0.230091
N60	N	1.033842	0.269829	0.269909
N61	N	0.501025	-0.255016	-0.254853
N62	N	1.001025	0.244984	0.245147
C63	C	1.016970	-0.359301	-0.242415
C64	C	1.516970	0.140699	0.257585
C65	C	1.016989	-0.409236	-0.242415
C66	C	1.516989	0.090764	0.257585
C67	C	1.062099	-0.720003	-0.272387
C68	C	1.562099	-0.220003	0.227613
C69	C	1.062175	-0.907678	-0.272416
C70	C	1.562175	-0.407678	0.227584
O71	O	1.100424	-0.932895	-0.297868
O72	O	1.600424	-0.432895	0.202132
N73	N	1.017197	-0.930027	-0.242509
N74	N	1.517197	-0.430027	0.257491
C75	C	0.972194	-0.905454	-0.212595
C76	C	1.472194	-0.405454	0.287405
O77	O	0.933934	-0.928769	-0.187161
O78	O	1.433934	-0.428769	0.312839
C79	C	0.972114	-0.717780	-0.212568
C80	C	1.472114	-0.217780	0.287432
C81	C	1.017100	-0.695433	-0.242474
C82	C	1.517100	-0.195433	0.257526
C83	C	1.107080	-0.697656	-0.302290
C84	C	1.607080	-0.197656	0.197710
C85	C	1.107064	-0.650740	-0.302281
C86	C	1.607064	-0.150740	0.197719
C87	C	1.062065	-0.626171	-0.272368
C88	C	1.562065	-0.126171	0.227632
C89	C	1.017083	-0.648517	-0.242465
C90	C	1.517083	-0.148517	0.257535
C91	C	0.927108	-0.693208	-0.182657
C92	C	1.427108	-0.193208	0.317343
C93	C	0.927091	-0.646286	-0.182654
C94	C	1.427091	-0.146286	0.317346
C95	C	0.972077	-0.623940	-0.212559
C96	C	1.472077	-0.123940	0.287441
C97	C	0.972068	-0.577032	-0.212543
C98	C	1.472068	-0.077032	0.287457
N99	N	1.017046	-0.554683	-0.242450
N100	N	1.517046	-0.054683	0.257550
C101	C	1.062044	-0.579253	-0.272362
C102	C	1.562044	-0.079253	0.227638
C103	C	0.972240	-1.003986	-0.212610
C104	C	1.472240	-0.503986	0.287390
C105	C	0.972260	-1.050904	-0.212616
C106	C	1.472260	-0.550904	0.287384
C107	C	1.062241	-1.053125	-0.272438
C108	C	1.562241	-0.553125	0.227562
C109	C	1.062223	-1.006205	-0.272429
C110	C	1.562223	-0.506205	0.227571
C111	C	1.017218	-0.981637	-0.242517
C112	C	1.517218	-0.481637	0.257483
C113	C	1.062006	-0.480726	-0.272340
C114	C	1.562006	0.019274	0.227660
C115	C	1.061987	-0.433806	-0.272327
C116	C	1.561987	0.066194	0.227673
C117	C	0.972004	-0.431589	-0.212508
C118	C	1.472004	0.068411	0.287492
C119	C	0.972025	-0.478505	-0.212519
C120	C	1.472025	0.021495	0.287481
C121	C	1.017029	-0.503072	-0.242439
C122	C	1.517029	-0.003072	0.257561
O123	O	0.933834	-0.551787	-0.187107
O124	O	1.433834	-0.051787	0.312893
O125	O	1.100288	-0.555929	-0.297799
O126	O	1.600288	-0.055929	0.202201
C127	C	1.062116	-0.766919	-0.272396
C128	C	1.562116	-0.266919	0.227604
C129	C	1.017134	-0.789265	-0.242492
C130	C	1.517134	-0.289265	0.257508
C131	C	0.972135	-0.764696	-0.212580
C132	C	1.472135	-0.264696	0.287420
C133	C	1.017155	-0.836183	-0.242498
C134	C	1.517155	-0.336183	0.257502
C135	C	1.062153	-0.860753	-0.272411
C136	C	1.562153	-0.360753	0.227589
C137	C	1.107131	-0.838404	-0.302318
C138	C	1.607131	-0.338404	0.197682
C139	C	1.107114	-0.791488	-0.302308
C140	C	1.607114	-0.291488	0.197692
C141	C	0.927158	-0.787045	-0.182673
C142	C	1.427158	-0.287045	0.317327
C143	C	0.927179	-0.833961	-0.182684
C144	C	1.427179	-0.333961	0.317316
C145	C	0.972177	-0.858530	-0.212597
C146	C	1.472177	-0.358530	0.287403
C147	C	1.200655	-0.247307	-0.247170
C148	C	1.700655	0.252693	0.252830
C149	C	1.278885	-0.249320	-0.249179
C150	C	1.778885	0.250680	0.250821
C151	C	1.017141	-0.242570	-0.359636
C152	C	1.517141	0.257430	0.140364
C153	C	1.017168	-0.242566	-0.409571
C154	C	1.517168	0.257434	0.090429
C155	C	1.017205	-0.125406	-0.242507
C156	C	1.517205	0.374594	0.257493
C157	C	1.017259	-0.075473	-0.242529
C158	C	1.517259	0.424527	0.257471
C159	C	1.062142	-0.272397	-0.767305
C160	C	1.562142	0.227603	-0.267305
C161	C	1.062144	-0.272428	-0.579631
C162	C	1.562144	0.227572	-0.079631
O163	O	1.100376	-0.297862	-0.556341
O164	O	1.600376	0.202138	-0.056341
N165	N	1.017165	-0.242544	-0.555016
N166	N	1.517165	0.257456	-0.055016
C167	C	0.972179	-0.212652	-0.577322
C168	C	1.472179	0.287348	-0.077322
O169	O	0.933916	-0.187237	-0.552079
O170	O	1.433916	0.312763	-0.052079
C171	C	0.972174	-0.212623	-0.764994
C172	C	1.472174	0.287377	-0.264994
C173	C	1.017162	-0.242506	-0.789607
C174	C	1.517162	0.257494	-0.289607
C175	C	1.107125	-0.302278	-0.791918
C176	C	1.607125	0.197722	-0.291918
C177	C	1.107127	-0.302268	-0.838833
C178	C	1.607127	0.197732	-0.338833
C179	C	1.062146	-0.272377	-0.861136
C180	C	1.562146	0.227623	-0.361136
C181	C	1.017164	-0.242496	-0.836523
C182	C	1.517164	0.257504	-0.336523
C183	C	0.927186	-0.182733	-0.787299
C184	C	1.427186	0.317267	-0.287299
C185	C	0.927187	-0.182729	-0.834220
C186	C	1.427187	0.317271	-0.334220
C187	C	0.972174	-0.212612	-0.858833
C188	C	1.472174	0.287388	-0.358833
C189	C	0.972185	-0.212596	-0.905741
C190	C	1.472185	0.287404	-0.405741
N191	N	1.017164	-0.242480	-0.930356
N192	N	1.517164	0.257520	-0.430356
C193	C	1.062145	-0.272371	-0.908053
C194	C	1.562145	0.227629	-0.408053
C195	C	0.972185	-0.212668	-0.478791
C196	C	1.472185	0.287332	0.021209
C197	C	0.972187	-0.212675	-0.431874
C198	C	1.472187	0.287325	0.068126
C199	C	1.062151	-0.272452	-0.434186
C200	C	1.562151	0.227548	0.065814
C201	C	1.062152	-0.272443	-0.481105
C202	C	1.562152	0.227557	0.018895
C203	C	1.017164	-0.242552	-0.503407
C204	C	1.517164	0.257448	-0.003407
C205	C	1.062146	-0.272348	-1.006579
C206	C	1.562146	0.227652	-0.506579
C207	C	1.062146	-0.272334	-1.053499
C208	C	1.562146	0.227666	-0.553499
C209	C	0.972179	-0.212558	-1.051182
C210	C	1.472179	0.287442	-0.551182
C211	C	0.972182	-0.212570	-1.004267
C212	C	1.472182	0.287430	-0.504267
C213	C	1.017167	-0.242469	-0.981966
C214	C	1.517167	0.257531	-0.481966
O215	O	0.933967	-0.187178	-0.929060
O216	O	1.433967	0.312822	-0.429060
O217	O	1.100390	-0.297788	-0.933304
O218	O	1.600390	0.202212	-0.433304
C219	C	1.062140	-0.272407	-0.720389
C220	C	1.562140	0.227593	-0.220389
C221	C	1.017158	-0.242526	-0.695776
C222	C	1.517158	0.257474	-0.195776
C223	C	0.972177	-0.212635	-0.718079
C224	C	1.472177	0.287365	-0.218079
C225	C	1.017159	-0.242532	-0.648858
C226	C	1.517159	0.257468	-0.148858
C227	C	1.062140	-0.272423	-0.626556
C228	C	1.562140	0.227577	-0.126556
C229	C	1.107119	-0.302307	-0.651171
C230	C	1.607119	0.197693	-0.151171
C231	C	1.107121	-0.302297	-0.698086
C232	C	1.607121	0.197703	-0.198086
C233	C	0.927198	-0.182750	-0.693463
C234	C	1.427198	0.317250	-0.193463
C235	C	0.927200	-0.182762	-0.646548
C236	C	1.427200	0.317238	-0.146548
C237	C	0.972181	-0.212653	-0.624245
C238	C	1.472181	0.287347	-0.124245
C239	C	1.017055	-0.242561	-0.125733
C240	C	1.517055	0.257439	0.374267
C241	C	1.017165	-0.242443	-0.075802
C242	C	1.517165	0.257557	0.424198
H243	H	1.098623	-0.415613	-0.296680
H244	H	1.598623	0.084387	0.203320
H245	H	1.098785	-0.296777	-0.501142
H246	H	1.598785	0.203223	-0.001142
H247	H	1.098777	-0.296790	-0.416020
H248	H	1.598777	0.203210	0.083980
N249	N	0.428784	-0.312975	-0.312603
N250	N	0.928784	0.187025	0.187397
H251	H	0.394349	-0.330319	-0.329889
H252	H	0.894349	0.169681	0.170111
H253	H	0.459318	-0.295503	-0.334210
H254	H	0.959318	0.204497	0.165790
H255	H	0.419055	-0.200712	-0.200734
H256	H	0.919055	0.299288	0.299266
H257	H	1.143747	-0.326644	-0.633004
H258	H	1.643747	0.173356	-0.133004
H259	H	0.935636	-1.069095	-0.188260
H260	H	1.435636	-0.569095	0.311740
H261	H	0.615812	-0.284477	-0.284206
H262	H	1.115812	0.215523	0.215794
H263	H	0.935562	-0.188336	-0.411838
H264	H	1.435562	0.311664	0.088162
N265	N	0.878679	-0.150522	-0.620009
N266	N	1.378679	0.349478	-0.120009
H267	H	0.828386	-0.156206	-0.626874
H268	H	1.328386	0.343794	-0.126874
H269	H	0.885554	-0.155073	-0.586910
H270	H	1.385554	0.344927	-0.086910
N271	N	0.923659	-0.180427	-0.502842
N272	N	1.423659	0.319573	-0.002842
H273	H	0.895171	-0.161499	-0.480125
H274	H	1.395171	0.338501	0.019875
H275	H	0.952327	-0.160369	-0.523059
H276	H	1.452327	0.339631	-0.023059
H277	H	0.935559	-0.188221	-1.069349
H278	H	1.435559	0.311779	-0.569349
N279	N	0.758875	-0.295756	-0.295433
N280	N	1.258875	0.204244	0.204567
H281	H	0.724437	-0.313098	-0.312719
H282	H	1.224437	0.186902	0.187281
H283	H	0.789407	-0.278283	-0.317040
H284	H	1.289407	0.221717	0.182960
H285	H	1.143693	-0.632549	-0.326634
H286	H	1.643693	-0.132549	0.173366
H287	H	0.890476	-0.711394	-0.158305
H288	H	1.390476	-0.211394	0.341695
N289	N	0.878673	-0.150496	-0.760760
N290	N	1.378673	0.349504	-0.260760
H291	H	0.850182	-0.131562	-0.782015
H292	H	1.350182	0.368438	-0.282015
H293	H	0.846078	-0.167942	-0.740441
H294	H	1.346078	0.332058	-0.240441
H295	H	0.935369	-0.411578	-0.188152
H296	H	1.435369	0.088422	0.311848
H297	H	0.890552	-0.158388	-0.852375
H298	H	1.390552	0.341612	-0.352375
H299	H	1.098782	-0.296691	-0.988428
H300	H	1.598782	0.203309	-0.488428
H301	H	0.890567	-0.158410	-0.711617
H302	H	1.390567	0.341590	-0.211617
H303	H	0.935400	-0.496701	-0.188164
H304	H	1.435400	0.003299	0.311836
H305	H	0.285710	-0.301698	-0.301373
H306	H	0.785710	0.198302	0.198627
N307	N	1.155631	-0.767393	-0.334569
N308	N	1.655631	-0.267393	0.165431
H309	H	1.127007	-0.747194	-0.354637
H310	H	1.627007	-0.247194	0.145363
H311	H	1.188250	-0.748784	-0.317137
H312	H	1.688250	-0.248784	0.182863
H313	H	0.285711	-0.197288	-0.197333
H314	H	0.785711	0.302712	0.302667
H315	H	0.890547	-0.852151	-0.158328
H316	H	1.390547	-0.352151	0.341672
N317	N	1.155669	-0.864908	-0.334579
N318	N	1.655669	-0.364908	0.165421
H319	H	1.148849	-0.898021	-0.330043
H320	H	1.648849	-0.398021	0.169957
H321	H	1.144688	-0.856412	-0.366376
H322	H	1.644688	-0.356412	0.133624
H323	H	1.098881	-1.073137	-0.296793
H324	H	1.598881	-0.573137	0.203207
H325	H	0.749155	-0.183488	-0.183569
H326	H	1.249155	0.316512	0.316431
H327	H	0.935559	-0.188231	-0.984226
H328	H	1.435559	0.311769	-0.484226
N329	N	0.606093	-0.172225	-0.172326
N330	N	1.106093	0.327775	0.327674
H331	H	0.553952	-0.175257	-0.175339
H332	H	1.053952	0.324743	0.324661
H333	H	0.618919	-0.179511	-0.140559
H334	H	1.118919	0.320489	0.359441
N335	N	1.155643	-0.334529	-0.724630
N336	N	1.655643	0.165471	-0.224630
H337	H	1.184133	-0.353464	-0.703376
H338	H	1.684133	0.146536	-0.203376
H339	H	1.126974	-0.354581	-0.743346
H340	H	1.626974	0.145419	-0.243346
H341	H	1.098854	-0.988014	-0.296781
H342	H	1.598854	-0.488014	0.203219
H343	H	1.143724	-0.717656	-0.326651
H344	H	1.643724	-0.217656	0.173349
N345	N	1.110551	-0.507213	-0.304611
N346	N	1.610551	-0.007213	0.195389
H347	H	1.143192	-0.527512	-0.287215
H348	H	1.643192	-0.027512	0.212785
H349	H	1.081899	-0.525918	-0.324682
H350	H	1.581899	-0.025918	0.175318
N351	N	0.923699	-0.977490	-0.180343
N352	N	1.423699	-0.477490	0.319657
H353	H	0.895215	-0.998771	-0.161400
H354	H	1.395215	-0.498771	0.338600
H355	H	0.952356	-0.958758	-0.160301
H356	H	1.452356	-0.458758	0.339699
N357	N	0.878546	-0.619787	-0.150392
N358	N	1.378546	-0.119787	0.349608
H359	H	0.850054	-0.641066	-0.131450
H360	H	1.350054	-0.141066	0.368550
H361	H	0.907200	-0.601056	-0.130347
H362	H	1.407200	-0.101056	0.369653
N363	N	0.878623	-0.760549	-0.150407
N364	N	1.378623	-0.260549	0.349593
H365	H	0.850137	-0.781830	-0.131465
H366	H	1.350137	-0.281830	0.368535
H367	H	0.907284	-0.741820	-0.130364
H368	H	1.407284	-0.241820	0.369636
N369	N	1.110666	-0.304566	-1.080049
N370	N	1.610666	0.195434	-0.580049
H371	H	1.160960	-0.298885	-1.073186
H372	H	1.660960	0.201115	-0.573186
H373	H	1.099639	-0.336371	-1.071578
H374	H	1.599639	0.163629	-0.571578
N375	N	1.155645	-0.334502	-0.865377
N376	N	1.655645	0.165498	-0.365377
H377	H	1.184133	-0.353438	-0.844123
H378	H	1.684133	0.146562	-0.344123
H379	H	1.126972	-0.354553	-0.884091
H380	H	1.626972	0.145447	-0.384091
N381	N	1.155643	-0.334521	-0.767868
N382	N	1.655643	0.165479	-0.267868
H383	H	1.184134	-0.353447	-0.790586
H384	H	1.684134	0.146553	-0.290586
H385	H	1.188237	-0.317076	-0.749254
H386	H	1.688237	0.182924	-0.249254
