data_functionalizedCrystal
_audit_creation_method	'MofGen! by Chris Wilmer'
_symmetry_space_group_name_H-M	'P1'
_symmetry_Int_Tables_number	1
_symmetry_cell_setting	triclinic
loop_
_symmetry_equiv_pos_as_xyz
  x,y,z
_cell_length_a	13.339070
_cell_length_b	14.519709
_cell_length_c	11.804365
_cell_angle_alpha	101.851959
_cell_angle_beta	74.875130
_cell_angle_gamma	99.654719
loop_
_atom_site_label
_atom_site_type_symbol
_atom_site_fract_x
_atom_site_fract_y
_atom_site_fract_z
O1	O	1.363544	0.449147	-0.099080
O2	O	1.068905	0.388436	-0.099072
O3	O	1.224034	0.286542	-0.099066
O4	O	1.208414	0.551041	-0.099087
O5	O	1.183194	0.313329	0.098989
O6	O	1.028065	0.415223	0.098982
O7	O	1.322704	0.475934	0.098974
Cu8	Cu	1.171656	0.448024	0.117062
Cu9	Cu	1.219953	0.416345	-0.117160
O10	O	1.167575	0.577828	0.098968
C11	C	1.010777	0.391574	-0.000044
C12	C	0.898419	0.361005	-0.000040
C13	C	0.534064	0.598691	-0.000078
C14	C	0.639630	0.627415	-0.000085
C15	C	0.704332	0.560815	-0.000073
C16	C	0.663459	0.465486	-0.000055
C17	C	0.557884	0.436759	-0.000058
C18	C	0.728152	0.398882	-0.000053
C19	C	0.687279	0.303554	-0.000035
C20	C	0.581714	0.274831	-0.000037
C21	C	0.517012	0.341431	-0.000048
C22	C	0.833727	0.427610	-0.000051
C23	C	0.857547	0.265677	-0.000031
C24	C	0.751981	0.236954	-0.000024
C25	C	1.202886	0.265390	-0.000038
C26	C	1.200704	0.162454	-0.000038
C27	C	1.192677	-0.214489	-0.000068
C28	C	1.194906	-0.109613	-0.000059
C29	C	1.196690	-0.026021	-0.000052
C30	C	1.198920	0.078862	-0.000045
C31	C	1.380832	0.472796	-0.000057
C32	C	1.493192	0.503364	-0.000068
C33	C	1.188723	0.598979	-0.000062
C34	C	1.190907	0.701915	-0.000071
N35	N	1.137693	0.470307	0.281801
N36	N	1.253924	0.394058	-0.281899
C37	C	1.335480	0.340531	0.655758
C38	C	1.361172	0.323670	0.531097
C39	C	1.305304	0.360328	0.468767
C40	C	1.223741	0.413850	0.531110
C41	C	1.198052	0.430719	0.655783
C42	C	1.167876	0.450515	0.468792
C43	C	1.086313	0.504037	0.531135
C44	C	1.060628	0.520903	0.655795
C45	C	1.116496	0.484245	0.718126
C46	C	1.193565	0.433646	0.344119
C47	C	1.056137	0.523834	0.344144
C48	C	1.030445	0.540695	0.468805
H49	H	0.431050	0.318049	-0.000042
H50	H	1.427580	0.280094	0.480342
H51	H	1.326226	0.346597	0.367263
H52	H	0.910229	0.211445	-0.000026
H53	H	1.380966	0.310695	0.706515
C54	C	0.615862	0.117654	-0.000004
C55	C	0.536784	0.170046	-0.000021
H56	H	0.588122	0.052966	0.000013
H57	H	0.670783	0.122880	-0.069067
H58	H	0.642299	0.141578	0.069066
H59	H	0.510353	0.146126	-0.069096
H60	H	0.481845	0.164815	0.069048
C61	C	1.009995	0.659807	0.795983
C62	C	0.970980	0.579741	0.724326
H63	H	0.954649	0.696132	0.838283
H64	H	1.039584	0.640385	0.850934
H65	H	1.062199	0.697212	0.747321
H66	H	0.918781	0.542332	0.772990
H67	H	0.941375	0.599163	0.669369
C68	C	0.605472	0.784587	-0.000096
C69	C	0.684554	0.732195	-0.000093
H70	H	0.633207	0.849279	-0.000092
H71	H	0.579038	0.760677	-0.069158
H72	H	0.550545	0.779349	0.068975
H73	H	0.739477	0.737427	-0.069169
H74	H	0.711004	0.756113	0.068976
H75	H	1.095575	0.497970	0.819635
C76	C	1.260557	0.283963	0.305856
C77	C	1.283196	0.374783	0.275648
H78	H	1.315890	0.247612	0.263593
H79	H	1.253229	0.288800	0.389022
H80	H	1.197205	0.253879	0.285421
H81	H	1.346545	0.404870	0.296091
H82	H	1.290537	0.369949	0.192464
C83	C	0.863861	0.544365	0.609049
C84	C	0.940798	0.599530	0.537345
H85	H	0.808521	0.580691	0.651368
H86	H	0.837409	0.490058	0.560426
H87	H	0.893475	0.524948	0.663995
H88	H	0.911185	0.618942	0.482393
H89	H	0.967252	0.653855	0.585972
C90	C	1.004891	0.663128	0.305757
C91	C	0.994719	0.564134	0.275644
H92	H	0.966984	0.688006	0.263456
H93	H	0.977919	0.680827	0.388915
H94	H	1.076669	0.687688	0.285301
H95	H	0.922941	0.539574	0.296108
H96	H	1.021687	0.546427	0.192468
C97	C	0.842582	0.690124	-0.000078
C98	C	0.820370	0.592388	-0.000067
H99	H	0.914220	0.709618	-0.000062
H100	H	0.828555	0.704175	-0.069149
H101	H	0.800046	0.722862	0.068983
H102	H	0.862901	0.559649	-0.069133
H103	H	0.834408	0.578328	0.069011
C104	C	0.361654	0.626541	-0.000089
C105	C	0.462944	0.671890	-0.000090
H106	H	0.317747	0.671737	-0.000089
H107	H	0.363501	0.579233	-0.069147
H108	H	0.335014	0.597911	0.068985
H109	H	0.489586	0.700514	-0.069168
H110	H	0.461100	0.719215	0.068976
H111	H	0.866995	0.505227	-0.000061
H112	H	0.718688	0.159335	-0.000019
