data_functionalizedCrystal
_audit_creation_method	'MofGen! by Chris Wilmer'
_symmetry_space_group_name_H-M	'P1'
_symmetry_Int_Tables_number	1
_symmetry_cell_setting	triclinic
loop_
_symmetry_equiv_pos_as_xyz
  x,y,z
_cell_length_a	19.805406
_cell_length_b	18.215407
_cell_length_c	18.215399
_cell_angle_alpha	89.986109
_cell_angle_beta	90.020756
_cell_angle_gamma	90.001908
loop_
_atom_site_label
_atom_site_type_symbol
_atom_site_fract_x
_atom_site_fract_y
_atom_site_fract_z
Zn1	Zn	0.269500	1.125174	-0.416107
Zn2	Zn	0.382696	1.125141	-0.293062
Zn3	Zn	0.269521	1.002113	-0.293061
Zn4	Zn	0.382647	1.002125	-0.416093
O5	O	0.326091	1.063638	-0.354581
O6	O	0.284527	1.228154	-0.399791
O7	O	0.367712	1.108803	-0.190077
O8	O	0.174802	1.018446	-0.309389
O9	O	0.367691	1.228130	-0.309390
O10	O	0.174786	1.108859	-0.399791
O11	O	0.284563	1.018414	-0.190077
O12	O	0.284516	0.899130	-0.309375
O13	O	0.367609	1.018466	-0.519079
O14	O	0.367629	0.899139	-0.399766
O15	O	0.284480	1.108870	-0.519090
O16	O	0.477406	1.108814	-0.309376
O17	O	0.477370	1.018434	-0.399767
C18	C	0.326070	0.872432	-0.354569
C19	C	0.326078	0.790633	-0.354582
C20	C	0.149548	1.063655	-0.354592
C21	C	0.074316	1.063662	-0.354596
C22	C	0.369439	0.525599	-0.401583
C23	C	0.369433	0.602458	-0.401579
C24	C	0.282758	0.602419	-0.307592
C25	C	0.282768	0.525561	-0.307592
C26	C	0.326107	0.487154	-0.354592
C27	C	0.326092	0.640870	-0.354588
C28	C	0.326085	0.724203	-0.354584
C29	C	0.326115	0.403815	-0.354595
C30	C	0.038955	1.016609	-0.401657
C31	C	-0.031733	1.016618	-0.401662
C32	C	-0.067059	1.063677	-0.354603
C33	C	-0.031694	1.110735	-0.307540
C34	C	0.038993	1.110730	-0.307539
C35	C	-0.316767	1.110760	-0.307545
C36	C	-0.387459	1.110761	-0.307548
C37	C	-0.387493	1.016648	-0.401668
C38	C	-0.316806	1.016642	-0.401667
C39	C	-0.281447	1.063703	-0.354607
C40	C	-0.204798	1.063694	-0.354603
C41	C	-0.143707	1.063683	-0.354603
C42	C	0.501947	1.063641	-0.354586
C43	C	0.577179	1.063710	-0.354613
C44	C	0.326037	1.063673	-0.546534
C45	C	0.326014	1.063688	-0.628333
C46	C	0.326112	1.255591	-0.354593
C47	C	0.326121	1.337390	-0.354598
C48	C	0.282689	1.016662	-0.816527
C49	C	0.282675	1.016675	-0.893386
C50	C	0.369258	1.110801	-0.893376
C51	C	0.369274	1.110784	-0.816519
C52	C	0.325986	1.063716	-0.778096
C53	C	0.325956	1.063746	-0.931812
C54	C	0.325941	1.063760	-1.015146
C55	C	0.326001	1.063700	-0.694757
C56	C	0.326096	1.063646	-0.163375
C57	C	0.325928	1.063774	-0.081576
H58	H	0.404729	0.494330	-0.439853
N59	N	0.236027	0.484091	-0.256907
H60	H	0.242613	0.429574	-0.264037
H61	H	0.246506	0.497515	-0.204330
H62	H	0.247419	0.978359	-0.924673
N63	N	0.416173	0.643925	-0.452259
H64	H	0.443628	0.607929	-0.482030
H65	H	0.388656	0.675821	-0.486361
N66	N	0.236004	0.965889	-0.775093
H67	H	0.263515	0.931777	-0.743199
H68	H	0.204652	0.995840	-0.743253
N69	N	0.415948	1.161563	-0.934817
H70	H	0.409369	1.154435	-0.989338
H71	H	0.405424	1.214121	-0.921386
N72	N	0.236013	0.643844	-0.256903
H73	H	0.242580	0.698367	-0.264034
H74	H	0.187688	0.630402	-0.268439
H75	H	0.067713	0.978288	-0.439979
H76	H	-0.060523	0.978304	-0.439983
H77	H	0.404535	1.149102	-0.785227
H78	H	-0.416221	1.149085	-0.269225
H79	H	-0.416291	0.978330	-0.439989
N80	N	-0.278704	0.965880	-0.452418
H81	H	-0.311832	0.936072	-0.482232
H82	H	-0.249382	0.995839	-0.486476
N83	N	-0.069789	1.161492	-0.256777
H84	H	-0.057487	1.214075	-0.268211
H85	H	-0.119923	1.154294	-0.263937
N86	N	-0.278634	1.161513	-0.256787
H87	H	-0.311742	1.191321	-0.226974
H88	H	-0.249298	1.131548	-0.222727
N89	N	0.077136	1.161483	-0.256784
H90	H	0.044032	1.191295	-0.226971
H91	H	0.106475	1.131521	-0.222724
