data_functionalizedCrystal
_audit_creation_method	'MofGen! by Chris Wilmer'
_symmetry_space_group_name_H-M	'P1'
_symmetry_Int_Tables_number	1
_symmetry_cell_setting	triclinic
loop_
_symmetry_equiv_pos_as_xyz
  x,y,z
_cell_length_a	10.723024
_cell_length_b	9.730217
_cell_length_c	10.723024
_cell_angle_alpha	90.003937
_cell_angle_beta	84.467869
_cell_angle_gamma	90.003412
loop_
_atom_site_label
_atom_site_type_symbol
_atom_site_fract_x
_atom_site_fract_y
_atom_site_fract_z
O1	O	1.657187	0.114277	0.175028
O2	O	1.294035	0.114282	0.191781
O3	O	1.483987	0.114274	0.001829
O4	O	1.467234	0.114285	0.364981
O5	O	1.483974	-0.114306	0.001821
O6	O	1.294021	-0.114298	0.191774
O7	O	1.657173	-0.114303	0.175020
Zn8	Zn	1.475595	-0.150593	0.183396
Zn9	Zn	1.475613	0.150571	0.183406
O10	O	1.467221	-0.114295	0.364973
C11	C	1.247528	-0.000008	0.190558
C12	C	1.108974	-0.000006	0.186911
C13	C	0.917217	-0.000007	0.073603
C14	C	1.060420	-0.000009	0.077371
N15	N	1.475592	-0.356129	0.183388
C16	C	1.322949	-0.356188	0.030615
C17	C	1.246641	-0.428157	-0.045774
C18	C	1.246660	-0.572037	-0.045775
C19	C	1.322992	-0.643951	0.030626
C20	C	1.399300	-0.571982	0.107015
C21	C	1.399276	-0.428098	0.107004
C22	C	1.551934	-0.571923	0.259793
C23	C	1.551924	-0.428043	0.259788
C24	C	1.628266	-0.643837	0.336193
C25	C	1.704582	-0.571867	0.412577
C26	C	1.704561	-0.427979	0.412573
C27	C	1.628232	-0.356074	0.336177
C28	C	1.703680	-0.000010	0.176243
C29	C	1.842234	-0.000003	0.179891
C30	C	1.482762	-0.000014	-0.044675
C31	C	1.479114	-0.000009	-0.183229
N32	N	1.475626	0.356108	0.183404
C33	C	1.585401	-0.000009	-0.258212
C34	C	1.581634	-0.000004	-0.401415
C35	C	1.468447	-0.000004	0.411477
C36	C	1.472094	0.000000	0.550031
H37	H	1.322936	-0.239033	0.030598
Cl38	Cl	1.009509	0.000010	0.327406
H39	H	1.322988	-0.761105	0.030630
H40	H	1.124853	-0.000003	-0.013619
H41	H	0.884056	-0.000009	0.273677
Cl42	Cl	1.150723	-0.662517	-0.141801
Cl43	Cl	1.150681	-0.337745	-0.141810
Cl44	Cl	1.628280	-0.824715	0.336202
H45	H	1.766694	-0.369390	0.474786
H46	H	0.875395	-0.000030	-0.020182
Cl47	Cl	1.800520	-0.662279	0.508623
H48	H	1.628211	-0.238919	0.336163
H49	H	1.679187	-0.000018	-0.216390
H50	H	1.672624	-0.000009	-0.465848
H51	H	1.381099	-0.000010	-0.385544
H52	H	1.385328	0.000001	-0.225051
