data_functionalizedCrystal
_audit_creation_method	'MofGen! by Chris Wilmer'
_symmetry_space_group_name_H-M	'P1'
_symmetry_Int_Tables_number	1
_symmetry_cell_setting	triclinic
loop_
_symmetry_equiv_pos_as_xyz
  x,y,z
_cell_length_a	14.908979
_cell_length_b	16.625545
_cell_length_c	14.908308
_cell_angle_alpha	93.266177
_cell_angle_beta	96.371071
_cell_angle_gamma	93.327235
loop_
_atom_site_label
_atom_site_type_symbol
_atom_site_fract_x
_atom_site_fract_y
_atom_site_fract_z
Zn1	Zn	1.354213	-0.273365	-0.432038
Zn2	Zn	1.687547	0.059969	-0.098705
Zn3	Zn	2.020880	0.393302	0.234629
Zn4	Zn	1.362838	-0.399960	-0.280685
Zn5	Zn	1.696172	-0.066627	0.052648
Zn6	Zn	2.029505	0.266706	0.385982
Zn7	Zn	1.211587	-0.273403	-0.289417
Zn8	Zn	1.544920	0.059930	0.043916
Zn9	Zn	1.878253	0.393263	0.377250
Zn10	Zn	1.202807	-0.416422	-0.440717
Zn11	Zn	1.536141	-0.083089	-0.107384
Zn12	Zn	1.869474	0.250244	0.225950
O13	O	1.282861	-0.340788	-0.360714
O14	O	1.616195	-0.007454	-0.027381
O15	O	1.949528	0.325879	0.305952
O16	O	1.482021	-0.283252	-0.404674
O17	O	1.815354	0.050081	-0.071341
O18	O	2.148688	0.383414	0.261993
O19	O	1.350058	-0.376299	-0.155182
O20	O	1.683391	-0.042966	0.178151
O21	O	2.016725	0.290368	0.511484
O22	O	1.230571	-0.160564	-0.308358
O23	O	1.563904	0.172770	0.024975
O24	O	1.897238	0.506103	0.358308
O25	O	1.488357	-0.376261	-0.293476
O26	O	1.821691	-0.042928	0.039858
O27	O	2.155024	0.290405	0.373191
O28	O	1.335358	-0.160535	-0.413141
O29	O	1.668692	0.172798	-0.079808
O30	O	2.002025	0.506131	0.253526
O31	O	1.238934	-0.283318	-0.161598
O32	O	1.572268	0.050015	0.171736
O33	O	1.905601	0.383349	0.505069
O34	O	1.083759	-0.299281	-0.316774
O35	O	1.417092	0.034052	0.016559
O36	O	1.750425	0.367386	0.349893
O37	O	1.215608	-0.404319	-0.566227
O38	O	1.548941	-0.070986	-0.232893
O39	O	1.882275	0.262348	0.100440
O40	O	1.077309	-0.404356	-0.427933
O41	O	1.410642	-0.071023	-0.094600
O42	O	1.743975	0.262310	0.238733
O43	O	1.326845	-0.299215	-0.559850
O44	O	1.660179	0.034118	-0.226517
O45	O	1.993512	0.367452	0.106816
O46	O	1.341545	-0.514979	-0.301892
O47	O	1.674878	-0.181645	0.031442
O48	O	2.008212	0.151688	0.364775
O49	O	1.223971	-0.527073	-0.419466
O50	O	1.557304	-0.193740	-0.086133
O51	O	1.890638	0.139593	0.247200
C52	C	1.047691	-0.353610	-0.374243
C53	C	1.381025	-0.020276	-0.040910
C54	C	1.714358	0.313057	0.292423
C55	C	0.947083	-0.359116	-0.380053
C56	C	1.280416	-0.025782	-0.046719
C57	C	1.613750	0.307551	0.286614
C58	C	0.801952	-0.421656	-0.446011
C59	C	1.135286	-0.088322	-0.112678
C60	C	1.468619	0.245011	0.220655
C61	C	0.896482	-0.416483	-0.440561
C62	C	1.229815	-0.083150	-0.107227
C63	C	1.563149	0.250183	0.226106
C64	C	0.903148	-0.306918	-0.324989
C65	C	1.236481	0.026415	0.008344
C66	C	1.569815	0.359748	0.341677
C67	C	0.808618	-0.312091	-0.330440
C68	C	1.141952	0.021243	0.002893
C69	C	1.475285	0.354576	0.336227
C70	C	0.758023	-0.369461	-0.390954
C71	C	1.091357	-0.036127	-0.057621
C72	C	1.424690	0.297206	0.275713
C73	C	0.663492	-0.374629	-0.396408
C74	C	0.996825	-0.041295	-0.063075
C75	C	1.330158	0.292038	0.270258
C76	C	0.670160	-0.265068	-0.280833
C77	C	1.003493	0.068265	0.052500
C78	C	1.336826	0.401599	0.385833
C79	C	0.764690	-0.259895	-0.275383
C80	C	1.098023	0.073438	0.057951
C81	C	1.431356	0.406771	0.391284
C82	C	1.282765	-0.550282	-0.360691
C83	C	1.616098	-0.216949	-0.027358
C84	C	1.949431	0.116384	0.305975
C85	C	1.282804	-0.639902	-0.360707
C86	C	1.616138	-0.306569	-0.027374
C87	C	1.949471	0.026764	0.305960
C88	C	1.282839	-0.712684	-0.360723
C89	C	1.616172	-0.379350	-0.027390
C90	C	1.949505	-0.046017	0.305944
C91	C	1.282890	-0.803990	-0.360740
C92	C	1.616223	-0.470657	-0.027407
C93	C	1.949557	-0.137324	0.305927
C94	C	1.282936	-0.876765	-0.360749
C95	C	1.616270	-0.543432	-0.027416
C96	C	1.949603	-0.210098	0.305918
C97	C	1.282987	-0.968077	-0.360764
C98	C	1.616320	-0.634744	-0.027431
C99	C	1.949654	-0.301411	0.305902
C100	C	1.518950	-0.327916	-0.347133
C101	C	1.852283	0.005417	-0.013799
C102	C	2.185617	0.338750	0.319534
C103	C	1.619557	-0.322431	-0.341345
C104	C	1.952890	0.010902	-0.008012
C105	C	2.286223	0.344235	0.325322
C106	C	1.269285	-0.353599	-0.596799
C107	C	1.602619	-0.020266	-0.263465
C108	C	1.935952	0.313068	0.069868
C109	C	1.263500	-0.359058	-0.697404
C110	C	1.596833	-0.025725	-0.364070
C111	C	1.930167	0.307608	-0.030737
C112	C	1.282982	-0.130475	-0.360756
C113	C	1.616315	0.202859	-0.027422
C114	C	1.949649	0.536192	0.305911
C115	C	1.283033	-0.040852	-0.360773
C116	C	1.616367	0.292481	-0.027440
C117	C	1.949700	0.625815	0.305893
C118	C	1.368458	-0.259854	-0.879813
C119	C	1.701791	0.073480	-0.546480
C120	C	2.035124	0.406813	-0.213147
C121	C	1.363025	-0.264980	-0.974341
C122	C	1.696358	0.068353	-0.641007
C123	C	2.029691	0.401686	-0.307674
C124	C	1.247197	-0.374434	-0.980987
C125	C	1.580530	-0.041100	-0.647654
C126	C	1.913864	0.292233	-0.314321
C127	C	1.252630	-0.369307	-0.886460
C128	C	1.585963	-0.035974	-0.553127
C129	C	1.919297	0.297359	-0.219793
C130	C	1.313263	-0.312016	-0.835876
C131	C	1.646597	0.021317	-0.502543
C132	C	1.979930	0.354651	-0.169210
C133	C	1.318700	-0.306894	-0.741347
C134	C	1.652034	0.026440	-0.408014
C135	C	1.985367	0.359773	-0.074680
C136	C	1.202869	-0.416343	-0.747996
C137	C	1.536202	-0.083010	-0.414662
C138	C	1.869535	0.250324	-0.081329
C139	C	1.197436	-0.421469	-0.842523
C140	C	1.530769	-0.088136	-0.509190
C141	C	1.864102	0.245197	-0.175856
C142	C	1.296437	-0.327965	-0.125545
C143	C	1.629770	0.005368	0.207788
C144	C	1.963103	0.338701	0.541121
C145	C	1.302397	-0.322269	-0.024931
C146	C	1.635731	0.011064	0.308403
C147	C	1.969064	0.344397	0.641736
H148	H	0.805897	-0.213189	-0.226112
H149	H	1.139230	0.120145	0.107222
H150	H	1.472563	0.453478	0.440555
F151	F	1.144131	-0.471868	-0.701228
F152	F	1.477464	-0.138535	-0.367895
F153	F	1.810798	0.194799	-0.034561
H154	H	0.760757	-0.468362	-0.495292
H155	H	1.094090	-0.135029	-0.161958
H156	H	1.427423	0.198305	0.171375
F157	F	1.383233	-0.245923	-0.687513
F158	F	1.716567	0.087411	-0.354180
F159	F	2.049900	0.420744	-0.020846
F160	F	0.623401	-0.209512	-0.222236
F161	F	0.956734	0.123821	0.111097
F162	F	1.290068	0.457155	0.444430
F163	F	0.943231	-0.472038	-0.499158
F164	F	1.276564	-0.138705	-0.165825
F165	F	1.609898	0.194628	0.167508
F166	F	1.432996	-0.198889	-0.825976
F167	F	1.766329	0.134445	-0.492642
F168	F	2.099662	0.467778	-0.159309
H169	H	1.197832	-0.421077	-1.022189
H170	H	1.531166	-0.087744	-0.688856
H171	H	1.864499	0.245590	-0.355522
H172	H	1.407967	-0.222502	-1.010110
H173	H	1.741301	0.110831	-0.676777
H174	H	2.074634	0.444164	-0.343444
H175	H	1.148068	-0.468113	-0.883721
H176	H	1.481402	-0.134779	-0.550388
H177	H	1.814735	0.198554	-0.217055
H178	H	0.622298	-0.421339	-0.445685
H179	H	0.955632	-0.088006	-0.112352
H180	H	1.288965	0.245327	0.220981
H181	H	0.944359	-0.260216	-0.275715
H182	H	1.277692	0.073117	0.057618
H183	H	1.611026	0.406450	0.390951
