data_functionalizedCrystal
_audit_creation_method	'MofGen! by Chris Wilmer'
_symmetry_space_group_name_H-M	'P1'
_symmetry_Int_Tables_number	1
_symmetry_cell_setting	triclinic
loop_
_symmetry_equiv_pos_as_xyz
  x,y,z
_cell_length_a	15.944499
_cell_length_b	12.837942
_cell_length_c	11.892095
_cell_angle_alpha	85.697431
_cell_angle_beta	86.098900
_cell_angle_gamma	90.846725
loop_
_atom_site_label
_atom_site_type_symbol
_atom_site_fract_x
_atom_site_fract_y
_atom_site_fract_z
O1	O	1.130070	-0.126806	-0.094072
O2	O	0.886836	-0.143345	-0.094059
O3	O	1.003059	0.015826	-0.094058
O4	O	1.013847	-0.285977	-0.094072
O5	O	0.993367	0.002575	0.093949
O6	O	0.877144	-0.156596	0.093948
O7	O	1.120378	-0.140057	0.093936
Zn8	Zn	0.997222	-0.150430	0.123792
Zn9	Zn	1.009992	-0.132972	-0.123915
O10	O	1.004155	-0.299228	0.093935
C11	C	0.850641	-0.149294	-0.000054
C12	C	0.757230	-0.147264	-0.000049
C13	C	0.473093	-0.239737	-0.000070
C14	C	0.535056	-0.185133	-0.092767
C15	C	0.421005	-0.139887	-0.000074
C16	C	0.525484	-0.198171	0.092593
C17	C	0.586204	-0.143517	-0.000060
C18	C	0.481741	-0.085250	-0.092848
C19	C	0.472160	-0.098308	0.092596
C20	C	0.534100	-0.043629	-0.000124
C21	C	0.325839	-0.137799	-0.000084
C22	C	0.681369	-0.145597	-0.000059
C23	C	0.994569	0.047820	-0.000055
C24	C	0.983701	0.162896	-0.000056
C25	C	1.156573	-0.134108	-0.000072
C26	C	1.249984	-0.136137	-0.000084
C27	C	1.012645	-0.331222	-0.000071
C28	C	1.023513	-0.446297	-0.000077
N29	N	0.988513	-0.162345	0.292846
C30	C	1.114356	0.403877	-0.000086
C31	C	1.104149	0.512002	-0.000088
C32	C	0.953080	0.487271	-0.000068
C33	C	0.963288	0.379147	-0.000067
C34	C	1.043928	0.337454	-0.000074
C35	C	1.054134	0.229327	-0.000065
C36	C	0.903067	0.204600	-0.000053
C37	C	0.892859	0.312724	-0.000055
N38	N	1.018707	-0.121049	-0.292969
C39	C	1.079303	-0.038083	0.529495
C40	C	1.073222	-0.046419	0.647837
C41	C	0.970267	-0.187346	0.647874
C42	C	0.976348	-0.179011	0.529532
C43	C	1.030868	-0.104378	0.470347
C44	C	1.036953	-0.096048	0.352003
C45	C	0.933994	-0.236969	0.352042
C46	C	0.927913	-0.245305	0.470384
H47	H	0.444627	-0.061634	0.170970
O48	O	0.567779	-0.229063	-0.186231
C49	C	0.502025	-0.258765	-0.251382
H50	H	0.441291	-0.269860	-0.195092
H51	H	0.493433	-0.195249	-0.321710
C52	C	0.598441	-0.348394	-0.372724
C53	C	0.523848	-0.362029	-0.303585
H54	H	0.611903	-0.412089	-0.404930
H55	H	0.642742	-0.328380	-0.328834
H56	H	0.591272	-0.295461	-0.431322
H57	H	0.531021	-0.414952	-0.244981
H58	H	0.479548	-0.382054	-0.347467
H59	H	1.180016	0.369930	-0.000081
H60	H	1.161499	0.566081	-0.000101
O61	O	0.565888	0.055277	-0.000328
C62	C	0.621047	0.077300	-0.097256
H63	H	0.645313	0.001029	-0.129178
H64	H	0.586131	0.121343	-0.165993
C65	C	0.665883	0.238570	-0.027955
C66	C	0.695692	0.144893	-0.067157
H67	H	0.711926	0.280269	-0.009391
H68	H	0.628719	0.223736	0.037346
H69	H	0.636786	0.275260	-0.085243
H70	H	0.724779	0.108199	-0.009865
H71	H	0.732863	0.159723	-0.132448
O72	O	0.834612	0.140102	0.000158
C73	C	0.781143	0.152167	0.097520
H74	H	0.819027	0.184338	0.165567
H75	H	0.729253	0.208766	0.075509
C76	C	0.695125	0.005919	0.058111
C77	C	0.741656	0.045424	0.141691
H78	H	0.670764	-0.059924	0.085356
H79	H	0.731146	-0.002208	-0.007486
H80	H	0.651890	0.053094	0.039776
H81	H	0.784896	-0.001745	0.160014
H82	H	0.705641	0.053540	0.207292
H83	H	1.081348	-0.035280	0.303815
H84	H	0.544899	-0.245943	0.170959
H85	H	0.887427	0.521238	-0.000074
H86	H	0.827204	0.346686	-0.000053
O87	O	1.120186	0.017925	0.705469
C88	C	1.103147	-0.005450	0.822613
H89	H	1.038635	-0.045301	0.838801
H90	H	1.153129	-0.059830	0.856176
C91	C	1.183398	0.145251	0.863488
C92	C	1.104160	0.096313	0.883370
H93	H	1.184026	0.208022	0.900967
H94	H	1.194880	0.160999	0.784566
H95	H	1.225040	0.099924	0.891457
H96	H	1.062520	0.141635	0.855388
H97	H	1.092670	0.080576	0.962289
O98	O	0.458568	-0.028388	-0.186414
C99	C	0.370109	-0.027140	-0.185302
H100	H	0.342386	-0.097549	-0.130364
H101	H	0.346339	0.047742	-0.149466
C102	C	0.377093	0.054656	-0.374185
C103	C	0.343042	-0.031826	-0.306716
H104	H	0.360395	0.051771	-0.449079
H105	H	0.436689	0.053819	-0.374934
H106	H	0.357281	0.117049	-0.344309
H107	H	0.362862	-0.094217	-0.336585
H108	H	0.283448	-0.031000	-0.305976
H109	H	1.123701	0.022679	0.481305
O110	O	1.132438	0.188761	0.000124
C111	C	1.137848	0.120081	0.097479
H112	H	1.088407	0.140853	0.165546
H113	H	1.126427	0.036364	0.075470
C114	C	1.286700	0.104577	0.058008
C115	C	1.225979	0.130095	0.141612
H116	H	1.341063	0.110749	0.085229
H117	H	1.283055	0.150845	-0.007585
H118	H	1.277171	0.034814	0.039674
H119	H	1.235501	0.199861	0.159934
H120	H	1.229628	0.083839	0.207209
O121	O	0.917377	-0.259809	0.705552
C122	C	0.922380	-0.252923	0.822686
H123	H	0.985232	-0.215348	0.838821
H124	H	0.868949	-0.203269	0.856281
C125	C	0.837923	-0.409383	0.863641
C126	C	0.915122	-0.363241	0.883460
H127	H	0.833443	-0.477431	0.901132
H128	H	0.834550	-0.414021	0.784726
H129	H	0.793406	-0.367994	0.891637
H130	H	0.959638	-0.404622	0.855451
H131	H	0.918503	-0.358612	0.962372
H132	H	0.883521	-0.306067	0.518586
H133	H	0.446397	-0.322596	-0.000164
O134	O	0.886979	-0.301267	0.294410
C135	C	0.904056	-0.277934	0.177266
H136	H	0.929676	-0.194391	0.161088
H137	H	0.952617	-0.334257	0.143678
C138	C	0.791037	-0.391823	0.136400
C139	C	0.822497	-0.289211	0.116529
H140	H	0.740729	-0.398784	0.098932
H141	H	0.779533	-0.407547	0.215321
H142	H	0.831512	-0.438747	0.108410
H143	H	0.782026	-0.242290	0.144531
H144	H	0.833992	-0.273480	0.037610
