data_functionalizedCrystal
_audit_creation_method	'MofGen! by Chris Wilmer'
_symmetry_space_group_name_H-M	'P1'
_symmetry_Int_Tables_number	1
_symmetry_cell_setting	triclinic
loop_
_symmetry_equiv_pos_as_xyz
  x,y,z
_cell_length_a	6.817900
_cell_length_b	16.306198
_cell_length_c	16.255661
_cell_angle_alpha	95.358115
_cell_angle_beta	103.488922
_cell_angle_gamma	103.467075
loop_
_atom_site_label
_atom_site_type_symbol
_atom_site_fract_x
_atom_site_fract_y
_atom_site_fract_z
V1	V	-4.026607	-0.117401	-0.264172
O2	O	-4.014195	0.004940	-0.258835
O3	O	-3.978057	-0.232112	-0.262662
O4	O	-3.978170	-0.115903	-0.379252
O5	O	-4.014080	-0.112073	-0.141438
V6	V	-4.510259	-0.102731	-0.249456
O7	O	-4.287582	-0.149580	-0.296453
O8	O	-4.699482	-0.070552	-0.217176
O9	O	-4.335603	0.011980	-0.250967
O10	O	-4.640069	-0.225073	-0.254793
O11	O	-4.640183	-0.108059	-0.372190
O12	O	-4.335490	-0.104229	-0.134377
C13	C	-3.823022	-0.260067	-0.258571
C14	C	-3.864613	-0.353846	-0.258103
C15	C	-4.015564	-0.694593	-0.256392
C16	C	-4.219655	-0.664059	-0.261369
C17	C	-4.176720	-0.566570	-0.262183
C18	C	-3.940676	-0.525545	-0.257240
C19	C	-3.889203	-0.571192	-0.335744
C20	C	-3.933898	-0.668809	-0.335355
C21	C	-3.845531	-0.643261	-0.173498
C22	C	-3.805855	-0.545609	-0.173011
C23	C	-3.898343	-0.430006	-0.257722
C24	C	-4.057894	-0.790133	-0.255915
C25	C	-3.823166	-0.111829	-0.407292
C26	C	-3.864846	-0.111363	-0.501372
C27	C	-3.775408	-0.105798	-0.724176
C28	C	-3.931760	-0.177626	-0.793836
C29	C	-3.941232	-0.110490	-0.673618
C30	C	-3.859171	-0.037839	-0.771593
C31	C	-4.015000	-0.109642	-0.839999
C32	C	-4.097065	-0.182382	-0.742049
C33	C	-4.024415	-0.042532	-0.719789
C34	C	-4.180903	-0.114380	-0.789430
C35	C	-3.898730	-0.110979	-0.577770
C36	C	-4.057519	-0.109159	-0.935847
C37	C	-4.153980	0.039930	-0.255055
C38	C	-4.091627	0.133709	-0.255529
C39	C	-4.153836	-0.108306	-0.106332
C40	C	-4.091394	-0.108768	-0.012251
H41	H	-4.221672	-0.535466	-0.206076
H42	H	-4.197227	-0.243535	-0.728739
C43	C	-3.912280	-0.665622	-0.092373
C44	C	-3.769278	-0.622815	-0.003263
C45	C	-3.836055	-0.645179	0.077855
C46	C	-4.045833	-0.710349	0.069864
C47	C	-4.188849	-0.753159	-0.019249
C48	C	-4.122072	-0.730796	-0.100368
H49	H	-3.613975	-0.574569	0.002655
H50	H	-3.730184	-0.613487	0.143823
H51	H	-4.095265	-0.726904	0.129913
H52	H	-4.344151	-0.801406	-0.025168
H53	H	-4.227943	-0.762487	-0.166335
H54	H	-3.844125	-0.514865	-0.114892
C55	C	-3.879462	-0.254781	-0.837395
C56	C	-3.993133	-0.346090	-0.829996
C57	C	-3.940821	-0.423240	-0.873552
C58	C	-3.774838	-0.409082	-0.924508
C59	C	-3.661156	-0.317769	-0.931910
C60	C	-3.713469	-0.240619	-0.888353
H61	H	-4.116014	-0.356574	-0.792273
H62	H	-4.024977	-0.490836	-0.868073
H63	H	-3.736113	-0.466193	-0.956751
H64	H	-3.538276	-0.307285	-0.969632
H65	H	-3.629313	-0.173023	-0.893833
H66	H	-4.352772	-0.118028	-0.817786
C67	C	-3.570817	-0.506491	-0.161491
C68	C	-3.496862	-0.455419	-0.228668
C69	C	-3.261819	-0.416299	-0.217154
C70	C	-3.100730	-0.428252	-0.138462
C71	C	-3.174681	-0.479327	-0.071280
C72	C	-3.409724	-0.518447	-0.082794
H73	H	-3.616113	-0.446569	-0.286925
H74	H	-3.207076	-0.378490	-0.266887
H75	H	-2.926737	-0.399293	-0.129938
H76	H	-3.055431	-0.488177	-0.013023
H77	H	-3.464467	-0.556256	-0.033061
H78	H	-4.346515	-0.699760	-0.321169
H79	H	-4.063060	0.014587	-0.687534
C80	C	-4.095010	-0.715002	-0.419659
C81	C	-4.306310	-0.773335	-0.417605
C82	C	-4.467429	-0.819524	-0.501910
C83	C	-4.417247	-0.807380	-0.588269
C84	C	-4.205936	-0.749044	-0.590326
C85	C	-4.044818	-0.702856	-0.506021
H86	H	-4.343467	-0.782328	-0.353675
H87	H	-4.623855	-0.862708	-0.500387
H88	H	-4.536516	-0.841572	-0.650676
H89	H	-4.168780	-0.740052	-0.654256
H90	H	-3.888392	-0.659672	-0.507544
H91	H	-3.603657	-0.102262	-0.695687
H92	H	-3.758991	0.023231	-0.785046
H93	H	-4.282904	-0.554483	-0.322634
C94	C	-4.309609	-0.686042	-0.185224
C95	C	-4.531787	-0.744708	-0.201351
C96	C	-4.621738	-0.766669	-0.125195
C97	C	-4.489511	-0.729965	-0.032912
C98	C	-4.267320	-0.671296	-0.016781
C99	C	-4.177368	-0.649334	-0.092937
H100	H	-4.629681	-0.771882	-0.269668
H101	H	-4.786219	-0.810100	-0.137136
H102	H	-4.556098	-0.746222	0.023463
H103	H	-4.169425	-0.644122	0.051536
H104	H	-4.012887	-0.605903	-0.080996
C105	C	-4.019469	-0.553515	-0.419957
C106	C	-3.997176	-0.461136	-0.437770
C107	C	-4.127455	-0.443461	-0.521981
C108	C	-4.280029	-0.518166	-0.588379
C109	C	-4.302329	-0.610551	-0.570568
C110	C	-4.172050	-0.628225	-0.486357
H111	H	-3.884226	-0.405830	-0.388617
H112	H	-4.110946	-0.375071	-0.535166
H113	H	-4.376470	-0.505082	-0.650717
H114	H	-4.415279	-0.665857	-0.619721
H115	H	-4.188559	-0.696615	-0.473172
H116	H	-3.784821	-0.689184	-0.335189
H117	H	-3.693350	-0.662418	-0.169065
H118	H	-3.718604	-0.544638	-0.335114
