data_functionalizedCrystal
_audit_creation_method	'MofGen! by Chris Wilmer'
_symmetry_space_group_name_H-M	'P1'
_symmetry_Int_Tables_number	1
_symmetry_cell_setting	triclinic
loop_
_symmetry_equiv_pos_as_xyz
  x,y,z
_cell_length_a	12.477989
_cell_length_b	21.606444
_cell_length_c	21.606444
_cell_angle_alpha	60.000398
_cell_angle_beta	89.999165
_cell_angle_gamma	64.368266
loop_
_atom_site_label
_atom_site_type_symbol
_atom_site_fract_x
_atom_site_fract_y
_atom_site_fract_z
Zr1	Zr	0.973030	0.750831	-0.117888
O2	O	0.811749	0.867788	-0.210628
O3	O	1.022473	0.625440	-0.089461
O4	O	1.022472	0.754562	-0.218578
O5	O	0.811749	0.738664	0.020342
O6	O	1.188692	0.767097	-0.224845
O7	O	0.811750	0.738667	-0.081511
O8	O	1.188694	0.536123	0.006122
O9	O	0.811747	0.969639	-0.210625
O10	O	1.167606	0.689493	-0.082010
O11	O	1.043557	0.680136	-0.001321
O12	O	1.043556	0.832160	-0.153340
O13	O	0.919507	0.822803	-0.072651
Zr14	Zr	1.238131	0.770819	0.034561
Zr15	Zr	1.238132	0.770823	-0.127883
Zr16	Zr	0.973029	0.750827	0.044556
Zr17	Zr	0.973027	0.913271	-0.117882
Zr18	Zr	1.238133	0.608379	0.034556
O19	O	1.188688	0.896210	0.006134
O20	O	1.188690	0.896215	-0.224841
O21	O	0.811747	0.867783	0.020346
O22	O	1.399412	0.653862	0.127302
O23	O	1.399414	0.653867	-0.103673
O24	O	1.022471	0.625435	0.141514
O25	O	1.399412	0.782986	-0.103669
O26	O	1.188689	0.767088	0.135251
O27	O	1.022468	0.754553	0.141518
O28	O	1.399411	0.782983	-0.001815
O29	O	1.022468	0.985531	-0.218570
O30	O	1.188693	0.536119	0.135243
O31	O	1.399413	0.552011	0.127298
O32	O	1.399415	0.552014	-0.001823
O33	O	0.811746	0.969636	-0.081504
O34	O	1.022467	0.985527	-0.089449
O35	O	1.167605	0.689490	0.070013
O36	O	1.291654	0.698847	-0.010676
O37	O	1.167604	0.841514	-0.082005
O38	O	1.043555	0.832157	-0.001316
C39	C	1.105584	0.557637	-0.041670
C40	C	1.105585	0.488677	-0.041672
C41	C	1.170335	0.461164	-0.083792
C42	C	1.170339	0.396364	-0.083787
C43	C	1.105586	0.359083	-0.041666
C44	C	1.040834	0.386599	0.000459
C45	C	1.040838	0.451394	0.000457
C46	C	1.040820	0.125289	0.000466
C47	C	1.040818	0.060491	0.000462
C48	C	1.170321	0.070259	-0.083779
C49	C	1.170324	0.135054	-0.083780
C50	C	1.105579	0.162561	-0.041653
C51	C	1.105577	0.232823	-0.041658
C52	C	1.105580	0.288826	-0.041665
C53	C	0.773978	0.735817	-0.029160
C54	C	0.661436	0.727330	-0.024917
C55	C	1.437182	0.785833	-0.054166
C56	C	1.549725	0.794320	-0.058410
C57	C	1.105582	0.760830	-0.244856
C58	C	1.105583	0.760832	-0.313818
C59	C	1.105577	0.964013	-0.041657
C60	C	1.105576	1.032973	-0.041654
C61	C	1.197155	0.767739	-0.349669
C62	C	1.197159	0.767733	-0.414462
C63	C	1.105584	0.760826	-0.443406
C64	C	1.014008	0.753915	-0.407549
C65	C	1.014010	0.753915	-0.342754
C66	C	1.013997	0.753914	-0.668859
C67	C	1.014000	0.753917	-0.733660
C68	C	1.197146	0.767732	-0.740567
C69	C	1.197148	0.767732	-0.675772
C70	C	1.105576	0.760817	-0.639918
C71	C	1.105574	0.760822	-0.569661
C72	C	1.105580	0.760827	-0.513664
C73	C	1.105578	0.760820	0.161529
C74	C	1.105578	0.760818	0.230491
C75	C	1.437186	0.582645	-0.054173
C76	C	1.549730	0.522172	-0.058419
C77	C	1.105582	0.557632	0.161523
C78	C	1.105582	0.488670	0.230482
C79	C	1.437184	0.582640	0.149020
C80	C	1.549727	0.522166	0.213736
C81	C	0.773977	0.939010	-0.232346
C82	C	0.661434	0.999484	-0.297063
C83	C	0.773975	0.939005	-0.029154
C84	C	0.661431	0.999478	-0.024908
C85	C	1.105579	0.964018	-0.244849
C86	C	1.105578	1.032980	-0.313809
C87	C	1.537830	0.488892	-0.097655
C88	C	1.643567	0.432079	-0.101659
C89	C	1.761202	0.408545	-0.066422
C90	C	1.773100	0.441832	-0.027184
C91	C	1.667364	0.498647	-0.023185
C92	C	1.170334	0.461168	0.300109
C93	C	1.170330	0.396379	0.364910
C94	C	1.105580	0.359091	0.360083
C95	C	1.040821	0.386600	0.290448
C96	C	1.040818	0.451391	0.225649
C97	C	1.667342	0.498651	0.202008
C98	C	1.773099	0.441839	0.262809
C99	C	1.761237	0.408538	0.335337
C100	C	1.643610	0.432057	0.347064
C101	C	1.537856	0.488873	0.286264
C102	C	0.543819	1.023006	-0.285335
C103	C	0.438062	1.079839	-0.346136
C104	C	0.449923	1.113144	-0.418664
C105	C	0.567551	1.089620	-0.430391
C106	C	0.673304	1.032793	-0.369591
C107	C	0.673331	1.032765	0.014322
C108	C	0.567594	1.089595	0.018308
C109	C	0.449958	1.113132	-0.016932
C110	C	0.438061	1.079842	-0.056167
C111	C	0.543797	1.023018	-0.060157
C112	C	1.170340	1.070248	-0.308957
C113	C	1.170364	1.135038	-0.373747
C114	C	1.105618	1.162562	-0.443387
C115	C	1.040854	1.125287	-0.448237
C116	C	1.040838	1.060495	-0.383448
H117	H	0.988086	0.030138	0.034765
Cl118	Cl	0.959416	0.485953	0.138121
H119	H	1.677070	0.525738	0.008770
H120	H	1.223069	0.373990	0.421603
Cl121	Cl	0.582579	1.131431	0.067638
Cl122	Cl	0.317044	1.184569	-0.011907
H123	H	0.342268	1.099015	-0.084857
H124	H	1.677023	0.525758	0.142957
H125	H	1.223101	1.165381	-0.369783
H126	H	0.534090	0.995915	-0.092100
H127	H	1.868866	0.422696	0.253248
Cl128	Cl	1.105598	0.277638	0.441553
Cl129	Cl	1.251722	0.035671	-0.136737
H130	H	0.540184	0.858167	-0.090335
H131	H	1.271720	0.773369	-0.326110
H132	H	0.988103	0.356231	0.286529
H133	H	0.988105	0.147674	0.034771
Cl134	Cl	1.312280	0.776416	-0.459532
H135	H	0.988118	0.356236	0.034758
Cl136	Cl	0.959438	0.485980	0.053412
Cl137	Cl	1.251748	1.035659	-0.221418
H138	H	1.105640	1.215322	-0.496136
Cl139	Cl	0.821159	1.003223	-0.384347
H140	H	1.223058	0.491518	-0.118096
Cl141	Cl	0.676173	0.628747	0.024368
Cl142	Cl	1.312270	0.776420	-0.639389
Cl143	Cl	1.312272	0.776420	-0.785641
H144	H	0.988139	1.147708	-0.504946
H145	H	1.223061	0.491521	0.304054
H146	H	0.939426	0.748290	-0.757224
H147	H	1.847359	0.362275	0.384839
Cl148	Cl	1.628582	0.390240	-0.150986
H149	H	0.988096	1.030157	-0.387409
H150	H	1.223064	0.373963	-0.118084
H151	H	1.442055	0.508053	-0.126360
Cl152	Cl	0.898889	0.745227	-0.297682
Cl153	Cl	1.390002	0.518421	0.301021
Cl154	Cl	1.251725	0.181921	-0.136738
Cl155	Cl	1.894117	0.337115	-0.071455
H156	H	0.939434	0.748286	-0.639673
H157	H	1.868892	0.422661	0.001504
H158	H	0.939450	0.748286	-0.431116
H159	H	1.633971	0.404935	0.406125
H160	H	0.534137	0.995891	-0.226283
Cl161	Cl	0.316962	1.184582	-0.495092
Cl162	Cl	0.582441	1.131493	-0.521575
Cl163	Cl	0.821202	1.003193	0.058626
H164	H	0.342295	1.098981	-0.336573
