data_functionalizedCrystal
_audit_creation_method	'MofGen! by Chris Wilmer'
_symmetry_space_group_name_H-M	'P1'
_symmetry_Int_Tables_number	1
_symmetry_cell_setting	triclinic
loop_
_symmetry_equiv_pos_as_xyz
  x,y,z
_cell_length_a	16.625546
_cell_length_b	17.077404
_cell_length_c	17.077404
_cell_angle_alpha	89.992822
_cell_angle_beta	90.015228
_cell_angle_gamma	89.984053
loop_
_atom_site_label
_atom_site_type_symbol
_atom_site_fract_x
_atom_site_fract_y
_atom_site_fract_z
Zn1	Zn	-0.321261	-1.199950	0.443863
Zn2	Zn	0.012072	-0.866617	0.777196
Zn3	Zn	0.345405	-0.533284	1.110530
Zn4	Zn	-0.456069	-1.199890	0.312593
Zn5	Zn	-0.122735	-0.866556	0.645927
Zn6	Zn	0.210598	-0.533223	0.979260
Zn7	Zn	-0.321238	-1.068714	0.312608
Zn8	Zn	0.012095	-0.735380	0.645941
Zn9	Zn	0.345428	-0.402047	0.979275
Zn10	Zn	-0.456040	-1.068651	0.443813
Zn11	Zn	-0.122707	-0.735318	0.777147
Zn12	Zn	0.210627	-0.401984	1.110480
O13	O	-0.388652	-1.134301	0.378219
O14	O	-0.055319	-0.800968	0.711553
O15	O	0.278015	-0.467634	1.044886
O16	O	-0.339165	-1.309789	0.426465
O17	O	-0.005832	-0.976456	0.759798
O18	O	0.327502	-0.643122	1.093131
O19	O	-0.438185	-1.182490	0.202748
O20	O	-0.104852	-0.849157	0.536082
O21	O	0.228481	-0.515823	0.869415
O22	O	-0.208409	-1.086174	0.330046
O23	O	0.124924	-0.752841	0.663379
O24	O	0.458258	-0.419507	0.996713
O25	O	-0.438208	-1.309745	0.330021
O26	O	-0.104874	-0.976411	0.663354
O27	O	0.228459	-0.643078	0.996688
O28	O	-0.208426	-1.182593	0.426479
O29	O	0.124908	-0.849260	0.759812
O30	O	0.458241	-0.515926	1.093145
O31	O	-0.339126	-1.086115	0.202759
O32	O	-0.005793	-0.752782	0.536092
O33	O	0.327540	-0.419449	0.869426
O34	O	-0.339099	-0.958858	0.329998
O35	O	-0.005765	-0.625525	0.663331
O36	O	0.327568	-0.292192	0.996665
O37	O	-0.438159	-1.086067	0.553667
O38	O	-0.104826	-0.752734	0.887000
O39	O	0.228508	-0.419400	1.220334
O40	O	-0.438137	-0.958812	0.426394
O41	O	-0.104804	-0.625479	0.759727
O42	O	0.228530	-0.292146	1.093061
O43	O	-0.339138	-1.182532	0.553703
O44	O	-0.005804	-0.849199	0.887037
O45	O	0.327529	-0.515865	1.220370
O46	O	-0.568897	-1.182429	0.329973
O47	O	-0.235564	-0.849096	0.663306
O48	O	0.097769	-0.515763	0.996640
O49	O	-0.568876	-1.086009	0.426380
O50	O	-0.235543	-0.752675	0.759713
O51	O	0.097790	-0.419342	1.093047
C52	C	-0.388613	-0.930353	0.378193
C53	C	-0.055279	-0.597020	0.711526
C54	C	0.278054	-0.263687	1.044859
C55	C	-0.388615	-0.843103	0.378200
C56	C	-0.055282	-0.509770	0.711533
C57	C	0.278051	-0.176437	1.044866
C58	C	-0.440314	-0.467286	0.428343
C59	C	-0.106981	-0.133952	0.761676
C60	C	0.226353	0.199381	1.095010
C61	C	-0.440306	-0.549266	0.428333
C62	C	-0.106973	-0.215933	0.761666
C63	C	0.226361	0.117401	1.094999
C64	C	-0.388655	-0.590255	0.378221
C65	C	-0.055322	-0.256921	0.711554
C66	C	0.278012	0.076412	1.044888
C67	C	-0.337014	-0.549258	0.328111
C68	C	-0.003680	-0.215925	0.661444
C69	C	0.329653	0.117408	0.994777
C70	C	-0.337026	-0.467279	0.328117
C71	C	-0.003693	-0.133946	0.661451
C72	C	0.329641	0.199387	0.994784
C73	C	-0.336990	-0.720128	0.328101
C74	C	-0.003657	-0.386795	0.661434
C75	C	0.329676	-0.053462	0.994768
C76	C	-0.336977	-0.802113	0.328095
C77	C	-0.003643	-0.468780	0.661428
C78	C	0.329690	-0.135446	0.994762
C79	C	-0.440270	-0.802115	0.428316
C80	C	-0.106937	-0.468782	0.761650
C81	C	0.226396	-0.135448	1.094983
C82	C	-0.440283	-0.720136	0.428323
C83	C	-0.106949	-0.386803	0.761656
C84	C	0.226384	-0.053470	1.094990
C85	C	-0.388640	-0.679146	0.378214
C86	C	-0.055307	-0.345812	0.711547
C87	C	0.278027	-0.012479	1.044880
C88	C	-0.598143	-1.134227	0.378187
C89	C	-0.264810	-0.800894	0.711520
C90	C	0.068524	-0.467560	1.044853
C91	C	-0.687764	-1.134267	0.378199
C92	C	-0.354431	-0.800934	0.711532
C93	C	-0.021097	-0.467600	1.044865
C94	C	-1.015940	-1.134404	0.378281
C95	C	-0.682606	-0.801070	0.711614
C96	C	-0.349273	-0.467737	1.044947
C97	C	-0.924631	-1.134363	0.378260
C98	C	-0.591298	-0.801030	0.711593
C99	C	-0.257965	-0.467697	1.044927
C100	C	-0.851855	-1.134335	0.378239
C101	C	-0.518521	-0.801001	0.711573
C102	C	-0.185188	-0.467668	1.044906
C103	C	-0.760540	-1.134295	0.378219
C104	C	-0.427207	-0.800962	0.711553
C105	C	-0.093874	-0.467629	1.044886
C106	C	-0.178343	-1.134397	0.378270
C107	C	0.154990	-0.801064	0.711603
C108	C	0.488324	-0.467730	1.044936
C109	C	-0.088722	-1.134438	0.378291
C110	C	0.244611	-0.801105	0.711624
C111	C	0.577945	-0.467771	1.044958
C112	C	-0.388648	-1.134299	0.582964
C113	C	-0.055314	-0.800966	0.916297
C114	C	0.278019	-0.467633	1.249630
C115	C	-0.388646	-1.134299	0.670213
C116	C	-0.055312	-0.800965	1.003547
C117	C	0.278021	-0.467632	1.336880
C118	C	-0.388683	-0.339045	0.378242
C119	C	-0.055350	-0.005712	0.711575
C120	C	0.277983	0.327621	1.044908
C121	C	-0.388675	-0.426295	0.378238
C122	C	-0.055342	-0.092962	0.711571
C123	C	0.277992	0.240372	1.044905
C124	C	-0.440244	-1.184478	1.046025
C125	C	-0.106910	-0.851145	1.379358
C126	C	0.226423	-0.517811	1.712691
C127	C	-0.440243	-1.184474	0.964044
C128	C	-0.106910	-0.851141	1.297378
C129	C	0.226424	-0.517808	1.630711
C130	C	-0.388664	-1.134299	0.923062
C131	C	-0.055331	-0.800966	1.256396
C132	C	0.278003	-0.467633	1.589729
C133	C	-0.337089	-1.084119	0.964065
C134	C	-0.003755	-0.750785	1.297399
C135	C	0.329578	-0.417452	1.630732
C136	C	-0.337094	-1.084119	1.046044
C137	C	-0.003761	-0.750786	1.379378
C138	C	0.329573	-0.417452	1.712711
C139	C	-0.337079	-1.084123	0.793195
C140	C	-0.003746	-0.750790	1.126529
C141	C	0.329587	-0.417457	1.459862
C142	C	-0.337072	-1.084124	0.711211
C143	C	-0.003739	-0.750790	1.044544
C144	C	0.329594	-0.417457	1.377877
C145	C	-0.440228	-1.184478	0.711195
C146	C	-0.106895	-0.851145	1.044529
C147	C	0.226438	-0.517812	1.377862
C148	C	-0.440234	-1.184479	0.793174
C149	C	-0.106900	-0.851145	1.126507
C150	C	0.226433	-0.517812	1.459841
C151	C	-0.388657	-1.134299	0.834171
C152	C	-0.055324	-0.800966	1.167505
C153	C	0.278010	-0.467632	1.500838
C154	C	-0.388673	-1.134298	1.174272
C155	C	-0.055340	-0.800965	1.507605
C156	C	0.277994	-0.467632	1.840938
C157	C	-0.388670	-1.134303	1.087022
C158	C	-0.055337	-0.800970	1.420355
C159	C	0.277996	-0.467636	1.753688
H160	H	-0.294936	-0.686756	0.287298
H161	H	0.038398	-0.353423	0.620631
H162	H	0.371731	-0.020090	0.953965
Cl163	Cl	-0.272232	-1.021043	0.659691
Cl164	Cl	0.061101	-0.687710	0.993025
Cl165	Cl	0.394435	-0.354377	1.326358
Cl166	Cl	-0.505247	-0.415765	0.491348
Cl167	Cl	-0.171914	-0.082432	0.824682
Cl168	Cl	0.161420	0.250901	1.158015
Cl169	Cl	-0.272252	-1.021043	1.097584
Cl170	Cl	0.061081	-0.687710	1.430917
Cl171	Cl	0.394415	-0.354377	1.764250
Cl172	Cl	-0.272235	-1.021052	0.912545
Cl173	Cl	0.061098	-0.687718	1.245878
Cl174	Cl	0.394432	-0.354385	1.579212
H175	H	-0.482358	-0.582637	0.469131
H176	H	-0.149024	-0.249304	0.802465
H177	H	0.184309	0.084030	1.135798
Cl178	Cl	-0.505079	-1.247556	0.912508
Cl179	Cl	-0.171746	-0.914223	1.245842
Cl180	Cl	0.161587	-0.580889	1.579175
Cl181	Cl	-0.505212	-0.668609	0.491326
Cl182	Cl	-0.171879	-0.335275	0.824660
Cl183	Cl	0.161455	-0.001942	1.157993
H184	H	-0.294962	-0.582638	0.287305
H185	H	0.038371	-0.249304	0.620638
H186	H	0.371705	0.084029	0.953972
Cl187	Cl	-0.272226	-1.021051	0.844733
Cl188	Cl	0.061107	-0.687718	1.178067
Cl189	Cl	0.394441	-0.354385	1.511400
H190	H	-0.294910	-0.835484	0.287297
H191	H	0.038424	-0.502150	0.620631
H192	H	0.371757	-0.168817	0.953964
H193	H	-0.482317	-0.835494	0.469119
H194	H	-0.148984	-0.502160	0.802453
H195	H	0.184349	-0.168827	1.135786
H196	H	-0.294974	-0.433906	0.287319
H197	H	0.038359	-0.100573	0.620652
H198	H	0.371692	0.232761	0.953986
Cl199	Cl	-0.505085	-1.247564	1.097537
Cl200	Cl	-0.171752	-0.914230	1.430870
Cl201	Cl	0.161582	-0.580897	1.764203
Cl202	Cl	-0.505075	-1.247559	0.844693
Cl203	Cl	-0.171742	-0.914225	1.178027
Cl204	Cl	0.161592	-0.580892	1.511360
H205	H	-0.482224	-1.225337	0.677811
H206	H	-0.148891	-0.892003	1.011145
H207	H	0.184443	-0.558670	1.344478
