data_functionalizedCrystal
_audit_creation_method	'MofGen! by Chris Wilmer'
_symmetry_space_group_name_H-M	'P1'
_symmetry_Int_Tables_number	1
_symmetry_cell_setting	triclinic
loop_
_symmetry_equiv_pos_as_xyz
  x,y,z
_cell_length_a	12.645331
_cell_length_b	16.120531
_cell_length_c	16.120704
_cell_angle_alpha	95.631373
_cell_angle_beta	87.106233
_cell_angle_gamma	87.067505
loop_
_atom_site_label
_atom_site_type_symbol
_atom_site_fract_x
_atom_site_fract_y
_atom_site_fract_z
Zn1	Zn	1.565904	0.356918	0.489348
Zn2	Zn	2.065904	0.856918	0.989348
Zn3	Zn	1.565788	0.489557	0.356647
Zn4	Zn	2.065788	0.989557	0.856647
Zn5	Zn	1.398133	0.349803	0.349602
Zn6	Zn	1.898133	0.849803	0.849602
Zn7	Zn	1.379090	0.496652	0.496384
Zn8	Zn	1.879090	0.996652	0.996384
O9	O	1.477229	0.423232	0.422995
O10	O	1.977229	0.923232	0.922995
O11	O	1.714235	0.374521	0.471749
O12	O	2.214235	0.874521	0.971749
O13	O	1.551468	0.465071	0.238748
O14	O	2.051468	0.965071	0.738748
O15	O	1.428406	0.233779	0.362246
O16	O	1.928406	0.733779	0.862246
O17	O	1.714150	0.471970	0.374255
O18	O	2.214150	0.971970	0.874255
O19	O	1.551667	0.239007	0.464917
O20	O	2.051667	0.739007	0.964917
O21	O	1.428293	0.362394	0.233572
O22	O	1.928293	0.862394	0.733572
O23	O	1.247260	0.369274	0.369068
O24	O	1.747260	0.869274	0.869068
O25	O	1.395951	0.484063	0.612415
O26	O	1.895951	0.984063	1.112415
O27	O	1.233270	0.477164	0.476909
O28	O	1.733270	0.977164	0.976909
O29	O	1.533203	0.381401	0.607246
O30	O	2.033203	0.881401	1.107246
O31	O	1.533004	0.607465	0.381077
O32	O	2.033004	1.107465	0.881077
O33	O	1.395838	0.612678	0.483741
O34	O	1.895838	1.112678	0.983741
C35	C	1.201800	0.423218	0.422988
C36	C	1.701800	0.923218	0.922988
C37	C	1.083968	0.423232	0.423006
C38	C	1.583968	0.923232	0.923006
C39	C	1.030320	0.491211	0.490759
C40	C	1.530320	0.991211	0.990759
C41	C	0.907755	0.491467	0.490581
C42	C	1.407755	0.991467	0.990581
C43	C	0.920419	0.442249	0.336000
C44	C	1.420419	0.942249	0.836000
C45	C	1.042960	0.442725	0.336396
C46	C	1.542960	0.942725	0.836396
C47	C	1.043274	0.336061	0.441481
C48	C	1.543274	0.836061	0.941481
C49	C	0.920503	0.336648	0.443448
C50	C	1.420503	0.836648	0.943448
C51	C	1.462370	0.640401	0.433955
C52	C	1.962370	1.140401	0.933955
C53	C	1.456108	0.733308	0.438672
C54	C	1.956108	1.233308	0.938672
C55	C	1.444680	0.903411	0.447301
C56	C	1.944680	1.403411	0.947301
C57	C	1.509820	0.942211	0.398643
C58	C	2.009820	1.442211	0.898643
C59	C	1.503462	1.036862	0.403444
C60	C	2.003462	1.536862	0.903444
C61	C	1.451037	0.808752	0.442501
C62	C	1.951037	1.308752	0.942501
C63	C	1.753732	0.423248	0.423003
C64	C	2.253732	0.923248	0.923003
C65	C	1.871562	0.423254	0.423006
C66	C	2.371562	0.923254	0.923006
C67	C	1.462466	0.434317	0.641006
C68	C	1.962466	0.934317	1.141006
C69	C	1.456175	0.439041	0.733910
C70	C	1.956175	0.939041	1.233910
C71	C	1.492137	1.205216	0.411995
C72	C	1.992137	1.705216	0.911995
C73	C	1.498396	1.112308	0.407269
C74	C	1.998396	1.612308	0.907269
C75	C	1.509764	0.398925	0.942838
C76	C	2.009764	0.898925	1.442838
C77	C	1.444656	0.447631	0.903998
C78	C	1.944656	0.947631	1.403998
C79	C	1.451067	0.442850	0.809352
C80	C	1.951067	0.942850	1.309352
C81	C	1.503354	0.403705	1.037492
C82	C	2.003354	0.903705	1.537492
C83	C	1.491931	0.412217	1.205834
C84	C	1.991931	0.912217	1.705834
C85	C	1.498241	0.407517	1.112932
C86	C	1.998241	0.907517	1.612932
H87	H	1.056358	0.480072	0.555614
H88	H	1.556358	0.980072	1.055614
H89	H	1.068450	0.506301	0.320271
H90	H	1.568450	1.006301	0.820271
N91	N	1.368710	0.950894	0.504071
N92	N	1.868710	1.450894	1.004071
N93	N	1.307450	0.914474	0.549816
N94	N	1.807450	1.414474	1.049816
H95	H	1.253792	0.948016	0.589908
H96	H	1.753792	1.448016	1.089908
H97	H	1.570363	0.904343	0.353379
H98	H	2.070363	1.404343	0.853379
H99	H	1.384095	0.492916	0.941826
H100	H	1.884095	0.992916	1.441826
H101	H	0.896295	0.283690	0.397377
H102	H	1.396295	0.783690	0.897377
N103	N	0.878122	0.521102	0.315295
N104	N	1.378122	1.021102	0.815295
N105	N	0.907283	0.547675	0.248025
N106	N	1.407283	1.047675	0.748025
H107	H	0.877412	0.603368	0.233404
H108	H	1.377412	1.103368	0.733404
N109	N	0.880060	0.318542	0.523746
N110	N	1.380060	0.818542	1.023746
N111	N	0.942170	0.308039	0.580196
N112	N	1.442170	0.808039	1.080196
H113	H	0.913607	0.295250	0.636908
H114	H	1.413607	0.795250	1.136908
H115	H	1.078760	0.285472	0.392083
H116	H	1.578760	0.785472	0.892083
N117	N	1.585718	0.342105	0.895389
N118	N	2.085718	0.842105	1.395389
N119	N	1.555309	0.286426	0.843955
N120	N	2.055309	0.786426	1.343955
H121	H	1.608952	0.246298	0.810435
H122	H	2.108952	0.746298	1.310435
N123	N	0.865738	0.477282	0.571684
N124	N	1.365738	0.977282	1.071684
N125	N	0.882566	0.526787	0.633651
N126	N	1.382566	1.026787	1.133651
H127	H	0.852900	0.516774	0.690936
H128	H	1.352900	1.016774	1.190936
N129	N	1.064674	0.571899	0.476028
N130	N	1.564674	1.071899	0.976028
N131	N	1.128497	0.579556	0.415847
N132	N	1.628497	1.079556	0.915847
H133	H	1.152767	0.636541	0.405442
H134	H	1.652767	1.136541	0.905442
H135	H	0.874976	0.556159	0.478671
H136	H	1.374976	1.056159	0.978671
H137	H	1.079085	0.395086	0.284423
H138	H	1.579085	0.895086	0.784423
H139	H	1.071386	0.317817	0.503623
H140	H	1.571386	0.817817	1.003623
N141	N	0.891975	0.381792	0.271181
N142	N	1.391975	0.881792	0.771181
N143	N	0.835241	0.323894	0.288429
N144	N	1.335241	0.823894	0.788429
H145	H	0.815150	0.281194	0.242653
H146	H	1.315150	0.781194	0.742653
