data_functionalizedCrystal
_audit_creation_method	'MofGen! by Chris Wilmer'
_symmetry_space_group_name_H-M	'P1'
_symmetry_Int_Tables_number	1
_symmetry_cell_setting	triclinic
loop_
_symmetry_equiv_pos_as_xyz
  x,y,z
_cell_length_a	20.919287
_cell_length_b	14.446369
_cell_length_c	14.446369
_cell_angle_alpha	59.998264
_cell_angle_beta	86.843913
_cell_angle_gamma	58.210818
loop_
_atom_site_label
_atom_site_type_symbol
_atom_site_fract_x
_atom_site_fract_y
_atom_site_fract_z
Zr1	Zr	0.616719	1.013263	-0.170650
O2	O	0.514485	1.206391	-0.310311
O3	O	0.648063	0.820140	-0.127836
O4	O	0.648055	1.013271	-0.320958
O5	O	0.514496	1.013251	0.035147
O6	O	0.753412	1.013272	-0.329356
O7	O	0.514494	1.013259	-0.117190
O8	O	0.753427	0.667796	0.016103
O9	O	0.514481	1.358727	-0.310312
O10	O	0.740053	0.899573	-0.115845
O11	O	0.661427	0.899566	0.004110
O12	O	0.661417	1.126953	-0.223265
O13	O	0.582792	1.126946	-0.103310
Zr14	Zr	0.784754	1.013251	0.058915
Zr15	Zr	0.784751	1.013264	-0.184045
Zr16	Zr	0.616722	1.013249	0.072310
Zr17	Zr	0.616711	1.256223	-0.170651
Zr18	Zr	0.784762	0.770291	0.058916
O19	O	0.753410	1.206374	0.016100
O20	O	0.753406	1.206393	-0.329357
O21	O	0.514490	1.206372	0.035146
O22	O	0.886988	0.820123	0.198576
O23	O	0.886983	0.820142	-0.146882
O24	O	0.648067	0.820121	0.217622
O25	O	0.886977	1.013263	-0.146883
O26	O	0.753418	1.013243	0.209222
O27	O	0.648061	1.013242	0.217621
O28	O	0.886979	1.013255	0.005454
O29	O	0.648044	1.358729	-0.320959
O30	O	0.753429	0.667785	0.209224
O31	O	0.886992	0.667786	0.198576
O32	O	0.886990	0.667797	0.005456
O33	O	0.514483	1.358717	-0.117191
O34	O	0.648046	1.358718	-0.127839
O35	O	0.740056	0.899561	0.111530
O36	O	0.818681	0.899568	-0.008425
O37	O	0.740046	1.126948	-0.115846
O38	O	0.661420	1.126941	0.004109
C39	C	0.700746	0.709351	-0.055866
C40	C	0.700749	0.606208	-0.055866
C41	C	0.750340	0.566931	-0.131533
C42	C	0.750109	0.460011	-0.131901
C43	C	0.615264	0.547014	-0.100980
C44	C	0.615551	0.654390	-0.101541
C45	C	0.735924	0.479389	0.065006
C46	C	0.737635	0.370926	0.064680
C47	C	0.490554	1.013255	-0.039113
C48	C	0.419220	1.013254	-0.033426
C49	C	0.385705	1.013262	-0.114681
C50	C	0.318682	1.013255	-0.109332
C51	C	0.285170	1.013249	-0.022733
C52	C	0.318691	1.013237	0.058529
C53	C	0.385716	1.013235	0.053185
C54	C	0.082799	1.013246	-0.002392
C55	C	0.015768	1.013252	0.002945
C56	C	0.015764	1.013267	-0.164916
C57	C	0.082788	1.013273	-0.170257
C58	C	0.116305	1.013254	-0.088992
C59	C	0.216660	1.013245	-0.017266
C60	C	0.184818	1.013248	-0.094455
C61	C	0.910919	1.013259	-0.072623
C62	C	0.982253	1.013260	-0.078309
C63	C	0.700733	1.013274	-0.359774
C64	C	0.700731	1.013279	-0.462916
C65	C	0.700727	1.317163	-0.055869
C66	C	0.700724	1.420306	-0.055870
C67	C	0.650897	1.156673	-0.677314
C68	C	0.651107	1.156770	-0.570099
C69	C	0.786170	0.942048	-0.473050
C70	C	0.785902	0.942958	-0.580798
C71	C	0.665835	0.940004	-0.569863
C72	C	0.664101	0.942706	-0.463755
C73	C	0.700740	1.013240	0.248038
C74	C	0.700742	1.013235	0.351181
C75	C	0.910929	0.709353	-0.072621
C76	C	0.982266	0.606211	-0.078307
C77	C	0.700750	0.709334	0.248039
C78	C	0.700754	0.606186	0.351183
C79	C	0.910933	0.709337	0.231284
C80	C	0.982271	0.606189	0.328741
C81	C	0.490540	1.317177	-0.343020
C82	C	0.419202	1.420325	-0.440477
C83	C	0.490544	1.317161	-0.039114
C84	C	0.419207	1.420303	-0.033428
C85	C	0.700723	1.317179	-0.359775
C86	C	0.700719	1.420328	-0.462918
C87	C	0.974724	0.557777	-0.137060
C88	C	1.041746	0.460878	-0.142424
C89	C	1.116311	0.412407	-0.089030
C90	C	1.123851	0.460851	-0.030275
C91	C	1.056829	0.557755	-0.024918
C92	C	1.056821	0.557753	0.311892
C93	C	1.123858	0.460848	0.403453
C94	C	1.116343	0.412374	0.511863
C95	C	1.041785	0.460820	0.528710
C96	C	0.974750	0.557729	0.437150
C97	C	0.344652	1.468772	-0.423628
C98	C	0.277615	1.565707	-0.515189
C99	C	0.285130	1.614186	-0.623598
C100	C	0.359688	1.565735	-0.640446
C101	C	0.426723	1.468809	-0.548886
C102	C	0.426749	1.468747	0.025314
C103	C	0.359727	1.565673	0.030652
C104	C	0.285163	1.614147	-0.022746
C105	C	0.277622	1.565699	-0.081496
C106	C	0.344644	1.468781	-0.086840
C107	C	0.650931	0.459862	0.430142
C108	C	0.651136	0.566795	0.322790
C109	C	0.786195	0.479325	0.418930
C110	C	0.785932	0.371937	0.525817
C111	C	0.665859	0.546910	0.536973
C112	C	0.664120	0.655393	0.428434
H113	H	0.726156	0.656727	-0.220296
H114	H	1.170878	0.333500	-0.093400
H115	H	1.062982	0.597177	0.022931
O116	O	-0.020374	1.013230	0.096361
H117	H	-0.038191	1.101962	0.093670
H118	H	0.696632	0.838020	-0.387190
O119	O	0.567798	0.685154	0.257537
H120	H	0.567860	0.761823	0.180625
H121	H	0.212107	1.013246	-0.164961
H122	H	0.576687	0.524536	-0.048157
O123	O	0.894308	0.610052	-0.194671
H124	H	0.848961	0.685572	-0.181081
O125	O	0.580717	1.011509	-0.457822
H126	H	0.565420	1.095611	-0.454278
H127	H	0.603874	0.985900	-0.614947
O128	O	0.212821	1.718743	-0.722344
H129	H	0.177427	1.681549	-0.719456
O130	O	1.064945	0.610029	0.194974
H131	H	1.036387	0.591420	0.150252
O132	O	0.564099	0.693502	-0.032413
H133	H	0.563987	0.770311	-0.032196
H134	H	0.586918	0.585682	-0.188839
H135	H	0.825057	0.837719	-0.557265
H136	H	0.189369	1.013244	0.053244
O137	O	0.822935	0.251719	0.522514
H138	H	0.884093	0.216247	0.518729
O139	O	0.894345	0.609933	0.455340
H140	H	0.887527	0.654065	0.502957
O141	O	0.336501	1.416533	-0.150198
H142	H	0.365075	1.309625	-0.092564
H143	H	0.814312	0.991520	-0.473153
O144	O	0.367787	1.618031	-0.757377
H145	H	0.400330	1.536687	-0.769838
H146	H	0.216914	1.605140	-0.501449
O147	O	1.188649	0.307831	0.610613
H148	H	1.224043	0.345025	0.607717
O149	O	1.204268	0.408592	0.385271
H150	H	1.198225	0.458566	0.294503
O151	O	0.713685	0.800038	-0.537322
H152	H	0.762089	0.782651	-0.577157
O153	O	0.367868	1.617901	0.094035
H154	H	0.430978	1.567885	0.130285
O155	O	0.818057	0.427075	0.115971
H156	H	0.834725	0.490890	0.055710
O157	O	1.033684	0.408526	0.645641
H158	H	1.001144	0.364369	0.658093
O159	O	0.688318	0.511898	0.139914
H160	H	0.689744	0.586020	0.143058
O161	O	0.336537	1.416501	-0.306705
H162	H	0.273430	1.466500	-0.310389
H163	H	0.487457	1.429286	0.068806
O164	O	0.118933	1.013271	-0.263659
H165	H	0.118772	1.102025	-0.312038
O166	O	1.033605	0.408628	-0.205786
H167	H	0.970495	0.458601	-0.241993
O168	O	0.507131	1.416539	-0.567064
H169	H	0.501086	1.466529	-0.657832
H170	H	0.825087	0.341976	0.601280
O171	O	0.837530	0.508779	0.450898
H172	H	0.802607	0.614403	0.418758
H173	H	0.588192	1.212670	-0.566707
O174	O	0.212876	1.718644	-0.016942
H175	H	0.230656	1.744158	0.032900
O176	O	-0.020385	1.013289	-0.252566
H177	H	-0.072620	1.013285	-0.234302
H178	H	1.184570	0.421372	0.013195
O179	O	0.694788	0.328071	0.144790
H180	H	0.670460	0.388119	0.180531
O181	O	0.682702	0.341105	0.426216
H182	H	0.701198	0.357331	0.349125
O183	O	0.567391	0.509108	0.433730
H184	H	0.560498	0.505889	0.511811
O185	O	0.197197	1.617986	-0.139089
H186	H	0.151867	1.693507	-0.125487
O187	O	0.683155	0.517174	0.248967
H188	H	0.743893	0.427272	0.294066
H189	H	0.814338	0.440770	0.365077
O190	O	0.583778	0.599349	0.548954
H191	H	0.585063	0.523924	0.628676
H192	H	0.587820	1.212965	-0.726238
O193	O	0.682656	1.230898	-0.752684
H194	H	0.733791	1.166070	-0.769934
H195	H	0.291395	1.013260	-0.175495
O196	O	0.421842	1.013272	-0.208091
H197	H	0.421678	1.102027	-0.256477
O198	O	0.580743	0.775274	0.366975
H199	H	0.565452	0.799725	0.281761
H200	H	0.110082	1.013234	0.063776
H201	H	0.701989	0.522115	0.612312
O202	O	0.833453	0.341817	-0.092486
H203	H	0.874288	0.360688	-0.072991
O204	O	0.833895	0.517847	-0.092377
H205	H	0.860884	0.430698	-0.005287
H206	H	0.696647	0.687517	0.451364
O207	O	0.282551	1.013233	0.151936
H208	H	0.230307	1.013250	0.141997
H209	H	0.725687	0.497610	-0.221188
O210	O	0.821033	0.251194	0.109435
H211	H	0.836139	0.226939	0.046098
H212	H	0.413004	1.013226	0.119352
O213	O	0.578303	0.774739	-0.219115
H214	H	0.517130	0.810089	-0.248339
O215	O	0.683189	1.231254	-0.575890
H216	H	0.645720	1.333478	-0.649892
O217	O	0.822904	1.010036	-0.650451
H218	H	0.884060	0.955981	-0.602356
O219	O	0.837505	0.802293	-0.373473
H220	H	0.802585	0.782076	-0.315562
