data_functionalizedCrystal
_audit_creation_method	'MofGen! by Chris Wilmer'
_symmetry_space_group_name_H-M	'P1'
_symmetry_Int_Tables_number	1
_symmetry_cell_setting	triclinic
loop_
_symmetry_equiv_pos_as_xyz
  x,y,z
_cell_length_a	14.044220
_cell_length_b	11.792241
_cell_length_c	10.868271
_cell_angle_alpha	89.999893
_cell_angle_beta	90.006070
_cell_angle_gamma	91.308853
loop_
_atom_site_label
_atom_site_type_symbol
_atom_site_fract_x
_atom_site_fract_y
_atom_site_fract_z
O1	O	0.129987	-1.519111	0.102206
O2	O	0.463320	-1.185778	0.435539
O3	O	0.796654	-0.852445	0.768872
O4	O	0.143383	-1.190028	0.102234
O5	O	0.476717	-0.856694	0.435568
O6	O	0.810050	-0.523361	0.768901
O7	O	-0.001325	-1.349630	0.102208
O8	O	0.332008	-1.016297	0.435542
O9	O	0.665342	-0.682963	0.768875
O10	O	0.274695	-1.359509	0.102232
O11	O	0.608028	-1.026176	0.435565
O12	O	0.941362	-0.692842	0.768898
O13	O	-0.001331	-1.349615	-0.102436
O14	O	0.332003	-1.016282	0.230897
O15	O	0.665336	-0.682948	0.564230
O16	O	0.143378	-1.190013	-0.102410
O17	O	0.476711	-0.856680	0.230923
O18	O	0.810044	-0.523346	0.564256
O19	O	0.129981	-1.519096	-0.102439
O20	O	0.463315	-1.185763	0.230894
O21	O	0.796648	-0.852430	0.564228
Zn22	Zn	0.136679	-1.354552	-0.134916
Zn23	Zn	0.470012	-1.021219	0.198417
Zn24	Zn	0.803345	-0.687886	0.531750
Zn25	Zn	0.136686	-1.354572	0.134712
Zn26	Zn	0.470019	-1.021238	0.468045
Zn27	Zn	0.803353	-0.687905	0.801378
O28	O	0.274689	-1.359494	-0.102413
O29	O	0.608023	-1.026161	0.230920
O30	O	0.941356	-0.692827	0.564254
C31	C	-0.036664	-1.345298	-0.000114
C32	C	0.296669	-1.011965	0.333219
C33	C	0.630002	-0.678631	0.666552
C34	C	-0.141956	-1.332399	-0.000115
C35	C	0.191377	-0.999066	0.333219
C36	C	0.524710	-0.665732	0.666552
C37	C	0.142539	-1.147650	-0.000084
C38	C	0.475872	-0.814317	0.333249
C39	C	0.809206	-0.480984	0.666582
C40	C	0.140020	-1.021400	-0.000074
C41	C	0.473354	-0.688067	0.333260
C42	C	0.806687	-0.354734	0.666593
C43	C	0.130826	-1.561474	-0.000118
C44	C	0.464159	-1.228140	0.333216
C45	C	0.797492	-0.894807	0.666549
C46	C	0.133344	-1.687724	-0.000120
C47	C	0.466678	-1.354391	0.333213
C48	C	0.800011	-1.021057	0.666546
C49	C	-0.334739	-1.308817	-0.000095
C50	C	-0.001406	-0.975484	0.333239
C51	C	0.331928	-0.642150	0.666572
C52	C	-0.391902	-1.400302	-0.000099
C53	C	-0.058569	-1.066969	0.333234
C54	C	0.274765	-0.733635	0.666568
C55	C	-0.499173	-1.387181	-0.000088
C56	C	-0.165840	-1.053847	0.333245
C57	C	0.167494	-0.720514	0.666579
C58	C	-0.227458	-1.321937	-0.000106
C59	C	0.105875	-0.988603	0.333228
C60	C	0.439209	-0.655270	0.666561
C61	C	0.310029	-1.363826	-0.000088
C62	C	0.643362	-1.030493	0.333246
C63	C	0.976696	-0.697159	0.666579
C64	C	0.415321	-1.376725	-0.000079
C65	C	0.748654	-1.043392	0.333254
C66	C	1.081988	-0.710058	0.666587
N67	N	0.136673	-1.354547	-0.318930
N68	N	0.470006	-1.021214	0.014403
N69	N	0.803340	-0.687880	0.347736
C70	C	0.135389	-0.790253	-0.000109
C71	C	0.468722	-0.456920	0.333224
C72	C	0.802056	-0.123587	0.666557
C73	C	0.137962	-0.918880	-0.000090
C74	C	0.471296	-0.585547	0.333244
C75	C	0.804629	-0.252213	0.666577
C76	C	0.136684	-1.354566	-0.569937
C77	C	0.470017	-1.021232	-0.236603
C78	C	0.803351	-0.687899	0.096730
C79	C	0.136681	-1.354552	-0.430259
C80	C	0.470014	-1.021219	-0.096926
C81	C	0.803347	-0.687885	0.236408
N82	N	0.136684	-1.354585	0.318726
N83	N	0.470018	-1.021252	0.652059
N84	N	0.803351	-0.687919	0.985393
H85	H	-0.366361	-1.220647	-0.000084
H86	H	-0.033028	-0.887314	0.333249
H87	H	0.300305	-0.553980	0.666583
H88	H	-0.360278	-1.488479	-0.000024
H89	H	-0.026945	-1.155146	0.333309
H90	H	0.306389	-0.821812	0.666642
