data_functionalizedCrystal
_audit_creation_method	'MofGen! by Chris Wilmer'
_symmetry_space_group_name_H-M	'P1'
_symmetry_Int_Tables_number	1
_symmetry_cell_setting	triclinic
loop_
_symmetry_equiv_pos_as_xyz
  x,y,z
_cell_length_a	13.032831
_cell_length_b	18.050589
_cell_length_c	13.032268
_cell_angle_alpha	82.850583
_cell_angle_beta	89.113023
_cell_angle_gamma	82.833186
loop_
_atom_site_label
_atom_site_type_symbol
_atom_site_fract_x
_atom_site_fract_y
_atom_site_fract_z
Zn1	Zn	1.498351	-0.501530	0.780835
Zn2	Zn	1.998351	-0.001530	1.280835
Zn3	Zn	1.520065	-0.612177	0.608855
Zn4	Zn	2.020065	-0.112177	1.108855
Zn5	Zn	1.348217	-0.470507	0.587076
Zn6	Zn	1.848217	0.029493	1.087076
Zn7	Zn	1.326314	-0.608161	0.758980
Zn8	Zn	1.826314	-0.108161	1.258980
O9	O	1.423237	-0.548094	0.683937
O10	O	1.923237	-0.048094	1.183937
O11	O	1.645148	-0.530872	0.776283
O12	O	2.145148	-0.030872	1.276283
O13	O	1.515523	-0.582081	0.462049
O14	O	2.015523	-0.082081	0.962049
O15	O	1.368212	-0.370708	0.612810
O16	O	1.868212	0.129292	1.112810
O17	O	1.661101	-0.612163	0.649930
O18	O	2.161101	-0.112163	1.149930
O19	O	1.478515	-0.393501	0.755164
O20	O	1.978515	0.106499	1.255164
O21	O	1.389267	-0.477997	0.446048
O22	O	1.889267	0.022003	0.946048
O23	O	1.201395	-0.474104	0.591619
O24	O	1.701395	0.025896	1.091619
O25	O	1.330881	-0.605320	0.905796
O26	O	1.830881	-0.105320	1.405796
O27	O	1.185303	-0.575238	0.717916
O28	O	1.685303	-0.075238	1.217916
O29	O	1.457276	-0.526978	0.921853
O30	O	1.957276	-0.026978	1.421853
O31	O	1.494284	-0.715559	0.628738
O32	O	1.994284	-0.215559	1.128738
O33	O	1.351936	-0.712609	0.739034
O34	O	1.851936	-0.212609	1.239034
C35	C	1.156033	-0.520869	0.650033
C36	C	1.656033	-0.020869	1.150033
C37	C	1.041718	-0.509242	0.635553
C38	C	1.541718	-0.009242	1.135553
C39	C	0.982831	-0.554162	0.691494
C40	C	1.482831	-0.054162	1.191494
C41	C	0.864681	-0.542146	0.676530
C42	C	1.364681	-0.042146	1.176530
C43	C	1.423115	-0.741032	0.683904
C44	C	1.923115	-0.241032	1.183904
C45	C	1.423152	-0.823584	0.683936
C46	C	1.923152	-0.323584	1.183936
C47	C	1.345814	-1.021463	0.743900
C48	C	1.845814	-0.521463	1.243900
C49	C	1.332669	-1.060964	0.646879
C50	C	1.832669	-0.560964	1.146879
C51	C	1.423252	-0.974726	0.683962
C52	C	1.923252	-0.474726	1.183962
C53	C	1.436446	-1.082312	0.781001
C54	C	1.936446	-0.582312	1.281001
C55	C	1.423345	-1.120722	0.683996
C56	C	1.923345	-0.620722	1.183996
C57	C	1.410063	-1.013131	0.586886
C58	C	1.910063	-0.513131	1.086886
C59	C	1.513876	-1.034484	0.721076
C60	C	2.013876	-0.534484	1.221076
C61	C	1.500775	-1.073962	0.623995
C62	C	2.000775	-0.573962	1.123995
C63	C	1.423195	-0.890621	0.683944
C64	C	1.923195	-0.390621	1.183944
C65	C	1.423402	-1.204825	0.684003
C66	C	1.923402	-0.704825	1.184003
C67	C	1.691484	-0.575426	0.717973
C68	C	2.191484	-0.075426	1.217973
C69	C	1.805795	-0.587073	0.732478
C70	C	2.305795	-0.087073	1.232478
C71	C	1.389213	-0.569162	0.952184
C72	C	1.889213	-0.069162	1.452184
C73	C	1.374714	-0.578139	1.066495
C74	C	1.874714	-0.078139	1.566495
C75	C	1.423384	-0.354407	0.683996
C76	C	1.923384	0.145593	1.183996
C77	C	1.423447	-0.271869	0.684021
C78	C	1.923447	0.228131	1.184021
C79	C	1.457187	-0.527061	0.416741
C80	C	1.957187	-0.027061	0.916741
C81	C	1.471885	-0.517894	0.302456
C82	C	1.971885	-0.017894	0.802456
C83	C	1.430788	-0.543380	1.125403
C84	C	1.930788	-0.043380	1.625403
C85	C	1.415804	-0.552658	1.243549
C86	C	1.915804	-0.052658	1.743549
H87	H	1.256073	-1.072993	0.615515
H88	H	1.756073	-0.572993	1.115515
C89	C	1.395063	-0.973024	0.477513
C90	C	1.895063	-0.473024	0.977513
C91	C	1.395118	-0.895581	0.478782
C92	C	1.895118	-0.395581	0.978782
C93	C	1.381285	-0.858608	0.378053
C94	C	1.881285	-0.358608	0.878053
H95	H	1.449772	-0.991312	0.434777
H96	H	1.949772	-0.491312	0.934777
H97	H	1.330916	-0.982178	0.451065
H98	H	1.830916	-0.482178	0.951065
H99	H	1.459258	-0.886432	0.505216
H100	H	1.959258	-0.386432	1.005216
H101	H	1.340411	-0.877272	0.521497
H102	H	1.840411	-0.377272	1.021497
H103	H	1.317137	-0.867762	0.351605
H104	H	1.817137	-0.367762	0.851605
H105	H	1.435996	-0.876902	0.335325
H106	H	1.935996	-0.376902	0.835325
H107	H	1.381311	-0.806059	0.378901
H108	H	1.881311	-0.306059	0.878901
H109	H	1.489884	-0.506750	1.088368
H110	H	1.989884	-0.006750	1.588368
H111	H	1.004664	-0.461885	0.576587
H112	H	1.504664	0.038115	1.076587
H113	H	1.566310	-1.096823	0.573255
H114	H	2.066310	-0.596823	1.073255
H115	H	1.590448	-1.022459	0.752483
H116	H	2.090448	-0.522459	1.252483
H117	H	1.019885	-0.601514	0.750468
H118	H	1.519885	-0.101514	1.250468
C119	C	0.854985	-0.650240	0.811206
C120	C	1.354985	-0.150240	1.311206
C121	C	0.777755	-0.689340	0.859930
C122	C	1.277755	-0.189340	1.359930
C123	C	0.823028	-0.747526	0.932467
C124	C	1.323028	-0.247526	1.432467
H125	H	0.901860	-0.683762	0.777171
H126	H	1.401860	-0.183762	1.277171
H127	H	0.891195	-0.629658	0.861410
H128	H	1.391195	-0.129658	1.361410
H129	H	0.741561	-0.709922	0.809733
H130	H	1.241561	-0.209922	1.309733
H131	H	0.730874	-0.655839	0.893985
H132	H	1.230874	-0.155839	1.393985
H133	H	0.859238	-0.726945	0.982671
H134	H	1.359238	-0.226945	1.482671
H135	H	0.869903	-0.781043	0.898424
H136	H	1.369903	-0.281043	1.398424
H137	H	0.770634	-0.774059	0.965542
H138	H	1.270634	-0.274059	1.465542
C139	C	1.451134	-1.122281	0.890477
C140	C	1.951134	-0.622281	1.390477
C141	C	1.369811	-1.095557	0.952861
C142	C	1.869811	-0.595557	1.452861
C143	C	1.383306	-1.132348	1.053720
C144	C	1.883306	-0.632348	1.553720
H145	H	1.451660	-1.174885	0.889769
H146	H	1.951660	-0.674885	1.389769
H147	H	1.514926	-1.112749	0.917294
H148	H	2.014926	-0.612749	1.417294
H149	H	1.306036	-1.105096	0.926051
H150	H	1.806036	-0.605096	1.426051
H151	H	1.369271	-1.042959	0.953601
H152	H	1.869271	-0.542959	1.453601
H153	H	1.447097	-1.122816	1.080537
H154	H	1.947097	-0.622816	1.580537
H155	H	1.383833	-1.184950	1.053000
H156	H	1.883833	-0.684950	1.553000
H157	H	1.328137	-1.114217	1.096062
H158	H	1.828137	-0.614217	1.596062
C159	C	0.815101	-0.479073	0.597894
C160	C	1.315101	0.020927	1.097894
C161	C	0.707776	-0.479715	0.598651
C162	C	1.207776	0.020285	1.098651
C163	C	0.662070	-0.421634	0.526213
C164	C	1.162070	0.078366	1.026213
H165	H	0.830640	-0.432105	0.615177
H166	H	1.330640	0.067895	1.115177
H167	H	0.841353	-0.486216	0.530948
H168	H	1.341353	0.013784	1.030948
H169	H	0.681533	-0.472565	0.665582
H170	H	1.181533	0.027435	1.165582
H171	H	0.692208	-0.526669	0.581357
H172	H	1.192208	-0.026669	1.081357
H173	H	0.688321	-0.428778	0.459267
H174	H	1.188321	0.071222	0.959267
H175	H	0.677616	-0.374670	0.543503
H176	H	1.177616	0.125330	1.043503
H177	H	0.589246	-0.422066	0.526710
H178	H	1.089246	0.077934	1.026710
H179	H	1.280253	-0.998449	0.794494
H180	H	1.780253	-0.498449	1.294494
C181	C	1.337087	-0.601503	1.293114
C182	C	1.837087	-0.101503	1.793114
C183	C	1.337902	-0.601018	1.400447
C184	C	1.837902	-0.101018	1.900447
C185	C	1.265415	-0.646013	1.446142
C186	C	1.765415	-0.146013	1.946142
H187	H	1.270146	-0.582283	1.266915
H188	H	1.770146	-0.082283	1.766915
H189	H	1.354319	-0.651583	1.277514
H190	H	1.854319	-0.151583	1.777514
H191	H	1.320663	-0.550948	1.416039
H192	H	1.820663	-0.050948	1.916039
H193	H	1.404825	-0.620244	1.426675
H194	H	1.904825	-0.120244	1.926675
H195	H	1.282648	-0.696093	1.430542
H196	H	1.782648	-0.196093	1.930542
H197	H	1.198479	-0.626789	1.419936
H198	H	1.698479	-0.126789	1.919936
H199	H	1.265965	-0.645695	1.518973
H200	H	1.765965	-0.145695	2.018973
H201	H	1.530984	-0.481259	1.265427
H202	H	2.030984	0.018741	1.765427
C203	C	1.295984	-0.627098	1.115738
C204	C	1.795984	-0.127098	1.615738
C205	C	1.321592	-0.700815	1.092478
C206	C	1.821592	-0.200815	1.592478
C207	C	1.249080	-0.745936	1.137807
C208	C	1.749080	-0.245936	1.637807
H209	H	1.296318	-0.626939	1.188592
H210	H	1.796318	-0.126939	1.688592
H211	H	1.229088	-0.607863	1.089393
H212	H	1.729088	-0.107863	1.589393
H213	H	1.388470	-0.720045	1.118828
H214	H	1.888470	-0.220045	1.618828
H215	H	1.321251	-0.700997	1.019633
H216	H	1.821251	-0.200997	1.519633
H217	H	1.182184	-0.726701	1.111462
H218	H	1.682184	-0.226701	1.611462
H219	H	1.249419	-0.745771	1.210659
H220	H	1.749419	-0.245771	1.710659
H221	H	1.266439	-0.795956	1.122024
H222	H	1.766439	-0.295956	1.622024
