data_functionalizedCrystal
_audit_creation_method	'MofGen! by Chris Wilmer'
_symmetry_space_group_name_H-M	'P1'
_symmetry_Int_Tables_number	1
_symmetry_cell_setting	triclinic
loop_
_symmetry_equiv_pos_as_xyz
  x,y,z
_cell_length_a	13.032831
_cell_length_b	12.759394
_cell_length_c	13.034356
_cell_angle_alpha	82.789753
_cell_angle_beta	74.815040
_cell_angle_gamma	82.819699
loop_
_atom_site_label
_atom_site_type_symbol
_atom_site_fract_x
_atom_site_fract_y
_atom_site_fract_z
Zn1	Zn	1.700220	-0.532623	-0.806459
Zn2	Zn	1.677545	-0.728122	-0.628836
Zn3	Zn	1.500024	-0.532632	-0.606342
Zn4	Zn	1.522572	-0.688429	-0.783887
O5	O	1.600090	-0.620452	-0.706381
O6	O	1.845851	-0.575164	-0.801757
O7	O	1.635070	-0.718806	-0.477212
O8	O	1.526634	-0.385612	-0.632920
O9	O	1.829191	-0.718797	-0.671258
O10	O	1.673717	-0.385606	-0.779946
O11	O	1.504647	-0.575180	-0.460686
O12	O	1.354377	-0.536691	-0.611033
O13	O	1.565064	-0.651145	-0.935521
O14	O	1.370943	-0.651154	-0.741475
O15	O	1.695580	-0.536676	-0.952104
O16	O	1.656934	-0.869875	-0.649371
O17	O	1.543077	-0.840713	-0.763287
C18	C	1.324119	-0.589617	-0.671365
C19	C	1.206061	-0.576448	-0.656410
C20	C	1.161639	-0.627325	-0.714186
C21	C	1.039619	-0.613715	-0.698731
C22	C	1.600023	-0.893415	-0.706347
C23	C	1.600096	-1.010197	-0.706381
C24	C	1.718771	-1.040510	-0.587875
C25	C	1.778137	-1.110529	-0.528638
C26	C	1.778203	-1.220255	-0.528675
C27	C	1.718899	-1.259962	-0.587957
C28	C	1.659532	-1.189942	-0.647194
C29	C	1.659470	-1.080216	-0.647148
C30	C	1.540865	-1.159629	-0.765705
C31	C	1.540792	-1.049903	-0.765663
C32	C	1.481561	-1.199336	-0.824987
C33	C	1.422187	-1.129316	-0.884219
C34	C	1.422122	-1.019585	-0.884179
C35	C	1.481425	-0.979884	-0.824900
C36	C	1.877139	-0.651407	-0.741535
C37	C	1.995201	-0.664599	-0.756515
C38	C	1.635367	-0.589482	-0.983431
C39	C	1.650399	-0.576284	-1.101493
C40	C	1.600189	-0.346423	-0.706442
C41	C	1.600232	-0.229648	-0.706468
C42	C	1.608058	-0.613404	-1.267947
C43	C	1.592518	-0.627044	-1.145923
C44	C	1.565012	-0.651232	-0.430417
C45	C	1.550185	-0.664156	-0.312381
H46	H	0.987320	-0.560075	-0.637825
C47	C	1.231191	-0.698844	-0.795495
C48	C	1.166564	-0.743123	-0.845822
C49	C	1.230597	-0.809001	-0.920743
H50	H	1.269288	-0.753980	-0.760346
H51	H	1.280362	-0.658349	-0.847345
H52	H	1.117412	-0.783616	-0.793980
H53	H	1.128467	-0.688011	-0.880992
H54	H	1.279768	-0.768506	-0.972592
H55	H	1.268691	-0.864131	-0.885584
H56	H	1.186758	-0.839044	-0.954905
C57	C	1.842482	-1.296407	-0.464286
C58	C	1.773756	-1.360406	-0.388581
C59	C	1.832935	-1.430581	-0.329261
H60	H	1.877810	-1.257188	-0.428878
H61	H	1.893910	-1.339833	-0.510813
H62	H	1.722347	-1.316985	-0.342060
H63	H	1.738427	-1.399649	-0.423960
H64	H	1.884363	-1.474007	-0.375788
H65	H	1.868260	-1.391353	-0.293859
H66	H	1.786315	-1.474019	-0.277895
H67	H	1.153759	-0.522811	-0.595508
C68	C	1.511251	-0.698642	-1.076276
C69	C	1.537766	-0.802192	-1.106079
C70	C	1.462941	-0.868181	-1.041932
H71	H	1.442134	-0.673427	-1.085294
H72	H	1.511640	-0.698393	-1.003521
H73	H	1.537366	-0.802438	-1.178816
H74	H	1.606871	-0.827439	-1.097056
H75	H	1.463330	-0.867931	-0.969177
H76	H	1.393828	-0.842956	-1.050955
H77	H	1.480926	-0.938448	-1.062138
C78	C	1.468922	-0.735751	-1.242730
C79	C	1.495437	-0.839301	-1.272533
C80	C	1.420612	-0.905289	-1.208386
H81	H	1.399805	-0.710535	-1.251749
H82	H	1.469311	-0.735502	-1.169976
H83	H	1.495038	-0.839547	-1.345270
H84	H	1.564542	-0.864548	-1.263510
H85	H	1.421001	-0.905040	-1.135632
H86	H	1.351499	-0.880064	-1.217410
H87	H	1.438598	-0.975557	-1.228592
C88	C	1.731905	-0.504869	-1.171031
C89	C	1.782301	-0.460711	-1.106389
C90	C	1.857399	-0.394931	-1.170410
H91	H	1.696883	-0.449669	-1.209181
H92	H	1.783700	-0.545412	-1.220151
H93	H	1.730515	-0.420170	-1.057289
H94	H	1.817345	-0.515886	-1.068239
H95	H	1.909193	-0.435474	-1.219530
H96	H	1.822368	-0.339738	-1.208558
H97	H	1.891608	-0.364970	-1.126561
H98	H	1.047499	-0.718228	-0.817432
H99	H	1.718968	-1.349307	-0.587992
H100	H	1.826425	-1.078190	-0.480373
C101	C	1.718870	-0.921414	-0.587731
C102	C	1.783526	-0.901627	-0.523156
C103	C	1.783655	-0.791928	-0.523007
H104	H	1.648035	-0.890947	-0.560581
H105	H	1.745956	-0.890893	-0.658591
H106	H	1.756437	-0.932135	-0.452310
H107	H	1.854370	-0.932068	-0.550291
H108	H	1.810740	-0.761407	-0.593867
H109	H	1.712817	-0.761471	-0.495858
H110	H	1.827531	-0.778488	-0.479202
H111	H	1.373911	-1.161656	-0.932488
C112	C	1.481771	-1.318456	-0.825246
C113	C	1.521725	-1.346405	-0.929830
C114	C	1.521946	-1.456131	-0.930108
H115	H	1.410953	-1.337878	-0.798217
H116	H	1.525657	-1.354510	-0.781530
H117	H	1.477839	-1.310365	-0.973531
H118	H	1.592546	-1.327010	-0.956879
H119	H	1.565832	-1.492185	-0.886392
H120	H	1.451126	-1.475543	-0.903076
H121	H	1.549063	-1.475110	-1.001066
H122	H	1.373784	-0.962579	-0.932422
H123	H	1.481371	-0.890542	-0.824854
H124	H	1.669114	-0.559859	-1.320244
