data_functionalizedCrystal
_audit_creation_method	'MofGen! by Chris Wilmer'
_symmetry_space_group_name_H-M	'P1'
_symmetry_Int_Tables_number	1
_symmetry_cell_setting	triclinic
loop_
_symmetry_equiv_pos_as_xyz
  x,y,z
_cell_length_a	19.805407
_cell_length_b	11.169416
_cell_length_c	11.169409
_cell_angle_alpha	89.970541
_cell_angle_beta	90.031361
_cell_angle_gamma	89.997145
loop_
_atom_site_label
_atom_site_type_symbol
_atom_site_fract_x
_atom_site_fract_y
_atom_site_fract_z
Zn1	Zn	-1.034875	-0.477755	-0.678912
Zn2	Zn	-1.034824	-0.678495	-0.478239
Zn3	Zn	-0.921680	-0.477820	-0.478209
Zn4	Zn	-0.921697	-0.678390	-0.678846
O5	O	-0.978269	-0.578115	-0.578551
O6	O	-1.129585	-0.504400	-0.652333
O7	O	-1.019786	-0.651946	-0.310285
O8	O	-0.936709	-0.309861	-0.504847
O9	O	-1.129547	-0.651883	-0.504899
O10	O	-1.019874	-0.309814	-0.652303
O11	O	-0.936659	-0.504511	-0.310263
O12	O	-0.826965	-0.504409	-0.504783
O13	O	-0.936740	-0.651704	-0.846805
O14	O	-0.826978	-0.651767	-0.652191
O15	O	-1.019891	-0.504298	-0.846853
O16	O	-1.019803	-0.846431	-0.504835
O17	O	-0.936689	-0.846353	-0.652220
C18	C	-0.802413	-0.578084	-0.578477
C19	C	-0.727181	-0.578100	-0.578474
C20	C	-0.265414	-0.654974	-0.655221
C21	C	-0.336103	-0.654974	-0.655200
C22	C	-0.371419	-0.578132	-0.578563
C23	C	-0.336043	-0.501294	-0.501934
C24	C	-0.265356	-0.501302	-0.501950
C25	C	-0.621117	-0.501263	-0.501866
C26	C	-0.691809	-0.501259	-0.501858
C27	C	-0.691863	-0.654935	-0.655116
C28	C	-0.621176	-0.654943	-0.655132
C29	C	-0.585807	-0.578110	-0.578499
C30	C	-0.509158	-0.578113	-0.578521
C31	C	-0.448066	-0.578122	-0.578546
C32	C	-0.978261	-0.889939	-0.578550
C33	C	-0.978319	-1.023339	-0.578589
C34	C	-0.978323	-0.577982	-0.891594
C35	C	-0.978346	-0.577925	-1.024994
C36	C	-0.154812	-0.578141	-0.578612
C37	C	-0.230044	-0.578140	-0.578600
C38	C	-0.978295	-0.265072	-0.578579
C39	C	-0.978307	-0.131672	-0.578591
C40	C	-0.978254	-0.578161	-0.266727
C41	C	-0.978362	-0.577879	-0.133327
H42	H	-0.364899	-0.717543	-0.717590
H43	H	-0.720670	-0.717499	-0.717511
C44	C	-0.582329	-0.739471	-0.739433
C45	C	-0.621236	-0.823995	-0.823712
C46	C	-0.582389	-0.908528	-0.908011
C47	C	-0.504636	-0.908537	-0.908031
C48	C	-0.465725	-0.824009	-0.823749
C49	C	-0.504571	-0.739476	-0.739450
H50	H	-0.678797	-0.823991	-0.823700
H51	H	-0.611194	-0.971100	-0.970402
H52	H	-0.475880	-0.971113	-0.970435
H53	H	-0.408164	-0.824013	-0.823761
H54	H	-0.475766	-0.676904	-0.677059
H55	H	-0.236558	-0.438732	-0.439560
H56	H	-0.236665	-0.717542	-0.717635
H57	H	-0.720561	-0.438680	-0.439449
C58	C	-0.582216	-0.416765	-0.417556
C59	C	-0.621065	-0.332254	-0.333249
C60	C	-0.582161	-0.247762	-0.248924
C61	C	-0.504408	-0.247780	-0.248907
C62	C	-0.465554	-0.332294	-0.333218
C63	C	-0.504459	-0.416786	-0.417542
H64	H	-0.678626	-0.332238	-0.333259
H65	H	-0.610923	-0.185199	-0.186512
H66	H	-0.475609	-0.185234	-0.186485
H67	H	-0.407993	-0.332310	-0.333208
H68	H	-0.475696	-0.479349	-0.479954
H69	H	-0.364804	-0.438734	-0.439529
