data_functionalizedCrystal
_audit_creation_method	'MofGen! by Chris Wilmer'
_symmetry_space_group_name_H-M	'P1'
_symmetry_Int_Tables_number	1
_symmetry_cell_setting	triclinic
loop_
_symmetry_equiv_pos_as_xyz
  x,y,z
_cell_length_a	18.050591
_cell_length_b	18.050590
_cell_length_c	18.050565
_cell_angle_alpha	89.906981
_cell_angle_beta	89.930112
_cell_angle_gamma	90.004047
loop_
_atom_site_label
_atom_site_type_symbol
_atom_site_fract_x
_atom_site_fract_y
_atom_site_fract_z
Zn1	Zn	1.135756	-0.295199	-0.420082
Zn2	Zn	1.635756	0.204801	0.079918
Zn3	Zn	1.135604	-0.419556	-0.295912
Zn4	Zn	1.635604	0.080444	0.204088
Zn5	Zn	1.011469	-0.295375	-0.295893
Zn6	Zn	1.511469	0.204625	0.204107
Zn7	Zn	1.011567	-0.419343	-0.420048
Zn8	Zn	1.511567	0.080657	0.079952
O9	O	1.073599	-0.357368	-0.357984
O10	O	1.573599	0.142632	0.142016
O11	O	1.239660	-0.311710	-0.403633
O12	O	1.739660	0.188290	0.096367
O13	O	1.119033	-0.403246	-0.191985
O14	O	1.619033	0.096754	0.308015
O15	O	1.027978	-0.191427	-0.312373
O16	O	1.527978	0.308573	0.187627
O17	O	1.239549	-0.403075	-0.312406
O18	O	1.739549	0.096925	0.187594
O19	O	1.119291	-0.191298	-0.403614
O20	O	1.619291	0.308702	0.096386
O21	O	1.027831	-0.312011	-0.191970
O22	O	1.527831	0.187989	0.308030
O23	O	0.907557	-0.311805	-0.312340
O24	O	1.407557	0.188195	0.187660
O25	O	1.028145	-0.402712	-0.523978
O26	O	1.528145	0.097288	-0.023978
O27	O	0.907629	-0.402883	-0.403556
O28	O	1.407629	0.097117	0.096444
O29	O	1.119386	-0.311504	-0.524002
O30	O	1.619386	0.188496	-0.024002
O31	O	1.119128	-0.523452	-0.312373
O32	O	1.619128	-0.023452	0.187627
O33	O	1.027998	-0.523296	-0.403575
O34	O	1.527998	-0.023296	0.096425
C35	C	0.880647	-0.357341	-0.357943
C36	C	1.380647	0.142659	0.142057
C37	C	0.798101	-0.357347	-0.357943
C38	C	1.298101	0.142653	0.142057
C39	C	1.073577	-0.550320	-0.357989
C40	C	1.573577	-0.050320	0.142011
C41	C	1.073636	-0.632866	-0.358016
C42	C	1.573636	-0.132866	0.141984
C43	C	1.073793	-0.357065	-0.551690
C44	C	1.573793	0.142935	-0.051690
C45	C	1.073876	-0.356936	-0.634236
C46	C	1.573876	0.143064	-0.134236
C47	C	0.598590	-0.307761	-0.308454
C48	C	1.098590	0.192239	0.191546
C49	C	0.549178	-0.375522	-0.290189
C50	C	1.049178	0.124478	0.209811
C51	C	0.646971	-0.357369	-0.357976
C52	C	1.146971	0.142631	0.142024
C53	C	0.549300	-0.289631	-0.376239
C54	C	1.049300	0.210369	0.123761
C55	C	0.500985	-0.357385	-0.358007
C56	C	1.000985	0.142615	0.141993
C57	C	0.598646	-0.425166	-0.339676
C58	C	1.098646	0.074834	0.160324
C59	C	0.598773	-0.339230	-0.425758
C60	C	1.098773	0.160770	0.074242
C61	C	0.549384	-0.407038	-0.407519
C62	C	1.049384	0.092962	0.092481
C63	C	0.731069	-0.357359	-0.357957
C64	C	1.231069	0.142641	0.142043
C65	C	0.416889	-0.357403	-0.358027
C66	C	0.916889	0.142597	0.141973
C67	C	1.267304	-0.357397	-0.358026
C68	C	1.767304	0.142603	0.141974
C69	C	1.349850	-0.357409	-0.358043
C70	C	1.849850	0.142591	0.141957
C71	C	1.073641	-0.163663	-0.357995
C72	C	1.573641	0.336337	0.142005
C73	C	1.073659	-0.081117	-0.358000
C74	C	1.573659	0.418883	0.142000
C75	C	1.123312	0.118404	-0.407632
C76	C	1.623312	0.618404	0.092368
C77	C	1.141408	0.167689	-0.339884
C78	C	1.641408	0.667689	0.160116
C79	C	1.073651	0.070013	-0.358004
C80	C	1.573651	0.570013	0.141996
C81	C	1.055582	0.167811	-0.425754
C82	C	1.555582	0.667811	0.074246
C83	C	1.073646	0.215999	-0.358013
C84	C	1.573646	0.715999	0.141987
C85	C	1.091783	0.118211	-0.290219
C86	C	1.591783	0.618211	0.209781
C87	C	1.005925	0.118328	-0.376136
C88	C	1.505925	0.618328	0.123864
C89	C	1.023996	0.167590	-0.308340
C90	C	1.523996	0.667590	0.191660
C91	C	1.073657	-0.014085	-0.357999
C92	C	1.573657	0.485915	0.142001
C93	C	1.073640	0.300095	-0.358010
C94	C	1.573640	0.800095	0.141990
C95	C	1.073448	-0.357617	-0.165031
C96	C	1.573448	0.142383	0.334969
C97	C	1.073509	-0.357537	-0.082486
C98	C	1.573509	0.142463	0.417514
C99	C	1.123635	-0.406529	0.116994
C100	C	1.623635	0.093471	0.616994
C101	C	1.056051	-0.425111	0.166577
C102	C	1.556051	0.074889	0.666577
C103	C	1.073631	-0.357335	0.068644
C104	C	1.573631	0.142665	0.568644
C105	C	1.141333	-0.338590	0.166143
C106	C	1.641333	0.161410	0.666143
C107	C	1.073755	-0.357140	0.214629
C108	C	1.573755	0.142860	0.714629
C109	C	1.006010	-0.375954	0.117140
C110	C	1.506010	0.124046	0.617140
C111	C	1.091338	-0.289401	0.116701
C112	C	1.591338	0.210599	0.616701
C113	C	1.023707	-0.307957	0.166262
C114	C	1.523707	0.192043	0.666262
C115	C	1.073560	-0.357448	-0.015454
C116	C	1.573560	0.142552	0.484546
C117	C	1.073818	-0.357026	0.298725
C118	C	1.573818	0.142974	0.798725
H119	H	0.620197	-0.265853	-0.266528
H120	H	1.120197	0.234147	0.233472
H121	H	0.981997	0.189053	-0.266327
H122	H	1.481997	0.689053	0.233673
H123	H	0.527913	-0.449046	-0.449412
H124	H	1.027913	0.050954	0.050588
H125	H	1.165816	-0.448247	0.095361
H126	H	1.665816	0.051753	0.595361
C127	C	0.966595	-0.251644	0.195310
C128	C	1.466595	0.248356	0.695310
H129	H	0.991112	-0.215121	0.224122
H130	H	1.491112	0.284879	0.724122
H131	H	0.930975	-0.276521	0.225091
H132	H	1.430975	0.223479	0.725091
H133	H	0.942473	-0.228538	0.154631
H134	H	1.442473	0.271462	0.654631
H135	H	0.948791	-0.391790	0.095700
H136	H	1.448791	0.108210	0.595700
C137	C	1.111532	-0.211928	0.087085
C138	C	1.611532	0.288072	0.587085
H139	H	1.159632	-0.198752	0.103827
H140	H	1.659632	0.301248	0.603827
H141	H	1.076547	-0.176784	0.104685
H142	H	1.576547	0.323216	0.604685
H143	H	1.110895	-0.212460	0.034463
H144	H	1.610895	0.287540	0.534463
C145	C	0.928582	0.089006	-0.396882
C146	C	1.428582	0.589006	0.103118
H147	H	0.915818	0.105960	-0.445058
H148	H	1.415818	0.605960	0.054942
H149	H	0.893177	0.106579	-0.362124
H150	H	1.393177	0.606579	0.137876
H151	H	0.929042	0.036380	-0.396283
H152	H	1.429042	0.536380	0.103717
H153	H	0.527397	-0.390876	-0.232880
H154	H	1.027397	0.109124	0.267120
H155	H	1.107134	0.096518	-0.232912
H156	H	1.607134	0.596518	0.267088
C157	C	1.034928	0.197227	-0.503150
C158	C	1.534928	0.697227	-0.003150
H159	H	1.070262	0.180376	-0.538345
H160	H	1.570262	0.680376	-0.038345
H161	H	1.034625	0.249847	-0.502500
H162	H	1.534625	0.749847	-0.002500
H163	H	0.987157	0.179588	-0.516361
H164	H	1.487157	0.679588	-0.016361
C165	C	1.035886	-0.502605	0.196171
C166	C	1.535886	-0.002605	0.696171
H167	H	1.071418	-0.537570	0.179309
H168	H	1.571418	-0.037570	0.679309
H169	H	0.988179	-0.516193	0.178673
H170	H	1.488179	-0.016193	0.678673
H171	H	1.035638	-0.501860	0.248795
H172	H	1.535638	-0.001860	0.748795
C173	C	1.218604	-0.317273	0.195230
C174	C	1.718604	0.182727	0.695230
H175	H	1.214960	-0.273440	0.224068
H176	H	1.714960	0.226560	0.724068
H177	H	1.251011	-0.308870	0.154573
H178	H	1.751011	0.191130	0.654573
H179	H	1.237508	-0.356365	0.225009
H180	H	1.737508	0.143635	0.725009
C181	C	0.627796	-0.502585	-0.318733
C182	C	1.127796	-0.002585	0.181267
H183	H	0.587156	-0.534906	-0.310028
H184	H	1.087156	-0.034906	0.189972
H185	H	0.657030	-0.499159	-0.275149
H186	H	1.157030	0.000841	0.224851
H187	H	0.657180	-0.521457	-0.358112
H188	H	1.157180	-0.021457	0.141888
C189	C	0.628166	-0.318496	-0.503184
C190	C	1.128166	0.181504	-0.003184
H191	H	0.657125	-0.358136	-0.522128
H192	H	1.157125	0.141864	-0.022128
H193	H	0.657864	-0.275191	-0.499766
H194	H	1.157864	0.224809	0.000234
H195	H	0.587618	-0.309384	-0.535441
H196	H	1.087618	0.190616	-0.035441
C197	C	0.520021	-0.212238	-0.397095
C198	C	1.020021	0.287762	0.102905
H199	H	0.536877	-0.177049	-0.361849
H200	H	1.036877	0.322951	0.138151
H201	H	0.467400	-0.212905	-0.397402
H202	H	0.967400	0.287095	0.102598
H203	H	0.537739	-0.199007	-0.444898
H204	H	1.037739	0.300993	0.055102
H205	H	1.198681	0.189371	-0.324546
H206	H	1.698681	0.689371	0.175454
C207	C	1.180088	0.089214	-0.464248
C208	C	1.680088	0.589214	0.035752
H209	H	1.228184	0.106115	-0.451243
H210	H	1.728184	0.606115	0.048757
H211	H	1.167729	0.106923	-0.512253
H212	H	1.667729	0.606923	-0.012253
H213	H	1.179387	0.036589	-0.464161
H214	H	1.679387	0.536589	0.035839
