data_functionalizedCrystal
_audit_creation_method	'MofGen! by Chris Wilmer'
_symmetry_space_group_name_H-M	'P1'
_symmetry_Int_Tables_number	1
_symmetry_cell_setting	triclinic
loop_
_symmetry_equiv_pos_as_xyz
  x,y,z
_cell_length_a	14.519731
_cell_length_b	13.596369
_cell_length_c	10.654550
_cell_angle_alpha	90.004649
_cell_angle_beta	95.913122
_cell_angle_gamma	89.994072
loop_
_atom_site_label
_atom_site_type_symbol
_atom_site_fract_x
_atom_site_fract_y
_atom_site_fract_z
O1	O	1.224711	-0.081791	-0.164752
O2	O	0.956337	-0.081792	-0.184111
O3	O	1.096695	-0.081788	0.008366
O4	O	1.084354	-0.081795	-0.357229
O5	O	1.096679	0.081795	0.008376
O6	O	0.956322	0.081791	-0.184101
O7	O	1.224696	0.081792	-0.164743
Zn8	Zn	1.090506	0.107764	-0.174421
Zn9	Zn	1.090527	-0.107764	-0.174433
O10	O	1.084338	0.081788	-0.357220
C11	C	0.921965	-0.000001	-0.183199
C12	C	0.819571	-0.000001	-0.180481
C13	C	0.736415	-0.000005	-0.178272
C14	C	0.632092	-0.000006	-0.175513
C15	C	0.548942	-0.000005	-0.173322
C16	C	0.444612	-0.000008	-0.170563
N17	N	1.090499	0.254855	-0.174411
C18	C	1.090519	0.656146	-0.174438
C19	C	1.090511	0.544495	-0.174435
C20	C	1.090509	0.455505	-0.174426
C21	C	1.090500	0.343846	-0.174421
C22	C	1.259068	-0.000002	-0.165655
C23	C	1.361462	-0.000007	-0.168373
C24	C	1.095781	0.000002	0.055160
C25	C	1.093070	-0.000001	0.194578
N26	N	1.090533	0.745144	-0.174437
C27	C	1.085252	-0.000005	-0.404014
C28	C	1.087963	-0.000008	-0.543432
C29	C	1.175710	0.000002	0.274850
C30	C	1.173157	-0.000005	0.405846
C31	C	1.005317	-0.000014	0.376286
C32	C	1.007871	-0.000014	0.245292
C33	C	1.260909	0.000015	0.224135
C34	C	1.343556	0.000020	0.304408
C35	C	1.341003	0.000013	0.435405
C36	C	1.255804	0.000002	0.486128
H37	H	1.262997	0.000024	0.117473
H38	H	1.412923	0.000005	0.263100
O39	O	0.922503	0.000113	0.425407
C40	C	0.778284	0.084887	0.440295
C41	C	0.872030	0.084851	0.384562
H42	H	0.737458	0.153401	0.407315
H43	H	0.737346	0.016473	0.407211
H44	H	0.790677	0.084842	0.547706
H45	H	0.859722	0.084931	0.277149
H46	H	0.912937	0.153259	0.417744
O47	O	0.927535	-0.000147	0.167434
C48	C	0.784907	-0.084938	0.102014
C49	C	0.875842	-0.084891	0.190283
H50	H	0.743097	-0.153456	0.120437
H51	H	0.742945	-0.016528	0.120491
H52	H	0.801395	-0.084893	-0.000310
H53	H	0.859438	-0.084970	0.292637
H54	H	0.917779	-0.153294	0.171697
H55	H	1.253732	-0.000014	0.592796
H56	H	1.408299	0.000007	0.500760
