data_functionalizedCrystal
_audit_creation_method	'MofGen! by Chris Wilmer'
_symmetry_space_group_name_H-M	'P1'
_symmetry_Int_Tables_number	1
_symmetry_cell_setting	triclinic
loop_
_symmetry_equiv_pos_as_xyz
  x,y,z
_cell_length_a	14.908558
_cell_length_b	18.050590
_cell_length_c	14.908308
_cell_angle_alpha	93.264736
_cell_angle_beta	90.175599
_cell_angle_gamma	86.713657
loop_
_atom_site_label
_atom_site_type_symbol
_atom_site_fract_x
_atom_site_fract_y
_atom_site_fract_z
Zn1	Zn	1.345315	-0.387578	-0.587551
Zn2	Zn	1.353900	-0.505045	-0.437185
Zn3	Zn	1.203629	-0.373312	-0.428550
Zn4	Zn	1.194927	-0.504160	-0.578838
O5	O	1.274443	-0.442524	-0.508031
O6	O	1.472280	-0.409501	-0.574864
O7	O	1.341201	-0.481970	-0.310215
O8	O	1.222473	-0.271284	-0.449675
O9	O	1.478588	-0.495803	-0.464391
O10	O	1.326568	-0.281765	-0.566492
O11	O	1.230797	-0.385186	-0.303871
O12	O	1.076648	-0.384329	-0.441226
O13	O	1.207642	-0.494296	-0.705818
O14	O	1.070255	-0.480462	-0.551642
O15	O	1.318131	-0.408644	-0.712219
O16	O	1.332763	-0.608848	-0.455943
O17	O	1.215967	-0.608199	-0.560014
C18	C	1.040826	-0.430752	-0.494552
C19	C	0.940883	-0.425735	-0.488807
C20	C	1.274376	-0.635471	-0.507991
C21	C	1.274427	-0.718020	-0.508009
C22	C	0.803314	-0.368546	-0.423317
C23	C	0.897220	-0.373257	-0.428712
C24	C	0.890633	-0.473505	-0.543515
C25	C	0.796727	-0.468795	-0.538121
C26	C	0.753071	-0.416315	-0.478019
C27	C	0.659163	-0.411608	-0.472621
C28	C	0.652578	-0.511853	-0.587429
C29	C	0.746484	-0.516563	-0.592823
C30	C	1.338061	-0.917807	-0.451505
C31	C	1.355288	-0.971914	-0.534833
C32	C	1.274476	-0.869155	-0.508048
C33	C	1.257339	-0.962135	-0.424763
C34	C	1.274526	-1.015143	-0.508078
C35	C	1.291743	-0.922178	-0.591420
C36	C	1.193759	-0.912391	-0.481293
C37	C	1.210951	-0.966477	-0.564675
C38	C	1.274450	-0.785054	-0.508029
C39	C	1.274551	-1.099242	-0.508106
C40	C	1.508971	-0.454342	-0.521563
C41	C	1.608914	-0.459379	-0.527329
C42	C	1.260958	-0.452962	-0.742556
C43	C	1.255212	-0.457411	-0.842496
C44	C	1.274533	-0.248826	-0.508092
C45	C	1.274572	-0.166283	-0.508118
C46	C	1.359463	-0.376562	-1.036962
C47	C	1.354067	-0.380739	-1.130865
C48	C	1.239018	-0.469938	-1.124207
C49	C	1.244415	-0.465761	-1.030304
C50	C	1.304640	-0.419072	-0.986685
C51	C	1.310040	-0.414899	-0.892780
C52	C	1.194988	-0.504093	-0.886124
C53	C	1.189592	-0.508270	-0.980027
C54	C	1.287927	-0.432075	-0.274421
C55	C	1.293847	-0.427426	-0.174491
H56	H	0.623620	-0.368876	-0.423684
C57	C	1.134680	-0.550858	-0.830811
N58	N	1.089258	-0.586081	-0.789149
H59	H	0.611660	-0.550749	-0.631971
C60	C	1.138330	-0.995179	-0.629366
N61	N	1.083634	-1.016798	-0.678094
H62	H	0.938124	-0.334356	-0.384171
H63	H	1.398707	-0.346121	-1.171798
C64	C	0.794517	-0.574291	-0.658927
N65	N	0.830694	-0.617777	-0.708715
C66	C	1.425714	-0.325209	-0.988979
N67	N	1.475616	-0.286528	-0.952840
C68	C	1.311467	-0.898387	-0.686622
N69	N	1.326328	-0.880465	-0.758326
H70	H	0.926194	-0.516228	-0.592452
C71	C	1.237724	-0.986056	-0.329593
N72	N	1.222957	-1.004070	-0.257909
H73	H	1.189986	-0.507949	-1.159738
H74	H	1.140557	-0.546281	-1.015554
C75	C	1.101546	-0.877262	-0.450660
N76	N	1.032093	-0.850798	-0.427577
H77	H	1.391847	-0.896431	-0.403743
H78	H	0.767769	-0.325816	-0.374378
C79	C	1.447533	-1.007016	-0.565426
N80	N	1.517013	-1.033454	-0.588462
H81	H	1.359080	-0.376884	-0.857267
