data_functionalizedCrystal
_audit_creation_method	'MofGen! by Chris Wilmer'
_symmetry_space_group_name_H-M	'P1'
_symmetry_Int_Tables_number	1
_symmetry_cell_setting	triclinic
loop_
_symmetry_equiv_pos_as_xyz
  x,y,z
_cell_length_a	16.625546
_cell_length_b	12.759401
_cell_length_c	12.759393
_cell_angle_alpha	90.018496
_cell_angle_beta	89.963806
_cell_angle_gamma	89.977371
loop_
_atom_site_label
_atom_site_type_symbol
_atom_site_fract_x
_atom_site_fract_y
_atom_site_fract_z
Zn1	Zn	-0.320951	-1.606199	-0.593948
Zn2	Zn	0.179049	-1.106199	-0.093948
Zn3	Zn	-0.455807	-1.606069	-0.418253
Zn4	Zn	0.044193	-1.106069	0.081747
Zn5	Zn	-0.320993	-1.430501	-0.418287
Zn6	Zn	0.179007	-0.930501	0.081713
Zn7	Zn	-0.455745	-1.430465	-0.593895
Zn8	Zn	0.044255	-0.930465	-0.093895
O9	O	-0.388374	-1.518308	-0.506096
O10	O	0.111626	-1.018308	-0.006096
O11	O	-0.338848	-1.753203	-0.570649
O12	O	0.161152	-1.253203	-0.070649
O13	O	-0.437968	-1.582740	-0.271237
O14	O	0.062032	-1.082740	0.228763
O15	O	-0.208155	-1.453876	-0.441625
O16	O	0.291845	-0.953876	0.058375
O17	O	-0.437927	-1.753107	-0.441568
O18	O	0.062073	-1.253107	0.058432
O19	O	-0.208124	-1.582961	-0.570682
O20	O	0.291876	-1.082961	-0.070682
O21	O	-0.338920	-1.453751	-0.271261
O22	O	0.161080	-0.953751	0.228739
O23	O	-0.338860	-1.283475	-0.441574
O24	O	0.161140	-0.783475	0.058426
O25	O	-0.437821	-1.453816	-0.740923
O26	O	0.062179	-0.953816	-0.240923
O27	O	-0.437862	-1.283449	-0.570592
O28	O	0.062138	-0.783449	-0.070592
O29	O	-0.338788	-1.582927	-0.740962
O30	O	0.161212	-1.082927	-0.240962
O31	O	-0.568632	-1.582706	-0.441517
O32	O	-0.068632	-1.082706	0.058483
O33	O	-0.568586	-1.453691	-0.570560
O34	O	-0.068586	-0.953691	-0.070560
C35	C	-0.388359	-1.245341	-0.506081
C36	C	0.111641	-0.745341	-0.006081
C37	C	-0.388372	-1.128564	-0.506100
C38	C	0.111628	-0.628564	-0.006100
C39	C	-0.597865	-1.518209	-0.506052
C40	C	-0.097865	-1.018209	-0.006052
C41	C	-0.687486	-1.518263	-0.506068
C42	C	-0.187486	-1.018263	-0.006068
C43	C	-0.388293	-1.518382	-0.780129
C44	C	0.111707	-1.018382	-0.280129
C45	C	-0.388258	-1.518413	-0.896906
C46	C	0.111742	-1.018413	-0.396906
C47	C	-1.015662	-1.518446	-0.506177
C48	C	-0.515662	-1.018446	-0.006177
C49	C	-0.924353	-1.518392	-0.506150
C50	C	-0.424353	-1.018392	-0.006150
C51	C	-0.851577	-1.518353	-0.506122
C52	C	-0.351577	-1.018353	-0.006122
C53	C	-0.760262	-1.518301	-0.506096
C54	C	-0.260262	-1.018301	-0.006096
C55	C	-0.178065	-1.518437	-0.506163
C56	C	0.321935	-1.018437	-0.006163
C57	C	-0.088444	-1.518492	-0.506191
C58	C	0.411556	-1.018492	-0.006191
C59	C	-0.388390	-1.792342	-0.506111
C60	C	0.111610	-1.292342	-0.006111
C61	C	-0.388396	-1.909118	-0.506117
C62	C	0.111604	-1.409118	-0.006117
C63	C	-0.440005	-1.073717	-0.573169
C64	C	0.059995	-0.573717	-0.073169
C65	C	-0.440015	-0.963992	-0.573180
C66	C	0.059985	-0.463992	-0.073180
C67	C	-0.336758	-0.963974	-0.439045
C68	C	0.163242	-0.463974	0.060955
C69	C	-0.336744	-1.073696	-0.439040
C70	C	0.163256	-0.573696	0.060960
C71	C	-0.499623	-1.073726	-0.650608
C72	C	0.000377	-0.573726	-0.150608
C73	C	-0.499633	-0.964002	-0.650619
C74	C	0.000367	-0.464002	-0.150619
C75	C	-0.336687	-1.585650	-0.951790
C76	C	0.163313	-1.085650	-0.451790
C77	C	-0.336657	-1.585675	-1.061514
C78	C	0.163343	-1.085675	-0.561514
C79	C	-0.439778	-1.451223	-1.061461
C80	C	0.060222	-0.951223	-0.561461
C81	C	-0.439803	-1.451194	-0.951739
C82	C	0.060197	-0.951194	-0.451739
C83	C	-0.277153	-1.663279	-0.951821
C84	C	0.222847	-1.163279	-0.451821
C85	C	-0.277124	-1.663304	-1.061546
C86	C	0.222876	-1.163304	-0.561546
C87	C	-0.388397	-1.518296	-0.233128
C88	C	0.111603	-1.018296	0.266872
C89	C	-0.388204	-1.518468	-0.116352
C90	C	0.111796	-1.018468	0.383648
H91	H	-0.294694	-1.118349	-0.384433
H92	H	0.205306	-0.618349	0.115567
Br93	Br	-0.603679	-0.914312	-0.614018
Br94	Br	-0.103679	-0.414312	-0.114018
H95	H	-0.214709	-1.641521	-0.922072
H96	H	0.285291	-1.141521	-0.422072
H97	H	-0.481794	-1.396439	-0.907056
H98	H	0.018206	-0.896439	-0.407056
Br99	Br	-0.471871	-1.123424	-0.786290
Br100	Br	0.028129	-0.623424	-0.286290
H101	H	-0.299539	-1.740546	-0.917783
H102	H	0.200461	-1.240546	-0.417783
H103	H	-0.558911	-1.107730	-0.621317
H104	H	-0.058911	-0.607730	-0.121317
Br105	Br	-0.304984	-1.798920	-1.111186
Br106	Br	0.195016	-1.298920	-0.611186
H107	H	-0.477343	-0.930008	-0.727974
H108	H	0.022657	-0.430008	-0.227974
H109	H	-0.294723	-0.919287	-0.384448
H110	H	0.205277	-0.419287	0.115552
H111	H	-0.217792	-1.634200	-1.095600
H112	H	0.282208	-1.134200	-0.595600
H113	H	-0.481742	-1.396493	-1.106119
H114	H	0.018258	-0.896493	-0.606119
