data_functionalizedCrystal
_audit_creation_method	'MofGen! by Chris Wilmer'
_symmetry_space_group_name_H-M	'P1'
_symmetry_Int_Tables_number	1
_symmetry_cell_setting	triclinic
loop_
_symmetry_equiv_pos_as_xyz
  x,y,z
_cell_length_a	14.908779
_cell_length_b	13.032721
_cell_length_c	13.033109
_cell_angle_alpha	74.856674
_cell_angle_beta	93.504272
_cell_angle_gamma	93.510971
loop_
_atom_site_label
_atom_site_type_symbol
_atom_site_fract_x
_atom_site_fract_y
_atom_site_fract_z
Zn1	Zn	-1.378216	0.580799	-0.572348
Zn2	Zn	-1.344550	0.733884	-0.419292
Zn3	Zn	-1.212513	0.548467	-0.404607
Zn4	Zn	-1.212483	0.748533	-0.604684
O5	O	-1.286940	0.652920	-0.500233
O6	O	-1.498367	0.608506	-0.544658
O7	O	-1.312958	0.689626	-0.269556
O8	O	-1.248596	0.404961	-0.407179
O9	O	-1.473633	0.720977	-0.432208
O10	O	-1.370337	0.428715	-0.530419
O11	O	-1.215952	0.553401	-0.258767
O12	O	-1.087892	0.567605	-0.438534
O13	O	-1.248544	0.745944	-0.748182
O14	O	-1.087869	0.714593	-0.585530
O15	O	-1.370308	0.622711	-0.724426
O16	O	-1.312928	0.883622	-0.463563
O17	O	-1.215899	0.894384	-0.599770
C18	C	-1.055569	0.639181	-0.513948
C19	C	-0.956587	0.633332	-0.519844
C20	C	-1.260784	0.927329	-0.536790
C21	C	-1.249679	1.044732	-0.552460
C22	C	-0.744830	0.739244	-0.413598
C23	C	-0.651827	0.733752	-0.419135
C24	C	-0.677577	0.616861	-0.536460
C25	C	-0.770579	0.622353	-0.530923
C26	C	-0.804203	0.683546	-0.469489
C27	C	-0.897207	0.689032	-0.463946
C28	C	-0.922955	0.572148	-0.581277
C29	C	-0.829952	0.566655	-0.586814
C30	C	-1.313178	0.689568	-0.775695
C31	C	-1.324359	0.705185	-0.893081
C32	C	-0.519215	0.666706	-0.486456
C33	C	-0.618197	0.672561	-0.480563
C34	C	-1.313226	0.377445	-0.463554
C35	C	-1.324427	0.260053	-0.447924
C36	C	-1.292788	1.091723	-0.492099
C37	C	-1.281311	1.213065	-0.508293
C38	C	-1.281347	0.644746	-0.940077
C39	C	-1.292902	0.660885	-1.061401
C40	C	-1.260863	0.616342	-0.225829
C41	C	-1.249883	0.600438	-0.108394
H42	H	-0.924581	0.738856	-0.413921
Br43	Br	-1.205722	0.538570	-0.857441
Br44	Br	-1.174007	1.127395	-0.658588
H45	H	-1.204499	0.536743	-1.058814
H46	H	-1.369838	1.210457	-0.384256
Br47	Br	-1.368534	0.767061	-1.144033
Br48	Br	-1.003537	0.496536	-0.657118
Br49	Br	-1.399988	0.811356	-0.975716
H50	H	-0.603489	0.779109	-0.373625
Br51	Br	-0.790467	0.822282	-0.330220
H52	H	-0.650184	0.567051	-0.586487
H53	H	-0.802563	0.516837	-0.636835
H54	H	-1.235908	1.262664	-0.571968
Br55	Br	-1.368477	1.009063	-0.385989
