data_functionalizedCrystal
_audit_creation_method	'MofGen! by Chris Wilmer'
_symmetry_space_group_name_H-M	'P1'
_symmetry_Int_Tables_number	1
_symmetry_cell_setting	triclinic
loop_
_symmetry_equiv_pos_as_xyz
  x,y,z
_cell_length_a	15.944551
_cell_length_b	15.944551
_cell_length_c	15.021413
_cell_angle_alpha	90.002826
_cell_angle_beta	89.996935
_cell_angle_gamma	83.498738
loop_
_atom_site_label
_atom_site_type_symbol
_atom_site_fract_x
_atom_site_fract_y
_atom_site_fract_z
O1	O	-0.108321	-1.114529	-0.073941
O2	O	-0.121677	-0.869979	-0.073964
O3	O	0.007276	-0.998932	-0.073944
O4	O	-0.237274	-0.985576	-0.073961
O5	O	0.007257	-0.998912	0.074121
O6	O	-0.121695	-0.869959	0.074101
O7	O	-0.108339	-1.114508	0.074123
Zn8	Zn	-0.115020	-0.992230	0.097620
Zn9	Zn	-0.114996	-0.992257	-0.097461
O10	O	-0.237292	-0.985555	0.074103
C11	C	-0.121132	-0.838675	0.000066
C12	C	-0.119470	-0.745429	0.000057
C13	C	0.038561	-0.998367	0.000089
C14	C	0.131807	-0.996705	0.000089
C15	C	-0.108885	-1.145813	0.000092
C16	C	-0.110547	-1.239059	0.000094
C17	C	-0.268577	-0.986120	0.000069
C18	C	-0.361823	-0.987782	0.000063
C19	C	0.346663	-0.912801	0.000069
C20	C	0.407672	-0.951753	0.073077
C21	C	0.302533	-0.993698	0.000082
C22	C	0.407673	-0.951792	-0.072903
C23	C	0.467445	-0.990787	0.000071
C24	C	0.362313	-1.032672	0.073150
C25	C	0.362308	-1.032700	-0.072895
C26	C	0.423298	-1.071711	0.000131
C27	C	0.207530	-0.995372	0.000089
C28	C	0.562446	-0.989119	0.000070
N29	N	-0.115036	-0.992218	0.230758
C30	C	-0.035565	-0.530572	0.000081
C31	C	-0.074518	-0.469562	-0.072926
C32	C	-0.116462	-0.574703	0.000068
C33	C	-0.074556	-0.469564	0.073054
C34	C	-0.113551	-0.409790	0.000083
C35	C	-0.155438	-0.514921	-0.072998
C36	C	-0.155464	-0.514930	0.073047
C37	C	-0.194476	-0.453937	0.000023
C38	C	-0.118137	-0.669705	0.000059
C39	C	-0.111883	-0.314789	0.000085
N40	N	-0.114973	-0.992276	-0.230598
C41	C	-0.174636	-0.932581	0.470432
C42	C	-0.190943	-1.008481	0.529772
C43	C	-0.115015	-0.992239	0.412365
C44	C	-0.098727	-0.916360	0.529766
C45	C	-0.114997	-0.992253	0.587789
C46	C	-0.131360	-1.068178	0.470398
C47	C	-0.039111	-0.976006	0.470387
C48	C	-0.055386	-1.051962	0.529701
C49	C	-0.115028	-0.992230	0.311307
C50	C	-0.114984	-0.992271	0.688844
H51	H	0.313356	-0.845652	0.000136
O52	O	0.044551	-0.570282	-0.000157
C53	C	0.086906	-0.547295	-0.077263
H54	H	0.038693	-0.525302	-0.130794
H55	H	0.126167	-0.493910	-0.060603
C56	C	0.204481	-0.651020	-0.045934
C57	C	0.145265	-0.624015	-0.111685
H58	H	0.240483	-0.698342	-0.067166
H59	H	0.175948	-0.666505	0.006015
H60	H	0.237190	-0.606526	-0.032057
H61	H	0.112551	-0.668505	-0.125552
H62	H	0.173794	-0.608539	-0.163637
O63	O	-0.196145	-0.539063	0.146698
C64	C	-0.140904	-0.596156	0.196732
H65	H	-0.089092	-0.627418	0.151484
H66	H	-0.111315	-0.560686	0.252304
C67	C	-0.254156	-0.625809	0.293013
C68	C	-0.190524	-0.664211	0.237437
H69	H	-0.284764	-0.667786	0.318126
H70	H	-0.291374	-0.587342	0.259307
H71	H	-0.229489	-0.596252	0.339316
H72	H	-0.215193	-0.693757	0.191129
H73	H	-0.153312	-0.702684	0.271136
O74	O	-0.033619	-0.445703	0.146660
C75	C	0.050134	-0.485096	0.146372
H76	H	0.054166	-0.544502	0.103637
H77	H	0.093699	-0.439848	0.117877
C78	C	0.072377	-0.436037	0.294765
C79	C	0.077326	-0.509005	0.242283
H80	H	0.089153	-0.450783	0.353928
H81	H	0.015951	-0.409495	0.294959
H82	H	0.108681	-0.398338	0.271009
H83	H	0.041015	-0.546698	0.266033
H84	H	0.133747	-0.535554	0.242096
H85	H	-0.261683	-0.420779	-0.000023
H86	H	-0.040295	-0.449461	-0.134642
O87	O	0.338553	-1.073366	0.146962
C88	C	0.362179	-1.030874	0.223713
H89	H	0.416227	-0.992594	0.206701
H90	H	0.305928	-0.986731	0.248880
C91	C	0.324580	-1.142811	0.317431
C92	C	0.390968	-1.095802	0.296538
H93	H	0.342335	-1.182861	0.362355
H94	H	0.308660	-1.171438	0.265723
H95	H	0.277711	-1.106017	0.338399
H96	H	0.437832	-1.132594	0.275561
H97	H	0.406897	-1.067183	0.348245
O98	O	-0.196158	-0.538917	-0.146689
C99	C	-0.197219	-0.627215	-0.145813
H100	H	-0.143304	-0.657407	-0.102545
H101	H	-0.259939	-0.642965	-0.117593
C102	C	-0.252701	-0.624522	-0.294569
C103	C	-0.186478	-0.661606	-0.241432
H104	H	-0.246080	-0.645737	-0.353551
H105	H	-0.251990	-0.565034	-0.295158
H106	H	-0.304962	-0.637651	-0.271042
H107	H	-0.134220	-0.648468	-0.264953
H108	H	-0.187180	-0.721092	-0.240849
O109	O	-0.234940	-0.872545	0.439417
C110	C	-0.314854	-0.889983	0.469696
H111	H	-0.312487	-0.959967	0.486336
H112	H	-0.332844	-0.850946	0.531808
C113	C	-0.383947	-0.781270	0.375952
C114	C	-0.381043	-0.867228	0.396382
H115	H	-0.424778	-0.767231	0.330731
H116	H	-0.330108	-0.769519	0.355554
H117	H	-0.398937	-0.748750	0.427718
H118	H	-0.366044	-0.899747	0.344619
H119	H	-0.434882	-0.878984	0.416769
O120	O	-0.267508	-1.024758	0.561006
C121	C	-0.302547	-0.956597	0.613942
H122	H	-0.249913	-0.920412	0.639959
H123	H	-0.348239	-0.912645	0.572190
C124	C	-0.414846	-1.034837	0.661065
C125	C	-0.350199	-0.990399	0.693026
H126	H	-0.444243	-1.055686	0.709846
H127	H	-0.391242	-1.080758	0.625399
H128	H	-0.452913	-0.998203	0.626272
H129	H	-0.312128	-1.027036	0.727809
H130	H	-0.373798	-0.944485	0.728700
O131	O	0.431601	-0.910792	0.146638
C132	C	0.392181	-0.827049	0.146385
H133	H	0.373943	-0.807564	0.075341
H134	H	0.333099	-0.822642	0.189650
C135	C	0.475967	-0.791776	0.270890
C136	C	0.453574	-0.767842	0.183632
H137	H	0.513835	-0.755254	0.293869
H138	H	0.502524	-0.848196	0.271064
H139	H	0.426726	-0.788103	0.306934
H140	H	0.502813	-0.771525	0.147588
H141	H	0.427027	-0.711421	0.183453
O142	O	0.462719	-1.151944	0.000232
C143	C	0.401805	-1.209514	0.000982
H144	H	0.340068	-1.177329	0.029358
H145	H	0.390886	-1.231525	-0.069859
C146	C	0.509241	-1.325672	0.024314
C147	C	0.433416	-1.286144	0.059173
H148	H	0.528740	-1.372943	0.060206
H149	H	0.550280	-1.286887	0.023805
H150	H	0.500131	-1.344007	-0.034719
H151	H	0.442529	-1.267800	0.118201
H152	H	0.392378	-1.324928	0.059693
H153	H	-0.145206	-1.132368	0.444430
H154	H	-0.004956	-1.102474	0.555561
O155	O	0.037399	-0.959438	0.439278
C156	C	0.054325	-0.879338	0.469492
H157	H	-0.007600	-0.839473	0.486178
H158	H	0.095620	-0.887016	0.531563
C159	C	0.176737	-0.884286	0.375615
C160	C	0.100680	-0.835320	0.396101
H161	H	0.205334	-0.857134	0.330346
H162	H	0.165336	-0.938252	0.355261
H163	H	0.211139	-0.890681	0.427347
H164	H	0.066275	-0.828936	0.344373
H165	H	0.112076	-0.781352	0.416444
O166	O	-0.082394	-0.839730	0.560769
C167	C	-0.145431	-0.777025	0.530587
H168	H	-0.176207	-0.800214	0.468103
H169	H	-0.195251	-0.763167	0.584658
C170	C	-0.067617	-0.667441	0.585726
C171	C	-0.105412	-0.695920	0.508978
H172	H	-0.042934	-0.617411	0.572401
H173	H	-0.025149	-0.709687	0.606063
H174	H	-0.109141	-0.655900	0.630778
H175	H	-0.063887	-0.707472	0.463932
H176	H	-0.147872	-0.653675	0.488633
O177	O	0.338316	-1.073373	-0.146614
C178	C	0.361181	-1.030524	-0.223440
H179	H	0.367944	-0.962041	-0.205956
H180	H	0.423824	-1.062298	-0.250073
C181	C	0.284093	-1.117419	-0.316479
C182	C	0.292393	-1.033305	-0.295005
H183	H	0.241664	-1.119137	-0.360626
H184	H	0.268691	-1.146290	-0.264720
H185	H	0.336301	-1.143888	-0.338668
H186	H	0.240190	-1.006841	-0.272807
H187	H	0.307785	-1.004430	-0.346762
H188	H	0.427758	-0.917574	-0.134630
