data_functionalizedCrystal
_audit_creation_method	'MofGen! by Chris Wilmer'
_symmetry_space_group_name_H-M	'P1'
_symmetry_Int_Tables_number	1
_symmetry_cell_setting	triclinic
loop_
_symmetry_equiv_pos_as_xyz
  x,y,z
_cell_length_a	8.559649
_cell_length_b	15.995350
_cell_length_c	7.088929
_cell_angle_alpha	83.778427
_cell_angle_beta	95.324505
_cell_angle_gamma	76.635520
loop_
_atom_site_label
_atom_site_type_symbol
_atom_site_fract_x
_atom_site_fract_y
_atom_site_fract_z
O1	O	2.103726	-0.018743	-0.158981
O2	O	1.638522	0.024498	-0.158983
O3	O	1.883841	-0.119828	-0.158980
O4	O	1.858407	0.125583	-0.158984
O5	O	1.916625	-0.139155	0.158995
O6	O	1.671306	0.005172	0.158992
O7	O	2.136510	-0.038070	0.158994
Cu8	Cu	1.906902	-0.018214	0.188027
Cu9	Cu	1.868130	0.004642	-0.188016
O10	O	1.891191	0.106256	0.158992
C11	C	1.595384	0.018112	0.000004
C12	C	1.418004	0.027867	0.000003
C13	C	1.899181	-0.160618	0.000004
C14	C	1.896028	-0.253365	-0.000007
C15	C	1.884708	-0.590385	-0.000001
C16	C	1.709923	-0.531673	-0.000715
C17	C	1.713150	-0.435229	0.000002
C18	C	1.890323	-0.423185	-0.000005
C19	C	1.995218	-0.480841	0.181572
C20	C	1.990844	-0.577203	0.181724
C21	C	1.957172	-0.555815	-0.179874
C22	C	1.956883	-0.458722	-0.182274
C23	C	1.893506	-0.328693	-0.000001
C24	C	1.881531	-0.684879	0.000008
C25	C	2.179648	-0.031684	0.000003
C26	C	2.357026	-0.041437	-0.000009
C27	C	1.875851	0.147047	0.000003
C28	C	1.879003	0.239795	0.000001
N29	N	1.934183	-0.034291	0.452515
N30	N	1.840862	0.020712	-0.452504
H31	H	1.334505	0.094665	-0.000017
H32	H	1.653753	-0.554667	0.128772
H33	H	1.744145	0.077711	0.465849
H34	H	2.030918	-0.091288	0.534172
Br35	Br	2.213332	-0.471937	0.192830
Br36	Br	1.621883	-0.394676	0.217309
Br37	Br	1.918689	-0.440816	0.406802
H38	H	1.631991	-0.394540	-0.130159
Br39	Br	1.496195	-0.152780	-0.000011
Br40	Br	2.170342	-0.445848	-0.200576
Br41	Br	1.571146	-0.541879	-0.217749
Br42	Br	1.909430	-0.614727	0.407954
Br43	Br	2.206046	-0.645540	0.195471
Br44	Br	1.838300	-0.569971	-0.409260
Br45	Br	2.171657	-0.622432	-0.181921
H46	H	1.880029	-0.419257	-0.316599
