data_functionalizedCrystal
_audit_creation_method	'MofGen! by Chris Wilmer'
_symmetry_space_group_name_H-M	'P1'
_symmetry_Int_Tables_number	1
_symmetry_cell_setting	triclinic
loop_
_symmetry_equiv_pos_as_xyz
  x,y,z
_cell_length_a	10.654550
_cell_length_b	27.732048
_cell_length_c	9.130313
_cell_angle_alpha	89.990549
_cell_angle_beta	89.999724
_cell_angle_gamma	83.563793
loop_
_atom_site_label
_atom_site_type_symbol
_atom_site_fract_x
_atom_site_fract_y
_atom_site_fract_z
O1	O	1.664986	0.067886	-0.121708
O2	O	1.299235	0.074354	-0.121737
O3	O	1.493470	0.000794	-0.121693
O4	O	1.470751	0.141446	-0.121751
O5	O	1.493457	0.000792	0.121905
O6	O	1.299222	0.074351	0.121862
O7	O	1.664973	0.067884	0.121891
Cu8	Cu	1.482096	0.071117	0.144119
Cu9	Cu	1.482112	0.071120	-0.143965
O10	O	1.470738	0.141444	0.121848
C11	C	1.252451	0.073878	0.000060
C12	C	1.113067	0.072457	0.000050
C13	C	1.031761	0.115768	0.000036
C14	C	0.900796	0.114430	0.000063
C15	C	0.932457	0.026466	0.000110
C16	C	1.063419	0.027805	0.000094
C17	C	1.492986	-0.017217	0.000110
C18	C	1.491550	-0.070881	0.000122
C19	C	1.597290	-0.409038	0.000055
C20	C	1.591962	-0.610730	0.000034
O21	O	1.688653	-0.641384	-0.000022
N22	N	1.476789	-0.630571	0.000027
C23	C	1.362940	-0.599986	0.000015
O24	O	1.264855	-0.621490	-0.000008
C25	C	1.368269	-0.398294	0.000025
C26	C	1.483449	-0.378456	0.000047
C27	C	1.712461	-0.389199	0.000076
C28	C	1.713792	-0.338779	0.000089
C29	C	1.599951	-0.308197	0.000081
C30	C	1.484780	-0.328036	0.000061
C31	C	1.254421	-0.367709	0.000002
C32	C	1.255764	-0.317284	0.000001
C33	C	1.370944	-0.297446	0.000024
C34	C	1.372271	-0.247034	0.000066
N35	N	1.487444	-0.227193	0.000074
C36	C	1.601284	-0.257774	0.000081
C37	C	1.360150	-0.705877	0.000012
C38	C	1.358817	-0.756300	0.000012
C39	C	1.587840	-0.767041	0.000029
C40	C	1.589171	-0.716617	0.000039
C41	C	1.475323	-0.686036	0.000020
C42	C	1.604070	-0.151888	0.000110
C43	C	1.605391	-0.101463	0.000130
C44	C	1.376369	-0.090726	0.000105
C45	C	1.375047	-0.141147	0.000093
C46	C	1.488908	-0.171727	0.000091
O47	O	1.275631	-0.216352	0.000106
O48	O	1.699354	-0.236261	0.000071
C49	C	1.595959	-0.459458	0.000042
C50	C	1.480788	-0.479296	0.000021
C51	C	1.366947	-0.448715	0.000013
C52	C	1.479455	-0.529719	0.000021
C53	C	1.593296	-0.560301	0.000029
C54	C	1.708469	-0.540460	0.000036
C55	C	1.709799	-0.490040	0.000049
C56	C	1.251774	-0.468556	0.000006
C57	C	1.250453	-0.518976	-0.000006
C58	C	1.364293	-0.549558	0.000002
C59	C	1.711757	0.068360	0.000092
C60	C	1.851141	0.069781	0.000092
C61	C	1.471221	0.159455	0.000041
C62	C	1.472657	0.213118	0.000020
N63	N	1.482094	0.071115	0.346742
N64	N	1.482123	0.071118	-0.346587
C65	C	1.568130	0.038557	0.423413
C66	C	1.568142	0.038557	0.576750
C67	C	1.396079	0.103678	0.576731
C68	C	1.396062	0.103675	0.423397
H69	H	1.129623	-0.007466	0.000109
N70	N	0.881760	-0.019146	0.000156
N71	N	0.906995	-0.048445	0.102852
H72	H	0.871194	-0.080661	0.102883
H73	H	1.326035	0.130189	0.639159
H74	H	1.638181	0.012044	0.361004
N75	N	1.136766	-0.387966	-0.000063
N76	N	1.110482	-0.414892	-0.102767
H77	H	1.027381	-0.429198	-0.102820
H78	H	1.801162	-0.565368	0.000049
N79	N	1.656010	0.005289	0.655052
N80	N	1.655153	-0.039391	0.637933
H81	H	1.717211	-0.062891	0.693229
N82	N	1.308195	0.136937	0.345047
N83	N	1.308198	0.136929	0.208143
H84	H	1.246145	0.160418	0.152804
N85	N	1.082456	0.161381	-0.000007
N86	N	1.009840	0.200048	-0.000016
H87	H	1.045638	0.232264	-0.000042
H88	H	0.834601	0.149698	0.000054
H89	H	1.699189	-0.085314	0.000152
H90	H	1.680533	-0.791950	0.000036
N91	N	1.720386	-0.183113	0.000134
N92	N	1.797188	-0.181077	0.102835
H93	H	1.879338	-0.203129	0.102863
N94	N	1.831458	-0.318527	0.000106
N95	N	1.933083	-0.345845	0.000107
H96	H	2.016193	-0.331546	0.000114
H97	H	1.682961	-0.700469	0.000056
N98	N	1.828770	-0.420425	0.000106
N99	N	1.905571	-0.418384	0.102806
H100	H	1.987724	-0.440434	0.102839
H101	H	1.265026	-0.772447	0.000019
H102	H	1.267435	-0.680982	-0.000004
N103	N	1.139479	-0.286038	-0.000030
N104	N	1.114684	-0.256696	-0.102712
H105	H	1.032560	-0.234629	-0.102732
N106	N	1.257400	-0.161417	0.000125
N107	N	1.180882	-0.152200	0.102816
H108	H	1.097792	-0.166514	0.102834
N109	N	1.260092	-0.059481	0.000053
N110	N	1.183295	-0.061506	-0.102659
H111	H	1.101174	-0.039437	-0.102711
H112	H	1.803591	-0.473892	0.000067
H113	H	1.156652	-0.535123	-0.000011
H114	H	1.159069	-0.443660	-0.000004
