data_functionalizedCrystal
_audit_creation_method	'MofGen! by Chris Wilmer'
_symmetry_space_group_name_H-M	'P1'
_symmetry_Int_Tables_number	1
_symmetry_cell_setting	triclinic
loop_
_symmetry_equiv_pos_as_xyz
  x,y,z
_cell_length_a	16.109301
_cell_length_b	16.109301
_cell_length_c	7.540329
_cell_angle_alpha	89.999760
_cell_angle_beta	89.998953
_cell_angle_gamma	96.538519
loop_
_atom_site_label
_atom_site_type_symbol
_atom_site_fract_x
_atom_site_fract_y
_atom_site_fract_z
O1	O	-0.106866	1.103130	-0.147352
O2	O	-0.120165	0.861068	-0.147378
O3	O	0.007515	0.988749	-0.147373
O4	O	-0.234547	0.975449	-0.147356
O5	O	0.007517	0.988741	0.147592
O6	O	-0.120164	0.861061	0.147587
O7	O	-0.106864	1.103123	0.147613
Cu8	Cu	-0.113514	0.982091	0.174533
Cu9	Cu	-0.113516	0.982100	-0.174297
O10	O	-0.234545	0.975442	0.147609
C11	C	-0.119626	0.830090	0.000101
C12	C	-0.118011	0.737794	0.000090
C13	C	-0.190018	0.515522	0.000116
C14	C	-0.188494	0.428801	0.000127
C15	C	-0.037006	0.448676	0.000109
C16	C	-0.038530	0.535394	0.000111
C17	C	-0.115039	0.568815	0.000105
C18	C	-0.111990	0.395376	0.000115
C19	C	-0.110337	0.301350	0.000127
C20	C	-0.116693	0.662847	0.000096
C21	C	-0.265521	0.975984	0.000129
C22	C	-0.357816	0.977600	0.000135
C23	C	-0.580088	0.905592	0.000102
C24	C	-0.666809	0.907116	0.000089
C25	C	-0.646934	1.058605	0.000113
C26	C	-0.560216	1.057080	0.000113
C27	C	-0.526795	0.980571	0.000117
C28	C	-0.700234	0.983620	0.000103
C29	C	-0.794260	0.985273	0.000089
C30	C	-0.432763	0.978917	0.000128
C31	C	0.038491	0.988206	0.000103
C32	C	0.130786	0.986591	0.000085
C33	C	-0.107404	1.134101	0.000130
C34	C	-0.109019	1.226397	0.000130
N35	N	-0.113512	0.982091	0.419881
N36	N	-0.113511	0.982107	-0.419646
H37	H	-0.249550	0.385413	0.000140
C38	C	0.043953	0.594024	0.000098
C39	C	0.063736	0.656371	0.153270
C40	C	0.146215	0.714999	0.153266
C41	C	0.208910	0.711281	0.000090
C42	C	0.189128	0.648932	-0.153093
C43	C	0.106649	0.590303	-0.153089
H44	H	0.017324	0.659125	0.266670
H45	H	0.160858	0.761154	0.266663
H46	H	0.269966	0.754681	0.000087
H47	H	0.235540	0.646177	-0.266494
H48	H	0.092006	0.544148	-0.266487
C49	C	-0.501586	1.139562	0.000130
C50	C	-0.538343	1.223719	0.000146
C51	C	-0.479713	1.306197	0.000154
C52	C	-0.384326	1.304518	0.000144
C53	C	-0.347564	1.220358	0.000127
C54	C	-0.406194	1.137880	0.000120
H55	H	-0.608958	1.224965	0.000154
H56	H	-0.506927	1.368498	0.000166
H57	H	-0.340925	1.365573	0.000149
H58	H	-0.276948	1.219112	0.000120
H59	H	-0.378980	1.075579	0.000108
H60	H	-0.252317	0.542730	0.000125
H61	H	0.025285	0.421454	0.000125
C62	C	-0.543324	0.821435	0.000085
C63	C	-0.563450	0.759146	0.153232
C64	C	-0.526687	0.674987	0.153207
C65	C	-0.469799	0.653117	0.000036
C66	C	-0.449670	0.715408	-0.153122
C67	C	-0.486433	0.799567	-0.153098
H68	H	-0.605564	0.775334	0.266628
H69	H	-0.541589	0.628876	0.266586
H70	H	-0.442586	0.590818	0.000018
H71	H	-0.407556	0.699220	-0.266519
H72	H	-0.471532	0.845678	-0.266476
H73	H	-0.710197	0.846060	0.000074
C74	C	-0.683701	1.142760	0.000129
C75	C	-0.740585	1.164631	0.153308
C76	C	-0.777350	1.248788	0.153331
C77	C	-0.757232	1.311074	0.000175
C78	C	-0.700346	1.289205	-0.153015
C79	C	-0.663581	1.205048	-0.153038
H80	H	-0.755480	1.118522	0.266693
H81	H	-0.819461	1.264977	0.266733
H82	H	-0.784448	1.373373	0.000193
H83	H	-0.685451	1.335314	-0.266400
H84	H	-0.621470	1.188859	-0.266440
