data_functionalizedCrystal
_audit_creation_method	'MofGen! by Chris Wilmer'
_symmetry_space_group_name_H-M	'P1'
_symmetry_Int_Tables_number	1
_symmetry_cell_setting	triclinic
loop_
_symmetry_equiv_pos_as_xyz
  x,y,z
_cell_length_a	14.628931
_cell_length_b	12.477989
_cell_length_c	12.477989
_cell_angle_alpha	89.511470
_cell_angle_beta	64.369326
_cell_angle_gamma	64.369026
loop_
_atom_site_label
_atom_site_type_symbol
_atom_site_fract_x
_atom_site_fract_y
_atom_site_fract_z
Zr1	Zr	1.088770	-0.193162	0.984931
O2	O	1.245630	-0.345093	0.833001
O3	O	0.908440	-0.146587	1.031505
O4	O	1.077035	-0.358109	1.044522
O5	O	1.094476	0.033282	0.809716
O6	O	1.094476	-0.368376	1.211375
O7	O	1.077035	-0.133571	0.819984
O8	O	0.792891	0.009998	1.188089
O9	O	1.396062	-0.345093	0.833001
O10	O	1.004321	-0.134386	1.175889
O11	O	1.004321	-0.002203	1.043706
O12	O	1.202820	-0.251243	1.059032
O13	O	1.202820	-0.119061	0.926849
Zr14	Zr	1.144404	0.056573	1.234664
Zr15	Zr	1.116587	-0.209537	1.251041
Zr16	Zr	1.116587	0.072948	0.968555
Zr17	Zr	1.328692	-0.193162	0.984931
Zr18	Zr	0.904482	0.056573	1.234664
O19	O	1.324734	0.009997	1.188090
O20	O	1.285182	-0.368377	1.211375
O21	O	1.285182	0.033281	0.809716
O22	O	0.987544	0.208504	1.386594
O23	O	0.947992	-0.169870	1.409879
O24	O	0.947992	0.231787	1.008220
O25	O	1.138697	-0.169871	1.409880
O26	O	1.156139	0.221520	1.175073
O27	O	1.138697	0.231787	1.008221
O28	O	1.156139	-0.003018	1.399612
O29	O	1.418173	-0.358109	1.044523
O30	O	0.815001	0.221520	1.175072
O31	O	0.837112	0.208504	1.386594
O32	O	0.815001	-0.003018	1.399611
O33	O	1.418172	-0.133571	0.819984
O34	O	1.440283	-0.146587	1.031506
O35	O	1.030354	0.114654	1.160563
O36	O	1.030354	-0.017528	1.292746
O37	O	1.228852	-0.134386	1.175889
O38	O	1.228852	-0.002204	1.043706
C39	C	0.816482	-0.068294	1.109797
C40	C	0.714629	-0.068294	1.109797
C41	C	1.081792	-0.047811	0.776935
C42	C	1.069983	-0.040860	0.663964
C43	C	1.151381	0.264568	1.089313
C44	C	1.163190	0.377539	1.082361
C45	C	0.669219	-0.133865	1.175368
C46	C	0.563949	-0.133866	1.175370
C47	C	1.416692	-0.068295	1.109798
C48	C	1.518545	-0.068295	1.109798
C49	C	1.081792	-0.401157	1.130282
C50	C	1.069983	-0.514128	1.137234
C51	C	1.151381	-0.088778	1.442661
C52	C	1.163190	-0.095729	1.555631
C53	C	0.851276	-0.088777	1.442660
C54	C	0.761232	-0.095729	1.555631
C55	C	0.851276	0.264569	1.089313
C56	C	0.761232	0.377540	1.082361
C57	C	0.886071	0.244086	1.422176
C58	C	0.807836	0.350105	1.528194
C59	C	1.347103	-0.380675	0.797419
C60	C	1.425338	-0.486694	0.691401
C61	C	1.381897	-0.047812	0.776935
C62	C	1.471941	-0.040860	0.663965
C63	C	1.381898	-0.401158	1.130282
C64	C	1.471942	-0.514129	1.137235
C65	C	0.705357	-0.160003	1.547685
C66	C	0.620760	-0.166559	1.653824
C67	C	0.592035	-0.108833	1.767907
C68	C	0.647920	-0.044557	1.775850
C69	C	0.732521	-0.038009	1.669713
C70	C	0.732536	0.491601	1.140093
C71	C	0.647944	0.597760	1.133555
C72	C	0.592044	0.589854	1.069292
C73	C	0.620747	0.475780	1.011552
C74	C	0.705343	0.369624	1.018083
C75	C	0.771097	0.330894	1.646991
C76	C	0.697600	0.430499	1.746617
C77	C	0.660837	0.549314	1.727444
C78	C	0.697583	0.568524	1.608635
C79	C	0.771085	0.468919	1.509012
C80	C	1.462089	-0.467483	0.572604
C81	C	1.535615	-0.567088	0.472978
C82	C	1.572383	-0.685903	0.492151
C83	C	1.535631	-0.705113	0.610960
C84	C	1.462112	-0.605508	0.710584
C85	C	1.527826	0.023403	0.671911
C86	C	1.612445	0.029929	0.565773
C87	C	1.641173	-0.027800	0.451691
C88	C	1.585285	-0.092072	0.443748
C89	C	1.500672	-0.098605	0.549884
C90	C	1.527817	-0.506183	1.201509
C91	C	1.612414	-0.612323	1.208065
C92	C	1.641139	-0.726406	1.150339
C93	C	1.585254	-0.734349	1.086063
C94	C	1.500653	-0.628211	1.079515
H95	H	0.708272	-0.189998	1.231512
C96	C	1.283205	0.368990	1.011709
H97	H	1.275668	0.448585	1.016141
H98	H	1.330140	0.322939	1.046500
H99	H	1.317838	0.330187	0.928886
C100	C	0.661862	0.007569	1.033977
H101	H	0.703993	0.048720	0.992850
H102	H	0.665234	-0.044771	0.975959
H103	H	0.583800	0.065588	1.086362
H104	H	0.524903	-0.190010	1.231503
C105	C	0.794027	0.500324	1.210768
H106	H	0.764823	0.583467	1.244194
H107	H	0.780733	0.457843	1.274667
H108	H	0.874471	0.465066	1.157026
H109	H	0.667688	0.414837	1.843348
H110	H	1.657909	-0.605831	1.260402
C111	C	0.949969	0.029801	0.672512
H112	H	0.957507	0.025374	0.592916
H113	H	0.903031	-0.004988	0.718559
H114	H	0.915339	0.112623	0.711318
H115	H	1.608688	-0.139072	0.350847
H116	H	1.455167	-0.634697	1.027171
C117	C	1.283210	-0.166265	0.547075
H118	H	1.275676	-0.161788	0.626669
H119	H	1.317944	-0.249098	0.508254
H120	H	1.330056	-0.131372	0.501039
H121	H	0.557594	-0.012160	1.053652
H122	H	0.981151	0.492195	1.189532
H123	H	0.728742	-0.207027	1.454804
H124	H	1.504444	0.070423	0.764792
H125	H	0.575267	-0.218898	1.647333
H126	H	0.778006	0.014337	1.676198
C127	C	0.811484	0.490060	1.378339
H128	H	0.860531	0.413730	1.321742
H129	H	0.746407	0.534746	1.366335
H130	H	0.852460	0.534737	1.366319
C131	C	0.498965	-0.116032	1.884647
H132	H	0.469798	-0.162570	1.863564
H133	H	0.531700	-0.153787	1.934820
H134	H	0.437961	-0.036170	1.927565
C135	C	0.498984	0.706630	1.062125
H136	H	0.489899	0.775689	1.105726
H137	H	0.521686	0.711749	0.979317
H138	H	0.427944	0.704506	1.096940
H139	H	0.600986	0.630408	1.808575
H140	H	0.624520	0.002440	1.868750
C141	C	0.559248	0.467092	0.940872
H142	H	0.588452	0.383958	0.907412
H143	H	0.478809	0.502360	0.994604
H144	H	0.572560	0.509586	0.876979
C145	C	0.736891	0.244163	0.954582
H146	H	0.691471	0.254669	0.915387
H147	H	0.816200	0.203820	0.895784
H148	H	0.722440	0.196605	1.013408
H149	H	1.565577	-0.801864	0.626557
H150	H	0.801018	0.234157	1.662625
C151	C	1.421670	-0.336799	0.551491
H152	H	1.454109	-0.339640	0.466466
H153	H	1.339977	-0.295058	0.587469
H154	H	1.446022	-0.295081	0.587489
C155	C	1.653246	-0.795461	0.382561
H156	H	1.669891	-0.868979	0.410986
H157	H	1.616854	-0.792499	0.334543
H158	H	1.722894	-0.792498	0.334552
C159	C	1.421678	-0.626655	0.841254
H160	H	1.454100	-0.711684	0.838393
H161	H	1.446005	-0.590670	0.883009
H162	H	1.339979	-0.590679	0.882969
C163	C	1.673897	0.100643	0.574532
H164	H	1.644649	0.134104	0.657677
H165	H	1.754339	0.046934	0.539298
H166	H	1.660591	0.164538	0.532039
H167	H	0.624586	0.690633	1.180580
C168	C	1.734243	-0.020601	0.334951
H169	H	1.763399	0.025952	0.356033
H170	H	1.795243	-0.100453	0.292021
H171	H	1.701493	0.017170	0.284789
H172	H	0.667640	0.665276	1.593042
H173	H	1.565526	-0.551424	0.376248
H174	H	1.455172	-0.150931	0.543397
C175	C	1.496232	-0.380707	1.265018
H176	H	1.541625	-0.391194	1.304243
H177	H	1.510667	-0.333139	1.206207
H178	H	1.416915	-0.340386	1.323815
H179	H	1.710029	-0.812820	1.155680
H180	H	1.608656	-0.827249	1.039065
