data_functionalizedCrystal
_audit_creation_method	'MofGen! by Chris Wilmer'
_symmetry_space_group_name_H-M	'P1'
_symmetry_Int_Tables_number	1
_symmetry_cell_setting	triclinic
loop_
_symmetry_equiv_pos_as_xyz
  x,y,z
_cell_length_a	15.944551
_cell_length_b	8.597340
_cell_length_c	7.088929
_cell_angle_alpha	103.954719
_cell_angle_beta	96.219322
_cell_angle_gamma	95.578809
loop_
_atom_site_label
_atom_site_type_symbol
_atom_site_fract_x
_atom_site_fract_y
_atom_site_fract_z
O1	O	-0.115357	2.101382	0.187196
O2	O	-0.129069	1.636700	0.110647
O3	O	0.000071	1.881729	0.151001
O4	O	-0.244497	1.856353	0.146843
O5	O	0.017368	1.914475	0.474369
O6	O	-0.111771	1.669446	0.434015
O7	O	-0.098060	2.134127	0.510564
Cu8	Cu	-0.103336	1.904777	0.501816
Cu9	Cu	-0.123792	1.866051	0.119396
O10	O	-0.227199	1.889098	0.470211
C11	C	-0.119911	1.593610	0.262536
C12	C	-0.118385	1.416428	0.233347
C13	C	-0.267141	1.873779	0.308703
C14	C	-0.360384	1.876939	0.309232
C15	C	-0.575121	2.036367	0.335466
C16	C	-0.627665	1.978478	0.482709
C17	C	-0.531107	1.882651	0.310156
C18	C	-0.644704	1.946157	0.163887
C19	C	-0.696016	1.888180	0.311042
C20	C	-0.582416	1.824733	0.457523
C21	C	-0.599456	1.792420	0.138562
C22	C	-0.651981	1.734423	0.285826
C23	C	-0.436106	1.879471	0.309648
C24	C	-0.791015	1.891349	0.311562
C25	C	0.040013	1.897048	0.312504
C26	C	0.133255	1.893887	0.311963
C27	C	-0.107217	2.177217	0.358671
C28	C	-0.108745	2.354397	0.387847
N29	N	-0.088948	1.932026	0.770791
N30	N	-0.138174	1.838815	-0.149578
H31	H	-0.101653	1.436841	0.542460
H32	H	-0.125470	1.333977	0.078724
H33	H	-0.541709	2.163976	0.356641
H34	H	-0.640512	2.057143	0.628213
O35	O	-0.680792	2.014228	-0.000471
H36	H	-0.750320	2.014892	0.000534
O37	O	-0.546450	1.756802	0.622117
H38	H	-0.477013	1.755064	0.620502
H39	H	-0.189186	1.742212	0.752867
O40	O	-0.696043	1.565288	0.258069
H41	H	-0.670851	1.515299	0.380100
H42	H	-0.586588	1.713808	-0.006939
O43	O	-0.021372	2.060005	0.900006
H44	H	-0.022563	2.057753	1.055592
