data_functionalizedCrystal
_audit_creation_method	'MofGen! by Chris Wilmer'
_symmetry_space_group_name_H-M	'P1'
_symmetry_Int_Tables_number	1
_symmetry_cell_setting	triclinic
loop_
_symmetry_equiv_pos_as_xyz
  x,y,z
_cell_length_a	16.120530
_cell_length_b	19.121063
_cell_length_c	16.120297
_cell_angle_alpha	95.179432
_cell_angle_beta	90.128140
_cell_angle_gamma	89.687057
loop_
_atom_site_label
_atom_site_type_symbol
_atom_site_fract_x
_atom_site_fract_y
_atom_site_fract_z
Zn1	Zn	1.228532	-0.355748	-0.551587
Zn2	Zn	1.229542	-0.467532	-0.417878
Zn3	Zn	1.097153	-0.343883	-0.404937
Zn4	Zn	1.083532	-0.466885	-0.549816
O5	O	1.159690	-0.408512	-0.481054
O6	O	1.344754	-0.375813	-0.540007
O7	O	1.218103	-0.446434	-0.299571
O8	O	1.119859	-0.247198	-0.419716
O9	O	1.345496	-0.457940	-0.441771
O10	O	1.216382	-0.255916	-0.527458
O11	O	1.120838	-0.355590	-0.290063
O12	O	0.979258	-0.354963	-0.417999
O13	O	1.096644	-0.456838	-0.666641
O14	O	0.969251	-0.445332	-0.524441
O15	O	1.203175	-0.375186	-0.667942
O16	O	1.204895	-0.565705	-0.440054
O17	O	1.097623	-0.565230	-0.536989
C18	C	0.944155	-0.398790	-0.469624
C19	C	0.851946	-0.394649	-0.464754
C20	C	0.683119	-0.387072	-0.455870
C21	C	0.637096	-0.430006	-0.506302
C22	C	0.543155	-0.425790	-0.501358
C23	C	0.777068	-0.391287	-0.460812
C24	C	1.149912	-0.590946	-0.489753
C25	C	1.145804	-0.668997	-0.493506
C26	C	1.199763	-0.705893	-0.444847
C27	C	1.195904	-0.779230	-0.448382
C28	C	1.138080	-0.815670	-0.500573
C29	C	1.084118	-0.778769	-0.549237
C30	C	1.087982	-0.705433	-0.545706
C31	C	1.123621	-1.037085	-0.513761
C32	C	1.119760	-1.110426	-0.517287
C33	C	1.231547	-1.110882	-0.416433
C34	C	1.235403	-1.037545	-0.412903
C35	C	1.181443	-1.000650	-0.461570
C36	C	1.134132	-0.890632	-0.504185
C37	C	1.185396	-0.925690	-0.457962
C38	C	1.376067	-0.418272	-0.492530
C39	C	1.468274	-0.422431	-0.497420
C40	C	1.148278	-0.417263	-0.698367
C41	C	1.143414	-0.420993	-0.790973
C42	C	1.169527	-0.225367	-0.472341
C43	C	1.173720	-0.147322	-0.468628
C44	C	1.134506	-0.427785	-0.960523
C45	C	1.185049	-0.389036	-1.002436
C46	C	1.180092	-0.392815	-1.096780
C47	C	1.139461	-0.424006	-0.866171
C48	C	1.171108	-0.399746	-0.264587
C49	C	1.176143	-0.395826	-0.171981
H50	H	0.651970	-0.347152	-0.408986
O51	O	1.248510	-0.815065	-0.401304
C52	C	1.356910	-0.902262	-0.400315
C53	C	1.297314	-0.861747	-0.453690
H54	H	1.396371	-0.940024	-0.442646
H55	H	1.398949	-0.863597	-0.362502
H56	H	1.319481	-0.933194	-0.356270
H57	H	1.334676	-0.830813	-0.497782
H58	H	1.255273	-0.900447	-0.491447
H59	H	1.087516	-0.463794	-0.995491
H60	H	1.282487	-1.007877	-0.370405
H61	H	1.072682	-1.140094	-0.559802
O62	O	0.674343	-0.477548	-0.562279
C63	C	0.765878	-0.495990	-0.680290
C64	C	0.723761	-0.442077	-0.616941
H65	H	0.805829	-0.467332	-0.724512
H66	H	0.806541	-0.532888	-0.645852
H67	H	0.716390	-0.527668	-0.717442
H68	H	0.773192	-0.410351	-0.579772
H69	H	0.683081	-0.405227	-0.651428
O70	O	1.256006	-0.670609	-0.394129
C71	C	1.366442	-0.678808	-0.294432
C72	C	1.302798	-0.718852	-0.351849
H73	H	1.404278	-0.717794	-0.260220
H74	H	1.409646	-0.647943	-0.333324
H75	H	1.332471	-0.641030	-0.247201
H76	H	1.336699	-0.756666	-0.399090
H77	H	1.259596	-0.749670	-0.312903
O78	O	1.283933	-1.146833	-0.369254
C79	C	1.327510	-1.260011	-0.329972
C80	C	1.268138	-1.219386	-0.383457
H81	H	1.314749	-1.318676	-0.341423
H82	H	1.394393	-1.249193	-0.347522
H83	H	1.317303	-1.242229	-0.261322
H84	H	1.278270	-1.237144	-0.452121
H85	H	1.201276	-1.230205	-0.365836
H86	H	1.037040	-0.808444	-0.591735
O87	O	1.071111	-1.001357	-0.561050
C88	C	0.959839	-1.008651	-0.661470
C89	C	1.019253	-1.049203	-0.607949
H90	H	0.917909	-1.047318	-0.699415
H91	H	0.920254	-0.970889	-0.619264
H92	H	0.997417	-0.977721	-0.705399
H93	H	0.981741	-1.080173	-0.564014
H94	H	1.058840	-1.086923	-0.650205
H95	H	1.044044	-0.675393	-0.585330
O96	O	1.241523	-0.890366	-0.407149
C97	C	1.290479	-0.864015	-0.266513
C98	C	1.226883	-0.904079	-0.323968
H99	H	1.278653	-0.875076	-0.199247
H100	H	1.355852	-0.881993	-0.285360
H101	H	1.283977	-0.805270	-0.272397
H102	H	1.233309	-0.962832	-0.318113
H103	H	1.161535	-0.886043	-0.305105
H104	H	1.087051	-0.920309	-0.546677
O105	O	1.241082	-0.346125	-0.960596
C106	C	1.297099	-0.303123	-0.827041
C107	C	1.233626	-0.351764	-0.874326
H108	H	1.291081	-0.307654	-0.757283
H109	H	1.362477	-0.319129	-0.848167
H110	H	1.284688	-0.246530	-0.840671
H111	H	1.245960	-0.408371	-0.860719
H112	H	1.168269	-0.335698	-0.853194
