data_functionalizedCrystal
_audit_creation_method	'MofGen! by Chris Wilmer'
_symmetry_space_group_name_H-M	'P1'
_symmetry_Int_Tables_number	1
_symmetry_cell_setting	triclinic
loop_
_symmetry_equiv_pos_as_xyz
  x,y,z
_cell_length_a	15.538191
_cell_length_b	23.532357
_cell_length_c	14.750779
_cell_angle_alpha	77.435721
_cell_angle_beta	97.572172
_cell_angle_gamma	65.050193
loop_
_atom_site_label
_atom_site_type_symbol
_atom_site_fract_x
_atom_site_fract_y
_atom_site_fract_z
O1	O	1.231097	-0.168728	-0.079809
O2	O	0.956199	-0.102835	-0.079819
O3	O	1.101967	-0.220410	-0.079794
O4	O	1.085329	-0.051153	-0.079834
O5	O	1.143174	-0.253644	0.079863
O6	O	0.997406	-0.136069	0.079838
O7	O	1.272303	-0.201962	0.079849
Zn8	Zn	1.141397	-0.174292	0.105192
Zn9	Zn	1.087105	-0.130505	-0.105163
O10	O	1.126535	-0.084388	0.079823
C11	C	0.941640	-0.112558	0.000008
C12	C	0.836867	-0.092022	0.000005
C13	C	0.551055	-0.296037	0.000039
C14	C	0.452601	-0.276726	0.000033
C15	C	0.429103	-0.168107	0.000008
C16	C	0.527558	-0.187410	0.000018
C17	C	0.588526	-0.251375	0.000032
C18	C	0.565029	-0.142748	0.000011
C19	C	0.663474	-0.162049	0.000016
C20	C	0.724448	-0.226011	0.000028
C21	C	0.686971	-0.270676	0.000037
C22	C	0.504058	-0.078781	-0.000010
C23	C	0.541529	-0.034120	-0.000016
C24	C	0.639978	-0.053421	-0.000004
C25	C	0.700951	-0.117383	0.000007
C26	C	0.677454	-0.008756	-0.000014
C27	C	0.775899	-0.028057	-0.000009
C28	C	0.799396	-0.136684	0.000012
C29	C	1.122155	-0.258159	0.000038
C30	C	1.120907	-0.321126	0.000047
C31	C	1.090582	-0.693414	-0.087035
C32	C	1.089391	-0.752571	-0.087040
O33	O	1.069642	-0.767749	-0.161055
N34	N	1.111263	-0.800278	-0.000012
C35	C	1.134317	-0.788824	0.087027
O36	O	1.152811	-0.834834	0.161051
C37	C	1.135501	-0.729666	0.087032
C38	C	1.113637	-0.681963	-0.000002
C39	C	1.068718	-0.645713	-0.174061
C40	C	1.069910	-0.586561	-0.174055
C41	C	1.092965	-0.575110	-0.087023
C42	C	1.114829	-0.622811	0.000004
C43	C	1.158548	-0.718211	0.174070
C44	C	1.159728	-0.659047	0.174067
C45	C	1.137864	-0.611345	0.087033
C46	C	1.139076	-0.552209	0.087042
N47	N	1.117204	-0.504502	0.000014
C48	C	1.094148	-0.515952	-0.087018
C49	C	1.131830	-0.913057	0.087011
C50	C	1.130654	-0.972216	0.087007
C51	C	1.085726	-0.935958	-0.087060
C52	C	1.086909	-0.876800	-0.087056
C53	C	1.109958	-0.865350	-0.000017
C54	C	1.096654	-0.391731	-0.087000
C55	C	1.097852	-0.332576	-0.086986
C56	C	1.142775	-0.368837	0.087081
C57	C	1.141582	-0.427988	0.087068
C58	C	1.118517	-0.439431	0.000020
O59	O	1.158812	-0.536984	0.161019
O60	O	1.075646	-0.469934	-0.161030
C61	C	1.286862	-0.192239	0.000019
C62	C	1.391633	-0.212773	0.000016
C63	C	1.106347	-0.046637	-0.000010
C64	C	1.107593	0.016330	-0.000026
N65	N	1.178457	-0.204178	0.248755
N66	N	1.050053	-0.100625	-0.248725
C67	C	0.946551	-0.017184	0.600533
C68	C	0.972527	-0.038124	0.701036
C69	C	1.101631	-0.142213	0.701021
C70	C	1.075663	-0.121283	0.600516
C71	C	0.998123	-0.058768	0.550279
C72	C	1.127234	-0.162867	0.550262
C73	C	1.101271	-0.141938	0.449765
C74	C	1.023737	-0.079424	0.399522
C75	C	0.972160	-0.037839	0.449782
C76	C	1.204778	-0.225381	0.600500
C77	C	1.256350	-0.266965	0.550247
C78	C	1.230383	-0.246037	0.449748
C79	C	1.152848	-0.183524	0.399505
C80	C	1.281960	-0.287623	0.399488
C81	C	1.255996	-0.266693	0.298991
C82	C	1.126885	-0.162594	0.299008
H83	H	0.491875	0.017962	-0.000032
C84	C	0.832741	-0.247242	0.000035
N85	N	0.914309	-0.263234	0.000042
C86	C	0.995176	-0.056402	0.288971
N87	N	0.973662	-0.039062	0.205705
C88	C	0.886824	0.030917	0.394517
N89	N	0.822541	0.082697	0.352890
C90	C	1.071297	-0.404313	-0.182757
N91	N	1.052209	-0.413792	-0.254881
H92	H	1.178483	-0.649726	0.244946
H93	H	0.883404	0.033719	0.559628
H94	H	0.736617	-0.322764	0.000054
H95	H	1.297993	-0.300555	0.258074
C96	C	0.395764	-0.057551	-0.000019
N97	N	0.314197	-0.041561	-0.000026
C98	C	1.182588	-0.770669	0.269816
N99	N	1.200692	-0.810178	0.341937
H100	H	1.159394	-0.466833	0.157938
H101	H	1.080049	-0.293737	-0.157862
H102	H	1.049940	-0.655025	-0.244938
C103	C	1.045847	-0.534091	-0.269800
N104	N	1.027717	-0.494572	-0.341921
H105	H	1.069104	-0.837963	-0.157926
H106	H	0.600701	-0.348125	0.000056
H107	H	1.066950	-0.945290	-0.157927
H108	H	1.148472	-1.011056	0.157879
H109	H	0.627797	0.043327	-0.000035
H110	H	1.063738	-0.111690	0.258104
H111	H	0.422097	-0.313099	0.000037
H112	H	0.849042	-0.188772	0.000029
C113	C	0.817121	0.021073	-0.000014
N114	N	0.848168	0.058079	-0.000020
H115	H	1.150603	-0.903741	0.157893
H116	H	1.161550	-0.359504	0.157941
H117	H	0.930525	-0.004255	0.741948
H118	H	0.379449	-0.116025	-0.000008
H119	H	1.164767	-0.193113	0.741935
H120	H	1.225917	-0.242418	0.682331
H121	H	1.319486	-0.317864	0.591161
C122	C	1.367255	-0.356387	0.454762
N123	N	1.431499	-0.408181	0.496394
