data_functionalizedCrystal
_audit_creation_method	'MofGen! by Chris Wilmer'
_symmetry_space_group_name_H-M	'P1'
_symmetry_Int_Tables_number	1
_symmetry_cell_setting	triclinic
loop_
_symmetry_equiv_pos_as_xyz
  x,y,z
_cell_length_a	19.077105
_cell_length_b	21.295417
_cell_length_c	21.295120
_cell_angle_alpha	89.638316
_cell_angle_beta	87.622669
_cell_angle_gamma	87.726672
loop_
_atom_site_label
_atom_site_type_symbol
_atom_site_fract_x
_atom_site_fract_y
_atom_site_fract_z
Zn1	Zn	1.076318	-0.287084	-0.394550
Zn2	Zn	1.576318	0.212916	0.105450
Zn3	Zn	1.076121	-0.392953	-0.289264
Zn4	Zn	1.576121	0.107047	0.210736
Zn5	Zn	0.958519	-0.283494	-0.285064
Zn6	Zn	1.458519	0.216506	0.214936
Zn7	Zn	0.958572	-0.388106	-0.390281
Zn8	Zn	1.458572	0.111894	0.109719
O9	O	1.017382	-0.337909	-0.339790
O10	O	1.517382	0.162091	0.160210
O11	O	1.174785	-0.304659	-0.384128
O12	O	1.674785	0.195341	0.115872
O13	O	1.060416	-0.378960	-0.200611
O14	O	1.560416	0.121040	0.299389
O15	O	0.974205	-0.195882	-0.299615
O16	O	1.474205	0.304118	0.200385
O17	O	1.174641	-0.382441	-0.306775
O18	O	1.674641	0.117559	0.193225
O19	O	1.060751	-0.198520	-0.380054
O20	O	1.560751	0.301480	0.119946
O21	O	0.974014	-0.298540	-0.197525
O22	O	1.474014	0.201460	0.302475
O23	O	0.860032	-0.293839	-0.295476
O24	O	1.360032	0.206161	0.204524
O25	O	0.974296	-0.374179	-0.478943
O26	O	1.474296	0.125821	0.021057
O27	O	0.860071	-0.370698	-0.372779
O28	O	1.360071	0.129302	0.127221
O29	O	1.060803	-0.299958	-0.482080
O30	O	1.560803	0.200042	0.017920
O31	O	1.060468	-0.480398	-0.302636
O32	O	1.560468	0.019602	0.197364
O33	O	0.974105	-0.476836	-0.376853
O34	O	1.474105	0.023164	0.123147
C35	C	0.834513	-0.331353	-0.333209
C36	C	1.334513	0.168647	0.166791
C37	C	0.756281	-0.328564	-0.330409
C38	C	1.256281	0.171436	0.169591
C39	C	0.719566	-0.367330	-0.369278
C40	C	1.219566	0.132670	0.130722
C41	C	0.646059	-0.364701	-0.366650
C42	C	1.146059	0.135299	0.133350
C43	C	0.609268	-0.323308	-0.325149
C44	C	1.109268	0.176692	0.174851
C45	C	0.645988	-0.284537	-0.286279
C46	C	1.145988	0.215463	0.213721
C47	C	0.719494	-0.287164	-0.288911
C48	C	1.219494	0.212836	0.211089
C49	C	0.389424	-0.311152	-0.312973
C50	C	0.889424	0.188848	0.187027
C51	C	0.315912	-0.308529	-0.310343
C52	C	0.815912	0.191471	0.189657
C53	C	0.315989	-0.388693	-0.390714
C54	C	0.815989	0.111307	0.109286
C55	C	0.389496	-0.391318	-0.393340
C56	C	0.889496	0.108682	0.106660
C57	C	0.426210	-0.352545	-0.354472
C58	C	0.926210	0.147455	0.145528
N59	N	0.534131	-0.320621	-0.322461
N60	N	1.034131	0.179379	0.177539
N61	N	0.501345	-0.355230	-0.357164
N62	N	1.001345	0.144770	0.142836
C63	C	1.017290	-0.501458	-0.339751
C64	C	1.517290	-0.001458	0.160249
C65	C	1.017315	-0.571427	-0.339758
C66	C	1.517315	-0.071427	0.160242
C67	C	1.062324	-0.606128	-0.301157
C68	C	1.562324	-0.106128	0.198843
C69	C	1.062357	-0.671872	-0.301172
C70	C	1.562357	-0.171872	0.198828
C71	C	1.017368	-0.702911	-0.339782
C72	C	1.517368	-0.202911	0.160218
C73	C	0.972356	-0.668201	-0.378392
C74	C	1.472356	-0.168201	0.121608
C75	C	0.972330	-0.602459	-0.378380
C76	C	1.472330	-0.102459	0.121620
N77	N	0.955801	-0.803946	-0.342366
N78	N	1.455801	-0.303946	0.157634
N79	N	0.955829	-0.866398	-0.342373
N80	N	1.455829	-0.366398	0.157627
C81	C	1.017447	-0.900988	-0.339821
C82	C	1.517447	-0.400988	0.160179
N83	N	1.079039	-0.870767	-0.337249
N84	N	1.579039	-0.370767	0.162751
N85	N	1.079011	-0.808308	-0.337238
N86	N	1.579011	-0.308308	0.162762
C87	C	1.017393	-0.774197	-0.339799
C88	C	1.517393	-0.274197	0.160201
C89	C	1.062496	-1.006976	-0.301234
C90	C	1.562496	-0.506976	0.198766
C91	C	1.062530	-1.072721	-0.301254
C92	C	1.562530	-0.572721	0.198746
C93	C	0.972523	-1.069050	-0.378470
C94	C	1.472523	-0.569050	0.121530
C95	C	0.972495	-1.003306	-0.378454
C96	C	1.472495	-0.503306	0.121546
C97	C	1.017481	-0.972274	-0.339832
C98	C	1.517481	-0.472274	0.160168
C99	C	1.200965	-0.344491	-0.346396
C100	C	1.700965	0.155509	0.153604
C101	C	1.279198	-0.347296	-0.349211
C102	C	1.779198	0.152704	0.150789
C103	C	1.017577	-0.336928	-0.503993
C104	C	1.517577	0.163072	-0.003993
C105	C	1.017661	-0.336510	-0.573966
C106	C	1.517661	0.163490	-0.073966
C107	C	1.017494	-0.173723	-0.339842
C108	C	1.517494	0.326277	0.160158
C109	C	1.017542	-0.103756	-0.339865
C110	C	1.517542	0.396244	0.160135
C111	C	1.017228	-0.338842	-0.176227
C112	C	1.517228	0.161158	0.323773
C113	C	1.017282	-0.339088	-0.106259
C114	C	1.517282	0.160912	0.393741
C115	C	1.062010	-0.299980	-0.075524
C116	C	1.562010	0.200020	0.424476
C117	C	1.062062	-0.299663	-0.009785
C118	C	1.562062	0.200337	0.490215
C119	C	1.017373	-0.338448	0.025217
C120	C	1.517373	0.161552	0.525217
C121	C	0.972641	-0.377564	-0.005526
C122	C	1.472641	0.122436	0.494474
C123	C	0.972596	-0.377884	-0.071263
C124	C	1.472596	0.122116	0.428737
N125	N	0.955871	-0.340967	0.130797
N126	N	1.455871	0.159033	0.630797
N127	N	0.955916	-0.340660	0.193245
N128	N	1.455916	0.159340	0.693245
C129	C	1.017508	-0.337489	0.223281
C130	C	1.517508	0.162511	0.723281
N131	N	1.079054	-0.334624	0.188509
N132	N	1.579054	0.165376	0.688509
N133	N	1.079008	-0.334928	0.126055
N134	N	1.579008	0.165072	0.626055
C135	C	1.017417	-0.338107	0.096498
C136	C	1.517417	0.161893	0.596498
C137	C	1.062296	-0.298036	0.325297
C138	C	1.562296	0.201964	0.825297
C139	C	1.062349	-0.297724	0.391037
C140	C	1.562349	0.202276	0.891037
C141	C	0.972923	-0.375622	0.395295
C142	C	1.472923	0.124378	0.895295
C143	C	0.972876	-0.375937	0.329556
C144	C	1.472876	0.124063	0.829556
C145	C	1.017562	-0.337140	0.294561
C146	C	1.517562	0.162860	0.794561
H147	H	0.616169	-0.396269	-0.398300
H148	H	1.116169	0.103731	0.101700
H149	H	0.285959	-0.274815	-0.276552
H150	H	0.785959	0.225185	0.223448
H151	H	0.936172	-0.409731	-0.096287
H152	H	1.436172	0.090269	0.403713
H153	H	1.099011	-0.700131	-0.269738
H154	H	1.599011	-0.200131	0.230262
Br155	Br	0.769322	-0.234547	-0.236162
Br156	Br	1.269322	0.265453	0.263838
Br157	Br	1.122684	-0.247356	-0.123016
Br158	Br	1.622684	0.252644	0.376984
Br159	Br	0.911305	-0.710324	-0.430797
Br160	Br	1.411305	-0.210324	0.069203
H161	H	0.419307	-0.279585	-0.281319
H162	H	0.919307	0.220415	0.218681
Br163	Br	0.596058	-0.228354	-0.229962
Br164	Br	1.096058	0.271646	0.270038
Br165	Br	0.911242	-0.555361	-0.430773
Br166	Br	1.411242	-0.055361	0.069227
H167	H	1.098484	-0.267815	0.015244
H168	H	1.598484	0.232185	0.515244
Br169	Br	1.123385	-0.564015	-0.248751
Br170	Br	1.623385	-0.064015	0.251249
Br171	Br	0.439422	-0.447500	-0.449660
Br172	Br	0.939422	0.052500	0.050340
Br173	Br	1.123543	-0.964857	-0.248818
Br174	Br	1.623543	-0.464857	0.251182
H175	H	0.935896	-1.094321	-0.409910
H176	H	1.435896	-0.594321	0.090090
Br177	Br	1.123627	-1.119818	-0.248867
Br178	Br	1.623627	-0.619818	0.251133
H179	H	0.935842	-0.975050	-0.409884
H180	H	1.435842	-0.475050	0.090116
H181	H	0.936539	-0.407203	0.423793
H182	H	1.436539	0.092797	0.923793
Br183	Br	0.911996	-0.430206	0.041975
Br184	Br	1.411996	0.069794	0.541975
H185	H	1.098681	-0.266445	0.296802
H186	H	1.598681	0.233555	0.796802
H187	H	1.098777	-0.265880	0.416059
H188	H	1.598777	0.234120	0.916059
H189	H	0.936451	-0.407780	0.304532
H190	H	1.436451	0.092220	0.804532
H191	H	0.286089	-0.420258	-0.422359
H192	H	0.786089	0.079742	0.077641
Br193	Br	0.769490	-0.423514	-0.425598
Br194	Br	1.269490	0.076486	0.074402
