data_functionalizedCrystal
_audit_creation_method	'MofGen! by Chris Wilmer'
_symmetry_space_group_name_H-M	'P1'
_symmetry_Int_Tables_number	1
_symmetry_cell_setting	triclinic
loop_
_symmetry_equiv_pos_as_xyz
  x,y,z
_cell_length_a	10.489741
_cell_length_b	8.965430
_cell_length_c	10.489741
_cell_angle_alpha	89.999543
_cell_angle_beta	95.460826
_cell_angle_gamma	89.994421
loop_
_atom_site_label
_atom_site_type_symbol
_atom_site_fract_x
_atom_site_fract_y
_atom_site_fract_z
O1	O	1.694041	0.123946	-0.179962
O2	O	1.322845	0.123969	-0.196855
O3	O	1.516889	0.123948	-0.002810
O4	O	1.499996	0.123967	-0.374006
O5	O	1.516898	-0.124130	-0.002816
O6	O	1.322854	-0.124110	-0.196861
O7	O	1.694050	-0.124133	-0.179968
Cu8	Cu	1.508453	-0.146773	-0.188415
Cu9	Cu	1.508442	0.146609	-0.188408
O10	O	1.500006	-0.124112	-0.374012
C11	C	1.275318	-0.000067	-0.195582
C12	C	1.133688	-0.000059	-0.191765
C13	C	1.065548	-0.000079	-0.068300
C14	C	0.973417	0.122237	-0.126620
C15	C	0.973460	-0.122349	-0.126656
C16	C	1.043422	0.122358	-0.250136
C17	C	1.043475	-0.122338	-0.250154
C18	C	0.951371	0.000007	-0.308564
N19	N	1.508470	-0.353122	-0.188419
C20	C	1.598238	-0.450397	-0.098687
C21	C	1.482742	-0.549796	-0.072852
C22	C	1.623920	-0.549851	-0.214171
C23	C	1.392916	-0.450332	-0.162527
C24	C	1.534169	-0.450377	-0.303897
C25	C	1.418591	-0.549731	-0.278111
C26	C	1.741577	-0.000093	-0.181241
C27	C	1.883206	-0.000092	-0.185058
C28	C	1.515618	-0.000090	0.044718
C29	C	1.511801	-0.000087	0.186348
N30	N	1.508435	0.352958	-0.188393
C31	C	1.501277	-0.000070	-0.421541
C32	C	1.505094	-0.000063	-0.563170
C33	C	1.388336	-0.000069	0.254488
C34	C	1.446664	-0.122388	0.346607
C35	C	1.446684	0.122198	0.346588
C36	C	1.570180	-0.122508	0.276602
C37	C	1.570183	0.122189	0.276573
C38	C	1.628600	-0.000161	0.368665
H39	H	0.901947	0.000079	-0.410168
O40	O	0.936551	0.245756	-0.064422
C41	C	0.973900	0.374515	-0.128489
H42	H	1.056967	0.346003	-0.186761
H43	H	1.005271	0.464421	-0.055285
H44	H	0.889667	0.417240	-0.195224
O45	O	1.559939	-0.398160	-0.420426
C46	C	1.455960	-0.311637	-0.473744
H47	H	1.365413	-0.345580	-0.429033
H48	H	1.441828	-0.330803	-0.581600
H49	H	1.476556	-0.188565	-0.453716
H50	H	1.074525	-0.225749	-0.302355
O51	O	1.456734	-0.602158	0.043565
C52	C	1.455957	-0.759403	0.041605
H53	H	1.436117	-0.799991	-0.061362
H54	H	1.378060	-0.802363	0.100894
H55	H	1.553063	-0.803010	0.083697
O56	O	0.936676	-0.245675	-0.064147
C57	C	0.995338	-0.245186	0.062498
H58	H	1.085486	-0.173581	0.067790
H59	H	1.021953	-0.364142	0.092831
H60	H	0.926011	-0.197445	0.129280
H61	H	1.295243	-0.406801	-0.140624
O62	O	1.632574	-0.245865	0.239690
C63	C	1.740241	-0.202228	0.177913
H64	H	1.725251	-0.084186	0.138941
H65	H	1.753297	-0.282037	0.095552
H66	H	1.829237	-0.205177	0.249285
H67	H	1.394427	-0.225794	0.377616
O68	O	1.384515	0.245615	0.383723
C69	C	1.468269	0.330957	0.467809
H70	H	1.547536	0.256196	0.514112
H71	H	1.412721	0.381924	0.545324
H72	H	1.512273	0.423758	0.411987
O73	O	1.327748	-0.601384	-0.368493
C74	C	1.206243	-0.550369	-0.340859
H75	H	1.208918	-0.522590	-0.234587
H76	H	1.131897	-0.641087	-0.365841
H77	H	1.179661	-0.446181	-0.399802
O78	O	1.688578	-0.398418	-0.007950
C79	C	1.660985	-0.449108	0.113661
H80	H	1.554736	-0.476972	0.111044
H81	H	1.685894	-0.358160	0.187819
H82	H	1.720013	-0.553177	0.140459
O83	O	1.749829	-0.000506	0.427582
C84	C	1.814440	-0.129624	0.391865
H85	H	1.741514	-0.219350	0.359265
H86	H	1.879476	-0.172317	0.477355
H87	H	1.874575	-0.101614	0.310096
O88	O	1.740463	-0.601719	-0.240298
C89	C	1.822548	-0.480310	-0.257391
H90	H	1.762949	-0.377072	-0.285560
H91	H	1.886418	-0.507840	-0.336255
H92	H	1.884653	-0.457845	-0.164185
O93	O	1.267153	-0.000268	0.195452
C94	C	1.178627	-0.001642	0.288511
H95	H	1.226443	-0.049226	0.381894
H96	H	1.092900	-0.073835	0.253515
H97	H	1.144951	0.117021	0.305373
O98	O	1.632636	0.245396	0.239489
C99	C	1.740868	0.201544	0.178696
H100	H	1.771095	0.084459	0.211435
H101	H	1.822800	0.282727	0.205024
H102	H	1.716233	0.201985	0.070474
O103	O	1.124946	0.000251	0.052733
C104	C	1.202857	0.128116	0.070471
H105	H	1.228353	0.170143	-0.026480
H106	H	1.294306	0.098709	0.132955
H107	H	1.148914	0.218889	0.119282
O108	O	1.080321	0.245716	-0.312524
C109	C	1.142102	0.202080	-0.420194
H110	H	1.181086	0.084040	-0.405210
H111	H	1.224453	0.281892	-0.433246
H112	H	1.070728	0.205024	-0.509189
