data_functionalizedCrystal
_audit_creation_method	'MofGen! by Chris Wilmer'
_symmetry_space_group_name_H-M	'P1'
_symmetry_Int_Tables_number	1
_symmetry_cell_setting	triclinic
loop_
_symmetry_equiv_pos_as_xyz
  x,y,z
_cell_length_a	17.640112
_cell_length_b	17.077402
_cell_length_c	17.639158
_cell_angle_alpha	101.204931
_cell_angle_beta	92.192862
_cell_angle_gamma	78.751909
loop_
_atom_site_label
_atom_site_type_symbol
_atom_site_fract_x
_atom_site_fract_y
_atom_site_fract_z
Zn1	Zn	1.247715	0.100977	0.195080
Zn2	Zn	1.747715	0.600977	0.695080
Zn3	Zn	1.221985	0.211880	0.068093
Zn4	Zn	1.721985	0.711880	0.568093
Zn5	Zn	1.095079	0.111294	0.093725
Zn6	Zn	1.595079	0.611294	0.593725
Zn7	Zn	1.120676	0.262886	0.220676
Zn8	Zn	1.620676	0.762886	0.720676
O9	O	1.171364	0.171759	0.144394
O10	O	1.671364	0.671759	0.644394
O11	O	1.350578	0.090025	0.156796
O12	O	1.850578	0.590025	0.656796
O13	O	1.183670	0.181509	-0.034781
O14	O	1.683670	0.681509	0.465219
O15	O	1.115382	0.000070	0.107185
O16	O	1.615382	0.500070	0.607185
O17	O	1.331674	0.171505	0.063499
O18	O	1.831674	0.671505	0.563499
O19	O	1.227523	-0.007509	0.181650
O20	O	1.727523	0.492491	0.681650
O21	O	1.090433	0.107609	-0.015950
O22	O	1.590433	0.607609	0.484050
O23	O	0.992198	0.157067	0.132004
O24	O	1.492198	0.657067	0.632004
O25	O	1.159009	0.258437	0.323555
O26	O	1.659009	0.758437	0.823555
O27	O	1.011004	0.268441	0.225274
O28	O	1.511004	0.768441	0.725274
O29	O	1.252343	0.139483	0.304750
O30	O	1.752343	0.639483	0.804750
O31	O	1.208490	0.328501	0.088318
O32	O	1.708490	0.828501	0.588318
O33	O	1.134059	0.365975	0.200421
O34	O	1.634059	0.865975	0.700421
C35	C	0.974045	0.219409	0.184198
C36	C	1.474045	0.719409	0.684198
C37	C	0.889635	0.239815	0.201245
C38	C	1.389635	0.739815	0.701245
C39	C	1.171284	0.375720	0.144378
C40	C	1.671284	0.875720	0.644378
C41	C	1.171325	0.462963	0.144383
C42	C	1.671325	0.962963	0.644383
C43	C	1.211402	0.203499	0.342479
C44	C	1.711402	0.703499	0.842479
C45	C	1.228463	0.217024	0.426891
C46	C	1.728463	0.717024	0.926891
C47	C	0.563034	0.016721	0.014898
C48	C	1.063034	0.516721	0.514898
C49	C	0.483720	0.035914	0.030926
C50	C	0.983720	0.535914	0.530926
C51	C	0.503323	0.151999	0.127881
C52	C	1.003323	0.651999	0.627881
C53	C	0.582641	0.132814	0.111864
C54	C	1.082641	0.632814	0.611864
C55	C	0.612490	0.065174	0.055371
C56	C	1.112490	0.565174	0.555371
C57	C	0.632097	0.181267	0.152337
C58	C	1.132097	0.681267	0.652337
C59	C	0.711407	0.162086	0.136318
C60	C	1.211407	0.662086	0.636318
C61	C	0.741262	0.094451	0.079825
C62	C	1.241262	0.594451	0.579825
C63	C	0.691800	0.045993	0.039351
C64	C	1.191800	0.545993	0.539351
C65	C	0.602246	0.248909	0.208826
C66	C	1.102246	0.748909	0.708826
C67	C	0.651702	0.297362	0.249299
C68	C	1.151702	0.797362	0.749299
C69	C	0.731014	0.278178	0.233284
C70	C	1.231014	0.778178	0.733284
C71	C	0.760869	0.210543	0.176791
C72	C	1.260869	0.710543	0.676791
C73	C	0.780476	0.326636	0.273757
C74	C	1.280476	0.826636	0.773757
C75	C	0.859786	0.307455	0.257738
C76	C	1.359786	0.807455	0.757738
C77	C	0.840179	0.191362	0.160772
C78	C	1.340179	0.691362	0.660772
C79	C	1.369453	0.123924	0.104434
C80	C	1.869453	0.623924	0.604434
C81	C	1.453867	0.103540	0.087405
C82	C	1.953867	0.603540	0.587405
C83	C	1.171468	-0.033000	0.144422
C84	C	1.671468	0.467000	0.644422
C85	C	1.171512	-0.120256	0.144433
C86	C	1.671512	0.379744	0.644433
C87	C	1.210141	0.484411	0.086053
C88	C	1.710141	0.984411	0.586053
C89	C	1.210182	0.566385	0.086065
C90	C	1.710182	1.066385	0.586065
C91	C	1.171402	0.626911	0.144404
C92	C	1.671402	1.126911	0.644404
C93	C	1.132585	0.605459	0.202739
C94	C	1.632585	1.105459	0.702739
C95	C	1.132549	0.523485	0.202730
C96	C	1.632549	1.023485	0.702730
C97	C	1.132661	0.776316	0.202754
C98	C	1.632661	1.276316	0.702754
C99	C	1.132695	0.858296	0.202763
C100	C	1.632695	1.358296	0.702763
C101	C	1.210294	0.819216	0.086089
C102	C	1.710294	1.319216	0.586089
C103	C	1.210259	0.737243	0.086080
C104	C	1.710259	1.237243	0.586080
C105	C	1.171440	0.715796	0.144414
C106	C	1.671440	1.215796	0.644414
C107	C	1.301051	0.274559	0.536064
C108	C	1.801051	0.774559	1.036064
C109	C	1.285013	0.261846	0.456747
C110	C	1.785013	0.761846	0.956747
C111	C	1.187932	0.184895	0.476347
C112	C	1.687932	0.684895	0.976347
C113	C	1.203964	0.197598	0.555666
C114	C	1.703964	0.697598	1.055666
C115	C	1.260524	0.242432	0.585518
C116	C	1.760524	0.742432	1.085518
C117	C	1.163438	0.165471	0.605121
C118	C	1.663438	0.665471	1.105121
C119	C	1.179466	0.178177	0.684434
C120	C	1.679466	0.678177	1.184434
C121	C	1.236022	0.223011	0.714293
C122	C	1.736022	0.723011	1.214293
C123	C	1.276552	0.255138	0.664831
C124	C	1.776552	0.755138	1.164831
C125	C	1.106875	0.120642	0.575268
C126	C	1.606875	0.620642	1.075268
C127	C	1.066348	0.088515	0.624723
C128	C	1.566348	0.588515	1.124723
C129	C	1.082380	0.101216	0.704037
C130	C	1.582380	0.601216	1.204037
C131	C	1.138935	0.146050	0.733895
C132	C	1.638935	0.646050	1.233895
C133	C	1.041849	0.069088	0.753498
C134	C	1.541849	0.569088	1.253498
C135	C	1.057878	0.081795	0.832811
C136	C	1.557878	0.581795	1.332811
C137	C	1.154964	0.158756	0.813208
C138	C	1.654964	0.658756	1.313208
C139	C	1.131482	0.140160	0.947079
C140	C	1.631482	0.640160	1.447079
C141	C	1.114437	0.126629	0.862663
C142	C	1.614437	0.626629	1.362663
H143	H	0.864486	0.136274	0.114781
H144	H	1.364486	0.636274	0.614781
Cl145	Cl	1.259086	0.846177	0.012748
Cl146	Cl	1.759086	1.346177	0.512748
Cl147	Cl	1.086715	0.104681	0.475560
Cl148	Cl	1.586715	0.604681	0.975560
H149	H	1.020295	0.052014	0.600406
H150	H	1.520295	0.552014	1.100406
H151	H	1.322615	0.291639	0.689137
H152	H	1.822615	0.791639	1.189137
H153	H	1.141879	0.148394	0.452030
H154	H	1.641879	0.648394	0.952030
Cl155	Cl	0.465789	0.237035	0.198890
Cl156	Cl	0.965789	0.737035	0.698890
Cl157	Cl	1.226081	0.215104	0.850740
Cl158	Cl	1.726081	0.715104	1.350740
Cl159	Cl	1.372167	0.330908	0.573595
Cl160	Cl	1.872167	0.830908	1.073595
H161	H	0.537666	0.264524	0.221867
H162	H	1.037666	0.764524	0.721867
H163	H	1.241717	0.435134	0.038544
H164	H	1.741717	0.935134	0.538544
H165	H	1.241790	0.583842	0.038567
H166	H	1.741790	1.083842	0.538567
H167	H	1.241832	0.687962	0.038573
H168	H	1.741832	1.187962	0.538573
H169	H	1.101134	0.907574	0.250279
H170	H	1.601134	1.407574	0.750279
H171	H	0.995794	0.032592	0.729181
H172	H	1.495794	0.532592	1.229181
H173	H	0.443455	-0.003553	-0.002031
H174	H	0.943455	0.496447	0.497969
H175	H	1.100942	0.506025	0.250228
H176	H	1.600942	1.006025	0.750228
H177	H	1.024879	0.055631	0.873078
H178	H	1.524879	0.555631	1.373078
Cl179	Cl	0.921963	0.368369	0.308617
Cl180	Cl	1.421963	0.868369	0.808617
Cl181	Cl	0.614168	0.382399	0.320307
Cl182	Cl	1.114168	0.882399	0.820307
Cl183	Cl	1.083837	0.681548	0.276084
Cl184	Cl	1.583837	1.181548	0.776084
Cl185	Cl	1.335964	0.302245	0.394577
Cl186	Cl	1.835964	0.802245	0.894577
H187	H	0.805842	0.078836	0.066782
H188	H	1.305842	0.578836	0.566782
Cl189	Cl	1.256173	0.238987	0.814002
Cl190	Cl	1.756173	0.738987	1.314002
Cl191	Cl	0.729331	-0.039045	-0.031665
Cl192	Cl	1.229331	0.460955	0.468335
H193	H	0.756160	0.381712	0.319749
H194	H	1.256160	0.881712	0.819749
Cl195	Cl	0.600565	-0.068317	-0.056118
Cl196	Cl	1.100565	0.431683	0.443882
Cl197	Cl	1.083861	0.749357	0.276091
Cl198	Cl	1.583861	1.249357	0.776091
