data_functionalizedCrystal
_audit_creation_method	'MofGen! by Chris Wilmer'
_symmetry_space_group_name_H-M	'P1'
_symmetry_Int_Tables_number	1
_symmetry_cell_setting	triclinic
loop_
_symmetry_equiv_pos_as_xyz
  x,y,z
_cell_length_a	6.817900
_cell_length_b	9.582860
_cell_length_c	14.858340
_cell_angle_alpha	92.657606
_cell_angle_beta	104.519754
_cell_angle_gamma	111.206767
loop_
_atom_site_label
_atom_site_type_symbol
_atom_site_fract_x
_atom_site_fract_y
_atom_site_fract_z
V1	V	-4.078393	-0.208009	-0.289789
O2	O	-4.023831	0.009014	-0.284448
O3	O	-4.069078	-0.411503	-0.287639
O4	O	-4.034480	-0.205241	-0.416253
O5	O	-4.058669	-0.198677	-0.154943
V6	V	-4.556375	-0.182000	-0.273681
O7	O	-4.351806	-0.265063	-0.325124
O8	O	-4.733159	-0.124946	-0.238346
O9	O	-4.342483	0.021494	-0.275832
O10	O	-4.728333	-0.399023	-0.279022
O11	O	-4.693496	-0.191333	-0.408527
O12	O	-4.377081	-0.184769	-0.147217
C13	C	-3.923442	-0.461097	-0.283023
C14	C	-3.997142	-0.627459	-0.282108
C15	C	-3.879307	-0.197987	-0.447083
C16	C	-3.924945	-0.197070	-0.550467
C17	C	-3.962006	-0.196323	-0.634426
C18	C	-4.008515	-0.195380	-0.739756
C19	C	-4.045598	-0.194629	-0.823708
C20	C	-4.092112	-0.193689	-0.929045
C21	C	-4.151463	0.071080	-0.280444
C22	C	-4.057001	0.237440	-0.281366
C23	C	-4.195597	-0.192027	-0.116382
C24	C	-4.129196	-0.192937	-0.012997
