data_functionalizedCrystal
_audit_creation_method	'MofGen! by Chris Wilmer'
_symmetry_space_group_name_H-M	'P1'
_symmetry_Int_Tables_number	1
_symmetry_cell_setting	triclinic
loop_
_symmetry_equiv_pos_as_xyz
  x,y,z
_cell_length_a	27.731993
_cell_length_b	27.732048
_cell_length_c	26.210047
_cell_angle_alpha	89.999521
_cell_angle_beta	90.002578
_cell_angle_gamma	82.631525
loop_
_atom_site_label
_atom_site_type_symbol
_atom_site_fract_x
_atom_site_fract_y
_atom_site_fract_z
O1	O	0.640948	0.057384	-0.042297
O2	O	0.500151	0.066158	-0.042329
O3	O	0.574923	-0.008627	-0.042302
O4	O	0.566177	0.132169	-0.042324
O5	O	0.574908	-0.008615	0.042556
O6	O	0.500137	0.066169	0.042529
O7	O	0.640934	0.057396	0.042561
Cu8	Cu	0.570534	0.061784	0.050293
Cu9	Cu	0.570551	0.061770	-0.050061
O10	O	0.566163	0.132180	0.042534
C11	C	0.482137	0.065983	0.000096
C12	C	0.428480	0.065441	0.000084
C13	C	0.045328	0.061504	-0.046147
C14	C	0.246985	0.063571	-0.046161
O15	O	0.273065	0.063813	-0.085501
N16	N	0.272198	0.063836	0.000094
C17	C	0.246993	0.063581	0.046356
O18	O	0.273066	0.063849	0.085699
C19	C	0.045337	0.061511	0.046370
C20	C	0.020127	0.061251	0.000112
C21	C	0.020118	0.061243	-0.092401
C22	C	-0.030294	0.060729	-0.092397
C23	C	-0.055495	0.060476	-0.046139
C24	C	-0.030285	0.060736	0.000116
C25	C	0.020134	0.061252	0.092631
C26	C	-0.030283	0.060733	0.092630
C27	C	-0.055493	0.060473	0.046372
C28	C	-0.105898	0.059969	0.046378
N29	N	-0.131110	0.059704	0.000123
C30	C	-0.105909	0.059957	-0.046135
C31	C	0.352865	0.064669	0.046346
C32	C	0.403279	0.065188	0.046343
C33	C	0.403268	0.065177	-0.046175
C34	C	0.352853	0.064662	-0.046171
C35	C	0.327653	0.064404	0.000091
C36	C	-0.211777	0.058878	-0.046123
C37	C	-0.262194	0.058366	-0.046115
C38	C	-0.262178	0.058375	0.046402
C39	C	-0.211766	0.058889	0.046394
C40	C	-0.186567	0.059139	0.000127
O41	O	-0.132008	0.059721	0.085698
O42	O	-0.131989	0.059679	-0.085472
C43	C	0.095740	0.062018	-0.046151
C44	C	0.120950	0.062279	0.000104
C45	C	0.095749	0.062025	0.046362
C46	C	0.171364	0.062797	0.000101
C47	C	0.196565	0.063051	-0.046158
C48	C	0.171353	0.062786	-0.092413
C49	C	0.120941	0.062272	-0.092409
C50	C	0.120961	0.062290	0.092617
C51	C	0.171373	0.062805	0.092609
C52	C	0.196574	0.063058	0.046351
C53	C	0.574732	-0.026628	0.000128
C54	C	0.574179	-0.080282	0.000132
C55	C	0.614884	-0.419105	0.000115
C56	C	0.612833	-0.620765	0.000108
O57	O	0.650055	-0.652028	0.000094
N58	N	0.568497	-0.639880	0.000098
C59	C	0.524670	-0.608576	0.000087
O60	O	0.486912	-0.629462	0.000073
C61	C	0.526721	-0.406918	0.000091
C62	C	0.571061	-0.387806	0.000106
C63	C	0.659220	-0.399993	0.000129
C64	C	0.659732	-0.349581	0.000134
C65	C	0.615909	-0.318282	0.000124
C66	C	0.571573	-0.337394	0.000110
C67	C	0.482895	-0.375616	0.000076
C68	C	0.483412	-0.325199	0.000076
C69	C	0.527751	-0.306087	0.000091
C70	C	0.528262	-0.255683	0.000105
N71	N	0.572598	-0.236568	0.000115
C72	C	0.616422	-0.267867	0.000124
C73	C	0.523596	-0.714450	0.000086
C74	C	0.523083	-0.764865	0.000086
C75	C	0.611246	-0.777049	0.000105
C76	C	0.611759	-0.726634	0.000109
C77	C	0.567932	-0.695335	0.000095
C78	C	0.617494	-0.161998	0.000135
C79	C	0.618003	-0.111582	0.000142
C80	C	0.529839	-0.099401	0.000119
C81	C	0.529331	-0.149814	0.000115
C82	C	0.573162	-0.181112	0.000121
O83	O	0.491060	-0.224392	0.000114
O84	O	0.654174	-0.246972	0.000127
C85	C	0.614372	-0.469517	0.000110
C86	C	0.570036	-0.488630	0.000096
C87	C	0.526213	-0.457331	0.000087
C88	C	0.569523	-0.539044	0.000096
C89	C	0.613346	-0.570343	0.000106
C90	C	0.657683	-0.551228	0.000115
C91	C	0.658195	-0.500817	0.000120
C92	C	0.481876	-0.476446	0.000077
C93	C	0.481368	-0.526858	0.000073
C94	C	0.525191	-0.558157	0.000083
C95	C	0.658949	0.057570	0.000135
C96	C	0.712605	0.058113	0.000143
C97	C	0.566353	0.150181	0.000103
C98	C	0.566906	0.203836	0.000095
N99	N	0.570526	0.061793	0.120877
N100	N	0.570564	0.061757	-0.120645
C101	C	0.603657	0.028663	0.473403
C102	C	0.603667	0.028656	0.687062
O103	O	0.631818	0.000490	0.714693
N104	N	0.570554	0.061759	0.713771
C105	C	0.537433	0.094864	0.687063
O106	O	0.509265	0.123017	0.714683
C107	C	0.537421	0.094868	0.473405
C108	C	0.570540	0.061766	0.446698
C109	C	0.636772	-0.004437	0.446696
C110	C	0.636771	-0.004433	0.393285
C111	C	0.603654	0.028671	0.366580
C112	C	0.570538	0.061770	0.393287
C113	C	0.504298	0.127971	0.446697
C114	C	0.504297	0.127968	0.393280
C115	C	0.537416	0.094866	0.366573
C116	C	0.537420	0.094877	0.313171
N117	N	0.570533	0.061774	0.286461
C118	C	0.603650	0.028671	0.313166
C119	C	0.537443	0.094861	0.799236
C120	C	0.537446	0.094860	0.852650
C121	C	0.603680	0.028651	0.852645
C122	C	0.603678	0.028654	0.799230
C123	C	0.570556	0.061757	0.772526
C124	C	0.603646	0.028682	0.200998
C125	C	0.603643	0.028690	0.147582
C126	C	0.537408	0.094897	0.147591
C127	C	0.537412	0.094891	0.201003
C128	C	0.570533	0.061779	0.227705
O129	O	0.509281	0.123025	0.285506
O130	O	0.631807	0.000515	0.285536
C131	C	0.603658	0.028659	0.526814
C132	C	0.570542	0.061759	0.553521
C133	C	0.537425	0.094862	0.526816
C134	C	0.570546	0.061759	0.606935
C135	C	0.603663	0.028655	0.633640
C136	C	0.636776	-0.004448	0.606931
C137	C	0.636775	-0.004444	0.553519
C138	C	0.504311	0.127965	0.553526
C139	C	0.504316	0.127959	0.606937
C140	C	0.537433	0.094856	0.633642
H141	H	0.040652	0.061462	0.130300
H142	H	0.477343	0.154922	0.531787
C143	C	-0.058018	0.060431	-0.143281
H144	H	-0.035781	0.060649	-0.170827
H145	H	-0.081588	0.088425	-0.145217
H146	H	-0.073778	0.032023	-0.145196
C147	C	0.467884	0.164374	0.636311
H148	H	0.472626	0.159636	0.671949
H149	H	0.435665	0.159350	0.627552
H150	H	0.472892	0.196601	0.627559
C151	C	-0.058000	0.060453	0.143520
H152	H	-0.035763	0.060686	0.171065
H153	H	-0.073768	0.032054	0.145449
H154	H	-0.081565	0.088456	0.145442
H155	H	-0.191240	0.059111	0.084061
C156	C	0.665707	-0.196419	0.000146
H157	H	0.692182	-0.177810	0.000160
H158	H	0.667352	-0.216340	-0.029446
H159	H	0.667335	-0.216338	0.029742
H160	H	0.040631	0.061448	-0.130072
H161	H	0.654110	-0.096024	0.000155
C162	C	0.708505	-0.328564	0.000140
H163	H	0.734528	-0.354431	0.000140
H164	H	0.710541	-0.309150	0.029731
H165	H	0.710542	-0.309154	-0.029456
H166	H	-0.282718	0.058156	-0.083786
H167	H	-0.282706	0.058170	0.084064
C168	C	0.707430	-0.434415	0.000144
H169	H	0.733904	-0.415804	0.000156
H170	H	0.709076	-0.454339	-0.029445
H171	H	0.709057	-0.454331	0.029742
C172	C	0.430996	0.065454	-0.097058
H173	H	0.464630	0.065796	-0.090430
H174	H	0.418834	0.093564	-0.116073
H175	H	0.426636	0.037162	-0.116056
C176	C	0.673202	-0.040863	0.636313
H177	H	0.668453	-0.036123	0.671948
H178	H	0.705425	-0.035846	0.627564
H179	H	0.668190	-0.073089	0.627559
C180	C	0.660531	-0.705615	0.000121
H181	H	0.686555	-0.731480	0.000124
H182	H	0.662562	-0.686200	0.029711
H183	H	0.662570	-0.686205	-0.029476
H184	H	0.446789	-0.391168	0.000061
C185	C	0.640079	-0.007738	0.230363
H186	H	0.659802	-0.027445	0.206801
H187	H	0.622848	-0.027743	0.251199
H188	H	0.660074	0.009510	0.251199
H189	H	0.493226	-0.165375	0.000117
H190	H	0.694301	-0.485261	0.000132
H191	H	0.332330	0.064450	-0.083838
C192	C	-0.184066	0.059159	-0.097015
H193	H	-0.206307	0.058935	-0.124558
H194	H	-0.160499	0.031162	-0.098944
H195	H	-0.168303	0.087564	-0.098943
H196	H	0.477324	0.154924	0.371540
C197	C	0.093246	0.062016	0.143504
H198	H	0.115485	0.062252	0.171048
H199	H	0.077476	0.033618	0.145440
H200	H	0.069683	0.090020	0.145424
H201	H	0.646929	-0.802542	0.000113
H202	H	0.445259	-0.542414	0.000065
H203	H	0.630646	0.001698	0.874397
H204	H	0.486977	-0.780421	0.000083
H205	H	0.423800	0.065407	0.084011
C206	C	0.475383	-0.680027	0.000078
H207	H	0.448909	-0.698637	0.000078
H208	H	0.473749	-0.660105	-0.029513
H209	H	0.473746	-0.660110	0.029675
H210	H	0.332353	0.064458	0.084020
H211	H	0.447722	-0.299717	0.000064
H212	H	0.494160	-0.073909	0.000113
C213	C	0.705887	-0.585664	0.000122
H214	H	0.699227	-0.618425	0.000113
H215	H	0.724084	-0.579912	0.029716
H216	H	0.724085	-0.579905	-0.029471
C217	C	0.433668	-0.442023	0.000072
H218	H	0.407193	-0.460632	0.000070
H219	H	0.432033	-0.422098	-0.029517
H220	H	0.432031	-0.422108	0.029671
C221	C	0.640073	-0.007726	0.118207
H222	H	0.659792	-0.027444	0.141765
H223	H	0.660064	0.009519	0.097371
H224	H	0.622832	-0.027727	0.097370
H225	H	0.663738	-0.031389	0.371543
C226	C	0.673207	-0.040851	0.476063
H227	H	0.692928	-0.060558	0.452500
H228	H	0.655979	-0.060856	0.496903
H229	H	0.693203	-0.023601	0.496896
C230	C	0.093216	0.061981	-0.143293
H231	H	0.115452	0.062202	-0.170839
H232	H	0.069649	0.089978	-0.145224
H233	H	0.077452	0.033576	-0.145213
H234	H	0.630646	0.001700	0.777489
C235	C	0.501016	0.131273	0.882022
H236	H	0.481290	0.150982	0.858463
H237	H	0.518247	0.151275	0.902861
H238	H	0.481025	0.114020	0.902855
C239	C	0.500964	0.131283	0.230381
H240	H	0.481234	0.150991	0.206825
H241	H	0.518177	0.151290	0.251235
H242	H	0.480980	0.114009	0.251200
H243	H	0.510470	0.121818	0.777497
H244	H	0.191880	0.062995	-0.130078
H245	H	0.477330	0.154925	0.468435
H246	H	0.510445	0.121851	0.125840
H247	H	0.191894	0.063021	0.130281
H248	H	0.663743	-0.031399	0.531778
