data_functionalizedCrystal
_audit_creation_method	'MofGen! by Chris Wilmer'
_symmetry_space_group_name_H-M	'P1'
_symmetry_Int_Tables_number	1
_symmetry_cell_setting	triclinic
loop_
_symmetry_equiv_pos_as_xyz
  x,y,z
_cell_length_a	19.902436
_cell_length_b	20.875641
_cell_length_c	20.875658
_cell_angle_alpha	55.998508
_cell_angle_beta	87.031264
_cell_angle_gamma	62.436880
loop_
_atom_site_label
_atom_site_type_symbol
_atom_site_fract_x
_atom_site_fract_y
_atom_site_fract_z
Zr1	Zr	0.680285	0.702031	-0.109880
O2	O	0.583973	0.835859	-0.217218
O3	O	0.706057	0.568210	-0.073571
O4	O	0.718743	0.702025	-0.212297
O5	O	0.565549	0.702046	0.027066
O6	O	0.829321	0.702012	-0.212288
O7	O	0.571287	0.702044	-0.078491
O8	O	0.806628	0.462642	0.035868
O9	O	0.588242	0.941417	-0.221090
O10	O	0.804105	0.623241	-0.062191
O11	O	0.717300	0.623252	0.016578
O12	O	0.732236	0.780802	-0.146755
O13	O	0.645431	0.780813	-0.067985
Zr14	Zr	0.847492	0.702015	0.058487
Zr15	Zr	0.856644	0.702011	-0.109865
Zr16	Zr	0.671133	0.702035	0.058473
Zr17	Zr	0.687093	0.870384	-0.116056
Zr18	Zr	0.840684	0.533662	0.064663
O19	O	0.821720	0.835836	0.022178
O20	O	0.834733	0.835831	-0.217198
O21	O	0.570961	0.835864	0.022157
O22	O	0.943804	0.568188	0.165825
O23	O	0.956816	0.568182	-0.073550
O24	O	0.693045	0.568216	0.165805
O25	O	0.962228	0.702000	-0.078459
O26	O	0.809034	0.702021	0.160905
O27	O	0.698457	0.702034	0.160896
O28	O	0.956490	0.702002	0.027098
O29	O	0.728424	0.941401	-0.221079
O30	O	0.799354	0.462645	0.169686
O31	O	0.939535	0.462629	0.169697
O32	O	0.946810	0.462626	0.035880
O33	O	0.580968	0.941420	-0.087273
O34	O	0.721149	0.941404	-0.087261
O35	O	0.795541	0.623245	0.095362
O36	O	0.882346	0.623233	0.016592
O37	O	0.810477	0.780794	-0.067971
O38	O	0.723672	0.780805	0.010799
C39	C	0.755372	0.491439	-0.017971
C40	C	0.752482	0.419969	-0.015349
C41	C	0.796433	0.386386	-0.055235
C42	C	0.793719	0.319228	-0.052764
C43	C	0.747049	0.285658	-0.010411
C44	C	0.703096	0.319243	0.029479
C45	C	0.705815	0.386396	0.027012
C46	C	0.734062	0.084815	0.001380
C47	C	0.731344	0.017660	0.003842
C48	C	0.821969	0.017648	-0.078400
C49	C	0.824680	0.084806	-0.080867
C50	C	0.780731	0.118382	-0.040973
N51	N	0.744271	0.217013	-0.007887
N52	N	0.783513	0.187021	-0.043494
C53	C	0.543291	0.702048	-0.025714
C54	C	0.468422	0.702056	-0.025721
C55	C	0.196416	0.702012	-0.025689
C56	C	0.179557	0.801404	-0.078794
C57	C	0.257413	0.801467	-0.079071
C58	C	0.331361	0.702034	-0.025704
C59	C	0.328923	0.652673	-0.060132
C60	C	0.250741	0.653308	-0.060521
C61	C	0.244996	0.651270	0.061894
C62	C	0.322000	0.653138	0.061693
C63	C	0.407629	0.702042	-0.025713
C64	C	0.120150	0.702001	-0.025683
C65	C	0.984487	0.701998	-0.025678
C66	C	1.059356	0.701990	-0.025672
C67	C	0.775336	0.702018	-0.236280
C68	C	0.779221	0.702016	-0.307750
C69	C	0.772405	0.912607	-0.033422
C70	C	0.775295	0.984077	-0.036044
C71	C	0.720130	0.702021	-0.341333
C72	C	0.723783	0.702028	-0.408491
C73	C	0.786530	0.702023	-0.442061
C74	C	0.845623	0.702020	-0.408474
C75	C	0.841967	0.702020	-0.341320
C76	C	0.803994	0.702028	-0.642903
C77	C	0.807647	0.702025	-0.710059
C78	C	0.685805	0.702034	-0.710073
C79	C	0.682157	0.702029	-0.642916
C80	C	0.741249	0.702031	-0.609337
N81	N	0.790266	0.702026	-0.510705
N82	N	0.737509	0.702034	-0.540697
C83	C	0.752442	0.702028	0.184887
C84	C	0.748557	0.702030	0.256357
C85	C	0.975970	0.491414	-0.017953
C86	C	1.047949	0.419936	-0.015325
C87	C	0.743925	0.491444	0.192612
C88	C	0.737150	0.419976	0.266704
C89	C	0.964523	0.491420	0.192630
C90	C	1.032617	0.419943	0.266728
C91	C	0.563254	0.912627	-0.244023
C92	C	0.495160	0.984104	-0.318121
C93	C	0.551807	0.912632	-0.033440
C94	C	0.479828	0.984110	-0.036068
C95	C	0.783852	0.912602	-0.244005
C96	C	0.790627	0.984070	-0.318097
C97	C	1.040910	0.386373	-0.055222
C98	C	1.108536	0.319220	-0.052769
C99	C	1.183200	0.285628	-0.010414
C100	C	1.190237	0.319197	0.029484
C101	C	1.122612	0.386353	0.027026
C102	C	0.774809	0.386410	0.342629
C103	C	0.768439	0.319267	0.412252
C104	C	0.724416	0.285687	0.405949
C105	C	0.686752	0.319260	0.330015
C106	C	0.693117	0.386406	0.260393
C107	C	1.109913	0.386370	0.260408
C108	C	1.173902	0.319220	0.330024
C109	C	1.160592	0.285638	0.405960
C110	C	1.083288	0.319216	0.412278
C111	C	1.019301	0.386371	0.342662
C112	C	0.417864	1.017684	-0.311801
C113	C	0.353877	1.084856	-0.381418
C114	C	0.367186	1.118441	-0.457354
C115	C	0.444490	1.084858	-0.463671
C116	C	0.508477	1.017692	-0.394056
C117	C	0.486868	1.017681	0.003822
C118	C	0.419243	1.084852	0.001350
C119	C	0.344580	1.118447	-0.041008
C120	C	0.337543	1.084874	-0.080903
C121	C	0.405167	1.017708	-0.078435
C122	C	0.834657	1.017629	-0.311767
C123	C	0.841039	1.084772	-0.381377
C124	C	0.803385	1.118360	-0.457317
C125	C	0.759354	1.084795	-0.463645
C126	C	0.752977	1.017648	-0.394035
H127	H	0.862683	0.112137	-0.115353
H128	H	0.265308	0.580385	-0.024151
O129	O	0.256182	0.852771	-0.048764
H130	H	0.311914	0.852866	-0.048929
H131	H	0.276743	1.112237	-0.115390
H132	H	0.896712	0.702022	-0.435813
H133	H	1.212701	0.230956	0.462639
H134	H	0.829508	0.291884	-0.085241
O135	O	0.681005	-0.018553	0.049523
H136	H	0.719030	-0.092637	0.097684
H137	H	0.289523	1.173137	-0.043011
H138	H	0.424989	1.112176	0.033840
H139	H	0.980123	0.413723	-0.089723
O140	O	0.652460	0.702005	-0.305121
H141	H	0.659849	0.701989	-0.252773
H142	H	0.631064	0.702033	-0.615585
H143	H	0.728698	1.112153	-0.525484
H144	H	1.102791	0.291896	-0.085259
H145	H	0.956365	0.413696	0.347819
O146	O	0.458834	1.121086	-0.545579
H147	H	0.494594	1.151687	-0.553545
O148	O	1.068936	0.282980	0.494182
H149	H	1.126421	0.230634	0.541521
H150	H	0.290938	1.112188	-0.376258
O151	O	0.321504	0.700786	0.095824
H152	H	0.327900	0.759050	0.050738
O153	O	0.810254	1.190795	-0.532395
H154	H	0.847190	1.208491	-0.515228
O155	O	0.686652	0.121037	0.044396
H156	H	0.653736	0.086418	0.074249
H157	H	0.208324	0.683076	0.090999
O158	O	0.591846	0.981463	-0.400875
H159	H	0.590343	1.016098	-0.465375
O160	O	0.705475	0.981466	-0.400866
H161	H	0.680359	1.016115	-0.465368
O162	O	0.652753	0.283044	0.075157
H163	H	0.658237	0.230714	0.070164
O164	O	1.256138	0.213192	-0.007761
H165	H	1.252211	0.152007	0.020217
O166	O	1.257266	0.283042	0.323175
H167	H	1.290330	0.295961	0.351305
H168	H	0.315078	1.173132	-0.514033
H169	H	0.865320	0.990292	-0.249940
H170	H	0.670023	0.413740	0.059489
H171	H	0.547656	0.990333	0.038320
H172	H	0.407012	0.990342	-0.249977
H173	H	0.662453	0.413727	0.198574
O174	O	0.397570	0.981493	-0.121452
H175	H	0.334288	1.016136	-0.151311
H176	H	0.876892	1.112094	-0.376209
H177	H	0.810657	0.413743	0.347777
H178	H	0.259939	0.578052	0.101606
O179	O	0.846771	0.422593	-0.100914
H180	H	0.876883	0.387949	-0.128227
H181	H	0.675666	0.702033	-0.435836
H182	H	0.140654	0.840417	-0.056043
H183	H	0.857751	-0.009697	-0.110878
H184	H	0.144632	0.840222	-0.143070
H185	H	0.374354	0.580596	0.104308
H186	H	0.260651	0.840427	-0.143732
H187	H	0.637695	0.702034	-0.737420
H188	H	0.858747	0.702020	-0.737388
H189	H	0.219046	0.688384	-0.124887
O190	O	0.639296	0.283006	0.323235
H191	H	0.590657	0.295879	0.351398
O192	O	1.270768	0.282955	0.075175
H193	H	1.316601	0.230611	0.070185
O194	O	1.124278	0.422595	0.178510
H195	H	1.188782	0.387970	0.185824
H196	H	0.890084	0.702018	-0.313978
H197	H	0.380916	0.579564	-0.023159
H198	H	0.852110	0.702027	-0.615567
H199	H	1.128354	0.413672	0.059520
O200	O	0.337301	0.698079	-0.144562
H201	H	0.343205	0.755793	-0.162153
H202	H	0.799113	0.291940	0.474074
O203	O	0.717568	0.213249	0.481044
H204	H	0.751164	0.195545	0.534897
