data_functionalizedCrystal
_audit_creation_method	'MofGen! by Chris Wilmer'
_symmetry_space_group_name_H-M	'P1'
_symmetry_Int_Tables_number	1
_symmetry_cell_setting	triclinic
loop_
_symmetry_equiv_pos_as_xyz
  x,y,z
_cell_length_a	12.759401
_cell_length_b	16.959453
_cell_length_c	12.759393
_cell_angle_alpha	89.964958
_cell_angle_beta	89.981433
_cell_angle_gamma	90.019032
loop_
_atom_site_label
_atom_site_type_symbol
_atom_site_fract_x
_atom_site_fract_y
_atom_site_fract_z
Zn1	Zn	1.606217	-0.314655	-0.593958
Zn2	Zn	1.606095	-0.446857	-0.418267
Zn3	Zn	1.430519	-0.314694	-0.418297
Zn4	Zn	1.430491	-0.446793	-0.593909
O5	O	1.518330	-0.380750	-0.506108
O6	O	1.753222	-0.332202	-0.570660
O7	O	1.582765	-0.429368	-0.271250
O8	O	1.453888	-0.204078	-0.441632
O9	O	1.753132	-0.429330	-0.441581
O10	O	1.582973	-0.204049	-0.570689
O11	O	1.453770	-0.332268	-0.271272
O12	O	1.283494	-0.332207	-0.441584
O13	O	1.453841	-0.429222	-0.740936
O14	O	1.283474	-0.429260	-0.570605
O15	O	1.582946	-0.332141	-0.740973
O16	O	1.582738	-0.557459	-0.441534
O17	O	1.453723	-0.557413	-0.570576
C18	C	1.245363	-0.380731	-0.506093
C19	C	1.128586	-0.380742	-0.506112
C20	C	1.073764	-0.330263	-0.573427
C21	C	0.964040	-0.330278	-0.573434
C22	C	0.963970	-0.431258	-0.438807
C23	C	1.073692	-0.431239	-0.438795
C24	C	1.073803	-0.271965	-0.651157
C25	C	0.964079	-0.271981	-0.651163
C26	C	1.518243	-0.586116	-0.506069
C27	C	1.518301	-0.673973	-0.506088
C28	C	1.585631	-1.045375	-0.573435
C29	C	1.451323	-1.045521	-0.438937
C30	C	1.451284	-0.962976	-0.438913
C31	C	1.518419	-0.921626	-0.506152
C32	C	1.585592	-0.962821	-0.573415
C33	C	1.384105	-0.921774	-0.371658
C34	C	1.384063	-0.839223	-0.371632
C35	C	1.451203	-0.797871	-0.438867
C36	C	1.518379	-0.839072	-0.506132
C37	C	1.585514	-0.797722	-0.573371
C38	C	1.652696	-0.838921	-0.640631
C39	C	1.652732	-0.921470	-0.640649
C40	C	1.451167	-0.715323	-0.438849
C41	C	1.585474	-0.715168	-0.573351
C42	C	1.792364	-0.380769	-0.506123
C43	C	1.909140	-0.380777	-0.506130
C44	C	1.518404	-0.380670	-0.780141
C45	C	1.518435	-0.380636	-0.896918
C46	C	1.518447	-0.174582	-0.506169
C47	C	1.518497	-0.086725	-0.506196
C48	C	1.585669	-0.330081	-0.951801
C49	C	1.585694	-0.330052	-1.061525
C50	C	1.451248	-0.431141	-1.061474
C51	C	1.451219	-0.431165	-0.951752
C52	C	1.663294	-0.271721	-0.951831
C53	C	1.663319	-0.271692	-1.061555
C54	C	1.518318	-0.380772	-0.233140
C55	C	1.518490	-0.380583	-0.116364
H56	H	1.640148	-0.681506	-0.628102
H57	H	0.919262	-0.472371	-0.384000
H58	H	1.707428	-0.955022	-0.695410
H59	H	1.396521	-0.472278	-1.106133
H60	H	1.118325	-0.472336	-0.383971
O61	O	1.637143	-0.198720	-0.916379
C62	C	1.507086	-0.095759	-0.913130
C63	C	1.536561	-0.178442	-0.953329
H64	H	1.425774	-0.079332	-0.943005
H65	H	1.506983	-0.095745	-0.823781
H66	H	1.566726	-0.050963	-0.942903
H67	H	1.476951	-0.223285	-0.923632
H68	H	1.536697	-0.178391	-1.042677
O69	O	1.109463	-0.198968	-0.625202
C70	C	1.211024	-0.121171	-0.504196
C71	C	1.170729	-0.203882	-0.533485
H72	H	1.260548	-0.125114	-0.430029
H73	H	1.260759	-0.096795	-0.571023
H74	H	1.141522	-0.080357	-0.489817
H75	H	1.240168	-0.244755	-0.547847
H76	H	1.120963	-0.228193	-0.466642
H77	H	1.744688	-0.288089	-1.091332
H78	H	1.107866	-0.293958	-0.728393
H79	H	1.329360	-0.805683	-0.316865
O80	O	1.717874	-0.798628	-0.705848
C81	C	1.777268	-0.671382	-0.765466
C82	C	1.703423	-0.716919	-0.691540
H83	H	1.765595	-0.605313	-0.753939
H84	H	1.862028	-0.687511	-0.747092
H85	H	1.758796	-0.687620	-0.850160
H86	H	1.721800	-0.700706	-0.606822
H87	H	1.618685	-0.700786	-0.710005
O88	O	0.923640	-0.202517	-0.616591
C89	C	0.960047	-0.072015	-0.551469
C90	C	1.005986	-0.150629	-0.590628
H91	H	1.026601	-0.030047	-0.530447
H92	H	0.909825	-0.044568	-0.615732
H93	H	0.909691	-0.083254	-0.479162
H94	H	1.056389	-0.139457	-0.662916
H95	H	1.056148	-0.178051	-0.526302
H96	H	1.740563	-0.293667	-0.917793
O97	O	1.628433	-0.202368	-1.102233
C98	C	1.499665	-0.137814	-1.210481
C99	C	1.539057	-0.216370	-1.164466
H100	H	1.427412	-0.149110	-1.260825
H101	H	1.478556	-0.095835	-1.143999
H102	H	1.563923	-0.110344	-1.260746
H103	H	1.474846	-0.243909	-1.114213
H104	H	1.560197	-0.258295	-1.230998
O105	O	0.928758	-0.291553	-0.748283
C106	C	0.974640	-0.327028	-0.925289
C107	C	1.014783	-0.304977	-0.815321
H108	H	1.044170	-0.337871	-0.979526
H109	H	0.924964	-0.382782	-0.920113
H110	H	0.925055	-0.276694	-0.957658
H111	H	1.064411	-0.355259	-0.782888
H112	H	1.064402	-0.249198	-0.820563
H113	H	1.396463	-0.681782	-0.384091
O114	O	1.650789	-1.085513	-0.638736
C115	C	1.710434	-1.212614	-0.698330
C116	C	1.636572	-1.167256	-0.624341
H117	H	1.698980	-1.278711	-0.686702
H118	H	1.691928	-1.196402	-0.783050
H119	H	1.795139	-1.196298	-0.679961
H120	H	1.551842	-1.183548	-0.642615
H121	H	1.655168	-1.183471	-0.539643
O122	O	1.386214	-1.085808	-0.373657
C123	C	1.326710	-1.213047	-0.314125
C124	C	1.400517	-1.167518	-0.388097
H125	H	1.338232	-1.279118	-0.325790
H126	H	1.345206	-1.196919	-0.229399
H127	H	1.241986	-1.196802	-0.332478
H128	H	1.485266	-1.183739	-0.369839
H129	H	1.381930	-1.183650	-0.472802
O130	O	1.319000	-0.962061	-0.306376
C131	C	1.259519	-1.089303	-0.246829
C132	C	1.333318	-1.043771	-0.320806
H133	H	1.271053	-1.155373	-0.258486
H134	H	1.278013	-1.073168	-0.162104
H135	H	1.174792	-1.073067	-0.265183
H136	H	1.418069	-1.059983	-0.302547
H137	H	1.314733	-1.059911	-0.405509
H138	H	1.396466	-0.472329	-0.907071
