data_functionalizedCrystal
_audit_creation_method	'MofGen! by Chris Wilmer'
_symmetry_space_group_name_H-M	'P1'
_symmetry_Int_Tables_number	1
_symmetry_cell_setting	triclinic
loop_
_symmetry_equiv_pos_as_xyz
  x,y,z
_cell_length_a	15.944499
_cell_length_b	15.944493
_cell_length_c	14.421503
_cell_angle_alpha	90.010165
_cell_angle_beta	89.989779
_cell_angle_gamma	83.476327
loop_
_atom_site_label
_atom_site_type_symbol
_atom_site_fract_x
_atom_site_fract_y
_atom_site_fract_z
O1	O	1.114534	0.108117	-0.077155
O2	O	0.869975	0.121519	-0.077143
O3	O	0.998958	-0.007462	-0.077157
O4	O	0.985551	0.237097	-0.077141
O5	O	0.998937	-0.007443	0.077066
O6	O	0.869954	0.121538	0.077080
O7	O	1.114512	0.108136	0.077068
Cu8	Cu	0.992231	0.114839	0.091156
Cu9	Cu	0.992257	0.114816	-0.091231
O10	O	0.985530	0.237116	0.077082
C11	C	0.838670	0.120979	-0.000030
C12	C	0.745422	0.119334	-0.000026
C13	C	0.453871	0.194269	-0.000035
C14	C	0.514918	0.155307	-0.076080
C15	C	0.409787	0.113358	-0.000048
C16	C	0.514883	0.155304	0.075973
C17	C	0.574695	0.116299	-0.000036
C18	C	0.469607	0.074373	-0.076155
C19	C	0.469565	0.074382	0.075965
C20	C	0.530595	0.035361	-0.000098
C21	C	0.314787	0.111666	-0.000056
C22	C	0.669694	0.117984	-0.000035
C23	C	0.998400	-0.038747	-0.000049
C24	C	0.996757	-0.131995	-0.000061
C25	C	1.072679	-0.367769	-0.000047
C26	C	1.031748	-0.418339	-0.076085
C27	C	0.993713	-0.302716	-0.000050
C28	C	1.031708	-0.418296	0.075967
C29	C	0.990778	-0.467625	-0.000034
C30	C	0.952802	-0.352057	-0.076150
C31	C	0.952775	-0.352011	0.075971
C32	C	0.911785	-0.402548	-0.000086
C33	C	0.995405	-0.207716	-0.000059
C34	C	0.989079	-0.562622	-0.000031
C35	C	1.145818	0.108675	-0.000047
C36	C	1.239066	0.110320	-0.000057
C37	C	0.986088	0.268401	-0.000027
C38	C	0.987731	0.361650	-0.000022
N39	N	0.992220	0.114854	0.219437
N40	N	0.992275	0.114794	-0.219512
C41	C	0.932567	0.174468	0.469098
C42	C	1.008466	0.190761	0.530898
C43	C	0.992240	0.114834	0.408599
C44	C	0.916361	0.098560	0.530892
C45	C	0.992253	0.114816	0.591320
C46	C	1.068177	0.131165	0.469038
C47	C	0.976022	0.038931	0.469027
C48	C	1.051976	0.055192	0.530800
C49	C	0.992231	0.114846	0.303338
C50	C	0.992270	0.114804	0.696579
H51	H	0.535018	0.189523	-0.140361
H52	H	0.563787	-0.031847	-0.000143
O53	O	0.872530	0.234720	0.436653
C54	C	0.842822	0.360903	0.344931
C55	C	0.910890	0.292710	0.381595
H56	H	0.873812	0.407815	0.300425
H57	H	0.795219	0.329935	0.301373
H58	H	0.809043	0.395474	0.405916
H59	H	0.944732	0.258115	0.320666
H60	H	0.958437	0.323726	0.425180
H61	H	0.852186	0.084803	0.558064
O62	O	1.144758	0.147805	0.436906
C63	C	1.248610	0.246365	0.432663
C64	C	1.161881	0.227606	0.469118
H65	H	1.262474	0.310891	0.458675
H66	H	1.299549	0.195878	0.458644
H67	H	1.247989	0.246234	0.353616
H68	H	1.162419	0.227751	0.548162
H69	H	1.110980	0.278096	0.443067
H70	H	0.962269	-0.025230	0.441830
O71	O	0.445419	0.033862	0.152775
C72	C	0.361094	0.043387	0.291859
C73	C	0.388371	0.089261	0.204826
H74	H	0.314980	0.088163	0.333976
H75	H	0.329167	-0.014002	0.270210
H76	H	0.418998	0.022049	0.335856
H77	H	0.330511	0.110654	0.160790
H78	H	0.420328	0.146611	0.226539
O79	O	0.414119	0.274385	-0.000279
C80	C	0.392039	0.407525	-0.080695
C81	C	0.437096	0.316813	-0.080539
H82	H	0.410612	0.441860	-0.145568
H83	H	0.320792	0.405548	-0.080092
H84	H	0.411401	0.442341	-0.016491
H85	H	0.417803	0.281944	-0.144732
H86	H	0.508334	0.318851	-0.081093
O87	O	1.024869	0.267265	0.563486
C88	C	1.043899	0.352726	0.698023
C89	C	1.025347	0.266039	0.661245
H90	H	1.044274	0.351769	0.777065
H91	H	1.108121	0.367111	0.671592
H92	H	0.992974	0.403498	0.672628
H93	H	1.076219	0.215211	0.686625
H94	H	0.961100	0.251726	0.687669
O95	O	0.445651	0.033631	-0.152913
C96	C	0.330348	-0.013699	-0.239003
C97	C	0.357363	0.032471	-0.152048
H98	H	0.258968	-0.014667	-0.238323
H99	H	0.349348	0.020554	-0.303753
H100	H	0.362748	-0.081223	-0.239275
H101	H	0.324977	0.099997	-0.151686
H102	H	0.338379	-0.001847	-0.087337
O103	O	0.538701	0.196263	0.152643
C104	C	0.526387	0.326345	0.239240
C105	C	0.499334	0.280047	0.152392
H106	H	0.494585	0.394097	0.239056
H107	H	0.506809	0.292581	0.304072
H108	H	0.597851	0.326643	0.238856
H109	H	0.427875	0.279736	0.152686
H110	H	0.518974	0.313826	0.087599
H111	H	1.065105	-0.447299	-0.140373
O112	O	1.153825	-0.349141	-0.000322
C113	C	1.287126	-0.361943	-0.080800
C114	C	1.195253	-0.383103	-0.080598
H115	H	1.320652	-0.389406	-0.145687
H116	H	1.287651	-0.290506	-0.080207
H117	H	1.321107	-0.390303	-0.016610
H118	H	1.161218	-0.354798	-0.144777
H119	H	1.194789	-0.454547	-0.081142
H120	H	1.102499	0.004751	0.557722
H121	H	0.919482	-0.323239	-0.140503
O122	O	0.830565	-0.420950	-0.000290
C123	C	0.697208	-0.407747	-0.080612
C124	C	0.789173	-0.386864	-0.080502
H125	H	0.663711	-0.380184	-0.145447
H126	H	0.696473	-0.479159	-0.080055
H127	H	0.663339	-0.379308	-0.016369
H128	H	0.823097	-0.415249	-0.144735
H129	H	0.789847	-0.315446	-0.081011
O130	O	0.913135	-0.317492	0.152762
C131	C	0.909924	-0.312273	0.319729
C132	C	0.954897	-0.351418	0.232832
H133	H	0.943659	-0.339700	0.384487
H134	H	0.911072	-0.240919	0.318682
H135	H	0.841698	-0.327264	0.320342
H136	H	1.023140	-0.336492	0.232162
H137	H	0.953681	-0.422763	0.233912
O138	O	1.071612	-0.452720	0.152631
C139	C	1.201504	-0.474508	0.239207
C140	C	1.156404	-0.435466	0.152367
H141	H	1.270071	-0.460587	0.239013
H142	H	1.168578	-0.446184	0.304045
H143	H	1.199260	-0.545717	0.238822
H144	H	1.158635	-0.364258	0.152662
H145	H	1.189343	-0.463856	0.087568
