data_functionalizedCrystal
_audit_creation_method	'MofGen! by Chris Wilmer'
_symmetry_space_group_name_H-M	'P1'
_symmetry_Int_Tables_number	1
_symmetry_cell_setting	triclinic
loop_
_symmetry_equiv_pos_as_xyz
  x,y,z
_cell_length_a	11.026607
_cell_length_b	15.944551
_cell_length_c	9.482900
_cell_angle_alpha	99.334197
_cell_angle_beta	78.636152
_cell_angle_gamma	96.042377
loop_
_atom_site_label
_atom_site_type_symbol
_atom_site_fract_x
_atom_site_fract_y
_atom_site_fract_z
O1	O	1.629108	0.341447	-0.120915
O2	O	1.275798	0.301394	-0.120914
O3	O	1.462099	0.200605	-0.120901
O4	O	1.442807	0.442235	-0.120927
O5	O	1.424257	0.221183	0.120889
O6	O	1.237956	0.321972	0.120876
O7	O	1.591266	0.362024	0.120875
Cu8	Cu	1.411156	0.343877	0.142953
Cu9	Cu	1.455908	0.319541	-0.142992
O10	O	1.404965	0.462813	0.120862
C11	C	1.211666	0.304294	-0.000019
C12	C	1.076950	0.282267	-0.000019
C13	C	1.003151	0.343086	-0.000026
C14	C	0.863914	0.320322	-0.000026
C15	C	1.442377	0.179479	-0.000006
C16	C	1.439975	0.085870	-0.000005
C17	C	1.318759	-0.147313	-0.000025
C18	C	1.356391	-0.189675	0.119192
C19	C	1.435632	-0.085514	-0.000016
C20	C	1.393728	-0.209942	-0.119194
C21	C	1.431430	-0.251064	-0.000034
C22	C	1.473281	-0.126634	0.119299
C23	C	1.510618	-0.146907	-0.119194
C24	C	1.548331	-0.189236	0.000052
C25	C	1.438050	0.009855	-0.000005
C26	C	1.429020	-0.346429	-0.000034
C27	C	1.655399	0.359124	-0.000023
C28	C	1.790116	0.381150	-0.000033
C29	C	1.424688	0.483939	-0.000036
C30	C	1.427091	0.577547	-0.000046
N31	N	1.379688	0.360994	0.344071
N32	N	1.487386	0.302419	-0.344110
C33	C	1.446618	0.324584	0.416275
C34	C	1.420446	0.338834	0.583690
H35	H	1.037058	0.213341	-0.000048
H36	H	1.221729	-0.128660	0.000094
H37	H	1.291183	-0.208678	0.219980
H38	H	1.564064	0.260692	0.593771
H39	H	1.575784	-0.127888	-0.219988
C40	C	1.270285	0.420534	0.577542
C41	C	1.276174	0.417319	0.427924
H42	H	1.206382	0.455312	0.629303
H43	H	1.253001	0.364596	0.602413
H44	H	1.347474	0.443888	0.602379
H45	H	1.198987	0.393959	0.403085
H46	H	1.293450	0.473267	0.403042
H47	H	1.506881	-0.090590	0.220198
H48	H	1.043047	0.412009	-0.000025
C49	C	1.228041	-0.237794	-0.255012
C50	C	1.348272	-0.258727	-0.255258
H51	H	1.199979	-0.267906	-0.339013
H52	H	1.174077	-0.253051	-0.170368
H53	H	1.228536	-0.178230	-0.255511
H54	H	1.347777	-0.318290	-0.254748
H55	H	1.402250	-0.243476	-0.339923
C56	C	0.682564	0.222729	-0.000028
C57	C	0.810074	0.227271	-0.000023
H58	H	0.649329	0.165283	-0.000037
H59	H	0.642747	0.257076	0.084283
H60	H	0.669144	0.242737	-0.084352
H61	H	0.823493	0.207269	0.084307
H62	H	0.849902	0.192912	-0.084344
C63	C	1.524684	0.185808	0.369032
C64	C	1.550138	0.268276	0.332382
H65	H	1.588594	0.151050	0.317223
H66	H	1.520706	0.187983	0.470518
H67	H	1.447496	0.162458	0.344187
H68	H	1.627323	0.291628	0.357238
H69	H	1.554130	0.266104	0.230874
C70	C	1.761952	-0.141161	0.001407
C71	C	1.679394	-0.214170	0.000156
H72	H	1.842861	-0.156551	0.001490
H73	H	1.762958	-0.115496	-0.082517
H74	H	1.736035	-0.101927	0.086112
H75	H	1.705305	-0.253402	-0.084555
H76	H	1.678392	-0.239848	0.084089
C77	C	0.971474	0.478741	-0.000093
C78	C	0.843961	0.474199	-0.000077
H79	H	1.004715	0.536183	-0.000139
H80	H	0.984905	0.458759	0.084234
H81	H	1.011281	0.444371	-0.084401
H82	H	0.804152	0.508564	0.084237
H83	H	0.830520	0.494192	-0.084413
H84	H	1.343758	0.380554	0.645809
