data_functionalizedCrystal
_audit_creation_method	'MofGen! by Chris Wilmer'
_symmetry_space_group_name_H-M	'P1'
_symmetry_Int_Tables_number	1
_symmetry_cell_setting	triclinic
loop_
_symmetry_equiv_pos_as_xyz
  x,y,z
_cell_length_a	19.288867
_cell_length_b	19.288864
_cell_length_c	17.766277
_cell_angle_alpha	89.971843
_cell_angle_beta	89.992126
_cell_angle_gamma	83.136659
loop_
_atom_site_label
_atom_site_type_symbol
_atom_site_fract_x
_atom_site_fract_y
_atom_site_fract_z
O1	O	0.921352	0.086655	-0.062604
O2	O	0.719092	0.098343	-0.062616
O3	O	0.826066	-0.008631	-0.062563
O4	O	0.814378	0.193629	-0.062657
O5	O	0.826048	-0.008637	0.062626
O6	O	0.719073	0.098337	0.062573
O7	O	0.921333	0.086650	0.062585
Cu8	Cu	0.820201	0.092493	0.074010
Cu9	Cu	0.820224	0.092500	-0.074040
O10	O	0.814359	0.193624	0.062532
C11	C	0.693206	0.097964	-0.000022
C12	C	0.616102	0.096834	-0.000024
C13	C	0.060547	0.088701	-0.068252
C14	C	0.132995	0.089758	-0.068256
C15	C	0.169213	0.090287	-0.000016
C16	C	0.132980	0.089741	0.068233
C17	C	0.060535	0.088676	0.068234
C18	C	0.278533	0.132652	0.052245
C19	C	0.350976	0.133721	0.052241
C20	C	0.392659	0.093566	-0.000017
C21	C	0.361888	0.052352	-0.052284
C22	C	0.289443	0.051288	-0.052282
C23	C	0.247768	0.091440	-0.000010
C24	C	0.507439	0.095254	-0.068264
C25	C	0.579889	0.096306	-0.068265
C26	C	0.579872	0.096296	0.068225
C27	C	0.507425	0.095236	0.068224
C28	C	0.471213	0.094718	-0.000023
C29	C	0.825681	-0.034510	0.000042
C30	C	0.824552	-0.111614	0.000073
C31	C	0.947219	0.087029	-0.000010
C32	C	1.024323	0.088159	-0.000013
N33	N	0.820191	0.092488	0.178140
C34	C	0.814744	0.219503	-0.000074
C35	C	0.815873	0.296607	-0.000110
C36	C	0.753105	0.341302	-0.000099
C37	C	0.754166	0.413750	-0.000082
C38	C	0.817998	0.441498	-0.000061
C39	C	0.880774	0.396792	-0.000076
C40	C	0.879712	0.324346	-0.000101
C41	C	0.868171	0.549746	0.043841
C42	C	0.869230	0.622191	0.043870
C43	C	0.821278	0.664943	0.000012
C44	C	0.772254	0.635244	-0.043866
C45	C	0.771191	0.562799	-0.043891
C46	C	0.819157	0.520052	-0.000035
C47	C	0.759656	0.788195	0.000041
C48	C	0.760719	0.860643	0.000053
C49	C	0.887329	0.843684	0.000066
C50	C	0.886264	0.771237	0.000046
C51	C	0.822425	0.743498	0.000037
N52	N	0.820240	0.092499	-0.178171
C53	C	0.867575	0.045143	0.217550
C54	C	0.867579	0.045140	0.296352
C55	C	0.820206	0.092494	0.335740
C56	C	0.772813	0.139842	0.296321
C57	C	0.772806	0.139839	0.217520
C58	C	0.810907	0.155781	0.460549
C59	C	0.810919	0.155785	0.539348
C60	C	0.820224	0.092502	0.578787
C61	C	0.829532	0.029213	0.539417
C62	C	0.829525	0.029210	0.460617
C63	C	0.820208	0.092502	0.421186
C64	C	0.867615	0.045150	0.703643
C65	C	0.867614	0.045146	0.782446
C66	C	0.772852	0.139854	0.782413
C67	C	0.772849	0.139852	0.703612
C68	C	0.820234	0.092501	0.664231
H69	H	0.477930	0.094797	0.123791
H70	H	0.939302	0.866275	0.000028
Br71	Br	0.707162	0.693257	-0.103383
Br72	Br	0.668975	0.474420	-0.000065
H73	H	0.930827	0.287954	-0.000111
H74	H	0.837101	-0.022322	0.428566
H75	H	0.734240	0.178397	0.328395
Br76	Br	0.247684	-0.004645	-0.123210
H77	H	0.609382	0.096743	-0.123836
H78	H	0.734220	0.178394	0.185432
Br79	Br	0.708542	0.204111	0.650120
H80	H	0.803344	0.207319	0.571396
Br81	Br	0.798347	0.241675	0.407033
Br82	Br	0.182168	0.090494	-0.160872
Br83	Br	0.971454	0.710574	0.000035
H84	H	0.031041	0.088238	0.123804
Br85	Br	0.704665	0.522493	-0.103440
Br86	Br	0.629020	0.096999	0.160838
H87	H	0.031068	0.088276	-0.123824
Br88	Br	0.708552	0.204113	0.835862
H89	H	0.477954	0.094830	-0.123835
Br90	Br	0.931889	-0.019120	0.349847
H91	H	0.376021	0.167297	0.094784
Br92	Br	0.221971	0.187142	0.123184
H93	H	0.906157	0.006586	0.185489
Br94	Br	0.935721	0.662495	0.103471
H95	H	0.162474	0.090170	0.123794
H96	H	0.395825	0.019656	-0.094840
H97	H	0.701123	0.318722	-0.000113
H98	H	0.707675	0.765608	0.000038
Br99	Br	0.931920	-0.019114	0.650196
H100	H	0.709604	0.897035	0.000057
H101	H	0.907225	0.514941	0.079555
Br102	Br	0.842170	-0.056678	0.592931
Br103	Br	0.967404	0.434448	-0.000056
Br104	Br	0.931919	-0.019119	0.835936
