data_functionalizedCrystal
_audit_creation_method	'MofGen! by Chris Wilmer'
_symmetry_space_group_name_H-M	'P1'
_symmetry_Int_Tables_number	1
_symmetry_cell_setting	triclinic
loop_
_symmetry_equiv_pos_as_xyz
  x,y,z
_cell_length_a	12.837943
_cell_length_b	22.610064
_cell_length_c	23.532409
_cell_angle_alpha	89.992888
_cell_angle_beta	88.839250
_cell_angle_gamma	90.007937
loop_
_atom_site_label
_atom_site_type_symbol
_atom_site_fract_x
_atom_site_fract_y
_atom_site_fract_z
O1	O	1.373940	0.049166	0.147960
O2	O	1.072209	0.049170	0.140651
O3	O	1.232172	0.049169	0.061896
O4	O	1.213977	0.049167	0.226715
O5	O	1.232144	-0.049201	0.061907
O6	O	1.072181	-0.049199	0.140662
O7	O	1.373911	-0.049203	0.147972
Zn8	Zn	1.223042	-0.064820	0.144319
Zn9	Zn	1.223079	0.064786	0.144304
O10	O	1.213949	-0.049202	0.226726
C11	C	1.033600	-0.000014	0.138187
C12	C	0.918598	-0.000013	0.130823
N13	N	1.223024	-0.153272	0.144329
C14	C	0.676730	-0.000022	0.219356
C15	C	0.568675	-0.000021	0.212439
C16	C	0.594432	-0.000014	0.110073
C17	C	0.702487	-0.000015	0.116990
C18	C	0.743631	-0.000018	0.171633
C19	C	0.851688	-0.000015	0.178550
C20	C	0.877443	-0.000012	0.076184
C21	C	0.769389	-0.000011	0.069267
C22	C	1.293913	-0.561914	0.109437
C23	C	1.293919	-0.623834	0.109433
O24	O	1.354147	-0.655853	0.079773
N25	N	1.223078	-0.654809	0.144292
C26	C	1.152220	-0.623861	0.179152
O27	O	1.091965	-0.655894	0.208802
C28	C	1.152211	-0.561943	0.179153
C29	C	1.223063	-0.530970	0.144296
C30	C	1.364759	-0.530942	0.074583
C31	C	1.364755	-0.469026	0.074588
C32	C	1.293905	-0.438083	0.109447
C33	C	1.223059	-0.469055	0.144301
C34	C	1.081349	-0.530996	0.214010
C35	C	1.081345	-0.469073	0.214007
C36	C	1.152198	-0.438101	0.179150
C37	C	1.152205	-0.376196	0.179165
N38	N	1.223045	-0.345220	0.144306
C39	C	1.293895	-0.376164	0.109447
C40	C	1.152244	-0.753895	0.179148
C41	C	1.152258	-0.815813	0.179151
C42	C	1.293955	-0.815781	0.109431
C43	C	1.293946	-0.753862	0.109432
C44	C	1.223085	-0.722920	0.144290
C45	C	1.293882	-0.246137	0.109460
C46	C	1.293874	-0.184215	0.109470
C47	C	1.152173	-0.184253	0.179187
C48	C	1.152184	-0.246168	0.179180
C49	C	1.223042	-0.277109	0.144312
O50	O	1.092004	-0.344137	0.208808
O51	O	1.354132	-0.344124	0.079798
C52	C	1.412521	-0.000018	0.150435
C53	C	1.527522	-0.000016	0.157800
C54	C	1.231694	-0.000015	0.040659
C55	C	1.230300	-0.000010	-0.022638
N56	N	1.223105	0.153239	0.144290
C57	C	1.224387	0.053613	-0.296229
C58	C	1.225681	0.053614	-0.236755
O59	O	1.226400	0.099214	-0.205995
N60	N	1.226307	-0.000008	-0.207010
C61	C	1.225648	-0.053634	-0.236742
O62	O	1.226300	-0.099244	-0.205981
C63	C	1.224361	-0.053633	-0.296216
C64	C	1.223725	-0.000008	-0.325958
C65	C	1.223752	0.107235	-0.325971
C66	C	1.222456	0.107234	-0.385441
C67	C	1.221794	0.053613	-0.415170
C68	C	1.222429	-0.000008	-0.385428
C69	C	1.223710	-0.107258	-0.325948
C70	C	1.222423	-0.107253	-0.385425
C71	C	1.221787	-0.053628	-0.415167
C72	C	1.220470	-0.053630	-0.474627
N73	N	1.219845	-0.000008	-0.504372
C74	C	1.220507	0.053613	-0.474643
C75	C	1.228353	-0.053631	-0.111844
C76	C	1.229633	-0.053632	-0.052372
C77	C	1.229668	0.053616	-0.052388
C78	C	1.228381	0.053616	-0.111861
C79	C	1.227728	-0.000009	-0.141589
C80	C	1.217783	0.053609	-0.599535
C81	C	1.216482	0.053603	-0.659011
C82	C	1.216453	-0.053644	-0.658990
C83	C	1.217748	-0.053639	-0.599519
C84	C	1.218417	-0.000008	-0.569794
O85	O	1.219755	-0.099208	-0.505425
O86	O	1.219868	0.099215	-0.505413
C87	C	1.214426	-0.000018	0.247964
C88	C	1.215820	-0.000018	0.311260
H89	H	0.885186	-0.000018	0.223043
H90	H	1.023639	-0.443882	0.242392
C91	C	0.932656	-0.050571	-0.008942
C92	C	0.950985	-0.000007	0.023721
H93	H	0.978054	-0.050564	-0.041330
H94	H	0.945073	-0.084870	0.013223
H95	H	0.862410	-0.050566	-0.020877
H96	H	1.021228	-0.000015	0.035660
H97	H	0.938575	0.034300	0.001553
C98	C	1.426642	-0.549968	-0.020632
C99	C	1.442652	-0.564947	0.036264
H100	H	1.474743	-0.570956	-0.044287
H101	H	1.357581	-0.560134	-0.030590
H102	H	1.436761	-0.508656	-0.025608
H103	H	1.432525	-0.606259	0.041240
H104	H	1.511729	-0.554785	0.046224
C105	C	1.127035	0.145021	-0.675766
C106	C	1.215782	0.112552	-0.691703
H107	H	1.126608	0.181413	-0.695945
H108	H	1.066405	0.122989	-0.684453
H109	H	1.127916	0.152689	-0.636090
H110	H	1.214898	0.104881	-0.731378
H111	H	1.276428	0.134589	-0.683019
C112	C	1.308244	-0.115875	-0.534195
C113	C	1.218429	-0.112588	-0.566829
H114	H	1.308663	-0.152268	-0.514017
H115	H	1.368149	-0.113648	-0.558457
H116	H	1.308820	-0.083943	-0.507973
H117	H	1.217856	-0.144517	-0.593054
H118	H	1.158507	-0.114821	-0.542565
H119	H	0.735873	-0.000015	0.024778
C120	C	1.433946	-0.239869	0.040547
C121	C	1.371771	-0.280140	0.071134
H122	H	1.482036	-0.260862	0.016891
H123	H	1.391029	-0.215720	0.017724
H124	H	1.470955	-0.215719	0.066285
H125	H	1.334756	-0.304287	0.045396
H126	H	1.414694	-0.304299	0.093959
H127	H	1.351639	-0.728648	0.081048
C128	C	0.640421	-0.000023	0.319847
C129	C	0.721963	-0.000023	0.279418
H130	H	0.668348	-0.000027	0.356926
H131	H	0.598824	0.034279	0.315017
H132	H	0.598800	-0.034329	0.315021
H133	H	0.763580	0.034285	0.284241
H134	H	0.763578	-0.034328	0.284250
H135	H	1.351574	-0.159000	0.081086
C136	C	0.432230	0.050546	0.264041
C137	C	0.495132	-0.000022	0.264897
H138	H	0.386824	0.050542	0.296426
H139	H	0.474929	0.084842	0.264612
H140	H	0.392263	0.050542	0.230507
H141	H	0.535105	-0.000015	0.298429
H142	H	0.452428	-0.034327	0.264331
H143	H	1.224238	-0.150926	-0.301742
C144	C	1.130157	0.115834	-0.531120
C145	C	1.218492	0.112562	-0.566870
H146	H	1.130589	0.152228	-0.510953
H147	H	1.069247	0.113592	-0.553266
H148	H	1.130739	0.083904	-0.504887
H149	H	1.217906	0.144490	-0.593105
H150	H	1.279418	0.114810	-0.544722
C151	C	1.216555	-0.159655	-0.653014
C152	C	1.215726	-0.112583	-0.691674
H153	H	1.216106	-0.196041	-0.673195
H154	H	1.277478	-0.157426	-0.630876
H155	H	1.156631	-0.157426	-0.628758
H156	H	1.275655	-0.114810	-0.715927
H157	H	1.154797	-0.114814	-0.713822
H158	H	1.221892	-0.150922	-0.409627
C159	C	1.012110	-0.239977	0.248088
C160	C	1.074299	-0.280216	0.217492
H161	H	0.964017	-0.260995	0.271733
H162	H	1.055019	-0.215835	0.270924
H163	H	0.975107	-0.215817	0.222356
H164	H	1.111309	-0.304373	0.243225
H165	H	1.031386	-0.304369	0.194654
C166	C	0.440221	-0.000019	0.054024
C167	C	0.549193	-0.000016	0.050013
H168	H	0.412295	-0.000018	0.016944
H169	H	0.417229	-0.034321	0.073922
H170	H	0.417238	0.034286	0.073917
H171	H	0.572176	-0.034323	0.030123
H172	H	0.572194	0.034290	0.030105
C173	C	1.387640	-0.399603	-0.001827
C174	C	1.442471	-0.435085	0.036089
H175	H	1.435574	-0.378679	-0.025647
H176	H	1.344556	-0.423829	-0.024483
H177	H	1.345615	-0.372228	0.018937
H178	H	1.484490	-0.462463	0.015324
H179	H	1.485573	-0.410856	0.058747
C180	C	1.317232	-0.885399	0.033189
C181	C	1.371830	-0.849801	0.071107
H182	H	1.365308	-0.906399	0.009529
H183	H	1.275050	-0.912701	0.053952
H184	H	1.274324	-0.861237	0.010365
H185	H	1.414733	-0.873963	0.093934
H186	H	1.414030	-0.822495	0.050342
H187	H	1.094574	-0.841026	0.207541
H188	H	1.094544	-0.728705	0.207538
C189	C	0.941274	-0.524781	0.282911
C190	C	1.003460	-0.565029	0.252323
H191	H	0.893181	-0.545792	0.306562
H192	H	0.984185	-0.500633	0.305740
H193	H	0.904269	-0.500628	0.257173
H194	H	1.040471	-0.589179	0.278061
H195	H	0.960544	-0.589188	0.229493
H196	H	1.227861	0.097283	-0.136073
H197	H	1.094491	-0.159049	0.207571
H198	H	1.224294	0.150902	-0.301772
C199	C	1.222678	0.213240	-0.379466
C200	C	1.221803	0.166182	-0.418129
H201	H	1.222294	0.249633	-0.399645
H202	H	1.162750	0.211021	-0.355221
H203	H	1.283597	0.210985	-0.357318
H204	H	1.160880	0.168434	-0.440274
H205	H	1.281737	0.168402	-0.442384
H206	H	1.230203	0.097277	-0.028172
H207	H	1.230131	-0.097299	-0.028160
H208	H	1.227812	-0.097302	-0.136045
