data_functionalizedCrystal
_audit_creation_method	'MofGen! by Chris Wilmer'
_symmetry_space_group_name_H-M	'P1'
_symmetry_Int_Tables_number	1
_symmetry_cell_setting	triclinic
loop_
_symmetry_equiv_pos_as_xyz
  x,y,z
_cell_length_a	14.560438
_cell_length_b	12.970454
_cell_length_c	14.560438
_cell_angle_alpha	89.998443
_cell_angle_beta	60.006739
_cell_angle_gamma	59.998785
loop_
_atom_site_label
_atom_site_type_symbol
_atom_site_fract_x
_atom_site_fract_y
_atom_site_fract_z
Zr1	Zr	1.005185	0.993268	-0.120391
O2	O	1.196769	0.828655	-0.267007
O3	O	0.813601	1.043725	-0.075464
O4	O	1.005183	1.043737	-0.267038
O5	O	1.005189	0.828640	0.075705
O6	O	1.005182	1.213405	-0.267040
O7	O	1.005187	0.828643	-0.075433
O8	O	0.662476	1.213383	0.075650
O9	O	1.347894	0.828662	-0.266984
O10	O	0.892402	1.191873	-0.056282
O11	O	0.892404	1.065250	0.056513
O12	O	1.117967	1.065264	-0.169040
O13	O	1.117970	0.938641	-0.056245
Zr14	Zr	1.005187	1.263864	0.120654
Zr15	Zr	1.005184	1.263868	-0.120394
Zr16	Zr	1.005188	0.993264	0.120658
Zr17	Zr	1.246213	0.993279	-0.120355
Zr18	Zr	0.764159	1.263853	0.120619
O19	O	1.196772	1.213407	0.075728
O20	O	1.196767	1.213413	-0.267012
O21	O	1.196773	0.828649	0.075733
O22	O	0.813603	1.428478	0.267270
O23	O	0.813599	1.428484	-0.075470
O24	O	0.813605	1.043719	0.267276
O25	O	1.005184	1.428492	-0.075442
O26	O	1.005189	1.213395	0.267301
O27	O	1.005190	1.043728	0.267304
O28	O	1.005186	1.428490	0.075697
O29	O	1.347893	1.043753	-0.266987
O30	O	0.662479	1.213380	0.267251
O31	O	0.662478	1.428471	0.267248
O32	O	0.662475	1.428474	0.075647
O33	O	1.347897	0.828658	-0.075383
O34	O	1.347896	1.043749	-0.075386
O35	O	0.892405	1.191869	0.169304
O36	O	0.892403	1.318492	0.056509
O37	O	1.117968	1.191883	-0.056249
O38	O	1.117970	1.065260	0.056546
C39	C	0.703697	1.128553	0.000088
C40	C	0.601375	1.128548	0.000073
C41	C	0.636501	1.035086	-0.083147
C42	C	0.540312	1.035106	-0.083090
C43	C	0.373872	1.222056	0.083415
C44	C	0.470060	1.222040	0.083353
C45	C	0.732593	0.927149	-0.179274
C46	C	0.636404	0.927169	-0.179218
C47	C	1.005188	0.790087	0.000137
C48	C	1.005188	0.675210	0.000138
C49	C	1.306675	1.128580	0.000176
C50	C	1.408997	1.128584	0.000191
C51	C	1.005182	1.128572	-0.301383
C52	C	1.005181	1.128573	-0.403715
C53	C	1.005185	1.467046	0.000127
C54	C	1.005184	1.581922	0.000126
C55	C	1.005193	1.035087	-0.547945
C56	C	1.005183	1.035097	-0.451788
C57	C	1.005175	1.222055	-0.451796
C58	C	1.005176	1.222050	-0.547946
C59	C	1.005203	0.927145	-0.547942
C60	C	1.005193	0.927154	-0.451786
C61	C	1.005190	1.128561	0.301647
C62	C	1.005191	1.128559	0.403978
C63	C	0.703696	1.467032	0.000083
C64	C	0.601373	1.581904	0.000066
C65	C	0.703701	1.128547	0.301603
C66	C	0.601380	1.128541	0.403919
C67	C	0.703700	1.467027	0.301598
C68	C	0.601378	1.581897	0.403913
C69	C	1.306673	0.790106	-0.301334
C70	C	1.408994	0.675235	-0.403649
C71	C	1.306677	0.790101	0.000181
C72	C	1.409000	0.675228	0.000197
C73	C	1.306671	1.128585	-0.301339
C74	C	1.408992	1.128591	-0.403655
C75	C	0.470053	1.635845	0.083314
C76	C	0.373896	1.743769	0.083303
C77	C	0.409062	1.797755	0.000046
C78	C	0.540395	1.743804	-0.083210
C79	C	0.636549	1.635877	-0.083202
C80	C	0.470058	1.635846	0.451948
C81	C	0.373901	1.743791	0.548073
C82	C	0.409066	1.797780	0.596165
C83	C	0.540400	1.743826	0.548122
C84	C	0.636554	1.635888	0.451994
C85	C	1.540315	0.621295	-0.451693
C86	C	1.636471	0.513374	-0.547839
C87	C	1.601305	0.459390	-0.595935
C88	C	1.469972	0.513340	-0.547887
C89	C	1.373818	0.621264	-0.451747
C90	C	1.373793	0.621277	0.083468
C91	C	1.469923	0.513353	0.083507
C92	C	1.601259	0.459377	0.000269
C93	C	1.636465	0.513339	-0.083007
C94	C	1.540336	0.621266	-0.083040
C95	C	0.553305	1.194634	0.510863
C96	C	0.457168	1.194618	0.606997
C97	C	0.457187	1.062415	0.489227
C98	C	0.553328	1.062424	0.393097
C99	C	0.553290	1.270965	0.578858
C100	C	0.457153	1.270949	0.674991
H101	H	0.266947	1.298173	0.151219
C102	C	1.579029	0.680663	-0.398810
N103	N	1.608199	0.725377	-0.358989
H104	H	1.679613	0.371511	-0.674218
C105	C	0.781003	1.576564	-0.174778
N106	N	0.889806	1.531895	-0.243757
H107	H	0.795567	0.936441	-0.261405
H108	H	0.517158	1.368684	0.570122
H109	H	1.743402	0.469461	-0.586945
C110	C	1.780944	0.453933	-0.174577
N111	N	1.889768	0.409177	-0.243555
C112	C	0.781008	1.576548	0.399172
N113	N	0.889811	1.531858	0.359392
C114	C	1.127316	0.802634	-0.477570
N115	N	1.219297	0.708851	-0.496991
H116	H	0.911925	0.946013	-0.375340
C117	C	0.883088	0.939702	-0.522151
N118	N	0.791112	0.949162	-0.502724
H119	H	0.636369	0.946028	-0.255674
H120	H	0.647219	0.834991	-0.170907
C121	C	1.005147	1.324895	-0.398899
N122	N	1.005123	1.402358	-0.359056
H123	H	1.266892	0.665169	-0.412632
C124	C	0.229442	1.803112	0.600910
N125	N	0.120639	1.847786	0.640706
C126	C	1.005122	1.324905	-0.600801
N127	N	1.005068	1.402387	-0.640605
H128	H	0.330754	1.885633	0.000050
C129	C	0.813237	0.811161	-0.156613
N130	N	0.873983	0.723794	-0.139551
C131	C	0.431338	1.576476	0.174905
N132	N	0.402168	1.531760	0.243891
H133	H	1.098469	0.841306	-0.624385
C134	C	1.579086	0.680587	-0.174663
N135	N	1.608282	0.725259	-0.243681
C136	C	0.579057	1.803211	-0.174781
N137	N	0.608174	1.847964	-0.243748
H138	H	1.679521	0.371495	0.000308
C139	C	0.229437	1.803101	0.174900
N140	N	0.120633	1.847787	0.243893
H141	H	1.441357	0.469369	-0.587061
H142	H	0.441400	1.591903	0.412804
H143	H	0.330758	1.885669	0.674440
C144	C	0.579061	1.803225	0.601043
N145	N	0.608178	1.847963	0.640910
C146	C	1.229328	0.680635	0.175049
N147	N	1.120518	0.725343	0.244037
H148	H	0.643293	1.228517	0.578889
H149	H	0.592480	1.008590	0.306020
C150	C	1.431168	0.454007	0.175113
N151	N	1.401974	0.409310	0.244108
C152	C	0.404316	0.989695	0.477335
N153	N	0.364492	0.934923	0.468376
H154	H	0.367137	1.372007	0.727174
C155	C	0.505952	1.202935	0.743802
N156	N	0.542704	1.151707	0.795631
H157	H	0.441449	1.298156	0.151109
