data_functionalizedCrystal
_audit_creation_method	'MofGen! by Chris Wilmer'
_symmetry_space_group_name_H-M	'P1'
_symmetry_Int_Tables_number	1
_symmetry_cell_setting	triclinic
loop_
_symmetry_equiv_pos_as_xyz
  x,y,z
_cell_length_a	9.065218
_cell_length_b	9.198806
_cell_length_c	9.065218
_cell_angle_alpha	90.001336
_cell_angle_beta	85.015885
_cell_angle_gamma	90.004029
loop_
_atom_site_label
_atom_site_type_symbol
_atom_site_fract_x
_atom_site_fract_y
_atom_site_fract_z
O1	O	1.960401	0.120890	0.216354
O2	O	1.531116	0.120891	0.234100
O3	O	1.754631	0.120887	0.010584
O4	O	1.736885	0.120893	0.439869
O5	O	1.754614	-0.120898	0.010584
O6	O	1.531098	-0.120894	0.234099
O7	O	1.960383	-0.120895	0.216353
Cu8	Cu	1.745739	-0.142971	0.225226
Cu9	Cu	1.745760	0.142967	0.225227
O10	O	1.736867	-0.120892	0.439868
C11	C	1.476120	-0.000001	0.232394
C12	C	1.312277	-0.000000	0.227294
N13	N	1.745735	-0.344085	0.225225
C14	C	1.839580	-0.416284	0.130961
C15	C	1.839603	-0.583696	0.130956
C16	C	2.015378	0.000000	0.218059
C17	C	2.179221	0.000009	0.223158
N18	N	1.745776	0.344081	0.225217
C19	C	1.752917	-0.000003	-0.044403
C20	C	1.747817	0.000004	-0.208245
C21	C	1.738582	0.000002	0.494855
C22	C	1.743681	0.000004	0.658698
H23	H	1.919954	-0.645784	0.050258
O24	O	1.650120	-0.581710	0.321570
C25	C	1.730702	-0.493681	0.413403
H26	H	1.845264	-0.471005	0.355915
H27	H	1.669565	-0.386600	0.435957
H28	H	1.742438	-0.552253	0.522592
O29	O	1.649691	-0.418126	0.321353
C30	C	1.503164	-0.381038	0.295805
H31	H	1.500496	-0.339099	0.177734
H32	H	1.429476	-0.481216	0.311844
H33	H	1.461036	-0.292813	0.377177
O34	O	1.935243	-0.341988	0.034676
C35	C	1.854692	-0.253945	-0.057157
H36	H	1.740094	-0.231345	0.000277
H37	H	1.915804	-0.146826	-0.079610
H38	H	1.843044	-0.312465	-0.166395
