data_functionalizedCrystal
_audit_creation_method	'MofGen! by Chris Wilmer'
_symmetry_space_group_name_H-M	'P1'
_symmetry_Int_Tables_number	1
_symmetry_cell_setting	triclinic
loop_
_symmetry_equiv_pos_as_xyz
  x,y,z
_cell_length_a	20.919309
_cell_length_b	20.919309
_cell_length_c	17.052862
_cell_angle_alpha	67.964359
_cell_angle_beta	90.671054
_cell_angle_gamma	60.099716
loop_
_atom_site_label
_atom_site_type_symbol
_atom_site_fract_x
_atom_site_fract_y
_atom_site_fract_z
Zr1	Zr	0.678560	0.625950	-0.089029
O2	O	0.591984	0.736863	-0.208409
O3	O	0.700921	0.500566	-0.048742
O4	O	0.723766	0.595871	-0.196867
O5	O	0.555873	0.670332	0.052362
O6	O	0.832472	0.588606	-0.191961
O7	O	0.569139	0.641558	-0.060284
O8	O	0.791607	0.418123	0.073009
O9	O	0.596738	0.840815	-0.212607
O10	O	0.796634	0.552077	-0.032357
O11	O	0.705607	0.578972	0.048048
O12	O	0.732504	0.691181	-0.126351
O13	O	0.641477	0.718076	-0.045946
Zr14	Zr	0.830776	0.660255	0.098454
Zr15	Zr	0.851934	0.614364	-0.081203
Zr16	Zr	0.657402	0.671841	0.090629
Zr17	Zr	0.686143	0.791742	-0.095724
Zr18	Zr	0.823194	0.494463	0.105149
O19	O	0.808415	0.785639	0.058167
O20	O	0.838499	0.720388	-0.197283
O21	O	0.561900	0.802114	0.047040
O22	O	0.917353	0.549342	0.217835
O23	O	0.947437	0.484091	-0.037615
O24	O	0.670837	0.565817	0.206708
O25	O	0.953464	0.615874	-0.042937
O26	O	0.785570	0.690334	0.206292
O27	O	0.676864	0.697599	0.201386
O28	O	0.940197	0.644647	0.069709
O29	O	0.734547	0.831605	-0.206387
O30	O	0.774789	0.454600	0.215812
O31	O	0.912598	0.445390	0.222033
O32	O	0.929416	0.408913	0.079229
O33	O	0.579920	0.877292	-0.069804
O34	O	0.717729	0.868082	-0.063584
O35	O	0.776833	0.595024	0.135776
O36	O	0.867859	0.568129	0.055371
O37	O	0.803730	0.707233	-0.038623
O38	O	0.712703	0.734128	0.041782
C39	C	0.745184	0.435723	0.013087
C40	C	0.741965	0.365340	0.015930
C41	C	0.787965	0.318235	-0.024705
C42	C	0.784942	0.252100	-0.022026
C43	C	0.735913	0.233075	0.021283
C44	C	0.689911	0.280184	0.061923
C45	C	0.692939	0.346314	0.059249
C46	C	0.724397	0.034104	0.031462
C47	C	0.721371	-0.032030	0.034131
C48	C	0.816403	-0.060110	-0.049818
C49	C	0.819424	0.006025	-0.052493
C50	C	0.773424	0.053126	-0.011849
C51	C	0.732820	0.165476	0.024020
C52	C	0.776522	0.120719	-0.014581
C53	C	0.537804	0.657596	-0.005076
C54	C	0.464202	0.662514	-0.008398
C55	C	0.463097	0.592215	0.039101
C56	C	0.393938	0.596842	0.035977
C57	C	0.325885	0.671767	-0.014650
C58	C	0.326992	0.742072	-0.062151
C59	C	0.396150	0.737446	-0.059022
C60	C	0.115399	0.689369	-0.026548
C61	C	0.046239	0.693990	-0.029676
C62	C	0.113190	0.548759	0.068454
C63	C	0.182346	0.544139	0.071574
C64	C	0.183447	0.614444	0.024078
C65	C	0.255193	0.676498	-0.017847
C66	C	0.254138	0.609714	0.027279
C67	C	0.971533	0.628610	0.014501
C68	C	1.045134	0.623691	0.017823
C69	C	0.781134	0.585700	-0.220011
C70	C	0.790116	0.566218	-0.296281
C71	C	0.764153	0.850482	-0.003662
C72	C	0.767372	0.920865	-0.006505
C73	C	0.681523	0.801754	-0.707532
C74	C	0.673079	0.820061	-0.635875
C75	C	0.702337	0.756602	-0.550973
C76	C	0.740041	0.674833	-0.537735
C77	C	0.748480	0.656524	-0.609399
C78	C	0.769295	0.611372	-0.452840
C79	C	0.806999	0.529603	-0.439601
C80	C	0.815437	0.511298	-0.511260
C81	C	0.786178	0.574757	-0.596161
C82	C	0.760856	0.629681	-0.381176
C83	C	0.827814	0.484451	-0.283043
C84	C	0.836257	0.466144	-0.354700
C85	C	0.728203	0.700505	0.229436
C86	C	0.719221	0.719987	0.305706
C87	C	0.962048	0.421230	0.022876
C88	C	1.032431	0.345928	0.029040
C89	C	0.718718	0.493125	0.237811
C90	C	0.706517	0.442224	0.316923
C91	C	0.935583	0.478632	0.247600
C92	C	0.996983	0.422812	0.330033
C93	C	0.573754	0.807573	-0.238175
C94	C	0.512353	0.863393	-0.320608
C95	C	0.547288	0.864975	-0.013451
C96	C	0.476905	0.940277	-0.019615
C97	C	0.790618	0.793080	-0.228386
C98	C	0.802819	0.843981	-0.307498
C99	C	1.028305	0.302185	-0.013865
C100	C	1.094433	0.231436	-0.008091
C101	C	1.164685	0.204429	0.040595
C102	C	1.168810	0.248179	0.083502
C103	C	1.102683	0.318930	0.077722
C104	C	0.737966	0.426701	0.399875
C105	C	0.726498	0.378886	0.474215
C106	C	0.683586	0.346589	0.465602
C107	C	0.652134	0.362116	0.382640
C108	C	0.663597	0.409936	0.308302
C109	C	1.073340	0.382559	0.326775
C110	C	1.131041	0.330118	0.404223
C111	C	1.112382	0.317926	0.484929
C112	C	1.036018	0.358186	0.488185
C113	C	0.978319	0.410631	0.410738
C114	C	0.435997	0.903654	-0.317350
C115	C	0.378297	0.956116	-0.394799
C116	C	0.396955	0.968311	-0.475505
C117	C	0.473320	0.928047	-0.478761
C118	C	0.531018	0.875591	-0.401313
C119	C	0.481032	0.984025	0.023283
C120	C	0.414907	1.054787	0.017488
C121	C	0.344656	1.081796	-0.031201
C122	C	0.340531	1.038043	-0.074104
C123	C	0.406656	0.967286	-0.068314
C124	C	0.845735	0.876263	-0.298856
C125	C	0.857214	0.924082	-0.373182
C126	C	0.825772	0.939622	-0.456149
C127	C	0.782854	0.907334	-0.464789
C128	C	0.771380	0.859511	-0.390464
H129	H	0.649995	0.264685	0.097192
Br130	Br	0.621883	0.931031	-0.653845
Br131	Br	0.888415	0.855185	-0.186267
Br132	Br	0.661974	0.098014	0.086629
Br133	Br	1.190698	0.246747	0.590030
Br134	Br	0.769191	0.357823	0.586794
H135	H	0.403284	0.931668	-0.103245
Br136	Br	0.915457	0.967896	-0.361436
Br137	Br	0.234633	0.843761	-0.130852
Br138	Br	0.668035	0.281692	0.566500
Br139	Br	1.264158	0.211514	0.149576
Br140	Br	0.796211	0.470519	0.411590
Br141	Br	0.318641	1.039506	-0.580607
Br142	Br	1.108296	0.378285	0.135963
Br143	Br	0.274668	1.010748	-0.390360
Br144	Br	1.010709	0.341631	0.597723
H145	H	0.393045	0.539597	0.074657
Br146	Br	0.841349	1.004528	-0.557012
Br147	Br	0.620913	0.430992	0.195726
H148	H	0.822400	0.213746	-0.055114
Br149	Br	0.498629	0.944605	-0.588299
H150	H	0.593190	0.842808	-0.403976
Br151	Br	0.410654	0.887114	-0.207831
H152	H	0.730156	0.696259	-0.391964
Br153	Br	0.593898	0.318278	0.370965
Br154	Br	1.098683	0.399097	0.217256
Br155	Br	0.740179	0.928440	-0.577395
Br156	Br	0.713126	0.815712	-0.402208
H157	H	0.971110	0.324169	-0.053521
H158	H	1.091060	0.195823	-0.043032
Br159	Br	0.111691	0.453350	0.132913
H160	H	0.827886	0.333723	-0.059977
Br161	Br	1.234670	0.275487	0.399784
H162	H	0.657700	0.853414	-0.776660
H163	H	1.218524	0.146818	0.045295
Br164	Br	0.555452	0.490523	0.107806
H165	H	0.916147	0.443399	0.413403
Br166	Br	0.576366	0.947390	0.089364
H167	H	0.859347	0.021513	-0.087759
H168	H	0.853855	-0.098466	-0.082908
Br169	Br	0.420523	1.114149	0.075722
H170	H	-0.009173	0.755006	-0.070907
Br171	Br	0.254921	1.177826	-0.039051
Br172	Br	0.843063	0.146537	-0.073351
Br173	Br	0.690879	0.781448	-0.453724
H174	H	0.116286	0.746614	-0.065238
H175	H	0.681442	-0.047515	0.069398
H176	H	0.397043	0.794694	-0.097690
Br177	Br	0.630511	0.410240	0.114405
H178	H	0.692901	0.149979	0.059283
Br179	Br	0.274702	0.442449	0.140283
Br180	Br	0.245182	1.074707	-0.140176
H181	H	0.309549	0.548711	0.068504
H182	H	0.199777	0.737502	-0.059068
H183	H	0.793053	0.559856	-0.654514
H184	H	0.846131	0.444716	-0.500475
H185	H	0.851636	0.432777	-0.213913
Br186	Br	0.887424	0.355175	-0.336745
