data_functionalizedCrystal
_audit_creation_method	'MofGen! by Chris Wilmer'
_symmetry_space_group_name_H-M	'P1'
_symmetry_Int_Tables_number	1
_symmetry_cell_setting	triclinic
loop_
_symmetry_equiv_pos_as_xyz
  x,y,z
_cell_length_a	19.188925
_cell_length_b	19.188930
_cell_length_c	10.065875
_cell_angle_alpha	98.754308
_cell_angle_beta	81.282196
_cell_angle_gamma	83.143665
loop_
_atom_site_label
_atom_site_type_symbol
_atom_site_fract_x
_atom_site_fract_y
_atom_site_fract_z
O1	O	0.936398	0.076851	-0.113536
O2	O	1.269731	0.410185	0.219797
O3	O	1.603065	0.743518	0.553130
O4	O	0.733086	0.088590	-0.113535
O5	O	1.066419	0.421923	0.219799
O6	O	1.399753	0.755256	0.553132
O7	O	0.840607	-0.018933	-0.113509
O8	O	1.173940	0.314400	0.219824
O9	O	1.507274	0.647734	0.553158
O10	O	0.828877	0.184374	-0.113562
O11	O	1.162211	0.517707	0.219771
O12	O	1.495544	0.851040	0.553104
O13	O	0.820104	0.001652	0.113475
O14	O	1.153437	0.334985	0.446808
O15	O	1.486771	0.668319	0.780141
O16	O	0.712583	0.109175	0.113449
O17	O	1.045916	0.442508	0.446782
O18	O	1.379250	0.775841	0.780116
O19	O	0.915895	0.097436	0.113447
O20	O	1.249228	0.430770	0.446781
O21	O	1.582562	0.764103	0.780114
Zn22	Zn	0.810984	0.106574	0.149487
Zn23	Zn	1.144317	0.439907	0.482820
Zn24	Zn	1.477650	0.773241	0.816153
Zn25	Zn	0.837997	0.079452	-0.149574
Zn26	Zn	1.171331	0.412785	0.183759
Zn27	Zn	1.504664	0.746119	0.517092
O28	O	0.808374	0.204959	0.113422
O29	O	1.141708	0.538292	0.446755
O30	O	1.475041	0.871626	0.780088
C31	C	0.696823	0.098503	-0.000042
C32	C	1.030157	0.431836	0.333291
C33	C	1.363490	0.765169	0.666624
C34	C	0.619319	0.097364	-0.000040
C35	C	0.952652	0.430697	0.333293
C36	C	1.285985	0.764030	0.666626
C37	C	0.057550	0.152826	-0.000058
C38	C	0.390883	0.486159	0.333275
C39	C	0.724217	0.819493	0.666608
C40	C	0.130374	0.153902	-0.000066
C41	C	0.463707	0.487235	0.333267
C42	C	0.797041	0.820569	0.666601
C43	C	0.175307	0.090812	-0.000047
C44	C	0.508640	0.424145	0.333286
C45	C	0.841973	0.757478	0.666620
C46	C	0.147413	0.026637	-0.000055
C47	C	0.480747	0.359971	0.333278
C48	C	0.814080	0.693304	0.666611
C49	C	0.074592	0.025562	-0.000061
C50	C	0.407925	0.358895	0.333272
C51	C	0.741259	0.692229	0.666605
N52	N	0.289003	0.052144	0.077232
N53	N	0.622337	0.385477	0.410565
N54	N	0.955670	0.718810	0.743899
N55	N	0.358180	0.053170	0.077241
N56	N	0.691513	0.386503	0.410574
N57	N	1.024847	0.719836	0.743907
C58	C	0.394714	0.094047	-0.000032
C59	C	0.728048	0.427380	0.333302
C60	C	1.061381	0.760714	0.666635
N61	N	0.359456	0.133872	-0.077296
N62	N	0.692790	0.467205	0.256038
N63	N	1.026123	0.800538	0.589371
N64	N	0.290272	0.132848	-0.077298
N65	N	0.623606	0.466181	0.256035
N66	N	0.956939	0.799515	0.589368
C67	C	0.254270	0.091970	-0.000041
C68	C	0.587604	0.425304	0.333292
C69	C	0.920937	0.758637	0.666625
C70	C	0.501564	0.159383	-0.000041
C71	C	0.834898	0.492716	0.333292
C72	C	1.168231	0.826049	0.666626
C73	C	0.574391	0.160455	-0.000057
C74	C	0.907724	0.493788	0.333276
C75	C	1.241057	0.827122	0.666609
C76	C	0.591428	0.033190	-0.000033
C77	C	0.924761	0.366523	0.333300
C78	C	1.258094	0.699856	0.666634
C79	C	0.518604	0.032118	-0.000031
C80	C	0.851937	0.365451	0.333303
C81	C	1.185270	0.698785	0.666636
C82	C	0.473676	0.095217	-0.000028
C83	C	0.807009	0.428550	0.333305
C84	C	1.140342	0.761884	0.666639
C85	C	0.829975	-0.034651	-0.000013
C86	C	1.163308	0.298682	0.333320
C87	C	1.496642	0.632016	0.666653
C88	C	0.828833	-0.112154	-0.000001
C89	C	1.162167	0.221179	0.333332
C90	C	1.495500	0.554512	0.666665
C91	C	0.891924	-0.157079	0.000005
C92	C	1.225257	0.176254	0.333338
C93	C	1.558590	0.509588	0.666671
C94	C	0.890854	-0.229905	-0.000017
C95	C	1.224187	0.103428	0.333316
C96	C	1.557521	0.436762	0.666649
C97	C	0.826688	-0.257800	-0.000018
C98	C	1.160021	0.075533	0.333316
C99	C	1.493354	0.408866	0.666649
C100	C	0.763590	-0.212866	-0.000031
C101	C	1.096923	0.120467	0.333302
C102	C	1.430256	0.453800	0.666635
C103	C	0.764662	-0.140044	-0.000023
C104	C	1.097996	0.193290	0.333310
C105	C	1.431329	0.526623	0.666643
N106	N	0.770663	-0.358799	0.077230
N107	N	1.103996	-0.025465	0.410563
N108	N	1.437329	0.307868	0.743896
N109	N	0.769648	-0.427978	0.077225
N110	N	1.102981	-0.094644	0.410558
N111	N	1.436314	0.238689	0.743891
C112	C	0.823452	-0.477211	-0.000045
C113	C	1.156785	-0.143878	0.333288
C114	C	1.490119	0.189455	0.666621
N115	N	0.878319	-0.454652	-0.077293
N116	N	1.211652	-0.121319	0.256040
N117	N	1.544986	0.212014	0.589373
N118	N	0.879336	-0.385467	-0.077282
N119	N	1.212669	-0.052133	0.256051
N120	N	1.546002	0.281200	0.589384
C121	C	0.825518	-0.336764	-0.000027
C122	C	1.158851	-0.003430	0.333306
C123	C	1.492184	0.329903	0.666639
C124	C	0.885387	-0.601103	-0.000065
C125	C	1.218721	-0.267769	0.333268
C126	C	1.552054	0.065564	0.666602
C127	C	0.884316	-0.673930	-0.000095
C128	C	1.217649	-0.340597	0.333238
C129	C	1.550982	-0.007264	0.666571
C130	C	0.757048	-0.656889	-0.000096
C131	C	1.090382	-0.323556	0.333238
C132	C	1.423715	0.009778	0.666571
C133	C	0.758123	-0.584064	-0.000079
C134	C	1.091456	-0.250731	0.333254
C135	C	1.424790	0.082602	0.666588
C136	C	0.822294	-0.556175	-0.000057
C137	C	1.155627	-0.222842	0.333276
C138	C	1.488960	0.110491	0.666609
C139	C	0.952158	0.087523	-0.000048
C140	C	1.285491	0.420856	0.333285
C141	C	1.618825	0.754190	0.666619
C142	C	1.029664	0.088661	-0.000059
C143	C	1.362997	0.421994	0.333274
C144	C	1.696330	0.755328	0.666608
C145	C	0.819007	0.220677	-0.000077
C146	C	1.152340	0.554010	0.333256
C147	C	1.485673	0.887343	0.666589
C148	C	0.820149	0.298179	-0.000098
C149	C	1.153482	0.631513	0.333235
C150	C	1.486816	0.964846	0.666569
N151	N	0.792553	0.125083	0.353588
N152	N	1.125886	0.458417	0.686921
N153	N	1.459220	0.791750	1.020255
N154	N	0.856434	0.060937	-0.353675
N155	N	1.189767	0.394270	-0.020342
N156	N	1.523101	0.727604	0.312991
C157	C	0.831580	0.085888	0.421376
C158	C	1.164914	0.419221	0.754709
C159	C	1.498247	0.752554	1.088043
C160	C	0.817401	0.100138	0.578540
C161	C	1.150734	0.433472	0.911873
C162	C	1.484067	0.766805	1.245207
H163	H	0.184003	-0.024732	-0.000044
H164	H	0.517336	0.308602	0.333290
H165	H	0.850669	0.641935	0.666623
C166	C	0.758073	0.159727	0.657312
C167	C	1.091406	0.493060	0.990645
C168	C	1.424740	0.826394	1.323978
N169	N	0.713388	0.204608	0.716645
N170	N	1.046721	0.537942	1.049978
N171	N	1.380055	0.871275	1.383312
H172	H	0.875489	0.041778	0.363062
H173	H	1.208822	0.375111	0.696396
H174	H	1.542155	0.708444	1.029729
H175	H	0.935694	-0.710509	-0.000098
H176	H	1.269028	-0.377175	0.333235
H177	H	1.602361	-0.043842	0.666569
C178	C	0.693006	-0.243552	-0.000022
C179	C	1.026339	0.089781	0.333311
C180	C	1.359672	0.423115	0.666645
N181	N	0.639840	-0.266664	-0.000016
N182	N	0.973173	0.066669	0.333318
N183	N	1.306506	0.400003	0.666651
C184	C	0.452143	0.228790	-0.000064
C185	C	0.785476	0.562123	0.333269
C186	C	1.118810	0.895456	0.666603
N187	N	0.414921	0.281067	-0.000087
N188	N	0.748255	0.614401	0.333246
N189	N	1.081588	0.947734	0.666580
C190	C	0.915763	0.001349	0.567556
C191	C	1.249096	0.334682	0.900889
C192	C	1.582429	0.668015	1.234223
N193	N	0.960450	-0.043531	0.508226
N194	N	1.293784	0.289803	0.841559
N195	N	1.627117	0.623136	1.174893
C196	C	0.733228	0.184669	0.432365
C197	C	1.066561	0.518002	0.765698
C198	C	1.399895	0.851336	1.099032
N199	N	0.688543	0.229550	0.491698
N200	N	1.021876	0.562884	0.825031
N201	N	1.355210	0.896217	1.158365
H202	H	0.628012	-0.018181	-0.000028
H203	H	0.961346	0.315153	0.333305
H204	H	1.294679	0.648486	0.666639
C205	C	0.161055	0.224492	-0.000056
C206	C	0.494388	0.557825	0.333277
C207	C	0.827722	0.891159	0.666611
N208	N	0.184162	0.277661	-0.000044
N209	N	0.517495	0.610994	0.333289
N210	N	0.850828	0.944328	0.666623
H211	H	0.020974	0.204206	-0.000063
H212	H	0.354307	0.537539	0.333270
H213	H	0.687641	0.870872	0.666604
C214	C	0.955978	-0.570424	-0.000062
C215	C	1.289311	-0.237091	0.333272
C216	C	1.622644	0.096242	0.666605
N217	N	1.009147	-0.547320	-0.000063
N218	N	1.342481	-0.213986	0.333270
N219	N	1.675814	0.119347	0.666603
C220	C	0.605064	0.231046	-0.000051
C221	C	0.938397	0.564379	0.333283
C222	C	1.271730	0.897713	0.666616
N223	N	0.628167	0.284217	-0.000040
N224	N	0.961500	0.617550	0.333293
N225	N	1.294833	0.950884	0.666626
C226	C	0.043915	-0.045026	-0.000045
C227	C	0.377249	0.288307	0.333288
C228	C	0.710582	0.621641	0.666621
N229	N	0.020808	-0.098193	-0.000026
N230	N	0.354141	0.235140	0.333308
N231	N	0.687475	0.568473	0.666641
H232	H	0.704804	-0.679601	-0.000103
H233	H	1.038137	-0.346268	0.333231
H234	H	1.371470	-0.012934	0.666564
C235	C	0.960260	-0.279330	-0.000002
C236	C	1.293594	0.054003	0.333331
C237	C	1.626927	0.387336	0.666665
N238	N	1.012537	-0.316555	0.000013
N239	N	1.345870	0.016778	0.333347
N240	N	1.679204	0.350112	0.666680
C241	C	0.487925	-0.038467	-0.000002
C242	C	0.821259	0.294866	0.333331
C243	C	1.154592	0.628200	0.666664
N244	N	0.464819	-0.091635	0.000021
N245	N	0.798152	0.241699	0.333355
N246	N	1.131486	0.575032	0.666688
H247	H	0.944177	-0.134377	0.000018
H248	H	1.277510	0.198956	0.333351
H249	H	1.610844	0.532289	0.666684
C250	C	0.688717	-0.534644	-0.000078
C251	C	1.022050	-0.201311	0.333255
C252	C	1.355383	0.132023	0.666589
N253	N	0.636437	-0.497421	-0.000083
N254	N	0.969770	-0.164088	0.333251
N255	N	1.303104	0.169245	0.666584
H256	H	0.713285	-0.103465	-0.000028
H257	H	1.046618	0.229868	0.333306
H258	H	1.379952	0.563202	0.666639
