data_functionalizedCrystal
_audit_creation_method	'MofGen! by Chris Wilmer'
_symmetry_space_group_name_H-M	'P1'
_symmetry_Int_Tables_number	1
_symmetry_cell_setting	triclinic
loop_
_symmetry_equiv_pos_as_xyz
  x,y,z
_cell_length_a	18.215407
_cell_length_b	16.959454
_cell_length_c	18.215399
_cell_angle_alpha	89.973895
_cell_angle_beta	89.983176
_cell_angle_gamma	90.020523
loop_
_atom_site_label
_atom_site_type_symbol
_atom_site_fract_x
_atom_site_fract_y
_atom_site_fract_z
Zn1	Zn	1.125075	-0.314661	-0.416138
Zn2	Zn	1.125000	-0.446852	-0.293080
Zn3	Zn	1.002014	-0.314693	-0.293085
Zn4	Zn	1.001983	-0.446803	-0.416105
O5	O	1.063518	-0.380752	-0.354602
O6	O	1.228049	-0.332204	-0.399825
O7	O	1.108667	-0.429355	-0.190097
O8	O	1.018382	-0.204078	-0.309424
O9	O	1.227994	-0.429325	-0.309416
O10	O	1.108794	-0.204055	-0.399830
O11	O	1.018309	-0.332258	-0.190100
O12	O	0.899025	-0.332210	-0.309392
O13	O	1.018330	-0.429240	-0.519094
O14	O	0.899003	-0.429271	-0.399775
O15	O	1.108765	-0.332156	-0.519118
O16	O	1.108638	-0.557457	-0.309385
O17	O	1.018258	-0.557420	-0.399770
C18	C	0.872312	-0.380739	-0.354581
C19	C	0.790513	-0.380752	-0.354589
C20	C	0.602327	-0.431371	-0.401593
C21	C	0.525468	-0.431374	-0.401602
C22	C	0.525461	-0.330148	-0.307628
C23	C	0.602319	-0.330142	-0.307623
C24	C	0.640749	-0.380758	-0.354604
C25	C	0.487033	-0.380766	-0.354618
C26	C	0.403700	-0.380769	-0.354628
C27	C	0.724088	-0.380755	-0.354596
C28	C	1.063456	-0.586119	-0.354590
C29	C	1.063497	-0.673975	-0.354609
C30	C	1.016526	-1.045462	-0.401661
C31	C	1.110715	-1.045440	-0.307618
C32	C	1.110690	-0.962894	-0.307611
C33	C	1.063580	-0.921628	-0.354629
C34	C	1.016497	-0.962908	-0.401654
C35	C	1.157767	-0.921608	-0.260582
C36	C	1.157743	-0.839057	-0.260573
C37	C	1.110637	-0.797789	-0.307595
C38	C	1.063552	-0.839075	-0.354622
C39	C	1.016442	-0.797809	-0.401640
C40	C	0.969361	-0.839093	-0.448672
C41	C	0.969391	-0.921641	-0.448676
C42	C	1.110606	-0.715241	-0.307591
C43	C	1.016414	-0.715255	-0.401634
C44	C	1.255471	-0.380767	-0.354624
C45	C	1.337270	-0.380773	-0.354633
C46	C	1.063553	-0.380689	-0.546555
C47	C	1.063568	-0.380662	-0.628354
C48	C	1.063600	-0.174584	-0.354631
C49	C	1.063635	-0.086728	-0.354643
C50	C	1.016558	-0.330070	-0.816551
C51	C	1.016571	-0.330054	-0.893409
C52	C	1.110665	-0.431161	-0.893395
C53	C	1.110648	-0.431180	-0.816538
C54	C	1.063596	-0.380630	-0.778118
C55	C	1.063625	-0.380595	-0.931834
C56	C	1.063640	-0.380578	-1.015168
C57	C	1.063580	-0.380648	-0.694779
C58	C	1.063526	-0.380758	-0.163396
C59	C	1.063653	-0.380562	-0.081597
H60	H	0.494187	-0.472586	-0.439866
H61	H	1.148953	-0.472355	-0.785245
C62	C	0.644598	-0.487039	-0.453276
H63	H	0.610704	-0.517176	-0.481267
H64	H	0.674562	-0.521442	-0.425073
H65	H	0.674598	-0.456834	-0.485389
H66	H	0.978245	-0.288909	-0.785271
H67	H	0.978268	-0.288883	-0.924698
H68	H	0.494162	-0.288939	-0.269376
C69	C	0.644587	-0.274466	-0.255932
H70	H	0.610692	-0.244330	-0.227945
H71	H	0.674588	-0.240062	-0.284136
H72	H	0.674548	-0.304665	-0.223816
C73	C	0.964594	-0.669869	-0.453356
H74	H	0.936558	-0.706280	-0.481361
H75	H	0.992713	-0.637623	-0.485442
H76	H	0.932529	-0.637712	-0.425168
C77	C	0.917544	-0.793699	-0.500392
H78	H	0.889506	-0.830104	-0.528401
H79	H	0.945668	-0.761451	-0.532474
H80	H	0.885482	-0.761542	-0.472201
H81	H	0.931059	-0.955262	-0.486966
H82	H	1.148974	-0.472316	-0.924687
C83	C	0.964738	-1.090868	-0.453389
H84	H	0.971496	-1.145942	-0.446660
H85	H	0.975470	-1.077299	-0.502844
H86	H	0.915291	-1.077385	-0.442565
H87	H	1.149065	-1.079043	-0.269334
H88	H	1.196115	-0.955212	-0.222297
H89	H	1.148936	-0.681632	-0.269295
H90	H	1.196079	-0.805449	-0.222279
