data_functionalizedCrystal
_audit_creation_method	'MofGen! by Chris Wilmer'
_symmetry_space_group_name_H-M	'P1'
_symmetry_Int_Tables_number	1
_symmetry_cell_setting	triclinic
loop_
_symmetry_equiv_pos_as_xyz
  x,y,z
_cell_length_a	14.044191
_cell_length_b	27.732048
_cell_length_c	12.503572
_cell_angle_alpha	86.498265
_cell_angle_beta	86.162165
_cell_angle_gamma	92.082785
loop_
_atom_site_label
_atom_site_type_symbol
_atom_site_fract_x
_atom_site_fract_y
_atom_site_fract_z
O1	O	1.261500	-0.113919	-0.089234
O2	O	1.761500	0.386081	0.410766
O3	O	0.985593	-0.109712	-0.089249
O4	O	1.485593	0.390288	0.410751
O5	O	1.132117	-0.041821	-0.089255
O6	O	1.632117	0.458179	0.410745
O7	O	1.114977	-0.181811	-0.089227
O8	O	1.614977	0.318189	0.410773
O9	O	1.121097	-0.046936	0.089387
O10	O	1.621097	0.453064	0.589387
O11	O	0.974574	-0.114828	0.089394
O12	O	1.474574	0.385172	0.589394
O13	O	1.250481	-0.119034	0.089409
O14	O	1.750481	0.380966	0.589409
Cu15	Cu	1.111521	-0.117398	0.105713
Cu16	Cu	1.611521	0.382602	0.605713
Cu17	Cu	1.124553	-0.111349	-0.105553
Cu18	Cu	1.624553	0.388651	0.394447
O19	O	1.103957	-0.186926	0.089415
O20	O	1.603957	0.313074	0.589415
C21	C	0.944796	-0.110430	0.000070
C22	C	1.444796	0.389570	0.500070
C23	C	0.839651	-0.104941	0.000064
C24	C	1.339651	0.395059	0.500064
C25	C	0.588940	-0.133833	0.000080
C26	C	1.088940	0.366167	0.500080
C27	C	0.647140	-0.094915	0.000071
C28	C	1.147140	0.405085	0.500071
C29	C	0.754263	-0.100495	0.000067
C30	C	1.254263	0.399505	0.500067
C31	C	0.481807	-0.128254	0.000084
C32	C	0.981807	0.371746	0.500084
C33	C	1.109827	-0.202392	0.000097
C34	C	1.609827	0.297608	0.500097
C35	C	1.110909	-0.256098	0.000108
C36	C	1.610909	0.243902	0.500108
C37	C	1.031147	-0.591167	0.000052
C38	C	1.531147	-0.091167	0.500052
C39	C	1.035167	-0.793015	0.000039
C40	C	1.535167	-0.293015	0.500039
O41	O	0.962230	-0.820845	-0.000012
O42	O	1.462230	-0.320845	0.499988
N43	N	1.122049	-0.816217	0.000046
N44	N	1.622049	-0.316217	0.500046
C45	C	1.207932	-0.788954	0.000048
C46	C	1.707932	-0.288954	0.500048
O47	O	1.281923	-0.813320	0.000042
O48	O	1.781923	-0.313320	0.500042
C49	C	1.203912	-0.587107	0.000053
C50	C	1.703912	-0.087107	0.500053
C51	C	1.117024	-0.563908	0.000057
C52	C	1.617024	-0.063908	0.500057
C53	C	0.944266	-0.567968	0.000055
C54	C	1.444266	-0.067968	0.500055
C55	C	0.943262	-0.517509	0.000064
C56	C	1.443262	-0.017509	0.500064
C57	C	1.029138	-0.490250	0.000070
C58	C	1.529138	0.009750	0.500070
C59	C	1.116019	-0.513449	0.000066
C60	C	1.616019	-0.013449	0.500066
C61	C	1.289794	-0.559845	0.000047
C62	C	1.789794	-0.059845	0.500047
C63	C	1.288782	-0.509380	0.000046
C64	C	1.788782	-0.009380	0.500046
C65	C	1.201894	-0.486181	0.000051
C66	C	1.701894	0.013819	0.500051
C67	C	1.200891	-0.435731	0.000081
C68	C	1.700891	0.064269	0.500081
N69	N	1.114009	-0.412529	0.000075
N70	N	1.614009	0.087471	0.500075
C71	C	1.028133	-0.439788	0.000069
C72	C	1.528133	0.060212	0.500069
C73	C	1.210037	-0.894927	0.000047
C74	C	1.710037	-0.394927	0.500047
C75	C	1.211042	-0.945389	0.000048
C76	C	1.711042	-0.445389	0.500048
C77	C	1.038277	-0.949446	0.000037
C78	C	1.538277	-0.449446	0.500037
C79	C	1.037272	-0.898984	0.000044
C80	C	1.537272	-0.398984	0.500044
C81	C	1.123155	-0.871725	0.000041
C82	C	1.623155	-0.371725	0.500041
C83	C	1.026030	-0.333821	0.000089
C84	C	1.526030	0.166179	0.500089
C85	C	1.025033	-0.283357	0.000102
C86	C	1.525033	0.216643	0.500102
C87	C	1.197798	-0.279304	0.000107
C88	C	1.697798	0.220696	0.500107
C89	C	1.198795	-0.329763	0.000100
C90	C	1.698795	0.170237	0.500100
C91	C	1.112904	-0.357020	0.000087
C92	C	1.612904	0.142980	0.500087
O93	O	1.273790	-0.407870	0.000120
O94	O	1.773790	0.092130	0.500120
O95	O	0.954154	-0.415412	0.000051
O96	O	1.454154	0.084588	0.500051
C97	C	1.032151	-0.641626	0.000043
C98	C	1.532151	-0.141626	0.500043
C99	C	1.119032	-0.664826	0.000039
C100	C	1.619032	-0.164826	0.500039
C101	C	1.204909	-0.637566	0.000045
C102	C	1.704909	-0.137566	0.500045
C103	C	1.120038	-0.715287	0.000040
C104	C	1.620038	-0.215287	0.500040
C105	C	1.034161	-0.742546	0.000035
C106	C	1.534161	-0.242546	0.500035
C107	C	0.947279	-0.719344	0.000028
C108	C	1.447279	-0.219344	0.500028
C109	C	0.946275	-0.668885	0.000037
C110	C	1.446275	-0.168885	0.500037
C111	C	1.291791	-0.660768	0.000051
C112	C	1.791791	-0.160768	0.500051
C113	C	1.292788	-0.711228	0.000043
C114	C	1.792788	-0.211228	0.500043
C115	C	1.206911	-0.738487	0.000038
C116	C	1.706911	-0.238487	0.500038
C117	C	1.291278	-0.118316	0.000087
C118	C	1.791278	0.381684	0.500087
C119	C	1.396424	-0.123805	0.000087
C120	C	1.896424	0.376195	0.500087
C121	C	1.126248	-0.026354	0.000060
C122	C	1.626248	0.473646	0.500060
C123	C	1.125166	0.027352	0.000043
C124	C	1.625166	0.527352	0.500043
N125	N	1.102362	-0.121653	0.254305
N126	N	1.602362	0.378347	0.754305
N127	N	1.133720	-0.107090	-0.254145
N128	N	1.633720	0.392910	0.245855
C129	C	1.088889	-0.127915	0.473421
C130	C	1.588889	0.372085	0.973421
C131	C	1.147190	-0.100829	0.526746
C132	C	1.647190	0.399171	1.026746
C133	C	1.139693	-0.104314	0.648669
C134	C	1.639693	0.395686	1.148669
C135	C	1.096384	-0.124431	0.351487
C136	C	1.596384	0.375569	0.851487
H137	H	0.616519	-0.057404	-0.000012
H138	H	1.116519	0.442596	0.499988
H139	H	0.877355	-0.741548	0.000030
H140	H	1.377355	-0.241548	0.500030
H141	H	0.619564	-0.171340	0.000084
H142	H	1.119564	0.328660	0.500084
H143	H	0.954275	-0.264471	0.000111
H144	H	1.454275	0.235529	0.500111
H145	H	0.956089	-0.356008	0.000078
H146	H	1.456089	0.143992	0.500078
H147	H	1.202734	-0.075023	0.480830
H148	H	1.702734	0.424977	0.980830
H149	H	0.872509	-0.498625	0.000059
H150	H	1.372509	0.001375	0.500059
H151	H	0.874331	-0.590157	0.000047
H152	H	1.374331	-0.090157	0.500047
Cl153	Cl	0.928038	-0.869824	0.000047
Cl154	Cl	1.428038	-0.369824	0.500047
Cl155	Cl	0.930318	-0.983724	0.000030
Cl156	Cl	1.430318	-0.483724	0.500030
H157	H	1.281794	-0.964274	0.000061
H158	H	1.781794	-0.464274	0.500061
H159	H	1.033349	-0.153720	0.519331
H160	H	1.533349	0.346280	1.019331
Cl161	Cl	1.318015	-0.860666	0.000051
Cl162	Cl	1.818015	-0.360666	0.500051
H163	H	1.360548	-0.578725	0.000043
H164	H	1.860548	-0.078725	0.500043
Cl165	Cl	1.305751	-0.245026	0.000122
Cl166	Cl	1.805751	0.254974	0.500122
H167	H	1.358720	-0.487188	0.000037
H168	H	1.858720	0.012812	0.500037
H169	H	1.269546	-0.348654	0.000111
H170	H	1.769546	0.151346	0.500111
Cl171	Cl	0.837038	-0.639728	0.000040
Cl172	Cl	1.337038	-0.139728	0.500040
Cl173	Cl	1.402030	-0.740386	0.000036
Cl174	Cl	1.902030	-0.240386	0.500036
Cl175	Cl	1.399761	-0.626507	0.000062
Cl176	Cl	1.899761	-0.126507	0.500062
