data_functionalizedCrystal
_audit_creation_method	'MofGen! by Chris Wilmer'
_symmetry_space_group_name_H-M	'P1'
_symmetry_Int_Tables_number	1
_symmetry_cell_setting	triclinic
loop_
_symmetry_equiv_pos_as_xyz
  x,y,z
_cell_length_a	13.897449
_cell_length_b	13.897447
_cell_length_c	16.959447
_cell_angle_alpha	90.025380
_cell_angle_beta	89.983087
_cell_angle_gamma	89.977525
loop_
_atom_site_label
_atom_site_type_symbol
_atom_site_fract_x
_atom_site_fract_y
_atom_site_fract_z
Zn1	Zn	1.474643	0.383962	-0.446936
Zn2	Zn	1.974643	0.883962	0.053064
Zn3	Zn	1.474538	0.545281	-0.314769
Zn4	Zn	1.974538	1.045281	0.185231
Zn5	Zn	1.313343	0.384005	-0.314773
Zn6	Zn	1.813343	0.884005	0.185227
Zn7	Zn	1.313304	0.545220	-0.446907
Zn8	Zn	1.813304	1.045220	0.053093
O9	O	1.393957	0.464617	-0.380846
O10	O	1.893957	0.964617	0.119154
O11	O	1.609610	0.405369	-0.429413
O12	O	2.109610	0.905369	0.070587
O13	O	1.453127	0.523930	-0.204158
O14	O	1.953127	1.023930	0.295842
O15	O	1.334800	0.249018	-0.332319
O16	O	1.834800	0.749018	0.167681
O17	O	1.609533	0.523889	-0.332311
O18	O	2.109533	1.023889	0.167689
O19	O	1.453306	0.248986	-0.429418
O20	O	1.953306	0.748986	0.070582
O21	O	1.334698	0.405441	-0.204162
O22	O	1.834698	0.905441	0.295838
O23	O	1.178356	0.405383	-0.332291
O24	O	1.678356	0.905383	0.167709
O25	O	1.334733	0.523786	-0.557522
O26	O	1.834733	1.023786	-0.057522
O27	O	1.178327	0.523828	-0.429370
O28	O	1.678327	1.023828	0.070630
O29	O	1.453269	0.405310	-0.557543
O30	O	1.953269	0.905310	-0.057543
O31	O	1.453089	0.680254	-0.332283
O32	O	1.953089	1.180254	0.167717
O33	O	1.334632	0.680210	-0.429365
O34	O	1.834632	1.180210	0.070635
C35	C	1.393871	0.715231	-0.380838
C36	C	1.893871	1.215231	0.119162
C37	C	1.393923	0.822445	-0.380861
C38	C	1.893923	1.322445	0.119139
C39	C	1.143342	0.464604	-0.380828
C40	C	1.643342	0.964604	0.119172
C41	C	1.036128	0.464622	-0.380839
C42	C	1.536128	0.964622	0.119161
C43	C	1.394008	0.464537	-0.587015
C44	C	1.894008	0.964537	-0.087015
C45	C	1.394030	0.464503	-0.674871
C46	C	1.894030	0.964503	-0.174871
C47	C	0.839833	0.464625	-0.380860
C48	C	1.339833	0.964625	0.119140
C49	C	0.949066	0.464620	-0.380846
C50	C	1.449066	0.964620	0.119154
C51	C	1.645550	0.464631	-0.380865
C52	C	2.145550	0.964631	0.119135
C53	C	1.752764	0.464636	-0.380873
C54	C	2.252764	0.964636	0.119127
C55	C	1.393967	0.909515	-0.380882
C56	C	1.893967	1.409515	0.119118
C57	C	1.394031	1.018747	-0.380907
C58	C	1.894031	1.518747	0.119093
C59	C	1.394062	1.213024	-0.380882
C60	C	1.894062	1.713024	0.119118
C61	C	1.394088	1.105810	-0.380923
C62	C	1.894088	1.605810	0.119077
C63	C	1.332455	0.402709	-1.046355
C64	C	1.832455	0.902709	-0.546355
C65	C	1.455776	0.526093	-1.046339
C66	C	1.955776	1.026093	-0.546339
C67	C	1.455759	0.526115	-0.963793
C68	C	1.955759	1.026115	-0.463793
C69	C	1.394088	0.464435	-0.922524
C70	C	1.894088	0.964435	-0.422524
C71	C	1.332434	0.402732	-0.963801
C72	C	1.832434	0.902732	-0.463801
C73	C	1.517405	0.587824	-0.922510
C74	C	2.017405	1.087824	-0.422510
C75	C	1.517390	0.587850	-0.839959
C76	C	2.017390	1.087850	-0.339959
C77	C	1.455724	0.526164	-0.798688
C78	C	1.955724	1.026164	-0.298688
C79	C	1.394068	0.464458	-0.839971
C80	C	1.894068	0.964458	-0.339971
C81	C	1.332397	0.402777	-0.798702
C82	C	1.832397	0.902777	-0.298702
C83	C	1.270745	0.341065	-0.839983
C84	C	1.770745	0.841065	-0.339983
C85	C	1.270767	0.341046	-0.922531
C86	C	1.770767	0.841046	-0.422531
C87	C	1.455701	0.526183	-0.716140
C88	C	1.955701	1.026183	-0.216140
C89	C	1.332376	0.402800	-0.716148
C90	C	1.832376	0.902800	-0.216148
C91	C	1.393961	0.464627	-0.175480
C92	C	1.893961	0.964627	0.324520
C93	C	1.394126	0.464390	-0.087624
C94	C	1.894126	0.964390	0.412376
H95	H	1.282160	0.352567	-0.682553
H96	H	1.782160	0.852567	-0.182553
H97	H	1.505978	0.576317	-1.079945
H98	H	2.005978	1.076317	-0.579945
O99	O	1.265965	0.336151	-1.090877
O100	O	1.765965	0.836151	-0.590877
H101	H	1.223086	0.293262	-1.048309
H102	H	1.723086	0.793262	-0.548309
H103	H	1.567604	0.638051	-0.956117
H104	H	2.067604	1.138051	-0.456117
O105	O	1.522196	0.592729	-0.671618
O106	O	2.022196	1.092729	-0.171618
H107	H	1.505626	0.668429	-0.687448
H108	H	2.005626	1.168429	-0.187448
O109	O	1.583900	0.654386	-0.795435
O110	O	2.083900	1.154386	-0.295435
H111	H	1.626795	0.697263	-0.838001
H112	H	2.126795	1.197263	-0.338001
H113	H	1.220528	0.290849	-0.806371
H114	H	1.720528	0.790849	-0.306371
O115	O	1.204296	0.274479	-0.967063
O116	O	1.704296	0.774479	-0.467063
H117	H	1.155204	0.317629	-1.004664
H118	H	1.655204	0.817629	-0.504664
