data_functionalizedCrystal
_audit_creation_method	'MofGen! by Chris Wilmer'
_symmetry_space_group_name_H-M	'P1'
_symmetry_Int_Tables_number	1
_symmetry_cell_setting	triclinic
loop_
_symmetry_equiv_pos_as_xyz
  x,y,z
_cell_length_a	6.817900
_cell_length_b	11.102188
_cell_length_c	14.858572
_cell_angle_alpha	93.467807
_cell_angle_beta	104.524003
_cell_angle_gamma	108.603875
loop_
_atom_site_label
_atom_site_type_symbol
_atom_site_fract_x
_atom_site_fract_y
_atom_site_fract_z
V1	V	-4.064538	-0.176639	-0.289960
O2	O	-4.024475	0.007665	-0.284441
O3	O	-4.041627	-0.349453	-0.287977
O4	O	-4.020828	-0.174283	-0.416422
O5	O	-4.045417	-0.168718	-0.155107
V6	V	-4.544255	-0.154551	-0.273831
O7	O	-4.334144	-0.225089	-0.325342
O8	O	-4.724846	-0.106100	-0.238449
O9	O	-4.343960	0.018263	-0.275814
O10	O	-4.701715	-0.338855	-0.279350
O11	O	-4.680772	-0.162472	-0.408684
O12	O	-4.364758	-0.156907	-0.147369
C13	C	-3.892677	-0.391570	-0.283403
C14	C	-3.955262	-0.532851	-0.282625
C15	C	-3.866145	-0.168121	-0.447246
C16	C	-3.911859	-0.167339	-0.550629
C17	C	-3.938296	-0.580841	-0.197095
C18	C	-3.997125	-0.713590	-0.196367
C19	C	-4.089878	-0.750350	-0.366706
C20	C	-4.031063	-0.617603	-0.367434
C21	C	-4.139577	-0.877091	-0.096035
C22	C	-4.122575	-0.925082	-0.010500
C23	C	-3.944737	-0.861606	0.067442
C24	C	-3.783850	-0.750137	0.059853
C25	C	-3.800837	-0.702151	-0.025683
C26	C	-3.978720	-0.765627	-0.103623
C27	C	-3.888591	-0.454098	-0.467759
C28	C	-3.905563	-0.406110	-0.553296
C29	C	-4.083392	-0.469585	-0.631245
C30	C	-4.244255	-0.581059	-0.623665
C31	C	-4.227283	-0.629048	-0.538128
C32	C	-4.049454	-0.565563	-0.460179
C33	C	-4.079177	-0.164478	-0.929197
C34	C	-4.032615	-0.165274	-0.823868
C35	C	-3.995520	-0.165909	-0.739916
C36	C	-3.948955	-0.166703	-0.634580
C37	C	-4.156253	0.060374	-0.280385
C38	C	-4.072906	0.201653	-0.281170
C39	C	-4.182784	-0.163072	-0.116540
C40	C	-4.116307	-0.163849	-0.013156
H41	H	-3.876576	-0.511838	-0.128038
N42	N	-3.732068	-0.285873	-0.561475
H43	H	-3.665492	-0.306217	-0.611349
H44	H	-3.616981	-0.252992	-0.499074
N45	N	-4.171657	-0.841778	-0.458167
H46	H	-4.073512	-0.893274	-0.458512
H47	H	-4.173516	-0.791155	-0.512417
H48	H	-3.639032	-0.698469	0.123321
H49	H	-4.358275	-0.719820	-0.531961
N50	N	-3.696830	-0.385637	-0.383661
H51	H	-3.559657	-0.383196	-0.399092
H52	H	-3.710755	-0.433013	-0.328375
N53	N	-3.926395	-0.913361	0.159699
H54	H	-4.055293	-0.993603	0.152680
H55	H	-3.921785	-0.846328	0.210028
N56	N	-4.436062	-0.649539	-0.707737
H57	H	-4.422408	-0.602223	-0.763073
H58	H	-4.573109	-0.651970	-0.692194
H59	H	-4.097186	-0.430508	-0.700896
N60	N	-3.627350	-0.581926	-0.033871
H61	H	-3.665111	-0.561155	-0.099883
H62	H	-3.484374	-0.596275	-0.019529
N63	N	-4.296094	-1.045297	-0.002303
H64	H	-4.307078	-1.119356	-0.048534
H65	H	-4.439024	-1.030896	-0.016571
N66	N	-4.331442	-0.945549	-0.180086
H67	H	-4.336501	-1.036308	-0.196548
H68	H	-4.317719	-0.898142	-0.235372
