data_functionalizedCrystal
_audit_creation_method	'MofGen! by Chris Wilmer'
_symmetry_space_group_name_H-M	'P1'
_symmetry_Int_Tables_number	1
_symmetry_cell_setting	triclinic
loop_
_symmetry_equiv_pos_as_xyz
  x,y,z
_cell_length_a	16.120490
_cell_length_b	16.120444
_cell_length_c	15.298259
_cell_angle_alpha	82.663646
_cell_angle_beta	96.301063
_cell_angle_gamma	90.165174
loop_
_atom_site_label
_atom_site_type_symbol
_atom_site_fract_x
_atom_site_fract_y
_atom_site_fract_z
Zn1	Zn	1.165128	-0.296701	-0.590199
Zn2	Zn	1.179337	-0.459433	-0.449037
Zn3	Zn	1.049700	-0.315841	-0.434078
Zn4	Zn	1.019100	-0.428781	-0.589392
O5	O	1.103316	-0.375189	-0.515676
O6	O	1.282380	-0.323105	-0.578071
O7	O	1.180893	-0.461224	-0.322976
O8	O	1.071872	-0.197932	-0.448865
O9	O	1.292819	-0.442664	-0.474360
O10	O	1.156676	-0.183870	-0.563566
O11	O	1.085649	-0.355728	-0.311986
O12	O	0.930274	-0.326006	-0.448083
O13	O	1.019718	-0.390422	-0.713576
O14	O	0.907792	-0.408982	-0.562192
O15	O	1.127004	-0.293383	-0.714168
O16	O	1.151221	-0.570737	-0.473578
O17	O	1.033496	-0.548217	-0.576697
C18	C	0.889120	-0.366245	-0.503427
C19	C	0.797481	-0.362435	-0.498209
C20	C	1.090599	-0.589389	-0.526694
C21	C	1.085230	-0.681023	-0.531441
C22	C	0.577769	-0.394945	-0.542745
C23	C	0.629700	-0.355487	-0.488682
C24	C	0.723062	-0.359354	-0.493984
C25	C	0.484398	-0.391079	-0.537443
C26	C	1.131343	-0.900738	-0.491252
C27	C	1.075440	-0.848794	-0.540118
C28	C	1.080889	-0.755438	-0.535289
C29	C	1.125896	-0.994103	-0.496081
C30	C	1.318349	-0.384168	-0.527974
C31	C	1.409983	-0.387995	-0.533214
C32	C	1.068363	-0.336348	-0.746943
C33	C	1.053468	-0.319796	-0.845495
C34	C	1.116102	-0.160150	-0.504637
C35	C	1.121551	-0.068514	-0.499932
C36	C	1.209837	-0.492853	-1.146178
C37	C	1.223827	-0.508409	-1.053583
C38	C	1.181239	-0.461257	-1.001557
C39	C	1.124658	-0.398547	-1.042134
C40	C	1.110661	-0.382993	-1.134737
C41	C	1.082063	-0.351397	-0.990116
C42	C	1.025482	-0.288687	-1.030693
C43	C	1.011488	-0.273136	-1.123288
C44	C	1.054077	-0.320288	-1.175314
C45	C	1.096059	-0.366951	-0.897513
C46	C	0.996883	-0.257091	-0.886072
C47	C	0.982893	-0.241535	-0.978667
C48	C	1.138184	-0.413822	-0.285309
C49	C	1.153253	-0.430148	-0.186755
H50	H	0.604042	-0.318802	-0.438414
Cl51	Cl	0.617381	-0.451592	-0.620340
Cl52	Cl	0.995226	-0.888380	-0.610306
Cl53	Cl	1.211547	-0.861151	-0.421063
H54	H	1.142134	-0.418006	-0.864484
Cl55	Cl	1.036494	-0.300732	-1.291724
Cl56	Cl	1.198832	-0.480811	-0.885151
H57	H	1.269888	-0.559476	-1.020552
H58	H	0.962203	-0.218696	-0.843712
H59	H	0.936824	-0.190475	-1.011718
Cl60	Cl	0.940322	-0.194331	-1.174297
H61	H	1.244500	-0.531243	-1.188546
