data_functionalizedCrystal
_audit_creation_method	'MofGen! by Chris Wilmer'
_symmetry_space_group_name_H-M	'P1'
_symmetry_Int_Tables_number	1
_symmetry_cell_setting	triclinic
loop_
_symmetry_equiv_pos_as_xyz
  x,y,z
_cell_length_a	29.839131
_cell_length_b	25.639243
_cell_length_c	25.639233
_cell_angle_alpha	89.984038
_cell_angle_beta	89.980415
_cell_angle_gamma	90.044144
loop_
_atom_site_label
_atom_site_type_symbol
_atom_site_fract_x
_atom_site_fract_y
_atom_site_fract_z
Zn1	Zn	-0.178875	0.799215	-0.295653
Zn2	Zn	0.321125	1.299215	0.204347
Zn3	Zn	-0.253990	0.799134	-0.208216
Zn4	Zn	0.246010	1.299134	0.291784
Zn5	Zn	-0.178878	0.711791	-0.208226
Zn6	Zn	0.321122	1.211791	0.291774
Zn7	Zn	-0.253983	0.711732	-0.295615
Zn8	Zn	0.246017	1.211732	0.204385
O9	O	-0.216432	0.755468	-0.251927
O10	O	0.283568	1.255468	0.248073
O11	O	-0.188841	0.872370	-0.284065
O12	O	0.311159	1.372370	0.215935
O13	O	-0.244030	0.787539	-0.135052
O14	O	0.255970	1.287539	0.364948
O15	O	-0.116011	0.723447	-0.219844
O16	O	0.383989	1.223447	0.280156
O17	O	-0.244028	0.872310	-0.219826
O18	O	0.255972	1.372310	0.280174
O19	O	-0.116009	0.787677	-0.284075
O20	O	0.383991	1.287677	0.215925
O21	O	-0.188846	0.723369	-0.135060
O22	O	0.311154	1.223369	0.364940
O23	O	-0.188839	0.638618	-0.219807
O24	O	0.311161	1.138618	0.280193
O25	O	-0.244015	0.723346	-0.368785
O26	O	0.255985	1.223346	0.131215
O27	O	-0.244018	0.638575	-0.284011
O28	O	0.255982	1.138575	0.215989
O29	O	-0.188834	0.787619	-0.368813
O30	O	0.311166	1.287619	0.131187
O31	O	-0.316856	0.787482	-0.219789
O32	O	0.183144	1.287482	0.280211
O33	O	-0.316851	0.723268	-0.284001
O34	O	0.183149	1.223268	0.215999
C35	C	-0.216428	0.619626	-0.251907
C36	C	0.283572	1.119626	0.248093
C37	C	-0.216438	0.561512	-0.251910
C38	C	0.283562	1.061512	0.248090
C39	C	-0.187741	0.201174	-0.285433
C40	C	0.312259	0.701174	0.214567
C41	C	-0.187741	0.146570	-0.285436
C42	C	0.312259	0.646570	0.214564
O43	O	-0.163333	0.118354	-0.313912
O44	O	0.336667	0.618354	0.186088
N45	N	-0.216430	0.119229	-0.251942
N46	N	0.283570	0.619229	0.248058
C47	C	-0.245119	0.146496	-0.218438
C48	C	0.254881	0.646496	0.281562
O49	O	-0.269521	0.118227	-0.189949
O50	O	0.230479	0.618227	0.310051
C51	C	-0.245116	0.201099	-0.218433
C52	C	0.254884	0.701099	0.281567
C53	C	-0.216428	0.228437	-0.251933
C54	C	0.283572	0.728437	0.248067
C55	C	-0.159055	0.228512	-0.318930
C56	C	0.340945	0.728512	0.181070
C57	C	-0.159056	0.283112	-0.318927
C58	C	0.340944	0.783112	0.181073
C59	C	-0.187743	0.310375	-0.285427
C60	C	0.312257	0.810375	0.214573
C61	C	-0.216429	0.283037	-0.251930
C62	C	0.283571	0.783037	0.248070
C63	C	-0.273802	0.228365	-0.184927
C64	C	0.226198	0.728365	0.315073
C65	C	-0.273797	0.282972	-0.184925
C66	C	0.226203	0.782972	0.315075
C67	C	-0.245109	0.310310	-0.218425
C68	C	0.254891	0.810310	0.281575
C69	C	-0.245118	0.364901	-0.218428
C70	C	0.254882	0.864901	0.281572
N71	N	-0.216428	0.392241	-0.251922
N72	N	0.283572	0.892241	0.248078
C73	C	-0.187741	0.364978	-0.285422
C74	C	0.312259	0.864978	0.214578
C75	C	-0.245121	0.031825	-0.218452
C76	C	0.254879	0.531825	0.281548
C77	C	-0.245125	-0.022777	-0.218460
C78	C	0.254875	0.477223	0.281540
C79	C	-0.187747	-0.022700	-0.285457
C80	C	0.312253	0.477300	0.214543
C81	C	-0.187745	0.031904	-0.285451
C82	C	0.312255	0.531904	0.214549
C83	C	-0.216431	0.059166	-0.251946
C84	C	0.283569	0.559166	0.248054
C85	C	-0.187746	0.479643	-0.285414
C86	C	0.312254	0.979643	0.214586
C87	C	-0.187751	0.534249	-0.285410
C88	C	0.312249	1.034249	0.214590
C89	C	-0.245127	0.534167	-0.218411
C90	C	0.254873	1.034167	0.281589
C91	C	-0.245124	0.479566	-0.218417
C92	C	0.254876	0.979566	0.281583
C93	C	-0.216430	0.452306	-0.251920
C94	C	0.283570	0.952306	0.248080
O95	O	-0.269511	0.393151	-0.189965
O96	O	0.230489	0.893151	0.310035
O97	O	-0.163339	0.393254	-0.313902
O98	O	0.336661	0.893254	0.186098
C99	C	-0.333154	0.755374	-0.251902
C100	C	0.166846	1.255374	0.248098
C101	C	-0.383089	0.755381	-0.251908
C102	C	0.116911	1.255381	0.248092
C103	C	-0.692722	0.788965	-0.218541
C104	C	-0.192722	1.288965	0.281459
C105	C	-0.880395	0.789030	-0.218561
C106	C	-0.380395	1.289030	0.281439
O107	O	-0.904651	0.817509	-0.190172
O108	O	-0.404651	1.317509	0.309828
N109	N	-0.903874	0.755577	-0.251967
N110	N	-0.403874	1.255577	0.248033
C111	C	-0.880431	0.722108	-0.285372
C112	C	-0.380431	1.222108	0.214628
O113	O	-0.904707	0.693659	-0.313790
O114	O	-0.404707	1.193659	0.186210
C115	C	-0.692759	0.722046	-0.285354
C116	C	-0.192759	1.222046	0.214646
C117	C	-0.669283	0.755498	-0.251943
C118	C	-0.169283	1.255498	0.248057
C119	C	-0.669246	0.822415	-0.185133
C120	C	-0.169246	1.322415	0.314867
C121	C	-0.622330	0.822396	-0.185126
C122	C	-0.122330	1.322396	0.314874
C123	C	-0.598891	0.788928	-0.218528
C124	C	-0.098891	1.288928	0.281472
C125	C	-0.622367	0.755479	-0.251936
C126	C	-0.122367	1.255479	0.248064
C127	C	-0.669317	0.688580	-0.318761
C128	C	-0.169317	1.188580	0.181239
C129	C	-0.622396	0.688568	-0.318755
C130	C	-0.122396	1.188568	0.181245
C131	C	-0.598920	0.722020	-0.285344
C132	C	-0.098920	1.222020	0.214656
C133	C	-0.552012	0.721993	-0.285331
C134	C	-0.052012	1.221993	0.214669
N135	N	-0.528534	0.755446	-0.251925
N136	N	-0.028534	1.255446	0.248075
C137	C	-0.551973	0.788914	-0.218524
C138	C	-0.051973	1.288914	0.281476
C139	C	-0.978962	0.722142	-0.285378
C140	C	-0.478962	1.222142	0.214622
C141	C	-1.025879	0.722156	-0.285382
C142	C	-0.525879	1.222156	0.214618
C143	C	-1.025840	0.789079	-0.218572
C144	C	-0.525840	1.289079	0.281428
C145	C	-0.978922	0.789062	-0.218566
C146	C	-0.478922	1.289062	0.281434
C147	C	-0.955483	0.755595	-0.251973
C148	C	-0.455483	1.255595	0.248027
C149	C	-0.453447	0.788872	-0.218512
C150	C	0.046553	1.288872	0.281488
C151	C	-0.406528	0.788849	-0.218506
C152	C	0.093472	1.288849	0.281494
C153	C	-0.406571	0.721928	-0.285318
C154	C	0.093429	1.221928	0.214682
C155	C	-0.453487	0.721949	-0.285322
C156	C	0.046513	1.221949	0.214678
C157	C	-0.476924	0.755425	-0.251917
C158	C	0.023076	1.255425	0.248083
O159	O	-0.527727	0.693533	-0.313709
O160	O	-0.027727	1.193533	0.186291
O161	O	-0.527689	0.817366	-0.190118
O162	O	-0.027689	1.317366	0.309882
C163	C	-0.739637	0.788984	-0.218548
C164	C	-0.239637	1.288984	0.281452
C165	C	-0.763114	0.755535	-0.251956
C166	C	-0.263114	1.255535	0.248044
C167	C	-0.739674	0.722067	-0.285358
C168	C	-0.239674	1.222067	0.214642
C169	C	-0.810031	0.755549	-0.251960
C170	C	-0.310031	1.255549	0.248040
C171	C	-0.833471	0.789017	-0.218559
C172	C	-0.333471	1.289017	0.281441
C173	C	-0.809992	0.822470	-0.185153
C174	C	-0.309992	1.322470	0.314847
C175	C	-0.763077	0.822452	-0.185146
C176	C	-0.263077	1.322452	0.314854
C177	C	-0.763153	0.688614	-0.318763
C178	C	-0.263153	1.188614	0.181237
C179	C	-0.810068	0.688635	-0.318767
C180	C	-0.310068	1.188635	0.181233
C181	C	-0.833508	0.722102	-0.285365
C182	C	-0.333508	1.222102	0.214635
C183	C	-0.099253	0.755577	-0.251965
C184	C	0.400747	1.255577	0.248035
C185	C	-0.049319	0.755624	-0.251981
C186	C	0.450681	1.255624	0.248019
C187	C	-0.216424	0.755485	-0.388300
C188	C	0.283576	1.255485	0.111700
C189	C	-0.216420	0.755492	-0.446415
C190	C	0.283580	1.255492	0.053585
C191	C	-0.216435	0.891841	-0.251949
C192	C	0.283565	1.391841	0.248051
C193	C	-0.216436	0.949955	-0.251958
C194	C	0.283564	1.449955	0.248042
C195	C	-0.187602	0.789002	-0.806798
C196	C	0.312398	1.289002	-0.306798
C197	C	-0.187590	0.789008	-0.861402
C198	C	0.312410	1.289008	-0.361402
O199	O	-0.163141	0.817457	-0.889656
O200	O	0.336859	1.317457	-0.389656
N201	N	-0.216315	0.755550	-0.888697
N202	N	0.283685	1.255550	-0.388697
C203	C	-0.245051	0.722079	-0.861385
C204	C	0.254949	1.222079	-0.361385
O205	O	-0.269483	0.693621	-0.889616
O206	O	0.230517	1.193621	-0.389616
C207	C	-0.245061	0.722071	-0.806782
C208	C	0.254939	1.222071	-0.306782
C209	C	-0.216337	0.755535	-0.779490
C210	C	0.283663	1.255535	-0.279490
C211	C	-0.158880	0.822463	-0.779505
C212	C	0.341120	1.322463	-0.279505
C213	C	-0.158893	0.822457	-0.724905
C214	C	0.341107	1.322457	-0.224905
C215	C	-0.187628	0.788990	-0.697597
C216	C	0.312372	1.288990	-0.197597
C217	C	-0.216350	0.755529	-0.724889
C218	C	0.283650	1.255529	-0.224889
C219	C	-0.273795	0.688598	-0.779471
C220	C	0.226205	1.188598	-0.279471
C221	C	-0.273802	0.688592	-0.724864
C222	C	0.226198	1.188592	-0.224864
C223	C	-0.245078	0.722056	-0.697571
C224	C	0.254922	1.222056	-0.197571
C225	C	-0.245098	0.722056	-0.642980
C226	C	0.254902	1.222056	-0.142980
N227	N	-0.216373	0.755514	-0.615685
N228	N	0.283627	1.255514	-0.115685
C229	C	-0.187638	0.788981	-0.642993
C230	C	0.312362	1.288981	-0.142993
C231	C	-0.245028	0.722100	-0.976056
C232	C	0.254972	1.222100	-0.476056
C233	C	-0.245021	0.722110	-1.030658
C234	C	0.254979	1.222110	-0.530658
C235	C	-0.187558	0.789039	-1.030671
C236	C	0.312442	1.289039	-0.530671
C237	C	-0.187568	0.789030	-0.976068
C238	C	0.312432	1.289030	-0.476068
C239	C	-0.216303	0.755558	-0.948761
C240	C	0.283697	1.255558	-0.448761
C241	C	-0.187668	0.788967	-0.528328
C242	C	0.312332	1.288967	-0.028328
C243	C	-0.187685	0.788959	-0.473723
C244	C	0.312315	1.288959	0.026277
C245	C	-0.245146	0.722029	-0.473714
C246	C	0.254854	1.222029	0.026286
C247	C	-0.245130	0.722038	-0.528315
C248	C	0.254870	1.222038	-0.028315
C249	C	-0.216388	0.755509	-0.555621
C250	C	0.283612	1.255509	-0.055621
O251	O	-0.269534	0.693620	-0.614692
O252	O	0.230466	1.193620	-0.114692
O253	O	-0.163207	0.817430	-0.614756
O254	O	0.336793	1.317430	-0.114756
C255	C	-0.216407	0.755482	-0.116085
C256	C	0.283593	1.255482	0.383915
C257	C	-0.216284	0.755576	-0.057971
C258	C	0.283716	1.255576	0.442029
H259	H	-0.268490	0.457307	-0.191145
H260	H	0.231510	0.957307	0.308855
H261	H	-0.387479	0.694677	-0.312512
H262	H	0.112521	1.194677	0.187488
Br263	Br	-0.947159	0.676717	-0.330721
Br264	Br	-0.447159	1.176717	0.169279
Br265	Br	-0.701165	0.643184	-0.364114
Br266	Br	-0.201165	1.143184	0.135886
H267	H	-0.164383	0.054158	-0.312729
H268	H	0.335617	0.554158	0.187271
Br269	Br	-0.284066	-0.059871	-0.173000
Br270	Br	0.215934	0.440129	0.327000
H271	H	-0.297163	0.206116	-0.157647
H272	H	0.202837	0.706116	0.342353
Br273	Br	-0.312732	0.319967	-0.139451
Br274	Br	0.187268	0.819967	0.360549
H275	H	-0.135692	0.206320	-0.346209
H276	H	0.364308	0.706320	0.153791
Br277	Br	-0.312782	0.643182	-0.816496
Br278	Br	0.187218	1.143182	-0.316496
H279	H	-0.268485	0.054019	-0.191169
H280	H	0.231515	0.554019	0.308831
H281	H	-0.268485	0.556374	-0.191138
H282	H	0.231515	1.056374	0.308862
Br283	Br	-0.148585	0.834447	-0.939034
Br284	Br	0.351415	1.334447	-0.439034
Br285	Br	-0.119906	0.867872	-0.687874
Br286	Br	0.380094	1.367872	-0.187874
Br287	Br	-0.590589	0.643148	-0.364097
Br288	Br	-0.090589	1.143148	0.135903
Br289	Br	-0.284031	0.676672	-0.939001
Br290	Br	0.215969	1.176672	-0.439001
H291	H	-0.387415	0.816089	-0.191297
H292	H	0.112585	1.316089	0.308703
Br293	Br	-0.485248	0.834304	-0.173176
Br294	Br	0.014752	1.334304	0.326824
H295	H	-0.603219	0.849637	-0.157921
H296	H	-0.103219	1.349637	0.342079
Br297	Br	-0.485348	0.676538	-0.330653
Br298	Br	0.014652	1.176538	0.169347
Br299	Br	-0.731224	0.867854	-0.139801
Br300	Br	-0.231224	1.367854	0.360199
H301	H	-0.164160	0.816288	-1.052916
H302	H	0.335840	1.316288	-0.552916
H303	H	-0.164387	-0.044907	-0.312733
H304	H	0.335613	0.455093	0.187267
H305	H	-0.688325	0.849671	-0.157933
H306	H	-0.188325	1.349671	0.342067
Br307	Br	-0.284141	0.676611	-0.436643
Br308	Br	0.215859	1.176611	0.063357
H309	H	-0.959810	0.816301	-0.191360
H310	H	-0.459810	1.316301	0.308640
H311	H	-0.829085	0.849719	-0.157955
H312	H	-0.329085	1.349719	0.342045
H313	H	-1.044932	0.816330	-0.191376
H314	H	-0.544932	1.316330	0.308624
H315	H	-1.044990	0.694912	-0.312584
H316	H	-0.544990	1.194912	0.187416
Br317	Br	-0.841923	0.643230	-0.364114
Br318	Br	-0.341923	1.143230	0.135886
H319	H	-0.135695	0.305366	-0.346205
H320	H	0.364305	0.805366	0.153795
H321	H	-0.297197	0.661328	-0.702633
H322	H	0.202803	1.161328	-0.202633
Br323	Br	-0.284013	0.676703	-1.067691
Br324	Br	0.215987	1.176703	-0.567691
Br325	Br	-0.148702	0.834380	-0.436686
Br326	Br	0.351298	1.334380	0.063314
H327	H	-0.268524	0.694794	-0.550538
H328	H	0.231476	1.194794	-0.050538
Br329	Br	-0.148658	0.834388	-0.565377
Br330	Br	0.351342	1.334388	-0.065377
Br331	Br	-0.148803	0.442656	-0.330882
Br332	Br	0.351197	0.942656	0.169118
Br333	Br	-0.119883	0.867895	-0.816556
Br334	Br	0.380117	1.367895	-0.316556
H335	H	-0.164389	0.556505	-0.312691
H336	H	0.335611	1.056505	0.187309
H337	H	-0.744072	0.661361	-0.345963
H338	H	-0.244072	1.161361	0.154037
