data_functionalizedCrystal
_audit_creation_method	'MofGen! by Chris Wilmer'
_symmetry_space_group_name_H-M	'P1'
_symmetry_Int_Tables_number	1
_symmetry_cell_setting	triclinic
loop_
_symmetry_equiv_pos_as_xyz
  x,y,z
_cell_length_a	27.732048
_cell_length_b	14.519709
_cell_length_c	12.996460
_cell_angle_alpha	90.000052
_cell_angle_beta	90.000094
_cell_angle_gamma	96.838601
loop_
_atom_site_label
_atom_site_type_symbol
_atom_site_fract_x
_atom_site_fract_y
_atom_site_fract_z
O1	O	-0.641452	0.109733	-0.085421
O2	O	-0.500739	0.126418	-0.085450
O3	O	-0.574826	-0.016228	-0.085444
O4	O	-0.567365	0.252379	-0.085427
O5	O	-0.574818	-0.016236	0.085689
O6	O	-0.500731	0.126410	0.085683
O7	O	-0.641445	0.109725	0.085712
Cu8	Cu	-0.571087	0.118067	0.101324
Cu9	Cu	-0.571096	0.118076	-0.101062
O10	O	-0.567357	0.252371	0.085707
C11	C	-0.482726	0.126064	0.000113
C12	C	-0.429066	0.125009	0.000101
C13	C	-0.574475	-0.050586	0.000118
C14	C	-0.573433	-0.152949	0.000104
C15	C	-0.659457	0.110079	0.000147
C16	C	-0.713117	0.111134	0.000152
C17	C	-0.090622	0.202664	0.000150
C18	C	0.111056	0.198751	0.000159
O19	O	0.141972	0.269761	0.000208
N20	N	0.130584	0.114168	0.000152
C21	C	0.099689	0.030557	0.000149
O22	O	0.120926	-0.041476	0.000154
C23	C	-0.101988	0.034471	0.000148
C24	C	-0.121513	0.119060	0.000144
C25	C	-0.110148	0.287246	0.000148
C26	C	-0.160564	0.288223	0.000140
C27	C	-0.191455	0.204619	0.000135
C28	C	-0.171930	0.120037	0.000137
C29	C	-0.132882	-0.049139	0.000152
C30	C	-0.183304	-0.048153	0.000154
C31	C	-0.202829	0.036436	0.000151
C32	C	-0.253238	0.037410	0.000123
N33	N	-0.272766	0.121993	0.000130
C34	C	-0.241875	0.205597	0.000136
C35	C	0.205573	0.028508	0.000148
C36	C	0.255992	0.027530	0.000147
C37	C	0.267356	0.195724	0.000158
C38	C	0.216936	0.196702	0.000153
C39	C	0.186045	0.113091	0.000155
C40	C	-0.347754	0.207643	0.000119
C41	C	-0.398175	0.208613	0.000106
C42	C	-0.409534	0.040420	0.000100
C43	C	-0.359117	0.039449	0.000107
C44	C	-0.328227	0.123069	0.000119
O45	O	-0.284182	-0.033562	0.000085
O46	O	-0.263121	0.277620	0.000154
C47	C	-0.040206	0.201687	0.000158
C48	C	-0.020680	0.117105	0.000160
C49	C	-0.051571	0.033501	0.000154
C50	C	0.029739	0.116126	0.000159
C51	C	0.060630	0.199731	0.000164
C52	C	0.041102	0.284314	0.000172
C53	C	-0.009315	0.285291	0.000164
C54	C	-0.032043	-0.051082	0.000147
C55	C	0.018374	-0.052053	0.000154
C56	C	0.049265	0.031552	0.000160
C57	C	-0.567708	0.286729	0.000142
C58	C	-0.568751	0.389092	0.000149
N59	N	-0.571084	0.118060	0.243671
C60	C	-0.572587	0.763921	0.000109
C61	C	-0.571521	0.659631	0.000121
C62	C	-0.570669	0.576510	0.000130
C63	C	-0.569603	0.472214	0.000140
N64	N	-0.571103	0.118076	-0.243409
C65	C	-0.571095	0.118077	0.663485
C66	C	-0.571091	0.118075	0.546680
C67	C	-0.571090	0.118069	0.453582
C68	C	-0.571085	0.118066	0.336769
H69	H	-0.414069	0.277498	0.000103
H70	H	-0.322609	0.275734	0.000132
H71	H	-0.343219	-0.029430	0.000094
F72	F	-0.112114	-0.139171	0.000141
F73	F	0.172702	-0.060487	0.000150
F74	F	-0.216178	-0.137145	0.000160
H75	H	-0.434695	-0.027649	0.000091
F76	F	-0.077278	0.376237	0.000154
H77	H	0.034266	-0.120940	0.000148
H78	H	0.201042	0.265581	0.000156
F79	F	0.276766	-0.062501	0.000127
H80	H	-0.176457	0.357103	0.000137
H81	H	-0.057190	-0.119165	0.000145
H82	H	0.066263	0.352387	0.000172
H83	H	0.292516	0.263798	0.000163
H84	H	-0.025207	0.354171	0.000163
