data_functionalizedCrystal
_audit_creation_method	'MofGen! by Chris Wilmer'
_symmetry_space_group_name_H-M	'P1'
_symmetry_Int_Tables_number	1
_symmetry_cell_setting	triclinic
loop_
_symmetry_equiv_pos_as_xyz
  x,y,z
_cell_length_a	16.974829
_cell_length_b	12.811415
_cell_length_c	16.053802
_cell_angle_alpha	87.154093
_cell_angle_beta	83.771117
_cell_angle_gamma	83.373700
loop_
_atom_site_label
_atom_site_type_symbol
_atom_site_fract_x
_atom_site_fract_y
_atom_site_fract_z
O1	O	1.056773	0.124242	-0.150236
O2	O	0.825942	0.142180	-0.135999
O3	O	0.946613	-0.018879	-0.131954
O4	O	0.936101	0.285300	-0.154281
O5	O	0.939971	-0.010050	0.006685
O6	O	0.819299	0.151009	0.002640
O7	O	1.050130	0.133071	-0.011597
Zn8	Zn	0.933660	0.143441	0.017534
Zn9	Zn	0.942412	0.131809	-0.165129
O10	O	0.929459	0.294129	-0.015642
C11	C	0.793063	0.146075	-0.064643
C12	C	0.704989	0.144514	-0.058575
C13	C	0.208838	0.136282	-0.016307
C14	C	0.291592	0.137748	-0.022011
C15	C	0.336591	0.133660	-0.100435
C16	C	0.298830	0.128117	-0.173162
C17	C	0.216077	0.126659	-0.167458
C18	C	0.584475	0.137513	-0.125598
C19	C	0.667235	0.138968	-0.131296
C20	C	0.659990	0.148601	0.019856
C21	C	0.577236	0.147136	0.025553
C22	C	0.539482	0.141598	-0.047174
N23	N	0.421179	0.135155	-0.106267
N24	N	0.454895	0.140111	-0.041342
C25	C	0.942499	-0.053376	-0.059635
C26	C	0.940128	-0.169323	-0.050699
C27	C	0.942901	-0.396812	-0.185067
C28	C	0.940673	-0.505754	-0.176674
C29	C	0.933440	-0.496150	-0.025522
C30	C	0.935667	-0.387208	-0.033914
C31	C	0.940399	-0.337543	-0.113689
C32	C	0.942633	-0.228600	-0.122082
C33	C	0.935393	-0.218997	0.029071
C34	C	0.933166	-0.327939	0.037463
C35	C	1.083010	0.129176	-0.082954
C36	C	1.171083	0.130736	-0.089028
C37	C	0.933573	0.328627	-0.087963
C38	C	0.935944	0.444573	-0.096904
N39	N	0.927693	0.151379	0.142196
N40	N	0.948385	0.123863	-0.289791
C41	C	0.979058	0.082873	0.187608
C42	C	0.974892	0.088436	0.274875
C43	C	0.919364	0.162510	0.316727
C44	C	0.867993	0.231020	0.271309
C45	C	0.872156	0.225451	0.184045
C46	C	0.901178	0.186804	0.577526
C47	C	0.897020	0.192369	0.664796
C48	C	1.003918	0.049783	0.668356
C49	C	1.008080	0.044225	0.581089
C50	C	0.956706	0.112731	0.535679
N51	N	0.915105	0.168200	0.405928
N52	N	0.960962	0.107036	0.446481
H53	H	0.540605	0.150441	0.089416
H54	H	1.053295	-0.016092	0.547015
H55	H	0.830329	0.281235	0.147071
H56	H	1.045743	-0.005992	0.705337
O57	O	0.842998	0.264350	0.705328
C58	C	0.737423	0.405207	0.692591
C59	C	0.798549	0.323732	0.646586
H60	H	0.701481	0.453254	0.645117
H61	H	0.695493	0.362948	0.739535
H62	H	0.770087	0.459789	0.727182
H63	H	0.765952	0.269128	0.611946
H64	H	0.840476	0.366060	0.599689
H65	H	0.335474	0.124795	-0.237017
O66	O	0.943205	-0.563454	-0.245957
C67	C	1.013506	-0.704197	-0.327959
C68	C	1.010728	-0.638954	-0.249452
H69	H	1.068102	-0.765239	-0.330819
H70	H	0.957268	-0.745643	-0.324820
H71	H	1.017229	-0.649948	-0.386396
H72	H	1.007032	-0.693129	-0.190975
H73	H	1.066965	-0.597496	-0.252665
H74	H	0.859349	0.242586	0.540559
H75	H	0.822777	0.291330	0.305391
O76	O	0.947192	-0.180513	-0.199632
C77	C	0.954172	-0.201550	-0.348670
C78	C	0.948993	-0.256135	-0.260893
H79	H	0.955647	-0.262669	-0.398224
H80	H	0.899973	-0.140942	-0.353431
H81	H	1.010794	-0.160627	-0.359337
H82	H	0.892406	-0.297118	-0.250168
H83	H	1.003232	-0.316686	-0.256174
O84	O	0.928704	-0.544343	0.051987
C85	C	0.853273	-0.557244	0.187473
C86	C	0.858526	-0.502590	0.099723
H87	H	0.796547	-0.523494	0.226099
H88	H	0.852056	-0.645286	0.181245
H89	H	0.907369	-0.543365	0.220060
H90	H	0.804444	-0.516387	0.067087
H91	H	0.859781	-0.414567	0.106009
O92	O	0.696768	0.153847	0.090448
C93	C	0.794312	0.070575	0.178055
C94	C	0.752740	0.064509	0.098072
H95	H	0.839563	-0.001655	0.184254
H96	H	0.826184	0.144546	0.174091
H97	H	0.747917	0.073298	0.235069
H98	H	0.799084	0.061745	0.041017
H99	H	0.720852	-0.009450	0.102109
H100	H	0.172205	0.139615	0.047554
H101	H	0.185338	0.122145	-0.226676
O102	O	1.024879	0.021852	0.318855
C103	C	1.131335	-0.120176	0.313179
C104	C	1.074778	-0.044819	0.263268
H105	H	1.171680	-0.174113	0.268260
H106	H	1.169372	-0.072708	0.347894
H107	H	1.094775	-0.169545	0.360348
H108	H	1.111275	0.004567	0.216056
H109	H	1.036738	-0.092349	0.228610
H110	H	0.703870	0.135648	-0.195163
O111	O	0.928431	-0.376116	0.114977
C112	C	0.853005	-0.388978	0.250470
C113	C	0.858255	-0.334351	0.162709
H114	H	0.796280	-0.355217	0.289091
H115	H	0.851789	-0.477023	0.244260
H116	H	0.907102	-0.375085	0.283049
H117	H	0.804171	-0.348161	0.130081
H118	H	0.859510	-0.246325	0.168976
H119	H	0.322328	0.142261	0.037207
H120	H	0.933359	-0.170728	0.087192
H121	H	0.553747	0.133000	-0.184817
H122	H	0.946761	-0.356376	-0.250024
H123	H	1.024278	0.022558	0.153537
