data_functionalizedCrystal
_audit_creation_method	'MofGen! by Chris Wilmer'
_symmetry_space_group_name_H-M	'P1'
_symmetry_Int_Tables_number	1
_symmetry_cell_setting	triclinic
loop_
_symmetry_equiv_pos_as_xyz
  x,y,z
_cell_length_a	16.120847
_cell_length_b	17.077404
_cell_length_c	17.077384
_cell_angle_alpha	90.060362
_cell_angle_beta	87.023848
_cell_angle_gamma	87.099973
loop_
_atom_site_label
_atom_site_type_symbol
_atom_site_fract_x
_atom_site_fract_y
_atom_site_fract_z
Zn1	Zn	0.331433	1.184652	0.428061
Zn2	Zn	0.471008	1.177845	0.290148
Zn3	Zn	0.331606	1.053281	0.296800
Zn4	Zn	0.470815	1.046740	0.421381
O5	O	0.401215	1.115630	0.359097
O6	O	0.349956	1.293595	0.409778
O7	O	0.452670	1.161210	0.181176
O8	O	0.214911	1.076294	0.319792
O9	O	0.452502	1.288594	0.308454
O10	O	0.214784	1.172811	0.416228
O11	O	0.350252	1.069694	0.186063
O12	O	0.350064	0.942567	0.313314
O13	O	0.452172	1.065146	0.532121
O14	O	0.452340	0.937762	0.404843
O15	O	0.349768	1.166468	0.537029
O16	O	0.587655	1.154868	0.301976
O17	O	0.587512	1.058546	0.398393
C18	C	0.401200	0.911682	0.359076
C19	C	0.401214	0.824432	0.359085
C20	C	0.183750	1.126041	0.369497
C21	C	0.091079	1.130478	0.373929
C22	C	0.454549	0.780956	0.406660
C23	C	0.454551	0.698976	0.406672
C24	C	0.401221	0.660472	0.359105
C25	C	0.347880	0.703954	0.311529
C26	C	0.347874	0.785933	0.311521
C27	C	0.347896	0.533083	0.311547
C28	C	0.347902	0.451098	0.311553
C29	C	0.454573	0.446126	0.406698
C30	C	0.454568	0.528105	0.406690
C31	C	0.401227	0.571581	0.359112
C32	C	-0.078592	1.138593	0.382018
C33	C	-0.119829	1.092811	0.336270
C34	C	-0.214239	1.097326	0.340771
C35	C	0.015827	1.134079	0.377518
C36	C	0.617835	1.105280	0.348755
C37	C	0.710506	1.100924	0.344357
C38	C	0.401440	1.115471	0.155138
C39	C	0.401328	1.115546	0.067894
C40	C	0.401231	1.320373	0.359119
C41	C	0.401238	1.407623	0.359128
C42	C	0.348343	1.067553	0.029469
C43	C	0.348237	1.067631	-0.052506
C44	C	0.401119	1.115697	-0.096055
C45	C	0.454106	1.163696	-0.057625
C46	C	0.454208	1.163622	0.024349
C47	C	0.453892	1.163845	-0.228484
C48	C	0.453791	1.163918	-0.310464
C49	C	0.347921	1.067854	-0.305339
C50	C	0.348022	1.067780	-0.223365
C51	C	0.401010	1.115777	-0.184941
C52	C	0.400929	1.115837	0.563856
C53	C	0.400807	1.115925	0.651112
H54	H	0.497980	0.812299	0.445392
F55	F	0.291547	1.016751	-0.346235
H56	H	-0.114189	1.181176	0.424561
F57	F	0.291123	0.579352	0.260910
H58	H	0.305092	1.028549	-0.083787
F59	F	0.292058	1.016392	0.075811
H60	H	0.497037	1.202933	-0.197201
F61	F	0.291759	1.016602	-0.177019
H62	H	0.497352	1.202704	0.055633
H63	H	0.498002	0.410723	0.445440
F64	F	0.291116	0.662974	0.260909
H65	H	0.497983	0.663581	0.445412
F66	F	0.510076	1.215075	-0.356811
H67	H	0.497160	1.202836	-0.093089
F68	F	0.291106	0.832203	0.260887
F69	F	0.511333	0.569081	0.457311
H70	H	-0.084228	1.050224	0.293725
F71	F	0.291146	0.410122	0.260924
