data_functionalizedCrystal
_audit_creation_method	'MofGen! by Chris Wilmer'
_symmetry_space_group_name_H-M	'P1'
_symmetry_Int_Tables_number	1
_symmetry_cell_setting	triclinic
loop_
_symmetry_equiv_pos_as_xyz
  x,y,z
_cell_length_a	19.288862
_cell_length_b	15.455320
_cell_length_c	19.288865
_cell_angle_alpha	87.336526
_cell_angle_beta	96.864237
_cell_angle_gamma	87.325106
loop_
_atom_site_label
_atom_site_type_symbol
_atom_site_fract_x
_atom_site_fract_y
_atom_site_fract_z
O1	O	-0.924405	0.072476	0.083566
O2	O	-0.591072	0.405809	0.416899
O3	O	-0.257739	0.739143	0.750233
O4	O	-0.722142	0.072406	0.095259
O5	O	-0.388808	0.405739	0.428593
O6	O	-0.055475	0.739072	0.761926
O7	O	-0.829117	0.072426	-0.011717
O8	O	-0.495784	0.405759	0.321616
O9	O	-0.162451	0.739092	0.654950
O10	O	-0.817430	0.072456	0.190542
O11	O	-0.484097	0.405789	0.523876
O12	O	-0.150763	0.739123	0.857209
O13	O	-0.823025	-0.071837	-0.005602
O14	O	-0.489692	0.261496	0.327732
O15	O	-0.156358	0.594829	0.661065
O16	O	-0.716049	-0.071857	0.101375
O17	O	-0.382716	0.261476	0.434708
O18	O	-0.049383	0.594809	0.768041
O19	O	-0.918313	-0.071787	0.089681
O20	O	-0.584980	0.261546	0.423015
O21	O	-0.251646	0.594880	0.756348
Cu22	Cu	-0.816625	-0.084995	0.096086
Cu23	Cu	-0.483292	0.248339	0.429420
Cu24	Cu	-0.149958	0.581672	0.762753
Cu25	Cu	-0.823830	0.085613	0.088854
Cu26	Cu	-0.490497	0.418946	0.422188
Cu27	Cu	-0.157163	0.752280	0.755521
O28	O	-0.811337	-0.071807	0.196658
O29	O	-0.478004	0.261526	0.529991
O30	O	-0.144671	0.594860	0.863324
C31	C	-0.693219	0.000265	0.097942
C32	C	-0.359885	0.333598	0.431275
C33	C	-0.026552	0.666931	0.764608
C34	C	-0.616114	0.000237	0.096814
C35	C	-0.282780	0.333571	0.430148
C36	C	0.050553	0.666904	0.763481
N37	N	-0.811562	-0.204991	0.101173
N38	N	-0.478229	0.128342	0.434506
N39	N	-0.144896	0.461676	0.767839
C40	C	-0.825695	0.000291	-0.034536
C41	C	-0.492362	0.333625	0.298798
C42	C	-0.159028	0.666958	0.632131
C43	C	-0.824566	0.000283	-0.111639
C44	C	-0.491232	0.333617	0.221694
C45	C	-0.157899	0.666950	0.555028
C46	C	-0.571418	0.000258	0.159582
C47	C	-0.238085	0.333591	0.492915
C48	C	0.095248	0.666924	0.826248
C49	C	-0.498971	0.000263	0.158522
C50	C	-0.165638	0.333596	0.491855
C51	C	0.167695	0.666929	0.825188
C52	C	-0.471224	0.000265	0.094689
C53	C	-0.137890	0.333598	0.428023
C54	C	0.195443	0.666931	0.761356
C55	C	-0.515929	0.000239	0.031914
C56	C	-0.182596	0.333572	0.365247
C57	C	0.150738	0.666906	0.698581
C58	C	-0.588374	0.000225	0.032977
C59	C	-0.255041	0.333559	0.366310
C60	C	0.078293	0.666892	0.699643
C61	C	-0.365097	0.050821	0.042368
C62	C	-0.031763	0.384154	0.375701
C63	C	0.301570	0.717488	0.709035
C64	C	-0.292653	0.050840	0.041308
C65	C	0.040680	0.384174	0.374641
C66	C	0.374014	0.717507	0.707975
C67	C	-0.247780	0.000303	0.091410
C68	C	0.085554	0.333636	0.424743
C69	C	0.418887	0.666970	0.758077
C70	C	-0.275358	-0.050242	0.142584
C71	C	0.057976	0.283091	0.475917
C72	C	0.391309	0.616424	0.809250
C73	C	-0.347803	-0.050256	0.143646
C74	C	-0.014469	0.283077	0.476979
C75	C	0.318864	0.616411	0.810313
C76	C	-0.392670	0.000279	0.093530
C77	C	-0.059337	0.333612	0.426864
C78	C	0.273996	0.666946	0.760197
C79	C	-0.124528	0.000328	0.153032
C80	C	0.208805	0.333661	0.486366
C81	C	0.542138	0.666994	0.819699
C82	C	-0.052080	0.000327	0.151970
C83	C	0.281253	0.333661	0.485303
C84	C	0.614587	0.666994	0.818636
C85	C	-0.069040	0.000312	0.025360
C86	C	0.264294	0.333646	0.358693
C87	C	0.597627	0.666979	0.692027
C88	C	-0.141486	0.000304	0.026425
C89	C	0.191848	0.333637	0.359758
C90	C	0.525181	0.666971	0.693091
C91	C	-0.169226	0.000316	0.090263
C92	C	0.164108	0.333649	0.423596
C93	C	0.497441	0.666982	0.756929
C94	C	0.052765	0.000340	0.087002
C95	C	0.386098	0.333674	0.420335
C96	C	0.719431	0.667007	0.753668
C97	C	-0.024338	0.000328	0.088137
C98	C	0.308996	0.333661	0.421470
C99	C	0.642329	0.666994	0.754804
C100	C	-0.783441	-0.749004	0.129198
C101	C	-0.450107	-0.415670	0.462531
C102	C	-0.116774	-0.082337	0.795865
C103	C	-0.787284	-0.658195	0.125365
C104	C	-0.453951	-0.324862	0.458698
C105	C	-0.120618	0.008472	0.792032
C106	C	-0.836589	-0.612775	0.076099
C107	C	-0.503256	-0.279442	0.409432
C108	C	-0.169923	0.053891	0.742766
C109	C	-0.882049	-0.658168	0.030659
C110	C	-0.548715	-0.324835	0.363992
C111	C	-0.215382	0.008498	0.697325
C112	C	-0.878201	-0.748975	0.034489
C113	C	-0.544868	-0.415642	0.367822
C114	C	-0.211534	-0.082309	0.701156
C115	C	-0.853174	-0.341191	0.059563
C116	C	-0.519841	-0.007858	0.392896
C117	C	-0.186507	0.325476	0.726229
C118	C	-0.857020	-0.250378	0.055737
C119	C	-0.523686	0.082955	0.389070
C120	C	-0.190353	0.416289	0.722404
C121	C	-0.762254	-0.250411	0.150443
C122	C	-0.428921	0.082922	0.483776
C123	C	-0.095587	0.416256	0.817110
C124	C	-0.758414	-0.341219	0.154272
C125	C	-0.425080	-0.007886	0.487605
C126	C	-0.091747	0.325447	0.820939
C127	C	-0.803871	-0.386605	0.108829
C128	C	-0.470537	-0.053271	0.442162
C129	C	-0.137204	0.280062	0.775496
N130	N	-0.840521	-0.519954	0.072181
N131	N	-0.507188	-0.186621	0.405514
N132	N	-0.173854	0.146712	0.738848
N133	N	-0.799935	-0.479424	0.112744
N134	N	-0.466602	-0.146091	0.446077
N135	N	-0.133268	0.187243	0.779411
N136	N	-0.828898	0.205609	0.083763
N137	N	-0.495565	0.538943	0.417096
N138	N	-0.162231	0.872276	0.750429
C139	C	-0.887334	0.000301	-0.156336
C140	C	-0.554001	0.333634	0.176997
C141	C	-0.220668	0.666968	0.510330
C142	C	-0.886274	0.000314	-0.228784
C143	C	-0.552941	0.333648	0.104549
C144	C	-0.219607	0.666981	0.437883
C145	C	-0.822441	0.000293	-0.256530
C146	C	-0.489108	0.333626	0.076803
C147	C	-0.155774	0.666959	0.410136
C148	C	-0.759664	0.000280	-0.211823
C149	C	-0.426331	0.333613	0.121510
C150	C	-0.092998	0.666947	0.454844
C151	C	-0.760727	0.000275	-0.139377
C152	C	-0.427393	0.333609	0.193956
C153	C	-0.094060	0.666942	0.527289
C154	C	-0.770127	-0.050257	-0.362674
C155	C	-0.436793	0.283076	-0.029341
C156	C	-0.103460	0.616410	0.303992
C157	C	-0.769067	-0.050258	-0.435119
C158	C	-0.435733	0.283076	-0.101785
C159	C	-0.102400	0.616409	0.231548
C160	C	-0.819162	0.000311	-0.479977
C161	C	-0.485829	0.333644	-0.146643
C162	C	-0.152495	0.666978	0.186690
C163	C	-0.870329	0.050869	-0.452382
C164	C	-0.536995	0.384202	-0.119049
C165	C	-0.203662	0.717536	0.214285
C166	C	-0.871391	0.050864	-0.379936
C167	C	-0.538058	0.384198	-0.046603
C168	C	-0.204724	0.717531	0.286730
C169	C	-0.821282	0.000298	-0.335084
C170	C	-0.487949	0.333632	-0.001751
C171	C	-0.154615	0.666965	0.331582
C172	C	-0.880786	0.000344	-0.603231
C173	C	-0.547452	0.333678	-0.269897
C174	C	-0.214119	0.667011	0.063436
C175	C	-0.879723	0.000363	-0.675680
C176	C	-0.546390	0.333696	-0.342346
C177	C	-0.213056	0.667030	-0.009013
C178	C	-0.753111	0.000320	-0.658716
C179	C	-0.419778	0.333653	-0.325383
C180	C	-0.086444	0.666987	0.007950
C181	C	-0.754176	0.000310	-0.586270
C182	C	-0.420842	0.333643	-0.252936
C183	C	-0.087509	0.666977	0.080397
C184	C	-0.818015	0.000318	-0.558531
C185	C	-0.484682	0.333651	-0.225198
C186	C	-0.151348	0.666985	0.108135
C187	C	-0.814760	0.000329	0.219476
C188	C	-0.481427	0.333662	0.552810
C189	C	-0.148093	0.666996	0.886143
C190	C	-0.815889	0.000343	0.296579
C191	C	-0.482556	0.333676	0.629913
C192	C	-0.149223	0.667009	0.963246
H193	H	-0.593999	0.000269	0.211563
H194	H	-0.260666	0.333602	0.544897
H195	H	0.072668	0.666936	0.878230
Cl196	Cl	-0.442772	0.000286	0.237435
Cl197	Cl	-0.109439	0.333620	0.570769
Cl198	Cl	0.223895	0.666953	0.904102
Cl199	Cl	-0.382471	-0.113799	0.207972
Cl200	Cl	-0.049138	0.219534	0.541305
Cl201	Cl	0.284196	0.552867	0.874639
H202	H	-0.915216	-0.785928	-0.002510
H203	H	-0.581883	-0.452595	0.330823
H204	H	-0.248550	-0.119262	0.664156
H205	H	-0.147115	0.000324	0.205013
H206	H	0.186219	0.333658	0.538347
H207	H	0.519552	0.666991	0.871680
Cl208	Cl	-0.679417	0.000260	-0.246703
Cl209	Cl	-0.346084	0.333593	0.086630
Cl210	Cl	-0.012750	0.666926	0.419964
H211	H	-0.750269	-0.621242	0.162362
H212	H	-0.416936	-0.287908	0.495695
H213	H	-0.083602	0.045425	0.829028
Cl214	Cl	-0.707145	-0.113838	-0.306288
Cl215	Cl	-0.373811	0.219495	0.027045
Cl216	Cl	-0.040478	0.552829	0.360378
H217	H	-0.703062	0.000291	-0.549875
H218	H	-0.369729	0.333624	-0.216542
H219	H	-0.036396	0.666957	0.116791
Cl220	Cl	-0.933310	0.114447	-0.508767
Cl221	Cl	-0.599976	0.447781	-0.175434
Cl222	Cl	-0.266643	0.781114	0.157900
H223	H	-0.727401	-0.091420	-0.457580
H224	H	-0.394068	0.241913	-0.124247
H225	H	-0.060734	0.575246	0.209087
H226	H	-0.238823	-0.091395	0.183381
H227	H	0.094511	0.241938	0.516714
H228	H	0.427844	0.575271	0.850048
Cl229	Cl	-0.197678	0.000283	-0.052488
Cl230	Cl	0.135655	0.333617	0.280846
Cl231	Cl	0.468989	0.666950	0.614179
Cl232	Cl	0.004111	0.000349	0.230885
Cl233	Cl	0.337444	0.333682	0.564218
Cl234	Cl	0.670777	0.667015	0.897552
H235	H	-0.718266	-0.378199	0.194388
H236	H	-0.384932	-0.044865	0.527721
H237	H	-0.051599	0.288468	0.861055
Cl238	Cl	-0.967590	0.000336	-0.121470
Cl239	Cl	-0.634257	0.333669	0.211863
Cl240	Cl	-0.300923	0.667002	0.545197
H241	H	-0.725244	-0.213450	0.187440
H242	H	-0.391911	0.119883	0.520773
H243	H	-0.058578	0.453217	0.854106
H244	H	-0.897173	-0.213401	0.015617
H245	H	-0.563839	0.119932	0.348950
H246	H	-0.230506	0.453266	0.682283
Cl247	Cl	-0.681810	0.000253	-0.083183
Cl248	Cl	-0.348477	0.333586	0.250151
Cl249	Cl	-0.015144	0.666919	0.583484
H250	H	-0.046451	0.000368	-0.026616
H251	H	0.286882	0.333701	0.306718
H252	H	0.620216	0.667034	0.640051
Cl253	Cl	-0.721457	-0.806093	0.191139
Cl254	Cl	-0.388124	-0.472760	0.524473
Cl255	Cl	-0.054790	-0.139427	0.857806
H256	H	-0.270205	0.092001	-0.000358
H257	H	0.063129	0.425334	0.332976
H258	H	0.396462	0.758667	0.666309
H259	H	-0.890188	-0.378137	0.022562
H260	H	-0.556855	-0.044803	0.355896
H261	H	-0.223522	0.288530	0.689229
H262	H	-0.922192	-0.621182	-0.009458
H263	H	-0.588858	-0.287849	0.323875
H264	H	-0.255525	0.045484	0.657208
Cl265	Cl	-0.965189	0.000337	-0.284986
Cl266	Cl	-0.631856	0.333670	0.048347
Cl267	Cl	-0.298523	0.667004	0.381681
H268	H	-0.401628	0.091980	0.001567
H269	H	-0.068295	0.425313	0.334901
H270	H	0.265039	0.758647	0.668234
Cl271	Cl	-0.935707	0.114426	-0.345248
Cl272	Cl	-0.602374	0.447759	-0.011914
Cl273	Cl	-0.269041	0.781093	0.321419
H274	H	-0.701137	0.000307	-0.681307
H275	H	-0.367804	0.333640	-0.347973
H276	H	-0.034470	0.666973	-0.014640
Cl277	Cl	-0.481047	0.000236	-0.048332
Cl278	Cl	-0.147714	0.333570	0.285002
Cl279	Cl	0.185619	0.666903	0.618335
H280	H	-0.624766	0.000209	-0.018138
H281	H	-0.291432	0.333543	0.315195
H282	H	0.041901	0.666876	0.648529
Cl283	Cl	-0.961038	0.000349	-0.568356
Cl284	Cl	-0.627705	0.333683	-0.235022
Cl285	Cl	-0.294372	0.667016	0.098311
H286	H	-0.930839	0.000382	-0.712073
H287	H	-0.597506	0.333715	-0.378739
H288	H	-0.264173	0.667049	-0.045406
