data_functionalizedCrystal
_audit_creation_method	'MofGen! by Chris Wilmer'
_symmetry_space_group_name_H-M	'P1'
_symmetry_Int_Tables_number	1
_symmetry_cell_setting	triclinic
loop_
_symmetry_equiv_pos_as_xyz
  x,y,z
_cell_length_a	16.992694
_cell_length_b	8.559649
_cell_length_c	16.053802
_cell_angle_alpha	92.204030
_cell_angle_beta	87.249047
_cell_angle_gamma	80.223444
loop_
_atom_site_label
_atom_site_type_symbol
_atom_site_fract_x
_atom_site_fract_y
_atom_site_fract_z
O1	O	1.023824	0.329978	-0.069320
O2	O	0.795762	0.326287	-0.069345
O3	O	0.929885	0.098096	-0.069329
O4	O	0.889700	0.558168	-0.069335
O5	O	0.922506	0.110601	0.069529
O6	O	0.788383	0.338792	0.069513
O7	O	1.016444	0.342483	0.069538
Zn8	Zn	0.901242	0.342623	0.091572
Zn9	Zn	0.910964	0.326147	-0.091379
O10	O	0.882321	0.570673	0.069523
C11	C	0.763145	0.327794	0.000081
C12	C	0.676954	0.313635	0.000072
C13	C	0.618488	0.450242	0.000071
C14	C	0.537502	0.436931	0.000082
C15	C	0.514985	0.287010	0.000089
C16	C	0.573459	0.150392	0.000093
C17	C	0.654442	0.163706	0.000087
C18	C	0.274709	0.231830	0.000112
C19	C	0.193719	0.218527	0.000115
C20	C	0.157768	0.505067	0.000106
C21	C	0.238755	0.518367	0.000096
C22	C	0.297221	0.381749	0.000104
N23	N	0.432206	0.273399	0.000099
N24	N	0.379998	0.395362	0.000100
C25	C	0.929241	0.045208	0.000098
C26	C	0.938306	-0.131015	0.000095
C27	C	1.049061	0.340975	0.000110
C28	C	1.135252	0.355134	0.000114
C29	C	0.882965	0.623562	0.000093
C30	C	0.873901	0.799784	0.000091
N31	N	0.894612	0.353867	0.216432
N32	N	0.917601	0.314891	-0.216239
C33	C	0.951698	0.256811	0.260132
C34	C	0.947067	0.264692	0.347539
C35	C	0.885353	0.369639	0.391243
C36	C	0.828261	0.466699	0.347536
C37	C	0.832890	0.458808	0.260132
C38	C	0.865138	0.404060	0.652650
C39	C	0.860515	0.411947	0.740061
C40	C	0.979321	0.209937	0.740057
C41	C	0.983946	0.202063	0.652651
C42	C	0.926852	0.299117	0.608952
N43	N	0.880619	0.377701	0.480586
N44	N	0.931583	0.291046	0.519610
H45	H	0.489901	0.548171	0.000080
C46	C	0.548692	-0.014518	0.000099
H47	H	0.492088	-0.002885	0.000093
H48	H	0.566783	-0.066844	0.048521
H49	H	0.571919	-0.075558	-0.048331
C50	C	0.718759	0.013443	0.000087
H51	H	0.770214	0.042843	0.000092
H52	H	0.715442	-0.051974	-0.048332
H53	H	0.710304	-0.043234	0.048520
C54	C	0.168952	0.053607	0.000125
H55	H	0.215370	-0.025852	0.000135
H56	H	0.140676	0.038095	-0.048298
H57	H	0.135538	0.046831	0.048554
C58	C	0.790039	-0.098145	0.000079
H59	H	0.750849	-0.165185	0.000083
H60	H	0.786336	-0.037505	-0.048346
H61	H	0.781190	-0.028780	0.048506
C62	C	1.022170	-0.233101	0.000103
H63	H	1.017469	-0.342125	0.000101
H64	H	1.047819	-0.205722	0.048525
H65	H	1.052957	-0.214454	-0.048327
C66	C	1.019584	0.141366	0.212065
H67	H	1.052914	0.084681	0.250614
H68	H	1.050342	0.199496	0.177959
H69	H	0.997372	0.068667	0.177980
H70	H	0.993551	0.185660	0.383119
C71	C	0.760355	0.582090	0.395605
H72	H	0.727009	0.638738	0.357057
H73	H	0.782534	0.654802	0.429705
H74	H	0.729610	0.523895	0.429696
C75	C	0.643249	0.615157	0.000063
H76	H	0.596827	0.694607	0.000071
H77	H	0.676659	0.621949	-0.048362
H78	H	0.671526	0.630667	0.048490
C79	C	0.339011	0.081556	0.000115
H80	H	0.314000	-0.009634	0.000111
H81	H	0.368784	0.085150	0.048537
H82	H	0.373917	0.076427	-0.048315
C83	C	1.051861	0.086699	0.604578
H84	H	1.046455	0.095935	0.546265
H85	H	1.049072	-0.018954	0.618888
H86	H	1.101970	0.111995	0.618916
H87	H	1.025803	0.130918	0.775645
C88	C	0.792590	0.527304	0.788134
H89	H	0.759235	0.583941	0.749591
H90	H	0.814752	0.600028	0.822244
H91	H	0.761860	0.469068	0.822218
C92	C	0.802342	0.510830	0.604592
H93	H	0.764932	0.574473	0.643141
H94	H	0.775193	0.446545	0.570504
H95	H	0.828163	0.577374	0.570488
H96	H	0.786403	0.537840	0.224552
C97	C	0.263517	0.683281	0.000100
H98	H	0.217096	0.762736	0.000110
H99	H	0.296930	0.690077	-0.048322
H100	H	0.291793	0.698780	0.048530
C101	C	0.093458	0.655336	0.000102
H102	H	0.118468	0.746528	0.000091
H103	H	0.058551	0.660467	0.048525
H104	H	0.063689	0.651734	-0.048327
