data_functionalizedCrystal
_audit_creation_method	'MofGen! by Chris Wilmer'
_symmetry_space_group_name_H-M	'P1'
_symmetry_Int_Tables_number	1
_symmetry_cell_setting	triclinic
loop_
_symmetry_equiv_pos_as_xyz
  x,y,z
_cell_length_a	14.853567
_cell_length_b	13.930277
_cell_length_c	14.853569
_cell_angle_alpha	90.000531
_cell_angle_beta	83.635247
_cell_angle_gamma	90.004245
loop_
_atom_site_label
_atom_site_type_symbol
_atom_site_fract_x
_atom_site_fract_y
_atom_site_fract_z
O1	O	1.196369	0.079756	0.117703
O2	O	0.933910	0.079771	0.131725
O3	O	1.072149	0.079767	-0.006516
O4	O	1.058129	0.079761	0.255944
O5	O	1.072130	-0.079895	-0.006519
O6	O	0.933890	-0.079891	0.131722
O7	O	1.196350	-0.079906	0.117700
Zn8	Zn	1.065117	-0.105248	0.124711
Zn9	Zn	1.065142	0.105113	0.124715
O10	O	1.058110	-0.079901	0.255941
C11	C	0.900311	-0.000058	0.131088
C12	C	0.800228	-0.000051	0.129184
N13	N	1.065106	-0.248814	0.124707
C14	C	0.387693	-0.000071	0.039019
C15	C	0.366413	-0.000073	0.203251
C16	C	0.460447	-0.000070	0.205041
C17	C	0.518108	-0.000066	0.123819
C18	C	0.481736	-0.000065	0.040806
C19	C	0.496826	-0.000062	0.288053
C20	C	0.590866	-0.000058	0.289846
C21	C	0.648529	-0.000060	0.208622
C22	C	0.612151	-0.000060	0.125606
C23	C	0.669813	-0.000056	0.044384
C24	C	0.633437	-0.000062	-0.038633
C25	C	0.539399	-0.000067	-0.040417
C26	C	0.742566	-0.000056	0.210407
C27	C	0.763855	-0.000050	0.046172
C28	C	1.003927	-0.701081	0.185903
C29	C	1.126382	-0.701055	0.063519
C30	C	1.126371	-0.600559	0.063516
C31	C	1.065139	-0.550320	0.124709
C32	C	1.003917	-0.600576	0.185904
C33	C	1.187598	-0.550295	0.002328
C34	C	1.187591	-0.449793	0.002323
C35	C	1.126353	-0.399552	0.063512
C36	C	1.065128	-0.449815	0.124709
C37	C	1.003895	-0.399576	0.185902
C38	C	0.942665	-0.449836	0.247096
C39	C	0.942679	-0.550335	0.247093
C40	C	1.126339	-0.299053	0.063515
C41	C	1.003884	-0.299071	0.185903
C42	C	1.229948	-0.000075	0.118337
C43	C	1.330032	-0.000075	0.120241
C44	C	1.071504	-0.000061	-0.040106
C45	C	1.069600	-0.000052	-0.140189
N46	N	1.065160	0.248679	0.124711
C47	C	1.058755	-0.000071	0.289531
C48	C	1.060660	-0.000074	0.389615
C49	C	1.143670	-0.000081	0.425991
C50	C	0.979438	-0.000061	0.447281
C51	C	0.981224	-0.000058	0.541315
C52	C	1.064235	-0.000066	0.577691
C53	C	1.145460	-0.000076	0.520034
C54	C	0.900002	-0.000038	0.598979
C55	C	0.901785	-0.000035	0.693020
C56	C	0.984797	-0.000049	0.729398
C57	C	1.066024	-0.000060	0.671734
C58	C	1.149035	-0.000068	0.708110
C59	C	1.230264	-0.000086	0.650448
C60	C	1.228472	-0.000090	0.556412
C61	C	0.986589	-0.000045	0.823434
C62	C	1.150824	-0.000063	0.802153
H63	H	0.810798	-0.000050	-0.019971
H64	H	0.920454	-0.000026	0.870378
O65	O	0.898884	-0.000095	0.411798
C66	C	0.914723	-0.000073	0.316434
H67	H	0.985047	-0.030306	0.294446
H68	H	0.861594	-0.046423	0.287491
H69	H	0.910334	0.076525	0.290251
H70	H	0.892813	-0.408920	0.296923
H71	H	0.892828	-0.591264	0.296916
H72	H	1.237457	-0.591203	-0.047489
H73	H	0.358072	-0.000080	-0.028572
H74	H	1.218422	-0.000074	0.831763
H75	H	1.209805	-0.000100	0.379039
H76	H	1.297851	-0.000074	0.680078
O77	O	1.185722	-0.250262	0.003965
C78	C	1.170998	-0.274829	-0.085317
H79	H	1.098830	-0.302481	-0.085909
H80	H	1.181306	-0.208726	-0.130531
H81	H	1.220952	-0.333144	-0.111706
O82	O	1.185733	-0.749902	0.003992
C83	C	1.137385	-0.808066	-0.051692
H84	H	1.066287	-0.777789	-0.053343
H85	H	1.174074	-0.809212	-0.123285
H86	H	1.132698	-0.884230	-0.023477
H87	H	0.954018	-0.258172	0.235731
H88	H	0.832418	-0.000025	0.569354
H89	H	1.294603	-0.000105	0.509455
H90	H	0.620474	-0.000053	0.357443
O91	O	0.822800	-0.000068	0.748899
C92	C	0.749151	-0.000037	0.696625
H93	H	0.771946	-0.030264	0.626472
H94	H	0.692229	-0.046388	0.731237
H95	H	0.723723	0.076563	0.689898
O96	O	0.689416	0.000115	-0.117554
C97	C	0.672897	0.082790	-0.167959
H98	H	0.640808	0.140581	-0.120407
H99	H	0.739569	0.110557	-0.204022
H100	H	0.624958	0.064087	-0.220207
O101	O	0.504018	0.000104	-0.121029
C102	C	0.450246	0.082783	-0.126959
H103	H	0.472555	0.140576	-0.079821
H104	H	0.458587	0.110543	-0.199605
H105	H	0.376118	0.064087	-0.106246
H106	H	0.319460	-0.000069	0.269379
H107	H	0.772179	-0.000052	0.277998
O108	O	0.440722	0.000061	0.366885
C109	C	0.385701	0.082755	0.370769
H110	H	0.380861	0.110323	0.299204
H111	H	0.315068	0.064148	0.404257
H112	H	0.416682	0.140663	0.411987
O113	O	0.944415	-0.750006	0.245220
C114	C	0.888730	-0.808127	0.196832
H115	H	0.924552	-0.823177	0.126351
H116	H	0.874518	-0.878802	0.234434
H117	H	0.822094	-0.769404	0.190585
H118	H	1.237446	-0.408877	-0.047504
