data_functionalizedCrystal
_audit_creation_method	'MofGen! by Chris Wilmer'
_symmetry_space_group_name_H-M	'P1'
_symmetry_Int_Tables_number	1
_symmetry_cell_setting	triclinic
loop_
_symmetry_equiv_pos_as_xyz
  x,y,z
_cell_length_a	10.723024
_cell_length_b	9.482900
_cell_length_c	10.723024
_cell_angle_alpha	80.575205
_cell_angle_beta	84.467869
_cell_angle_gamma	99.378782
loop_
_atom_site_label
_atom_site_type_symbol
_atom_site_fract_x
_atom_site_fract_y
_atom_site_fract_z
O1	O	1.676469	0.120882	0.155657
O2	O	1.313317	0.120887	0.172409
O3	O	1.503269	0.120879	-0.017542
O4	O	1.486518	0.120890	0.345608
O5	O	1.464687	-0.120912	0.021197
O6	O	1.274735	-0.120904	0.211149
O7	O	1.637887	-0.120909	0.194396
Cu8	Cu	1.452788	-0.142984	0.206310
Cu9	Cu	1.498416	0.142962	0.160496
O10	O	1.447935	-0.120901	0.384348
C11	C	1.247527	-0.000008	0.190560
C12	C	1.108973	-0.000007	0.186912
N13	N	1.420705	-0.344103	0.238532
C14	C	1.033991	-0.000002	0.293199
C15	C	0.890788	-0.000001	0.289431
C16	C	1.488944	-0.416305	0.169993
C17	C	1.462260	-0.583721	0.196813
C18	C	1.703678	-0.000011	0.176245
C19	C	1.842234	-0.000003	0.179892
C20	C	1.482759	-0.000015	-0.044673
C21	C	1.479112	-0.000010	-0.183228
N22	N	1.530509	0.344081	0.128263
C23	C	1.585400	-0.000009	-0.258210
C24	C	1.581633	-0.000004	-0.401415
C25	C	1.468446	-0.000004	0.411477
C26	C	1.472094	0.000000	0.550031
H27	H	1.075812	-0.000008	0.386985
Br28	Br	1.661116	-0.552394	-0.002348
Br29	Br	0.949612	0.000009	0.028218
H30	H	1.672623	-0.000010	-0.465846
Br31	Br	1.322790	0.000013	-0.252923
H32	H	1.567118	-0.354180	0.091454
Br33	Br	0.783407	0.000023	0.441094
H34	H	1.384073	-0.645843	0.275347
Br35	Br	1.290390	-0.447639	0.369422
Br36	Br	1.741728	0.000004	-0.188521
H37	H	1.381097	-0.000010	-0.385542
H38	H	1.067156	0.000028	0.093120
