data_functionalizedCrystal
_audit_creation_method	'MofGen! by Chris Wilmer'
_symmetry_space_group_name_H-M	'P1'
_symmetry_Int_Tables_number	1
_symmetry_cell_setting	triclinic
loop_
_symmetry_equiv_pos_as_xyz
  x,y,z
_cell_length_a	18.050591
_cell_length_b	12.594516
_cell_length_c	18.050591
_cell_angle_alpha	89.983230
_cell_angle_beta	90.011897
_cell_angle_gamma	89.987941
loop_
_atom_site_label
_atom_site_type_symbol
_atom_site_fract_x
_atom_site_fract_y
_atom_site_fract_z
Zn1	Zn	1.135289	0.423922	0.420061
Zn2	Zn	1.635289	0.923922	0.920061
Zn3	Zn	1.135246	0.601903	0.295884
Zn4	Zn	1.635246	1.101903	0.795884
Zn5	Zn	1.011128	0.423927	0.295873
Zn6	Zn	1.511128	0.923927	0.795873
Zn7	Zn	1.011083	0.601847	0.420020
Zn8	Zn	1.511083	1.101847	0.920020
O9	O	1.073186	0.512900	0.357960
O10	O	1.573186	1.012900	0.857960
O11	O	1.239208	0.447554	0.403611
O12	O	1.739208	0.947554	0.903611
O13	O	1.118782	0.578320	0.191958
O14	O	1.618782	1.078320	0.691958
O15	O	1.027635	0.274981	0.312359
O16	O	1.527635	0.774981	0.812359
O17	O	1.239176	0.578316	0.312379
O18	O	1.739176	1.078316	0.812379
O19	O	1.118856	0.274977	0.403600
O20	O	1.618856	0.774977	0.903600
O21	O	1.027593	0.447561	0.191950
O22	O	1.527593	0.947561	0.691950
O23	O	0.907197	0.447507	0.312319
O24	O	1.407197	0.947507	0.812319
O25	O	1.027558	0.578219	0.523950
O26	O	1.527558	1.078219	1.023950
O27	O	0.907164	0.578224	0.403529
O28	O	1.407164	1.078224	0.903529
O29	O	1.118812	0.447499	0.523981
O30	O	1.618812	0.947499	1.023981
O31	O	1.118738	0.750842	0.312338
O32	O	1.618738	1.250842	0.812338
O33	O	1.027516	0.750800	0.403540
O34	O	1.527516	1.250800	0.903540
C35	C	0.880234	0.512860	0.357918
C36	C	1.380234	1.012860	0.857918
C37	C	0.797689	0.512869	0.357919
C38	C	1.297689	1.012869	0.857919
C39	C	1.073138	0.789441	0.357952
C40	C	1.573138	1.289441	0.857952
C41	C	1.073185	0.907746	0.357974
C42	C	1.573185	1.407746	0.857974
C43	C	1.073185	0.512852	0.551665
C44	C	1.573185	1.012852	1.051665
C45	C	1.073184	0.512832	0.634211
C46	C	1.573184	1.012832	1.134211
C47	C	0.598234	0.441703	0.308433
C48	C	1.098234	0.941703	0.808433
C49	C	0.548832	0.538782	0.290163
C50	C	1.048832	1.038782	0.790163
C51	C	0.646558	0.512901	0.357952
C52	C	1.146558	1.012901	0.857952
C53	C	0.548879	0.415855	0.376219
C54	C	1.048879	0.915855	0.876219
C55	C	0.500573	0.512924	0.357983
C56	C	1.000573	1.012924	0.857983
C57	C	0.598243	0.610032	0.339648
C58	C	1.098243	1.110032	0.839648
C59	C	0.598294	0.487039	0.425735
C60	C	1.098294	0.987039	0.925735
C61	C	0.548914	0.584186	0.407492
C62	C	1.048914	1.084186	0.907492
C63	C	0.730656	0.512887	0.357932
C64	C	1.230656	1.012887	0.857932
C65	C	0.416477	0.512949	0.358003
C66	C	0.916477	1.012949	0.858003
C67	C	1.266892	0.512941	0.358001
C68	C	1.766892	1.012941	0.858001
C69	C	1.349438	0.512958	0.358019
C70	C	1.849438	1.012958	0.858019
C71	C	1.073256	0.235279	0.357983
C72	C	1.573256	0.735279	0.857983
C73	C	1.073285	0.116974	0.357993
C74	C	1.573285	0.616974	0.857993
C75	C	1.023564	0.977016	0.407544
C76	C	1.523564	1.477016	0.907544
C77	C	1.005488	1.047863	0.339776
C78	C	1.505488	1.547863	0.839776
C79	C	1.091329	1.047698	0.425753
C80	C	1.591329	1.547698	0.925753
C81	C	1.055072	0.977036	0.290170
C82	C	1.555072	1.477036	0.790170
C83	C	1.140945	0.976864	0.376194
C84	C	1.640945	1.476864	0.876194
C85	C	1.122894	1.047680	0.308379
C86	C	1.622894	1.547680	0.808379
C87	C	1.122823	0.441780	0.833678
C88	C	1.622823	0.941780	1.333678
C89	C	1.055077	0.415740	0.883064
C90	C	1.555077	0.915740	1.383064
C91	C	1.073187	0.512865	0.785341
C92	C	1.573187	1.012865	1.285341
C93	C	1.140935	0.538889	0.883037
C94	C	1.640935	1.038889	1.383037
C95	C	1.073196	0.512896	0.931326
C96	C	1.573196	1.012896	1.431326
C97	C	1.005405	0.486775	0.833640
C98	C	1.505405	0.986775	1.333640
C99	C	1.091310	0.609968	0.833609
C100	C	1.591310	1.109968	1.333609
C101	C	1.023517	0.583965	0.882972
C102	C	1.523517	1.083965	1.382972
C103	C	1.073183	0.512845	0.701243
C104	C	1.573183	1.012845	1.201243
C105	C	1.073193	0.512916	1.015423
C106	C	1.573193	1.012916	1.515423
C107	C	1.073186	0.512956	1.165007
C108	C	1.573186	1.012956	1.665007
C109	C	1.073198	0.512932	1.082462
C110	C	1.573198	1.012932	1.582462
H111	H	0.619890	0.381557	0.266510
H112	H	1.119890	0.881557	0.766510
C113	C	0.519475	0.568354	0.212748
C114	C	1.019475	1.068354	0.712748
H115	H	0.536357	0.517691	0.177608
H116	H	1.036357	1.017691	0.677608
H117	H	0.537103	0.636813	0.199440
H118	H	1.037103	1.136813	0.699440
H119	H	0.466851	0.568777	0.213433
H120	H	0.966851	1.068777	0.713433
H121	H	1.164900	1.078512	0.266419
H122	H	1.664900	1.578512	0.766419
H123	H	0.620038	0.465119	0.483027
H124	H	1.120038	0.965119	0.983027
H125	H	0.619836	0.692137	0.324147
H126	H	1.119836	1.192137	0.824147
H127	H	1.106635	1.078737	0.483066
H128	H	1.606635	1.578737	0.983066
H129	H	0.948100	0.464682	0.812033
H130	H	1.448100	0.964682	1.312033
C131	C	1.218275	0.934695	0.397029
C132	C	1.718275	1.434695	0.897029
H133	H	1.237292	0.893204	0.357410
H134	H	1.737292	1.393204	0.857410
H135	H	1.214678	0.892101	0.440318
H136	H	1.714678	1.392101	0.940318
H137	H	1.250570	0.992773	0.406206
H138	H	1.750570	1.492773	0.906206
C139	C	1.179454	0.360500	0.804438
C140	C	1.679454	0.860500	1.304438
H141	H	1.166458	0.291550	0.821376
H142	H	1.666458	0.791550	1.321376
H143	H	1.227452	0.378306	0.822082
H144	H	1.727452	0.878306	1.322082
H145	H	1.179377	0.361488	0.751813
H146	H	1.679377	0.861488	1.251813
C147	C	0.519587	0.304978	0.397083
C148	C	1.019587	0.804978	0.897083
H149	H	0.490647	0.309884	0.440904
H150	H	0.990647	0.809884	0.940904
H151	H	0.560161	0.258411	0.405356
H152	H	1.060161	0.758411	0.905356
H153	H	0.489871	0.278241	0.357858
H154	H	0.989871	0.778241	0.857858
C155	C	1.034298	0.935287	0.212726
C156	C	1.534298	1.435287	0.712726
H157	H	1.034362	0.859858	0.213199
H158	H	1.534362	1.359858	0.713199
H159	H	1.069357	0.960045	0.177491
H160	H	1.569357	1.460045	0.677491
H161	H	0.986344	0.960189	0.199719
H162	H	1.486344	1.460189	0.699719
H163	H	1.039748	0.333635	0.904788
H164	H	1.539748	0.833635	1.404788
C165	C	0.966784	0.935090	0.464093
C166	C	1.466784	1.435090	0.964093
H167	H	0.991520	0.893534	0.500408
H168	H	1.491520	1.393534	1.000408
H169	H	0.931043	0.892609	0.439334
H170	H	1.431043	1.392609	0.939334
H171	H	0.942766	0.993271	0.487433
H172	H	1.442766	1.493271	0.987433
H173	H	0.981497	0.644093	0.904480
H174	H	1.481497	1.144093	1.404480
H175	H	0.948230	1.079073	0.324381
H176	H	1.448230	1.579073	0.824381
H177	H	0.527395	0.644476	0.449382
H178	H	1.027395	1.144476	0.949382
H179	H	1.106658	0.692050	0.811870
H180	H	1.606658	1.192050	1.311870
H181	H	1.198224	0.560884	0.904738
H182	H	1.698224	1.060884	1.404738
