data_functionalizedCrystal
_audit_creation_method	'MofGen! by Chris Wilmer'
_symmetry_space_group_name_H-M	'P1'
_symmetry_Int_Tables_number	1
_symmetry_cell_setting	triclinic
loop_
_symmetry_equiv_pos_as_xyz
  x,y,z
_cell_length_a	21.295418
_cell_length_b	29.839131
_cell_length_c	29.839125
_cell_angle_alpha	90.017709
_cell_angle_beta	90.031451
_cell_angle_gamma	90.057233
loop_
_atom_site_label
_atom_site_type_symbol
_atom_site_fract_x
_atom_site_fract_y
_atom_site_fract_z
Zn1	Zn	0.962232	-0.178727	0.254239
Zn2	Zn	1.212232	0.071273	0.504239
Zn3	Zn	1.462232	0.321273	0.754239
Zn4	Zn	1.712232	0.571273	1.004239
Zn5	Zn	0.962137	-0.253839	0.179109
Zn6	Zn	1.212137	-0.003839	0.429109
Zn7	Zn	1.462137	0.246161	0.679109
Zn8	Zn	1.712137	0.496161	0.929109
Zn9	Zn	0.856977	-0.178744	0.179096
Zn10	Zn	1.106977	0.071256	0.429096
Zn11	Zn	1.356977	0.321256	0.679096
Zn12	Zn	1.606977	0.571256	0.929096
Zn13	Zn	0.856904	-0.253851	0.254185
Zn14	Zn	1.106904	-0.003851	0.504185
Zn15	Zn	1.356904	0.246149	0.754185
Zn16	Zn	1.606904	0.496149	1.004185
O17	O	0.909562	-0.216290	0.216657
O18	O	1.159562	0.033710	0.466657
O19	O	1.409562	0.283710	0.716657
O20	O	1.659562	0.533710	0.966657
O21	O	1.050308	-0.188678	0.244300
O22	O	1.300308	0.061322	0.494300
O23	O	1.550308	0.311322	0.744300
O24	O	1.800308	0.561322	0.994300
O25	O	0.948178	-0.243880	0.116240
O26	O	1.198178	0.006120	0.366240
O27	O	1.448178	0.256120	0.616240
O28	O	1.698178	0.506120	0.866240
O29	O	0.871010	-0.115875	0.189081
O30	O	1.121010	0.134125	0.439081
O31	O	1.371010	0.384125	0.689081
O32	O	1.621010	0.634125	0.939081
O33	O	1.050239	-0.243862	0.189103
O34	O	1.300239	0.006138	0.439103
O35	O	1.550239	0.256138	0.689103
O36	O	1.800239	0.506138	0.939103
O37	O	0.948340	-0.115862	0.244288
O38	O	1.198340	0.134138	0.494288
O39	O	1.448340	0.384138	0.744288
O40	O	1.698340	0.634138	0.994288
O41	O	0.870918	-0.188708	0.116230
O42	O	1.120918	0.061292	0.366230
O43	O	1.370918	0.311292	0.616230
O44	O	1.620918	0.561292	0.866230
O45	O	0.768878	-0.188720	0.189028
O46	O	1.018878	0.061280	0.439028
O47	O	1.268878	0.311280	0.689028
O48	O	1.518878	0.561280	0.939028
O49	O	0.870885	-0.243884	0.317059
O50	O	1.120885	0.006116	0.567059
O51	O	1.370885	0.256116	0.817059
O52	O	1.620885	0.506116	1.067059
O53	O	0.768825	-0.243901	0.244196
O54	O	1.018825	0.006099	0.494196
O55	O	1.268825	0.256099	0.744196
O56	O	1.518825	0.506099	0.994196
O57	O	0.948269	-0.188690	0.317099
O58	O	1.198269	0.061310	0.567099
O59	O	1.448269	0.311310	0.817099
O60	O	1.698269	0.561310	1.067099
O61	O	0.948107	-0.316708	0.189050
O62	O	1.198107	-0.066708	0.439050
O63	O	1.448107	0.183292	0.689050
O64	O	1.698107	0.433292	0.939050
O65	O	0.870793	-0.316717	0.244208
O66	O	1.120793	-0.066717	0.494208
O67	O	1.370793	0.183283	0.744208
O68	O	1.620793	0.433283	0.994208
C69	C	0.746011	-0.216314	0.216605
C70	C	0.996011	0.033686	0.466605
C71	C	1.246011	0.283686	0.716605
C72	C	1.496011	0.533686	0.966605
C73	C	0.676043	-0.216335	0.216594
C74	C	0.926043	0.033665	0.466594
C75	C	1.176043	0.283665	0.716594
C76	C	1.426043	0.533665	0.966594
C77	C	0.909449	-0.333013	0.216635
C78	C	1.159449	-0.083013	0.466635
C79	C	1.409449	0.166987	0.716635
C80	C	1.659449	0.416987	0.966635
C81	C	0.909458	-0.382947	0.216640
C82	C	1.159458	-0.132947	0.466640
C83	C	1.409458	0.117053	0.716640
C84	C	1.659458	0.367053	0.966640
C85	C	0.643165	-0.245105	0.245276
C86	C	0.893165	0.004895	0.495276
C87	C	1.143165	0.254895	0.745276
C88	C	1.393165	0.504895	0.995276
C89	C	0.577422	-0.245094	0.245297
C90	C	0.827422	0.004906	0.495297
C91	C	1.077422	0.254906	0.745297
C92	C	1.327422	0.504906	0.995297
C93	C	0.544560	-0.216317	0.216626
C94	C	0.794560	0.033683	0.466626
C95	C	1.044560	0.283683	0.716626
C96	C	1.294560	0.533683	0.966626
C97	C	0.577446	-0.187541	0.187941
C98	C	0.827446	0.062459	0.437941
C99	C	1.077446	0.312459	0.687941
C100	C	1.327446	0.562459	0.937941
C101	C	0.643188	-0.187550	0.187925
C102	C	0.893188	0.062450	0.437925
C103	C	1.143188	0.312450	0.687925
C104	C	1.393188	0.562450	0.937925
N105	N	0.441297	-0.212799	0.177333
N106	N	0.691297	0.037201	0.427333
N107	N	0.941297	0.287201	0.677333
N108	N	1.191297	0.537201	0.927333
N109	N	0.378846	-0.212794	0.177349
N110	N	0.628846	0.037206	0.427349
N111	N	0.878846	0.287206	0.677349
N112	N	1.128846	0.537206	0.927349
C113	C	0.346486	-0.216289	0.216674
C114	C	0.596486	0.033711	0.466674
C115	C	0.846486	0.283711	0.716674
C116	C	1.096486	0.533711	0.966674
N117	N	0.378936	-0.219799	0.255982
N118	N	0.628936	0.030201	0.505982
N119	N	0.878936	0.280201	0.755982
N120	N	1.128936	0.530201	1.005982
N121	N	0.441393	-0.219807	0.255964
N122	N	0.691393	0.030193	0.505964
N123	N	0.941393	0.280193	0.755964
N124	N	1.191393	0.530193	1.005964
C125	C	0.473275	-0.216305	0.216641
C126	C	0.723275	0.033695	0.466641
C127	C	0.973275	0.283695	0.716641
C128	C	1.223275	0.533695	0.966641
C129	C	0.242322	-0.245049	0.245381
C130	C	0.492322	0.004951	0.495381
C131	C	0.742322	0.254951	0.745381
C132	C	0.992322	0.504951	0.995381
C133	C	0.176578	-0.245035	0.245402
C134	C	0.426578	0.004965	0.495402
C135	C	0.676578	0.254965	0.745402
C136	C	0.926578	0.504965	0.995402
C137	C	0.176604	-0.187484	0.188042
C138	C	0.426604	0.062516	0.438042
C139	C	0.676604	0.312516	0.688042
C140	C	0.926604	0.562516	0.938042
C141	C	0.242346	-0.187496	0.188025
C142	C	0.492346	0.062504	0.438025
C143	C	0.742346	0.312504	0.688025
C144	C	0.992346	0.562504	0.938025
C145	C	0.275201	-0.216281	0.216694
C146	C	0.525201	0.033719	0.466694
C147	C	0.775201	0.283719	0.716694
C148	C	1.025201	0.533719	0.966694
C149	C	0.949893	-0.692573	0.187978
C150	C	1.199893	-0.442573	0.437978
C151	C	1.449893	-0.192573	0.687978
C152	C	1.699893	0.057427	0.937978
C153	C	0.949971	-0.880246	0.187996
C154	C	1.199971	-0.630246	0.437996
C155	C	1.449971	-0.380246	0.687996
C156	C	1.699971	-0.130246	0.937996
O157	O	0.984260	-0.904496	0.163609
O158	O	1.234260	-0.654496	0.413609
O159	O	1.484260	-0.404496	0.663609
O160	O	1.734260	-0.154496	0.913609
N161	N	0.909693	-0.903732	0.216691
N162	N	1.159693	-0.653732	0.466691
N163	N	1.409693	-0.403732	0.716691
N164	N	1.659693	-0.153732	0.966691
C165	C	0.869396	-0.880297	0.245386
C166	C	1.119396	-0.630297	0.495386
C167	C	1.369396	-0.380297	0.745386
C168	C	1.619396	-0.130297	0.995386
O169	O	0.835144	-0.904580	0.269796
O170	O	1.085144	-0.654580	0.519796
O171	O	1.335144	-0.404580	0.769796
O172	O	1.585144	-0.154580	1.019796
C173	C	0.869322	-0.692625	0.245370
C174	C	1.119322	-0.442625	0.495370
C175	C	1.369322	-0.192625	0.745370
C176	C	1.619322	0.057375	0.995370
C177	C	0.909598	-0.669141	0.216670
C178	C	1.159598	-0.419141	0.466670
C179	C	1.409598	-0.169141	0.716670
C180	C	1.659598	0.080859	0.966670
C181	C	0.990166	-0.669090	0.159280
C182	C	1.240166	-0.419090	0.409280
C183	C	1.490166	-0.169090	0.659280
C184	C	1.740166	0.080910	0.909280
C185	C	0.990144	-0.622174	0.159275
C186	C	1.240144	-0.372174	0.409275
C187	C	1.490144	-0.122174	0.659275
C188	C	1.740144	0.127826	0.909275
C189	C	0.949848	-0.598742	0.187966
C190	C	1.199848	-0.348742	0.437966
C191	C	1.449848	-0.098742	0.687966
C192	C	1.699848	0.151258	0.937966
C193	C	0.909575	-0.622226	0.216664
C194	C	1.159575	-0.372226	0.466664
C195	C	1.409575	-0.122226	0.716664
C196	C	1.659575	0.127774	0.966664
C197	C	0.829029	-0.669191	0.274067
C198	C	1.079029	-0.419191	0.524067
C199	C	1.329029	-0.169191	0.774067
C200	C	1.579029	0.080809	1.024067
C201	C	0.829015	-0.622270	0.274062
C202	C	1.079015	-0.372270	0.524062
C203	C	1.329015	-0.122270	0.774062
C204	C	1.579015	0.127730	1.024062
C205	C	0.869291	-0.598786	0.245361
C206	C	1.119291	-0.348786	0.495361
C207	C	1.369291	-0.098786	0.745361
C208	C	1.619291	0.151214	0.995361
C209	C	0.869258	-0.551879	0.245350
C210	C	1.119258	-0.301879	0.495350
C211	C	1.369258	-0.051879	0.745350
C212	C	1.619258	0.198121	0.995350
N213	N	0.909536	-0.528393	0.216655
N214	N	1.159536	-0.278393	0.466655
N215	N	1.409536	-0.028393	0.716655
N216	N	1.659536	0.221607	0.966655
C217	C	0.949831	-0.551825	0.187963
C218	C	1.199831	-0.301825	0.437963
C219	C	1.449831	-0.051825	0.687963
C220	C	1.699831	0.198175	0.937963
C221	C	0.869437	-0.978828	0.245391
C222	C	1.119437	-0.728828	0.495391
C223	C	1.369437	-0.478828	0.745391
C224	C	1.619437	-0.228828	0.995391
C225	C	0.869454	-1.025746	0.245395
C226	C	1.119454	-0.775746	0.495395
C227	C	1.369454	-0.525746	0.745395
C228	C	1.619454	-0.275746	0.995395
C229	C	0.950030	-1.025691	0.188005
C230	C	1.200030	-0.775691	0.438005
C231	C	1.450030	-0.525691	0.688005
C232	C	1.700030	-0.275691	0.938005
C233	C	0.950009	-0.978773	0.188000
C234	C	1.200009	-0.728773	0.438000
C235	C	1.450009	-0.478773	0.688000
C236	C	1.700009	-0.228773	0.938000
C237	C	0.909714	-0.955342	0.216696
C238	C	1.159714	-0.705342	0.466696
C239	C	1.409714	-0.455342	0.716696
C240	C	1.659714	-0.205342	0.966696
C241	C	0.949781	-0.453299	0.187953
C242	C	1.199781	-0.203299	0.437953
C243	C	1.449781	0.046701	0.687953
C244	C	1.699781	0.296701	0.937953
C245	C	0.949753	-0.406379	0.187948
C246	C	1.199753	-0.156379	0.437948
C247	C	1.449753	0.093621	0.687948
C248	C	1.699753	0.343621	0.937948
C249	C	0.869180	-0.406437	0.245339
C250	C	1.119180	-0.156437	0.495339
C251	C	1.369180	0.093563	0.745339
C252	C	1.619180	0.343563	0.995339
C253	C	0.869205	-0.453353	0.245343
C254	C	1.119205	-0.203353	0.495343
C255	C	1.369205	0.046647	0.745343
C256	C	1.619205	0.296647	0.995343
C257	C	0.909510	-0.476782	0.216648
C258	C	1.159510	-0.226782	0.466648
C259	C	1.409510	0.023218	0.716648
C260	C	1.659510	0.273218	0.966648
O261	O	0.834992	-0.527600	0.269728
O262	O	1.084992	-0.277600	0.519728
O263	O	1.334992	-0.027600	0.769728
O264	O	1.584992	0.222400	1.019728
O265	O	0.984088	-0.527534	0.163563
O266	O	1.234088	-0.277534	0.413563
O267	O	1.484088	-0.027534	0.663563
O268	O	1.734088	0.222466	0.913563
C269	C	0.949915	-0.739489	0.187984
C270	C	1.199915	-0.489489	0.437984
C271	C	1.449915	-0.239489	0.687984
C272	C	1.699915	0.010511	0.937984
C273	C	0.909642	-0.762972	0.216682
C274	C	1.159642	-0.512972	0.466682
C275	C	1.409642	-0.262972	0.716682
C276	C	1.659642	-0.012972	0.966682
C277	C	0.869347	-0.739540	0.245373
C278	C	1.119347	-0.489540	0.495373
C279	C	1.369347	-0.239540	0.745373
C280	C	1.619347	0.010460	0.995373
C281	C	0.909660	-0.809890	0.216685
C282	C	1.159660	-0.559890	0.466685
C283	C	1.409660	-0.309890	0.716685
C284	C	1.659660	-0.059890	0.966685
C285	C	0.949955	-0.833322	0.187993
C286	C	1.199955	-0.583322	0.437993
C287	C	1.449955	-0.333322	0.687993
C288	C	1.699955	-0.083322	0.937993
C289	C	0.990233	-0.809836	0.159298
C290	C	1.240233	-0.559836	0.409298
C291	C	1.490233	-0.309836	0.659298
C292	C	1.740233	-0.059836	0.909298
C293	C	0.990210	-0.762920	0.159292
C294	C	1.240210	-0.512920	0.409292
C295	C	1.490210	-0.262920	0.659292
C296	C	1.740210	-0.012920	0.909292
C297	C	0.829069	-0.763026	0.274069
C298	C	1.079069	-0.513026	0.524069
C299	C	1.329069	-0.263026	0.774069
C300	C	1.579069	-0.013026	1.024069
C301	C	0.829094	-0.809942	0.274072
C302	C	1.079094	-0.559942	0.524072
C303	C	1.329094	-0.309942	0.774072
C304	C	1.579094	-0.059942	1.024072
C305	C	0.869390	-0.833374	0.245380
C306	C	1.119390	-0.583374	0.495380
C307	C	1.369390	-0.333374	0.745380
C308	C	1.619390	-0.083374	0.995380
C309	C	1.073753	-0.216267	0.216709
C310	C	1.323753	0.033733	0.466709
C311	C	1.573753	0.283733	0.716709
C312	C	1.823753	0.533733	0.966709
C313	C	1.143721	-0.216257	0.216731
C314	C	1.393721	0.033743	0.466731
C315	C	1.643721	0.283743	0.716731
C316	C	1.893721	0.533743	0.966731
C317	C	0.909580	-0.216286	0.333835
C318	C	1.159580	0.033714	0.583835
C319	C	1.409580	0.283714	0.833835
C320	C	1.659580	0.533714	1.083835
C321	C	0.909587	-0.216284	0.383770
C322	C	1.159587	0.033716	0.633770
C323	C	1.409587	0.283716	0.883770
C324	C	1.659587	0.533716	1.133770
C325	C	0.909694	-0.099112	0.216689
C326	C	1.159694	0.150888	0.466689
C327	C	1.409694	0.400888	0.716689
C328	C	1.659694	0.650888	0.966689
C329	C	0.909750	-0.049177	0.216703
C330	C	1.159750	0.200823	0.466703
C331	C	1.409750	0.450823	0.716703
C332	C	1.659750	0.700823	0.966703
C333	C	0.909582	-0.216262	0.099934
C334	C	1.159582	0.033738	0.349934
C335	C	1.409582	0.283738	0.599934
C336	C	1.659582	0.533738	0.849934
C337	C	0.909697	-0.216137	0.050000
C338	C	1.159697	0.033863	0.300000
C339	C	1.409697	0.283863	0.550000
C340	C	1.659697	0.533863	0.800000
C341	C	0.949923	-0.187470	0.693437
C342	C	1.199923	0.062530	0.943437
C343	C	1.449923	0.312530	1.193437
C344	C	1.699923	0.562530	1.443437
C345	C	0.949954	-0.187432	0.881110
C346	C	1.199954	0.062568	1.131110
C347	C	1.449954	0.312568	1.381110
C348	C	1.699954	0.562568	1.631110
O349	O	0.984202	-0.162975	0.905395
O350	O	1.234202	0.087025	1.155395
O351	O	1.484202	0.337025	1.405395
O352	O	1.734202	0.587025	1.655395
N353	N	0.909670	-0.216164	0.904555
N354	N	1.159670	0.033836	1.154555
N355	N	1.409670	0.283836	1.404555
N356	N	1.659670	0.533836	1.654555
C357	C	0.869373	-0.244906	0.881079
C358	C	1.119373	0.005094	1.131079
C359	C	1.369373	0.255094	1.381079
C360	C	1.619373	0.505094	1.631079
O361	O	0.835105	-0.269341	0.905326
O362	O	1.085105	-0.019341	1.155326
O363	O	1.335105	0.230659	1.405326
O364	O	1.585105	0.480659	1.655326
C365	C	0.869339	-0.244942	0.693407
C366	C	1.119339	0.005058	0.943407
C367	C	1.369339	0.255058	1.193407
C368	C	1.619339	0.505058	1.443407
C369	C	0.909630	-0.216211	0.669964
C370	C	1.159630	0.033789	0.919964
C371	C	1.409630	0.283789	1.169964
C372	C	1.659630	0.533789	1.419964
C373	C	0.990210	-0.158741	0.669994
C374	C	1.240210	0.091259	0.919994
C375	C	1.490210	0.341259	1.169994
C376	C	1.740210	0.591259	1.419994
C377	C	0.990204	-0.158752	0.623079
C378	C	1.240204	0.091248	0.873079
C379	C	1.490204	0.341248	1.123079
C380	C	1.740204	0.591248	1.373079
C381	C	0.949911	-0.187493	0.599606
C382	C	1.199911	0.062507	0.849606
C383	C	1.449911	0.312507	1.099606
C384	C	1.699911	0.562507	1.349606
C385	C	0.909624	-0.216222	0.623049
C386	C	1.159624	0.033778	0.873049
C387	C	1.409624	0.283778	1.123049
C388	C	1.659624	0.533778	1.373049
C389	C	0.829039	-0.273681	0.669931
C390	C	1.079039	-0.023681	0.919931
C391	C	1.329039	0.226319	1.169931
C392	C	1.579039	0.476319	1.419931
C393	C	0.829033	-0.273687	0.623010
C394	C	1.079033	-0.023687	0.873010
C395	C	1.329033	0.226313	1.123010
C396	C	1.579033	0.476313	1.373010
C397	C	0.869324	-0.244956	0.599568
C398	C	1.119324	0.005044	0.849568
C399	C	1.369324	0.255044	1.099568
C400	C	1.619324	0.505044	1.349568
C401	C	0.869325	-0.244975	0.552660
C402	C	1.119325	0.005025	0.802660
C403	C	1.369325	0.255025	1.052660
C404	C	1.619325	0.505025	1.302660
N405	N	0.909609	-0.216242	0.529215
N406	N	1.159609	0.033758	0.779215
N407	N	1.409609	0.283758	1.029215
N408	N	1.659609	0.533758	1.279215
C409	C	0.949902	-0.187501	0.552688
C410	C	1.199902	0.062499	0.802688
C411	C	1.449902	0.312499	1.052688
C412	C	1.699902	0.562499	1.302688
C413	C	0.869394	-0.244886	0.979609
C414	C	1.119394	0.005114	1.229609
C415	C	1.369394	0.255114	1.479609
C416	C	1.619394	0.505114	1.729609
C417	C	0.869404	-0.244878	1.026527
C418	C	1.119404	0.005122	1.276527
C419	C	1.369404	0.255122	1.526527
C420	C	1.619404	0.505122	1.776527
C421	C	0.949984	-0.187402	1.026555
C422	C	1.199984	0.062598	1.276555
C423	C	1.449984	0.312598	1.526555
C424	C	1.699984	0.562598	1.776555
C425	C	0.949978	-0.187413	0.979637
C426	C	1.199978	0.062587	1.229637
C427	C	1.449978	0.312587	1.479637
C428	C	1.699978	0.562587	1.729637
C429	C	0.909678	-0.216154	0.956165
C430	C	1.159678	0.033846	1.206165
C431	C	1.409678	0.283846	1.456165
C432	C	1.659678	0.533846	1.706165
C433	C	0.949887	-0.187528	0.454162
C434	C	1.199887	0.062472	0.704162
C435	C	1.449887	0.312472	0.954162
C436	C	1.699887	0.562472	1.204162
C437	C	0.949880	-0.187544	0.407243
C438	C	1.199880	0.062456	0.657243
C439	C	1.449880	0.312456	0.907243
C440	C	1.699880	0.562456	1.157243
C441	C	0.869297	-0.245017	0.407219
C442	C	1.119297	0.004983	0.657219
C443	C	1.369297	0.254983	0.907219
C444	C	1.619297	0.504983	1.157219
C445	C	0.869307	-0.245004	0.454134
C446	C	1.119307	0.004996	0.704134
C447	C	1.369307	0.254996	0.954134
C448	C	1.619307	0.504996	1.204134
C449	C	0.909604	-0.216255	0.477605
C450	C	1.159604	0.033745	0.727605
C451	C	1.409604	0.283745	0.977605
C452	C	1.659604	0.533745	1.227605
O453	O	0.835090	-0.269415	0.528346
O454	O	1.085090	-0.019415	0.778346
O455	O	1.335090	0.230585	1.028346
O456	O	1.585090	0.480585	1.278346
O457	O	0.984155	-0.163063	0.528432
O458	O	1.234155	0.086937	0.778432
O459	O	1.484155	0.336937	1.028432
O460	O	1.734155	0.586937	1.278432
C461	C	0.949929	-0.187458	0.740352
C462	C	1.199929	0.062542	0.990352
C463	C	1.449929	0.312542	1.240352
C464	C	1.699929	0.562542	1.490352
C465	C	0.909641	-0.216188	0.763795
C466	C	1.159641	0.033812	1.013795
C467	C	1.409641	0.283812	1.263795
C468	C	1.659641	0.533812	1.513795
C469	C	0.869349	-0.244928	0.740322
C470	C	1.119349	0.005072	0.990322
C471	C	1.369349	0.255072	1.240322
C472	C	1.619349	0.505072	1.490322
C473	C	0.909651	-0.216179	0.810713
C474	C	1.159651	0.033821	1.060713
C475	C	1.409651	0.283821	1.310713
C476	C	1.659651	0.533821	1.560713
C477	C	0.949944	-0.187438	0.834186
C478	C	1.199944	0.062562	1.084186
C479	C	1.449944	0.312562	1.334186
C480	C	1.699944	0.562562	1.584186
C481	C	0.990227	-0.158706	0.810741
C482	C	1.240227	0.091294	1.060741
C483	C	1.490227	0.341294	1.310741
C484	C	1.740227	0.591294	1.560741
C485	C	0.990222	-0.158718	0.763825
C486	C	1.240222	0.091282	1.013825
C487	C	1.490222	0.341282	1.263825
C488	C	1.740222	0.591282	1.513825
C489	C	0.829065	-0.273661	0.763767
C490	C	1.079065	-0.023661	1.013767
C491	C	1.329065	0.226339	1.263767
C492	C	1.579065	0.476339	1.513767
C493	C	0.829074	-0.273647	0.810683
C494	C	1.079074	-0.023647	1.060683
C495	C	1.329074	0.226353	1.310683
C496	C	1.579074	0.476353	1.560683
C497	C	0.869367	-0.244907	0.834155
C498	C	1.119367	0.005093	1.084155
C499	C	1.369367	0.255093	1.334155
C500	C	1.619367	0.505093	1.584155
H501	H	0.669911	-0.268544	0.268621
H502	H	0.919911	-0.018544	0.518621
H503	H	1.169911	0.231456	0.768621
H504	H	1.419911	0.481456	1.018621
H505	H	0.149848	-0.164051	0.164700
H506	H	0.399848	0.085949	0.414700
H507	H	0.649848	0.335949	0.664700
H508	H	0.899848	0.585949	0.914700
Br509	Br	0.532792	-0.284142	0.284227
Br510	Br	0.782792	-0.034142	0.534227
Br511	Br	1.032792	0.215858	0.784227
Br512	Br	1.282792	0.465858	1.034227
Br513	Br	0.774378	-0.731234	0.313012
Br514	Br	1.024378	-0.481234	0.563012
Br515	Br	1.274378	-0.231234	0.813012
Br516	Br	1.524378	0.018766	1.063012
Br517	Br	0.774335	-0.312692	0.591158
Br518	Br	1.024335	-0.062692	0.841158
Br519	Br	1.274335	0.187308	1.091158
Br520	Br	1.524335	0.437308	1.341158
H521	H	0.796229	-0.297077	0.689010
H522	H	1.046229	-0.047077	0.939010
H523	H	1.296229	0.202923	1.189010
H524	H	1.546229	0.452923	1.439010
H525	H	0.269116	-0.164070	0.164666
H526	H	0.519116	0.085930	0.414666
H527	H	0.769116	0.335930	0.664666
H528	H	1.019116	0.585930	0.914666
H529	H	0.669957	-0.164120	0.164568
H530	H	0.919957	0.085880	0.414568
H531	H	1.169957	0.335880	0.664568
H532	H	1.419957	0.585880	0.914568
H533	H	0.550686	-0.164110	0.164598
H534	H	0.800686	0.085890	0.414598
H535	H	1.050686	0.335890	0.664598
H536	H	1.300686	0.585890	0.914598
Br537	Br	0.286915	-0.284111	0.284289
Br538	Br	0.536915	-0.034111	0.534289
Br539	Br	0.786915	0.215889	0.784289
Br540	Br	1.036915	0.465889	1.034289
H541	H	0.982692	-0.164147	0.388158
H542	H	1.232692	0.085853	0.638158
H543	H	1.482692	0.335853	0.888158
H544	H	1.732692	0.585853	1.138158
H545	H	0.836578	-0.268293	0.960503
H546	H	1.086578	-0.018293	1.210503
H547	H	1.336578	0.231707	1.460503
H548	H	1.586578	0.481707	1.710503
Br549	Br	1.004572	-0.148510	0.486008
Br550	Br	1.254572	0.101490	0.736008
Br551	Br	1.504572	0.351490	0.986008
Br552	Br	1.754572	0.601490	1.236008
H553	H	0.149810	-0.268462	0.268761
H554	H	0.399810	-0.018462	0.518761
H555	H	0.649810	0.231538	0.768761
H556	H	0.899810	0.481538	1.018761
H557	H	0.796266	-0.297048	0.829765
H558	H	1.046266	-0.047048	1.079765
H559	H	1.296266	0.202952	1.329765
H560	H	1.546266	0.452952	1.579765
Br561	Br	1.004415	-0.374511	0.148994
Br562	Br	1.254415	-0.124511	0.398994
Br563	Br	1.504415	0.125489	0.648994
Br564	Br	1.754415	0.375489	0.898994
Br565	Br	1.004481	-0.485089	0.149010
Br566	Br	1.254481	-0.235089	0.399010
Br567	Br	1.504481	0.014911	0.649010
Br568	Br	1.754481	0.264911	0.899010
Br569	Br	1.044816	-0.590311	0.120329
Br570	Br	1.294816	-0.340311	0.370329
Br571	Br	1.544816	-0.090311	0.620329
Br572	Br	1.794816	0.159689	0.870329
H573	H	0.836505	-0.268403	0.473222
H574	H	1.086505	-0.018403	0.723222
H575	H	1.336505	0.231597	0.973222
H576	H	1.586505	0.481597	1.223222
Br577	Br	1.044861	-0.700881	0.120337
Br578	Br	1.294861	-0.450881	0.370337
Br579	Br	1.544861	-0.200881	0.620337
Br580	Br	1.794861	0.049119	0.870337
Br581	Br	1.044916	-0.841646	0.120357
Br582	Br	1.294916	-0.591646	0.370357
Br583	Br	1.544916	-0.341646	0.620357
Br584	Br	1.794916	-0.091646	0.870357
H585	H	0.982793	-0.164001	1.045675
H586	H	1.232793	0.085999	1.295675
H587	H	1.482793	0.335999	1.545675
H588	H	1.732793	0.585999	1.795675
Br589	Br	0.774329	-0.590473	0.313011
Br590	Br	1.024329	-0.340473	0.563011
Br591	Br	1.274329	-0.090473	0.813011
Br592	Br	1.524329	0.159527	1.063011
H593	H	1.023030	-0.135321	0.744743
H594	H	1.273030	0.114679	0.994743
H595	H	1.523030	0.364679	1.244743
H596	H	1.773030	0.614679	1.494743
H597	H	0.982805	-0.959655	0.164630
H598	H	1.232805	-0.709655	0.414630
H599	H	1.482805	-0.459655	0.664630
H600	H	1.732805	-0.209655	0.914630
H601	H	0.982840	-1.044778	0.164643
H602	H	1.232840	-0.794778	0.414643
H603	H	1.482840	-0.544778	0.664643
H604	H	1.732840	-0.294778	0.914643
H605	H	0.836652	-1.044862	0.268761
H606	H	1.086652	-0.794862	0.518761
H607	H	1.336652	-0.544862	0.768761
H608	H	1.586652	-0.294862	1.018761
Br609	Br	0.774427	-0.841807	0.313025
Br610	Br	1.024427	-0.591807	0.563025
Br611	Br	1.274427	-0.341807	0.813025
Br612	Br	1.524427	-0.091807	1.063025
H613	H	0.836623	-0.959753	0.268760
H614	H	1.086623	-0.709753	0.518760
H615	H	1.336623	-0.459753	0.768760
H616	H	1.586623	-0.209753	1.018760
H617	H	0.796229	-0.688303	0.297436
H618	H	1.046229	-0.438303	0.547436
H619	H	1.296229	-0.188303	0.797436
H620	H	1.546229	0.061697	1.047436
Br621	Br	1.004660	-0.148420	0.947827
Br622	Br	1.254660	0.101580	1.197827
Br623	Br	1.504660	0.351580	1.447827
Br624	Br	1.754660	0.601580	1.697827
H625	H	0.836411	-0.472474	0.268714
H626	H	1.086411	-0.222474	0.518714
H627	H	1.336411	0.027526	0.768714
H628	H	1.586411	0.277526	1.018714
H629	H	0.836370	-0.387352	0.268699
H630	H	1.086370	-0.137352	0.518699
H631	H	1.336370	0.112648	0.768699
H632	H	1.586370	0.362648	1.018699
Br633	Br	0.814733	-0.283880	1.058336
Br634	Br	1.064733	-0.033880	1.308336
Br635	Br	1.314733	0.216120	1.558336
Br636	Br	1.564733	0.466120	1.808336
Br637	Br	1.044884	-0.119755	0.591271
Br638	Br	1.294884	0.130245	0.841271
Br639	Br	1.544884	0.380245	1.091271
Br640	Br	1.794884	0.630245	1.341271
Br641	Br	1.044909	-0.119735	0.701842
Br642	Br	1.294909	0.130265	0.951842
Br643	Br	1.544909	0.380265	1.201842
Br644	Br	1.794909	0.630265	1.451842
H645	H	1.023007	-0.743804	0.135922
H646	H	1.273007	-0.493804	0.385922
H647	H	1.523007	-0.243804	0.635922
H648	H	1.773007	0.006196	0.885922
H649	H	1.023037	-0.135306	0.829861
H650	H	1.273037	0.114694	1.079861
H651	H	1.523037	0.364694	1.329861
H652	H	1.773037	0.614694	1.579861
Br653	Br	0.774374	-0.312669	0.731918
Br654	Br	1.024374	-0.062669	0.981918
Br655	Br	1.274374	0.187331	1.231918
Br656	Br	1.524374	0.437331	1.481918
Br657	Br	0.814616	-0.284020	0.375354
Br658	Br	1.064616	-0.034020	0.625354
Br659	Br	1.314616	0.215980	0.875354
Br660	Br	1.564616	0.465980	1.125354
