data_functionalizedCrystal
_audit_creation_method	'MofGen! by Chris Wilmer'
_symmetry_space_group_name_H-M	'P1'
_symmetry_Int_Tables_number	1
_symmetry_cell_setting	triclinic
loop_
_symmetry_equiv_pos_as_xyz
  x,y,z
_cell_length_a	12.759395
_cell_length_b	12.759394
_cell_length_c	12.759387
_cell_angle_alpha	89.968340
_cell_angle_beta	89.979491
_cell_angle_gamma	90.016374
loop_
_atom_site_label
_atom_site_type_symbol
_atom_site_fract_x
_atom_site_fract_y
_atom_site_fract_z
Zn1	Zn	1.606268	-0.418168	-0.593999
Zn2	Zn	1.606158	-0.593885	-0.418317
Zn3	Zn	1.430566	-0.418225	-0.418336
Zn4	Zn	1.430558	-0.593810	-0.593956
O5	O	1.518387	-0.506022	-0.506152
O6	O	1.753274	-0.441485	-0.570704
O7	O	1.582823	-0.570639	-0.271298
O8	O	1.453922	-0.271197	-0.441664
O9	O	1.753194	-0.570583	-0.441631
O10	O	1.583010	-0.271155	-0.570723
O11	O	1.453816	-0.441582	-0.271312
O12	O	1.283544	-0.441510	-0.441622
O13	O	1.453909	-0.570456	-0.740983
O14	O	1.283538	-0.570511	-0.570649
O15	O	1.583002	-0.441412	-0.741014
O16	O	1.582815	-0.740896	-0.441590
O17	O	1.453802	-0.740841	-0.570631
C18	C	1.245420	-0.506009	-0.506134
C19	C	1.128643	-0.506029	-0.506151
C20	C	1.128676	-0.640576	-0.640290
C21	C	1.073831	-0.707857	-0.707362
C22	C	0.964109	-0.707870	-0.707375
C23	C	0.909230	-0.640592	-0.640310
C24	C	0.964074	-0.573310	-0.573238
C25	C	1.073799	-0.573307	-0.573230
C26	C	0.964042	-0.438760	-0.439106
C27	C	1.073764	-0.438751	-0.439086
C28	C	0.909162	-0.371482	-0.372042
C29	C	0.964007	-0.304204	-0.304962
C30	C	1.073735	-0.304195	-0.304951
C31	C	1.128608	-0.371469	-0.372014
C32	C	1.518324	-0.778990	-0.506126
C33	C	1.518393	-0.895766	-0.506151
C34	C	1.652835	-0.895770	-0.371881
C35	C	1.720083	-0.950633	-0.304758
C36	C	1.720145	-1.060354	-0.304786
C37	C	1.652953	-1.115216	-0.371947
C38	C	1.585705	-1.060353	-0.439070
C39	C	1.585648	-0.950629	-0.439032
C40	C	1.451270	-1.060349	-0.573343
C41	C	1.451202	-0.950628	-0.573311
C42	C	1.384079	-1.115211	-0.640504
C43	C	1.316823	-1.060348	-0.707623
C44	C	1.316764	-0.950620	-0.707591
C45	C	1.383954	-0.895765	-0.640434
C46	C	1.792421	-0.506036	-0.506170
C47	C	1.909197	-0.506042	-0.506178
C48	C	1.518467	-0.505919	-0.780185
C49	C	1.518500	-0.505875	-0.896962
C50	C	1.518479	-0.231989	-0.506200
C51	C	1.518518	-0.115212	-0.506221
C52	C	1.652934	-0.371511	-0.897015
C53	C	1.720166	-0.304313	-0.951902
C54	C	1.720192	-0.304275	-1.061624
C55	C	1.652976	-0.371439	-1.116461
C56	C	1.585744	-0.438637	-1.061574
C57	C	1.585728	-0.438671	-0.951849
C58	C	1.451307	-0.572995	-1.061521
C59	C	1.451285	-0.573040	-0.951799
C60	C	1.384091	-0.640159	-1.116358
C61	C	1.316863	-0.707364	-1.061471
C62	C	1.316841	-0.707400	-0.951742
C63	C	1.384053	-0.640238	-0.896912
C64	C	1.518369	-0.506049	-0.233184
C65	C	1.518538	-0.505797	-0.116408
H66	H	1.118526	-0.762632	-0.761966
H67	H	1.218017	-0.640580	-0.640278
H68	H	1.262136	-0.762038	-1.106128
C69	C	1.242904	-0.781338	-0.891374
H70	H	1.202892	-0.821339	-0.939751
H71	H	1.197131	-0.741177	-0.848560
H72	H	1.283088	-0.827138	-0.848583
C73	C	0.903778	-0.781831	-0.781198
H74	H	0.952172	-0.821888	-0.821148
H75	H	0.861025	-0.741659	-0.827032
H76	H	0.860927	-0.827579	-0.740962
C77	C	1.384026	-0.640276	-0.776221
H78	H	1.334364	-0.689918	-0.751383
H79	H	1.365887	-0.572482	-0.751416
H80	H	1.451815	-0.658471	-0.751407
H81	H	1.774890	-0.249627	-0.907242
C82	C	1.249299	-0.371459	-0.372001
H83	H	1.274106	-0.321759	-0.322448
H84	H	1.274153	-0.353380	-0.439831
H85	H	1.274095	-0.439236	-0.353698
H86	H	0.819821	-0.371492	-0.372061
C87	C	0.788539	-0.640602	-0.640330
H88	H	0.763736	-0.690309	-0.689878
H89	H	0.763740	-0.572828	-0.658620
H90	H	0.763683	-0.658696	-0.572498
C91	C	1.652995	-0.371395	-1.237151
H92	H	1.603335	-0.421014	-1.261949
H93	H	1.720790	-0.389559	-1.261985
H94	H	1.634850	-0.303581	-1.261979
H95	H	1.118383	-0.249398	-0.250340
H96	H	1.652778	-0.806429	-0.371837
C97	C	1.794113	-1.120706	-0.230952
H98	H	1.834117	-1.072323	-0.190945
H99	H	1.839892	-1.163441	-0.271188
H100	H	1.753954	-1.163575	-0.185154
C101	C	1.383891	-0.775075	-0.640403
H102	H	1.334216	-0.750254	-0.689993
H103	H	1.451671	-0.750187	-0.658613
H104	H	1.365731	-0.750324	-0.572580
C105	C	1.794142	-0.230362	-1.122007
H106	H	1.784521	-0.239958	-1.195206
H107	H	1.864723	-0.245751	-1.104035
H108	H	1.778786	-0.159770	-1.104043
C109	C	1.384120	-0.640120	-1.237048
H110	H	1.433794	-0.590489	-1.261886
H111	H	1.316336	-0.621934	-1.261868
H112	H	1.402269	-0.707919	-1.261850
H113	H	1.653018	-1.204557	-0.371973
H114	H	0.919315	-0.249426	-0.250369
C115	C	1.384143	-1.235901	-0.640534
H116	H	1.433808	-1.260720	-0.590933
H117	H	1.402294	-1.260656	-0.708352
H118	H	1.316359	-1.260786	-0.622315
C119	C	1.793988	-0.890285	-0.230887
H120	H	1.784317	-0.817081	-0.240473
H121	H	1.864582	-0.908195	-0.246321
H122	H	1.778644	-0.908339	-0.160286
C123	C	1.242923	-1.120695	-0.781489
H124	H	1.252591	-1.193898	-0.771892
H125	H	1.258252	-1.102638	-0.852087
H126	H	1.172324	-1.102792	-0.766041
C127	C	1.242794	-0.890274	-0.781428
H128	H	1.252381	-0.817070	-0.771799
H129	H	1.172219	-0.908331	-0.766008
H130	H	1.258163	-0.908185	-0.852038
C131	C	1.652914	-0.371555	-0.776324
H132	H	1.702567	-0.321929	-0.751527
H133	H	1.671043	-0.439365	-0.751491
H134	H	1.585116	-0.353374	-0.751496
