data_functionalizedCrystal
_audit_creation_method	'MofGen! by Chris Wilmer'
_symmetry_space_group_name_H-M	'P1'
_symmetry_Int_Tables_number	1
_symmetry_cell_setting	triclinic
loop_
_symmetry_equiv_pos_as_xyz
  x,y,z
_cell_length_a	10.489741
_cell_length_b	10.489711
_cell_length_c	11.892113
_cell_angle_alpha	94.328493
_cell_angle_beta	94.329100
_cell_angle_gamma	84.533091
loop_
_atom_site_label
_atom_site_type_symbol
_atom_site_fract_x
_atom_site_fract_y
_atom_site_fract_z
O1	O	1.701370	0.187306	0.093923
O2	O	1.330174	0.204200	0.093940
O3	O	1.524238	0.010153	0.093934
O4	O	1.507305	0.381353	0.093929
O5	O	1.509538	-0.004537	-0.094072
O6	O	1.315473	0.189510	-0.094067
O7	O	1.686670	0.172616	-0.094083
Zn8	Zn	1.498738	0.178731	-0.123925
Zn9	Zn	1.518106	0.198086	0.123781
O10	O	1.492605	0.366663	-0.094078
C11	C	1.275292	0.195580	-0.000061
C12	C	1.133664	0.191763	-0.000055
C13	C	1.515617	-0.044724	-0.000066
C14	C	1.511816	-0.186355	-0.000056
C15	C	1.065536	0.068296	-0.000063
C16	C	0.980651	0.133863	0.092630
C17	C	0.966191	0.119409	-0.092729
C18	C	1.050650	0.257387	0.092716
C19	C	1.036193	0.242909	-0.092727
C20	C	0.951337	0.308567	-0.000011
C21	C	1.628520	-0.368742	-0.000073
C22	C	1.562976	-0.283841	-0.092766
C23	C	1.577438	-0.269382	0.092593
C24	C	1.439427	-0.353799	-0.092848
C25	C	1.453913	-0.339342	0.092595
C26	C	1.388278	-0.254470	-0.000121
C27	C	1.741551	0.181237	-0.000080
C28	C	1.883180	0.185054	-0.000079
C29	C	1.501226	0.421540	-0.000075
C30	C	1.505028	0.563171	-0.000078
N31	N	1.485528	0.165521	-0.292978
C32	C	1.623226	0.303271	-0.529636
C33	C	1.614003	0.294026	-0.647977
C34	C	1.457867	0.137781	-0.648004
C35	C	1.467090	0.147026	-0.529663
C36	C	1.549771	0.229774	-0.470483
C37	C	1.558986	0.239025	-0.352140
C38	C	1.402858	0.082774	-0.352169
C39	C	1.393635	0.073530	-0.470510
N40	N	1.531325	0.211286	0.292835
H41	H	1.115246	-0.033192	0.000054
Cl42	Cl	0.875012	0.465439	0.000061
Cl43	Cl	1.107700	0.347444	0.213845
Cl44	Cl	1.310500	-0.009619	-0.277798
Cl45	Cl	0.942238	0.062666	0.213628
H46	H	1.061106	0.288984	-0.171099
Cl47	Cl	1.634192	-0.245437	-0.213757
Cl48	Cl	1.785214	-0.445478	-0.000217
Cl49	Cl	0.908914	0.029269	-0.213722
H50	H	1.390566	0.070397	-0.696209
Cl51	Cl	1.667603	-0.212125	0.213580
Cl52	Cl	1.349354	-0.410823	-0.213977
H53	H	1.286683	-0.205008	-0.000168
Cl54	Cl	1.382766	-0.377788	0.213600
H55	H	1.626304	0.306408	-0.303957
H56	H	1.690536	0.370660	-0.481450
H57	H	1.326322	0.006154	-0.518711
H58	H	1.673820	0.353873	-0.696135
