data_functionalizedCrystal
_audit_creation_method	'MofGen! by Chris Wilmer'
_symmetry_space_group_name_H-M	'P1'
_symmetry_Int_Tables_number	1
_symmetry_cell_setting	triclinic
loop_
_symmetry_equiv_pos_as_xyz
  x,y,z
_cell_length_a	6.817900
_cell_length_b	16.418049
_cell_length_c	19.453114
_cell_angle_alpha	95.881320
_cell_angle_beta	101.709288
_cell_angle_gamma	103.389670
loop_
_atom_site_label
_atom_site_type_symbol
_atom_site_fract_x
_atom_site_fract_y
_atom_site_fract_z
V1	V	-4.006364	-0.116759	-0.219248
O2	O	-3.994760	0.004713	-0.214820
O3	O	-3.957546	-0.230651	-0.217993
O4	O	-3.949285	-0.115357	-0.314758
O5	O	-4.003078	-0.111378	-0.117385
V6	V	-4.491171	-0.102183	-0.207035
O7	O	-4.264806	-0.148733	-0.246039
O8	O	-4.682926	-0.070209	-0.180244
O9	O	-4.316783	0.011708	-0.208290
O10	O	-4.620172	-0.223655	-0.211463
O11	O	-4.611854	-0.107564	-0.308898
O12	O	-4.325044	-0.103585	-0.111525
C13	C	-3.802725	-0.258403	-0.214598
C14	C	-3.844039	-0.351513	-0.214209
C15	C	-4.120832	-0.570013	-0.216840
C16	C	-4.159639	-0.657501	-0.216480
C17	C	-3.796061	-0.648929	-0.209448
C18	C	-3.757260	-0.561443	-0.209812
C19	C	-3.919651	-0.521987	-0.213505
C20	C	-3.997258	-0.696960	-0.212781
C21	C	-4.039333	-0.791818	-0.212391
C22	C	-3.877575	-0.427123	-0.213896
C23	C	-3.792187	-0.111333	-0.338030
C24	C	-3.826798	-0.110940	-0.416112
C25	C	-4.024826	-0.114960	-0.456377
C26	C	-4.057348	-0.114591	-0.529743
C27	C	-3.891839	-0.110219	-0.562843
C28	C	-3.693782	-0.106194	-0.522567
C29	C	-3.661261	-0.106554	-0.449201
N30	N	-3.831933	-0.154452	-0.681726
N31	N	-3.862840	-0.154112	-0.751421
C32	C	-3.989809	-0.109130	-0.783889
N33	N	-4.084741	-0.064513	-0.744031
N34	N	-4.053840	-0.064857	-0.674330
C35	C	-3.927082	-0.109827	-0.642395
C36	C	-4.223112	-0.112748	-0.903706
C37	C	-4.255625	-0.112374	-0.977073
C38	C	-3.892057	-0.103985	-0.969896
C39	C	-3.859546	-0.104352	-0.896530
C40	C	-4.025084	-0.108737	-0.863440
C41	C	-4.134946	0.039456	-0.211683
C42	C	-4.072870	0.132565	-0.212077
C43	C	-4.145485	-0.107612	-0.088249
C44	C	-4.090112	-0.108001	-0.010167
H45	H	-3.593427	-0.522340	-0.207099
H46	H	-3.663853	-0.681064	-0.206440
O47	O	-4.278459	-0.531610	-0.220525
C48	C	-4.478388	-0.449470	-0.286200
C49	C	-4.299789	-0.492902	-0.282103
H50	H	-4.495719	-0.418179	-0.335990
H51	H	-4.442980	-0.399299	-0.237177
H52	H	-4.628797	-0.498838	-0.288488
H53	H	-4.149307	-0.443597	-0.279838
H54	H	-4.335375	-0.543089	-0.331125
O55	O	-4.185636	-0.119363	-0.424224
C56	C	-4.396887	-0.197556	-0.355212
C57	C	-4.214764	-0.192684	-0.391608
H58	H	-4.420467	-0.256822	-0.328819
H59	H	-4.544101	-0.200422	-0.396578
H60	H	-4.360823	-0.138988	-0.313248
H61	H	-4.250627	-0.251238	-0.433567
H62	H	-4.067606	-0.189776	-0.350200
H63	H	-4.218613	-0.117868	-0.562535
H64	H	-4.416883	-0.115641	-1.009856
O65	O	-3.533112	-0.101838	-0.554782
C66	C	-3.321727	-0.023597	-0.623733
C67	C	-3.503763	-0.028442	-0.587296
H68	H	-3.297913	0.035748	-0.650017
H69	H	-3.357750	-0.082099	-0.665764
H70	H	-3.174645	-0.020828	-0.582341
H71	H	-3.650922	-0.031184	-0.628636
H72	H	-3.467563	0.030058	-0.545251
O73	O	-4.354929	-0.704219	-0.219614
C74	C	-4.577117	-0.796303	-0.162093
C75	C	-4.355838	-0.743448	-0.158464
H76	H	-4.577934	-0.828019	-0.112652
H77	H	-4.630804	-0.846906	-0.211468
H78	H	-4.686472	-0.753056	-0.164826
H79	H	-4.246329	-0.786626	-0.155704
H80	H	-4.302323	-0.692837	-0.109097
H81	H	-3.499998	-0.103275	-0.416416
H82	H	-4.357901	-0.116316	-0.876763
O83	O	-3.731377	-0.099626	-1.002104
C84	C	-3.519973	-0.021377	-1.071044
C85	C	-3.702018	-0.026226	-1.034612
H86	H	-3.496151	0.037972	-1.097324
H87	H	-3.555990	-0.079875	-1.113079
H88	H	-3.372897	-0.018611	-1.029651
H89	H	-3.849171	-0.028964	-1.075953
H90	H	-3.665824	0.032271	-0.992564
O91	O	-3.667335	-0.100618	-0.857378
C92	C	-3.456733	-0.169229	-0.780178
C93	C	-3.674538	-0.173529	-0.824460
H94	H	-3.462475	-0.228179	-0.753564
H95	H	-3.402322	-0.110325	-0.737765
H96	H	-3.344113	-0.166022	-0.816468
H97	H	-3.787310	-0.176769	-0.788226
H98	H	-3.728776	-0.232424	-0.866879
