data_functionalizedCrystal
_audit_creation_method	'MofGen! by Chris Wilmer'
_symmetry_space_group_name_H-M	'P1'
_symmetry_Int_Tables_number	1
_symmetry_cell_setting	triclinic
loop_
_symmetry_equiv_pos_as_xyz
  x,y,z
_cell_length_a	15.995350
_cell_length_b	15.995350
_cell_length_c	14.472310
_cell_angle_alpha	90.001162
_cell_angle_beta	89.990621
_cell_angle_gamma	83.492375
loop_
_atom_site_label
_atom_site_type_symbol
_atom_site_fract_x
_atom_site_fract_y
_atom_site_fract_z
O1	O	1.110997	0.107921	-0.076758
O2	O	0.867221	0.121248	-0.076776
O3	O	0.995773	-0.007303	-0.076766
O4	O	0.982445	0.236472	-0.076769
O5	O	0.995740	-0.007296	0.076916
O6	O	0.867188	0.121256	0.076906
O7	O	1.110963	0.107928	0.076924
Cu8	Cu	0.989073	0.114593	0.090947
Cu9	Cu	0.989112	0.114584	-0.090800
O10	O	0.982412	0.236480	0.076913
C11	C	0.836010	0.120701	0.000062
C12	C	0.743060	0.119049	0.000055
C13	C	0.405312	0.113117	0.000074
C14	C	0.452746	0.021565	0.000418
C15	C	0.549436	0.023217	0.000065
C16	C	0.572873	0.116060	0.000065
C17	C	0.531804	0.161212	-0.087692
C18	C	0.435169	0.158912	-0.087759
C19	C	0.434792	0.160812	0.087007
C20	C	0.531737	0.160790	0.088160
C21	C	0.667570	0.117727	0.000057
C22	C	0.310614	0.111452	0.000076
C23	C	0.995205	-0.038494	0.000073
C24	C	0.993553	-0.131444	0.000068
C25	C	0.987621	-0.469192	0.000071
C26	C	0.896069	-0.421758	-0.000281
C27	C	0.897721	-0.325068	0.000066
C28	C	0.990564	-0.301631	0.000069
C29	C	1.035701	-0.342705	0.087831
C30	C	1.033401	-0.439340	0.087904
C31	C	1.035330	-0.439707	-0.086861
C32	C	1.035309	-0.342762	-0.088021
C33	C	0.992231	-0.206934	0.000071
C34	C	0.985956	-0.563890	0.000075
C35	C	1.142175	0.108476	0.000083
C36	C	1.235125	0.110127	0.000084
C37	C	0.982980	0.267671	0.000072
C38	C	0.984631	0.360621	0.000071
N39	N	0.989051	0.114598	0.218778
N40	N	0.989140	0.114572	-0.218631
C41	C	0.989111	0.114581	0.592869
C42	C	0.920095	0.183135	0.553698
C43	C	0.920254	0.183385	0.446610
C44	C	0.989081	0.114590	0.407278
C45	C	1.076445	0.133671	0.446122
C46	C	1.076057	0.134159	0.553243
C47	C	0.971542	0.026741	0.553398
C48	C	0.969538	0.027327	0.446270
C49	C	0.989069	0.114593	0.302390
C50	C	0.989128	0.114579	0.697757
H51	H	0.560193	0.129845	-0.153002
O52	O	1.038157	-0.040868	0.586991
H53	H	1.071765	-0.071753	0.526781
O54	O	0.991660	-0.306601	-0.174026
H55	H	0.967655	-0.357938	-0.214240
O56	O	0.884411	0.008135	0.412648
H57	H	0.842842	0.000943	0.472866
O58	O	1.124744	-0.481771	-0.087655
H59	H	1.124316	-0.551072	-0.090298
O60	O	0.850379	-0.288154	0.083542
H61	H	0.796854	-0.242637	0.060615
O62	O	0.587085	-0.023785	0.083397
H63	H	0.536236	-0.047908	0.124309
O64	O	0.392713	0.250221	0.087797
H65	H	0.441438	0.294372	0.085534
O66	O	1.126049	-0.323990	0.092176
H67	H	1.139770	-0.285119	0.031687
O68	O	0.428195	-0.026913	0.083779
H69	H	0.381918	0.013721	0.125855
O70	O	0.847611	-0.446309	-0.083645
H71	H	0.783275	-0.412039	-0.082336
O72	O	0.850705	-0.287410	-0.083253
H73	H	0.826579	-0.338256	-0.124156
H74	H	1.016541	-0.026079	0.419500
H75	H	0.931159	0.247952	0.580608
H76	H	0.855314	0.172016	0.420349
H77	H	0.433166	-0.014865	-0.062168
H78	H	0.577308	-0.012521	-0.062951
O79	O	0.567902	0.117131	0.174158
H80	H	0.554801	0.050459	0.173449
O81	O	0.410927	0.115273	-0.174640
H82	H	0.468200	0.096005	-0.216210
H83	H	1.000459	-0.457639	0.153505
H84	H	0.854945	0.171953	0.579481
H85	H	0.931473	0.248569	0.420976
H86	H	1.129029	0.085068	0.420643
O87	O	1.096564	0.219011	0.586340
H88	H	1.106659	0.259313	0.525834
H89	H	1.129018	0.086196	0.579154
O90	O	0.392442	0.247940	-0.093053
H91	H	0.440830	0.292444	-0.095562
O92	O	0.550516	0.251561	-0.092032
H93	H	0.589382	0.265273	-0.031544
O94	O	1.097448	0.217564	0.410593
H95	H	1.045804	0.245797	0.365281
H96	H	0.909219	0.008392	0.580461
H97	H	1.100617	-0.471588	0.091888
O98	O	0.407582	0.121161	0.175116
H99	H	0.366127	0.168403	0.215108
O100	O	0.552092	0.250471	0.095190
H101	H	0.527760	0.286103	0.033164
O102	O	1.124995	-0.322418	-0.095041
H103	H	1.168388	-0.381704	-0.094178
H104	H	0.859626	-0.441349	0.062299
O105	O	0.994146	-0.305108	0.174342
H106	H	0.927060	-0.316789	0.175208
O107	O	0.995702	-0.466907	-0.174978
H108	H	0.941553	-0.501748	-0.157792
