data_functionalizedCrystal
_audit_creation_method	'MofGen! by Chris Wilmer'
_symmetry_space_group_name_H-M	'P1'
_symmetry_Int_Tables_number	1
_symmetry_cell_setting	triclinic
loop_
_symmetry_equiv_pos_as_xyz
  x,y,z
_cell_length_a	12.837932
_cell_length_b	10.654550
_cell_length_c	9.730223
_cell_angle_alpha	89.993622
_cell_angle_beta	89.996804
_cell_angle_gamma	90.342697
loop_
_atom_site_label
_atom_site_type_symbol
_atom_site_fract_x
_atom_site_fract_y
_atom_site_fract_z
O1	O	0.145716	-1.683741	0.114394
O2	O	0.159600	-1.319778	0.114371
O3	O	0.001697	-1.493688	0.114383
O4	O	0.303619	-1.509831	0.114382
O5	O	0.001706	-1.493677	-0.114197
O6	O	0.159608	-1.319767	-0.114209
O7	O	0.145725	-1.683730	-0.114186
Zn8	Zn	0.152668	-1.501747	-0.150489
Zn9	Zn	0.152656	-1.501762	0.150675
O10	O	0.303628	-1.509820	-0.114198
C11	C	0.158585	-1.272863	0.000079
C12	C	0.155535	-1.133087	0.000070
C13	C	-0.036959	-1.488229	0.000096
C14	C	-0.152153	-1.471966	0.000105
C15	C	0.146740	-1.730645	0.000110
C16	C	0.149790	-1.870421	0.000128
C17	C	-0.302973	-1.336035	0.000094
C18	C	-0.194737	-1.351308	0.000098
C19	C	-0.217813	-1.577359	0.000113
C20	C	-0.326049	-1.562087	0.000109
C21	C	-0.368625	-1.441420	0.000098
C22	C	-0.476863	-1.426149	0.000085
C23	C	-0.499937	-1.652200	0.000110
C24	C	-0.391701	-1.667472	0.000113
C25	C	0.342283	-1.515279	0.000092
C26	C	0.457477	-1.531542	0.000093
N27	N	0.152675	-1.501745	-0.356025
C28	C	0.248505	-1.063747	0.000090
C29	C	0.245633	-0.932413	0.000114
C30	C	0.056812	-0.939770	0.000104
C31	C	0.059685	-1.071102	0.000070
C32	C	0.357520	-1.059499	0.000102
C33	C	0.354648	-0.928165	0.000125
C34	C	0.216181	-1.585506	-0.427960
C35	C	0.216162	-1.585522	-0.571843
C36	C	0.089128	-1.418008	-0.571844
C37	C	0.089142	-1.417998	-0.427964
C38	C	0.289527	-1.682215	-0.427960
C39	C	0.289508	-1.682232	-0.571843
N40	N	0.152641	-1.501772	0.356211
H41	H	-0.511525	-1.327896	0.000063
H42	H	-0.141286	-1.265491	0.000096
H43	H	0.371319	-1.660228	-0.610919
Br44	Br	0.423101	-0.866074	0.159569
H45	H	-0.553403	-1.738012	0.000111
Br46	Br	0.428594	-1.116146	-0.159335
Br47	Br	0.002907	-1.304357	-0.669483
Br48	Br	0.235174	-1.833962	-0.646189
H49	H	-0.016021	-1.127554	0.000034
H50	H	-0.337638	-1.237784	0.000060
Br51	Br	0.002957	-1.304314	-0.330341
H52	H	0.264036	-1.778485	-0.388889
Br53	Br	0.419700	-1.630413	-0.353607
H54	H	-0.021226	-0.889286	0.000125
H55	H	-0.357020	-1.765716	0.000117
H56	H	-0.183128	-1.675600	0.000035
H57	H	0.392228	-1.098948	0.098789
Br58	Br	0.409564	-0.858013	-0.164347
