data_functionalizedCrystal
_audit_creation_method	'MofGen! by Chris Wilmer'
_symmetry_space_group_name_H-M	'P1'
_symmetry_Int_Tables_number	1
_symmetry_cell_setting	triclinic
loop_
_symmetry_equiv_pos_as_xyz
  x,y,z
_cell_length_a	10.489763
_cell_length_b	11.792241
_cell_length_c	10.868271
_cell_angle_alpha	90.000150
_cell_angle_beta	89.997594
_cell_angle_gamma	95.629112
loop_
_atom_site_label
_atom_site_type_symbol
_atom_site_fract_x
_atom_site_fract_y
_atom_site_fract_z
O1	O	-1.693491	0.160259	0.102254
O2	O	-1.360157	0.493592	0.435587
O3	O	-1.026824	0.826925	0.768920
O4	O	-1.322247	0.175263	0.102267
O5	O	-0.988914	0.508597	0.435600
O6	O	-0.655581	0.841930	0.768933
O7	O	-1.516878	0.002616	0.102267
O8	O	-1.183545	0.335949	0.435601
O9	O	-0.850211	0.669282	0.768934
O10	O	-1.498860	0.332907	0.102253
O11	O	-1.165527	0.666240	0.435586
O12	O	-0.832193	0.999573	0.768920
O13	O	-1.516862	0.002609	-0.102377
O14	O	-1.183529	0.335942	0.230956
O15	O	-0.850195	0.669275	0.564289
O16	O	-1.322231	0.175257	-0.102378
O17	O	-0.988898	0.508590	0.230955
O18	O	-0.655565	0.841923	0.564289
O19	O	-1.693475	0.160252	-0.102391
O20	O	-1.360141	0.493585	0.230942
O21	O	-1.026808	0.826919	0.564276
Zn22	Zn	-1.507850	0.167753	-0.134876
Zn23	Zn	-1.174517	0.501086	0.198457
Zn24	Zn	-0.841184	0.834420	0.531790
Zn25	Zn	-1.507872	0.167762	0.134752
Zn26	Zn	-1.174538	0.501096	0.468085
Zn27	Zn	-0.841205	0.834429	0.801419
O28	O	-1.498844	0.332900	-0.102392
O29	O	-1.165511	0.666233	0.230942
O30	O	-0.832177	0.999566	0.564275
C31	C	-1.274712	0.174121	-0.000054
C32	C	-0.941379	0.507455	0.333279
C33	C	-0.608045	0.840788	0.666613
C34	C	-1.133096	0.170715	-0.000048
C35	C	-0.799762	0.504048	0.333285
C36	C	-0.466429	0.837381	0.666618
C37	C	-1.065331	0.060850	-0.000056
C38	C	-0.731997	0.394183	0.333277
C39	C	-0.398664	0.727517	0.666610
C40	C	-0.973036	0.112743	0.100838
C41	C	-0.639702	0.446077	0.434172
C42	C	-0.306369	0.779410	0.767505
C43	C	-0.973054	0.112763	-0.100925
C44	C	-0.639720	0.446096	0.232408
C45	C	-0.306387	0.779430	0.565741
C46	C	-1.042666	0.222653	0.100930
C47	C	-0.709333	0.555987	0.434263
C48	C	-0.375999	0.889320	0.767596
C49	C	-1.042694	0.222658	-0.100925
C50	C	-0.709360	0.555991	0.232409
C51	C	-0.376027	0.889324	0.565742
C52	C	-0.950426	0.274631	-0.000006
C53	C	-0.617093	0.607964	0.333328
C54	C	-0.283759	0.941297	0.666661
C55	C	-0.741012	0.161376	-0.000071
C56	C	-0.407679	0.494709	0.333262
C57	C	-0.074346	0.828043	0.666596
C58	C	-0.882636	0.164729	-0.000079
C59	C	-0.549303	0.498062	0.333255
C60	C	-0.215970	0.831396	0.666588
C61	C	-1.515738	-0.039682	-0.000051
C62	C	-1.182405	0.293651	0.333283
C63	C	-0.849072	0.626985	0.666616
C64	C	-1.512351	-0.165705	-0.000037
C65	C	-1.179017	0.167628	0.333296
C66	C	-0.845684	0.500962	0.666630
C67	C	-1.499984	0.375197	-0.000071
C68	C	-1.166650	0.708531	0.333262
C69	C	-0.833317	1.041864	0.666596
C70	C	-1.503371	0.501220	-0.000077
C71	C	-1.170038	0.834554	0.333257
C72	C	-0.836705	1.167887	0.666590
N73	N	-1.507845	0.167746	-0.318890
N74	N	-1.174512	0.501080	0.014443
N75	N	-0.841179	0.834413	0.347776
C76	C	-1.509601	0.731950	-0.000046
C77	C	-1.176267	1.065283	0.333288
C78	C	-0.842934	1.398616	0.666621
C79	C	-1.506140	0.603555	-0.000063
C80	C	-1.172806	0.936888	0.333271
C81	C	-0.839473	1.270222	0.666604
C82	C	-1.507865	0.167760	-0.569896
C83	C	-1.174532	0.501093	-0.236563
C84	C	-0.841198	0.834426	0.096770
C85	C	-1.507850	0.167756	-0.430219
C86	C	-1.174517	0.501089	-0.096886
C87	C	-0.841183	0.834422	0.236448
N88	N	-1.507887	0.167760	0.318766
N89	N	-1.174554	0.501093	0.652099
N90	N	-0.841220	0.834427	0.985433
H91	H	-0.942228	0.066254	-0.186225
H92	H	-0.608894	0.399587	0.147108
H93	H	-0.275561	0.732921	0.480441
C94	C	-1.132826	-0.061169	0.000086
C95	C	-0.799493	0.272164	0.333419
C96	C	-0.466160	0.605497	0.666753
N97	N	-1.183666	-0.153072	0.000199
N98	N	-0.850333	0.180262	0.333533
N99	N	-0.516999	0.513595	0.666866
H100	H	-0.942187	0.066260	0.186143
H101	H	-0.608853	0.399593	0.519477
H102	H	-0.275520	0.732927	0.852810
H103	H	-1.073342	0.269106	0.186326
H104	H	-0.740009	0.602440	0.519659
H105	H	-0.406675	0.935773	0.852992
H106	H	-1.073574	0.269103	-0.186234
H107	H	-0.740241	0.602436	0.147100
H108	H	-0.406908	0.935770	0.480433
H109	H	-0.900695	0.365034	0.000045
H110	H	-0.567361	0.698368	0.333378
H111	H	-0.234028	1.031701	0.666712
