data_functionalizedCrystal
_audit_creation_method	'MofGen! by Chris Wilmer'
_symmetry_space_group_name_H-M	'P1'
_symmetry_Int_Tables_number	1
_symmetry_cell_setting	triclinic
loop_
_symmetry_equiv_pos_as_xyz
  x,y,z
_cell_length_a	16.625547
_cell_length_b	16.625539
_cell_length_c	19.805404
_cell_angle_alpha	90.027676
_cell_angle_beta	89.969301
_cell_angle_gamma	89.975178
loop_
_atom_site_label
_atom_site_type_symbol
_atom_site_fract_x
_atom_site_fract_y
_atom_site_fract_z
Zn1	Zn	1.232634	-0.456004	0.269463
Zn2	Zn	1.565967	-0.122671	0.602796
Zn3	Zn	1.899301	0.210662	0.936130
Zn4	Zn	1.232518	-0.321173	0.382656
Zn5	Zn	1.565851	0.012160	0.715990
Zn6	Zn	1.899184	0.345494	1.049323
Zn7	Zn	1.097796	-0.321175	0.269487
Zn8	Zn	1.431129	0.012158	0.602820
Zn9	Zn	1.764463	0.345492	0.936153
Zn10	Zn	1.097747	-0.455953	0.382615
Zn11	Zn	1.431080	-0.122620	0.715949
Zn12	Zn	1.764413	0.210714	1.049282
O13	O	1.165174	-0.388576	0.326055
O14	O	1.498507	-0.055243	0.659389
O15	O	1.831840	0.278090	0.992722
O16	O	1.345451	-0.438139	0.284486
O17	O	1.678784	-0.104806	0.617819
O18	O	2.012118	0.228527	0.951152
O19	O	1.214618	-0.208341	0.367671
O20	O	1.547952	0.124992	0.701005
O21	O	1.881285	0.458326	1.034338
O22	O	1.115752	-0.339083	0.174767
O23	O	1.449085	-0.005749	0.508100
O24	O	1.782418	0.327584	0.841434
O25	O	1.345366	-0.339079	0.367648
O26	O	1.678699	-0.005746	0.700982
O27	O	2.012032	0.327587	1.034315
O28	O	1.214817	-0.438141	0.174750
O29	O	1.548150	-0.104808	0.508083
O30	O	1.881483	0.228525	0.841416
O31	O	1.115639	-0.208342	0.284526
O32	O	1.448972	0.124991	0.617859
O33	O	1.782306	0.458324	0.951193
O34	O	0.984957	-0.339033	0.284486
O35	O	1.318290	-0.005699	0.617819
O36	O	1.651624	0.327634	0.951153
O37	O	1.115668	-0.568792	0.367578
O38	O	1.449001	-0.235459	0.700912
O39	O	1.782335	0.097874	1.034245
O40	O	0.984921	-0.438054	0.367601
O41	O	1.318254	-0.104720	0.700935
O42	O	1.651588	0.228613	1.034268
O43	O	1.214769	-0.568830	0.284446
O44	O	1.548102	-0.235497	0.617779
O45	O	1.881436	0.097837	0.951113
O46	O	1.214571	-0.339030	0.477368
O47	O	1.547904	-0.005696	0.810701
O48	O	1.881238	0.327637	1.144034
O49	O	1.115555	-0.438052	0.477337
O50	O	1.448889	-0.104718	0.810671
O51	O	1.782222	0.228615	1.144004
C52	C	0.955683	-0.388538	0.326042
C53	C	1.289016	-0.055205	0.659376
C54	C	1.622349	0.278128	0.992709
C55	C	0.866062	-0.388541	0.326053
C56	C	1.199395	-0.055208	0.659386
C57	C	1.532728	0.278126	0.992720
C58	C	1.165226	-0.598885	0.326005
C59	C	1.498559	-0.265552	0.659338
C60	C	1.831893	0.067781	0.992672
C61	C	1.165248	-0.688506	0.325983
C62	C	1.498582	-0.355173	0.659317
C63	C	1.831915	-0.021840	0.992650
C64	C	0.793279	-0.388551	0.326054
C65	C	1.126613	-0.055218	0.659388
C66	C	1.459946	0.278116	0.992721
C67	C	0.701971	-0.388571	0.326058
C68	C	1.035304	-0.055238	0.659391
C69	C	1.368637	0.278095	0.992724
C70	C	0.629194	-0.388592	0.326064
C71	C	0.962528	-0.055258	0.659397
C72	C	1.295861	0.278075	0.992731
C73	C	0.537880	-0.388611	0.326069
C74	C	0.871213	-0.055278	0.659402
C75	C	1.204547	0.278056	0.992735
C76	C	1.165286	-1.016682	0.325908
C77	C	1.498619	-0.683349	0.659241
C78	C	1.831952	-0.350016	0.992574
C79	C	1.165273	-0.925374	0.325931
C80	C	1.498606	-0.592040	0.659264
C81	C	1.831940	-0.258707	0.992598
C82	C	1.165267	-0.852597	0.325946
C83	C	1.498601	-0.519264	0.659279
C84	C	1.831934	-0.185931	0.992613
C85	C	1.165254	-0.761283	0.325968
C86	C	1.498587	-0.427950	0.659302
C87	C	1.831921	-0.094616	0.992635
C88	C	1.375482	-0.388615	0.326069
C89	C	1.708816	-0.055282	0.659402
C90	C	2.042149	0.278052	0.992736
C91	C	1.465104	-0.388632	0.326075
C92	C	1.798437	-0.055298	0.659408
C93	C	2.131770	0.278035	0.992742
C94	C	1.165067	-0.388552	0.501911
C95	C	1.498400	-0.055219	0.835245
C96	C	1.831734	0.278114	1.168578
C97	C	1.165095	-0.388569	0.577143
C98	C	1.498428	-0.055236	0.910477
C99	C	1.831762	0.278097	1.243810
C100	C	1.165168	-0.179085	0.326057
C101	C	1.498501	0.154248	0.659390
C102	C	1.831834	0.487581	0.992723
C103	C	1.165302	-0.089465	0.325888
C104	C	1.498635	0.243869	0.659221
C105	C	1.831968	0.577202	0.992554
C106	C	1.216912	-0.337157	1.038928
C107	C	1.550245	-0.003824	1.372261
C108	C	1.883578	0.329509	1.705594
C109	C	1.216876	-0.337139	0.968239
C110	C	1.550209	-0.003806	1.301572
C111	C	1.883542	0.329528	1.634906
C112	C	1.165265	-0.388644	0.932905
C113	C	1.498598	-0.055310	1.266238
C114	C	1.831931	0.278023	1.599572
C115	C	1.113680	-0.440165	0.968263
C116	C	1.447014	-0.106832	1.301596
C117	C	1.780347	0.226502	1.634930
C118	C	1.113713	-0.440179	1.038950
C119	C	1.447046	-0.106846	1.372284
C120	C	1.780380	0.226488	1.705617
C121	C	1.113547	-0.440109	0.683190
C122	C	1.446880	-0.106776	1.016523
C123	C	1.780214	0.226558	1.349857
C124	C	1.113520	-0.440093	0.612498
C125	C	1.446853	-0.106760	0.945831
C126	C	1.780187	0.226574	1.279164
C127	C	1.216710	-0.337069	0.612479
C128	C	1.550043	-0.003736	0.945812
C129	C	1.883376	0.329598	1.279145
C130	C	1.216742	-0.337083	0.683166
C131	C	1.550076	-0.003750	1.016499
C132	C	1.883409	0.329584	1.349833
C133	C	1.165156	-0.388601	0.718518
C134	C	1.498489	-0.055267	1.051851
C135	C	1.831822	0.278066	1.385184
C136	C	1.165194	-0.388619	0.795166
C137	C	1.498527	-0.055286	1.128499
C138	C	1.831861	0.278047	1.461833
C139	C	1.165229	-0.388630	0.856258
C140	C	1.498563	-0.055297	1.189591
C141	C	1.831896	0.278037	1.522925
C142	C	1.165297	-0.388628	1.149513
C143	C	1.498630	-0.055295	1.482846
C144	C	1.831963	0.278039	1.816179
C145	C	1.165333	-0.388676	1.074281
C146	C	1.498667	-0.055343	1.407614
C147	C	1.832000	0.277990	1.740947
H148	H	1.258944	-0.295220	1.067691
H149	H	1.592277	0.038113	1.401025
H150	H	1.925611	0.371446	1.734358
H151	H	1.071489	-0.482036	0.583730
H152	H	1.404822	-0.148702	0.917063
H153	H	1.738156	0.184631	1.250397
O154	O	1.266904	-0.287120	0.933793
O155	O	1.600237	0.046214	1.267126
O156	O	1.933571	0.379547	1.600460
C157	C	1.312620	-0.241464	0.824887
C158	C	1.645954	0.091869	1.158220
C159	C	1.979287	0.425203	1.491553
C160	C	1.255909	-0.298142	0.863812
C161	C	1.589242	0.035191	1.197145
C162	C	1.922576	0.368524	1.530479
H163	H	1.303763	-0.250368	0.768300
H164	H	1.637096	0.082965	1.101634
H165	H	1.970430	0.416299	1.434967
H166	H	1.298506	-0.176419	0.838785
H167	H	1.631839	0.156914	1.172118
H168	H	1.965173	0.490247	1.505451
H169	H	1.377626	-0.255686	0.838765
H170	H	1.710959	0.077648	1.172099
H171	H	2.044293	0.410981	1.505432
H172	H	1.190885	-0.283993	0.849954
H173	H	1.524218	0.049340	1.183287
H174	H	1.857551	0.382673	1.516621
H175	H	1.270093	-0.363170	0.849911
H176	H	1.603426	-0.029837	1.183244
H177	H	1.936760	0.303496	1.516577
H178	H	1.258772	-0.295145	0.711931
H179	H	1.592106	0.038188	1.045265
H180	H	1.925439	0.371522	1.378598
H181	H	1.071653	-0.482098	0.939490
H182	H	1.404987	-0.148765	1.272823
H183	H	1.738320	0.184568	1.606157
H184	H	1.071536	-0.482052	0.711965
H185	H	1.404869	-0.148719	1.045298
H186	H	1.738202	0.184615	1.378631
H187	H	1.258712	-0.295118	0.583688
H188	H	1.592045	0.038216	0.917021
H189	H	1.925379	0.371549	1.250354
H190	H	1.071717	-0.482135	1.067734
H191	H	1.405050	-0.148802	1.401067
H192	H	1.738383	0.184532	1.734400
