data_functionalizedCrystal
_audit_creation_method	'MofGen! by Chris Wilmer'
_symmetry_space_group_name_H-M	'P1'
_symmetry_Int_Tables_number	1
_symmetry_cell_setting	triclinic
loop_
_symmetry_equiv_pos_as_xyz
  x,y,z
_cell_length_a	16.120490
_cell_length_b	21.295418
_cell_length_c	21.295411
_cell_angle_alpha	89.982512
_cell_angle_beta	87.080431
_cell_angle_gamma	87.120708
loop_
_atom_site_label
_atom_site_type_symbol
_atom_site_fract_x
_atom_site_fract_y
_atom_site_fract_z
Zn1	Zn	1.274563	-0.299608	-0.404645
Zn2	Zn	1.274439	-0.404856	-0.299373
Zn3	Zn	1.135134	-0.294257	-0.294061
Zn4	Zn	1.135098	-0.399490	-0.399279
O5	O	1.204808	-0.349553	-0.349340
O6	O	1.391213	-0.318055	-0.395149
O7	O	1.255923	-0.390190	-0.210578
O8	O	1.153696	-0.206880	-0.308753
O9	O	1.391122	-0.395380	-0.317807
O10	O	1.256134	-0.210812	-0.389998
O11	O	1.153576	-0.308933	-0.206675
O12	O	1.018463	-0.303731	-0.303550
O13	O	1.153636	-0.386235	-0.488082
O14	O	1.018437	-0.381045	-0.380853
O15	O	1.256100	-0.312852	-0.492024
O16	O	1.255888	-0.492231	-0.312604
O17	O	1.153515	-0.488289	-0.386004
C18	C	0.988199	-0.341225	-0.341043
C19	C	0.895533	-0.337678	-0.337508
C20	C	0.684592	-0.367948	-0.367675
C21	C	0.725876	-0.331208	-0.331055
C22	C	0.820282	-0.334809	-0.334647
C23	C	0.590177	-0.364347	-0.364083
C24	C	1.204707	-0.513100	-0.349313
C25	C	1.204740	-0.583070	-0.349325
C26	C	1.258252	-1.084528	-0.391729
C27	C	1.258227	-1.018785	-0.391718
C28	C	1.204922	-0.983916	-0.349383
C29	C	1.151652	-1.014797	-0.307045
C30	C	1.151684	-1.080539	-0.307053
N31	N	1.131898	-0.877942	-0.341702
N32	N	1.131870	-0.815490	-0.341698
C33	C	1.204824	-0.785838	-0.349356
N34	N	1.277809	-0.820997	-0.357031
N35	N	1.277836	-0.883455	-0.357038
C36	C	1.204882	-0.912629	-0.349370
C37	C	1.258068	-0.683679	-0.391677
C38	C	1.258045	-0.617934	-0.391661
C39	C	1.151462	-0.613947	-0.306992
C40	C	1.151493	-0.679690	-0.307004
C41	C	1.204795	-0.714552	-0.349350
C42	C	1.422263	-0.357913	-0.357669
C43	C	1.514930	-0.361475	-0.361219
C44	C	1.204878	-0.349542	-0.513533
C45	C	1.204907	-0.349537	-0.583502
C46	C	1.204933	-0.185367	-0.349381
C47	C	1.204986	-0.115401	-0.349399
C48	C	1.258258	-0.311325	-0.618422
C49	C	1.258257	-0.311298	-0.684165
C50	C	1.204914	-0.349494	-0.714985
C51	C	1.151552	-0.387709	-0.680056
C52	C	1.151549	-0.387731	-0.614315
N53	N	1.198484	-0.404315	-0.817958
N54	N	1.198492	-0.404293	-0.880410
C55	C	1.204919	-0.349431	-0.913060
N56	N	1.211354	-0.294591	-0.880899
N57	N	1.211350	-0.294614	-0.818442
C58	C	1.204911	-0.349475	-0.786270
C59	C	1.258271	-0.311186	-1.019266
C60	C	1.258264	-0.311157	-1.085009
C61	C	1.151564	-0.387574	-1.080900
C62	C	1.151567	-0.387597	-1.015157
C63	C	1.204925	-0.349404	-0.984344
C64	C	1.204787	-0.349520	-0.185787
C65	C	1.204920	-0.349353	-0.115825
H66	H	0.690320	-0.297049	-0.297005
C67	C	0.818172	-0.408752	-0.408332
C68	C	0.732585	-0.414065	-0.413632
H69	H	0.847806	-0.437227	-0.436699
H70	H	0.832410	-0.367009	-0.418157
H71	H	0.832344	-0.418426	-0.366544
H72	H	0.718412	-0.404386	-0.455418
H73	H	0.718341	-0.455818	-0.403811
C74	C	1.298557	-0.599175	-0.499833
C75	C	1.316600	-0.583996	-0.438194
H76	H	1.334704	-0.578219	-0.528559
H77	H	1.306204	-0.643313	-0.505894
H78	H	1.242527	-0.586277	-0.506849
H79	H	1.372629	-0.596899	-0.431176
H80	H	1.308960	-0.539848	-0.432130
C81	C	1.370433	-0.306780	-0.949664
C82	C	1.316919	-0.269202	-0.985394
H83	H	1.406643	-0.280861	-0.928759
H84	H	1.338662	-0.329537	-0.919456
H85	H	1.402294	-0.335421	-0.976549
H86	H	1.285053	-0.240564	-0.958508
H87	H	1.348693	-0.246434	-1.015605
C88	C	1.269873	-0.227103	-0.544962
C89	C	1.316886	-0.269320	-0.584561
H90	H	1.306065	-0.201167	-0.524057
H91	H	1.233565	-0.201640	-0.569218
H92	H	1.238115	-0.249872	-0.514748
H93	H	1.348640	-0.246550	-0.614779
H94	H	1.353209	-0.294785	-0.560303
H95	H	1.108252	-0.986403	-0.272575
H96	H	1.301661	-1.112909	-0.426206
H97	H	1.301700	-0.280178	-0.712602
C98	C	1.363556	-1.029322	-0.475430
C99	C	1.316770	-0.984839	-0.438259
H100	H	1.399691	-1.008365	-0.504166
H101	H	1.395492	-1.056174	-0.449256
H102	H	1.327215	-1.053589	-0.498086
H103	H	1.353111	-0.960576	-0.415599
H104	H	1.284832	-0.957977	-0.464437
H105	H	1.108117	-0.418807	-0.705154
H106	H	1.108101	-0.418846	-0.585883
H107	H	1.108115	-0.704827	-0.272536
C108	C	1.046329	-1.069993	-0.223362
C109	C	1.093123	-1.114478	-0.260525
H110	H	1.010171	-1.090947	-0.194641
H111	H	1.082658	-1.045736	-0.200694
H112	H	1.014410	-1.043131	-0.249548
H113	H	1.125047	-1.141336	-0.234339
H114	H	1.056790	-1.138745	-0.283195
H115	H	1.301463	-0.712065	-0.426161
C116	C	1.104085	-0.511401	-0.269387
C117	C	1.092866	-0.575626	-0.260456
H118	H	1.067906	-0.487743	-0.240659
H119	H	1.160095	-0.502749	-0.262353
H120	H	1.091848	-0.500154	-0.311207
H121	H	1.105109	-0.586874	-0.218638
H122	H	1.036843	-0.584282	-0.267486
H123	H	1.301708	-0.280036	-1.113440
H124	H	1.108123	-0.418667	-1.105992
H125	H	1.108128	-0.418717	-0.986725
