data_functionalizedCrystal
_audit_creation_method	'MofGen! by Chris Wilmer'
_symmetry_space_group_name_H-M	'P1'
_symmetry_Int_Tables_number	1
_symmetry_cell_setting	triclinic
loop_
_symmetry_equiv_pos_as_xyz
  x,y,z
_cell_length_a	29.019771
_cell_length_b	29.019011
_cell_length_c	29.015668
_cell_angle_alpha	60.004890
_cell_angle_beta	60.009825
_cell_angle_gamma	59.993818
loop_
_atom_site_label
_atom_site_type_symbol
_atom_site_fract_x
_atom_site_fract_y
_atom_site_fract_z
O1	O	0.063866	-0.673289	0.563007
O2	O	0.563866	-0.173289	1.063007
O3	O	0.024059	-0.524205	0.453633
O4	O	0.524059	-0.024205	0.953633
O5	O	0.118464	-0.618532	0.453552
O6	O	0.618464	-0.118532	0.953552
O7	O	-0.030540	-0.578962	0.563088
O8	O	0.469460	-0.078962	1.063088
O9	O	0.149785	-0.587215	0.484789
O10	O	0.649785	-0.087215	0.984789
O11	O	0.055379	-0.492888	0.484869
O12	O	0.555379	0.007112	0.984869
O13	O	0.095186	-0.641972	0.594244
O14	O	0.595186	-0.141972	1.094244
Cu15	Cu	0.078143	-0.564571	0.542409
Cu16	Cu	0.578143	-0.064571	1.042409
Cu17	Cu	0.041102	-0.601606	0.505468
Cu18	Cu	0.541102	-0.101606	1.005468
O19	O	0.000781	-0.547645	0.594325
O20	O	0.500781	-0.047645	1.094325
N21	N	0.104196	-0.538525	0.568394
N22	N	0.604196	-0.038525	1.068394
N23	N	0.015054	-0.627656	0.479483
N24	N	0.515054	-0.127656	0.979483
C25	C	0.143783	-0.499167	0.850823
C26	C	0.643783	0.000833	1.350823
C27	C	0.386758	-0.499111	0.607645
C28	C	0.886758	0.000889	1.107645
C29	C	0.143618	-0.499136	0.607763
C30	C	0.643618	0.000864	1.107763
C31	C	0.143598	-0.256029	0.607770
C32	C	0.643598	0.243971	1.107770
C33	C	0.182748	-0.373362	0.646852
C34	C	0.682748	0.126638	1.146852
C35	C	0.182758	-0.460025	0.646847
C36	C	0.682758	0.039975	1.146847
C37	C	0.204440	-0.438361	0.668500
C38	C	0.704440	0.061639	1.168500
C39	C	0.298958	-0.422064	0.618723
C40	C	0.798958	0.077936	1.118723
C41	C	0.358043	-0.441753	0.599006
C42	C	0.858043	0.058247	1.099006
C43	C	0.358069	-0.537354	0.635461
C44	C	0.858069	-0.037354	1.135461
C45	C	0.298985	-0.517664	0.655180
C46	C	0.798985	-0.017664	1.155180
C47	C	0.196983	-0.343808	0.588767
C48	C	0.696983	0.156192	1.088767
C49	C	0.177262	-0.284720	0.569090
C50	C	0.677262	0.215280	1.069090
C51	C	0.129075	-0.284743	0.665586
C52	C	0.629075	0.215257	1.165586
C53	C	0.148797	-0.343831	0.685263
C54	C	0.648797	0.156169	1.185263
C55	C	0.124666	-0.445760	0.661149
C56	C	0.624666	0.054240	1.161149
C57	C	0.104961	-0.465454	0.641458
C58	C	0.604961	0.034546	1.141458
C59	C	0.201435	-0.513678	0.593176
C60	C	0.701435	-0.013678	1.093176
C61	C	0.221143	-0.493984	0.612860
C62	C	0.721143	0.006016	1.112860
C63	C	0.124738	-0.445777	0.763064
C64	C	0.624738	0.054223	1.263064
C65	C	0.105085	-0.465488	0.822151
C66	C	0.605085	0.034512	1.322151
C67	C	0.201594	-0.513722	0.822097
C68	C	0.701594	-0.013722	1.322097
C69	C	0.221247	-0.494012	0.763009
C70	C	0.721247	0.005988	1.263009
C71	C	0.182817	-0.460038	0.733494
C72	C	0.682817	0.039962	1.233494
C73	C	0.269432	-0.460018	0.646809
C74	C	0.769432	0.039982	1.146809
C75	C	0.121399	-0.520450	0.915812
C76	C	0.621399	-0.020450	1.415812
C77	C	0.451745	-0.520012	0.585655
C78	C	0.951745	-0.020012	1.085655
C79	C	0.121177	-0.520429	0.586502
C80	C	0.621177	-0.020429	1.086502
C81	C	0.121544	-0.191035	0.586883
C82	C	0.621544	0.308965	1.086883
C83	C	-0.110592	-0.666601	0.440035
C84	C	0.389408	-0.166601	0.940035
C85	C	-0.023978	-0.666709	0.440231
C86	C	0.476022	-0.166709	0.940231
C87	C	-0.045598	-0.688342	0.418486
C88	C	0.454402	-0.188342	0.918486
C89	C	-0.061967	-0.782825	0.468184
C90	C	0.438033	-0.282825	0.968184
C91	C	-0.042323	-0.841914	0.487907
C92	C	0.457677	-0.341914	0.987907
C93	C	0.053280	-0.842025	0.451623
C94	C	0.553280	-0.342025	0.951623
C95	C	0.033634	-0.782937	0.431899
C96	C	0.533634	-0.282937	0.931899
C97	C	-0.140218	-0.680832	0.498102
C98	C	0.359782	-0.180832	0.998102
C99	C	-0.199302	-0.661065	0.517690
C100	C	0.300698	-0.161065	1.017690
C101	C	-0.199129	-0.612843	0.421140
C102	C	0.300871	-0.112843	0.921140
C103	C	-0.140045	-0.632610	0.401552
C104	C	0.359955	-0.132610	0.901552
C105	C	-0.038209	-0.608622	0.425941
C106	C	0.461791	-0.108622	0.925941
C107	C	-0.018555	-0.588961	0.445716
C108	C	0.481445	-0.088961	0.945716
C109	C	0.029562	-0.685470	0.494059
C110	C	0.529562	-0.185470	0.994059
C111	C	0.009908	-0.705133	0.474291
C112	C	0.509908	-0.205133	0.974291
C113	C	-0.038037	-0.608631	0.323917
C114	C	0.461963	-0.108631	0.823917
C115	C	-0.018247	-0.588973	0.264830
C116	C	0.481753	-0.088973	0.764830
C117	C	0.029955	-0.685489	0.264893
C118	C	0.529955	-0.185489	0.764893
C119	C	0.010165	-0.705145	0.323981
C120	C	0.510165	-0.205145	0.823981
C121	C	-0.023833	-0.666715	0.353492
C122	C	0.476167	-0.166715	0.853492
C123	C	-0.023990	-0.753339	0.440182
C124	C	0.476010	-0.253339	0.940182
N125	N	0.504925	-0.538487	0.568205
N126	N	1.004925	-0.038487	1.068205
O127	O	0.685342	-0.543679	0.433426
O128	O	1.185342	-0.043679	0.933426
O129	O	0.685533	-0.653395	0.582361
O130	O	1.185533	-0.153395	1.082361
O131	O	0.685457	-0.653145	0.487904
O132	O	1.185457	-0.153145	0.987904
O133	O	0.685418	-0.543929	0.527882
O134	O	1.185418	-0.043929	1.027882
O135	O	0.591592	-0.621921	0.519268
O136	O	1.091592	-0.121921	1.019268
O137	O	0.591667	-0.622171	0.613725
O138	O	1.091667	-0.122171	1.113725
O139	O	0.591477	-0.512455	0.464790
O140	O	1.091477	-0.012455	0.964790
Cu141	Cu	0.583001	-0.564462	0.542121
Cu142	Cu	1.083001	-0.064462	1.042121
Cu143	Cu	0.694008	-0.601388	0.505029
Cu144	Cu	1.194008	-0.101388	1.005029
O145	O	0.591553	-0.512705	0.559246
O146	O	1.091553	-0.012705	1.059246
N147	N	0.772084	-0.627363	0.478939
N148	N	1.272084	-0.127363	0.978939
N149	N	0.104168	-0.137853	0.568408
N150	N	0.604168	0.362147	1.068408
O151	O	-0.030538	0.042663	0.563097
O152	O	0.469462	0.542663	1.063097
O153	O	0.118403	0.042683	0.453379
O154	O	0.618403	0.542683	0.953379
O155	O	0.023918	0.042657	0.453664
O156	O	0.523918	0.542657	0.953664
O157	O	0.063947	0.042689	0.562813
O158	O	0.563947	0.542689	1.062813
O159	O	0.055242	-0.051215	0.484950
O160	O	0.555242	0.448785	0.984950
O161	O	0.149727	-0.051189	0.484666
O162	O	0.649727	0.448811	0.984666
O163	O	0.000787	-0.051210	0.594384
O164	O	0.500787	0.448790	1.094384
Cu165	Cu	0.078117	-0.059771	0.542381
Cu166	Cu	0.578117	0.440229	1.042381
Cu167	Cu	0.041072	0.051244	0.505382
Cu168	Cu	0.541072	0.551244	1.005382
O169	O	0.095272	-0.051184	0.594099
O170	O	0.595272	0.448816	1.094099
N171	N	0.015015	0.129326	0.479356
N172	N	0.515015	0.629326	0.979356
N173	N	0.104469	-0.538576	0.968995
N174	N	0.604469	-0.038576	1.468995
O175	O	0.099171	-0.673268	1.149499
O176	O	0.599171	-0.173268	1.649499
O177	O	-0.010519	-0.524279	1.149527
O178	O	0.489481	-0.024279	1.649527
O179	O	-0.010265	-0.618748	1.149494
O180	O	0.489735	-0.118748	1.649494
O181	O	0.098916	-0.578799	1.149533
O182	O	0.598916	-0.078799	1.649533
O183	O	0.021008	-0.587443	1.055625
O184	O	0.521008	-0.087443	1.555625
O185	O	0.020753	-0.492974	1.055659
O186	O	0.520753	0.007026	1.555659
O187	O	0.130444	-0.641963	1.055630
O188	O	0.630444	-0.141963	1.555630
Cu189	Cu	0.078454	-0.564610	1.047074
Cu190	Cu	0.578454	-0.064610	1.547074
Cu191	Cu	0.041470	-0.601632	1.158084
Cu192	Cu	0.541470	-0.101632	1.658084
O193	O	0.130189	-0.547494	1.055664
O194	O	0.630189	-0.047494	1.555664
N195	N	0.015455	-0.627672	1.236163
N196	N	0.515455	-0.127672	1.736163
C197	C	0.035988	-0.489761	0.454182
C198	C	0.535988	0.010239	0.954182
C199	C	0.152897	-0.606574	0.454082
C200	C	0.652897	-0.106574	0.954082
C201	C	0.083257	-0.676417	0.593694
C202	C	0.583257	-0.176417	1.093694
C203	C	-0.033653	-0.559604	0.593794
C204	C	0.466347	-0.059604	1.093794
C205	C	0.638623	-0.652892	0.616806
C206	C	1.138623	-0.152892	1.116806
C207	C	0.638531	-0.652583	0.499833
C208	C	1.138531	-0.152583	0.999833
C209	C	0.638384	-0.512957	0.430345
C210	C	1.138384	-0.012957	0.930345
C211	C	0.638480	-0.513267	0.547317
C212	C	1.138480	-0.013267	1.047317
C213	C	0.152789	-0.004135	0.453875
C214	C	0.652789	0.495865	0.953875
C215	C	0.035820	-0.004282	0.454266
C216	C	0.535820	0.495718	0.954266
C217	C	-0.033639	-0.004275	0.593849
C218	C	0.466361	0.495725	1.093849
C219	C	0.083370	-0.004245	0.593498
C220	C	0.583370	0.495755	1.093498
C221	C	-0.009989	-0.489856	1.102597
C222	C	0.490011	0.010144	1.602597
C223	C	-0.009667	-0.606839	1.102536
C224	C	0.490333	-0.106839	1.602536
C225	C	0.129914	-0.676386	1.102561
C226	C	0.629914	-0.176386	1.602561
C227	C	0.129599	-0.559396	1.102601
C228	C	0.629599	-0.059396	1.602601
H229	H	0.093440	-0.418108	0.739036
H230	H	0.593440	0.081892	1.239036
H231	H	0.027485	-0.446933	0.419832
H232	H	0.527485	0.053067	0.919832
H233	H	0.638671	-0.687334	0.659583
H234	H	1.138671	-0.187334	1.159583
O235	O	0.203911	-0.616546	0.412973
O236	O	0.703911	-0.116546	0.912973
C237	C	0.203960	-0.567999	0.364348
C238	C	0.703960	-0.067999	0.864348
H239	H	0.158701	-0.541120	0.364965
H240	H	0.658701	-0.041120	0.864965
H241	H	0.229056	-0.581138	0.325105
H242	H	0.729056	-0.081138	0.825105
H243	H	0.224162	-0.542486	0.363653
H244	H	0.724162	-0.042486	0.863653
H245	H	0.638322	-0.478510	0.387573
H246	H	1.138322	0.021490	0.887573
H247	H	-0.043953	-0.615372	1.102487
H248	H	0.456047	-0.115372	1.602487
H249	H	0.057627	-0.716785	0.240872
H250	H	0.557627	-0.216785	0.740872
O251	O	0.171070	-0.727392	1.102527
O252	O	0.671070	-0.227392	1.602527
C253	C	0.219642	-0.727390	1.102553
C254	C	0.719642	-0.227390	1.602553
H255	H	0.218968	-0.682115	1.084795
H256	H	0.718968	-0.182115	1.584795
H257	H	0.258925	-0.752485	1.075295
H258	H	0.758925	-0.252485	1.575295
H259	H	0.220309	-0.747569	1.147588
H260	H	0.720309	-0.247569	1.647588
O261	O	0.109275	-0.870757	0.443480
O262	O	0.609275	-0.370757	0.943480
C263	C	0.139840	-0.856352	0.385163
C264	C	0.639840	-0.356352	0.885163
H265	H	0.110863	-0.840079	0.360677
H266	H	0.610863	-0.340079	0.860677
H267	H	0.176550	-0.895240	0.375652
H268	H	0.676550	-0.395240	0.875652
H269	H	0.156825	-0.822089	0.372003
H270	H	0.656825	-0.322089	0.872003
O271	O	0.093481	-0.727546	0.634607
O272	O	0.593481	-0.227546	1.134607
C273	C	0.148953	-0.762550	0.614132
C274	C	0.648953	-0.262550	1.114132
H275	H	0.163839	-0.747168	0.566057
H276	H	0.663839	-0.247168	1.066057
H277	H	0.149721	-0.807792	0.631372
H278	H	0.649721	-0.307792	1.131372
H279	H	0.178154	-0.760994	0.628411
H280	H	0.678154	-0.260994	1.128411
H281	H	0.638547	-0.686893	0.491276
H282	H	1.138547	-0.186893	0.991276
H283	H	0.195476	-0.003868	0.419344
H284	H	0.695476	0.496132	0.919344
H285	H	0.638471	-0.478960	0.555871
H286	H	1.138471	0.021040	1.055871
O287	O	0.025520	-0.004333	0.413431
O288	O	0.525520	0.495667	0.913431
C289	C	-0.029961	-0.004338	0.434001
C290	C	0.470039	0.495662	0.934001
H291	H	-0.044794	-0.022092	0.482077
H292	H	0.455206	0.477908	0.982077
H293	H	-0.030775	-0.031617	0.416842
H294	H	0.469225	0.468383	0.916842
H295	H	-0.059176	0.040689	0.419718
H296	H	0.440824	0.540689	0.919718
H297	H	-0.076451	-0.551170	0.628189
H298	H	0.423549	-0.051170	1.128189
H299	H	-0.076413	-0.004282	0.628294
H300	H	0.423587	0.495718	1.128294
O301	O	0.093696	-0.004271	0.634358
O302	O	0.593696	0.495729	1.134358
C303	C	0.149171	-0.004249	0.613782
C304	C	0.649171	0.495751	1.113782
H305	H	0.175857	-0.022013	0.577546
H306	H	0.675857	0.477987	1.077546
H307	H	0.168184	-0.031506	0.649120
H308	H	0.668184	0.468494	1.149120
H309	H	0.148331	0.040788	0.598042
H310	H	0.648331	0.540788	1.098042
O311	O	-0.051022	-0.438787	1.102631
O312	O	0.448978	0.061213	1.602631
C313	C	-0.030702	-0.403661	1.102633
C314	C	0.469298	0.096339	1.602633
H315	H	0.005532	-0.430805	1.120405
H316	H	0.505532	0.069195	1.620405
H317	H	-0.066170	-0.376621	1.129892
H318	H	0.433830	0.123379	1.629892
H319	H	-0.015038	-0.375156	1.057604
H320	H	0.484962	0.124844	1.557604
H321	H	0.163899	-0.550848	1.102605
H322	H	0.663899	-0.050848	1.602605
H323	H	0.057789	-0.453866	0.846219
H324	H	0.557789	0.046134	1.346219
H325	H	0.232890	-0.541375	0.846122
H326	H	0.732890	-0.041375	1.346122
H327	H	0.268542	-0.505632	0.738936
H328	H	0.768542	-0.005632	1.238936
H329	H	0.093408	-0.418110	0.688821
H330	H	0.593408	0.081890	1.188821
H331	H	0.232695	-0.541333	0.565509
H332	H	0.732695	-0.041333	1.065509
O333	O	0.048526	-0.451672	0.655447
O334	O	0.548526	0.048328	1.155447
C335	C	0.024028	-0.471887	0.714630
C336	C	0.524028	0.028113	1.214630
H337	H	0.057695	-0.508326	0.733652
H338	H	0.557695	-0.008326	1.233652
H339	H	-0.010796	-0.487236	0.725954
H340	H	0.489204	0.012764	1.225954
H341	H	0.005375	-0.436445	0.732143
H342	H	0.505375	0.063555	1.232143
O343	O	0.277592	-0.507896	0.598922
O344	O	0.777592	-0.007896	1.098922
C345	C	0.307247	-0.542071	0.564683
C346	C	0.807247	-0.042071	1.064683
H347	H	0.279081	-0.563573	0.572244
H348	H	0.779081	-0.063573	1.072244
H349	H	0.346710	-0.575485	0.575713
H350	H	0.846710	-0.075485	1.075713
H351	H	0.319931	-0.514791	0.518406
H352	H	0.819931	-0.014791	1.018406
O353	O	-0.071028	-0.571221	0.352496
O354	O	0.428972	-0.071221	0.852496
C355	C	-0.079331	-0.515738	0.313722
C356	C	0.420669	-0.015738	0.813722
H357	H	-0.043664	-0.515893	0.271642
H358	H	0.456336	-0.015893	0.771642
H359	H	-0.079651	-0.487698	0.330817
H360	H	0.420349	0.012302	0.830817
H361	H	-0.121392	-0.498758	0.307354
H362	H	0.378608	0.001242	0.807354
H363	H	0.274946	-0.548573	0.678050
H364	H	0.774946	-0.048573	1.178050
H365	H	0.382132	-0.584293	0.642268
H366	H	0.882132	-0.084293	1.142268
H367	H	0.382082	-0.410845	0.576135
H368	H	0.882082	0.089155	1.076135
H369	H	0.224626	-0.367851	0.557490
H370	H	0.724626	0.132149	1.057490
O371	O	0.270315	-0.366045	0.610493
O372	O	0.770315	0.133955	1.110493
C373	C	0.284706	-0.335557	0.552155
C374	C	0.784706	0.164443	1.052155
H375	H	0.327599	-0.361372	0.528876
H376	H	0.827599	0.138628	1.028876
H377	H	0.286723	-0.293902	0.544346
H378	H	0.786723	0.206098	1.044346
H379	H	0.251435	-0.326743	0.536068
H380	H	0.751435	0.173257	1.036068
O381	O	0.191062	-0.256069	0.512650
O382	O	0.691062	0.243931	1.012650
C383	C	0.170824	-0.270493	0.488126
C384	C	0.670824	0.229507	0.988126
H385	H	0.165057	-0.313400	0.516136
H386	H	0.665057	0.186600	1.016136
H387	H	0.202467	-0.272499	0.444655
H388	H	0.702467	0.227501	0.944655
H389	H	0.128586	-0.237242	0.483754
H390	H	0.628586	0.262758	0.983754
H391	H	0.101438	-0.260698	0.696864
H392	H	0.601438	0.239302	1.196864
O393	O	-0.079147	-0.870647	0.515204
O394	O	0.420853	-0.370647	1.015204
C395	C	-0.076890	-0.904795	0.570151
C396	C	0.423110	-0.404795	1.070151
H397	H	-0.034537	-0.913648	0.571472
H398	H	0.465463	-0.413648	1.071472
H399	H	-0.081858	-0.946346	0.582163
H400	H	0.418142	-0.446346	1.082163
H401	H	-0.112451	-0.882003	0.601248
H402	H	0.387549	-0.382003	1.101248
O403	O	-0.071209	-0.571271	0.392945
O404	O	0.428791	-0.071271	0.892945
C405	C	-0.120775	-0.537054	0.422713
C406	C	0.379225	-0.037054	0.922713
H407	H	-0.129068	-0.559853	0.469997
H408	H	0.370932	-0.059853	0.969997
H409	H	-0.157955	-0.528076	0.412052
H410	H	0.342045	-0.028076	0.912052
H411	H	-0.115383	-0.495565	0.410160
H412	H	0.384617	0.004435	0.910160
H413	H	-0.029822	-0.541673	0.240758
H414	H	0.470178	-0.041673	0.740758
O415	O	0.134938	-0.372456	0.741709
O416	O	0.634938	0.127544	1.241709
C417	C	0.100728	-0.333721	0.771391
C418	C	0.600728	0.166279	1.271391
H419	H	0.108246	-0.291594	0.743215
H420	H	0.608246	0.208406	1.243215
H421	H	0.111829	-0.350800	0.810812
H422	H	0.611829	0.149200	1.310812
H423	H	0.054449	-0.327446	0.784148
H424	H	0.554449	0.172554	1.284148
H425	H	-0.030145	-0.541661	0.434082
H426	H	0.469855	-0.041661	0.934082
O427	O	0.023996	-0.761590	0.352621
O428	O	0.523996	-0.261590	0.852621
C429	C	0.058254	-0.791290	0.313902
C430	C	0.558254	-0.291290	0.813902
H431	H	0.050793	-0.763111	0.271742
H432	H	0.550793	-0.263111	0.771742
H433	H	0.047150	-0.830692	0.330944
H434	H	0.547150	-0.330692	0.830944
H435	H	0.104519	-0.804085	0.307712
H436	H	0.604519	-0.304085	0.807712
H437	H	0.021495	-0.752433	0.485928
H438	H	0.521495	-0.252433	0.985928
O439	O	0.062538	-0.722852	0.527074
O440	O	0.562538	-0.222852	1.027074
C441	C	0.112118	-0.757052	0.497299
C442	C	0.612118	-0.257052	0.997299
H443	H	0.104254	-0.757622	0.462853
H444	H	0.604254	-0.257622	0.962853
H445	H	0.124517	-0.801860	0.527649
H446	H	0.624517	-0.301860	1.027649
H447	H	0.147672	-0.739333	0.477319
H448	H	0.647672	-0.239333	0.977319
O449	O	0.070454	-0.754206	0.404666
O450	O	0.570454	-0.254206	0.904666
C451	C	0.040758	-0.695706	0.389043
C452	C	0.540758	-0.195706	0.889043
H453	H	-0.000708	-0.687591	0.386417
H454	H	0.499292	-0.187591	0.886417
H455	H	0.067343	-0.673291	0.346159
H456	H	0.567343	-0.173291	0.846159
H457	H	0.031625	-0.678931	0.421919
H458	H	0.531625	-0.178931	0.921919
O459	O	-0.117955	-0.754163	0.476237
O460	O	0.382045	-0.254163	0.976237
C461	C	-0.147260	-0.792863	0.505187
C462	C	0.352740	-0.292863	1.005187
H463	H	-0.116937	-0.835008	0.498420
H464	H	0.383063	-0.335008	0.998420
H465	H	-0.182828	-0.775766	0.488353
H466	H	0.317172	-0.275766	0.988353
H467	H	-0.165712	-0.799109	0.552194
H468	H	0.334288	-0.299109	1.052194
H469	H	-0.116238	-0.708516	0.529438
H470	H	0.383762	-0.208516	1.029438
H471	H	-0.223425	-0.672650	0.564976
H472	H	0.276575	-0.172650	1.064976
H473	H	-0.223112	-0.585171	0.389803
H474	H	0.276888	-0.085171	0.889803
H475	H	-0.115923	-0.621016	0.354266
H476	H	0.384077	-0.121016	0.854266
