data_functionalizedCrystal
_audit_creation_method	'MofGen! by Chris Wilmer'
_symmetry_space_group_name_H-M	'P1'
_symmetry_Int_Tables_number	1
_symmetry_cell_setting	triclinic
loop_
_symmetry_equiv_pos_as_xyz
  x,y,z
_cell_length_a	18.215407
_cell_length_b	12.759400
_cell_length_c	18.215399
_cell_angle_alpha	90.024546
_cell_angle_beta	90.019833
_cell_angle_gamma	90.015132
loop_
_atom_site_label
_atom_site_type_symbol
_atom_site_fract_x
_atom_site_fract_y
_atom_site_fract_z
Zn1	Zn	1.125124	-0.418265	0.416133
Zn2	Zn	1.625124	0.081735	0.916133
Zn3	Zn	1.125054	-0.593962	0.293074
Zn4	Zn	1.625054	-0.093962	0.793074
Zn5	Zn	1.002057	-0.418299	0.293081
Zn6	Zn	1.502057	0.081701	0.793081
Zn7	Zn	1.002044	-0.593903	0.416099
Zn8	Zn	1.502044	-0.093903	0.916099
O9	O	1.063570	-0.506107	0.354597
O10	O	1.563570	-0.006107	0.854597
O11	O	1.228099	-0.441581	0.399821
O12	O	1.728099	0.058419	0.899821
O13	O	1.108714	-0.570699	0.190091
O14	O	1.608714	-0.070699	0.690091
O15	O	1.018416	-0.271273	0.309421
O16	O	1.518416	0.228727	0.809421
O17	O	1.228048	-0.570665	0.309410
O18	O	1.728048	-0.070665	0.809410
O19	O	1.108833	-0.271248	0.399827
O20	O	1.608833	0.228752	0.899827
O21	O	1.018349	-0.441640	0.190096
O22	O	1.518349	0.058360	0.690096
O23	O	0.899071	-0.441583	0.309388
O24	O	1.399071	0.058417	0.809388
O25	O	1.018395	-0.570566	0.519088
O26	O	1.518395	-0.070566	1.019088
O27	O	0.899062	-0.570599	0.399769
O28	O	1.399062	-0.070599	0.899769
O29	O	1.108821	-0.441525	0.519113
O30	O	1.608821	0.058475	1.019113
O31	O	1.108703	-0.740975	0.309377
O32	O	1.608703	-0.240975	0.809377
O33	O	1.018328	-0.740932	0.399763
O34	O	1.518328	-0.240932	0.899763
C35	C	0.872364	-0.506089	0.354576
C36	C	1.372364	-0.006089	0.854576
C37	C	0.790565	-0.506107	0.354584
C38	C	1.290565	-0.006107	0.854584
C39	C	0.602385	-0.573391	0.401587
C40	C	1.102385	-0.073391	0.901587
C41	C	0.525527	-0.573394	0.401596
C42	C	1.025527	-0.073394	0.901596
C43	C	0.525506	-0.438842	0.307623
C44	C	1.025506	0.061158	0.807623
C45	C	0.602364	-0.438835	0.307618
C46	C	1.102364	0.061165	0.807618
C47	C	0.640801	-0.506115	0.354599
C48	C	1.140801	-0.006115	0.854599
C49	C	0.487085	-0.506126	0.354613
C50	C	0.987085	-0.006126	0.854613
C51	C	0.403752	-0.506129	0.354623
C52	C	0.903752	-0.006129	0.854623
C53	C	0.724140	-0.506111	0.354590
C54	C	1.224140	-0.006111	0.854590
C55	C	1.063526	-0.779075	0.354582
C56	C	1.563526	-0.279075	0.854582
C57	C	1.063575	-0.895851	0.354600
C58	C	1.563575	-0.395851	0.854600
C59	C	1.110685	-0.950701	0.307588
C60	C	1.610685	-0.450701	0.807588
C61	C	1.110731	-1.060425	0.307610
C62	C	1.610731	-0.560425	0.807610
C63	C	1.016549	-1.060440	0.401659
C64	C	1.516549	-0.560440	0.901659
C65	C	1.016508	-0.950718	0.401639
C66	C	1.516508	-0.450718	0.901639
C67	C	1.157753	-0.895834	0.260548
C68	C	1.657753	-0.395834	0.760548
C69	C	1.204866	-0.950683	0.213532
C70	C	1.704866	-0.450683	0.713532
C71	C	1.204911	-1.060407	0.213554
C72	C	1.704911	-0.560407	0.713554
C73	C	1.157843	-1.115282	0.260593
C74	C	1.657843	-0.615282	0.760593
C75	C	1.255523	-0.506126	0.354618
C76	C	1.755523	-0.006126	0.854618
C77	C	1.337322	-0.506134	0.354628
C78	C	1.837322	-0.006134	0.854628
C79	C	1.063615	-0.506035	0.546550
C80	C	1.563615	-0.006035	1.046550
C81	C	1.063634	-0.506004	0.628349
C82	C	1.563634	-0.006004	1.128349
C83	C	1.063634	-0.232074	0.354628
C84	C	1.563634	0.267926	0.854628
C85	C	1.063661	-0.115297	0.354642
C86	C	1.563661	0.384703	0.854642
C87	C	1.063568	-0.506103	0.163391
C88	C	1.563568	-0.006103	0.663391
C89	C	1.063691	-0.505838	0.081592
C90	C	1.563691	-0.005838	0.581592
C91	C	1.110736	-0.438749	0.816557
C92	C	1.610736	0.061251	1.316557
C93	C	1.110744	-0.438719	0.893416
C94	C	1.610744	0.061281	1.393416
C95	C	1.016584	-0.573096	0.893379
C96	C	1.516584	-0.073096	1.393379
C97	C	1.016572	-0.573120	0.816521
C98	C	1.516572	-0.073120	1.316521
C99	C	1.063652	-0.505949	0.778112
C100	C	1.563652	-0.005949	1.278112
C101	C	1.063673	-0.505894	0.931829
C102	C	1.563673	-0.005894	1.431829
C103	C	1.063682	-0.505861	1.015162
C104	C	1.563682	-0.005861	1.515162
C105	C	1.063642	-0.505980	0.694773
C106	C	1.563642	-0.005980	1.194773
H107	H	0.633643	-0.384044	0.269355
H108	H	1.133643	0.115956	0.769355
O109	O	0.970895	-0.638495	0.930610
O110	O	1.470895	-0.138495	1.430610
C111	C	0.986966	-0.743215	0.911830
C112	C	1.486966	-0.243215	1.411830
H113	H	1.015246	-0.745410	0.856031
H114	H	1.515246	-0.245410	1.356031
H115	H	0.933844	-0.790325	0.909185
H116	H	1.433844	-0.290325	1.409185
H117	H	1.024804	-0.778588	0.955087
H118	H	1.524804	-0.278588	1.455087
O119	O	0.639838	-0.638702	0.447158
O120	O	1.139838	-0.138702	0.947158
C121	C	0.715913	-0.624254	0.437093
C122	C	1.215913	-0.124254	0.937093
H123	H	0.726393	-0.589749	0.380338
H124	H	1.226393	-0.089749	0.880338
H125	H	0.745113	-0.702956	0.441995
H126	H	1.245113	-0.202956	0.941995
H127	H	0.737748	-0.568378	0.480808
H128	H	1.237748	-0.068378	0.980808
H129	H	1.157889	-1.204627	0.260614
H130	H	1.657889	-0.704627	0.760614
O131	O	1.156383	-0.373342	0.779280
O132	O	1.656383	0.126658	1.279280
C133	C	1.140332	-0.268628	0.798090
C134	C	1.640332	0.231372	1.298090
H135	H	1.081543	-0.263320	0.819205
H136	H	1.581543	0.236680	1.319205
H137	H	1.146673	-0.216735	0.747556
H138	H	1.646673	0.283265	1.247556
H139	H	1.179797	-0.241152	0.842716
H140	H	1.679797	0.258848	1.342716
O141	O	1.250518	-0.897221	0.167866
O142	O	1.750518	-0.397221	0.667866
C143	C	1.240391	-0.788615	0.177938
C144	C	1.740391	-0.288615	0.677938
H145	H	1.183577	-0.773672	0.201986
H146	H	1.683577	-0.273672	0.701986
H147	H	1.245397	-0.746967	0.122809
H148	H	1.745397	-0.246967	0.622809
H149	H	1.284009	-0.757385	0.217161
H150	H	1.784009	-0.257385	0.717161
H151	H	1.243279	-1.105063	0.175277
H152	H	1.743279	-0.605063	0.675277
H153	H	1.149083	-0.383996	0.924714
H154	H	1.649083	0.116004	1.424714
H155	H	0.978226	-0.627841	0.785219
H156	H	1.478226	-0.127841	1.285219
H157	H	0.978227	-1.105127	0.439955
H158	H	1.478227	-0.605127	0.939955
O159	O	0.488324	-0.638848	0.447262
O160	O	0.988324	-0.138848	0.947262
C161	C	0.538734	-0.698204	0.488738
C162	C	1.038734	-0.198204	0.988738
H163	H	0.593506	-0.701783	0.458584
H164	H	1.093506	-0.201783	0.958584
H165	H	0.516519	-0.780998	0.496492
H166	H	1.016519	-0.280998	0.996492
H167	H	0.546939	-0.659832	0.544676
H168	H	1.046939	-0.159832	1.044676
H169	H	1.157719	-0.806491	0.260522
H170	H	1.657719	-0.306491	0.760522
H171	H	0.494201	-0.384067	0.269372
H172	H	0.994201	0.115933	0.769372
H173	H	0.978147	-0.906059	0.439921
H174	H	1.478147	-0.406059	0.939921
