data_functionalizedCrystal
_audit_creation_method	'MofGen! by Chris Wilmer'
_symmetry_space_group_name_H-M	'P1'
_symmetry_Int_Tables_number	1
_symmetry_cell_setting	triclinic
loop_
_symmetry_equiv_pos_as_xyz
  x,y,z
_cell_length_a	12.837943
_cell_length_b	15.995350
_cell_length_c	11.295483
_cell_angle_alpha	94.097343
_cell_angle_beta	85.461227
_cell_angle_gamma	89.160657
loop_
_atom_site_label
_atom_site_type_symbol
_atom_site_fract_x
_atom_site_fract_y
_atom_site_fract_z
O1	O	1.382434	0.212589	-0.098992
O2	O	1.080629	0.201836	-0.099000
O3	O	1.239781	0.085983	-0.098995
O4	O	1.223282	0.328442	-0.098997
O5	O	1.225803	0.096142	0.099056
O6	O	1.066650	0.211995	0.099051
O7	O	1.368455	0.222747	0.099058
Cu8	Cu	1.216276	0.218299	0.117138
Cu9	Cu	1.232808	0.206285	-0.117080
O10	O	1.209303	0.338600	0.099053
C11	C	1.035019	0.203283	0.000024
C12	C	0.919942	0.192449	0.000021
C13	C	0.678983	0.322688	0.000037
C14	C	0.570857	0.312513	0.000035
C15	C	0.595562	0.161925	0.000024
C16	C	0.703688	0.172100	0.000026
C17	C	0.745394	0.252484	0.000031
C18	C	0.853523	0.262658	0.000024
C19	C	0.878225	0.112072	0.000021
C20	C	0.770100	0.101896	0.000019
C21	C	1.232110	0.059813	0.000028
C22	C	1.230066	-0.033301	0.000021
C23	C	1.222721	-0.371634	0.000025
C24	C	1.109407	-0.333266	-0.000422
C25	C	1.111421	-0.236390	0.000025
C26	C	1.226364	-0.203783	0.000023
C27	C	1.274288	-0.234599	0.113118
C28	C	1.271434	-0.331457	0.113213
C29	C	1.289672	-0.343180	-0.112007
C30	C	1.289750	-0.246314	-0.113502
C31	C	1.228429	-0.108920	0.000025
C32	C	1.220659	-0.466496	0.000031
C33	C	1.414065	0.221301	0.000031
C34	C	1.529143	0.232134	0.000027
C35	C	1.216974	0.364770	0.000027
C36	C	1.219019	0.457884	0.000026
N37	N	1.204657	0.226748	0.281874
N38	N	1.244436	0.197830	-0.281816
C39	C	1.328081	0.136958	0.531167
C40	C	1.319308	0.143350	0.655831
C41	C	1.178331	0.245919	0.655866
C42	C	1.187105	0.239527	0.531203
C43	C	1.261983	0.185046	0.468858
C44	C	1.270762	0.178659	0.344192
C45	C	1.129781	0.281223	0.344230
C46	C	1.121007	0.287615	0.468893
H47	H	0.712940	0.388139	0.000039
H48	H	0.561579	0.096485	0.000118
C49	C	1.057082	0.334132	0.275687
H50	H	1.073029	0.322524	0.192512
H51	H	1.066912	0.391961	0.296128
H52	H	0.986453	0.320541	0.296123
C53	C	0.899404	0.351073	0.000029
H54	H	0.973313	0.347081	0.000018
H55	H	0.871735	0.383882	0.069096
H56	H	0.881481	0.376801	-0.069041
C57	C	0.497809	0.389736	0.000032
H58	H	0.538138	0.439063	0.000025
H59	H	0.450237	0.392440	0.069092
H60	H	0.459995	0.385354	-0.069045
C61	C	1.387961	-0.206120	0.118812
H62	H	1.407248	-0.175105	0.052109
H63	H	1.432983	-0.253874	0.117764
H64	H	1.393775	-0.171793	0.190072
H65	H	1.373295	-0.368312	-0.112769
H66	H	0.736126	0.036451	0.000029
H67	H	1.373130	0.104191	0.706560
C68	C	1.213812	-0.194622	0.226822
H69	H	1.243404	-0.213656	0.294788
H70	H	1.142649	-0.210213	0.227838
H71	H	1.218086	-0.135330	0.227993
H72	H	1.060039	0.331970	0.519669
C73	C	1.410445	0.077036	0.462584
H74	H	1.448553	0.049310	0.517549
H75	H	1.457013	0.108126	0.413941
H76	H	1.376574	0.036692	0.413964
C77	C	0.951280	0.034844	0.000013
H78	H	1.021650	0.052415	0.000019
H79	H	0.943505	-0.001298	-0.069054
H80	H	0.933765	0.005781	0.069084
H81	H	1.073197	-0.215632	-0.081047
H82	H	1.224700	-0.348675	0.197755
H83	H	1.069828	-0.359572	-0.081525
C84	C	1.040776	-0.359009	0.108516
H85	H	0.972448	-0.335573	0.107556
H86	H	1.070375	-0.338961	0.179348
H87	H	1.037151	-0.418385	0.105836
C88	C	1.043927	-0.197882	0.109737
H89	H	1.015177	-0.241454	0.154213
H90	H	0.988977	-0.164730	0.084525
H91	H	1.086001	-0.163716	0.158178
H92	H	1.117360	0.290270	0.706644
H93	H	1.354288	-0.356802	0.118343
H94	H	1.258664	-0.371073	-0.197727
H95	H	1.374054	-0.224614	-0.120332
C96	C	1.242605	-0.219623	-0.226536
H97	H	1.281287	-0.245555	-0.294907
H98	H	1.245542	-0.160434	-0.228613
H99	H	1.171901	-0.236423	-0.225830
C100	C	1.353120	0.118730	0.275614
H101	H	1.391220	0.091000	0.330582
H102	H	1.399696	0.149812	0.226971
H103	H	1.319243	0.078388	0.226994
