data_functionalizedCrystal
_audit_creation_method	'MofGen! by Chris Wilmer'
_symmetry_space_group_name_H-M	'P1'
_symmetry_Int_Tables_number	1
_symmetry_cell_setting	triclinic
loop_
_symmetry_equiv_pos_as_xyz
  x,y,z
_cell_length_a	12.837943
_cell_length_b	11.295483
_cell_length_c	12.837942
_cell_angle_alpha	94.531847
_cell_angle_beta	94.828940
_cell_angle_gamma	85.455301
loop_
_atom_site_label
_atom_site_type_symbol
_atom_site_fract_x
_atom_site_fract_y
_atom_site_fract_z
O1	O	1.395962	0.099003	0.278480
O2	O	1.895962	0.599003	0.778480
O3	O	1.092828	0.099011	0.265037
O4	O	1.592828	0.599011	0.765037
O5	O	1.237674	0.099000	0.120192
O6	O	1.737674	0.599000	0.620192
O7	O	1.251116	0.099014	0.423326
O8	O	1.751116	0.599014	0.923326
O9	O	1.250410	-0.099052	0.107503
O10	O	1.750410	0.400948	0.607503
O11	O	1.105564	-0.099041	0.252348
O12	O	1.605564	0.400959	0.752348
O13	O	1.408698	-0.099048	0.265791
O14	O	1.908698	0.400952	0.765791
Cu15	Cu	1.258294	-0.117128	0.257911
Cu16	Cu	1.758294	0.382872	0.757911
Cu17	Cu	1.243232	0.117091	0.272918
Cu18	Cu	1.743232	0.617091	0.772918
O19	O	1.263852	-0.099038	0.410637
O20	O	1.763852	0.400962	0.910637
C21	C	1.060127	-0.000014	0.254152
C22	C	1.560127	0.499986	0.754152
C23	C	0.943712	-0.000012	0.240607
C24	C	1.443712	0.499988	0.740607
C25	C	1.239500	-0.000025	0.074778
C26	C	1.739500	0.499975	0.574778
C27	C	1.225956	-0.000023	-0.041637
C28	C	1.725956	0.499977	0.458363
C29	C	0.718838	-0.000021	0.403436
C30	C	1.218838	0.499979	0.903436
C31	C	0.609456	-0.000020	0.390715
C32	C	1.109456	0.499980	0.890715
C33	C	0.615563	-0.000016	0.202444
C34	C	1.115563	0.499984	0.702444
C35	C	0.724945	-0.000017	0.215165
C36	C	1.224945	0.499983	0.715165
C37	C	0.776579	-0.000018	0.315665
C38	C	1.276579	0.499982	0.815665
C39	C	0.885963	-0.000011	0.328385
C40	C	1.385963	0.499989	0.828385
C41	C	0.892068	-0.000016	0.140115
C42	C	1.392068	0.499984	0.640115
C43	C	0.782686	-0.000015	0.127394
C44	C	1.282686	0.499985	0.627394
C45	C	1.441399	-0.000021	0.276677
C46	C	1.941399	0.499979	0.776677
C47	C	1.557814	-0.000015	0.290222
C48	C	2.057814	0.499985	0.790222
N49	N	1.232639	0.281828	0.283465
N50	N	1.732639	0.781828	0.783465
N51	N	1.268894	-0.281865	0.247357
N52	N	1.768894	0.218135	0.747357
C53	C	1.345208	0.531109	0.171437
C54	C	1.845208	1.031109	0.671437
C55	C	1.337195	0.655773	0.179400
C56	C	1.837195	1.155773	0.679400
C57	C	1.208605	0.655823	0.307358
C58	C	1.708605	1.155823	0.807358
C59	C	1.216619	0.531159	0.299395
C60	C	1.716619	1.031159	0.799395
C61	C	1.284921	0.468806	0.231431
C62	C	1.784921	0.968806	0.731431
C63	C	1.292928	0.344139	0.223464
C64	C	1.792928	0.844139	0.723464
C65	C	1.164345	0.344191	0.351427
C66	C	1.664345	0.844191	0.851427
C67	C	1.156332	0.468856	0.359389
C68	C	1.656332	0.968856	0.859389
C69	C	1.388784	-0.000002	-0.266510
C70	C	1.888784	0.499998	0.233490
C71	C	1.376062	0.000000	-0.375892
C72	C	1.876062	0.500000	0.124108
C73	C	1.187792	-0.000008	-0.369785
C74	C	1.687792	0.499992	0.130215
C75	C	1.200513	-0.000010	-0.260403
C76	C	1.700513	0.499990	0.239597
C77	C	1.301013	-0.000009	-0.208769
C78	C	1.801013	0.499991	0.291231
C79	C	1.313734	-0.000020	-0.099385
C80	C	1.813734	0.499980	0.400615
C81	C	1.125463	-0.000019	-0.093280
C82	C	1.625463	0.499981	0.406720
C83	C	1.112742	-0.000017	-0.202662
C84	C	1.612742	0.499983	0.297338
C85	C	1.262025	-0.000010	0.456051
C86	C	1.762025	0.499990	0.956051
C87	C	1.275570	-0.000004	0.572466
C88	C	1.775570	0.499996	1.072466
H89	H	0.928001	-0.000014	0.410217
H90	H	1.428001	0.499986	0.910217
H91	H	0.760879	-0.000020	0.485267
H92	H	1.260879	0.499980	0.985267
H93	H	1.447535	0.000010	-0.422900
H94	H	1.947535	0.500010	0.077100
H95	H	1.348540	0.293373	0.168121
H96	H	1.848540	0.793373	0.668121
Br97	Br	0.712603	-0.000020	-0.008992
Br98	Br	1.212603	0.499980	0.491008
H99	H	1.100724	0.519637	0.414727
H100	H	1.600724	1.019637	0.914727
H101	H	1.386287	0.706497	0.130548
H102	H	1.886287	1.206497	0.630548
Br103	Br	0.970435	0.000013	0.020990
Br104	Br	1.470435	0.500013	0.520990
Br105	Br	1.437886	0.446485	0.079188
Br106	Br	1.937886	0.946485	0.579188
H107	H	1.470615	-0.000013	-0.224469
H108	H	1.970615	0.499987	0.275531
H109	H	1.153003	0.706606	0.362700
H110	H	1.653003	1.206606	0.862700
H111	H	1.115252	0.293450	0.400275
H112	H	1.615252	0.793450	0.900275
H113	H	1.395566	-0.000023	-0.057347
H114	H	1.895566	0.499977	0.442653
H115	H	1.105969	0.000004	-0.411844
H116	H	1.605969	0.500004	0.088156
H117	H	0.562447	-0.000025	0.462188
H118	H	1.062447	0.499975	0.962188
Br119	Br	0.545471	-0.000036	0.066061
Br120	Br	1.045471	0.499964	0.566061
Br121	Br	0.976356	-0.000003	-0.272745
Br122	Br	1.476356	0.499997	0.227255
H123	H	1.053994	-0.000034	-0.046257
H124	H	1.553994	0.499966	0.453743
