data_functionalizedCrystal
_audit_creation_method	'MofGen! by Chris Wilmer'
_symmetry_space_group_name_H-M	'P1'
_symmetry_Int_Tables_number	1
_symmetry_cell_setting	triclinic
loop_
_symmetry_equiv_pos_as_xyz
  x,y,z
_cell_length_a	27.732048
_cell_length_b	19.188930
_cell_length_c	18.266242
_cell_angle_alpha	89.977082
_cell_angle_beta	89.998607
_cell_angle_gamma	97.106281
loop_
_atom_site_label
_atom_site_type_symbol
_atom_site_fract_x
_atom_site_fract_y
_atom_site_fract_z
O1	O	-0.060348	0.925764	-0.061104
O2	O	0.272985	1.259098	0.272230
O3	O	0.606319	1.592431	0.605563
O4	O	-0.068472	0.722401	-0.061052
O5	O	0.264862	1.055735	0.272281
O6	O	0.598195	1.389068	0.605615
O7	O	0.005968	0.830399	-0.061089
O8	O	0.339301	1.163732	0.272244
O9	O	0.672634	1.497066	0.605578
O10	O	-0.134787	0.817767	-0.061066
O11	O	0.198546	1.151100	0.272267
O12	O	0.531879	1.484433	0.605600
O13	O	0.005971	0.830381	0.060673
O14	O	0.339305	1.163714	0.394006
O15	O	0.672638	1.497047	0.727340
O16	O	-0.068468	0.722383	0.060710
O17	O	0.264865	1.055716	0.394043
O18	O	0.598199	1.389050	0.727377
O19	O	-0.060344	0.925746	0.060658
O20	O	0.272989	1.259080	0.393992
O21	O	0.606323	1.592413	0.727325
Zn22	Zn	-0.064405	0.824062	0.080017
Zn23	Zn	0.268928	1.157395	0.413350
Zn24	Zn	0.602261	1.490728	0.746683
Zn25	Zn	-0.064410	0.824086	-0.080410
Zn26	Zn	0.268923	1.157419	0.252923
Zn27	Zn	0.602256	1.490752	0.586257
O28	O	-0.134783	0.817749	0.060695
O29	O	0.198550	1.151082	0.394029
O30	O	0.531883	1.484415	0.727362
C31	C	-0.068207	0.696383	-0.000164
C32	C	0.265127	1.029716	0.333169
C33	C	0.598460	1.363050	0.666502
C34	C	-0.067417	0.618883	-0.000145
C35	C	0.265916	0.952217	0.333188
C36	C	0.599250	1.285550	0.666521
C37	C	-0.111096	0.573681	-0.000150
C38	C	0.222238	0.907014	0.333183
C39	C	0.555571	1.240348	0.666517
C40	C	-0.110354	0.500862	-0.000158
C41	C	0.222980	0.834195	0.333175
C42	C	0.556313	1.167528	0.666509
C43	C	-0.065931	0.473249	-0.000176
C44	C	0.267403	0.806582	0.333157
C45	C	0.600736	1.139915	0.666490
C46	C	-0.022246	0.518461	-0.000168
C47	C	0.311087	0.851794	0.333166
C48	C	0.644420	1.185128	0.666499
C49	C	-0.022990	0.591278	-0.000152
C50	C	0.310344	0.924612	0.333181
C51	C	0.643677	1.257945	0.666514
N52	N	-0.031976	0.365491	-0.041652
N53	N	0.301357	0.698824	0.291681
N54	N	0.634691	1.032158	0.625014
N55	N	-0.031273	0.296317	-0.041669
N56	N	0.302060	0.629650	0.291665
N57	N	0.635393	0.962984	0.624998
C58	C	-0.063689	0.253854	-0.000222
C59	C	0.269644	0.587188	0.333112
C60	C	0.602978	0.920521	0.666445
N61	N	-0.096842	0.283177	0.041233
N62	N	0.236492	0.616511	0.374567
N63	N	0.569825	0.949844	0.707900
N64	N	-0.097546	0.352357	0.041246
N65	N	0.235787	0.685691	0.374580
N66	N	0.569121	1.019024	0.707913
C67	C	-0.065120	0.394291	-0.000193
C68	C	0.268213	0.727625	0.333141
C69	C	0.601547	1.060958	0.666474
C70	C	-0.106566	0.129692	-0.000234
C71	C	0.226767	0.463026	0.333099
C72	C	0.560101	0.796359	0.666433
C73	C	-0.105822	0.056872	-0.000237
C74	C	0.227511	0.390206	0.333096
C75	C	0.560844	0.723539	0.666429
C76	C	-0.017714	0.074473	-0.000255
C77	C	0.315620	0.407806	0.333079
C78	C	0.648953	0.741140	0.666412
C79	C	-0.018459	0.147292	-0.000244
C80	C	0.314875	0.480625	0.333090
C81	C	0.648208	0.813958	0.666423
C82	C	-0.062886	0.174897	-0.000237
C83	C	0.270447	0.508230	0.333097
C84	C	0.603780	0.841563	0.666430
C85	C	-0.152793	0.818023	-0.000183
C86	C	0.180540	1.151356	0.333150
C87	C	0.513874	1.484690	0.666484
C88	C	-0.206450	0.818821	-0.000176
C89	C	0.126883	1.152155	0.333157
C90	C	0.460216	1.485488	0.666491
C91	C	-0.545086	0.760029	-0.000196
C92	C	-0.211752	1.093362	0.333137
C93	C	0.121581	1.426695	0.666470
C94	C	-0.746754	0.762991	-0.000206
C95	C	-0.413421	1.096324	0.333127
C96	C	-0.080088	1.429658	0.666461
O97	O	-0.777846	0.709229	-0.000224
O98	O	-0.444512	1.042562	0.333109
O99	O	-0.111179	1.375896	0.666442
N100	N	-0.766074	0.827029	-0.000221
N101	N	-0.432741	1.160362	0.333112
N102	N	-0.099407	1.493696	0.666445
C103	C	-0.734973	0.890331	-0.000239
C104	C	-0.401639	1.223664	0.333094
C105	C	-0.068306	1.556998	0.666428
O106	O	-0.756033	0.944867	-0.000260
O107	O	-0.422699	1.278201	0.333074
O108	O	-0.089366	1.611534	0.666407
C109	C	-0.533305	0.887368	-0.000235
C110	C	-0.199972	1.220701	0.333099
C111	C	0.133362	1.554035	0.666432
C112	C	-0.513989	0.823326	-0.000212
C113	C	-0.180655	1.156659	0.333121
C114	C	0.152678	1.489992	0.666455
C115	C	-0.525769	0.695991	-0.000175
C116	C	-0.192435	1.029325	0.333159
C117	C	0.140898	1.362658	0.666492
C118	C	-0.475354	0.695252	-0.000168
C119	C	-0.142021	1.028585	0.333165
C120	C	0.191312	1.361918	0.666498
C121	C	-0.444257	0.758549	-0.000184
C122	C	-0.110924	1.091882	0.333150
C123	C	0.222409	1.425215	0.666483
C124	C	-0.463574	0.822586	-0.000206
C125	C	-0.130241	1.155919	0.333128
C126	C	0.203092	1.489252	0.666461
C127	C	-0.502205	0.950669	-0.000258
C128	C	-0.168872	1.284002	0.333076
C129	C	0.164462	1.617336	0.666409
C130	C	-0.451785	0.949923	-0.000258
C131	C	-0.118452	1.283256	0.333075
C132	C	0.214881	1.616589	0.666408
C133	C	-0.432469	0.885880	-0.000236
C134	C	-0.099135	1.219214	0.333098
C135	C	0.234198	1.552547	0.666431
C136	C	-0.382063	0.885143	-0.000215
C137	C	-0.048730	1.218476	0.333119
C138	C	0.284604	1.551810	0.666452
N139	N	-0.362743	0.821105	-0.000199
N140	N	-0.029410	1.154438	0.333134
N141	N	0.303923	1.487771	0.666467
C142	C	-0.393841	0.757808	-0.000184
C143	C	-0.060507	1.091141	0.333149
C144	C	0.272826	1.424474	0.666483
C145	C	-0.840852	0.891882	-0.000240
C146	C	-0.507518	1.225216	0.333094
C147	C	-0.174185	1.558549	0.666427
C148	C	-0.891268	0.892623	-0.000239
C149	C	-0.557935	1.225957	0.333094
C150	C	-0.224602	1.559290	0.666427
C151	C	-0.903046	0.765283	-0.000208
C152	C	-0.569713	1.098616	0.333125
C153	C	-0.236380	1.431950	0.666459
C154	C	-0.852629	0.764543	-0.000203
C155	C	-0.519295	1.097876	0.333130
C156	C	-0.185962	1.431209	0.666464
C157	C	-0.821532	0.827844	-0.000224
C158	C	-0.488199	1.161178	0.333109
C159	C	-0.154865	1.494511	0.666442
C160	C	-0.287967	0.756259	-0.000170
C161	C	0.045367	1.089592	0.333163
C162	C	0.378700	1.422925	0.666497
C163	C	-0.237548	0.755524	-0.000161
C164	C	0.095786	1.088858	0.333173
C165	C	0.429119	1.422191	0.666506
C166	C	-0.225774	0.882864	-0.000196
C167	C	0.107560	1.216198	0.333137
C168	C	0.440893	1.549531	0.666471
C169	C	-0.276189	0.883599	-0.000202
C170	C	0.057145	1.216932	0.333132
C171	C	0.390478	1.550266	0.666465
C172	C	-0.307284	0.820290	-0.000191
C173	C	0.026049	1.153624	0.333142
C174	C	0.359382	1.486957	0.666476
O175	O	-0.350943	0.938876	-0.000205
O176	O	-0.017610	1.272209	0.333129
O177	O	0.315723	1.605543	0.666462
O178	O	-0.372771	0.703279	-0.000179
O179	O	-0.039438	1.036613	0.333154
O180	O	0.293895	1.369946	0.666487
C181	C	-0.595500	0.760768	-0.000203
C182	C	-0.262167	1.094102	0.333131
C183	C	0.071167	1.427435	0.666464
C184	C	-0.614817	0.824805	-0.000225
C185	C	-0.281484	1.158139	0.333109
C186	C	0.051850	1.491472	0.666442
C187	C	-0.583720	0.888103	-0.000240
C188	C	-0.250387	1.221436	0.333093
C189	C	0.082947	1.554769	0.666426
C190	C	-0.665234	0.825546	-0.000224
C191	C	-0.331900	1.158880	0.333109
C192	C	0.001433	1.492213	0.666442
C193	C	-0.696331	0.762249	-0.000209
C194	C	-0.362997	1.095583	0.333124
C195	C	-0.029664	1.428916	0.666458
C196	C	-0.677011	0.698211	-0.000194
C197	C	-0.343678	1.031545	0.333140
C198	C	-0.010345	1.364878	0.666473
C199	C	-0.626597	0.697471	-0.000187
C200	C	-0.293264	1.030805	0.333146
C201	C	0.040070	1.364138	0.666479
C202	C	-0.603039	0.952141	-0.000255
C203	C	-0.269706	1.285474	0.333078
C204	C	0.063627	1.618807	0.666411
C205	C	-0.653454	0.952875	-0.000261
C206	C	-0.320121	1.286209	0.333072
C207	C	0.013213	1.619542	0.666406
C208	C	-0.684551	0.889578	-0.000245
C209	C	-0.351218	1.222912	0.333088
C210	C	-0.017885	1.556245	0.666421
C211	C	0.023977	0.830125	-0.000212
C212	C	0.357311	1.163458	0.333121
C213	C	0.690644	1.496791	0.666455
C214	C	0.077635	0.829326	-0.000224
C215	C	0.410968	1.162660	0.333109
C216	C	0.744301	1.495993	0.666443
C217	C	-0.060609	0.951765	-0.000231
C218	C	0.272724	1.285098	0.333103
C219	C	0.606058	1.618431	0.666436
C220	C	-0.061399	1.029264	-0.000255
C221	C	0.271934	1.362597	0.333079
C222	C	0.605268	1.695931	0.666412
N223	N	-0.064402	0.824051	0.189503
N224	N	0.268932	1.157384	0.522837
N225	N	0.602265	1.490717	0.856170
N226	N	-0.064410	0.824102	-0.189897
N227	N	0.268923	1.157436	0.143436
N228	N	0.602256	1.490769	0.476770
C229	C	-0.031456	0.871887	0.227796
C230	C	0.301877	1.205221	0.561129
C231	C	0.635211	1.538554	0.894463
C232	C	-0.031454	0.871892	0.304441
C233	C	0.301880	1.205225	0.637774
C234	C	0.635213	1.538558	0.971107
C235	C	-0.064406	0.824066	0.342790
C236	C	0.268928	1.157399	0.676124
C237	C	0.602261	1.490733	1.009457
C238	C	-0.097354	0.776220	0.304489
C239	C	0.235980	1.109554	0.637822
C240	C	0.569313	1.442887	0.971155
C241	C	-0.097352	0.776213	0.227845
C242	C	0.235982	1.109546	0.561179
C243	C	0.569315	1.442879	0.894512
N244	N	-0.107196	0.814718	0.463131
N245	N	0.226138	1.148051	0.796464
N246	N	0.559471	1.481384	1.129798
N247	N	-0.107196	0.814729	0.535939
N248	N	0.226137	1.148062	0.869272
N249	N	0.559471	1.481396	1.202606
C250	C	-0.064413	0.824086	0.573713
C251	C	0.268921	1.157419	0.907046
C252	C	0.602254	1.490752	1.240379
N253	N	-0.021627	0.833444	0.535928
N254	N	0.311706	1.166777	0.869261
N255	N	0.645039	1.500111	1.202595
N256	N	-0.021628	0.833436	0.463113
N257	N	0.311706	1.166769	0.796446
N258	N	0.645039	1.500102	1.129780
C259	C	-0.064411	0.824069	0.425897
C260	C	0.268922	1.157402	0.759231
C261	C	0.602256	1.490736	1.092564
C262	C	-0.031462	0.871930	0.695112
C263	C	0.301872	1.205263	1.028446
C264	C	0.635205	1.538597	1.361779
C265	C	-0.031459	0.871929	0.771759
C266	C	0.301875	1.205263	1.105092
C267	C	0.635208	1.538596	1.438425
C268	C	-0.097363	0.776261	0.771805
C269	C	0.235970	1.109595	1.105138
C270	C	0.569304	1.442928	1.438472
C271	C	-0.097362	0.776258	0.695160
C272	C	0.235972	1.109592	1.028494
C273	C	0.569305	1.442925	1.361827
C274	C	-0.064412	0.824096	0.656818
C275	C	0.268922	1.157430	0.990152
C276	C	0.602255	1.490763	1.323485
H277	H	0.017109	0.184097	-0.000244
H278	H	0.350443	0.517430	0.333089
H279	H	0.683776	0.850763	0.666423
H280	H	-0.517923	1.002819	-0.000277
H281	H	-0.184590	1.336152	0.333057
H282	H	0.148743	1.669486	0.666390
H283	H	-0.004625	0.910847	0.335624
H284	H	0.328709	1.244181	0.668957
H285	H	0.662042	1.577514	1.002291
H286	H	-0.221823	0.703371	-0.000139
H287	H	0.111510	1.036704	0.333195
H288	H	0.444843	1.370038	0.666528
H289	H	-0.313279	0.704707	-0.000162
H290	H	0.020054	1.038040	0.333172
H291	H	0.353387	1.371373	0.666505
H292	H	-0.124191	0.737308	0.663981
H293	H	0.209142	1.070641	0.997314
H294	H	0.542476	1.403975	1.330647
H295	H	-0.124181	0.737257	0.196667
H296	H	0.209153	1.070591	0.530000
H297	H	0.542486	1.403924	0.863334
H298	H	-0.004625	0.910838	0.196580
H299	H	0.328708	1.244171	0.529913
H300	H	0.662042	1.577505	0.863247
H301	H	-0.124183	0.737279	0.335717
H302	H	0.209151	1.070612	0.669050
H303	H	0.542484	1.403946	1.002383
H304	H	-0.147272	0.596152	-0.000146
H305	H	0.186062	0.929485	0.333188
H306	H	0.519395	1.262818	0.666521
H307	H	-0.141392	0.020068	-0.000237
H308	H	0.191941	0.353402	0.333096
H309	H	0.525275	0.686735	0.666430
H310	H	-0.426468	1.001472	-0.000280
H311	H	-0.093135	1.334805	0.333053
H312	H	0.240198	1.668138	0.666387
H313	H	-0.004630	0.910880	0.663893
H314	H	0.328703	1.244214	0.997226
H315	H	0.662036	1.577547	1.330560
H316	H	-0.142741	0.152169	-0.000217
H317	H	0.190592	0.485503	0.333116
H318	H	0.523925	0.818836	0.666449
H319	H	-0.291917	0.935747	-0.000210
H320	H	0.041417	1.269081	0.333124
H321	H	0.374750	1.602414	0.666457
H322	H	-0.145923	0.464051	-0.000160
H323	H	0.187410	0.797384	0.333174
H324	H	0.520744	1.130718	0.666507
H325	H	-0.004628	0.910882	0.802937
H326	H	0.328705	1.244215	1.136270
H327	H	0.662039	1.577548	1.469604
H328	H	0.018456	0.051991	-0.000315
H329	H	0.351790	0.385325	0.333018
H330	H	0.685123	0.718658	0.666352
H331	H	0.013923	0.495974	-0.000193
H332	H	0.347256	0.829307	0.333141
H333	H	0.680590	1.162640	0.666474
H334	H	0.012580	0.628083	-0.000149
H335	H	0.345913	0.961417	0.333184
H336	H	0.679247	1.294750	0.666518
H337	H	-0.459632	0.643102	-0.000156
H338	H	-0.126299	0.976435	0.333177
H339	H	0.207035	1.309768	0.666511
H340	H	-0.702340	0.646673	-0.000176
H341	H	-0.369006	0.980006	0.333157
H342	H	-0.035673	1.313339	0.666490
H343	H	-0.610875	0.645322	-0.000168
H344	H	-0.277541	0.978655	0.333165
H345	H	0.055792	1.311988	0.666498
H346	H	-0.836905	0.712394	-0.000181
H347	H	-0.503572	1.045727	0.333152
H348	H	-0.170238	1.379060	0.666485
H349	H	-0.551084	0.644444	-0.000164
H350	H	-0.217750	0.977778	0.333169
H351	H	0.115583	1.311111	0.666502
H352	H	-0.928375	0.713744	-0.000192
H353	H	-0.595041	1.047077	0.333141
H354	H	-0.261708	1.380411	0.666475
H355	H	-0.669176	1.005030	-0.000274
H356	H	-0.335843	1.338364	0.333060
H357	H	-0.002510	1.671697	0.666393
H358	H	-0.124191	0.737318	0.803029
H359	H	0.209142	1.070651	1.136362
H360	H	0.542476	1.403985	1.469695
H361	H	-0.906991	0.944773	-0.000246
H362	H	-0.573658	1.278106	0.333087
H363	H	-0.240324	1.611440	0.666420
H364	H	-0.815536	0.943433	-0.000256
H365	H	-0.482203	1.276766	0.333077
H366	H	-0.148870	1.610100	0.666411
H367	H	-0.200446	0.934399	-0.000205
H368	H	0.132888	1.267732	0.333128
H369	H	0.466221	1.601066	0.666462
H370	H	-0.577724	1.003686	-0.000269
H371	H	-0.244391	1.337019	0.333064
H372	H	0.088942	1.670353	0.666398
