data_functionalizedCrystal
_audit_creation_method	'MofGen! by Chris Wilmer'
_symmetry_space_group_name_H-M	'P1'
_symmetry_Int_Tables_number	1
_symmetry_cell_setting	triclinic
loop_
_symmetry_equiv_pos_as_xyz
  x,y,z
_cell_length_a	12.759401
_cell_length_b	29.839131
_cell_length_c	12.759393
_cell_angle_alpha	89.961905
_cell_angle_beta	89.982620
_cell_angle_gamma	90.041581
loop_
_atom_site_label
_atom_site_type_symbol
_atom_site_fract_x
_atom_site_fract_y
_atom_site_fract_z
Zn1	Zn	1.606049	-0.178824	-0.593935
Zn2	Zn	1.605865	-0.253963	-0.418236
Zn3	Zn	1.430354	-0.178848	-0.418275
Zn4	Zn	1.430257	-0.253928	-0.593877
O5	O	1.518131	-0.216391	-0.506081
O6	O	1.753045	-0.188796	-0.570636
O7	O	1.582546	-0.244023	-0.271220
O8	O	1.453778	-0.115978	-0.441617
O9	O	1.752910	-0.244000	-0.441551
O10	O	1.582860	-0.115960	-0.570674
O11	O	1.453599	-0.188837	-0.271248
O12	O	1.283320	-0.188803	-0.441561
O13	O	1.453613	-0.243941	-0.740906
O14	O	1.283249	-0.243964	-0.570575
O15	O	1.582766	-0.188762	-0.740949
O16	O	1.582452	-0.316825	-0.441495
O17	O	1.453435	-0.316800	-0.570538
C18	C	1.245164	-0.216382	-0.506066
C19	C	1.128387	-0.216390	-0.506085
C20	C	1.073516	-0.245158	-0.573152
C21	C	0.963792	-0.245164	-0.573163
C22	C	0.963820	-0.187631	-0.439032
C23	C	1.073542	-0.187624	-0.439027
C24	C	1.128361	-0.273924	-0.640210
C25	C	1.073489	-0.302695	-0.707282
C26	C	0.963765	-0.302701	-0.707293
C27	C	0.908912	-0.273935	-0.640233
C28	C	1.517942	-0.333113	-0.506029
C29	C	1.517956	-0.383048	-0.506041
C30	C	1.585433	-0.692692	-0.438986
C31	C	1.585563	-0.880365	-0.439027
O32	O	1.642783	-0.904630	-0.381974
N33	N	1.518349	-0.903833	-0.506160
C34	C	1.451103	-0.880379	-0.573292
O35	O	1.393945	-0.904647	-0.630402
C36	C	1.450980	-0.692707	-0.573256
C37	C	1.518190	-0.669242	-0.506111
C38	C	1.652639	-0.669226	-0.371848
C39	C	1.652602	-0.622311	-0.371834
C40	C	1.585359	-0.598861	-0.438959
C41	C	1.518153	-0.622326	-0.506098
C42	C	1.383740	-0.669255	-0.640393
C43	C	1.383717	-0.622334	-0.640380
C44	C	1.450927	-0.598868	-0.573235
C45	C	1.450873	-0.551961	-0.573209
N46	N	1.518086	-0.528493	-0.506076
C47	C	1.585329	-0.551943	-0.438951
C48	C	1.451171	-0.978910	-0.573305
C49	C	1.451201	-1.025828	-0.573313
C50	C	1.585662	-1.025810	-0.439049
C51	C	1.585626	-0.978891	-0.439036
C52	C	1.518385	-0.955442	-0.506172
C53	C	1.585246	-0.453417	-0.438927
C54	C	1.585199	-0.406498	-0.438916
C55	C	1.450743	-0.406520	-0.573184
C56	C	1.450784	-0.453435	-0.573191
C57	C	1.518044	-0.476883	-0.506059
O58	O	1.393691	-0.527667	-0.630240
O59	O	1.642496	-0.527668	-0.381867
C60	C	1.585470	-0.739607	-0.439000
C61	C	1.518264	-0.763073	-0.506138
C62	C	1.451021	-0.739623	-0.573263
C63	C	1.518294	-0.809991	-0.506146
C64	C	1.585537	-0.833440	-0.439021
C65	C	1.652750	-0.809972	-0.371888
C66	C	1.652713	-0.763057	-0.371875
C67	C	1.383808	-0.763091	-0.640396
C68	C	1.383850	-0.810006	-0.640404
C69	C	1.451093	-0.833456	-0.573279
C70	C	1.792164	-0.216399	-0.506096
C71	C	1.908941	-0.216403	-0.506102
C72	C	1.518199	-0.216345	-0.780114
C73	C	1.518229	-0.216325	-0.896891
C74	C	1.518350	-0.099212	-0.506156
C75	C	1.518444	-0.049278	-0.506188
C76	C	1.451114	-0.187584	-0.951774
C77	C	1.451146	-0.187571	-1.061498
C78	C	1.585415	-0.245041	-1.061447
C79	C	1.585377	-0.245056	-0.951725
C80	C	1.383966	-0.158854	-0.896940
C81	C	1.316847	-0.130110	-0.951823
C82	C	1.316879	-0.130097	-1.061547
C83	C	1.384029	-0.158827	-1.116388
C84	C	1.518124	-0.216404	-0.233113
C85	C	1.518298	-0.216297	-0.116337
H86	H	1.639930	-0.387393	-0.384235
H87	H	1.707402	-0.688314	-0.317186
H88	H	1.384047	-0.158815	-1.205733
C89	C	1.243049	-0.098481	-1.121919
C90	C	1.123601	-0.102139	-1.106827
C91	C	1.049774	-0.070520	-1.167196
C92	C	1.095394	-0.035243	-1.242657
C93	C	1.214848	-0.031583	-1.257753
C94	C	1.288676	-0.063202	-1.197384
H95	H	1.089825	-0.128255	-1.050963
H96	H	0.961346	-0.073230	-1.156021
H97	H	1.040743	-0.011836	-1.287346
H98	H	1.248625	-0.005467	-1.313617
H99	H	1.377104	-0.060492	-1.208559
H100	H	1.395991	-0.387419	-0.627834
C101	C	0.903484	-0.155995	-0.365264
C102	C	0.828110	-0.120754	-0.410944
C103	C	0.767774	-0.089118	-0.337172
C104	C	0.782813	-0.092723	-0.217720
C105	C	0.858190	-0.127965	-0.172033
C106	C	0.918526	-0.159601	-0.245805
H107	H	0.816974	-0.118085	-0.499376
H108	H	0.711974	-0.063030	-0.370993
H109	H	0.738149	-0.069304	-0.163109
H110	H	0.869326	-0.130634	-0.083602
H111	H	0.974326	-0.185689	-0.211984
C112	C	1.659282	-0.276639	-1.121772
C113	C	1.613713	-0.311895	-1.197183
C114	C	1.687583	-0.343492	-1.257509
C115	C	1.807021	-0.339834	-1.242423
C116	C	1.852596	-0.304577	-1.167009
C117	C	1.778726	-0.272979	-1.106684
H118	H	1.525292	-0.314604	-1.208353
H119	H	1.653844	-0.369592	-1.313335
H120	H	1.861704	-0.363225	-1.287080
H121	H	1.941017	-0.301867	-1.155839
H122	H	1.812465	-0.246880	-1.050857
C123	C	1.659224	-0.479205	-0.365076
C124	C	1.650698	-0.472792	-0.245634
C125	C	1.724669	-0.498580	-0.171777
C126	C	1.807165	-0.530781	-0.217363
C127	C	1.815694	-0.537196	-0.336812
C128	C	1.741723	-0.511408	-0.410668
H129	H	1.589627	-0.448953	-0.211883
H130	H	1.718355	-0.493831	-0.083353
H131	H	1.861923	-0.549871	-0.162690
H132	H	1.876766	-0.561035	-0.370563
H133	H	1.748038	-0.516157	-0.499092
C134	C	1.659565	-0.953081	-0.365184
C135	C	1.651064	-0.959576	-0.245742
C136	C	1.725008	-0.933769	-0.171888
C137	C	1.807453	-0.901467	-0.217476
C138	C	1.815958	-0.894970	-0.336924
C139	C	1.742013	-0.920778	-0.410778
H140	H	1.590030	-0.983489	-0.211990
H141	H	1.718712	-0.938578	-0.083465
H142	H	1.862191	-0.882363	-0.162805
H143	H	1.876991	-0.871057	-0.370676
H144	H	1.748309	-0.915969	-0.499201
H145	H	1.383934	-0.158860	-0.807597
C146	C	1.659196	-0.276670	-0.891334
C147	C	1.778648	-0.273012	-0.906393
C148	C	1.852459	-0.304628	-0.845996
C149	C	1.806818	-0.339903	-0.770540
C150	C	1.687359	-0.343563	-0.755477
C151	C	1.613548	-0.311946	-0.815874
H152	H	1.812440	-0.246898	-0.962253
H153	H	1.940890	-0.301919	-0.857147
H154	H	1.861457	-0.363307	-0.725830
H155	H	1.653567	-0.369676	-0.699617
H156	H	1.525117	-0.314656	-0.804723
C157	C	1.377260	-1.051637	-0.647165
C158	C	1.303302	-1.025836	-0.721002
C159	C	1.229364	-1.051643	-0.794862
C160	C	1.229383	-1.103251	-0.794886
C161	C	1.303343	-1.129055	-0.721046
C162	C	1.377282	-1.103248	-0.647186
H163	H	1.303286	-0.987630	-0.720987
H164	H	1.174614	-1.032541	-0.849523
H165	H	1.174650	-1.122355	-0.849562
H166	H	1.303360	-1.167260	-0.721061
H167	H	1.432032	-1.122349	-0.592525
H168	H	1.640414	-1.044911	-0.384393
H169	H	1.396413	-0.959821	-0.627977
H170	H	1.217703	-0.273923	-0.640207
H171	H	1.118220	-0.164195	-0.384423
C172	C	1.309805	-0.695057	-0.714259
C173	C	1.227349	-0.727359	-0.668692
C174	C	1.153408	-0.753159	-0.742563
C175	C	1.161923	-0.746656	-0.862002
C176	C	1.244383	-0.714352	-0.907575
C177	C	1.318324	-0.688553	-0.833703
H178	H	1.221043	-0.732174	-0.580271
H179	H	1.092366	-0.777072	-0.708826
H180	H	1.107188	-0.765755	-0.916686
H181	H	1.250689	-0.709538	-0.995996
H182	H	1.379365	-0.664639	-0.867440
C183	C	1.133821	-0.334334	-0.781048
C184	C	1.254511	-0.334330	-0.781040
C185	C	1.314840	-0.365969	-0.854810
C186	C	1.254479	-0.397612	-0.928589
C187	C	1.133783	-0.397617	-0.928600
C188	C	1.073453	-0.365978	-0.854830
H189	H	1.299200	-0.310905	-0.726423
H190	H	1.404188	-0.365965	-0.854802
H191	H	1.299139	-0.421033	-0.983198
H192	H	1.089094	-0.421041	-0.983217
H193	H	0.984105	-0.365981	-0.854838
C194	C	1.309744	-0.596540	-0.714228
C195	C	1.190318	-0.603049	-0.705553
C196	C	1.116343	-0.577257	-0.779397
C197	C	1.161795	-0.544954	-0.861915
C198	C	1.281227	-0.538444	-0.870593
C199	C	1.355201	-0.564237	-0.796749
H200	H	1.156666	-0.626963	-0.644466
H201	H	1.027932	-0.582076	-0.772972
H202	H	1.107035	-0.525861	-0.916578
H203	H	1.314878	-0.514530	-0.931681
H204	H	1.443613	-0.559417	-0.803174
H205	H	1.707442	-0.743955	-0.317199
H206	H	0.819568	-0.273938	-0.640257
C207	C	1.309911	-0.835814	-0.714270
C208	C	1.190474	-0.829417	-0.705604
C209	C	1.116546	-0.855223	-0.779476
C210	C	1.162053	-0.887426	-0.862014
C211	C	1.281496	-0.893825	-0.870684
C212	C	1.355424	-0.868019	-0.796812
H213	H	1.156782	-0.805577	-0.644501
H214	H	1.028126	-0.850486	-0.773058
H215	H	1.107327	-0.906529	-0.916699
H216	H	1.315189	-0.917665	-0.931787
H217	H	1.443844	-0.872756	-0.803230
H218	H	0.919091	-0.326124	-0.761913
H219	H	1.396060	-0.472542	-0.627869
H220	H	1.707333	-0.603208	-0.317162
H221	H	1.707499	-0.829074	-0.317230
H222	H	1.262170	-0.106721	-0.907164
H223	H	1.329052	-0.744001	-0.695059
