data_functionalizedCrystal
_audit_creation_method	'MofGen! by Chris Wilmer'
_symmetry_space_group_name_H-M	'P1'
_symmetry_Int_Tables_number	1
_symmetry_cell_setting	triclinic
loop_
_symmetry_equiv_pos_as_xyz
  x,y,z
_cell_length_a	15.500265
_cell_length_b	9.065218
_cell_length_c	9.065215
_cell_angle_alpha	94.984675
_cell_angle_beta	93.137136
_cell_angle_gamma	86.860876
loop_
_atom_site_label
_atom_site_type_symbol
_atom_site_fract_x
_atom_site_fract_y
_atom_site_fract_z
O1	O	-0.071986	-1.954184	0.210154
O2	O	-0.071978	-1.524899	0.227901
O3	O	-0.071978	-1.748417	0.004385
O4	O	-0.071985	-1.730666	0.433670
O5	O	0.071909	-1.760821	0.016779
O6	O	0.071909	-1.537303	0.240295
O7	O	0.071901	-1.966588	0.222548
Cu8	Cu	0.085043	-1.753078	0.232553
Cu9	Cu	-0.085120	-1.738409	0.217896
O10	O	0.071902	-1.743070	0.446064
C11	C	-0.000033	-1.476115	0.232392
C12	C	-0.000030	-1.312272	0.227293
N13	N	0.204727	-1.763406	0.242861
C14	C	0.749910	-1.814875	0.294423
C15	C	0.659338	-1.807072	0.286617
C16	C	0.614054	-1.712500	0.191962
C17	C	0.659347	-1.625715	0.105120
C18	C	0.749917	-1.633511	0.112935
C19	C	0.340590	-1.684417	0.163833
C20	C	0.250013	-1.676631	0.156022
C21	C	0.250011	-1.857986	0.337521
C22	C	0.340583	-1.865781	0.345322
C23	C	0.385868	-1.778990	0.258485
C24	C	0.521475	-1.704525	0.183977
C25	C	0.478445	-1.786958	0.266478
N26	N	0.795196	-1.728099	0.207584
C27	C	-0.000036	-1.752914	-0.044405
C28	C	-0.000038	-1.747816	-0.208248
C29	C	-0.000040	-1.015372	0.218057
C30	C	-0.000033	-1.179216	0.223157
C31	C	-0.000043	-1.738573	0.494853
C32	C	-0.000046	-1.743670	0.658696
H33	H	0.622470	-1.877736	0.357329
O34	O	0.384435	-1.957669	0.437405
C35	C	0.374872	-2.136778	0.616550
C36	C	0.325102	-2.032750	0.512357
H37	H	0.326923	-2.197533	0.677153
H38	H	0.417243	-2.068997	0.700781
H39	H	0.417306	-2.220899	0.548762
H40	H	0.282621	-1.948610	0.580023
H41	H	0.282786	-2.100628	0.428123
H42	H	0.786788	-1.562846	0.042224
H43	H	0.213131	-1.928644	0.408221
O44	O	0.793761	-1.906775	0.386495
C45	C	0.784189	-2.085892	0.565630
C46	C	0.734424	-1.981854	0.461442
H47	H	0.736236	-2.146644	0.626229
H48	H	0.826562	-2.018120	0.649864
H49	H	0.826620	-2.170014	0.497838
H50	H	0.691945	-1.897712	0.529111
H51	H	0.692105	-2.049723	0.377204
O52	O	0.615264	-1.533761	0.013371
C53	C	0.513038	-1.325573	-0.006769
C54	C	0.562890	-1.429622	0.097307
H55	H	0.470696	-1.241332	0.061055
H56	H	0.470587	-1.393333	-0.090886
H57	H	0.560981	-1.264961	-0.067529
H58	H	0.515010	-1.490258	0.158168
H59	H	0.605354	-1.361783	0.181330
O60	O	0.522296	-1.878855	0.358546
C61	C	0.512747	-2.057999	0.537661
C62	C	0.462969	-1.953956	0.433492
H63	H	0.464803	-2.118769	0.598260
H64	H	0.555120	-1.990227	0.621896
H65	H	0.555180	-2.142106	0.469854
H66	H	0.420489	-1.869829	0.501176
H67	H	0.420650	-2.021824	0.349254
H68	H	0.213146	-1.599611	0.078944
H69	H	0.484594	-1.627529	0.106905
H70	H	0.377450	-1.613751	0.093119
