data_functionalizedCrystal
_audit_creation_method	'MofGen! by Chris Wilmer'
_symmetry_space_group_name_H-M	'P1'
_symmetry_Int_Tables_number	1
_symmetry_cell_setting	triclinic
loop_
_symmetry_equiv_pos_as_xyz
  x,y,z
_cell_length_a	14.519709
_cell_length_b	19.288864
_cell_length_c	12.996460
_cell_angle_alpha	89.980567
_cell_angle_beta	90.007090
_cell_angle_gamma	96.591805
loop_
_atom_site_label
_atom_site_type_symbol
_atom_site_fract_x
_atom_site_fract_y
_atom_site_fract_z
O1	O	0.115045	-0.921763	0.085899
O2	O	0.448379	-0.588430	0.419232
O3	O	0.781712	-0.255097	0.752566
O4	O	0.130565	-0.719558	0.085829
O5	O	0.463898	-0.386225	0.419162
O6	O	0.797231	-0.052892	0.752496
O7	O	-0.011467	-0.826022	0.085857
O8	O	0.321866	-0.492689	0.419190
O9	O	0.655199	-0.159355	0.752523
O10	O	0.257077	-0.815300	0.085871
O11	O	0.590411	-0.481966	0.419205
O12	O	0.923744	-0.148633	0.752538
O13	O	-0.011475	-0.826011	-0.085277
O14	O	0.321858	-0.492678	0.248056
O15	O	0.655191	-0.159344	0.581390
O16	O	0.130557	-0.719547	-0.085305
O17	O	0.463890	-0.386214	0.248029
O18	O	0.797224	-0.052881	0.581362
O19	O	0.115038	-0.921752	-0.085235
O20	O	0.448371	-0.588419	0.248099
O21	O	0.781704	-0.255085	0.581432
Cu22	Cu	0.122797	-0.820649	-0.100896
Cu23	Cu	0.456130	-0.487315	0.232438
Cu24	Cu	0.789463	-0.153982	0.565771
Cu25	Cu	0.122806	-0.820662	0.101490
Cu26	Cu	0.456139	-0.487329	0.434823
Cu27	Cu	0.789472	-0.153995	0.768157
O28	O	0.257070	-0.815289	-0.085262
O29	O	0.590403	-0.481955	0.248071
O30	O	0.923736	-0.148622	0.581404
C31	C	-0.045828	-0.825517	0.000289
C32	C	0.287505	-0.492183	0.333623
C33	C	0.620839	-0.158850	0.666956
C34	C	-0.148200	-0.824019	0.000288
C35	C	0.185134	-0.490686	0.333622
C36	C	0.518467	-0.157353	0.666955
C37	C	0.130061	-0.693675	0.000253
C38	C	0.463395	-0.360341	0.333586
C39	C	0.796728	-0.027008	0.666920
C40	C	0.128562	-0.616566	0.000226
C41	C	0.461896	-0.283232	0.333559
C42	C	0.795229	0.050101	0.666893
N43	N	0.122789	-0.820645	-0.243243
N44	N	0.456123	-0.487311	0.090091
N45	N	0.789456	-0.153978	0.423424
C46	C	-0.523061	-0.818507	0.000313
C47	C	-0.189727	-0.485173	0.333646
C48	C	0.143606	-0.151840	0.666980
C49	C	-0.418762	-0.820037	0.000306
C50	C	-0.085429	-0.486704	0.333639
C51	C	0.247904	-0.153371	0.666973
C52	C	-0.335633	-0.821263	0.000300
C53	C	-0.002300	-0.487929	0.333633
C54	C	0.331033	-0.154596	0.666966
C55	C	-0.231329	-0.822794	0.000294
C56	C	0.102005	-0.489461	0.333628
C57	C	0.435338	-0.156127	0.666961
C58	C	0.291430	-0.815794	0.000307
C59	C	0.624764	-0.482461	0.333641
C60	C	0.958097	-0.149127	0.666974
C61	C	0.393802	-0.817291	0.000315
C62	C	0.727135	-0.483958	0.333648
C63	C	1.060469	-0.150625	0.666982
C64	C	0.115541	-0.947636	0.000344
C65	C	0.448874	-0.614303	0.333677
C66	C	0.782207	-0.280969	0.667010
C67	C	0.117040	-1.024745	0.000377
C68	C	0.450373	-0.691412	0.333711
C69	C	0.783706	-0.358078	0.667044
C70	C	0.211900	-0.572169	0.000247
C71	C	0.545234	-0.238836	0.333580
C72	C	0.878567	0.094497	0.666914
C73	C	0.210492	-0.499717	0.000258
C74	C	0.543825	-0.166384	0.333591
C75	C	0.877159	0.166950	0.666925
C76	C	0.125741	-0.471665	0.000269
C77	C	0.459074	-0.138331	0.333603
C78	C	0.792408	0.195002	0.666936
C79	C	0.042392	-0.516071	0.000243
C80	C	0.375725	-0.182737	0.333576
C81	C	0.709059	0.150596	0.666909
C82	C	0.043803	-0.588521	0.000221
C83	C	0.377136	-0.255188	0.333554
C84	C	0.710469	0.078145	0.666888
C85	C	0.059120	-0.363167	0.060256
C86	C	0.392453	-0.029833	0.393589
C87	C	0.725787	0.303500	0.726923
C88	C	0.057713	-0.290717	0.060284
C89	C	0.391046	0.042616	0.393617
C90	C	0.724380	0.375949	0.726951
C91	C	0.121387	-0.248203	0.000331
C92	C	0.454720	0.085130	0.333665
C93	C	0.788053	0.418463	0.666998
C94	C	0.186483	-0.278146	-0.059636
C95	C	0.519817	0.055187	0.273697
C96	C	0.853150	0.388520	0.607031
C97	C	0.187894	-0.350597	-0.059658
C98	C	0.521227	-0.017264	0.273676
C99	C	0.854561	0.316070	0.607009
C100	C	0.124202	-0.393105	0.000292
C101	C	0.457535	-0.059772	0.333625
C102	C	0.790869	0.273562	0.666959
C103	C	0.203203	-0.125246	0.000363
C104	C	0.536537	0.208088	0.333696
C105	C	0.869870	0.541421	0.667030
C106	C	0.201792	-0.052792	0.000368
C107	C	0.535125	0.280541	0.333701
C108	C	0.868458	0.613874	0.667035
C109	C	0.033689	-0.069148	0.000363
C110	C	0.367023	0.264186	0.333696
C111	C	0.700356	0.597519	0.667029
C112	C	0.035103	-0.141599	0.000347
C113	C	0.368437	0.191734	0.333681
C114	C	0.701770	0.525067	0.667014
C115	C	0.119863	-0.169644	0.000352
C116	C	0.453196	0.163690	0.333686
C117	C	0.786530	0.497023	0.667019
C118	C	0.122807	-0.820661	-0.663057
C119	C	0.456140	-0.487328	-0.329724
C120	C	0.789473	-0.153994	0.003610
C121	C	0.122805	-0.820654	-0.546252
C122	C	0.456138	-0.487321	-0.212919
C123	C	0.789472	-0.153988	0.120415
C124	C	0.122799	-0.820653	-0.453154
C125	C	0.456132	-0.487320	-0.119820
C126	C	0.789465	-0.153986	0.213513
C127	C	0.122796	-0.820646	-0.336341
C128	C	0.456129	-0.487312	-0.003008
C129	C	0.789462	-0.153979	0.330326
N130	N	0.122805	-0.820672	0.243837
N131	N	0.456139	-0.487338	0.577170
N132	N	0.789472	-0.154005	0.910504
H133	H	0.280918	-0.594998	0.000253
H134	H	0.614252	-0.261665	0.333586
H135	H	0.947585	0.071669	0.666920
H136	H	-0.035317	-0.046308	0.000436
H137	H	0.298017	0.287025	0.333769
H138	H	0.631350	0.620358	0.667102
H139	H	-0.032760	-0.177748	0.000336
H140	H	0.300574	0.155585	0.333670
H141	H	0.633907	0.488919	0.667003
Cl142	Cl	0.315268	-0.443894	0.000282
Cl143	Cl	0.648601	-0.110561	0.333615
Cl144	Cl	0.981935	0.222773	0.666949
H145	H	-0.024063	-0.624670	0.000205
H146	H	0.309270	-0.291336	0.333538
H147	H	0.642603	0.041997	0.666871
Cl148	Cl	-0.024113	-0.253081	0.135681
Cl149	Cl	0.309220	0.080252	0.469014
Cl150	Cl	0.642554	0.413586	0.802348
H151	H	0.007267	-0.397776	0.109083
H152	H	0.340601	-0.064443	0.442416
H153	H	0.673934	0.268890	0.775749
H154	H	0.269658	-0.016645	0.000379
H155	H	0.602992	0.316689	0.333712
H156	H	0.936325	0.650022	0.667045
H157	H	0.238332	-0.243533	-0.108456
H158	H	0.571665	0.089801	0.224877
H159	H	0.904999	0.423134	0.558211
Cl160	Cl	-0.064152	-0.480806	0.000251
Cl161	Cl	0.269181	-0.147473	0.333584
Cl162	Cl	0.602515	0.185861	0.666917
H163	H	0.272220	-0.148080	0.000352
H164	H	0.605553	0.185253	0.333685
H165	H	0.938886	0.518586	0.667019
H166	H	0.240895	-0.374974	-0.108488
H167	H	0.574228	-0.041640	0.224845
H168	H	0.907562	0.291693	0.558178
