data_functionalizedCrystal
_audit_creation_method	'MofGen! by Chris Wilmer'
_symmetry_space_group_name_H-M	'P1'
_symmetry_Int_Tables_number	1
_symmetry_cell_setting	triclinic
loop_
_symmetry_equiv_pos_as_xyz
  x,y,z
_cell_length_a	13.339070
_cell_length_b	27.732048
_cell_length_c	11.804365
_cell_angle_alpha	101.725897
_cell_angle_beta	74.875130
_cell_angle_gamma	99.135974
loop_
_atom_site_label
_atom_site_type_symbol
_atom_site_fract_x
_atom_site_fract_y
_atom_site_fract_z
O1	O	1.359069	0.234806	-0.099120
O2	O	1.065035	0.203067	-0.099106
O3	O	1.221179	0.149799	-0.099091
O4	O	1.202924	0.288074	-0.099136
O5	O	1.180073	0.163802	0.098961
O6	O	1.023928	0.217071	0.098945
O7	O	1.317962	0.248810	0.098932
Cu8	Cu	1.167192	0.234219	0.117022
Cu9	Cu	1.215805	0.217658	-0.117197
O10	O	1.161818	0.302078	0.098916
C11	C	1.006876	0.204708	-0.000078
C12	C	0.894822	0.188727	-0.000072
C13	C	0.528099	0.312985	-0.000131
C14	C	0.633379	0.328001	-0.000141
C15	C	0.698745	0.293183	-0.000123
C16	C	0.658821	0.243348	-0.000097
C17	C	0.553532	0.228329	-0.000096
C18	C	0.724178	0.208528	-0.000089
C19	C	0.684254	0.158692	-0.000062
C20	C	0.578976	0.143677	-0.000061
C21	C	0.513610	0.178494	-0.000079
C22	C	0.829467	0.223546	-0.000089
C23	C	0.854900	0.138891	-0.000054
C24	C	0.749620	0.123875	-0.000045
C25	C	1.200242	0.138741	-0.000062
C26	C	1.199085	0.084928	-0.000052
C27	C	1.284104	-0.242187	-0.000117
C28	C	1.279824	-0.444438	-0.000134
O29	O	1.357567	-0.464995	-0.000189
N30	N	1.187234	-0.476310	-0.000128
C31	C	1.095709	-0.457617	-0.000126
O32	O	1.016860	-0.489368	-0.000134
C33	C	1.099992	-0.255368	-0.000118
C34	C	1.192585	-0.223497	-0.000112
C35	C	1.376690	-0.210317	-0.000112
C36	C	1.377758	-0.159757	-0.000101
C37	C	1.286239	-0.141067	-0.000096
C38	C	1.193653	-0.172937	-0.000101
C39	C	1.008469	-0.236677	-0.000125
C40	C	1.009549	-0.186111	-0.000126
C41	C	1.102143	-0.154240	-0.000120
C42	C	1.103202	-0.103688	-0.000085
N43	N	1.195792	-0.071816	-0.000091
C44	C	1.287311	-0.090505	-0.000096
C45	C	1.093466	-0.563800	-0.000128
C46	C	1.092395	-0.614362	-0.000128
C47	C	1.276511	-0.601180	-0.000137
C48	C	1.277580	-0.550616	-0.000129
C49	C	1.186057	-0.531928	-0.000134
C50	C	1.289545	0.015674	-0.000073
C51	C	1.290604	0.066238	-0.000057
C52	C	1.106490	0.053051	-0.000054
C53	C	1.105429	0.002491	-0.000063
C54	C	1.196966	-0.016196	-0.000077
O55	O	1.025503	-0.083098	-0.000043
O56	O	1.366154	-0.058749	-0.000115
C57	C	1.283036	-0.292747	-0.000128
C58	C	1.190450	-0.324617	-0.000133
C59	C	1.098931	-0.305928	-0.000128
C60	C	1.189379	-0.375179	-0.000133
C61	C	1.280897	-0.393869	-0.000138
C62	C	1.373487	-0.361997	-0.000144
C63	C	1.374555	-0.311437	-0.000133
C64	C	1.006341	-0.337800	-0.000122
C65	C	1.005281	-0.388359	-0.000131
C66	C	1.096799	-0.407049	-0.000137
C67	C	1.376122	0.247169	-0.000099
C68	C	1.488177	0.263149	-0.000113
C69	C	1.182756	0.313135	-0.000116
C70	C	1.183914	0.366948	-0.000133
N71	N	1.133007	0.245868	0.281760
N72	N	1.249998	0.206006	-0.281934
C73	C	1.332087	0.178023	0.655728
C74	C	1.357947	0.169209	0.531069
C75	C	1.301714	0.188373	0.468735
C76	C	1.219618	0.216353	0.531073
C77	C	1.193761	0.225172	0.655745
C78	C	1.163387	0.235521	0.468752
C79	C	1.081291	0.263501	0.531090
C80	C	1.055438	0.272318	0.655749
C81	C	1.111671	0.253154	0.718083
C82	C	1.189244	0.226702	0.344081
C83	C	1.050918	0.273850	0.344097
C84	C	1.025058	0.282665	0.468757
H85	H	0.717101	0.083297	-0.000033
H86	H	0.474872	0.341327	-0.000155
H87	H	0.958214	0.305448	0.519528
C88	C	1.448238	0.138430	0.462505
H89	H	1.478019	0.128275	0.517480
H90	H	1.500075	0.157987	0.413854
H91	H	1.422317	0.110029	0.413894
C92	C	0.535060	0.088858	-0.000053
H93	H	0.463000	0.084900	-0.000069
H94	H	0.543200	0.078807	0.069014
H95	H	0.571883	0.069048	-0.069125
C96	C	1.005829	0.073616	-0.000055
H97	H	1.019737	0.108293	-0.000063
H98	H	0.953484	0.067503	0.069004
H99	H	0.982176	0.057744	-0.069135
H100	H	1.377870	0.162426	0.706488
H101	H	0.665879	0.368576	-0.000171
C102	C	0.903424	-0.423414	-0.000140
H103	H	0.915883	-0.456205	-0.000141
H104	H	0.880118	-0.422708	-0.069204
H105	H	0.851436	-0.412957	0.068934
C106	C	0.873376	0.278361	-0.000113
H107	H	0.945442	0.282320	-0.000121
H108	H	0.836557	0.298176	0.068943
H109	H	0.865234	0.288403	-0.069196
C110	C	1.390231	-0.004874	-0.000077
H111	H	1.445516	0.021354	-0.000062
H112	H	1.407990	-0.029202	-0.069143
H113	H	1.379305	-0.019444	0.068996
H114	H	1.453158	-0.133812	-0.000101
C115	C	1.279546	0.195930	0.275517
H116	H	1.286903	0.193426	0.192344
H117	H	1.264864	0.163710	0.295961
H118	H	1.342597	0.211676	0.295936
H119	H	1.448004	-0.377223	-0.000143
C120	C	0.397800	0.161977	-0.000068
H121	H	0.364594	0.189852	-0.000083
H122	H	0.364346	0.147831	0.069002
H123	H	0.393016	0.138065	-0.069136
C124	C	0.926787	0.100588	-0.000036
H125	H	0.887936	0.068756	-0.000039
H126	H	0.954052	0.109569	0.069027
H127	H	0.982723	0.099804	-0.069111
H128	H	0.784469	0.305412	-0.000134
C129	C	1.477368	-0.230867	-0.000108
H130	H	1.532651	-0.204638	-0.000096
H131	H	1.495129	-0.255198	-0.069168
H132	H	1.466440	-0.245433	0.068971
H133	H	1.366007	0.092186	-0.000049
H134	H	0.935018	-0.170899	-0.000132
C135	C	0.965143	0.303099	0.724324
H136	H	0.957804	0.305610	0.807496
H137	H	0.902088	0.287363	0.703916
H138	H	0.979845	0.335321	0.703877
C139	C	1.377183	-0.621746	-0.000162
H140	H	1.363278	-0.656424	-0.000175
H141	H	1.400869	-0.605877	0.068892
H142	H	1.429507	-0.615634	-0.069247
C143	C	0.906617	-0.271725	-0.000143
H144	H	0.852278	-0.253346	-0.000155
H145	H	0.888020	-0.286847	0.068916
H146	H	0.916712	-0.296599	-0.069222
H147	H	1.030025	-0.023457	-0.000036
C148	C	1.379433	-0.515564	-0.000133
H149	H	1.433781	-0.533942	-0.000142
H150	H	1.369350	-0.490684	0.068929
H151	H	1.398019	-0.500449	-0.069210
C152	C	0.990542	-0.649416	-0.000122
H153	H	1.003000	-0.682206	-0.000114
H154	H	0.967231	-0.648714	-0.069185
H155	H	0.938560	-0.638955	0.068954
C156	C	0.989062	0.294935	0.275544
H157	H	1.016213	0.285672	0.192371
H158	H	0.995286	0.330044	0.295959
H159	H	0.917528	0.282087	0.295991
H160	H	1.018933	-0.548590	-0.000132
C161	C	1.083231	0.262852	0.855209
H162	H	1.128482	0.247432	0.883398
H163	H	1.012964	0.249577	0.883433
H164	H	1.090723	0.297534	0.883394
H165	H	1.449954	-0.285492	-0.000128
H166	H	1.322772	0.181194	0.367232
H167	H	0.931814	-0.322588	-0.000121
