data_functionalizedCrystal
_audit_creation_method	'MofGen! by Chris Wilmer'
_symmetry_space_group_name_H-M	'P1'
_symmetry_Int_Tables_number	1
_symmetry_cell_setting	triclinic
loop_
_symmetry_equiv_pos_as_xyz
  x,y,z
_cell_length_a	33.592126
_cell_length_b	33.591377
_cell_length_c	33.588093
_cell_angle_alpha	60.004089
_cell_angle_beta	60.008299
_cell_angle_gamma	59.994549
loop_
_atom_site_label
_atom_site_type_symbol
_atom_site_fract_x
_atom_site_fract_y
_atom_site_fract_z
O1	O	0.055297	-0.581666	0.486338
O2	O	0.020882	-0.452873	0.391864
O3	O	0.102445	-0.534352	0.391775
O4	O	-0.026266	-0.500187	0.486427
O5	O	0.129510	-0.507292	0.418747
O6	O	0.047947	-0.425814	0.418835
O7	O	0.082362	-0.554606	0.513309
Cu8	Cu	0.067626	-0.487739	0.468535
Cu9	Cu	0.035618	-0.519740	0.436638
O10	O	0.000799	-0.473128	0.513398
N11	N	0.090139	-0.465235	0.490972
N12	N	0.013110	-0.542249	0.414202
C13	C	0.124394	-0.431229	0.734914
C14	C	0.334265	-0.431145	0.524799
C15	C	0.124204	-0.431200	0.524965
C16	C	0.124184	-0.221175	0.524955
C17	C	0.158017	-0.322536	0.558710
C18	C	0.158027	-0.397406	0.558711
C19	C	0.176763	-0.378688	0.577408
C20	C	0.258412	-0.364594	0.534386
C21	C	0.309454	-0.381596	0.517340
C22	C	0.309485	-0.464188	0.548836
C23	C	0.258444	-0.447186	0.565883
C24	C	0.170304	-0.297002	0.508532
C25	C	0.153260	-0.245956	0.491537
C26	C	0.111648	-0.245983	0.574901
C27	C	0.128691	-0.297029	0.591896
C28	C	0.107841	-0.385091	0.571080
C29	C	0.090813	-0.402108	0.554078
C30	C	0.174153	-0.443755	0.512351
C31	C	0.191183	-0.426739	0.529347
C32	C	0.107923	-0.385106	0.659111
C33	C	0.090955	-0.402138	0.710156
C34	C	0.174335	-0.443795	0.710087
C35	C	0.191302	-0.426764	0.659041
C36	C	0.158095	-0.397418	0.633555
C37	C	0.232909	-0.397388	0.558656
C38	C	0.105069	-0.449619	0.791057
C39	C	0.390406	-0.449193	0.505789
C40	C	0.104813	-0.449599	0.506607
C41	C	0.105125	-0.165028	0.506915
C42	C	-0.020560	-0.576246	0.169890
C43	C	-0.020889	-0.786183	0.379970
C44	C	-0.020859	-0.576235	0.380063
C45	C	-0.230772	-0.576015	0.379658
C46	C	-0.129417	-0.609898	0.346025
C47	C	-0.054587	-0.609979	0.346172
C48	C	-0.073269	-0.628671	0.327396
C49	C	-0.087401	-0.710299	0.370335
C50	C	-0.070424	-0.761345	0.387369
C51	C	0.012165	-0.761428	0.356003
C52	C	-0.004813	-0.710383	0.338967
C53	C	-0.155001	-0.622196	0.396191
C54	C	-0.206043	-0.605128	0.413125
C55	C	-0.205914	-0.563467	0.329724
C56	C	-0.154872	-0.580535	0.312790
C57	C	-0.066886	-0.559797	0.333828
C58	C	-0.049903	-0.542809	0.350903
C59	C	-0.008321	-0.626180	0.392654
C60	C	-0.025304	-0.643170	0.375585
C61	C	-0.066758	-0.559805	0.245702
C62	C	-0.049671	-0.542819	0.194658
C63	C	-0.008026	-0.626194	0.194706
C64	C	-0.025111	-0.643179	0.245752
C65	C	-0.054479	-0.609983	0.271248
C66	C	-0.054597	-0.684821	0.346135
C67	C	-0.002109	-0.556901	0.113746
C68	C	-0.002869	-0.842328	0.398966
C69	C	-0.002496	-0.556887	0.398501
C70	C	-0.286914	-0.556929	0.397631
N71	N	0.436349	-0.465146	0.490703
O72	O	0.592194	-0.469605	0.374236
O73	O	0.592389	-0.564393	0.502890
O74	O	0.592305	-0.564176	0.421300
O75	O	0.592277	-0.469822	0.455826
O76	O	0.511216	-0.537214	0.448415
O77	O	0.511300	-0.537431	0.530004
O78	O	0.511104	-0.442643	0.401350
Cu79	Cu	0.503798	-0.487575	0.468153
Cu80	Cu	0.599695	-0.519461	0.436087
O81	O	0.511188	-0.442860	0.482940
N82	N	0.667145	-0.541890	0.413532
N83	N	0.090108	-0.119085	0.490958
O84	O	-0.026275	0.036848	0.486394
O85	O	0.102381	0.036888	0.391584
O86	O	0.020751	0.036852	0.391854
O87	O	0.055356	0.036884	0.486124
O88	O	0.047821	-0.044242	0.418876
O89	O	0.129452	-0.044207	0.418606
O90	O	0.000796	-0.044246	0.513417
Cu91	Cu	0.067596	-0.051631	0.468479
Cu92	Cu	0.035582	0.044273	0.436522
O93	O	0.082426	-0.044211	0.513146
N94	N	0.013063	0.111726	0.414043
N95	N	0.090453	-0.465282	0.837001
O96	O	0.085913	-0.581648	0.992925
O97	O	-0.008857	-0.452947	0.992970
O98	O	-0.008635	-0.534562	0.992946
O99	O	0.085691	-0.500033	0.992949
O100	O	0.018365	-0.507512	0.911855
O101	O	0.018143	-0.425898	0.911878
O102	O	0.112912	-0.554598	0.911834
Cu103	Cu	0.067993	-0.487778	0.904452
Cu104	Cu	0.036063	-0.519767	1.000352
O105	O	0.112691	-0.472984	0.911857
N106	N	0.013602	-0.542269	1.067803
C107	C	0.031188	-0.423114	0.392334
C108	C	0.132194	-0.524016	0.392223
C109	C	0.072056	-0.584366	0.512840
C110	C	-0.028950	-0.483464	0.512950
C111	C	0.551868	-0.563965	0.532655
C112	C	0.551766	-0.563697	0.431617
C113	C	0.551623	-0.443070	0.371586
C114	C	0.551728	-0.443339	0.472623
C115	C	0.132090	-0.003555	0.392006
C116	C	0.031035	-0.003698	0.392374
C117	C	-0.028947	-0.003703	0.512961
C118	C	0.072143	-0.003661	0.512626
C119	C	-0.008408	-0.423209	0.952430
C120	C	-0.008128	-0.524272	0.952385
C121	C	0.112464	-0.584336	0.952374
C122	C	0.112190	-0.483267	0.952401
H123	H	0.080878	-0.361206	0.638363
C124	C	0.193459	-0.627921	0.910663
C125	C	0.152633	-0.634232	0.952354
H126	H	0.218256	-0.658725	0.910650
H127	H	0.205226	-0.607436	0.910673
H128	H	0.184582	-0.613328	0.882391
H129	H	0.161509	-0.648822	0.980626
H130	H	0.140864	-0.654725	0.952349
H131	H	0.023621	-0.003702	0.362756
C132	C	-0.087581	-0.434462	0.564314
C133	C	-0.078852	-0.473643	0.553078
H134	H	-0.118386	-0.428402	0.589090
H135	H	-0.087508	-0.406240	0.535985
H136	H	-0.062770	-0.442176	0.575494
H137	H	-0.103661	-0.465927	0.541894
H138	H	-0.078928	-0.501871	0.581413
C139	C	-0.109043	-0.003716	0.535804
C140	C	-0.078828	-0.003705	0.553140
H141	H	-0.139839	-0.003711	0.560607
H142	H	-0.094463	-0.031999	0.526957
H143	H	-0.113324	0.024561	0.508094
H144	H	-0.074544	-0.031984	0.580848
H145	H	-0.093411	0.024580	0.561993
C146	C	0.182198	-0.492230	0.310338
C147	C	0.182096	-0.533839	0.352096
H148	H	0.213005	-0.498297	0.285564
H149	H	0.176275	-0.465655	0.317965
H150	H	0.157389	-0.484524	0.299160
H151	H	0.206903	-0.541543	0.363275
H152	H	0.188025	-0.560423	0.344468
H153	H	0.168963	-0.003318	0.362168
C154	C	0.132515	-0.312765	0.668163
C155	C	0.115189	-0.325102	0.647055
H156	H	0.124181	-0.330098	0.702215
H157	H	0.118167	-0.278718	0.662792
H158	H	0.166952	-0.321119	0.653800
H159	H	0.080752	-0.316744	0.661415
H160	H	0.129536	-0.359156	0.652430
C161	C	0.129736	-0.003650	0.535025
C162	C	0.082148	-0.003662	0.552615
H163	H	0.135913	-0.003657	0.559714
H164	H	0.133345	0.024634	0.507304
H165	H	0.152223	-0.031925	0.526134
H166	H	0.059661	0.024615	0.561502
H167	H	0.078534	-0.031949	0.580345
H168	H	-0.038161	-0.386246	0.952443
H169	H	-0.037749	-0.531650	0.952352
C170	C	0.093354	-0.670833	0.536350
C171	C	0.081977	-0.634310	0.552899
H172	H	0.099476	-0.701666	0.561083
H173	H	0.121544	-0.670691	0.507994
H174	H	0.066755	-0.664914	0.528758
H175	H	0.108578	-0.640227	0.560488
H176	H	0.053784	-0.634453	0.581264
C177	C	0.010242	-0.359236	0.705089
C178	C	0.035801	-0.388592	0.738242
H179	H	-0.023807	-0.350872	0.722431
H180	H	0.018592	-0.376550	0.685183
H181	H	0.018601	-0.330372	0.685176
H182	H	0.027445	-0.417458	0.758153
H183	H	0.027448	-0.371278	0.758157
C184	C	0.258459	-0.483250	0.704884
C185	C	0.210839	-0.476044	0.738098
H186	H	0.280995	-0.503162	0.722178
H187	H	0.263335	-0.452650	0.684977
H188	H	0.263344	-0.498833	0.684976
H189	H	0.205953	-0.460457	0.758003
H190	H	0.205960	-0.506649	0.758013
C191	C	0.551961	-0.586774	0.612721
C192	C	0.551942	-0.604140	0.582535
H193	H	0.552010	-0.611578	0.643513
H194	H	0.523668	-0.559085	0.617018
H195	H	0.580223	-0.577889	0.598107
H196	H	0.523678	-0.613021	0.597147
H197	H	0.580238	-0.631837	0.578240
C198	C	0.551716	-0.586140	0.374076
C199	C	0.551779	-0.603713	0.421648
H200	H	0.551721	-0.610844	0.367924
H201	H	0.579968	-0.577237	0.351566
H202	H	0.523412	-0.558426	0.370477
H203	H	0.580085	-0.631425	0.425246
H204	H	0.523524	-0.612623	0.444164
C205	C	0.163355	-0.434085	0.910710
C206	C	0.152199	-0.473296	0.952392
H207	H	0.188057	-0.427932	0.910704
H208	H	0.134976	-0.405910	0.910727
H209	H	0.174606	-0.441827	0.882432
H210	H	0.140944	-0.465553	0.980670
H211	H	0.180583	-0.501477	0.952379
C212	C	0.258755	-0.397743	0.601596
C213	C	0.246455	-0.440301	0.630950
H214	H	0.292803	-0.406101	0.584253
H215	H	0.250402	-0.380435	0.621509
H216	H	0.241405	-0.377834	0.579113
H217	H	0.263802	-0.460208	0.653435
H218	H	0.254812	-0.457616	0.611035
H219	H	0.080840	-0.361208	0.594989
H220	H	0.551560	-0.413310	0.334638
C221	C	0.551774	-0.420895	0.530165
C222	C	0.551713	-0.403323	0.482592
H223	H	0.551761	-0.396189	0.536320
H224	H	0.580075	-0.448604	0.533765
H225	H	0.523520	-0.429802	0.552676
H226	H	0.579969	-0.394419	0.460081
H227	H	0.523409	-0.375605	0.478989
H228	H	0.201155	-0.467643	0.488446
C229	C	0.014571	-0.405910	0.618442
C230	C	0.035649	-0.388580	0.567672
H231	H	-0.019484	-0.397562	0.626833
H232	H	0.019962	-0.391573	0.632765
H233	H	0.028936	-0.440350	0.630156
H234	H	0.021286	-0.354139	0.555958
H235	H	0.030254	-0.402914	0.553344
C236	C	0.271856	-0.469592	0.486370
C237	C	0.246348	-0.440259	0.515740
H238	H	0.305912	-0.477936	0.477968
H239	H	0.263445	-0.452270	0.457534
H240	H	0.263516	-0.498467	0.503693
H241	H	0.254686	-0.411381	0.498414
H242	H	0.254764	-0.457580	0.544580
H243	H	0.237680	-0.473893	0.585645
C244	C	-0.159867	-0.537647	0.232049
C245	C	-0.126746	-0.567023	0.257644
H246	H	-0.142503	-0.529309	0.198004
H247	H	-0.179771	-0.508775	0.240395
H248	H	-0.179785	-0.554941	0.240383
H249	H	-0.106830	-0.549728	0.249312
H250	H	-0.106834	-0.595900	0.249293
C251	C	0.304393	-0.544123	0.581676
C252	C	0.337557	-0.518927	0.556773
H253	H	0.321724	-0.577916	0.586578
H254	H	0.284463	-0.532152	0.562994
H255	H	0.284506	-0.539393	0.612350
H256	H	0.357442	-0.523654	0.526098
H257	H	0.357496	-0.530902	0.575455
C258	C	0.017507	-0.723877	0.418566
C259	C	-0.011784	-0.698330	0.389146
H260	H	0.025857	-0.757930	0.426934
H261	H	0.000155	-0.715495	0.447419
H262	H	0.046379	-0.715537	0.401292
H263	H	-0.040657	-0.706667	0.406421
H264	H	0.005568	-0.706716	0.360289
C265	C	0.304297	-0.298248	0.487913
C266	C	0.337489	-0.345548	0.490659
H267	H	0.321606	-0.275994	0.471438
H268	H	0.284412	-0.296952	0.519892
H269	H	0.284367	-0.289718	0.470539
H270	H	0.357417	-0.354080	0.508037
H271	H	0.357382	-0.346846	0.458675
H272	H	0.194180	-0.317769	0.481510
C273	C	0.201027	-0.302893	0.571660
C274	C	0.230345	-0.309856	0.526443
H275	H	0.183697	-0.269100	0.566754
H276	H	0.220962	-0.314860	0.590336
H277	H	0.178533	-0.319992	0.588550
H278	H	0.252841	-0.292761	0.509554
H279	H	0.210408	-0.297883	0.507759
C280	C	0.149437	-0.230224	0.415272
C281	C	0.166763	-0.217885	0.436377
H282	H	0.157776	-0.212896	0.381219
H283	H	0.115005	-0.221869	0.429630
H284	H	0.163786	-0.264276	0.420647
H285	H	0.152411	-0.183833	0.431005
H286	H	0.201202	-0.226236	0.422015
C287	C	0.102383	-0.188573	0.604114
C288	C	0.079412	-0.217939	0.611374
H289	H	0.082481	-0.171261	0.626633
H290	H	0.107255	-0.166064	0.571799
H291	H	0.132990	-0.208479	0.608996
H292	H	0.048807	-0.198032	0.606488
H293	H	0.074534	-0.240449	0.643697
H294	H	-0.059677	-0.501957	0.173865
H295	H	-0.090673	-0.532769	0.266460
H296	H	-0.015108	-0.684041	0.266548
C297	C	0.031413	-0.710314	0.199889
C298	C	0.024247	-0.662685	0.166684
H299	H	0.051341	-0.732842	0.182588
H300	H	0.000805	-0.715177	0.219750
H301	H	0.046962	-0.715227	0.219843
H302	H	0.008695	-0.657770	0.146733
H303	H	0.054861	-0.657820	0.146815
H304	H	-0.059919	-0.501948	0.340854
C305	C	0.036185	-0.637160	0.437358
C306	C	0.023871	-0.662665	0.424979
H307	H	0.056061	-0.659686	0.457313
H308	H	0.007316	-0.617228	0.454643
H309	H	0.053536	-0.617273	0.408513
H310	H	0.006517	-0.682550	0.453824
H311	H	0.052745	-0.682605	0.407695
C312	C	0.065739	-0.694748	0.270584
C313	C	0.031249	-0.682376	0.312367
H314	H	0.088004	-0.677460	0.254164
H315	H	0.049640	-0.686368	0.249542
H316	H	0.082971	-0.728809	0.279712
H317	H	0.014015	-0.648316	0.303239
H318	H	0.047350	-0.690752	0.333413
C319	C	0.084550	-0.818893	0.320563
C320	C	0.066888	-0.789533	0.348130
H321	H	0.118332	-0.836245	0.315705
H322	H	0.079863	-0.798982	0.289875
H323	H	0.067436	-0.841370	0.337418
H324	H	0.083999	-0.767054	0.331273
H325	H	0.071578	-0.809446	0.378823
H326	H	-0.097137	-0.782089	0.407066
C327	C	-0.167325	-0.715350	0.403023
C328	C	-0.142120	-0.682203	0.378193
H329	H	-0.201106	-0.698003	0.407866
H330	H	-0.162652	-0.735247	0.433718
H331	H	-0.155316	-0.735275	0.384319
H332	H	-0.154127	-0.662280	0.396899
H333	H	-0.146797	-0.662298	0.347494
H334	H	-0.134277	-0.646110	0.423254
C335	C	-0.221881	-0.669411	0.489407
C336	C	-0.234173	-0.618647	0.468271
H337	H	-0.239250	-0.677757	0.523451
H338	H	-0.187845	-0.683772	0.484082
H339	H	-0.230222	-0.681129	0.475027
H340	H	-0.225829	-0.606929	0.482648
H341	H	-0.268217	-0.604281	0.473600
C342	C	-0.263255	-0.554133	0.300378
C343	C	-0.233900	-0.531193	0.293196
H344	H	-0.280529	-0.534207	0.277825
H345	H	-0.285793	-0.559007	0.332676
H346	H	-0.243348	-0.584738	0.295494
H347	H	-0.253807	-0.500589	0.298083
H348	H	-0.211359	-0.526313	0.260889
H349	H	-0.090726	-0.532768	0.309877
H350	H	0.023834	-0.386116	0.362662
