data_functionalizedCrystal
_audit_creation_method	'MofGen! by Chris Wilmer'
_symmetry_space_group_name_H-M	'P1'
_symmetry_Int_Tables_number	1
_symmetry_cell_setting	triclinic
loop_
_symmetry_equiv_pos_as_xyz
  x,y,z
_cell_length_a	19.805407
_cell_length_b	18.215405
_cell_length_c	18.215399
_cell_angle_alpha	90.030551
_cell_angle_beta	89.979366
_cell_angle_gamma	89.975115
loop_
_atom_site_label
_atom_site_type_symbol
_atom_site_fract_x
_atom_site_fract_y
_atom_site_fract_z
Zn1	Zn	1.034750	0.292992	-0.416118
Zn2	Zn	1.368083	0.626325	-0.082785
Zn3	Zn	1.701417	0.959658	0.250548
Zn4	Zn	1.034666	0.416063	-0.293046
Zn5	Zn	1.367999	0.749396	0.040287
Zn6	Zn	1.701332	1.082730	0.373620
Zn7	Zn	0.921562	0.293015	-0.293064
Zn8	Zn	1.254896	0.626348	0.040269
Zn9	Zn	1.588229	0.959682	0.373603
Zn10	Zn	0.921531	0.416021	-0.416070
Zn11	Zn	1.254864	0.749354	-0.082736
Zn12	Zn	1.588198	1.082688	0.250597
O13	O	0.978127	0.354523	-0.354575
O14	O	1.311461	0.687856	-0.021241
O15	O	1.644794	1.021189	0.312092
O16	O	1.129455	0.309325	-0.399806
O17	O	1.462789	0.642659	-0.066472
O18	O	1.796122	0.975992	0.266861
O19	O	1.019640	0.399768	-0.190064
O20	O	1.352974	0.733101	0.143269
O21	O	1.686307	1.066434	0.476602
O22	O	0.936625	0.190028	-0.309415
O23	O	1.269959	0.523361	0.023918
O24	O	1.603292	0.856694	0.357252
O25	O	1.129393	0.399745	-0.309385
O26	O	1.462727	0.733079	0.023948
O27	O	1.796060	1.066412	0.357281
O28	O	1.019784	0.190011	-0.399823
O29	O	1.353117	0.523344	-0.066489
O30	O	1.686450	0.856677	0.266844
O31	O	0.936544	0.309365	-0.190077
O32	O	1.269877	0.642698	0.143256
O33	O	1.603210	0.976031	0.476589
O34	O	0.826842	0.309324	-0.309368
O35	O	1.160175	0.642657	0.023965
O36	O	1.493508	0.975991	0.357299
O37	O	0.936572	0.399674	-0.519060
O38	O	1.269905	0.733007	-0.185727
O39	O	1.603239	1.066340	0.147606
O40	O	0.826819	0.399696	-0.399740
O41	O	1.160152	0.733030	-0.066406
O42	O	1.493485	1.066363	0.266927
O43	O	1.019753	0.309285	-0.519096
O44	O	1.353087	0.642618	-0.185763
O45	O	1.686420	0.975951	0.147571
O46	O	1.019610	0.519042	-0.309338
O47	O	1.352943	0.852375	0.023995
O48	O	1.686276	1.185708	0.357329
O49	O	0.936490	0.519011	-0.399723
O50	O	1.269824	0.852344	-0.066389
O51	O	1.603157	1.185678	0.266944
C52	C	0.802271	0.354509	-0.354551
C53	C	1.135605	0.687842	-0.021217
C54	C	1.468938	1.021175	0.312116
C55	C	0.727039	0.354520	-0.354558
C56	C	1.060373	0.687854	-0.021225
C57	C	1.393706	1.021187	0.312109
C58	C	0.978056	0.545729	-0.354539
C59	C	1.311389	0.879062	-0.021206
C60	C	1.644722	1.212396	0.312128
C61	C	0.978087	0.627528	-0.354549
C62	C	1.311421	0.960861	-0.021215
C63	C	1.644754	1.294195	0.312118
C64	C	0.978169	0.354472	-0.546528
C65	C	1.311502	0.687805	-0.213194
C66	C	1.644835	1.021139	0.120139
C67	C	0.978186	0.354450	-0.628327
C68	C	1.311519	0.687784	-0.294993
C69	C	1.644853	1.021117	0.038340
C70	C	0.691701	0.401648	-0.401538
C71	C	1.025034	0.734981	-0.068205
C72	C	1.358368	1.068315	0.265128
C73	C	0.621012	0.401649	-0.401549
C74	C	0.954346	0.734983	-0.068215
C75	C	1.287679	1.068316	0.265118
C76	C	0.585664	0.354526	-0.354575
C77	C	0.918997	0.687859	-0.021241
C78	C	1.252330	1.021193	0.312092
C79	C	0.621007	0.307393	-0.307592
C80	C	0.954340	0.640727	0.025741
C81	C	1.287674	0.974060	0.359075
C82	C	0.691694	0.307389	-0.307586
C83	C	1.025028	0.640722	0.025747
C84	C	1.358361	0.974056	0.359081
C85	C	0.335934	0.307410	-0.307616
C86	C	0.669267	0.640743	0.025717
C87	C	1.002600	0.974076	0.359050
C88	C	0.265242	0.307419	-0.307625
C89	C	0.598575	0.640753	0.025709
C90	C	0.931908	0.974086	0.359042
C91	C	0.265252	0.401670	-0.401579
C92	C	0.598585	0.735003	-0.068246
C93	C	0.931919	1.068337	0.265087
C94	C	0.335939	0.401666	-0.401573
C95	C	0.669272	0.734999	-0.068240
C96	C	1.002606	1.068332	0.265094
C97	C	0.371276	0.354530	-0.354594
C98	C	0.704610	0.687864	-0.021260
C99	C	1.037943	1.021197	0.312073
C100	C	0.447925	0.354529	-0.354584
C101	C	0.781258	0.687862	-0.021251
C102	C	1.114591	1.021195	0.312083
C103	C	0.509017	0.354531	-0.354580
C104	C	0.842350	0.687864	-0.021247
C105	C	1.175683	1.021198	0.312087
C106	C	1.154670	0.354537	-0.354599
C107	C	1.488003	0.687871	-0.021266
C108	C	1.821337	1.021204	0.312068
C109	C	1.229902	0.354544	-0.354609
C110	C	1.563235	0.687877	-0.021276
C111	C	1.896569	1.021210	0.312057
C112	C	0.978217	0.162570	-0.354626
C113	C	1.311551	0.495903	-0.021293
C114	C	1.644884	0.829236	0.312040
C115	C	0.978256	0.080771	-0.354648
C116	C	1.311589	0.414104	-0.021315
C117	C	1.644923	0.747438	0.312018
C118	C	1.021469	0.815713	-0.307572
C119	C	1.354802	1.149047	0.025761
C120	C	1.688136	1.482380	0.359095
C121	C	1.021499	0.892572	-0.307590
C122	C	1.354833	1.225905	0.025744
C123	C	1.688166	1.559239	0.359077
C124	C	0.934872	0.892580	-0.401630
C125	C	1.268205	1.225913	-0.068297
C126	C	1.601539	1.559247	0.265037
C127	C	0.934846	0.815723	-0.401615
C128	C	1.268179	1.149056	-0.068282
C129	C	1.601512	1.482389	0.265051
C130	C	0.978143	0.777291	-0.354582
C131	C	1.311477	1.110625	-0.021249
C132	C	1.644810	1.443958	0.312084
C133	C	0.978200	0.931007	-0.354615
C134	C	1.311533	1.264341	-0.021281
C135	C	1.644867	1.597674	0.312052
C136	C	0.978232	1.014341	-0.354634
C137	C	1.311566	1.347674	-0.021301
C138	C	1.644899	1.681008	0.312032
C139	C	0.978112	0.693952	-0.354563
C140	C	1.311445	1.027286	-0.021230
C141	C	1.644778	1.360619	0.312103
C142	C	1.021514	0.307341	-0.816540
C143	C	1.354848	0.640674	-0.483207
C144	C	1.688181	0.974007	-0.149874
C145	C	1.021522	0.307319	-0.893399
C146	C	1.354856	0.640653	-0.560066
C147	C	1.688189	0.973986	-0.226732
C148	C	0.934906	0.401446	-0.893351
C149	C	1.268239	0.734780	-0.560017
C150	C	1.601573	1.068113	-0.226684
C151	C	0.934895	0.401463	-0.816493
C152	C	1.268228	0.734797	-0.483160
C153	C	1.601562	1.068130	-0.149827
C154	C	0.978203	0.354412	-0.778090
C155	C	1.311536	0.687745	-0.444757
C156	C	1.644870	1.021078	-0.111423
C157	C	0.978222	0.354373	-0.931806
C158	C	1.311555	0.687706	-0.598473
C159	C	1.644889	1.021040	-0.265140
C160	C	0.978230	0.354350	-1.015140
C161	C	1.311564	0.687684	-0.681807
C162	C	1.644897	1.021017	-0.348473
C163	C	0.978194	0.354433	-0.694751
C164	C	1.311527	0.687767	-0.361418
C165	C	1.644860	1.021100	-0.028084
C166	C	0.978125	0.354520	-0.163368
C167	C	1.311459	0.687854	0.169965
C168	C	1.644792	1.021187	0.503298
C169	C	0.978239	0.354334	-0.081570
C170	C	1.311572	0.687668	0.251763
C171	C	1.644905	1.021001	0.585097
H172	H	0.592243	0.440026	-0.439804
H173	H	0.925576	0.773359	-0.106471
H174	H	1.258910	1.106693	0.226862
H175	H	1.056781	0.923852	-0.269310
H176	H	1.390114	1.257185	0.064023
H177	H	1.723447	1.590519	0.397356
C178	C	0.887242	0.934857	-0.453355
C179	C	1.220575	1.268190	-0.120021
C180	C	1.553909	1.601523	0.213312
H181	H	0.893457	0.986133	-0.446626
H182	H	1.226790	1.319467	-0.113292
H183	H	1.560123	1.652800	0.220041
H184	H	0.897112	0.922219	-0.502811
H185	H	1.230445	1.255552	-0.169477
H186	H	1.563778	1.588886	0.163856
H187	H	0.841765	0.922306	-0.442526
H188	H	1.175099	1.255639	-0.109192
H189	H	1.508432	1.588973	0.224141
H190	H	0.899564	0.784437	-0.439900
H191	H	1.232898	1.117771	-0.106567
H192	H	1.566231	1.451104	0.226766
C193	C	1.069168	0.255545	-0.935691
C194	C	1.402501	0.588878	-0.602358
C195	C	1.735835	0.922211	-0.269025
H196	H	1.094961	0.227531	-0.901810
H197	H	1.428294	0.560864	-0.568477
H198	H	1.761627	0.894198	-0.235143
H199	H	1.043298	0.223469	-0.965677
H200	H	1.376631	0.556802	-0.632344
H201	H	1.709964	0.890135	-0.299011
H202	H	1.098652	0.283697	-0.965671
H203	H	1.431985	0.617030	-0.632337
H204	H	1.765319	0.950364	-0.299004
C205	C	0.374796	0.255576	-0.255929
C206	C	0.708129	0.588909	0.077405
C207	C	1.041463	0.922243	0.410738
H208	H	0.343618	0.227522	-0.227947
H209	H	0.676951	0.560855	0.105387
H210	H	1.010284	0.894188	0.438720
H211	H	0.402397	0.223540	-0.284126
H212	H	0.735730	0.556873	0.049207
H213	H	1.069063	0.890207	0.382540
H214	H	0.402344	0.283695	-0.223809
H215	H	0.735678	0.617028	0.109525
H216	H	1.069011	0.950362	0.442858
C217	C	1.069142	0.255577	-0.774299
C218	C	1.402475	0.588911	-0.440966
C219	C	1.735809	0.922244	-0.107632
H220	H	1.094932	0.227535	-0.808209
H221	H	1.428265	0.560868	-0.474876
H222	H	1.761599	0.894202	-0.141543
H223	H	1.098619	0.283731	-0.744312
H224	H	1.431953	0.617064	-0.410979
H225	H	1.765286	0.950397	-0.077646
H226	H	1.043252	0.223516	-0.744325
H227	H	1.376585	0.556850	-0.410991
H228	H	1.709919	0.890183	-0.077658
H229	H	0.899621	0.439794	-0.785186
H230	H	1.232954	0.773127	-0.451853
H231	H	1.566287	1.106460	-0.118520
C232	C	0.730578	0.453483	-0.453212
C233	C	1.063912	0.786817	-0.119879
C234	C	1.397245	1.120150	0.213455
H235	H	0.699405	0.481545	-0.481198
H236	H	1.032739	0.814879	-0.147865
H237	H	1.366072	1.148212	0.185469
H238	H	0.758132	0.485512	-0.425003
H239	H	1.091465	0.818845	-0.091669
H240	H	1.424799	1.152178	0.241664
H241	H	0.758174	0.425365	-0.485329
H242	H	1.091508	0.758698	-0.151996
H243	H	1.424841	1.092032	0.181338
C244	C	0.374819	0.453498	-0.453247
C245	C	0.708152	0.786832	-0.119914
C246	C	1.041486	1.120165	0.213420
H247	H	0.343648	0.481562	-0.481234
H248	H	0.676981	0.814895	-0.147901
H249	H	1.010315	1.148228	0.185432
H250	H	0.402374	0.485526	-0.425038
H251	H	0.735707	0.818859	-0.091704
H252	H	1.069041	1.152192	0.241629
H253	H	0.402414	0.425378	-0.485362
H254	H	0.735748	0.758711	-0.152029
H255	H	1.069081	1.092044	0.181304
H256	H	0.592221	0.269022	-0.269348
H257	H	0.925554	0.602355	0.063985
H258	H	1.258887	0.935688	0.397319
C259	C	0.887275	0.453206	-0.935593
C260	C	1.220608	0.786539	-0.602260
C261	C	1.553942	1.119872	-0.268926
H262	H	0.861475	0.481238	-0.901683
H263	H	1.194808	0.814571	-0.568350
H264	H	1.528141	1.147904	-0.235017
H265	H	0.913157	0.485265	-0.965570
H266	H	1.246491	0.818599	-0.632237
H267	H	1.579824	1.151932	-0.298904
H268	H	0.857798	0.425043	-0.965577
H269	H	1.191131	0.758376	-0.632244
H270	H	1.524464	1.091709	-0.298910
C271	C	0.226379	0.453511	-0.453264
C272	C	0.559713	0.786845	-0.119931
C273	C	0.893046	1.120178	0.213403
H274	H	0.179218	0.446761	-0.446549
H275	H	0.512551	0.780095	-0.113215
H276	H	0.845884	1.113428	0.220118
H277	H	0.237942	0.502943	-0.442402
H278	H	0.571275	0.836276	-0.109069
H279	H	0.904608	1.169610	0.224265
H280	H	0.237991	0.442799	-0.502731
H281	H	0.571324	0.776133	-0.169398
H282	H	0.904658	1.109466	0.163935
H283	H	0.236463	0.269041	-0.269372
H284	H	0.569796	0.602375	0.063961
H285	H	0.903129	0.935708	0.397294
H286	H	0.720466	0.269009	-0.269334
H287	H	1.053799	0.602342	0.064000
H288	H	1.387133	0.935675	0.397333
H289	H	1.056726	0.784424	-0.269276
H290	H	1.390059	1.117758	0.064058
H291	H	1.723392	1.451091	0.397391
