data_functionalizedCrystal
_audit_creation_method	'MofGen! by Chris Wilmer'
_symmetry_space_group_name_H-M	'P1'
_symmetry_Int_Tables_number	1
_symmetry_cell_setting	triclinic
loop_
_symmetry_equiv_pos_as_xyz
  x,y,z
_cell_length_a	19.288864
_cell_length_b	10.489741
_cell_length_c	17.766277
_cell_angle_alpha	89.993969
_cell_angle_beta	89.976791
_cell_angle_gamma	83.837710
loop_
_atom_site_label
_atom_site_type_symbol
_atom_site_fract_x
_atom_site_fract_y
_atom_site_fract_z
O1	O	0.922420	0.159110	-0.062835
O2	O	0.720303	0.180573	-0.062784
O3	O	0.825961	-0.015860	-0.062806
O4	O	0.816763	0.355544	-0.062813
O5	O	0.825942	-0.015870	0.062382
O6	O	0.720285	0.180564	0.062405
O7	O	0.922401	0.159100	0.062353
Cu8	Cu	0.821341	0.169831	0.073810
Cu9	Cu	0.821363	0.169843	-0.074240
O10	O	0.816744	0.355534	0.062375
C11	C	0.694413	0.179878	-0.000183
C12	C	0.617295	0.177805	-0.000163
C13	C	0.573372	0.293063	-0.000177
C14	C	0.500912	0.291115	-0.000186
C15	C	0.472378	0.173903	-0.000195
C16	C	0.516311	0.058629	-0.000177
C17	C	0.588770	0.060580	-0.000161
C18	C	0.363505	0.081764	-0.044078
C19	C	0.291047	0.079818	-0.044098
C20	C	0.248892	0.167880	-0.000240
C21	C	0.279202	0.257911	0.043628
C22	C	0.351661	0.259862	0.043644
C23	C	0.393810	0.171774	-0.000212
C24	C	0.126399	0.281035	-0.000262
C25	C	0.053938	0.279082	-0.000266
C26	C	0.069339	0.046593	-0.000265
C27	C	0.141798	0.048549	-0.000254
C28	C	0.170324	0.165773	-0.000256
C29	C	0.825257	-0.063381	-0.000212
C30	C	0.823178	-0.204964	-0.000213
C31	C	0.755951	-0.271583	-0.000202
C32	C	0.787699	-0.364429	0.061515
C33	C	0.787734	-0.364394	-0.061911
C34	C	0.854954	-0.295944	0.061554
C35	C	0.854979	-0.295900	-0.061927
C36	C	0.886776	-0.388719	-0.000196
C37	C	0.948292	0.159796	-0.000249
C38	C	1.025409	0.161869	-0.000274
C39	C	0.817448	0.403055	-0.000220
C40	C	0.819526	0.544637	-0.000224
N41	N	0.821331	0.169822	0.177940
N42	N	0.821379	0.169842	-0.178371
C43	C	0.868131	0.082883	0.217317
C44	C	0.868135	0.082878	0.296119
C45	C	0.821345	0.169832	0.335540
C46	C	0.774536	0.256777	0.296154
C47	C	0.774528	0.256772	0.217354
C48	C	0.812826	0.286045	0.460378
C49	C	0.812838	0.286051	0.539177
C50	C	0.821364	0.169847	0.578587
C51	C	0.829892	0.053631	0.539188
C52	C	0.829885	0.053626	0.460388
C53	C	0.821348	0.169847	0.420986
C54	C	0.868171	0.082895	0.703410
C55	C	0.868171	0.082888	0.782213
C56	C	0.774575	0.256798	0.782247
C57	C	0.774572	0.256795	0.703445
C58	C	0.821374	0.169845	0.664031
H59	H	0.397823	0.010050	-0.079797
H60	H	0.624533	-0.033280	-0.000150
H61	H	0.883408	-0.265494	-0.114121
H62	H	0.018175	0.372944	-0.000273
H63	H	0.376336	0.333164	0.079366
H64	H	0.736417	0.327569	0.185292
H65	H	0.736475	0.327593	0.814343
Br66	Br	0.801324	0.443768	0.406901
Br67	Br	0.441290	0.447548	-0.000200
Br68	Br	0.222001	0.377437	0.103151
Br69	Br	0.740317	-0.414963	-0.148869
Br70	Br	0.477590	-0.100446	-0.000182
H71	H	0.906247	0.012079	0.328185
Br72	Br	0.931644	-0.035121	0.163826
Br73	Br	0.841452	-0.104086	0.406921
H74	H	0.149625	0.376486	-0.000253
H75	H	0.836835	-0.040993	0.571274
Br76	Br	0.931685	-0.035111	0.649917
H77	H	0.046108	-0.048844	-0.000319
H78	H	0.266375	0.006515	-0.079822
H79	H	0.700678	-0.220682	-0.000125
H80	H	0.759246	-0.394801	0.113706
Br81	Br	0.201413	-0.107882	-0.000237
Br82	Br	0.902314	-0.245645	0.148614
H83	H	0.906279	0.012085	0.814274
Br84	Br	0.978983	-0.473186	-0.000168
Br85	Br	0.711056	0.374792	0.649999
H86	H	0.596592	0.388516	-0.000181
H87	H	0.805898	0.380681	0.571249
Br88	Br	0.711029	0.374779	0.349652
