data_functionalizedCrystal
_audit_creation_method	'MofGen! by Chris Wilmer'
_symmetry_space_group_name_H-M	'P1'
_symmetry_Int_Tables_number	1
_symmetry_cell_setting	triclinic
loop_
_symmetry_equiv_pos_as_xyz
  x,y,z
_cell_length_a	19.121102
_cell_length_b	21.395361
_cell_length_c	21.395355
_cell_angle_alpha	90.021511
_cell_angle_beta	87.537207
_cell_angle_gamma	92.415181
loop_
_atom_site_label
_atom_site_type_symbol
_atom_site_fract_x
_atom_site_fract_y
_atom_site_fract_z
Zn1	Zn	1.073732	0.290447	-0.395057
Zn2	Zn	1.573732	0.790447	0.104943
Zn3	Zn	1.073623	0.395203	-0.290270
Zn4	Zn	1.573623	0.895203	0.209730
Zn5	Zn	0.956271	0.285969	-0.285830
Zn6	Zn	1.456271	0.785969	0.214170
Zn7	Zn	0.956237	0.390711	-0.390549
Zn8	Zn	1.456237	0.890711	0.109451
O9	O	1.014966	0.340582	-0.340426
O10	O	1.514966	0.840582	0.159574
O11	O	1.172002	0.308097	-0.384902
O12	O	1.672002	0.808097	0.115098
O13	O	1.058025	0.380718	-0.202002
O14	O	1.558025	0.880718	0.297998
O15	O	0.971913	0.198887	-0.300347
O16	O	1.471913	0.698887	0.199653
O17	O	1.171922	0.385060	-0.307915
O18	O	1.671922	0.885060	0.192085
O19	O	1.058211	0.202177	-0.380596
O20	O	1.558211	0.702177	0.119404
O21	O	0.971807	0.300465	-0.198739
O22	O	1.471807	0.800465	0.301261
O23	O	0.857982	0.296109	-0.295976
O24	O	1.357982	0.796109	0.204024
O25	O	0.971854	0.377405	-0.478826
O26	O	1.471854	0.877405	0.021174
O27	O	0.857957	0.373063	-0.372912
O28	O	1.357957	0.873063	0.127088
O29	O	1.058177	0.303742	-0.482138
O30	O	1.558177	0.803742	0.017862
O31	O	1.057991	0.482282	-0.303544
O32	O	1.557991	0.982282	0.196456
O33	O	0.971748	0.478983	-0.377218
O34	O	1.471748	0.978983	0.122782
C35	C	0.832486	0.333613	-0.333473
C36	C	1.332486	0.833613	0.166527
C37	C	0.754420	0.330647	-0.330514
C38	C	1.254420	0.830647	0.169486
C39	C	1.014873	0.503367	-0.340388
C40	C	1.514873	1.003367	0.159612
C41	C	1.014898	0.573009	-0.340395
C42	C	1.514898	1.073009	0.159605
C43	C	1.015024	0.340572	-0.503852
C44	C	1.515024	0.840572	-0.003852
C45	C	1.015049	0.340568	-0.573494
C46	C	1.515049	0.840568	-0.073494
C47	C	0.717749	0.369380	-0.369117
C48	C	1.217749	0.869380	0.130883
C49	C	0.644398	0.366584	-0.366339
C50	C	1.144398	0.866584	0.133661
C51	C	0.607719	0.325059	-0.324954
C52	C	1.107719	0.825059	0.175046
C53	C	0.644394	0.286322	-0.286349
C54	C	1.144394	0.786322	0.213651
C55	C	0.717744	0.289115	-0.289131
C56	C	1.217744	0.789115	0.210869
C57	C	0.386250	0.314617	-0.314558
C58	C	0.886250	0.814617	0.185442
C59	C	0.312895	0.311828	-0.311778
C60	C	0.812895	0.811828	0.188222
C61	C	0.312904	0.392090	-0.391769
C62	C	0.812904	0.892090	0.108231
C63	C	0.386255	0.394881	-0.394544
C64	C	0.886255	0.894881	0.105456
C65	C	0.422924	0.356142	-0.355942
C66	C	0.922924	0.856142	0.144058
C67	C	0.532742	0.322202	-0.322112
C68	C	1.032742	0.822202	0.177888
C69	C	0.497899	0.358996	-0.358787
C70	C	0.997899	0.858996	0.141213
C71	C	1.198158	0.347579	-0.347407
C72	C	1.698158	0.847579	0.152593
C73	C	1.276224	0.350561	-0.350381
C74	C	1.776224	0.850561	0.149619
C75	C	1.015078	0.177163	-0.340479
C76	C	1.515078	0.677163	0.159521
C77	C	1.015126	0.107524	-0.340502
C78	C	1.515126	0.607524	0.159498
C79	C	1.059844	0.607421	-0.302075
C80	C	1.559844	1.107421	0.197925
C81	C	1.059877	0.672857	-0.302090
C82	C	1.559877	1.172857	0.197910
C83	C	1.014950	0.703879	-0.340418
C84	C	1.514950	1.203879	0.159582
C85	C	0.970001	0.669459	-0.378746
C86	C	1.470001	1.169459	0.121254
C87	C	0.969974	0.604024	-0.378734
C88	C	1.469974	1.104024	0.121266
C89	C	0.951711	0.805183	-0.342925
C90	C	1.451711	1.305183	0.157075
C91	C	0.951736	0.870617	-0.342932
C92	C	1.451736	1.370617	0.157068
C93	C	1.015032	0.905703	-0.340458
C94	C	1.515032	1.405703	0.159542
C95	C	1.078305	0.875347	-0.337964
C96	C	1.578305	1.375347	0.162036
C97	C	1.078278	0.809912	-0.337952
C98	C	1.578278	1.309912	0.162048
C99	C	1.014974	0.774832	-0.340436
C100	C	1.514974	1.274832	0.159564
C101	C	1.060018	1.011069	-0.302153
C102	C	1.560018	1.511069	0.197847
C103	C	1.060052	1.076507	-0.302173
C104	C	1.560052	1.576507	0.197827
C105	C	0.970169	1.073107	-0.378825
C106	C	1.470169	1.573107	0.121175
C107	C	0.970142	1.007670	-0.378808
C108	C	1.470142	1.507670	0.121192
C109	C	1.015065	0.976655	-0.340469
C110	C	1.515065	1.476655	0.159531
C111	C	1.059996	0.302209	-0.607933
C112	C	1.559996	0.802209	-0.107933
C113	C	1.059995	0.302182	-0.673368
C114	C	1.559995	0.802182	-0.173368
C115	C	1.015054	0.340525	-0.704363
C116	C	1.515054	0.840525	-0.204363
C117	C	0.970099	0.378886	-0.669916
C118	C	1.470099	0.878886	-0.169916
C119	C	0.970096	0.378907	-0.604481
C120	C	1.470096	0.878907	-0.104481
C121	C	1.009476	0.396728	-0.807813
C122	C	1.509476	0.896728	-0.307813
C123	C	1.009484	0.396708	-0.873247
C124	C	1.509484	0.896708	-0.373247
C125	C	1.015059	0.340459	-0.906184
C126	C	1.515059	0.840459	-0.406184
C127	C	1.020640	0.284229	-0.873680
C128	C	1.520640	0.784229	-0.373680
C129	C	1.020638	0.284250	-0.808246
C130	C	1.520638	0.784250	-0.308246
C131	C	1.015052	0.340506	-0.775315
C132	C	1.515052	0.840506	-0.275315
C133	C	1.060007	0.302068	-1.011575
C134	C	1.560007	0.802068	-0.511575
C135	C	1.060001	0.302040	-1.077012
C136	C	1.560001	0.802040	-0.577012
C137	C	0.970109	0.378749	-1.073558
C138	C	1.470109	0.878749	-0.573558
C139	C	0.970111	0.378772	-1.008123
C140	C	1.470111	0.878772	-0.508123
C141	C	1.015064	0.340432	-0.977135
C142	C	1.515064	0.840432	-0.477135
C143	C	1.014948	0.340549	-0.177638
C144	C	1.514948	0.840549	0.322362
C145	C	1.015059	0.340382	-0.108001
C146	C	1.515059	0.840382	0.391999
H147	H	0.747609	0.403196	-0.402815
H148	H	1.247609	0.903196	0.097185
O149	O	1.004018	0.451423	-0.775917
O150	O	1.504018	0.951423	-0.275917
C151	C	0.999045	0.501040	-0.818632
C152	C	1.499045	1.001040	-0.318632
H153	H	1.022719	0.487126	-0.866170
H154	H	1.522719	0.987126	-0.366170
H155	H	1.028768	0.544327	-0.800841
H156	H	1.528768	1.044327	-0.300841
H157	H	0.941629	0.511789	-0.823426
H158	H	1.441629	1.011789	-0.323426
H159	H	0.933539	0.979650	-0.410009
H160	H	1.433539	1.479650	0.089991
O161	O	1.103623	0.981003	-0.264829
O162	O	1.603623	1.481003	0.235171
C163	C	1.088304	0.996445	-0.201790
C164	C	1.588304	1.496445	0.298210
H165	H	1.061329	1.042951	-0.199453
H166	H	1.561329	1.542951	0.300547
H167	H	1.139009	1.000588	-0.175664
H168	H	1.639009	1.500588	0.324336
H169	H	1.052187	0.958285	-0.179277
H170	H	1.552187	1.458285	0.320723
O171	O	1.103841	1.109845	-0.264985
O172	O	1.603841	1.609845	0.235015
C173	C	1.173810	1.096428	-0.281427
C174	C	1.673810	1.596428	0.218573
H175	H	1.175184	1.048965	-0.305576
H176	H	1.675184	1.548965	0.194424
H177	H	1.205340	1.095352	-0.237441
H178	H	1.705340	1.595352	0.262559
H179	H	1.197484	1.134117	-0.314557
H180	H	1.697484	1.634117	0.185443
O181	O	0.533603	0.399249	-0.399021
O182	O	1.033603	0.899249	0.100979
C183	C	0.576061	0.365252	-0.441175
C184	C	1.076061	0.865252	0.058825
H185	H	0.587055	0.318153	-0.419585
H186	H	1.087055	0.818153	0.080415
H187	H	0.627636	0.392745	-0.451474
H188	H	1.127636	0.892745	0.048526
H189	H	0.547827	0.357368	-0.486551
H190	H	1.047827	0.857368	0.013449
H191	H	0.900164	0.776622	-0.344942
H192	H	1.400164	1.276622	0.155058
H193	H	0.933515	0.410011	-0.980082
H194	H	1.433515	0.910011	-0.480082
H195	H	0.933422	0.694721	-0.409954
H196	H	1.433422	1.194721	0.090046
H197	H	0.933492	0.410142	-0.576441
H198	H	1.433492	0.910142	-0.076441
O199	O	1.004199	0.451329	-0.904846
O200	O	1.504199	0.951329	-0.404846
C201	C	1.063984	0.461666	-0.944991
C202	C	1.563984	0.961666	-0.444991
H203	H	1.109161	0.434637	-0.927005
H204	H	1.609161	0.934637	-0.427005
H205	H	1.079236	0.513751	-0.946306
H206	H	1.579236	1.013751	-0.446306
H207	H	1.051898	0.444970	-0.994124
H208	H	1.551898	0.944970	-0.494124
H209	H	0.933511	0.409962	-1.098793
H210	H	1.433511	0.909962	-0.598793
H211	H	0.283040	0.423628	-0.423198
H212	H	0.783040	0.923628	0.076802
H213	H	0.502870	0.288393	-0.288415
H214	H	1.002870	0.788393	0.211585
H215	H	0.283032	0.278006	-0.278081
H216	H	0.783032	0.778006	0.221919
H217	H	0.614544	0.398125	-0.397774
H218	H	1.114544	0.898125	0.102226
H219	H	0.416114	0.428697	-0.428243
H220	H	0.916114	0.928697	0.071757
O221	O	0.926480	0.416222	-0.699953
O222	O	1.426480	0.916222	-0.199953
C223	C	0.941796	0.479259	-0.684557
C224	C	1.441796	0.979259	-0.184557
H225	H	0.968791	0.481603	-0.638082
H226	H	1.468791	0.981603	-0.138082
H227	H	0.891087	0.505417	-0.680372
H228	H	1.391087	1.005417	-0.180372
H229	H	0.977893	0.501731	-0.722766
H230	H	1.477893	1.001731	-0.222766
H231	H	0.900216	0.895328	-0.344957
H232	H	1.400216	1.395328	0.155043
O233	O	1.139801	0.780523	-0.335561
O234	O	1.639801	1.280523	0.164439
C235	C	1.195676	0.825515	-0.333363
C236	C	1.695676	1.325515	0.166637
H237	H	1.179058	0.871529	-0.353777
H238	H	1.679058	1.371529	0.146223
H239	H	1.242858	0.808353	-0.361806
H240	H	1.742858	1.308353	0.138194
H241	H	1.210295	0.833044	-0.282731
H242	H	1.710295	1.333044	0.217269
H243	H	1.096594	0.270943	-0.701414
H244	H	1.596594	0.770943	-0.201414
O245	O	0.421755	0.276962	-0.276998
O246	O	0.921755	0.776962	0.223002
C247	C	0.373649	0.239703	-0.239887
C248	C	0.873649	0.739703	0.260113
H249	H	0.321352	0.263378	-0.235684
H250	H	0.821352	0.763378	0.264316
H251	H	0.394817	0.233745	-0.191338
H252	H	0.894817	0.733745	0.308662
H253	H	0.365880	0.191859	-0.262630
H254	H	0.865880	0.691859	0.237370
O255	O	0.608733	0.246071	-0.246083
O256	O	1.108733	0.746071	0.253917
C257	C	0.566248	0.280063	-0.203947
C258	C	1.066248	0.780063	0.296053
H259	H	0.588325	0.330244	-0.200818
H260	H	1.088325	0.830244	0.299182
H261	H	0.565396	0.257295	-0.155740
H262	H	1.065396	0.757295	0.344260
H263	H	0.510668	0.280136	-0.221209
H264	H	1.010668	0.780136	0.278791
O265	O	0.753259	0.251470	-0.251564
O266	O	1.253259	0.751470	0.248436
C267	C	0.705159	0.214210	-0.214449
C268	C	1.205159	0.714210	0.285551
H269	H	0.652857	0.237878	-0.210251
H270	H	1.152857	0.737878	0.289749
H271	H	0.726326	0.208262	-0.165899
H272	H	1.226326	0.708262	0.334101
H273	H	0.697398	0.166362	-0.237185
H274	H	1.197398	0.666362	0.262815
O275	O	0.926243	0.570687	-0.415975
O276	O	1.426243	1.070687	0.084025
C277	C	0.886610	0.612096	-0.449824
C278	C	1.386610	1.112096	0.050176
H279	H	0.884211	0.658666	-0.424078
H280	H	1.384211	1.158666	0.075922
H281	H	0.831261	0.591121	-0.454356
H282	H	1.331261	1.091121	0.045644
H283	H	0.912308	0.619985	-0.498408
H284	H	1.412308	1.119985	0.001592
O285	O	1.103555	0.577394	-0.264823
O286	O	1.603555	1.077394	0.235177
C287	C	1.143222	0.621804	-0.230994
C288	C	1.643222	1.121804	0.269006
H289	H	1.145653	0.668525	-0.256758
H290	H	1.645653	1.168525	0.243242
H291	H	1.198557	0.604970	-0.226458
H292	H	1.698557	1.104970	0.273542
H293	H	1.117533	0.627827	-0.182411
H294	H	1.617533	1.127827	0.317589
H295	H	1.096480	0.700881	-0.270886
H296	H	1.596480	1.200881	0.229114
O297	O	1.103678	0.264904	-0.577930
O298	O	1.603678	0.764904	-0.077930
C299	C	1.143362	0.231053	-0.622365
C300	C	1.643362	0.731053	-0.122365
H301	H	1.114598	0.227772	-0.667906
H302	H	1.614598	0.727772	-0.167906
H303	H	1.150888	0.181980	-0.603752
H304	H	1.650888	0.681980	-0.103752
H305	H	1.196688	0.256033	-0.631367
H306	H	1.696688	0.756033	-0.131367
O307	O	1.139791	0.909445	-0.335679
O308	O	1.639791	1.409445	0.164321
C309	C	1.148816	0.947607	-0.389372
C310	C	1.648816	1.447607	0.110628
H311	H	1.116545	0.926660	-0.428401
H312	H	1.616545	1.426660	0.071599
H313	H	1.206541	0.950488	-0.405253
H314	H	1.706541	1.450488	0.094747
H315	H	1.130659	0.996529	-0.377881
H316	H	1.630659	1.496529	0.122119
O317	O	0.926552	1.103331	-0.416001
O318	O	1.426552	1.603331	0.083999
C319	C	0.936228	1.168466	-0.407810
C320	C	1.436228	1.668466	0.092190
H321	H	0.959258	1.178291	-0.360352
H322	H	1.459258	1.678291	0.139648
H323	H	0.883629	1.191371	-0.410026
H324	H	1.383629	1.691371	0.089974
H325	H	0.973621	1.188407	-0.446429
H326	H	1.473621	1.688407	0.053571
O327	O	1.026027	0.229574	-0.776767
O328	O	1.526027	0.729574	-0.276767
C329	C	1.030967	0.179921	-0.819864
C330	C	1.530967	0.679921	-0.319864
H331	H	1.007361	0.193835	-0.865604
H332	H	1.507361	0.693835	-0.365604
H333	H	1.001162	0.136679	-0.799814
H334	H	1.501162	0.636679	-0.299814
H335	H	1.088371	0.169098	-0.829022
H336	H	1.588371	0.669098	-0.329022
O337	O	1.025919	0.229582	-0.905684
O338	O	1.525919	0.729582	-0.405684
C339	C	0.966136	0.219225	-0.941243
C340	C	1.466136	0.719225	-0.441243
H341	H	0.920960	0.246270	-0.919788
H342	H	1.420960	0.746270	-0.419788
H343	H	0.950878	0.167140	-0.941392
H344	H	1.450878	0.667140	-0.441392
H345	H	0.978226	0.235887	-0.991302
H346	H	1.478226	0.735887	-0.491302
O347	O	1.103688	0.264763	-0.981567
O348	O	1.603688	0.764763	-0.481567
C349	C	1.143367	0.230906	-1.025999
C350	C	1.643367	0.730906	-0.525999
H351	H	1.114601	0.227622	-1.071539
H352	H	1.614601	0.727622	-0.571539
H353	H	1.150891	0.181835	-1.007383
H354	H	1.650891	0.681835	-0.507383
H355	H	1.196694	0.255883	-1.035005
H356	H	1.696694	0.755883	-0.535005
O357	O	1.103561	0.264700	-1.110489
O358	O	1.603561	0.764700	-0.610489
C359	C	1.063603	0.222699	-1.146813
C360	C	1.563603	0.722699	-0.646813
H361	H	1.008289	0.216726	-1.124971
H362	H	1.508289	0.716726	-0.624971
H363	H	1.089039	0.175453	-1.148528
H364	H	1.589039	0.675453	-0.648528
H365	H	1.061171	0.241956	-1.196313
H366	H	1.561171	0.741956	-0.696313
