data_functionalizedCrystal
_audit_creation_method	'MofGen! by Chris Wilmer'
_symmetry_space_group_name_H-M	'P1'
_symmetry_Int_Tables_number	1
_symmetry_cell_setting	triclinic
loop_
_symmetry_equiv_pos_as_xyz
  x,y,z
_cell_length_a	9.065215
_cell_length_b	11.026607
_cell_length_c	8.140239
_cell_angle_alpha	89.998310
_cell_angle_beta	89.997810
_cell_angle_gamma	96.800357
loop_
_atom_site_label
_atom_site_type_symbol
_atom_site_fract_x
_atom_site_fract_y
_atom_site_fract_z
O1	O	2.004898	0.178436	-0.136589
O2	O	1.579264	0.193077	-0.136596
O3	O	1.756804	0.008716	-0.136587
O4	O	1.827357	0.362797	-0.136598
O5	O	1.756791	0.008714	0.136640
O6	O	1.579250	0.193075	0.136631
O7	O	2.004885	0.178434	0.136638
Zn8	Zn	1.792065	0.185754	0.180015
Zn9	Zn	1.792083	0.185757	-0.179973
O10	O	1.827344	0.362795	0.136629
C11	C	1.523920	0.191670	0.000017
C12	C	1.359028	0.187465	0.000014
C13	C	1.743782	-0.036639	0.000024
C14	C	1.704982	-0.171779	0.000018
C15	C	1.812116	-0.244408	0.000017
C16	C	1.772017	-0.384083	0.000011
C17	C	2.060229	0.179841	0.000022
C18	C	2.225120	0.184046	0.000014
C19	C	1.840366	0.408150	0.000014
C20	C	1.879166	0.543290	0.000010
N21	N	1.792064	0.185751	0.425698
N22	N	1.792093	0.185750	-0.425656
H23	H	1.650601	-0.425302	-0.000002
N24	N	2.039999	-0.402129	0.000000
H25	H	2.045851	-0.310087	0.000002
H26	H	2.090853	-0.429957	0.101289
H27	H	1.933523	-0.203183	0.000029
H28	H	1.583575	-0.213004	0.000005
