data_functionalizedCrystal
_audit_creation_method	'MofGen! by Chris Wilmer'
_symmetry_space_group_name_H-M	'P1'
_symmetry_Int_Tables_number	1
_symmetry_cell_setting	triclinic
loop_
_symmetry_equiv_pos_as_xyz
  x,y,z
_cell_length_a	27.731993
_cell_length_b	14.853567
_cell_length_c	13.930277
_cell_angle_alpha	89.999243
_cell_angle_beta	89.995673
_cell_angle_gamma	96.872339
loop_
_atom_site_label
_atom_site_type_symbol
_atom_site_fract_x
_atom_site_fract_y
_atom_site_fract_z
O1	O	0.641447	-0.107035	0.079565
O2	O	0.500726	-0.123397	0.079623
O3	O	0.574845	0.016076	0.079595
O4	O	0.567328	-0.246508	0.079593
O5	O	0.574835	0.016079	-0.080067
O6	O	0.500716	-0.123394	-0.080039
O7	O	0.641437	-0.107032	-0.080097
Zn8	Zn	0.571075	-0.115213	-0.105418
Zn9	Zn	0.571088	-0.115216	0.104944
O10	O	0.567317	-0.246505	-0.080069
C11	C	0.482712	-0.123060	-0.000201
C12	C	0.429051	-0.122048	-0.000179
C13	C	0.045862	-0.114719	0.086807
C14	C	0.247538	-0.118574	0.086833
O15	O	0.273618	-0.119038	0.160851
N16	N	0.272755	-0.119055	-0.000197
C17	C	0.247550	-0.118566	-0.087239
O18	O	0.273627	-0.119054	-0.161263
C19	C	0.045876	-0.114704	-0.087264
C20	C	0.020661	-0.114233	-0.000229
C21	C	0.020647	-0.114246	0.173835
C22	C	-0.029769	-0.113288	0.173828
C23	C	-0.054970	-0.112802	0.086792
C24	C	-0.029755	-0.113274	-0.000236
C25	C	0.020673	-0.114209	-0.174306
C26	C	-0.029749	-0.113241	-0.174304
C27	C	-0.054964	-0.112770	-0.087269
C28	C	-0.105373	-0.111829	-0.087279
N29	N	-0.130590	-0.111348	-0.000250
C30	C	-0.105388	-0.111835	0.086786
C31	C	0.353432	-0.120595	-0.087220
C32	C	0.403850	-0.121562	-0.087214
C33	C	0.403834	-0.121568	0.086858
C34	C	0.353415	-0.120608	0.086851
C35	C	0.328215	-0.120114	-0.000191
C36	C	-0.211266	-0.109822	0.086764
C37	C	-0.261687	-0.108867	0.086749
C38	C	-0.261666	-0.108856	-0.087323
C39	C	-0.211250	-0.109816	-0.087309
C40	C	-0.186051	-0.110296	-0.000257
O41	O	-0.131483	-0.111355	-0.161260
O42	O	-0.131472	-0.111326	0.160798
C43	C	0.096278	-0.115678	0.086814
C44	C	0.121493	-0.116150	-0.000214
C45	C	0.096292	-0.115664	-0.087250
C46	C	0.171911	-0.117117	-0.000208
C47	C	0.197113	-0.117604	0.086827
C48	C	0.171896	-0.117123	0.173857
C49	C	0.121480	-0.116164	0.173850
C50	C	0.121509	-0.116145	-0.174280
C51	C	0.171925	-0.117105	-0.174265
C52	C	0.197126	-0.117591	-0.087230
C53	C	0.574500	0.049661	-0.000233
C54	C	0.573479	0.149728	-0.000224
C55	C	0.659451	-0.107369	-0.000271
C56	C	0.713112	-0.108381	-0.000287
N57	N	0.571069	-0.115209	-0.248984
C58	C	0.567663	-0.280090	-0.000239
C59	C	0.568684	-0.380156	-0.000242
C60	C	0.525136	0.561457	-0.000222
C61	C	0.613191	0.584203	-0.000258
C62	C	0.614151	0.490185	-0.000253
C63	C	0.570602	0.431799	-0.000234
C64	C	0.526094	0.467431	-0.000220
C65	C	0.658658	0.454546	-0.000277
C66	C	0.659620	0.360523	-0.000272
C67	C	0.616071	0.302135	-0.000246
C68	C	0.571561	0.337772	-0.000232
C69	C	0.528012	0.279386	-0.000212
C70	C	0.483502	0.315021	-0.000191
C71	C	0.482545	0.409043	-0.000194
C72	C	0.617027	0.208114	-0.000243
C73	C	0.528971	0.185359	-0.000210
C74	C	0.538267	-0.176951	-0.701241
C75	C	0.603923	-0.053474	-0.701234
C76	C	0.603917	-0.053472	-0.600739
C77	C	0.571086	-0.115210	-0.550489
C78	C	0.538261	-0.176952	-0.600736
C79	C	0.636745	0.008263	-0.550485
C80	C	0.636741	0.008267	-0.449983
C81	C	0.603907	-0.053468	-0.399732
C82	C	0.571080	-0.115211	-0.449984
C83	C	0.538250	-0.176950	-0.399735
C84	C	0.505420	-0.238690	-0.449986
C85	C	0.505428	-0.238687	-0.550485
C86	C	0.603900	-0.053471	-0.299233
C87	C	0.538244	-0.176951	-0.299230
N88	N	0.571098	-0.115212	0.248510
H89	H	-0.050294	-0.112900	0.244701
H90	H	0.511507	-0.227223	-0.258323
H91	H	0.041161	-0.114639	0.244714
H92	H	0.332888	-0.120224	0.157723
H93	H	0.041194	-0.114590	-0.245180
C94	C	0.706558	0.518775	-0.000304
N95	N	0.742638	0.567158	-0.000324
C96	C	0.431565	-0.122096	0.182598
N97	N	0.452455	-0.122486	0.254706
H98	H	-0.050265	-0.112847	-0.245186
H99	H	0.448045	0.267471	-0.000182
C100	C	0.640035	0.014434	-0.756512
N101	N	0.667235	0.065588	-0.798151
H102	H	0.192423	-0.117524	0.244725
C103	C	0.469308	-0.306601	-0.394699
N104	N	0.442108	-0.357750	-0.353052
C105	C	0.708582	0.321333	-0.000289
N106	N	0.745460	0.291815	-0.000298
H107	H	0.446307	0.438066	-0.000177
H108	H	0.332919	-0.120190	-0.158104
C109	C	0.476176	0.600656	-0.000207
N110	N	0.439300	0.630182	-0.000200
H111	H	0.663477	0.058524	-0.591401
H112	H	0.493508	0.137826	-0.000190
H113	H	0.663472	0.058539	-0.409075
H114	H	0.648646	0.631746	-0.000282
C115	C	0.665986	0.168919	-0.000267
N116	N	0.702864	0.139399	-0.000283
H117	H	0.478699	-0.288954	-0.591405
C118	C	0.502153	-0.244855	-0.756517
N119	N	0.474951	-0.296000	-0.798152
H120	H	-0.282215	-0.108485	0.157627
C121	C	-0.183555	-0.110355	0.182525
N122	N	-0.162683	-0.110764	0.254652
H123	H	0.424375	-0.121961	-0.158087
C124	C	-0.183514	-0.110341	-0.183051
N125	N	-0.162625	-0.110728	-0.255167
C126	C	0.640010	0.014438	-0.243962
N127	N	0.667210	0.065593	-0.202333
H128	H	-0.282195	-0.108464	-0.158185
H129	H	0.100954	-0.115780	0.244723
H130	H	0.192450	-0.117496	-0.245145
C131	C	0.093793	-0.115626	-0.270031
N132	N	0.072919	-0.115246	-0.342158
