data_functionalizedCrystal
_audit_creation_method	'MofGen! by Chris Wilmer'
_symmetry_space_group_name_H-M	'P1'
_symmetry_Int_Tables_number	1
_symmetry_cell_setting	triclinic
loop_
_symmetry_equiv_pos_as_xyz
  x,y,z
_cell_length_a	19.188930
_cell_length_b	19.188930
_cell_length_c	17.666332
_cell_angle_alpha	90.011603
_cell_angle_beta	89.976766
_cell_angle_gamma	96.855221
loop_
_atom_site_label
_atom_site_type_symbol
_atom_site_fract_x
_atom_site_fract_y
_atom_site_fract_z
O1	O	0.926150	-0.087169	-0.063200
O2	O	1.176150	0.162831	0.186800
O3	O	1.426150	0.412831	0.436800
O4	O	1.676150	0.662831	0.686800
O5	O	0.722838	-0.098903	-0.063149
O6	O	0.972838	0.151097	0.186851
O7	O	1.222838	0.401097	0.436851
O8	O	1.472838	0.651097	0.686851
O9	O	0.830361	0.008620	-0.063161
O10	O	1.080361	0.258620	0.186839
O11	O	1.330361	0.508620	0.436839
O12	O	1.580361	0.758620	0.686839
O13	O	0.818627	-0.194692	-0.063188
O14	O	1.068627	0.055308	0.186812
O15	O	1.318627	0.305308	0.436812
O16	O	1.568627	0.555308	0.686812
O17	O	0.830342	0.008625	0.062735
O18	O	1.080342	0.258625	0.312735
O19	O	1.330342	0.508625	0.562735
O20	O	1.580342	0.758625	0.812735
O21	O	0.722820	-0.098897	0.062747
O22	O	0.972820	0.151103	0.312747
O23	O	1.222820	0.401103	0.562747
O24	O	1.472820	0.651103	0.812747
O25	O	0.926131	-0.087163	0.062697
O26	O	1.176131	0.162837	0.312697
O27	O	1.426131	0.412837	0.562697
O28	O	1.676131	0.662837	0.812697
Cu29	Cu	0.824473	-0.093030	0.074217
Cu30	Cu	1.074473	0.156970	0.324217
Cu31	Cu	1.324473	0.406970	0.574217
Cu32	Cu	1.574473	0.656970	0.824217
Cu33	Cu	0.824496	-0.093036	-0.074670
Cu34	Cu	1.074496	0.156964	0.175330
Cu35	Cu	1.324496	0.406964	0.425330
Cu36	Cu	1.574496	0.656964	0.675330
O37	O	0.818608	-0.194686	0.062709
O38	O	1.068608	0.055314	0.312709
O39	O	1.318608	0.305314	0.562709
O40	O	1.568608	0.555314	0.812709
C41	C	0.696818	-0.098520	-0.000194
C42	C	0.946818	0.151480	0.249806
C43	C	1.196818	0.401480	0.499806
C44	C	1.446818	0.651480	0.749806
C45	C	0.619313	-0.097380	-0.000174
C46	C	0.869313	0.152620	0.249826
C47	C	1.119313	0.402620	0.499826
C48	C	1.369313	0.652620	0.749826
C49	C	0.574389	-0.160470	-0.000194
C50	C	0.824389	0.089530	0.249806
C51	C	1.074389	0.339530	0.499806
C52	C	1.324389	0.589530	0.749806
C53	C	0.501566	-0.159399	-0.000203
C54	C	0.751566	0.090601	0.249797
C55	C	1.001566	0.340601	0.499797
C56	C	1.251566	0.590601	0.749797
C57	C	0.473669	-0.095233	-0.000206
C58	C	0.723669	0.154767	0.249794
C59	C	0.973669	0.404767	0.499794
C60	C	1.223669	0.654767	0.749794
C61	C	0.518603	-0.032133	-0.000181
C62	C	0.768603	0.217867	0.249819
C63	C	1.018603	0.467867	0.499819
C64	C	1.268603	0.717867	0.749819
C65	C	0.591425	-0.033207	-0.000166
C66	C	0.841425	0.216793	0.249834
C67	C	1.091425	0.466793	0.499834
C68	C	1.341425	0.716793	0.749834
N69	N	0.365695	-0.046188	-0.043078
N70	N	0.615695	0.203812	0.206922
N71	N	0.865695	0.453812	0.456922
N72	N	1.115695	0.703812	0.706922
N73	N	0.296517	-0.045172	-0.043095
N74	N	0.546517	0.204828	0.206905
N75	N	0.796517	0.454828	0.456905
N76	N	1.046517	0.704828	0.706905
C77	C	0.254260	-0.091994	-0.000252
C78	C	0.504260	0.158006	0.249748
C79	C	0.754260	0.408006	0.499748
C80	C	1.004260	0.658006	0.749748
N81	N	0.283795	-0.139881	0.042599
N82	N	0.533795	0.110119	0.292599
N83	N	0.783795	0.360119	0.542599
N84	N	1.033795	0.610119	0.792599
N85	N	0.352979	-0.140899	0.042612
N86	N	0.602979	0.109101	0.292612
N87	N	0.852979	0.359101	0.542612
N88	N	1.102979	0.609101	0.792612
C89	C	0.394707	-0.094062	-0.000222
C90	C	0.644707	0.155938	0.249778
C91	C	0.894707	0.405938	0.499778
C92	C	1.144707	0.655938	0.749778
C93	C	0.130372	-0.153928	-0.000280
C94	C	0.380372	0.096072	0.249720
C95	C	0.630372	0.346072	0.499720
C96	C	0.880372	0.596072	0.749720
C97	C	0.057547	-0.152853	-0.000283
C98	C	0.307547	0.097147	0.249717
C99	C	0.557547	0.347147	0.499717
C100	C	0.807547	0.597147	0.749717
C101	C	0.074586	-0.025586	-0.000270
C102	C	0.324586	0.224414	0.249730
C103	C	0.574586	0.474414	0.499730
C104	C	0.824586	0.724414	0.749730
C105	C	0.147409	-0.026662	-0.000258
C106	C	0.397409	0.223338	0.249742
C107	C	0.647409	0.473338	0.499742
C108	C	0.897409	0.723338	0.749742
C109	C	0.175298	-0.090835	-0.000267
C110	C	0.425298	0.159165	0.249733
C111	C	0.675298	0.409165	0.499733
C112	C	0.925298	0.659165	0.749733
C113	C	0.829972	0.034634	-0.000211
C114	C	1.079972	0.284634	0.249789
C115	C	1.329972	0.534634	0.499789
C116	C	1.579972	0.784634	0.749789
C117	C	0.828831	0.112138	-0.000204
C118	C	1.078831	0.362138	0.249796
C119	C	1.328831	0.612138	0.499796
C120	C	1.578831	0.862138	0.749796
C121	C	0.952151	-0.087546	-0.000260
C122	C	1.202151	0.162454	0.249740
C123	C	1.452151	0.412454	0.499740
C124	C	1.702151	0.662454	0.749740
C125	C	1.029656	-0.088687	-0.000285
C126	C	1.279656	0.161313	0.249715
C127	C	1.529656	0.411313	0.499715
C128	C	1.779656	0.661313	0.749715
C129	C	0.818997	-0.220700	-0.000244
C130	C	1.068997	0.029300	0.249756
C131	C	1.318997	0.279300	0.499756
C132	C	1.568997	0.529300	0.749756
C133	C	0.820138	-0.298204	-0.000255
C134	C	1.070138	-0.048204	0.249745
C135	C	1.320138	0.201796	0.499745
C136	C	1.570138	0.451796	0.749745
N137	N	0.824463	-0.093025	0.178937
N138	N	1.074463	0.156975	0.428937
N139	N	1.324463	0.406975	0.678937
N140	N	1.574463	0.656975	0.928937
C141	C	0.891922	0.157062	-0.000216
C142	C	1.141922	0.407062	0.249784
C143	C	1.391922	0.657062	0.499784
C144	C	1.641922	0.907062	0.749784
C145	C	0.890850	0.229886	-0.000228
C146	C	1.140850	0.479886	0.249772
C147	C	1.390850	0.729886	0.499772
C148	C	1.640850	0.979886	0.749772
C149	C	0.826684	0.257782	-0.000212
C150	C	1.076684	0.507782	0.249788
C151	C	1.326684	0.757782	0.499788
C152	C	1.576684	1.007782	0.749788
C153	C	0.763585	0.212849	-0.000205
C154	C	1.013585	0.462849	0.249795
C155	C	1.263585	0.712849	0.499795
C156	C	1.513585	0.962849	0.749795
C157	C	0.764658	0.140026	-0.000200
C158	C	1.014658	0.390026	0.249800
C159	C	1.264658	0.640026	0.499800
C160	C	1.514658	0.890026	0.749800
N161	N	0.777630	0.365789	0.042645
N162	N	1.027630	0.615789	0.292645
N163	N	1.277630	0.865789	0.542645
N164	N	1.527630	1.115789	0.792645
N165	N	0.776615	0.434968	0.042642
N166	N	1.026615	0.684968	0.292642
N167	N	1.276615	0.934968	0.542642
N168	N	1.526615	1.184968	0.792642
C169	C	0.823446	0.477191	-0.000227
C170	C	1.073446	0.727191	0.249773
C171	C	1.323446	0.977191	0.499773
C172	C	1.573446	1.227191	0.749773
N173	N	0.871341	0.447624	-0.043084
N174	N	1.121341	0.697624	0.206916
N175	N	1.371341	0.947624	0.456916
N176	N	1.621341	1.197624	0.706916
N177	N	0.872359	0.378439	-0.043079
N178	N	1.122359	0.628439	0.206921
N179	N	1.372359	0.878439	0.456921
N180	N	1.622359	1.128439	0.706921
C181	C	0.825513	0.336745	-0.000218
C182	C	1.075513	0.586745	0.249782
C183	C	1.325513	0.836745	0.499782
C184	C	1.575513	1.086745	0.749782
C185	C	0.885379	0.601079	-0.000253
C186	C	1.135379	0.851079	0.249747
C187	C	1.385379	1.101079	0.499747
C188	C	1.635379	1.351079	0.749747
C189	C	0.884305	0.673904	-0.000270
C190	C	1.134305	0.923904	0.249730
C191	C	1.384305	1.173904	0.499730
C192	C	1.634305	1.423904	0.749730
C193	C	0.757038	0.656865	-0.000239
C194	C	1.007038	0.906865	0.249761
C195	C	1.257038	1.156865	0.499761
C196	C	1.507038	1.406865	0.749761
C197	C	0.758114	0.584042	-0.000230
C198	C	1.008114	0.834042	0.249770
C199	C	1.258114	1.084042	0.499770
C200	C	1.508114	1.334042	0.749770
C201	C	0.822287	0.556154	-0.000233
C202	C	1.072287	0.806154	0.249767
C203	C	1.322287	1.056154	0.499767
C204	C	1.572287	1.306154	0.749767
N205	N	0.824512	-0.093036	-0.179390
N206	N	1.074512	0.156964	0.070610
N207	N	1.324512	0.406964	0.320610
N208	N	1.574512	0.656964	0.570610
C209	C	0.872089	-0.045437	0.218541
C210	C	1.122089	0.204563	0.468541
C211	C	1.372089	0.454563	0.718541
C212	C	1.622089	0.704563	0.968541
C213	C	0.872093	-0.045433	0.297789
C214	C	1.122093	0.204567	0.547789
C215	C	1.372093	0.454567	0.797789
C216	C	1.622093	0.704567	1.047789
C217	C	0.824478	-0.093030	0.337429
C218	C	1.074478	0.156970	0.587429
C219	C	1.324478	0.406970	0.837429
C220	C	1.574478	0.656970	1.087429
C221	C	0.776842	-0.140621	0.297815
C222	C	1.026842	0.109379	0.547815
C223	C	1.276842	0.359379	0.797815
C224	C	1.526842	0.609379	1.047815
C225	C	0.776835	-0.140619	0.218569
C226	C	1.026835	0.109381	0.468569
C227	C	1.276835	0.359381	0.718569
C228	C	1.526835	0.609381	0.968569
N229	N	0.815401	-0.154837	0.461841
N230	N	1.065401	0.095163	0.711841
N231	N	1.315401	0.345163	0.961841
N232	N	1.565401	0.595163	1.211841
N233	N	0.815413	-0.154837	0.537121
N234	N	1.065413	0.095163	0.787121
N235	N	1.315413	0.345163	1.037121
N236	N	1.565413	0.595163	1.287121
C237	C	0.824496	-0.093040	0.576193
C238	C	1.074496	0.156960	0.826193
C239	C	1.324496	0.406960	1.076193
C240	C	1.574496	0.656960	1.326193
N241	N	0.833582	-0.031239	0.537140
N242	N	1.083582	0.218761	0.787140
N243	N	1.333582	0.468761	1.037140
N244	N	1.583582	0.718761	1.287140
N245	N	0.833574	-0.031240	0.461853
N246	N	1.083574	0.218760	0.711853
N247	N	1.333574	0.468760	0.961853
N248	N	1.583574	0.718760	1.211853
C249	C	0.824480	-0.093038	0.423358
C250	C	1.074480	0.156962	0.673358
C251	C	1.324480	0.406962	0.923358
C252	C	1.574480	0.656962	1.173358
C253	C	0.872130	-0.045444	0.701727
C254	C	1.122130	0.204556	0.951727
C255	C	1.372130	0.454556	1.201727
C256	C	1.622130	0.704556	1.451727
C257	C	0.872129	-0.045440	0.780976
C258	C	1.122129	0.204560	1.030976
C259	C	1.372129	0.454560	1.280976
C260	C	1.622129	0.704560	1.530976
C261	C	0.776881	-0.140634	0.781000
C262	C	1.026881	0.109366	1.031000
C263	C	1.276881	0.359366	1.281000
C264	C	1.526881	0.609366	1.531000
C265	C	0.776878	-0.140632	0.701753
C266	C	1.026878	0.109368	0.951753
C267	C	1.276878	0.359368	1.201753
C268	C	1.526878	0.609368	1.451753
C269	C	0.824506	-0.093038	0.662121
C270	C	1.074506	0.156962	0.912121
C271	C	1.324506	0.406962	1.162121
C272	C	1.574506	0.656962	1.412121
H273	H	0.464982	-0.210776	-0.000217
H274	H	0.714982	0.039224	0.249783
H275	H	0.964982	0.289224	0.499783
H276	H	1.214982	0.539224	0.749783
H277	H	0.051874	0.026659	-0.000319
H278	H	0.301874	0.276659	0.249681
H279	H	0.551874	0.526659	0.499681
H280	H	0.801874	0.776659	0.749681
H281	H	0.910869	-0.006681	0.186275
H282	H	1.160869	0.243319	0.436275
H283	H	1.410869	0.493319	0.686275
H284	H	1.660869	0.743319	0.936275
C285	C	0.693002	0.243528	-0.000190
C286	C	0.943002	0.493528	0.249810
C287	C	1.193002	0.743528	0.499810
C288	C	1.443002	0.993528	0.749810
H289	H	0.655580	0.206340	-0.000189
H290	H	0.905580	0.456340	0.249811
H291	H	1.155580	0.706340	0.499811
H292	H	1.405580	0.956340	0.749811
H293	H	0.689928	0.271592	0.043711
H294	H	0.939928	0.521592	0.293711
H295	H	1.189928	0.771592	0.543711
H296	H	1.439928	1.021592	0.793711
H297	H	0.689950	0.271572	-0.044101
H298	H	0.939950	0.521572	0.205899
H299	H	1.189950	0.771572	0.455899
H300	H	1.439950	1.021572	0.705899
C301	C	0.724449	-0.192973	0.175002
C302	C	0.974449	0.057027	0.425002
C303	C	1.224449	0.307027	0.675002
C304	C	1.474449	0.557027	0.925002
H305	H	0.696092	-0.221323	0.209957
H306	H	0.946092	0.028677	0.459957
H307	H	1.196092	0.278677	0.709957
H308	H	1.446092	0.528677	0.959957
H309	H	0.695463	-0.167929	0.144107
H310	H	0.945463	0.082071	0.394107
H311	H	1.195463	0.332071	0.644107
H312	H	1.445463	0.582071	0.894107
H313	H	0.749478	-0.221977	0.144072
H314	H	0.999478	0.028023	0.394072
H315	H	1.249478	0.278023	0.644072
H316	H	1.499478	0.528023	0.894072
C317	C	0.640846	0.036194	-0.000149
C318	C	0.890846	0.286194	0.249851
C319	C	1.140846	0.536194	0.499851
C320	C	1.390846	0.786194	0.749851
H321	H	0.688211	0.026364	-0.000137
H322	H	0.938211	0.276364	0.249863
H323	H	1.188211	0.526364	0.499863
H324	H	1.438211	0.776364	0.749863
H325	H	0.632435	0.062515	-0.044050
H326	H	0.882435	0.312515	0.205950
H327	H	1.132435	0.562515	0.455950
H328	H	1.382435	0.812515	0.705950
H329	H	0.632391	0.062515	0.043762
H330	H	0.882391	0.312515	0.293762
H331	H	1.132391	0.562515	0.543762
H332	H	1.382391	0.812515	0.793762
H333	H	0.713281	0.103448	-0.000190
H334	H	0.963281	0.353448	0.249810
H335	H	1.213281	0.603448	0.499810
H336	H	1.463281	0.853448	0.749810
H337	H	0.183988	0.024713	-0.000246
H338	H	0.433988	0.274713	0.249754
H339	H	0.683988	0.524713	0.499754
H340	H	0.933988	0.774713	0.749754
H341	H	0.495885	0.020111	-0.000194
H342	H	0.745885	0.270111	0.249806
H343	H	0.995885	0.520111	0.499806
H344	H	1.245885	0.770111	0.749806
H345	H	0.704792	0.679578	-0.000230
H346	H	0.954792	0.929578	0.249770
H347	H	1.204792	1.179578	0.499770
H348	H	1.454792	1.429578	0.749770
H349	H	0.935683	0.710481	-0.000284
H350	H	1.185683	0.960481	0.249716
H351	H	1.435683	1.210481	0.499716
H352	H	1.685683	1.460481	0.749716
C353	C	0.955964	0.570399	-0.000266
C354	C	1.205964	0.820399	0.249734
C355	C	1.455964	1.070399	0.499734
C356	C	1.705964	1.320399	0.749734
H357	H	0.993387	0.607587	-0.000286
H358	H	1.243387	0.857587	0.249714
H359	H	1.493387	1.107587	0.499714
H360	H	1.743387	1.357587	0.749714
H361	H	0.959023	0.542357	0.043640
H362	H	1.209023	0.792357	0.293640
H363	H	1.459023	1.042357	0.543640
H364	H	1.709023	1.292357	0.793640
H365	H	0.959034	0.542334	-0.044172
H366	H	1.209034	0.792334	0.205828
H367	H	1.459034	1.042334	0.455828
H368	H	1.709034	1.292334	0.705828
H369	H	0.706738	0.547464	-0.000216
H370	H	0.956738	0.797464	0.249784
H371	H	1.206738	1.047464	0.499784
H372	H	1.456738	1.297464	0.749784
H373	H	0.944176	0.134360	-0.000222
H374	H	1.194176	0.384360	0.249778
H375	H	1.444176	0.634360	0.499778
H376	H	1.694176	0.884360	0.749778
C377	C	0.960253	0.279311	-0.000236
C378	C	1.210253	0.529311	0.249764
C379	C	1.460253	0.779311	0.499764
C380	C	1.710253	1.029311	0.749764
H381	H	0.998624	0.252272	-0.000233
H382	H	1.248624	0.502272	0.249767
H383	H	1.498624	0.752272	0.499767
H384	H	1.748624	1.002272	0.749767
H385	H	0.962490	0.308067	-0.044139
H386	H	1.212490	0.558067	0.205861
H387	H	1.462490	0.808067	0.455861
H388	H	1.712490	1.058067	0.705861
H389	H	0.962464	0.308078	0.043673
H390	H	1.212464	0.558078	0.293673
H391	H	1.462464	0.808078	0.543673
H392	H	1.712464	1.058078	0.793673
H393	H	0.910878	-0.006680	0.330041
H394	H	1.160878	0.243320	0.580041
H395	H	1.410878	0.493320	0.830041
H396	H	1.660878	0.743320	1.080041
C397	C	0.161053	-0.224513	-0.000281
C398	C	0.411053	0.025487	0.249719
C399	C	0.661053	0.275487	0.499719
C400	C	0.911053	0.525487	0.749719
H401	H	0.123865	-0.261936	-0.000284
H402	H	0.373865	-0.011936	0.249716
H403	H	0.623865	0.238064	0.499716
H404	H	0.873865	0.488064	0.749716
H405	H	0.189128	-0.227580	-0.044180
H406	H	0.439128	0.022420	0.205820
H407	H	0.689128	0.272420	0.455820
H408	H	0.939128	0.522420	0.705820
H409	H	0.189084	-0.227574	0.043631
H410	H	0.439084	0.022426	0.293631
H411	H	0.689084	0.272426	0.543631
H412	H	0.939084	0.522426	0.793631
H413	H	0.738072	-0.179374	0.330094
H414	H	0.988072	0.070626	0.580094
H415	H	1.238072	0.320626	0.830094
H416	H	1.488072	0.570626	1.080094
H417	H	0.910909	-0.006688	0.669457
H418	H	1.160909	0.243312	0.919457
H419	H	1.410909	0.493312	1.169457
H420	H	1.660909	0.743312	1.419457
H421	H	0.020970	-0.204232	-0.000295
H422	H	0.270970	0.045768	0.249705
H423	H	0.520970	0.295768	0.499705
H424	H	0.770970	0.545768	0.749705
C425	C	0.924522	0.006908	0.824541
C426	C	1.174522	0.256908	1.074541
C427	C	1.424522	0.506908	1.324541
C428	C	1.674522	0.756908	1.574541
H429	H	0.952889	0.035247	0.789585
H430	H	1.202889	0.285247	1.039585
H431	H	1.452889	0.535247	1.289585
H432	H	1.702889	0.785247	1.539585
H433	H	0.899505	0.035915	0.855476
H434	H	1.149505	0.285915	1.105476
H435	H	1.399505	0.535915	1.355476
H436	H	1.649505	0.785915	1.605476
H437	H	0.953507	-0.018146	0.855432
H438	H	1.203507	0.231854	1.105432
H439	H	1.453507	0.481854	1.355432
H440	H	1.703507	0.731854	1.605432
C441	C	0.724504	-0.192989	0.824595
C442	C	0.974504	0.057011	1.074595
C443	C	1.224504	0.307011	1.324595
C444	C	1.474504	0.557011	1.574595
H445	H	0.731331	-0.186178	0.877464
H446	H	0.981331	0.063822	1.127464
H447	H	1.231331	0.313822	1.377464
H448	H	1.481331	0.563822	1.627464
H449	H	0.677931	-0.185523	0.811634
H450	H	0.927931	0.064477	1.061634
H451	H	1.177931	0.314477	1.311634
H452	H	1.427931	0.564477	1.561634
H453	H	0.731946	-0.239571	0.811592
H454	H	0.981946	0.010429	1.061592
H455	H	1.231946	0.260429	1.311592
H456	H	1.481946	0.510429	1.561592
H457	H	0.738099	-0.179386	0.669505
H458	H	0.988099	0.070614	0.919505
H459	H	1.238099	0.320614	1.169505
H460	H	1.488099	0.570614	1.419505
H461	H	0.597091	-0.212725	-0.000203
H462	H	0.847091	0.037275	0.249797
H463	H	1.097091	0.287275	0.499797
H464	H	1.347091	0.537275	0.749797
