data_functionalizedCrystal
_audit_creation_method	'MofGen! by Chris Wilmer'
_symmetry_space_group_name_H-M	'P1'
_symmetry_Int_Tables_number	1
_symmetry_cell_setting	triclinic
loop_
_symmetry_equiv_pos_as_xyz
  x,y,z
_cell_length_a	14.908571
_cell_length_b	16.959454
_cell_length_c	16.959447
_cell_angle_alpha	90.023171
_cell_angle_beta	93.311179
_cell_angle_gamma	86.716421
loop_
_atom_site_label
_atom_site_type_symbol
_atom_site_fract_x
_atom_site_fract_y
_atom_site_fract_z
Zn1	Zn	1.379211	-0.384534	0.516559
Zn2	Zn	1.879211	0.115466	1.016559
Zn3	Zn	1.379114	-0.516713	0.384384
Zn4	Zn	1.879114	-0.016713	0.884384
Zn5	Zn	1.228349	-0.376918	0.376781
Zn6	Zn	1.728349	0.123082	0.876781
Zn7	Zn	1.228317	-0.509034	0.508910
Zn8	Zn	1.728317	-0.009034	1.008910
O9	O	1.303748	-0.446800	0.446659
O10	O	1.803748	0.053200	0.946659
O11	O	1.505443	-0.408469	0.505410
O12	O	2.005443	0.091531	1.005410
O13	O	1.359087	-0.498196	0.272763
O14	O	1.859087	0.001804	0.772763
O15	O	1.248415	-0.267321	0.395342
O16	O	1.748415	0.232679	0.895342
O17	O	1.505372	-0.505581	0.408301
O18	O	2.005372	-0.005581	0.908301
O19	O	1.359252	-0.272916	0.498037
O20	O	1.859252	0.227084	0.998037
O21	O	1.248321	-0.395489	0.267177
O22	O	1.748321	0.104511	0.767177
O23	O	1.102100	-0.388043	0.387924
O24	O	1.602100	0.111957	0.887924
O25	O	1.248361	-0.492492	0.620537
O26	O	1.748361	0.007508	1.120537
O27	O	1.102076	-0.485107	0.484999
O28	O	1.602076	0.014893	0.984999
O29	O	1.359221	-0.401022	0.626157
O30	O	1.859221	0.098978	1.126157
O31	O	1.359056	-0.626303	0.400884
O32	O	1.859056	-0.126303	0.900884
O33	O	1.248267	-0.620660	0.492372
O34	O	1.748267	-0.120660	0.992372
C35	C	1.069354	-0.434916	0.434807
C36	C	1.569354	0.065084	0.934807
C37	C	0.969079	-0.429850	0.429755
C38	C	1.469079	0.070150	0.929755
C39	C	1.303672	-0.652162	0.446641
C40	C	1.803672	-0.152162	0.946641
C41	C	1.303722	-0.740021	0.446664
C42	C	1.803722	-0.240021	0.946664
C43	C	0.780676	-0.521563	0.521211
C44	C	1.280676	-0.021563	1.021211
C45	C	0.686459	-0.516806	0.516467
C46	C	1.186459	-0.016806	1.016467
C47	C	0.686427	-0.415577	0.415529
C48	C	1.186427	0.084423	0.915529
C49	C	0.780644	-0.420334	0.420273
C50	C	1.280644	0.079666	0.920273
C51	C	0.827765	-0.473329	0.473115
C52	C	1.327765	0.026671	0.973115
C53	C	0.921984	-0.478089	0.477854
C54	C	1.421984	0.021911	0.977854
C55	C	0.921949	-0.376857	0.376920
C56	C	1.421949	0.123143	0.876920
C57	C	0.827732	-0.372100	0.372176
C58	C	1.327732	0.127900	0.872176
C59	C	1.246143	-1.108595	0.494295
C60	C	1.746143	-0.608595	0.994295
C61	C	1.361603	-1.114415	0.399115
C62	C	1.861603	-0.614415	0.899115
C63	C	1.361572	-1.031867	0.399106
C64	C	1.861572	-0.531867	0.899106
C65	C	1.303824	-0.987680	0.446692
C66	C	1.803824	-0.487680	0.946692
C67	C	1.246108	-1.026039	0.494286
C68	C	1.746108	-0.526039	0.994286
C69	C	1.419281	-0.993501	0.351506
C70	C	1.919281	-0.493501	0.851506
C71	C	1.419251	-0.910949	0.351495
C72	C	1.919251	-0.410949	0.851495
C73	C	1.361507	-0.866760	0.399085
C74	C	1.861507	-0.366760	0.899085
C75	C	1.303789	-0.905124	0.446682
C76	C	1.803789	-0.405124	0.946682
C77	C	1.246041	-0.860936	0.494268
C78	C	1.746041	-0.360936	0.994268
C79	C	1.188327	-0.899300	0.541870
C80	C	1.688327	-0.399300	1.041870
C81	C	1.188364	-0.981850	0.541877
C82	C	1.688364	-0.481850	1.041877
C83	C	1.361470	-0.784209	0.399079
C84	C	1.861470	-0.284209	0.899079
C85	C	1.246006	-0.778381	0.494259
C86	C	1.746006	-0.278381	0.994259
C87	C	1.539057	-0.458731	0.458557
C88	C	2.039057	0.041269	0.958557
C89	C	1.639331	-0.463816	0.463627
C90	C	2.139331	0.036184	0.963627
C91	C	1.303798	-0.446750	0.652829
C92	C	1.803798	0.053250	1.152829
C93	C	1.303820	-0.446729	0.740687
C94	C	1.803820	0.053271	1.240687
C95	C	1.303848	-0.240637	0.446694
C96	C	1.803848	0.259363	0.946694
C97	C	1.303891	-0.152782	0.446710
C98	C	1.803891	0.347218	0.946710
C99	C	1.303749	-0.446795	0.241292
C100	C	1.803749	0.053205	0.741292
C101	C	1.303902	-0.446603	0.153444
C102	C	1.803902	0.053397	0.653444
C103	C	1.246111	-0.494343	0.779037
C104	C	1.746111	0.005657	1.279037
C105	C	1.361544	-0.399089	0.784892
C106	C	1.861544	0.100911	1.284892
C107	C	1.361562	-0.399064	0.867438
C108	C	1.861562	0.100936	1.367438
C109	C	1.303854	-0.446678	0.905788
C110	C	1.803854	0.053322	1.405788
C111	C	1.246126	-0.494318	0.861591
C112	C	1.746126	0.005682	1.361591
C113	C	1.419283	-0.351419	0.911641
C114	C	1.919283	0.148581	1.411641
C115	C	1.419303	-0.351391	0.994193
C116	C	1.919303	0.148609	1.494193
C117	C	1.361598	-0.399011	1.032545
C118	C	1.861598	0.100989	1.532545
C119	C	1.303869	-0.446653	0.988343
C120	C	1.803869	0.053347	1.488343
C121	C	1.246160	-0.494268	1.026693
C122	C	1.746160	0.005732	1.526693
C123	C	1.188434	-0.541915	0.982492
C124	C	1.688434	-0.041915	1.482492
C125	C	1.188421	-0.541937	0.899943
C126	C	1.688421	-0.041937	1.399943
C127	C	1.361611	-0.398988	1.115094
C128	C	1.861611	0.101012	1.615094
C129	C	1.246175	-0.494242	1.109247
C130	C	1.746175	0.005758	1.609247
H131	H	0.960349	-0.521242	0.520879
H132	H	1.460349	-0.021242	1.020879
H133	H	1.141423	-0.580728	0.863948
H134	H	1.641423	-0.080728	1.363948
O135	O	1.183925	-0.545599	1.150603
O136	O	1.683925	-0.045599	1.650603
H137	H	1.193632	-0.537581	1.215432
H138	H	1.693632	-0.037581	1.715432
H139	H	0.960299	-0.337583	0.337754
H140	H	1.460299	0.162417	0.837754
O141	O	0.635629	-0.568828	0.568312
O142	O	1.135629	-0.068828	1.068312
H143	H	0.592680	-0.606802	0.530671
H144	H	1.092680	-0.106802	1.030671
H145	H	1.199115	-0.533139	0.743046
H146	H	1.699115	-0.033139	1.243046
O147	O	0.635597	-0.358447	0.358512
O148	O	1.135597	0.141553	0.858512
H149	H	0.562172	-0.363258	0.363285
H150	H	1.062172	0.136742	0.863285
O151	O	1.126114	-1.023236	0.593202
O152	O	1.626114	-0.523236	1.093202
H153	H	1.141536	-1.008149	0.656032
H154	H	1.641536	-0.508149	1.156032
O155	O	1.481568	-0.300013	1.041866
O156	O	1.981568	0.199987	1.541866
H157	H	1.521698	-0.266913	1.001330
H158	H	2.021698	0.233087	1.501330
O159	O	1.423725	-0.742840	0.347750
O160	O	1.923725	-0.242840	0.847750
H161	H	1.469583	-0.707512	0.385484
H162	H	1.969583	-0.207512	0.885484
O163	O	1.481530	-0.300071	0.870283
O164	O	1.981530	0.199929	1.370283
H165	H	1.471831	-0.308104	0.805456
H166	H	1.971831	0.191896	1.305456
O167	O	0.776908	-0.314964	0.315162
O168	O	1.276908	0.185036	0.815162
H169	H	0.703481	-0.319769	0.319932
H170	H	1.203481	0.180231	0.819932
H171	H	1.141304	-0.863312	0.580611
H172	H	1.641304	-0.363312	1.080611
H173	H	1.408614	-1.150397	0.360368
H174	H	1.908614	-0.650397	0.860368
H175	H	1.141443	-0.580678	1.013727
H176	H	1.641443	-0.080678	1.513727
O177	O	1.423791	-0.347739	0.743535
O178	O	1.923791	0.152261	1.243535
H179	H	1.414087	-0.355765	0.678708
H180	H	1.914087	0.144235	1.178708
H181	H	1.198984	-0.742408	0.533012
H182	H	1.698984	-0.242408	1.033012
O183	O	1.183884	-1.149963	0.545627
O184	O	1.683884	-0.649963	1.045627
H185	H	1.193600	-1.214789	0.537637
H186	H	1.693600	-0.714789	1.037637
H187	H	1.408603	-0.360188	1.151078
H188	H	1.908603	0.139812	1.651078
H189	H	1.466289	-1.029484	0.312759
H190	H	1.966289	-0.529484	0.812759
O191	O	0.831510	-0.578718	0.578200
O192	O	1.331510	-0.078718	1.078200
H193	H	0.782937	-0.611458	0.610851
H194	H	1.282937	-0.111458	1.110851
H195	H	1.466245	-0.879718	0.312736
H196	H	1.966245	-0.379718	0.812736
