data_functionalizedCrystal
_audit_creation_method	'MofGen! by Chris Wilmer'
_symmetry_space_group_name_H-M	'P1'
_symmetry_Int_Tables_number	1
_symmetry_cell_setting	triclinic
loop_
_symmetry_equiv_pos_as_xyz
  x,y,z
_cell_length_a	12.759401
_cell_length_b	19.121063
_cell_length_c	12.759393
_cell_angle_alpha	92.402917
_cell_angle_beta	89.981504
_cell_angle_gamma	92.469017
loop_
_atom_site_label
_atom_site_type_symbol
_atom_site_fract_x
_atom_site_fract_y
_atom_site_fract_z
Zn1	Zn	1.588321	-0.279568	-0.611771
Zn2	Zn	2.088321	0.220432	-0.111771
Zn3	Zn	1.580680	-0.397037	-0.443567
Zn4	Zn	2.080680	0.102963	0.056433
Zn5	Zn	1.412621	-0.279605	-0.436113
Zn6	Zn	1.912621	0.220395	0.063887
Zn7	Zn	1.405080	-0.396983	-0.619205
Zn8	Zn	1.905080	0.103017	-0.119205
O9	O	1.496676	-0.338298	-0.527664
O10	O	1.996676	0.161702	-0.027664
O11	O	1.734328	-0.295158	-0.589467
O12	O	2.234328	0.204842	-0.089467
O13	O	1.558345	-0.381497	-0.295559
O14	O	2.058345	0.118503	0.204441
O15	O	1.442282	-0.181316	-0.453184
O16	O	1.942282	0.318684	0.046816
O17	O	1.728714	-0.381462	-0.465888
O18	O	2.228714	0.118538	0.034112
O19	O	1.571368	-0.181289	-0.582240
O20	O	2.071368	0.318711	-0.082240
O21	O	1.434872	-0.295221	-0.290083
O22	O	1.934872	0.204779	0.209917
O23	O	1.264600	-0.295168	-0.460392
O24	O	1.764600	0.204832	0.039608
O25	O	1.429429	-0.381370	-0.765237
O26	O	1.929429	0.118630	-0.265237
O27	O	1.259060	-0.381405	-0.594909
O28	O	1.759060	0.118595	-0.094909
O29	O	1.564056	-0.295106	-0.759776
O30	O	2.064056	0.204894	-0.259776
O31	O	1.551032	-0.495314	-0.473095
O32	O	2.051032	0.004686	0.026905
O33	O	1.422020	-0.495274	-0.602136
O34	O	1.922020	0.004726	-0.102136
C35	C	1.223709	-0.338285	-0.527649
C36	C	1.723709	0.161715	-0.027649
C37	C	1.106932	-0.338297	-0.527668
C38	C	1.606932	0.161703	-0.027668
C39	C	1.049208	-0.383272	-0.597605
C40	C	1.549208	0.116728	-0.097605
C41	C	0.939483	-0.383281	-0.597616
C42	C	1.439483	0.116719	-0.097616
C43	C	0.945216	-0.293337	-0.457747
C44	C	1.445216	0.206663	0.042253
C45	C	1.054939	-0.293325	-0.457741
C46	C	1.554939	0.206675	0.042259
C47	C	1.101200	-0.428244	-0.667532
C48	C	1.601200	0.071756	-0.167532
C49	C	1.043476	-0.473224	-0.737473
C50	C	1.543476	0.026776	-0.237473
C51	C	0.933751	-0.473233	-0.737485
C52	C	1.433751	0.026767	-0.237485
C53	C	0.881751	-0.428262	-0.667556
C54	C	1.381751	0.071738	-0.167556
C55	C	1.484907	-0.520778	-0.539254
C56	C	1.984907	-0.020778	-0.039254
C57	C	1.479969	-0.598844	-0.544247
C58	C	1.979969	-0.098844	-0.044247
C59	C	1.544871	-0.635516	-0.479464
C60	C	2.044871	-0.135516	0.020536
C61	C	1.540233	-0.708867	-0.484167
C62	C	2.040233	-0.208867	0.015833
C63	C	1.470686	-0.745544	-0.553648
C64	C	1.970686	-0.245544	-0.053648
C65	C	1.405781	-0.708866	-0.618438
C66	C	1.905781	-0.208866	-0.118438
C67	C	1.410426	-0.635517	-0.613740
C68	C	1.910426	-0.135517	-0.113740
C69	C	1.453305	-0.967013	-0.571195
C70	C	1.953305	-0.467013	-0.071195
C71	C	1.448663	-1.040368	-0.575886
C72	C	1.948663	-0.540368	-0.075886
C73	C	1.583116	-1.040364	-0.441616
C74	C	2.083116	-0.540364	0.058384
C75	C	1.587750	-0.967013	-0.436920
C76	C	2.087750	-0.467013	0.063080
C77	C	1.522849	-0.930341	-0.501714
C78	C	2.022849	-0.430341	-0.001714
C79	C	1.465941	-0.820521	-0.558454
C80	C	1.965941	-0.320521	-0.058454
C81	C	1.527600	-0.855366	-0.496912
C82	C	2.027600	-0.355366	0.003088
C83	C	1.770708	-0.338312	-0.527680
C84	C	2.270708	0.161688	-0.027680
C85	C	1.887484	-0.338318	-0.527686
C86	C	2.387484	0.161682	-0.027686
C87	C	1.496754	-0.338227	-0.801693
C88	C	1.996754	0.161773	-0.301693
C89	C	1.496787	-0.338197	-0.918468
C90	C	1.996787	0.161803	-0.418468
C91	C	1.508518	-0.155106	-0.516052
C92	C	2.008518	0.344894	-0.016052
C93	C	1.513565	-0.077040	-0.511103
C94	C	2.013565	0.422960	-0.011103
C95	C	1.566897	-0.293275	-0.970488
C96	C	2.066897	0.206725	-0.470488
C97	C	1.566923	-0.293250	-1.080210
C98	C	2.066923	0.206750	-0.580210
C99	C	1.426727	-0.383075	-1.085884
C100	C	1.926727	0.116925	-0.585884
C101	C	1.426696	-0.383096	-0.976163
C102	C	1.926696	0.116904	-0.476163
C103	C	1.636987	-0.248377	-0.912792
C104	C	2.136987	0.251623	-0.412792
C105	C	1.707103	-0.203452	-0.964812
C106	C	2.207103	0.296548	-0.464812
C107	C	1.707130	-0.203426	-1.074535
C108	C	2.207130	0.296574	-0.574535
C109	C	1.637040	-0.248326	-1.132237
C110	C	2.137040	0.251674	-0.632237
C111	C	1.496661	-0.338318	-0.254698
C112	C	1.996661	0.161682	0.245302
C113	C	1.496844	-0.338151	-0.137911
C114	C	1.996844	0.161849	0.362089
H115	H	1.085822	-0.509833	-0.794413
H116	H	1.585822	-0.009833	-0.294413
H117	H	1.357577	-0.605658	-0.666494
H118	H	1.857577	-0.105658	-0.166494
H119	H	1.392042	-1.070228	-0.632484
H120	H	1.892042	-0.570228	-0.132484
H121	H	1.101940	-0.256697	-0.400800
H122	H	1.601940	0.243303	0.099200
H123	H	1.644380	-0.937152	-0.380343
H124	H	2.144380	-0.437152	0.119657
O125	O	1.602623	-0.815808	-0.421990
O126	O	2.102623	-0.315808	0.078010
H127	H	1.557745	-0.782442	-0.366360
H128	H	2.057745	-0.282442	0.133640
O129	O	1.390929	-0.860084	-0.633387
O130	O	1.890929	-0.360084	-0.133387
H131	H	1.346575	-0.822264	-0.677653
H132	H	1.846575	-0.322264	-0.177653
O133	O	1.636952	-0.248403	-0.794450
O134	O	2.136952	0.251597	-0.294450
H135	H	1.697461	-0.209633	-0.763067
H136	H	2.197461	0.290367	-0.263067
H137	H	1.764161	-0.166892	-0.917823
H138	H	2.264161	0.333108	-0.417823
H139	H	1.369591	-0.419664	-0.933807
H140	H	1.869591	0.080336	-0.433807
H141	H	1.764214	-0.166841	-1.116886
H142	H	2.264214	0.333159	-0.616886
O143	O	1.610228	-0.748420	-0.414283
O144	O	2.110228	-0.248420	0.085717
H145	H	1.661556	-0.781777	-0.463483
H146	H	2.161556	-0.281777	0.036517
H147	H	0.792406	-0.428267	-0.667580
H148	H	1.292406	0.071733	-0.167580
H149	H	1.190543	-0.428243	-0.667528
H150	H	1.690543	0.071757	-0.167528
O151	O	1.653145	-1.079914	-0.371764
O152	O	2.153145	-0.579914	0.128236
H153	H	1.638250	-1.137080	-0.386714
H154	H	2.138250	-0.637080	0.113286
H155	H	0.886755	-0.509852	-0.794441
H156	H	1.386755	-0.009852	-0.294441
H157	H	0.902869	-0.256725	-0.400813
H158	H	1.402869	0.243275	0.099187
O159	O	1.351140	-0.431500	-1.148121
O160	O	1.851140	0.068500	-0.648121
H161	H	1.302374	-0.462737	-1.093514
H162	H	1.802374	0.037263	-0.593514
H163	H	1.400458	-0.937161	-0.623951
H164	H	1.900458	-0.437161	-0.123951
O165	O	1.637063	-0.248301	-1.250582
O166	O	2.137063	0.251699	-0.750582
H167	H	1.697593	-0.209522	-1.277065
H168	H	2.197593	0.290478	-0.777065
H169	H	1.601498	-0.605659	-0.422881
H170	H	2.101498	-0.105659	0.077119
H171	H	1.349159	-0.738734	-0.675015
H172	H	1.849159	-0.238734	-0.175015
