data_functionalizedCrystal
_audit_creation_method	'MofGen! by Chris Wilmer'
_symmetry_space_group_name_H-M	'P1'
_symmetry_Int_Tables_number	1
_symmetry_cell_setting	triclinic
loop_
_symmetry_equiv_pos_as_xyz
  x,y,z
_cell_length_a	10.489741
_cell_length_b	16.109301
_cell_length_c	15.186229
_cell_angle_alpha	90.005167
_cell_angle_beta	89.999333
_cell_angle_gamma	95.999673
loop_
_atom_site_label
_atom_site_type_symbol
_atom_site_fract_x
_atom_site_fract_y
_atom_site_fract_z
O1	O	1.692350	-0.117298	-0.073177
O2	O	1.320995	-0.128308	-0.073191
O3	O	1.516874	-0.001835	-0.073175
O4	O	1.496471	-0.243771	-0.073194
O5	O	1.516861	-0.001833	0.073282
O6	O	1.320981	-0.128306	0.073266
O7	O	1.692337	-0.117296	0.073280
Zn8	Zn	1.506657	-0.122801	0.096526
Zn9	Zn	1.506674	-0.122803	-0.096438
O10	O	1.496458	-0.243769	0.073264
C11	C	1.273468	-0.127475	0.000036
C12	C	1.131875	-0.124987	0.000031
C13	C	1.516041	0.029146	0.000054
C14	C	1.513563	0.121457	0.000055
N15	N	1.506655	-0.122798	0.228219
C16	C	1.064902	-0.044516	0.000045
C17	C	0.972231	-0.082531	-0.072167
C18	C	0.972251	-0.082548	0.072228
C19	C	1.041068	-0.163035	-0.072241
C20	C	1.041099	-0.163041	0.072219
C21	C	0.948453	-0.201115	-0.000011
C22	C	1.739863	-0.118128	0.000051
C23	C	1.881456	-0.120616	0.000050
C24	C	1.497291	-0.274750	0.000033
C25	C	1.499769	-0.367060	0.000026
C26	C	1.624032	0.343048	0.000045
C27	C	1.621694	0.429783	0.000038
C28	C	1.389290	0.411341	0.000033
C29	C	1.391630	0.324608	0.000034
C30	C	1.509004	0.290464	0.000045
C31	C	1.504327	0.463932	0.000036
C32	C	1.501791	0.557974	0.000028
C33	C	1.511541	0.196417	0.000051
N34	N	1.506687	-0.122799	-0.228130
C35	C	1.593419	-0.066815	0.453949
C36	C	1.593423	-0.066813	0.546139
C37	C	1.419913	-0.178784	0.546133
C38	C	1.419904	-0.178782	0.453945
C39	C	1.506664	-0.122798	0.407856
C40	C	1.506677	-0.122799	0.592233
C41	C	1.506681	-0.122797	0.692189
C42	C	1.506659	-0.122799	0.307893
H43	H	0.941716	-0.048483	-0.133213
H44	H	1.664066	-0.021226	0.583665
H45	H	1.719606	0.315251	0.000052
N46	N	0.881693	-0.288827	-0.000062
H47	H	0.947751	-0.330163	-0.000610
H48	H	0.825720	-0.297280	-0.054101
N49	N	1.081241	-0.208103	-0.153203
H50	H	1.177277	-0.209484	-0.152725
H51	H	1.055527	-0.177909	-0.207630
H52	H	1.715362	0.472594	0.000037
H53	H	1.349276	-0.224366	0.583669
H54	H	1.071646	-0.197062	0.133268
N55	N	1.326317	-0.239159	0.404222
H56	H	1.271361	-0.274628	0.447407
H57	H	1.375120	-0.276224	0.365961
H58	H	1.115552	0.021636	-0.000040
N59	N	0.931857	-0.037433	0.153097
H60	H	0.974657	0.021717	0.153032
H61	H	0.958132	-0.067296	0.207590
H62	H	1.297954	0.281792	0.000031
N63	N	1.262698	0.448168	0.000025
H64	H	1.278668	0.511093	0.000028
H65	H	1.212364	0.428984	0.054318
H66	H	1.664063	-0.021229	0.416425
