data_functionalizedCrystal
_audit_creation_method	'MofGen! by Chris Wilmer'
_symmetry_space_group_name_H-M	'P1'
_symmetry_Int_Tables_number	1
_symmetry_cell_setting	triclinic
loop_
_symmetry_equiv_pos_as_xyz
  x,y,z
_cell_length_a	10.685980
_cell_length_b	25.639240
_cell_length_c	10.685986
_cell_angle_alpha	85.581131
_cell_angle_beta	89.692713
_cell_angle_gamma	85.590739
loop_
_atom_site_label
_atom_site_type_symbol
_atom_site_fract_x
_atom_site_fract_y
_atom_site_fract_z
Zn1	Zn	1.863485	0.121710	0.856500
Zn2	Zn	1.879322	0.215327	0.646686
Zn3	Zn	1.669745	0.135072	0.630637
Zn4	Zn	1.653570	0.216296	0.840300
O5	O	1.766530	0.172101	0.743531
O6	O	2.041144	0.128130	0.842164
O7	O	1.864918	0.209867	0.469004
O8	O	1.695587	0.060128	0.660661
O9	O	2.052779	0.196910	0.688014
O10	O	1.837927	0.050310	0.826602
O11	O	1.710943	0.150904	0.457213
O12	O	1.492041	0.151845	0.644953
O13	O	1.668019	0.198563	1.018002
O14	O	1.480157	0.211520	0.798992
O15	O	1.822242	0.129070	1.029904
O16	O	1.849233	0.288627	0.672306
O17	O	1.683375	0.289339	0.814554
C18	C	1.440579	0.183238	0.718474
C19	C	1.301133	0.188014	0.707784
C20	C	1.766299	0.307954	0.743444
C21	C	1.766312	0.366067	0.743457
C22	C	1.852992	0.726031	0.669559
C23	C	1.853029	0.780634	0.669574
O24	O	1.926564	0.808538	0.606692
N25	N	1.766629	0.808336	0.743567
C26	C	1.680195	0.781432	0.817559
O27	O	1.606710	0.810009	0.880497
C28	C	1.680164	0.726830	0.817550
C29	C	1.766561	0.699131	0.743543
C30	C	1.939383	0.698332	0.595559
C31	C	1.939343	0.643733	0.595543
C32	C	1.852913	0.616834	0.669526
C33	C	1.766522	0.644532	0.743526
C34	C	1.593737	0.699927	0.891548
C35	C	1.593714	0.645321	0.891533
C36	C	1.680111	0.617622	0.817526
C37	C	1.680053	0.563034	0.817493
N38	N	1.766452	0.535332	0.743501
C39	C	1.852882	0.562232	0.669517
C40	C	1.680267	0.896100	0.817574
C41	C	1.680291	0.950701	0.817577
C42	C	1.853127	0.949899	0.669594
C43	C	1.853096	0.895297	0.669585
C44	C	1.766667	0.868398	0.743581
C45	C	1.852793	0.447570	0.669487
C46	C	1.852742	0.392967	0.669473
C47	C	1.679911	0.393774	0.817461
C48	C	1.679957	0.448373	0.817470
C49	C	1.766408	0.475269	0.743480
O50	O	1.606559	0.535094	0.880347
O51	O	1.926366	0.533648	0.606602
C52	C	2.093755	0.160922	0.768687
C53	C	2.233198	0.156157	0.779406
C54	C	1.741559	0.162434	1.070745
C55	C	1.730918	0.158315	1.210184
C56	C	1.766749	1.035718	0.743623
C57	C	1.766726	0.977606	0.743598
C58	C	1.791477	0.181690	0.417595
C59	C	1.802361	0.185654	0.278175
H60	H	1.252609	0.218943	0.638276
N61	N	1.894180	0.220830	1.213983
H62	H	1.888988	0.218899	1.120127
H63	H	1.872892	0.258172	1.235324
N64	N	1.586707	0.364752	0.897266
H65	H	1.531978	0.390582	0.944156
H66	H	1.532576	0.345622	0.841694
H67	H	1.281717	0.125227	0.848902
N68	N	1.586771	0.478252	0.897283
H69	H	1.532585	0.504437	0.841798
H70	H	1.532094	0.452889	0.944133
N71	N	1.639104	0.123140	1.274369
H72	H	1.644256	0.125089	1.368222
H73	H	1.551217	0.135013	1.244628
H74	H	2.009698	0.621184	0.535284
H75	H	1.609876	0.874202	0.877826
H76	H	1.923097	0.370416	0.609204
N77	N	1.946034	0.476576	0.589687
H78	H	2.000748	0.450737	0.542810
H79	H	1.899466	0.502722	0.527670
N80	N	2.032613	0.727340	0.515758
H81	H	2.087327	0.701500	0.468886
H82	H	1.986041	0.753484	0.453736
H83	H	1.923507	0.971811	0.609357
N84	N	1.946284	0.865424	0.589769
H85	H	2.001036	0.890755	0.542905
H86	H	2.000392	0.839245	0.645338
H87	H	1.609927	0.973250	0.877828
H88	H	1.523378	0.722470	0.951806
H89	H	1.523334	0.623422	0.951794
