data_functionalizedCrystal
_audit_creation_method	'MofGen! by Chris Wilmer'
_symmetry_space_group_name_H-M	'P1'
_symmetry_Int_Tables_number	1
_symmetry_cell_setting	triclinic
loop_
_symmetry_equiv_pos_as_xyz
  x,y,z
_cell_length_a	17.699083
_cell_length_b	10.654550
_cell_length_c	9.130313
_cell_angle_alpha	89.993688
_cell_angle_beta	89.998556
_cell_angle_gamma	96.116027
loop_
_atom_site_label
_atom_site_type_symbol
_atom_site_fract_x
_atom_site_fract_y
_atom_site_fract_z
O1	O	1.005085	-0.158809	0.121593
O2	O	0.784838	-0.179470	0.121641
O3	O	0.900026	0.013688	0.121607
O4	O	0.889898	-0.351967	0.121628
O5	O	0.900016	0.013701	-0.121992
O6	O	0.784828	-0.179458	-0.121957
O7	O	1.005075	-0.158797	-0.122005
Cu8	Cu	0.894951	-0.169126	-0.144224
Cu9	Cu	0.894963	-0.169141	0.143860
O10	O	0.889888	-0.351955	-0.121971
C11	C	0.756632	-0.178724	-0.000152
C12	C	0.672599	-0.176503	-0.000134
C13	C	0.899277	0.060479	-0.000191
C14	C	0.897052	0.199884	-0.000189
N15	N	0.894948	-0.169115	-0.346847
C16	C	0.624699	-0.289883	-0.000128
C17	C	0.545743	-0.287788	-0.000147
C18	C	0.514688	-0.172313	-0.000162
C19	C	0.562594	-0.058924	-0.000172
C20	C	0.641549	-0.061020	-0.000163
C21	C	0.244177	-0.050470	-0.000209
C22	C	0.165216	-0.048383	-0.000213
C23	C	0.148371	-0.277239	-0.000192
C24	C	0.227326	-0.279334	-0.000184
C25	C	0.275225	-0.165946	-0.000202
C26	C	0.360839	-0.168219	-0.000184
C27	C	0.429076	-0.170039	-0.000169
C28	C	1.033282	-0.159543	-0.000209
C29	C	1.117314	-0.161764	-0.000217
C30	C	0.890637	-0.398746	-0.000169
C31	C	0.892861	-0.538151	-0.000163
C32	C	0.964873	0.280556	-0.000203
C33	C	0.962778	0.411541	-0.000185
C34	C	0.825036	0.381166	-0.000144
C35	C	0.827132	0.250185	-0.000152
C36	C	0.848668	-0.093065	-0.576887
C37	C	0.848658	-0.093048	-0.423550
C38	C	0.941257	-0.245195	-0.423488
C39	C	0.941271	-0.245204	-0.576822
N40	N	0.894971	-0.169142	0.346483
H41	H	0.649978	-0.383916	-0.000115
H42	H	0.810954	-0.031098	-0.361164
Br43	Br	0.785836	0.010165	-0.680970
Br44	Br	1.004087	-0.348421	-0.319392
Br45	Br	0.730148	0.449441	-0.000089
H46	H	0.978981	-0.307156	-0.639216
Br47	Br	0.309174	0.103414	-0.000237
Br48	Br	1.054824	0.521022	-0.000195
H49	H	0.252606	-0.373366	-0.000165
Br50	Br	0.480737	-0.441668	-0.000134
H51	H	0.109361	-0.369564	-0.000185
H52	H	0.139935	0.045657	-0.000227
H53	H	0.680549	0.031306	-0.000167
Br54	Br	0.520449	0.097796	-0.000206
Br55	Br	1.059764	0.212294	-0.000254
Br56	Br	0.735083	0.140690	-0.000113
