data_functionalizedCrystal
_audit_creation_method	'MofGen! by Chris Wilmer'
_symmetry_space_group_name_H-M	'P1'
_symmetry_Int_Tables_number	1
_symmetry_cell_setting	triclinic
loop_
_symmetry_equiv_pos_as_xyz
  x,y,z
_cell_length_a	14.560438
_cell_length_b	14.560438
_cell_length_c	14.560438
_cell_angle_alpha	90.002394
_cell_angle_beta	60.000971
_cell_angle_gamma	60.001641
loop_
_atom_site_label
_atom_site_type_symbol
_atom_site_fract_x
_atom_site_fract_y
_atom_site_fract_z
Zr1	Zr	1.005292	0.884759	-0.120502
O2	O	1.196890	0.738112	-0.267150
O3	O	0.813691	0.929713	-0.075548
O4	O	1.005292	0.929712	-0.267148
O5	O	1.005290	0.738116	0.075590
O6	O	1.005294	1.080850	-0.267146
O7	O	1.005289	0.738113	-0.075549
O8	O	0.662556	1.080852	0.075593
O9	O	1.348028	0.738113	-0.267149
O10	O	0.892502	1.061679	-0.056372
O11	O	0.892500	0.948888	0.056420
O12	O	1.118085	0.948887	-0.169165
O13	O	1.118084	0.836096	-0.056374
Zr14	Zr	1.005296	1.125811	0.120552
Zr15	Zr	1.005296	1.125807	-0.120498
Zr16	Zr	1.005292	0.884763	0.120548
Zr17	Zr	1.246340	0.884761	-0.120500
Zr18	Zr	0.764248	1.125809	0.120550
O19	O	1.196897	1.080857	0.075597
O20	O	1.196895	1.080851	-0.267144
O21	O	1.196891	0.738117	0.075592
O22	O	0.813698	1.272458	0.267199
O23	O	0.813697	1.272452	-0.075542
O24	O	0.813693	0.929718	0.267194
O25	O	1.005298	1.272454	-0.075541
O26	O	1.005296	1.080858	0.267198
O27	O	1.005294	0.929720	0.267196
O28	O	1.005299	1.272456	0.075599
O29	O	1.348031	0.929714	-0.267145
O30	O	0.662557	1.080855	0.267195
O31	O	0.662560	1.272456	0.267198
O32	O	0.662559	1.272453	0.075596
O33	O	1.348028	0.738116	-0.075546
O34	O	1.348032	0.929717	-0.075543
O35	O	0.892503	1.061683	0.169215
O36	O	0.892504	1.174474	0.056423
O37	O	1.118088	1.061681	-0.056370
O38	O	1.118086	0.948890	0.056422
C39	C	0.703780	1.005282	0.000022
C40	C	0.601448	1.005282	0.000021
C41	C	0.457211	1.064166	-0.058847
C42	C	0.553370	1.064159	-0.058855
C43	C	0.553373	0.946397	0.058899
C44	C	0.457222	0.946397	0.058899
C45	C	0.409129	1.123057	-0.117718
C46	C	0.457199	1.181940	-0.176597
C47	C	0.553358	1.181934	-0.176604
C48	C	0.601446	1.123044	-0.117732
C49	C	1.005289	0.703770	0.000020
C50	C	1.005287	0.601439	0.000018
C51	C	0.887537	0.612237	0.058895
C52	C	0.887543	0.516082	0.058905
C53	C	1.123060	0.398334	-0.058847
C54	C	1.123052	0.494488	-0.058850
C55	C	0.769772	0.719188	0.117763
C56	C	0.652012	0.729991	0.176644
C57	C	0.652019	0.633836	0.176654
C58	C	0.769784	0.526878	0.117784
C59	C	1.306808	1.005287	0.000027
C60	C	1.409140	1.005288	0.000028
C61	C	1.005293	1.005280	-0.301492
C62	C	1.005293	1.005279	-0.403824
C63	C	1.005299	1.306799	0.000030
C64	C	1.005301	1.409130	0.000031
C65	C	1.005294	0.922022	-0.548064
C66	C	1.005288	0.922018	-0.451909
C67	C	1.005290	1.088555	-0.451892
C68	C	1.005287	1.088564	-0.548040
C69	C	1.005295	1.005289	0.301541
C70	C	1.005295	1.005291	0.403873
C71	C	0.703785	1.306797	0.000027
C72	C	0.601455	1.409127	0.000028
C73	C	0.703781	1.005287	0.301539
C74	C	0.601450	1.005288	0.403870
C75	C	0.703786	1.306801	0.301543
C76	C	0.601457	1.409133	0.403876
C77	C	1.306802	0.703768	-0.301494
C78	C	1.409131	0.601436	-0.403827
C79	C	1.306803	0.703773	0.000023
C80	C	1.409133	0.601443	0.000022
C81	C	1.306807	1.005283	-0.301489
C82	C	1.409138	1.005282	-0.403820
C83	C	0.553377	1.398327	-0.058847
C84	C	0.457235	1.494482	-0.058851
C85	C	0.457255	1.612232	0.058906
C86	C	0.553401	1.516079	0.058902
C87	C	0.553374	1.064165	0.510823
C88	C	0.457232	1.064152	0.606970
C89	C	0.457247	0.946385	0.489197
C90	C	0.553393	0.946391	0.393052
C91	C	0.553381	1.516085	0.393079
C92	C	0.457240	1.612233	0.489235
C93	C	0.457256	1.494464	0.606983
C94	C	0.553401	1.398318	0.510827
H95	H	0.330829	1.123070	-0.117717
N96	N	0.525021	0.645472	0.240158
H97	H	0.473530	0.687957	0.322523
H98	H	0.473648	0.687900	0.209177
H99	H	1.005284	1.156376	-0.587174
N100	N	1.005298	0.832204	-0.400069
H101	H	0.925218	0.868529	-0.320138
H102	H	1.005353	0.779482	-0.445203
H103	H	0.592541	0.898441	0.305960
H104	H	0.592549	1.311227	0.519627
H105	H	0.418116	1.699321	0.106840
H106	H	0.418094	1.112094	0.694053
N107	N	0.605273	1.527730	0.122395
H108	H	0.701787	1.490461	0.068377
H109	H	0.560143	1.610095	0.159687
H110	H	0.418049	1.229878	-0.224537
N111	N	0.605222	1.245425	-0.240119
H112	H	0.560170	1.282728	-0.277411
H113	H	0.588497	1.304614	-0.186059
H114	H	0.679754	1.123034	-0.117752
N115	N	0.605189	1.527764	0.277734
H116	H	0.645078	1.570242	0.268724
H117	H	0.673336	1.450598	0.218516
H118	H	0.592532	0.898453	0.106831
N119	N	0.605207	1.127686	0.522485
H120	H	0.560160	1.164981	0.604832
H121	H	0.701726	1.073632	0.485157
H122	H	1.218939	0.311245	-0.106779
H123	H	0.769754	0.797489	0.117760
H124	H	0.418084	0.898451	0.106838
N125	N	0.405407	0.882872	0.477532
H126	H	0.337198	0.891805	0.554667
H127	H	0.365591	0.913789	0.435011
N128	N	1.250059	0.482838	-0.122362
H129	H	1.255305	0.520102	-0.181612
H130	H	1.255229	0.520098	-0.068287
N131	N	0.605207	1.282977	-0.122348
H132	H	0.701725	1.240450	-0.181599
H133	H	0.588375	1.240558	-0.068268
N134	N	0.405375	1.727593	0.477602
H135	H	0.478728	1.736605	0.435124
H136	H	0.365453	1.736534	0.435169
H137	H	0.769780	0.448587	0.117803
N138	N	1.005293	0.832217	-0.599926
H139	H	1.005286	0.779469	-0.554881
H140	H	0.925209	0.868639	-0.599774
H141	H	0.556132	0.817080	0.224581
N142	N	0.405422	1.482802	0.722334
H143	H	0.337216	1.559938	0.781612
H144	H	0.365605	1.440281	0.731235
N145	N	1.005260	1.178368	-0.400000
H146	H	1.085334	1.142046	-0.400139
H147	H	1.005199	1.231107	-0.445056
N148	N	0.405392	1.482823	-0.122360
H149	H	0.365491	1.440356	-0.091473
H150	H	0.337247	1.559997	-0.113416
