data_functionalizedCrystal
_audit_creation_method	'MofGen! by Chris Wilmer'
_symmetry_space_group_name_H-M	'P1'
_symmetry_Int_Tables_number	1
_symmetry_cell_setting	triclinic
loop_
_symmetry_equiv_pos_as_xyz
  x,y,z
_cell_length_a	7.681481
_cell_length_b	8.597366
_cell_length_c	8.597304
_cell_angle_alpha	86.359176
_cell_angle_beta	76.508647
_cell_angle_gamma	103.474720
loop_
_atom_site_label
_atom_site_type_symbol
_atom_site_fract_x
_atom_site_fract_y
_atom_site_fract_z
O1	O	0.138716	2.099835	0.220422
O2	O	0.064455	1.635775	0.245823
O3	O	0.138718	1.880497	0.001081
O4	O	0.064453	1.855113	0.465163
O5	O	0.440726	1.910618	-0.029110
O6	O	0.366463	1.665896	0.215631
O7	O	0.440725	2.129956	0.190230
Zn8	Zn	0.451544	1.902709	0.198137
Zn9	Zn	0.053635	1.863023	0.237916
O10	O	0.366462	1.885235	0.434971
C11	C	0.206608	1.591452	0.229682
C12	C	0.180237	1.414509	0.226548
N13	N	0.723109	1.929805	0.170988
N14	N	-0.217926	1.835939	0.265052
C15	C	0.298570	1.894510	-0.073400
C16	C	0.324930	1.891369	-0.250350
C17	C	0.298568	2.174279	0.206371
C18	C	0.324927	2.351221	0.209506
C19	C	0.206606	1.871221	0.509453
C20	C	0.180234	1.874361	0.686404
H21	H	0.036178	1.333325	0.238730
H22	H	0.468994	1.903512	-0.331583
H23	H	0.036175	1.862196	-0.232369
H24	H	0.468997	1.432415	0.197312
C25	C	0.641179	1.706482	0.394755
C26	C	0.500985	1.571864	0.345600
C27	C	0.360076	1.442405	0.475305
C28	C	0.359360	1.447563	0.654165
C29	C	0.499558	1.582186	0.703328
C30	C	0.640468	1.711646	0.573623
H31	H	0.501511	1.568041	0.213189
H32	H	0.256292	1.342748	0.438909
H33	H	0.255050	1.351730	0.750180
H34	H	0.499033	1.586010	0.835739
H35	H	0.744252	1.811303	0.610018
H36	H	0.827422	2.025641	0.074982
