data_functionalizedCrystal
_audit_creation_method	'MofGen! by Chris Wilmer'
_symmetry_space_group_name_H-M	'P1'
_symmetry_Int_Tables_number	1
_symmetry_cell_setting	triclinic
loop_
_symmetry_equiv_pos_as_xyz
  x,y,z
_cell_length_a	9.065218
_cell_length_b	9.730223
_cell_length_c	10.654551
_cell_angle_alpha	90.002058
_cell_angle_beta	84.750657
_cell_angle_gamma	90.002669
loop_
_atom_site_label
_atom_site_type_symbol
_atom_site_fract_x
_atom_site_fract_y
_atom_site_fract_z
O1	O	1.959392	0.114288	0.184158
O2	O	1.530025	0.114289	0.199263
O3	O	1.754579	0.114285	0.009011
O4	O	1.734837	0.114291	0.374411
O5	O	1.754567	-0.114295	0.009007
O6	O	1.530013	-0.114291	0.199260
O7	O	1.959380	-0.114292	0.184155
Zn8	Zn	1.744695	-0.150584	0.191707
Zn9	Zn	1.744710	0.150580	0.191711
O10	O	1.734825	-0.114289	0.374407
C11	C	1.475040	-0.000001	0.197810
C12	C	1.311221	-0.000000	0.193469
N13	N	1.744695	-0.356120	0.191703
C14	C	1.844169	-0.571940	0.107491
C15	C	1.844160	-0.428057	0.107493
C16	C	1.645243	-0.428074	0.275926
C17	C	1.645260	-0.571954	0.275930
C18	C	2.014365	0.000000	0.185608
C19	C	2.178184	0.000009	0.189949
C20	C	1.753123	-0.000003	-0.037795
C21	C	1.748785	0.000004	-0.177255
N22	N	1.744722	0.356117	0.191705
C23	C	1.746756	0.124604	-0.242765
C24	C	1.742667	0.124605	-0.373802
C25	C	1.742645	-0.124605	-0.373807
C26	C	1.746722	-0.124605	-0.242772
C27	C	1.736281	0.000002	0.421213
C28	C	1.740619	0.000005	0.560673
H29	H	1.925158	-0.630502	0.038912
H30	H	1.564278	-0.630534	0.344513
H31	H	1.748431	0.226069	-0.189425
H32	H	1.741012	0.226067	-0.427134
C33	C	1.740120	-0.259929	-0.444851
C34	C	1.614373	-0.335089	-0.400321
C35	C	1.611993	-0.459750	-0.465747
H36	H	1.826571	-0.311291	-0.432020
H37	H	1.737325	-0.242141	-0.532278
H38	H	1.617180	-0.352882	-0.312915
H39	H	1.527901	-0.283769	-0.413154
H40	H	1.609199	-0.441961	-0.553174
H41	H	1.698451	-0.511100	-0.452911
H42	H	1.526669	-0.510756	-0.435551
C43	C	1.952193	-0.350195	0.015915
C44	C	2.039270	-0.443990	-0.057859
C45	C	2.138798	-0.372315	-0.142247
H46	H	2.014207	-0.294052	0.061677
H47	H	1.898617	-0.294107	-0.037067
H48	H	2.092842	-0.500055	-0.004884
H49	H	1.977297	-0.500136	-0.103648
H50	H	2.085222	-0.316227	-0.195229
H51	H	2.200801	-0.316175	-0.096475
H52	H	2.197882	-0.435943	-0.192321
C53	C	1.748624	-0.259852	-0.171540
C54	C	1.624228	-0.267136	-0.083650
C55	C	1.625913	-0.391706	-0.018019
H56	H	1.836004	-0.265166	-0.128907
H57	H	1.746742	-0.334105	-0.229277
H58	H	1.626123	-0.192904	-0.025921
H59	H	1.536829	-0.261846	-0.126249
H60	H	1.624031	-0.465959	-0.075756
H61	H	1.713298	-0.397009	0.024606
H62	H	1.541506	-0.396670	0.041614
H63	H	1.564261	-0.369494	0.344498
