data_functionalizedCrystal
_audit_creation_method	'MofGen! by Chris Wilmer'
_symmetry_space_group_name_H-M	'P1'
_symmetry_Int_Tables_number	1
_symmetry_cell_setting	triclinic
loop_
_symmetry_equiv_pos_as_xyz
  x,y,z
_cell_length_a	16.109302
_cell_length_b	15.625429
_cell_length_c	14.749843
_cell_angle_alpha	94.862492
_cell_angle_beta	102.656029
_cell_angle_gamma	83.865709
loop_
_atom_site_label
_atom_site_type_symbol
_atom_site_fract_x
_atom_site_fract_y
_atom_site_fract_z
O1	O	1.128316	0.088728	0.110764
O2	O	0.887318	0.102016	0.115381
O3	O	1.004774	-0.025547	0.070977
O4	O	1.010861	0.216290	0.155168
O5	O	0.971526	0.010518	-0.076142
O6	O	0.854071	0.138081	-0.031738
O7	O	1.095069	0.124793	-0.036355
Zn8	Zn	0.969291	0.137163	-0.057405
Zn9	Zn	1.013096	0.089645	0.136431
O10	O	0.977613	0.252355	0.008049
C11	C	0.839676	0.119510	0.041634
C12	C	0.747251	0.117897	0.041069
C13	C	0.516490	0.133822	-0.040416
C14	C	0.429648	0.132296	-0.040944
C15	C	0.465907	0.092980	0.119455
C16	C	0.552747	0.094501	0.119980
C17	C	0.578035	0.114926	0.040043
C18	C	0.404353	0.111880	0.038990
C19	C	0.310196	0.110225	0.038419
C20	C	0.672199	0.116580	0.040614
C21	C	0.985131	-0.038461	-0.013354
C22	C	0.976125	-0.130671	-0.045449
C23	C	1.037091	-0.532230	0.249933
C24	C	1.028619	-0.618869	0.219747
C25	C	0.992375	-0.579539	0.059368
C26	C	1.000849	-0.492896	0.089540
C27	C	1.023206	-0.469248	0.184824
C28	C	0.986963	-0.429914	0.024431
C29	C	0.995431	-0.343278	0.054602
C30	C	1.017785	-0.319623	0.149881
C31	C	1.031674	-0.382612	0.214994
C32	C	0.964600	-0.453563	-0.070851
C33	C	0.950715	-0.390581	-0.135960
C34	C	0.959189	-0.303944	-0.105790
C35	C	0.981543	-0.280289	-0.010511
C36	C	0.945300	-0.240955	-0.170903
C37	C	0.953768	-0.154319	-0.140733
C38	C	0.990011	-0.193653	0.019660
C39	C	1.142711	0.107298	0.037394
C40	C	1.235138	0.108909	0.037965
C41	C	0.997256	0.265269	0.092382
C42	C	1.006263	0.357478	0.124483
N43	N	0.939402	0.169592	-0.189693
C44	C	0.856013	0.260107	-0.308966
C45	C	0.876931	0.237398	-0.216357
C46	C	0.980982	0.124470	-0.255633
C47	C	0.960076	0.147171	-0.348246
C48	C	0.897590	0.214990	-0.374905
C49	C	1.001653	0.102054	-0.414185
C50	C	0.980745	0.124751	-0.506791
C51	C	0.918260	0.192565	-0.533458
C52	C	0.876682	0.237687	-0.467511
C53	C	1.064134	0.034232	-0.387526
C54	C	1.105711	-0.010885	-0.453465
C55	C	1.084807	0.011816	-0.546072
C56	C	1.022322	0.079630	-0.572739
C57	C	1.126385	-0.033306	-0.612019
C58	C	1.105477	-0.010608	-0.704625
C59	C	1.001414	0.102327	-0.665345
N60	N	1.042991	0.057210	0.268716
H61	H	0.445306	0.076351	0.184537
H62	H	1.008223	-0.174400	0.097248
O63	O	0.619139	0.074122	0.206765
H64	H	0.586966	0.059676	0.262267
O65	O	0.809293	0.310841	-0.496276
H66	H	0.747641	0.295887	-0.482221
H67	H	0.974169	-0.598805	-0.018212
O68	O	0.543766	0.155856	-0.126629
H69	H	0.521304	0.108408	-0.184883
H70	H	0.950539	0.157557	-0.687048
H71	H	1.024671	-0.249076	0.174445
O72	O	1.055789	-0.357094	0.317765
H73	H	1.064020	-0.415443	0.357976
O74	O	0.363263	0.152684	-0.127721
H75	H	0.395440	0.167149	-0.183211
H76	H	1.055304	-0.512977	0.327521
O77	O	0.955462	-0.547005	-0.103399
H78	H	1.001436	-0.568773	-0.148565
H79	H	0.805137	0.315337	-0.330669
O80	O	1.043603	-0.686805	0.289974
H81	H	1.060578	-0.655803	0.361296
O82	O	0.926620	-0.416090	-0.238729
H83	H	0.923074	-0.486916	-0.248772
O84	O	0.921197	-0.266464	-0.273671
H85	H	0.917647	-0.337290	-0.283712
H86	H	0.942444	-0.103034	-0.193750
H87	H	0.901234	0.211042	-0.608866
H88	H	0.843067	0.274143	-0.162671
H89	H	1.156585	-0.066106	-0.431750
O90	O	1.048353	0.051303	-0.226887
H91	H	1.055902	0.043093	-0.151416
H92	H	1.081152	0.015752	-0.312120
O93	O	1.193751	-0.106476	-0.583272
H94	H	1.201296	-0.114686	-0.507802
O95	O	1.150323	-0.059260	-0.775753
H96	H	1.197293	-0.110223	-0.741656
