data_functionalizedCrystal
_audit_creation_method	'MofGen! by Chris Wilmer'
_symmetry_space_group_name_H-M	'P1'
_symmetry_Int_Tables_number	1
_symmetry_cell_setting	triclinic
loop_
_symmetry_equiv_pos_as_xyz
  x,y,z
_cell_length_a	23.204063
_cell_length_b	23.204065
_cell_length_c	23.204116
_cell_angle_alpha	59.997987
_cell_angle_beta	89.998953
_cell_angle_gamma	60.000253
loop_
_atom_site_label
_atom_site_type_symbol
_atom_site_fract_x
_atom_site_fract_y
_atom_site_fract_z
O1	O	-0.491197	-0.412484	0.017135
O2	O	-0.407392	-0.294473	-0.017070
O3	O	-0.407389	-0.412483	0.100940
O4	O	-0.491200	-0.294474	-0.100875
O5	O	-0.311538	-0.508333	0.100940
O6	O	-0.311541	-0.390323	-0.017071
O7	O	-0.395346	-0.508335	0.017135
Zn8	Zn	-0.338225	-0.464547	0.000032
Zn9	Zn	-0.464513	-0.338260	0.000033
O10	O	-0.395349	-0.390324	-0.100876
C11	C	-0.310652	-0.181456	-0.024838
C12	C	-0.346214	-0.110333	-0.019942
C13	C	-0.241294	-0.215971	-0.025323
C14	C	-0.310655	-0.285810	-0.024846
C15	C	-0.346219	-0.326263	-0.019957
C16	C	-0.241297	-0.320167	-0.025331
C17	C	-0.206293	-0.285815	-0.024838
C18	C	-0.130274	-0.326273	-0.019941
C19	C	-0.345497	-0.215967	-0.025331
C20	C	-0.658540	-0.590043	0.035860
C21	C	-0.734559	-0.549588	0.030967
C22	C	-0.623539	-0.659889	0.036349
C23	C	-0.554183	-0.590040	0.035855
C24	C	-0.518621	-0.549582	0.030958
C25	C	-0.519339	-0.659886	0.036344
C26	C	-0.554182	-0.694402	0.035859
C27	C	-0.518619	-0.765527	0.030967
C28	C	-0.623539	-0.555686	0.036345
C29	C	-0.489889	-0.822989	0.027012
C30	C	-0.795974	-0.516903	0.027013
C31	C	-0.489891	-0.516895	0.027000
C32	C	-0.453845	-0.895077	0.022052
C33	C	-0.873022	-0.475899	0.022054
C34	C	-0.453848	-0.475888	0.022036
C35	C	-0.554187	-0.212776	-0.445775
C36	C	-0.518624	-0.253233	-0.481336
C37	C	-0.623545	-0.142931	-0.480619
C38	C	-0.554188	-0.212775	-0.341416
C39	C	-0.518626	-0.253231	-0.265397
C40	C	-0.623546	-0.142930	-0.376419
C41	C	-0.658547	-0.108416	-0.445777
C42	C	-0.734566	-0.037291	-0.481340
C43	C	-0.519344	-0.247131	-0.376417
C44	C	-0.795982	0.020169	-0.510072
C45	C	-0.489893	-0.285920	-0.510065
C46	C	-0.489896	-0.285917	-0.203980
C47	C	-0.873032	0.092257	-0.546117
C48	C	-0.453848	-0.326925	-0.546108
C49	C	-0.453852	-0.326922	-0.126930
O50	O	0.100922	-0.508345	0.017151
O51	O	-0.100892	-0.390333	-0.017055
O52	O	0.017109	-0.508348	0.100956
O53	O	-0.017080	-0.390330	-0.100860
O54	O	0.017112	-0.412502	0.100963
O55	O	-0.100890	-0.294486	-0.017048
O56	O	0.100924	-0.412499	0.017158
Zn57	Zn	0.000018	-0.338275	0.000056
Zn58	Zn	0.000014	-0.464556	0.000047
O59	O	-0.017077	-0.294483	-0.100853
O60	O	-0.395342	0.083766	0.017156
O61	O	-0.311534	-0.083842	-0.017048
O62	O	-0.311538	-0.083852	0.100962
O63	O	-0.395338	0.083777	-0.100854
O64	O	-0.407391	-0.083849	0.100954
O65	O	-0.407387	-0.083839	-0.017056
O66	O	-0.491195	0.083770	0.017149
Zn67	Zn	-0.464510	-0.000034	0.000045
Zn68	Zn	-0.338219	-0.000039	0.000055
O69	O	-0.491191	0.083780	-0.100861
O70	O	-1.100901	0.281028	-0.592582
O71	O	-0.899087	0.113413	-0.508770
O72	O	-1.017091	0.113409	-0.508767
O73	O	-0.982897	0.281032	-0.592584
O74	O	-1.017088	0.113407	-0.604617
O75	O	-0.899085	0.113411	-0.604619
O76	O	-1.100898	0.281026	-0.688432
Zn77	Zn	-0.999991	0.197218	-0.661744
Zn78	Zn	-0.999994	0.197221	-0.535458
O79	O	-0.982895	0.281030	-0.688434
O80	O	-0.407389	-0.412483	-0.688416
O81	O	-0.491197	-0.294477	-0.604610
O82	O	-0.491195	-0.412486	-0.604605
O83	O	-0.407390	-0.294474	-0.688421
O84	O	-0.395343	-0.508338	-0.508754
O85	O	-0.395345	-0.390329	-0.508759
O86	O	-0.311537	-0.508334	-0.592565
Zn87	Zn	-0.338222	-0.464550	-0.535443
Zn88	Zn	-0.464511	-0.338262	-0.661732
O89	O	-0.311539	-0.390326	-0.592570
C90	C	-0.206294	-0.621360	0.310702
C91	C	-0.130275	-0.692485	0.346265
C92	C	-0.241296	-0.586846	0.345545
C93	C	-0.310654	-0.517001	0.206342
C94	C	-0.346216	-0.476544	0.130323
C95	C	-0.345497	-0.482645	0.241343
C96	C	-0.310653	-0.517001	0.310701
C97	C	-0.346216	-0.476544	0.346263
C98	C	-0.241296	-0.586846	0.241345
C99	C	0.024887	-0.517030	0.310724
C100	C	0.019993	-0.476577	0.346290
C101	C	0.025371	-0.586874	0.345565
C102	C	0.024889	-0.517022	0.206362
C103	C	0.019998	-0.476562	0.130342
C104	C	0.025374	-0.586867	0.241361
C105	C	0.024884	-0.621384	0.310718
C106	C	0.019987	-0.692509	0.346278
C107	C	0.025377	-0.482671	0.241366
C108	C	-0.310656	-0.285855	0.310709
C109	C	-0.346220	-0.326314	0.346266
C110	C	-0.241298	-0.320218	0.345555
C111	C	-0.310655	-0.181484	0.206357
C112	C	-0.346217	-0.110348	0.130340
C113	C	-0.241296	-0.216005	0.241362
C114	C	-0.206295	-0.285860	0.310717
C115	C	-0.130275	-0.326323	0.346282
C116	C	-0.345499	-0.216001	0.241354
C117	C	-0.035774	-0.108410	-0.445754
C118	C	-0.030877	-0.037285	-0.481314
C119	C	-0.036262	-0.142920	-0.480600
C120	C	-0.035780	-0.212771	-0.341397
C121	C	-0.030889	-0.253231	-0.265377
C122	C	-0.036268	-0.247124	-0.376401
C123	C	-0.035777	-0.212765	-0.445759
C124	C	-0.030883	-0.253218	-0.481324
C125	C	-0.036265	-0.142927	-0.376396
C126	C	-0.026928	-0.285901	-0.510056
C127	C	-0.026920	0.020175	-0.510042
C128	C	-0.026936	-0.285920	-0.203961
C129	C	-0.021967	-0.326903	-0.546103
C130	C	-0.021955	0.092262	-0.546083
C131	C	-0.021978	-0.326928	-0.126911
O132	O	-0.017120	-0.390358	0.491266
O133	O	0.017098	-0.508368	0.407461
O134	O	-0.100916	-0.390357	0.407446
O135	O	0.100893	-0.508369	0.491281
O136	O	-0.100904	-0.294507	0.311599
O137	O	0.017110	-0.412518	0.311614
O138	O	-0.017109	-0.294509	0.395420
Zn139	Zn	0.000002	-0.338295	0.338299
Zn140	Zn	-0.000013	-0.464581	0.464581
O141	O	0.100905	-0.412519	0.395435
C142	C	-0.658539	0.410016	-0.445751
C143	C	-0.734559	0.450479	-0.481316
C144	C	-0.623536	0.444375	-0.480590
C145	C	-0.554179	0.305641	-0.341392
C146	C	-0.518616	0.234505	-0.265374
C147	C	-0.519335	0.340158	-0.376388
C148	C	-0.554178	0.410013	-0.445743
C149	C	-0.518614	0.450471	-0.481300
C150	C	-0.623537	0.340162	-0.376396
C151	C	-0.489883	0.483159	-0.510025
C152	C	-0.795975	0.483170	-0.510049
C153	C	-0.489886	0.177036	-0.203959
C154	C	-0.453838	0.524167	-0.546063
C155	C	-0.873025	0.524182	-0.546095
C156	C	-0.453842	0.104937	-0.126912
H157	H	-0.402486	-0.187075	-0.026121
O158	O	-0.207875	-0.387209	0.413569
C159	C	-0.245633	-0.368997	0.456475
H160	H	-0.302913	-0.315466	0.422656
H161	H	-0.220938	-0.352336	0.482559
C162	C	-0.172511	-0.509668	0.555331
C163	C	-0.242865	-0.443925	0.513794
H164	H	-0.170801	-0.555888	0.590690
H165	H	-0.147070	-0.521938	0.526425
H166	H	-0.151940	-0.495773	0.577060
H167	H	-0.263432	-0.457817	0.492059
H168	H	-0.268309	-0.431659	0.542698
H169	H	-0.462354	-0.688766	0.037124
O170	O	-0.207699	-0.181655	0.207830
C171	C	-0.146858	-0.238625	0.204341
H172	H	-0.153239	-0.286212	0.208877
H173	H	-0.098785	-0.269873	0.249507
C174	C	-0.128878	-0.135914	0.127819
C175	C	-0.136719	-0.194357	0.133384
H176	H	-0.122622	-0.108609	0.084051
H177	H	-0.169867	-0.097533	0.130172
H178	H	-0.088819	-0.161963	0.165462
H179	H	-0.176783	-0.168307	0.095747
H180	H	-0.095737	-0.232733	0.131023
O181	O	-0.413442	-0.181593	0.207754
C182	C	-0.417304	-0.181200	0.146907
H183	H	-0.363330	-0.230621	0.153286
H184	H	-0.434138	-0.119200	0.098838
C185	C	-0.537983	-0.137064	0.128923
C186	C	-0.471693	-0.197768	0.136760
H187	H	-0.571534	-0.147280	0.122662
H188	H	-0.535383	-0.137325	0.169916
H189	H	-0.552002	-0.085403	0.088866
H190	H	-0.457671	-0.249426	0.176821
H191	H	-0.474292	-0.197516	0.095774
O192	O	-0.413444	-0.415517	0.207720
C193	C	-0.417283	-0.351178	0.146915
H194	H	-0.370457	-0.377198	0.129404
H195	H	-0.415998	-0.310062	0.159395
C196	C	-0.543982	-0.269333	0.108801
C197	C	-0.486472	-0.301291	0.087290
H198	H	-0.586662	-0.238557	0.072022
H199	H	-0.541396	-0.312677	0.149767
H200	H	-0.542901	-0.235075	0.119200
H201	H	-0.487548	-0.335556	0.076900
H202	H	-0.489060	-0.257950	0.046320
O203	O	-0.037258	-0.314136	-0.342797
C204	C	-0.037566	-0.337215	-0.273938
H205	H	-0.059209	-0.282363	-0.271770
H206	H	0.018573	-0.387723	-0.235101
C207	C	-0.057920	-0.435663	-0.256774
C208	C	-0.084507	-0.368291	-0.254113
H209	H	-0.086872	-0.454836	-0.244543
H210	H	-0.057710	-0.420117	-0.303165
H211	H	-0.011138	-0.477744	-0.224410
H212	H	-0.131285	-0.326208	-0.286483
H213	H	-0.084727	-0.383831	-0.207728
O214	O	-0.037117	-0.108409	-0.548559
C215	C	-0.037422	-0.039246	-0.571938
H216	H	-0.014685	-0.044764	-0.524466
H217	H	-0.093892	0.017859	-0.602489
C218	C	-0.020111	-0.026604	-0.678642
C219	C	0.007820	-0.033385	-0.620335
H220	H	0.007793	-0.022985	-0.708498
H221	H	-0.019908	-0.073199	-0.662892
H222	H	-0.067169	0.020984	-0.704092
H223	H	0.054873	-0.080977	-0.594881
H224	H	0.007626	0.013202	-0.636082
O225	O	-0.657129	-0.108334	-0.343007
C226	C	-0.676674	-0.027668	-0.380762
H227	H	-0.680393	-0.004214	-0.438036
H228	H	-0.635333	-0.026278	-0.356044
C229	C	-0.744276	-0.001922	-0.307681
C230	C	-0.748850	0.026888	-0.378027
H231	H	-0.788797	0.031731	-0.305992
H232	H	-0.731107	-0.056269	-0.282243
H233	H	-0.709822	-0.000763	-0.287091
H234	H	-0.783297	0.025718	-0.398614
H235	H	-0.762027	0.081235	-0.403469
H236	H	-0.036993	-0.114078	-0.348277
O237	O	-0.451341	0.305574	-0.342770
C238	C	-0.427965	0.236411	-0.273911
H239	H	-0.461156	0.212582	-0.271753
H240	H	-0.433629	0.253725	-0.235081
C241	C	-0.309173	0.198926	-0.256711
C242	C	-0.349936	0.169656	-0.254062
H243	H	-0.261041	0.157750	-0.244465
H244	H	-0.324922	0.245525	-0.303102
H245	H	-0.313902	0.213354	-0.224353
H246	H	-0.345214	0.155238	-0.286426
H247	H	-0.334184	0.123054	-0.207676
O248	O	-0.657069	0.305746	-0.342799
C249	C	-0.660543	0.305345	-0.281948
H250	H	-0.656002	0.354772	-0.288324
H251	H	-0.615375	0.243347	-0.233882
C252	C	-0.737067	0.261183	-0.263965
C253	C	-0.731495	0.321894	-0.271798
H254	H	-0.780832	0.271387	-0.257702
H255	H	-0.734725	0.261449	-0.304960
H256	H	-0.699422	0.209523	-0.223911
H257	H	-0.769134	0.373551	-0.311857
H258	H	-0.733846	0.321637	-0.230810
O259	O	-0.207857	-0.621302	0.207791
C260	C	-0.245585	-0.644698	0.188257
H261	H	-0.302870	-0.607144	0.184499
H262	H	-0.220873	-0.712142	0.229626
C263	C	-0.172436	-0.676004	0.120729
C264	C	-0.242796	-0.629874	0.116107
H265	H	-0.170714	-0.666864	0.076226
H266	H	-0.147016	-0.660245	0.133892
H267	H	-0.151851	-0.732203	0.155206
H268	H	-0.263377	-0.573676	0.081637
H269	H	-0.268220	-0.645624	0.102937
H270	H	-0.651638	-0.114039	-0.537611
O271	O	-0.657165	-0.694244	0.037278
C272	C	-0.726009	-0.648795	0.037624
H273	H	-0.743270	-0.584074	0.014820
H274	H	-0.726593	-0.678685	0.094115
C275	C	-0.755904	-0.725688	0.020502
C276	C	-0.777107	-0.646195	-0.007511
H277	H	-0.787424	-0.724087	-0.007336
H278	H	-0.709522	-0.756311	0.020272
H279	H	-0.756391	-0.750588	0.067578
H280	H	-0.776612	-0.621300	-0.054582
H281	H	-0.823491	-0.615568	-0.007290
H282	H	-0.213196	-0.187082	-0.026109
O283	O	0.026411	-0.415687	0.207804
C284	C	0.087542	-0.433916	0.188279
H285	H	0.107259	-0.487454	0.184539
H286	H	0.130277	-0.450575	0.229643
C287	C	0.045739	-0.293249	0.120718
C288	C	0.069952	-0.359001	0.116119
H289	H	0.034891	-0.247038	0.076209
H290	H	0.004555	-0.280968	0.133874
H291	H	0.081356	-0.307142	0.155191
H292	H	0.034333	-0.345111	0.081653
H293	H	0.111130	-0.371278	0.102956
O294	O	0.026433	-0.621383	0.207853
C295	C	0.087535	-0.644709	0.188278
H296	H	0.129474	-0.653249	0.223503
H297	H	0.073955	-0.595307	0.130866
C298	C	0.064461	-0.714899	0.153603
C299	C	0.115973	-0.725395	0.196871
H300	H	0.082003	-0.764667	0.158900
H301	H	0.023294	-0.699181	0.166789
H302	H	0.053150	-0.673727	0.105764
H303	H	0.127278	-0.766558	0.244710
H304	H	0.157143	-0.741122	0.183694
H305	H	-0.651645	-0.499479	0.037123
O306	O	-0.451349	-0.314158	-0.343002
C307	C	-0.427971	-0.337242	-0.388780
H308	H	-0.461165	-0.282385	-0.445803
H309	H	-0.433630	-0.387729	-0.377117
C310	C	-0.309178	-0.435735	-0.307475
C311	C	-0.349945	-0.368357	-0.377512
H312	H	-0.261047	-0.454933	-0.300523
H313	H	-0.324929	-0.420186	-0.276632
H314	H	-0.313903	-0.477800	-0.297764
H315	H	-0.345227	-0.326291	-0.387219
H316	H	-0.334192	-0.383900	-0.408356
O317	O	-0.657126	0.511532	-0.548525
C318	C	-0.717948	0.575852	-0.552364
H319	H	-0.711555	0.564883	-0.498376
H320	H	-0.766039	0.578805	-0.569222
C321	C	-0.735909	0.670413	-0.673027
C322	C	-0.728055	0.656944	-0.606718
H323	H	-0.742146	0.720435	-0.706557
H324	H	-0.694934	0.627079	-0.670441
H325	H	-0.775984	0.672869	-0.687065
H326	H	-0.687975	0.654477	-0.592677
H327	H	-0.769023	0.700279	-0.609302
O328	O	-0.207809	-0.387279	-0.026173
C329	C	-0.204276	-0.451629	0.034311
H330	H	-0.247792	-0.425624	0.055138
H331	H	-0.150672	-0.492772	0.076708
C332	C	-0.160597	-0.533412	-0.010603
C333	C	-0.214048	-0.501473	0.014973
H334	H	-0.166621	-0.564161	-0.022529
H335	H	-0.162974	-0.490060	-0.051351
H336	H	-0.115932	-0.567693	0.024732
H337	H	-0.258711	-0.467185	-0.020365
H338	H	-0.211678	-0.544821	0.055716
O339	O	-0.207713	-0.621246	0.413492
C340	C	-0.146878	-0.621618	0.417375
H341	H	-0.153250	-0.572193	0.363406
H342	H	-0.098795	-0.683613	0.434220
C343	C	-0.128942	-0.665750	0.538052
C344	C	-0.136771	-0.605040	0.471767
H345	H	-0.122705	-0.655527	0.571605
H346	H	-0.169927	-0.665502	0.535437
H347	H	-0.088874	-0.717407	0.552080
H348	H	-0.176844	-0.553386	0.457736
H349	H	-0.095793	-0.605278	0.474381
H350	H	0.026144	-0.615754	0.402549
