data_functionalizedCrystal
_audit_creation_method	'MofGen! by Chris Wilmer'
_symmetry_space_group_name_H-M	'P1'
_symmetry_Int_Tables_number	1
_symmetry_cell_setting	triclinic
loop_
_symmetry_equiv_pos_as_xyz
  x,y,z
_cell_length_a	25.639239
_cell_length_b	25.639242
_cell_length_c	25.639233
_cell_angle_alpha	89.977834
_cell_angle_beta	90.018747
_cell_angle_gamma	89.965787
loop_
_atom_site_label
_atom_site_type_symbol
_atom_site_fract_x
_atom_site_fract_y
_atom_site_fract_z
Zn1	Zn	-0.208277	-0.799225	0.295742
Zn2	Zn	-0.295696	-0.799149	0.208307
Zn3	Zn	-0.208269	-0.711801	0.208306
Zn4	Zn	-0.295676	-0.711746	0.295696
O5	O	-0.251979	-0.755480	0.252013
O6	O	-0.219884	-0.872380	0.284163
O7	O	-0.284103	-0.787553	0.135141
O8	O	-0.135105	-0.723453	0.219924
O9	O	-0.284111	-0.872324	0.219924
O10	O	-0.135111	-0.787683	0.284163
O11	O	-0.219871	-0.723379	0.135141
O12	O	-0.219853	-0.638629	0.219880
O13	O	-0.284078	-0.723360	0.368868
O14	O	-0.284070	-0.638589	0.284085
O15	O	-0.219866	-0.787630	0.368901
O16	O	-0.368858	-0.787499	0.219880
O17	O	-0.368844	-0.723286	0.284085
C18	C	-0.387822	-0.755392	0.251989
C19	C	-0.445936	-0.755403	0.251996
C20	C	-0.251959	-0.619638	0.251977
C21	C	-0.251963	-0.561524	0.251975
C22	C	-0.806294	-0.789004	0.218638
C23	C	-0.860898	-0.789024	0.218645
O24	O	-0.889131	-0.817502	0.190257
N25	N	-0.888218	-0.755572	0.252048
C26	C	-0.860932	-0.722102	0.285449
O27	O	-0.889184	-0.693651	0.313861
C28	C	-0.806328	-0.722085	0.285444
C29	C	-0.779011	-0.755535	0.252036
C30	C	-0.778976	-0.822452	0.185233
C31	C	-0.724376	-0.822431	0.185226
C32	C	-0.697093	-0.788962	0.218623
C33	C	-0.724410	-0.755514	0.252028
C34	C	-0.779042	-0.688617	0.318847
C35	C	-0.724435	-0.688603	0.318840
C36	C	-0.697118	-0.722053	0.285432
C37	C	-0.642527	-0.722024	0.285418
N38	N	-0.615206	-0.755475	0.252016
C39	C	-0.642490	-0.788944	0.218618
C40	C	-0.975602	-0.722141	0.285457
C41	C	-1.030204	-0.722155	0.285459
C42	C	-1.030167	-0.789078	0.218656
C43	C	-0.975564	-0.789061	0.218652
C44	C	-0.948282	-0.755593	0.252055
C45	C	-0.527824	-0.788897	0.218605
C46	C	-0.473219	-0.788872	0.218599
C47	C	-0.473261	-0.721951	0.285403
C48	C	-0.527862	-0.721974	0.285408
C49	C	-0.555142	-0.755452	0.252007
O50	O	-0.614260	-0.693562	0.313793
O51	O	-0.614231	-0.817396	0.190216
C52	C	-0.251970	-0.755497	0.388386
C53	C	-0.251966	-0.755504	0.446500
C54	C	-0.115606	-0.755583	0.252048
C55	C	-0.057492	-0.755627	0.252064
C56	C	-0.252000	-0.891853	0.252049
C57	C	-0.252009	-0.949967	0.252064
C58	C	-0.285473	-0.201149	0.285413
C59	C	-0.285477	-0.146544	0.285421
O60	O	-0.313943	-0.118297	0.313821
N61	N	-0.251994	-0.119241	0.252047
C62	C	-0.218502	-0.146545	0.218666
O63	O	-0.190022	-0.118308	0.190280
C64	C	-0.218496	-0.201149	0.218661
C65	C	-0.251985	-0.228449	0.252034
C66	C	-0.318959	-0.228449	0.318783
C67	C	-0.318956	-0.283049	0.318774
C68	C	-0.285468	-0.310350	0.285395
C69	C	-0.251983	-0.283049	0.252024
C70	C	-0.185002	-0.228452	0.185283
C71	C	-0.185000	-0.283059	0.185281
C72	C	-0.218488	-0.310359	0.218654
C73	C	-0.218492	-0.364950	0.218636
N74	N	-0.251974	-0.392253	0.252010
C75	C	-0.285463	-0.364953	0.285389
C76	C	-0.218515	-0.031875	0.218680
C77	C	-0.218523	0.022728	0.218683
C78	C	-0.285497	0.022725	0.285438
C79	C	-0.285492	-0.031878	0.285433
C80	C	-0.251998	-0.059178	0.252054
C81	C	-0.285455	-0.479618	0.285368
C82	C	-0.285451	-0.534223	0.285354
C83	C	-0.218475	-0.534216	0.218601
C84	C	-0.218481	-0.479615	0.218612
C85	C	-0.251972	-0.452318	0.252000
O86	O	-0.190038	-0.393232	0.190252
O87	O	-0.313933	-0.393197	0.313776
C88	C	-0.251951	-0.755494	0.116170
C89	C	-0.251807	-0.755588	0.058057
C90	C	-0.218432	-0.789012	0.806886
C91	C	-0.218417	-0.789019	0.861491
O92	O	-0.189967	-0.817466	0.889747
N93	N	-0.251844	-0.755562	0.888783
C94	C	-0.285283	-0.722093	0.861468
O95	O	-0.313713	-0.693636	0.889695
C96	C	-0.285294	-0.722084	0.806864
C97	C	-0.251870	-0.755547	0.779575
C98	C	-0.185009	-0.822472	0.779597
C99	C	-0.185025	-0.822466	0.724997
C100	C	-0.218462	-0.789000	0.697685
C101	C	-0.251885	-0.755541	0.724974
C102	C	-0.318731	-0.688613	0.779550
C103	C	-0.318739	-0.688607	0.724943
C104	C	-0.285314	-0.722069	0.697654
C105	C	-0.285338	-0.722070	0.643063
N106	N	-0.251912	-0.755526	0.615771
C107	C	-0.218474	-0.788992	0.643082
C108	C	-0.285256	-0.722113	0.976138
C109	C	-0.285247	-0.722124	1.030741
C110	C	-0.218381	-0.789049	1.030760
C111	C	-0.218392	-0.789041	0.976157
C112	C	-0.251829	-0.755570	0.948846
C113	C	-0.218509	-0.788977	0.528417
C114	C	-0.218529	-0.788970	0.473811
C115	C	-0.285393	-0.722043	0.473797
C116	C	-0.285375	-0.722052	0.528397
C117	C	-0.251929	-0.755521	0.555706
O118	O	-0.313773	-0.693635	0.614771
O119	O	-0.190044	-0.817439	0.614847
H120	H	-0.550030	-0.816159	0.191408
H121	H	-0.702137	-0.849670	0.158024
O122	O	-0.152510	-0.855034	0.806042
C123	C	-0.123008	-0.884549	0.770236
H124	H	-0.144436	-0.886327	0.731313
H125	H	-0.083296	-0.865434	0.764428
C126	C	-0.089160	-0.938025	0.839354
C127	C	-0.115481	-0.940213	0.791549
H128	H	-0.084514	-0.972361	0.852501
H129	H	-0.109034	-0.918139	0.863477
H130	H	-0.056069	-0.922094	0.834507
H131	H	-0.148573	-0.956138	0.796397
H132	H	-0.095612	-0.960103	0.767427
H133	H	-0.312487	-0.694857	0.953905
H134	H	-0.801185	-0.849709	0.158037
O135	O	-0.318036	-0.058315	0.317903
C136	C	-0.347602	-0.022503	0.347352
H137	H	-0.326192	0.016408	0.349200
H138	H	-0.387284	-0.016667	0.328134
C139	C	-0.381516	-0.091620	0.400716
C140	C	-0.355217	-0.043831	0.402989
H141	H	-0.386215	-0.104777	0.435035
H142	H	-0.361598	-0.115748	0.380874
H143	H	-0.414581	-0.086751	0.384699
H144	H	-0.322150	-0.048702	0.419000
H145	H	-0.375129	-0.019704	0.422835
O146	O	-0.317976	0.049331	0.317851
C147	C	-0.310804	0.103378	0.310688
H148	H	-0.270430	0.110817	0.293635
H149	H	-0.341776	0.118906	0.282792
C150	C	-0.365256	0.122255	0.384528
C151	C	-0.315666	0.131392	0.363586
H152	H	-0.368257	0.139536	0.417157
H153	H	-0.370090	0.085842	0.389353
H154	H	-0.391061	0.135194	0.361276
H155	H	-0.289862	0.118447	0.386835
H156	H	-0.310828	0.167803	0.358767
O157	O	-0.351260	-0.656182	0.806069
C158	C	-0.385026	-0.685922	0.837665
H159	H	-0.388260	-0.727100	0.821228
H160	H	-0.368862	-0.687731	0.879055
C161	C	-0.435403	-0.609763	0.858661
C162	C	-0.439379	-0.660337	0.838470
H163	H	-0.468930	-0.593981	0.859159
H164	H	-0.412653	-0.589726	0.837376
H165	H	-0.421931	-0.611278	0.893150
H166	H	-0.452844	-0.658821	0.803979
H167	H	-0.462132	-0.680373	0.859749
H168	H	-0.345963	-0.661345	0.702710
H169	H	-1.052442	-0.694912	0.312659
H170	H	-0.801275	-0.661376	0.346049
O171	O	-0.318037	-0.560766	0.317701
C172	C	-0.351754	-0.592326	0.287872
H173	H	-0.354925	-0.575849	0.246689
H174	H	-0.335585	-0.633718	0.286095
C175	C	-0.402248	-0.613384	0.363901
C176	C	-0.406147	-0.593144	0.313321
H177	H	-0.435800	-0.613891	0.379600
H178	H	-0.379531	-0.592123	0.383998
H179	H	-0.388772	-0.647875	0.362414
H180	H	-0.419617	-0.558652	0.314810
H181	H	-0.428867	-0.614400	0.293224
H182	H	-0.191241	-0.054099	0.191496
H183	H	-0.953392	-0.694883	0.312656
H184	H	-0.157806	-0.849714	0.702783
H185	H	-0.346225	-0.305272	0.345950
O186	O	-0.152537	-0.309635	0.152829
C187	C	-0.182252	-0.341175	0.118990
H188	H	-0.221902	-0.349345	0.137356
H189	H	-0.187939	-0.320106	0.080238
C190	C	-0.104768	-0.383018	0.087009
C191	C	-0.153465	-0.393056	0.109568
H192	H	-0.087011	-0.415020	0.081195
H193	H	-0.084748	-0.361768	0.109806
H194	H	-0.109515	-0.365459	0.054718
H195	H	-0.148718	-0.410608	0.141862
H196	H	-0.173484	-0.414310	0.086777
O197	O	-0.185872	-0.821560	0.949731
C198	C	-0.156370	-0.851107	0.985553
H199	H	-0.154552	-0.829698	1.024470
H200	H	-0.175522	-0.890802	0.991366
C201	C	-0.102959	-0.884979	0.916458
C202	C	-0.100723	-0.858681	0.964256
H203	H	-0.068634	-0.889653	0.903321
H204	H	-0.122836	-0.865074	0.892324
H205	H	-0.118921	-0.918055	0.921309
H206	H	-0.084767	-0.825603	0.959403
H207	H	-0.080842	-0.878580	0.988389
O208	O	-0.186094	-0.821515	0.554997
C209	C	-0.215857	-0.855277	0.586578
H210	H	-0.255473	-0.836807	0.594758
H211	H	-0.221618	-0.894013	0.565540
C212	C	-0.138416	-0.887465	0.628400
C213	C	-0.187071	-0.864778	0.638450
H214	H	-0.120659	-0.893328	0.660395
H215	H	-0.118363	-0.864721	0.607122
H216	H	-0.143223	-0.919743	0.610867
H217	H	-0.182263	-0.832498	0.655976
H218	H	-0.207122	-0.887517	0.659732
O219	O	-0.185909	-0.821503	1.057377
C220	C	-0.193076	-0.814338	1.111421
H221	H	-0.210199	-0.773978	1.118860
H222	H	-0.220915	-0.845334	1.126926
C223	C	-0.119137	-0.868728	1.130327
C224	C	-0.140164	-0.819156	1.139464
H225	H	-0.086500	-0.871703	1.147626
H226	H	-0.114310	-0.873558	1.093916
H227	H	-0.142341	-0.894553	1.143248
H228	H	-0.116964	-0.793333	1.126537
H229	H	-0.144987	-0.814323	1.175873
O230	O	-0.697991	-0.656117	0.351361
C231	C	-0.711291	-0.667527	0.403484
H232	H	-0.750916	-0.687640	0.404591
H233	H	-0.680526	-0.694386	0.421118
C234	C	-0.665181	-0.591835	0.433746
C235	C	-0.713852	-0.616534	0.435106
H236	H	-0.666759	-0.560381	0.453253
H237	H	-0.656219	-0.584149	0.398630
H238	H	-0.639549	-0.614223	0.448440
H239	H	-0.739482	-0.594150	0.420406
H240	H	-0.722819	-0.624216	0.470220
O241	O	-0.949111	-0.821605	0.186185
C242	C	-0.984907	-0.851136	0.156699
H243	H	-1.023819	-0.852940	0.178123
H244	H	-0.990749	-0.832016	0.116971
C245	C	-0.915764	-0.904565	0.122906
C246	C	-0.963554	-0.906786	0.149220
H247	H	-0.902592	-0.938892	0.118290
H248	H	-0.891646	-0.884669	0.142769
H249	H	-0.920638	-0.888630	0.089802
H250	H	-0.958678	-0.922715	0.182326
H251	H	-0.987670	-0.926686	0.129362
O252	O	-0.317737	-0.689573	1.057165
C253	C	-0.347261	-0.660048	1.021344
H254	H	-0.325852	-0.658252	0.982423
H255	H	-0.386974	-0.679165	1.015538
C256	C	-0.381079	-0.606602	1.090436
C257	C	-0.354783	-0.604393	1.042634
H258	H	-0.385722	-0.572272	1.103569
H259	H	-0.361191	-0.626495	1.114570
H260	H	-0.414171	-0.622535	1.085591
H261	H	-0.321690	-0.588466	1.047480
H262	H	-0.374667	-0.584496	1.018501
O263	O	-0.317864	-0.689502	0.554828
C264	C	-0.347392	-0.659976	0.519011
H265	H	-0.325988	-0.658180	0.480087
H266	H	-0.387105	-0.679093	0.513210
C267	C	-0.381202	-0.606530	0.588107
C268	C	-0.354911	-0.604321	0.540302
H269	H	-0.385842	-0.572200	0.601241
H270	H	-0.361310	-0.626423	0.612239
H271	H	-0.414293	-0.622463	0.583267
H272	H	-0.321817	-0.588394	0.545145
H273	H	-0.374797	-0.584424	0.516172
H274	H	-0.450979	-0.816111	0.191392
O275	O	-0.152419	-0.202022	0.152851
C276	C	-0.122871	-0.237838	0.123387
H277	H	-0.121101	-0.276771	0.144805
H278	H	-0.141953	-0.243615	0.083640
C279	C	-0.069385	-0.168746	0.089655
C280	C	-0.067207	-0.216563	0.115964
H281	H	-0.035049	-0.155622	0.085073
H282	H	-0.089293	-0.144615	0.109504
H283	H	-0.085289	-0.173567	0.056536
H284	H	-0.051309	-0.211740	0.149085
H285	H	-0.047295	-0.240692	0.096120
H286	H	-1.052391	-0.816333	0.191464
H287	H	-0.191213	-0.457387	0.191436
H288	H	-0.550105	-0.694738	0.312613
H289	H	-0.451039	-0.694699	0.312594
H290	H	-0.312726	-0.457399	0.312556
H291	H	-0.346229	-0.206227	0.345967
H292	H	-0.191310	-0.816221	0.451595
H293	H	-0.191258	0.044951	0.191502
H294	H	-0.191211	-0.556454	0.191422
H295	H	-0.312619	-0.694798	0.451550
