data_functionalizedCrystal
_audit_creation_method	'MofGen! by Chris Wilmer'
_symmetry_space_group_name_H-M	'P1'
_symmetry_Int_Tables_number	1
_symmetry_cell_setting	triclinic
loop_
_symmetry_equiv_pos_as_xyz
  x,y,z
_cell_length_a	10.654550
_cell_length_b	7.540329
_cell_length_c	10.654554
_cell_angle_alpha	90.004957
_cell_angle_beta	84.485873
_cell_angle_gamma	90.006486
loop_
_atom_site_label
_atom_site_type_symbol
_atom_site_fract_x
_atom_site_fract_y
_atom_site_fract_z
O1	O	1.667842	0.147634	0.176396
O2	O	1.302363	0.147607	0.193203
O3	O	1.493502	0.147603	0.002061
O4	O	1.476703	0.147638	0.367538
O5	O	1.493491	-0.147362	0.002058
O6	O	1.302352	-0.147358	0.193200
O7	O	1.667830	-0.147331	0.176394
Cu8	Cu	1.485090	-0.174277	0.184797
Cu9	Cu	1.485104	0.174553	0.184800
O10	O	1.476691	-0.147327	0.367536
C11	C	1.255560	0.000120	0.191967
C12	C	1.116116	0.000109	0.188275
N13	N	1.485090	-0.419626	0.184794
C14	C	1.036633	0.000146	0.300817
C15	C	0.905612	0.000176	0.297340
C16	C	0.933571	0.000141	0.068771
C17	C	1.064590	0.000098	0.072249
C18	C	1.020489	0.000174	0.432779
C19	C	0.889468	0.000204	0.429303
C20	C	1.714634	0.000160	0.177629
C21	C	1.854077	0.000182	0.181321
C22	C	1.492262	0.000120	-0.044738
C23	C	1.488568	0.000117	-0.184181
N24	N	1.485114	0.419902	0.184793
C25	C	1.369081	0.000147	-0.366743
C26	C	1.372552	0.000125	-0.235722
C27	C	1.601121	0.000150	-0.263670
C28	C	1.597649	0.000185	-0.394689
C29	C	1.237118	0.000125	-0.350606
C30	C	1.240589	0.000102	-0.219585
C31	C	1.477932	0.000160	0.414335
C32	C	1.481626	0.000175	0.553778
H33	H	1.129302	0.000042	-0.019393
C34	C	1.068675	0.172234	0.489524
N35	N	1.104971	0.301838	0.532251
H36	H	1.689294	0.000228	-0.459397
H37	H	0.891602	0.000159	-0.025694
H38	H	1.695584	0.000189	-0.221696
H39	H	1.200718	0.127451	-0.173918
C40	C	1.173422	-0.166683	-0.163203
N41	N	1.122839	-0.292305	-0.120739
H42	H	1.049816	-0.123271	0.484389
C43	C	0.833093	0.166992	0.496463
N44	N	0.790632	0.292616	0.547044
C45	C	1.180334	-0.171914	-0.398781
N46	N	1.137563	-0.301494	-0.435067
H47	H	0.843793	-0.127137	0.469183
H48	H	1.185509	0.123564	-0.379942
