data_functionalizedCrystal
_audit_creation_method	'MofGen! by Chris Wilmer'
_symmetry_space_group_name_H-M	'P1'
_symmetry_Int_Tables_number	1
_symmetry_cell_setting	triclinic
loop_
_symmetry_equiv_pos_as_xyz
  x,y,z
_cell_length_a	16.109301
_cell_length_b	15.186229
_cell_length_c	16.109301
_cell_angle_alpha	90.005167
_cell_angle_beta	83.461481
_cell_angle_gamma	90.000638
loop_
_atom_site_label
_atom_site_type_symbol
_atom_site_fract_x
_atom_site_fract_y
_atom_site_fract_z
O1	O	1.103131	0.073176	0.106866
O2	O	0.861069	0.073190	0.120165
O3	O	0.988749	0.073174	-0.007515
O4	O	0.975450	0.073192	0.234547
O5	O	0.988741	-0.073284	-0.007517
O6	O	0.861060	-0.073267	0.120164
O7	O	1.103122	-0.073282	0.106864
Zn8	Zn	0.982090	-0.096528	0.113514
Zn9	Zn	0.982101	0.096436	0.113516
O10	O	0.975441	-0.073265	0.234545
C11	C	0.830090	-0.000037	0.119626
C12	C	0.737794	-0.000032	0.118011
N13	N	0.982088	-0.228220	0.113511
C14	C	0.515522	-0.000036	0.190018
C15	C	0.428801	-0.000042	0.188494
C16	C	0.448676	-0.000050	0.037006
C17	C	0.535394	-0.000051	0.038530
C18	C	0.568815	-0.000039	0.115039
C19	C	0.395376	-0.000045	0.111990
C20	C	0.301350	-0.000051	0.110337
C21	C	0.662847	-0.000035	0.116693
C22	C	1.038644	-0.453950	0.056994
C23	C	1.038647	-0.546140	0.056992
C24	C	0.925547	-0.546135	0.170032
C25	C	0.925541	-0.453947	0.170030
C26	C	0.982094	-0.407857	0.113511
C27	C	0.982103	-0.592235	0.113512
C28	C	0.982105	-0.692191	0.113510
C29	C	0.982091	-0.307894	0.113512
C30	C	1.134101	-0.000053	0.107404
C31	C	1.226397	-0.000052	0.109019
C32	C	0.988206	-0.000056	-0.038491
C33	C	0.986591	-0.000057	-0.130786
N34	N	0.982109	0.228129	0.113512
C35	C	1.058599	-0.000047	-0.353059
C36	C	1.057075	-0.000040	-0.439779
C37	C	0.905586	-0.000034	-0.419905
C38	C	0.907111	-0.000035	-0.333186
C39	C	0.983620	-0.000046	-0.299766
C40	C	0.980571	-0.000038	-0.473205
C41	C	0.978918	-0.000030	-0.567231
C42	C	0.985273	-0.000052	-0.205734
C43	C	0.975984	-0.000034	0.265521
C44	C	0.977600	-0.000027	0.357816
H45	H	0.385413	-0.000041	0.249550
H46	H	0.843295	-0.000027	-0.447127
H47	H	0.421454	-0.000065	-0.025285
H48	H	0.542730	-0.000034	0.252317
C49	C	1.141602	0.000089	-0.316657
C50	C	1.146892	0.075426	-0.267428
C51	C	1.223340	0.075579	-0.233875
H52	H	1.186111	0.000137	-0.360733
H53	H	1.145356	-0.050958	-0.283199
H54	H	1.143147	0.126460	-0.300884
H55	H	1.102402	0.075394	-0.223339
H56	H	1.227093	0.024533	-0.200417
H57	H	1.267842	0.075625	-0.277956
H58	H	1.226936	0.126690	-0.200463
C59	C	0.825725	0.000148	-0.275278
C60	C	0.822172	0.075510	-0.224923
C61	C	0.747212	0.075719	-0.171577
H62	H	0.823090	-0.050864	-0.240960
H63	H	0.779918	0.000197	-0.307572
H64	H	0.867967	0.075453	-0.192632
H65	H	0.824794	0.126534	-0.259219
H66	H	0.701404	0.075768	-0.203871
H67	H	0.744583	0.024704	-0.137264
H68	H	0.744788	0.126855	-0.137410
C69	C	1.138546	0.000094	-0.497541
C70	C	1.184627	0.075427	-0.482415
C71	C	1.259691	0.075575	-0.535601
H72	H	1.126804	0.000144	-0.554004
H73	H	1.169960	-0.050956	-0.487405
H74	H	1.153220	0.126463	-0.492557
H75	H	1.196392	0.075392	-0.425962
H76	H	1.291105	0.024525	-0.525465
H77	H	1.247940	0.075623	-0.592060
H78	H	1.290969	0.126683	-0.525339
C79	C	1.100074	-0.404068	-0.004467
C80	C	1.149583	-0.464172	-0.053978
C81	C	1.206173	-0.418256	-0.110614
H82	H	1.134752	-0.368095	0.025350
H83	H	1.070195	-0.368133	-0.039131
H84	H	1.179460	-0.500093	-0.019318
H85	H	1.114927	-0.500147	-0.083813
H86	H	1.176293	-0.382320	-0.145279
H87	H	1.240845	-0.382285	-0.080790
H88	H	1.239765	-0.459029	-0.144220
C89	C	0.593125	-0.000008	-0.042971
C90	C	0.545298	0.000013	-0.110300
C91	C	0.598450	0.000060	-0.185387
H92	H	0.627384	-0.051068	-0.045643
H93	H	0.627356	0.051084	-0.045566
H94	H	0.511081	-0.051074	-0.107706
H95	H	0.511040	0.051069	-0.107655
H96	H	0.632681	0.051153	-0.187982
H97	H	0.632706	-0.051001	-0.188051
H98	H	0.566007	0.000083	-0.231079
C99	C	1.099914	-0.596231	-0.004465
C100	C	1.055648	-0.649146	-0.055391
C101	C	1.112060	-0.695292	-0.112025
H102	H	1.134535	-0.632261	0.025355
H103	H	1.133579	-0.555603	-0.038172
H104	H	1.021997	-0.689769	-0.021688
H105	H	1.021029	-0.613138	-0.085229
H106	H	1.145725	-0.654665	-0.145731
H107	H	1.146678	-0.731317	-0.082197
H108	H	1.082034	-0.731194	-0.146589
H109	H	0.879503	-0.583670	0.216049
H110	H	0.879487	-0.416415	0.216053
