data_functionalizedCrystal
_audit_creation_method	'MofGen! by Chris Wilmer'
_symmetry_space_group_name_H-M	'P1'
_symmetry_Int_Tables_number	1
_symmetry_cell_setting	triclinic
loop_
_symmetry_equiv_pos_as_xyz
  x,y,z
_cell_length_a	17.019383
_cell_length_b	17.000371
_cell_length_c	10.868271
_cell_angle_alpha	89.994403
_cell_angle_beta	86.119708
_cell_angle_gamma	79.508757
loop_
_atom_site_label
_atom_site_type_symbol
_atom_site_fract_x
_atom_site_fract_y
_atom_site_fract_z
O1	O	1.039628	0.101470	-0.212372
O2	O	1.539628	0.601470	0.287628
O3	O	0.809069	0.114389	-0.187969
O4	O	1.309069	0.614389	0.312031
O5	O	0.938664	-0.007952	-0.201677
O6	O	1.438664	0.492048	0.298323
O7	O	0.910033	0.223812	-0.198664
O8	O	1.410033	0.723812	0.301336
O9	O	0.938655	-0.007957	0.002969
O10	O	1.438655	0.492043	0.502969
O11	O	0.809060	0.114384	0.016677
O12	O	1.309060	0.614384	0.516677
O13	O	1.039618	0.101466	-0.007726
O14	O	1.539618	0.601466	0.492274
Zn15	Zn	0.924337	0.107924	0.036967
Zn16	Zn	1.424337	0.607924	0.536967
Zn17	Zn	0.924350	0.107930	-0.232662
Zn18	Zn	1.424350	0.607930	0.267338
O19	O	0.910023	0.223807	0.005982
O20	O	1.410023	0.723807	0.505982
C21	C	0.779710	0.113895	-0.082539
C22	C	1.279710	0.613895	0.417461
C23	C	0.692243	0.112419	-0.073281
C24	C	1.192243	0.612419	0.426719
C25	C	0.940197	-0.037610	-0.099517
C26	C	1.440197	0.462390	0.400483
C27	C	0.944770	-0.125973	-0.100003
C28	C	1.444770	0.374027	0.399997
C29	C	0.651149	0.111730	-0.180475
C30	C	1.151149	0.611730	0.319525
C31	C	0.568962	0.110357	-0.171758
C32	C	1.068962	0.610357	0.328242
C33	C	0.527872	0.109666	-0.055846
C34	C	1.027872	0.609666	0.444154
C35	C	0.568972	0.110357	0.051356
C36	C	1.068972	0.610357	0.551356
C37	C	0.651156	0.111737	0.042638
C38	C	1.151156	0.611737	0.542638
C39	C	0.279728	0.105506	-0.023941
C40	C	0.779728	0.605506	0.476059
C41	C	0.197538	0.104124	-0.015231
C42	C	0.697538	0.604124	0.484769
C43	C	0.197534	0.104125	-0.238346
C44	C	0.697534	0.604125	0.261654
C45	C	0.279721	0.105500	-0.247054
C46	C	0.779721	0.605500	0.252946
C47	C	0.320812	0.106195	-0.139852
C48	C	0.820812	0.606195	0.360148
C49	C	0.443864	0.108259	-0.046933
C50	C	0.943864	0.608259	0.453067
C51	C	0.404817	0.107608	-0.148766
C52	C	0.904817	0.607608	0.351234
C53	C	0.874398	-0.157923	-0.092560
C54	C	1.374398	0.342077	0.407440
C55	C	0.878699	-0.240950	-0.093011
C56	C	1.378699	0.259050	0.406989
C57	C	0.953374	-0.292027	-0.100915
C58	C	1.453374	0.207973	0.399085
C59	C	1.023752	-0.260073	-0.108355
C60	C	1.523752	0.239927	0.391645
C61	C	1.019449	-0.177047	-0.107894
C62	C	1.519449	0.322953	0.392106
C63	C	0.969992	-0.543191	-0.102683
C64	C	1.469992	-0.043191	0.397317
C65	C	0.974289	-0.626222	-0.103147
C66	C	1.474289	-0.126222	0.396853
C67	C	0.829236	-0.607094	-0.087800
C68	C	1.329236	-0.107094	0.412200
C69	C	0.824941	-0.524067	-0.087348
C70	C	1.324941	-0.024067	0.412652
C71	C	0.895318	-0.492120	-0.094781
C72	C	1.395318	0.007880	0.405219
C73	C	0.957773	-0.376895	-0.101381
C74	C	1.457773	0.123105	0.398619
C75	C	0.890919	-0.407254	-0.094306
C76	C	1.390919	0.092746	0.405694
C77	C	1.068977	0.101960	-0.113159
C78	C	1.568977	0.601960	0.386841
C79	C	1.156444	0.103436	-0.122425
C80	C	1.656444	0.603436	0.377575
C81	C	0.908490	0.253465	-0.096181
C82	C	1.408490	0.753465	0.403819
C83	C	0.903917	0.341828	-0.095704
C84	C	1.403917	0.841828	0.404296
N85	N	0.924334	0.107919	0.220981
N86	N	1.424334	0.607919	0.720981
N87	N	0.924359	0.107929	-0.416678
N88	N	1.424359	0.607929	0.083322
C89	C	0.924346	0.107929	0.471986
C90	C	1.424346	0.607929	0.971986
C91	C	0.924337	0.107926	0.332310
C92	C	1.424337	0.607926	0.832310
H93	H	0.535507	0.109796	-0.259046
H94	H	1.035507	0.609796	0.240954
H95	H	1.084553	-0.301666	-0.114783
H96	H	1.584553	0.198334	0.385217
H97	H	0.684613	0.112301	0.129927
H98	H	1.184613	0.612301	0.629927
H99	H	0.313172	0.106057	-0.341442
H100	H	0.813172	0.606057	0.158558
N101	N	1.050577	-0.678389	-0.111199
N102	N	1.550577	-0.178389	0.388801
N103	N	1.098648	-0.675530	-0.030014
N104	N	1.598648	-0.175530	0.469986
H105	H	1.152524	-0.712373	-0.035700
H106	H	1.652524	-0.212373	0.464300
N107	N	1.091341	-0.144422	-0.115485
N108	N	1.591341	0.355578	0.384515
N109	N	1.158011	-0.190032	-0.122536
N110	N	1.658011	0.309968	0.377464
H111	H	1.208787	-0.166993	-0.127890
H112	H	1.708787	0.333007	0.372110
H113	H	1.027299	-0.517190	-0.108739
H114	H	1.527299	-0.017190	0.391261
H115	H	0.164068	0.103561	-0.325624
H116	H	0.664068	0.603561	0.174376
H117	H	0.535509	0.109800	0.145734
H118	H	1.035509	0.609800	0.645734
H119	H	0.164081	0.103584	0.079163
H120	H	0.664081	0.603584	0.579163
N121	N	0.748668	-0.471885	-0.079259
N122	N	1.248668	0.028115	0.420741
N123	N	0.744838	-0.397757	-0.078849
N124	N	1.244838	0.102243	0.421151
H125	H	0.690970	-0.360901	-0.073140
H126	H	1.190970	0.139099	0.426860
H127	H	0.313176	0.106067	0.063350
H128	H	0.813176	0.606067	0.563350
N129	N	0.757343	-0.639713	-0.080202
N130	N	1.257343	-0.139713	0.419798
N131	N	0.708302	-0.624027	-0.161269
N132	N	1.208302	-0.124027	0.338731
H133	H	0.657522	-0.647062	-0.155897
H134	H	1.157522	-0.147062	0.344103
N135	N	0.446800	0.108303	-0.267155
N136	N	0.946800	0.608303	0.232845
N137	N	0.503817	0.052988	-0.298065
N138	N	1.003817	0.552988	0.201935
H139	H	0.533476	0.053475	-0.381677
H140	H	1.033476	0.553475	0.118323
H141	H	1.018573	-0.418491	-0.107819
H142	H	1.518573	0.081509	0.392181
N143	N	0.693107	0.112426	-0.298888
N144	N	1.193107	0.612426	0.201112
N145	N	0.656402	0.111811	-0.394586
N146	N	1.156402	0.611811	0.105414
H147	H	0.686032	0.112303	-0.478220
H148	H	1.186032	0.612303	0.021780
N149	N	0.401888	0.107560	0.071465
N150	N	0.901888	0.607560	0.571465
N151	N	0.344873	0.162873	0.102394
N152	N	0.844873	0.662873	0.602394
H153	H	0.315223	0.162381	0.186013
H154	H	0.815223	0.662381	0.686013
H155	H	0.830119	-0.365664	-0.087863
H156	H	1.330119	0.134336	0.412137
N157	N	0.798119	-0.105751	-0.084515
N158	N	1.298119	0.394249	0.415485
N159	N	0.750046	-0.108616	-0.165696
N160	N	1.250046	0.391384	0.334304
H161	H	0.696172	-0.071771	-0.160016
H162	H	1.196172	0.428229	0.339984
H163	H	0.821395	-0.266959	-0.086960
H164	H	1.321395	0.233041	0.413040
