data_functionalizedCrystal
_audit_creation_method	'MofGen! by Chris Wilmer'
_symmetry_space_group_name_H-M	'P1'
_symmetry_Int_Tables_number	1
_symmetry_cell_setting	triclinic
loop_
_symmetry_equiv_pos_as_xyz
  x,y,z
_cell_length_a	10.723023
_cell_length_b	11.792254
_cell_length_c	9.198806
_cell_angle_alpha	89.996642
_cell_angle_beta	89.996191
_cell_angle_gamma	84.333073
loop_
_atom_site_label
_atom_site_type_symbol
_atom_site_fract_x
_atom_site_fract_y
_atom_site_fract_z
O1	O	1.656775	0.159187	-0.120889
O2	O	2.156775	0.659187	0.379111
O3	O	1.293583	0.174426	-0.120893
O4	O	1.793583	0.674426	0.379107
O5	O	1.483984	0.001656	-0.120881
O6	O	1.983984	0.501656	0.379119
O7	O	1.466374	0.331957	-0.120902
O8	O	1.966374	0.831957	0.379098
O9	O	1.483969	0.001656	0.120904
O10	O	1.983969	0.501656	0.620904
O11	O	1.293568	0.174425	0.120892
O12	O	1.793568	0.674425	0.620892
O13	O	1.656760	0.159187	0.120896
O14	O	2.156760	0.659187	0.620896
Cu15	Cu	1.475162	0.166806	0.142971
Cu16	Cu	1.975162	0.666806	0.642971
Cu17	Cu	1.475180	0.166806	-0.142968
Cu18	Cu	1.975180	0.666806	0.357032
O19	O	1.466358	0.331956	0.120884
O20	O	1.966358	0.831956	0.620884
C21	C	1.247079	0.173317	-0.000001
C22	C	1.747079	0.673317	0.499999
C23	C	1.108533	0.169999	-0.000002
C24	C	1.608533	0.669999	0.499998
C25	C	0.903570	0.165092	0.125245
C26	C	1.403570	0.665092	0.625245
C27	C	1.046764	0.168520	0.125249
C28	C	1.546764	0.668520	0.625249
C29	C	1.482868	-0.040637	0.000011
C30	C	1.982868	0.459363	0.500011
C31	C	1.479547	-0.166658	0.000010
C32	C	1.979547	0.333342	0.500010
C33	C	1.476849	-0.269000	0.000005
C34	C	1.976849	0.231000	0.500005
C35	C	1.473476	-0.397394	-0.000009
C36	C	1.973476	0.102606	0.499991
C37	C	1.703264	0.160296	0.000001
C38	C	2.203264	0.660296	0.500001
C39	C	1.841810	0.163613	-0.000008
C40	C	2.341810	0.663613	0.499992
C41	C	1.467475	0.374250	-0.000012
C42	C	1.967475	0.874250	0.499988
C43	C	1.470796	0.500270	-0.000020
C44	C	1.970796	1.000270	0.499980
N45	N	1.475159	0.166805	0.344085
N46	N	1.975159	0.666805	0.844085
N47	N	1.475194	0.166799	-0.344082
N48	N	1.975194	0.666799	0.155918
C49	C	1.555104	0.093944	0.416287
C50	C	2.055104	0.593944	0.916287
C51	C	1.555123	0.093940	0.583699
C52	C	2.055123	0.593940	1.083699
H53	H	0.894945	0.164892	-0.107238
H54	H	1.394945	0.664892	0.392762
Br55	Br	1.668847	-0.010314	0.312757
Br56	Br	2.168847	0.489686	0.812757
Br57	Br	1.135281	0.170626	0.303989
Br58	Br	1.635281	0.670626	0.803989
H59	H	1.623572	0.031565	0.645790
H60	H	2.123572	0.531565	1.145790
H61	H	1.406750	0.229185	0.593837
H62	H	1.906750	0.729185	1.093837
H63	H	1.406725	0.229177	0.406208
H64	H	1.906725	0.729177	0.906208
H65	H	0.850433	0.163825	0.232474
H66	H	1.350433	0.663825	0.732474
H67	H	1.055429	0.168725	-0.107241
H68	H	1.555429	0.668725	0.392759
