data_functionalizedCrystal
_audit_creation_method	'MofGen! by Chris Wilmer'
_symmetry_space_group_name_H-M	'P1'
_symmetry_Int_Tables_number	1
_symmetry_cell_setting	triclinic
loop_
_symmetry_equiv_pos_as_xyz
  x,y,z
_cell_length_a	14.853567
_cell_length_b	9.065218
_cell_length_c	13.930277
_cell_angle_alpha	89.997334
_cell_angle_beta	90.004245
_cell_angle_gamma	95.674592
loop_
_atom_site_label
_atom_site_type_symbol
_atom_site_fract_x
_atom_site_fract_y
_atom_site_fract_z
O1	O	1.197794	-0.192615	0.079761
O2	O	0.935504	-0.215560	0.079777
O3	O	1.072070	0.010662	0.079766
O4	O	1.061227	-0.418837	0.079771
O5	O	1.072051	0.010667	-0.079895
O6	O	0.935485	-0.215555	-0.079885
O7	O	1.197775	-0.192610	-0.079901
Zn8	Zn	1.066627	-0.204082	-0.105243
Zn9	Zn	1.066652	-0.204088	0.105118
O10	O	1.061208	-0.418833	-0.079891
C11	C	0.901898	-0.214518	-0.000052
C12	C	0.801791	-0.211403	-0.000046
N13	N	1.066616	-0.204077	-0.248809
C14	C	1.071019	0.065631	-0.000063
C15	C	1.067903	0.229412	-0.000058
C16	C	0.388166	-0.063852	-0.000069
C17	C	0.368873	-0.332609	-0.000065
C18	C	0.462929	-0.335539	-0.000062
C19	C	0.519607	-0.202622	-0.000061
C20	C	0.482230	-0.066777	-0.000063
C21	C	0.500313	-0.471382	-0.000050
C22	C	0.594374	-0.474316	-0.000046
C23	C	0.651054	-0.341399	-0.000052
C24	C	0.613672	-0.205548	-0.000055
C25	C	0.670350	-0.072632	-0.000054
C26	C	0.632969	0.063221	-0.000064
C27	C	0.538910	0.066141	-0.000069
C28	C	0.745113	-0.344319	-0.000047
C29	C	0.764414	-0.075557	-0.000048
C30	C	1.231381	-0.193652	-0.000070
C31	C	1.331487	-0.196768	-0.000070
C32	C	1.062260	-0.473801	-0.000059
C33	C	1.065376	-0.637582	-0.000058
C34	C	1.006178	-0.304220	-0.701074
C35	C	1.127151	-0.103945	-0.701052
C36	C	1.127140	-0.103940	-0.600557
C37	C	1.066648	-0.204079	-0.550315
C38	C	1.006167	-0.304222	-0.600569
C39	C	1.187627	-0.003809	-0.550295
C40	C	1.187619	-0.003802	-0.449793
C41	C	1.127122	-0.103934	-0.399550
C42	C	1.066637	-0.204080	-0.449810
C43	C	1.006145	-0.304218	-0.399568
C44	C	0.945656	-0.404358	-0.449826
C45	C	0.945670	-0.404354	-0.550325
C46	C	1.127108	-0.103938	-0.299051
C47	C	1.006135	-0.304220	-0.299063
N48	N	1.066670	-0.204082	0.248684
H49	H	0.810556	0.032681	-0.000051
Br50	Br	0.709900	0.243599	-0.000051
Br51	Br	0.795842	-0.528673	-0.000023
H52	H	0.896407	-0.485898	-0.408908
Br53	Br	0.645097	-0.658682	-0.000033
H54	H	1.236871	0.077738	-0.408879
H55	H	1.176362	-0.022412	-0.258135
Br56	Br	0.924026	-0.440118	-0.230885
Br57	Br	0.488173	0.250495	-0.000079
Br58	Br	0.863584	-0.540251	-0.618534
Br59	Br	0.924082	-0.440111	-0.769274
H60	H	0.357726	0.046756	-0.000081
H61	H	1.176406	-0.022422	-0.741962
H62	H	1.236882	0.077714	-0.591205
Br63	Br	0.291954	-0.512986	-0.000049
H64	H	0.454159	-0.579594	-0.000041
