data_functionalizedCrystal
_audit_creation_method	'MofGen! by Chris Wilmer'
_symmetry_space_group_name_H-M	'P1'
_symmetry_Int_Tables_number	1
_symmetry_cell_setting	triclinic
loop_
_symmetry_equiv_pos_as_xyz
  x,y,z
_cell_length_a	12.827885
_cell_length_b	21.395362
_cell_length_c	21.395361
_cell_angle_alpha	90.046585
_cell_angle_beta	90.038159
_cell_angle_gamma	90.040645
loop_
_atom_site_label
_atom_site_type_symbol
_atom_site_fract_x
_atom_site_fract_y
_atom_site_fract_z
Zn1	Zn	-0.591384	-0.957839	0.249143
Zn2	Zn	-0.416619	-0.957748	0.353933
Zn3	Zn	-0.416592	-0.853060	0.249202
Zn4	Zn	-0.591254	-0.853023	0.353915
O5	O	-0.503962	-0.905418	0.301548
O6	O	-0.568267	-1.045505	0.263026
O7	O	-0.270379	-0.943838	0.340072
O8	O	-0.439823	-0.867013	0.161516
O9	O	-0.439867	-1.045438	0.340015
O10	O	-0.568241	-0.943994	0.161473
O11	O	-0.270360	-0.866924	0.263127
O12	O	-0.439696	-0.765377	0.263110
O13	O	-0.737507	-0.866950	0.339985
O14	O	-0.568019	-0.765350	0.340043
O15	O	-0.737603	-0.943958	0.263009
O16	O	-0.439741	-0.943802	0.441608
O17	O	-0.568044	-0.866862	0.441596
C18	C	-0.503841	-0.742630	0.301581
C19	C	-0.503814	-0.672989	0.301611
C20	C	-0.503904	-0.905335	0.464336
C21	C	-0.503914	-0.905357	0.533977
C22	C	-0.776533	-0.905460	0.301488
C23	C	-0.892686	-0.905478	0.301462
C24	C	-0.944518	-0.943588	0.263365
C25	C	-1.064568	-0.943608	0.263337
C26	C	-0.232452	-0.905411	0.301563
C27	C	-0.116300	-0.905514	0.301412
C28	C	-0.504085	-1.068841	0.301515
C29	C	-0.504137	-1.138482	0.301501
C30	C	-0.570531	-0.640278	0.341722
C31	C	-0.570578	-0.574842	0.341707
C32	C	-0.503888	-0.542120	0.301586
C33	C	-0.437166	-0.574839	0.261467
C34	C	-0.437129	-0.640273	0.261479
C35	C	-0.409812	-0.438399	0.296555
C36	C	-0.409847	-0.372966	0.296548
C37	C	-0.504004	-0.340300	0.301546
C38	C	-0.598128	-0.373074	0.306564
C39	C	-0.598091	-0.438509	0.306576
C40	C	-0.503922	-0.471168	0.301569
C41	C	-0.570777	-0.236636	0.341643
C42	C	-0.570826	-0.171200	0.341623
C43	C	-0.437405	-0.171198	0.261386
C44	C	-0.437366	-0.236633	0.261403
C45	C	-0.504051	-0.269348	0.301534
C46	C	-0.504044	-0.905518	0.138125
C47	C	-0.504078	-0.905560	0.068484
C48	C	-0.437175	-0.945455	0.566676
C49	C	-0.437198	-0.945484	0.632112
C50	C	-0.503950	-0.905404	0.664845
C51	C	-0.570702	-0.865303	0.632139
C52	C	-0.570684	-0.865279	0.566704
C53	C	-0.512107	-0.848989	0.768575
C54	C	-0.512118	-0.849011	0.834008
C55	C	-0.504011	-0.905477	0.866666
C56	C	-0.495872	-0.961922	0.833883
C57	C	-0.495854	-0.961898	0.768449
C58	C	-0.503977	-0.905425	0.735798
C59	C	-0.437294	-0.945610	0.970318
C60	C	-0.437325	-0.945640	1.035754
C61	C	-0.570823	-0.865453	1.035780
C62	C	-0.570798	-0.865429	0.970345
C63	C	-0.504028	-0.905506	0.937617
H64	H	-0.900017	-0.976199	0.230766
H65	H	-0.382799	-0.666906	0.228813
Cl66	Cl	-0.654623	-0.814919	0.673289
Cl67	Cl	-0.654591	-0.814865	0.525595
Cl68	Cl	-0.961384	-0.855121	0.351788
Cl69	Cl	-0.353356	-0.995992	0.929172
Cl70	Cl	-0.654748	-0.815070	1.076925
Cl71	Cl	-0.291431	-0.479458	0.290274
H72	H	-0.383032	-0.263266	0.228742
Cl73	Cl	-1.047493	-0.855139	0.351778
H74	H	-0.674730	-0.465191	0.310661
H75	H	-0.624833	-0.666911	0.374400
Cl76	Cl	-0.716505	-0.332016	0.312844
Cl77	Cl	-1.133382	-0.993989	0.212980
Cl78	Cl	-0.654699	-0.815013	0.929235
H79	H	-0.624911	-0.548204	0.374371
H80	H	-0.625082	-0.263275	0.374317
Cl81	Cl	-0.353289	-0.995897	0.673228
Cl82	Cl	-0.654713	-0.130077	0.392051
H83	H	-0.383109	-0.144556	0.228716
Cl84	Cl	-0.522300	-0.777997	0.727525
H85	H	-0.333206	-0.346286	0.292465
H86	H	-0.382869	-0.548193	0.228799
Cl87	Cl	-0.353251	-0.995848	0.525537
H88	H	-0.489230	-1.007857	0.741759
Cl89	Cl	-0.485669	-1.032911	0.874932
Cl90	Cl	-0.353423	-0.996059	1.076862
H91	H	-0.518735	-0.803050	0.860694
