data_functionalizedCrystal
_audit_creation_method	'MofGen! by Chris Wilmer'
_symmetry_space_group_name_H-M	'P1'
_symmetry_Int_Tables_number	1
_symmetry_cell_setting	triclinic
loop_
_symmetry_equiv_pos_as_xyz
  x,y,z
_cell_length_a	15.698487
_cell_length_b	23.196402
_cell_length_c	23.196402
_cell_angle_alpha	60.005245
_cell_angle_beta	60.001335
_cell_angle_gamma	90.005102
loop_
_atom_site_label
_atom_site_type_symbol
_atom_site_fract_x
_atom_site_fract_y
_atom_site_fract_z
Zr1	Zr	0.820626	-0.075635	0.631010
O2	O	0.684605	-0.167678	0.751272
O3	O	0.862321	-0.047422	0.510746
O4	O	0.862311	-0.167685	0.631009
O5	O	0.684627	0.047455	0.631010
O6	O	1.002492	-0.167687	0.631011
O7	O	0.684615	-0.047415	0.631008
O8	O	1.002510	0.047442	0.415882
O9	O	0.684609	-0.167674	0.846139
O10	O	0.984723	-0.035386	0.560215
O11	O	0.880116	0.035415	0.560214
O12	O	0.880104	-0.106180	0.701809
O13	O	0.775497	-0.035378	0.701808
Zr14	Zr	1.044218	0.075670	0.631016
Zr15	Zr	1.044199	-0.075637	0.631014
Zr16	Zr	0.820645	0.075672	0.631012
Zr17	Zr	0.820633	-0.075628	0.782312
Zr18	Zr	1.044212	0.075663	0.479714
O19	O	1.002524	0.047457	0.751280
O20	O	1.002497	-0.167682	0.751277
O21	O	0.684632	0.047460	0.751275
O22	O	1.180239	0.167713	0.510754
O23	O	1.180213	-0.047425	0.510751
O24	O	0.862348	0.167716	0.510749
O25	O	1.180217	-0.047420	0.631016
O26	O	1.002534	0.167720	0.631017
O27	O	0.862353	0.167722	0.631014
O28	O	1.180229	0.047450	0.631018
O29	O	0.862319	-0.167676	0.846142
O30	O	1.002525	0.167711	0.415884
O31	O	1.180236	0.167709	0.415887
O32	O	1.180221	0.047441	0.415885
O33	O	0.684624	-0.047406	0.846141
O34	O	0.862335	-0.047408	0.846144
O35	O	0.984741	0.106214	0.560217
O36	O	1.089347	0.035413	0.560218
O37	O	0.984729	-0.035380	0.701812
O38	O	0.880122	0.035421	0.701811
C39	C	0.652767	0.000020	0.631008
C40	C	0.557854	0.000021	0.631007
C41	C	0.932415	0.000009	0.441757
C42	C	0.932412	0.000006	0.377525
C43	C	0.932446	0.189279	0.631016
C44	C	0.932454	0.253512	0.631017
C45	C	0.384069	0.000015	0.631021
C46	C	0.480773	0.000017	0.631017
C47	C	1.212078	0.000014	0.631017
C48	C	1.306990	0.000013	0.631019
C49	C	0.932399	-0.189244	0.631010
C50	C	0.932391	-0.253478	0.631009
C51	C	0.877849	0.246734	0.704925
C52	C	0.877833	0.307089	0.704926
C53	C	0.932444	0.374221	0.631015
C54	C	0.987051	0.380996	0.557097
C55	C	0.987057	0.320642	0.557098
C56	C	1.023908	0.498155	0.574389
C57	C	1.023906	0.558506	0.574391
C58	C	0.932426	0.560375	0.631009
C59	C	0.840949	0.501877	0.687638
C60	C	0.840955	0.441523	0.687639
C61	C	0.932444	0.439669	0.631005
C62	C	0.877799	0.619037	0.704923
C63	C	0.877781	0.679394	0.704921
C64	C	0.987009	0.753302	0.557090
C65	C	0.987017	0.692945	0.557094
C66	C	0.932415	0.625815	0.631013
C67	C	0.987008	-0.036954	0.347355
C68	C	0.987019	-0.036948	0.286994
C69	C	0.932412	0.000008	0.256817
C70	C	0.877813	0.036977	0.286991
C71	C	0.877813	0.036976	0.347345
C72	C	0.840941	-0.005265	0.194786
C73	C	0.840938	-0.005269	0.134436
C74	C	0.932413	0.000015	0.070662
C75	C	1.023891	0.005290	0.067252
C76	C	1.023891	0.005289	0.127606
C77	C	0.932406	0.000014	0.191372
C78	C	0.987025	-0.036940	-0.024959
C79	C	0.987038	-0.036930	-0.085325
C80	C	0.877823	0.036991	-0.085321
C81	C	0.877820	0.036984	-0.024962
C82	C	0.932419	0.000015	0.005218
C83	C	0.932430	0.000026	0.820269
C84	C	0.932433	0.000028	0.884501
C85	C	1.212070	0.000006	0.441761
C86	C	1.306980	0.000003	0.377531
C87	C	0.932438	0.189271	0.441760
C88	C	0.932444	0.253502	0.377529
C89	C	1.212094	0.189268	0.441764
C90	C	1.307012	0.253498	0.377535
C91	C	0.652751	-0.189233	0.820262
C92	C	0.557833	-0.253463	0.884491
C93	C	0.652775	0.000028	0.820265
C94	C	0.557865	0.000032	0.884495
C95	C	0.932406	-0.189236	0.820266
C96	C	0.932401	-0.253467	0.884497
C97	C	1.296938	-0.036962	0.347366
C98	C	1.386107	-0.036980	0.287023
C99	C	1.485318	-0.000028	0.256842
C100	C	1.495358	0.036938	0.287013
C101	C	1.406189	0.036951	0.347359
C102	C	0.987059	0.320628	0.347367
C103	C	0.987060	0.380985	0.287024
C104	C	0.932452	0.374215	0.256839
C105	C	0.877829	0.307082	0.287007
C106	C	0.877823	0.246726	0.347353
C107	C	1.406199	0.246703	0.347372
C108	C	1.495393	0.307048	0.287031
C109	C	1.485397	0.374187	0.256848
C110	C	1.386199	0.380980	0.287017
C111	C	1.297008	0.320636	0.347361
C112	C	0.458646	-0.246668	0.914661
C113	C	0.369452	-0.307013	0.975021
C114	C	0.379447	-0.374152	1.005207
C115	C	0.478645	-0.380945	0.975035
C116	C	0.567837	-0.320601	0.914679
C117	C	0.567907	0.036990	0.914666
C118	C	0.478738	0.036991	0.975025
C119	C	0.379527	0.000038	1.005209
C120	C	0.369487	-0.036925	0.975035
C121	C	0.458655	-0.036930	0.914681
C122	C	0.987020	-0.246674	0.914662
C123	C	0.987036	-0.307020	0.975006
C124	C	0.932425	-0.374158	1.005188
C125	C	0.877804	-0.380950	0.975016
C126	C	0.877795	-0.320604	0.914670
H127	H	0.833385	0.192078	0.765116
F128	F	1.600954	0.076263	0.254882
H129	H	1.031544	0.435642	0.262468
H130	H	1.557916	-0.000044	0.207704
F131	F	0.447984	-0.175220	0.882544
F132	F	0.819638	0.672176	0.783589
F133	F	0.819715	0.299887	0.254874
H134	H	1.576156	0.301504	0.262474
F135	F	1.416861	0.175254	0.379488
H136	H	1.378076	0.435653	0.262433
F137	F	0.819704	0.076313	0.254869
H138	H	1.414381	0.067056	0.371911
H139	H	1.031528	0.326154	0.371936
F140	F	1.045139	-0.076281	0.254872
F141	F	1.191447	0.327878	0.379452
F142	F	1.580333	0.438405	0.192622
F143	F	1.191359	-0.076296	0.379478
F144	F	0.932469	0.438458	0.192612
H145	H	0.486933	0.067094	0.999583
H146	H	0.766471	0.393897	0.733746
F147	F	0.263888	-0.299769	1.007120
H148	H	0.766440	-0.009583	0.246721
H149	H	1.031467	0.807961	0.496909
F150	F	0.819695	0.175286	0.379444
H151	H	0.833341	-0.435622	0.999600
F152	F	1.375400	-0.076323	0.254922
H153	H	1.031488	0.698467	0.496909
H154	H	0.306813	-0.423283	1.054352
H155	H	0.486772	-0.435617	0.999620
H156	H	0.648597	-0.326142	0.890116
F157	F	0.819702	0.076316	0.379455
F158	F	0.673486	0.076323	0.882555
H159	H	0.450464	-0.067024	0.890117
F160	F	0.932441	-0.438377	1.069416
H161	H	0.306929	0.000047	1.054353
H162	H	0.288698	-0.067012	0.999620
H163	H	1.031491	-0.192012	0.890098
H164	H	1.031513	-0.301476	0.999565
F165	F	0.819705	0.076323	-0.117434
F166	F	0.819726	0.299878	0.783593
F167	F	0.743583	0.503858	0.747901
F168	F	0.819649	-0.327845	0.882578
H169	H	0.833333	0.564376	0.765113
H170	H	1.098405	0.496646	0.528277
F171	F	1.121261	0.620759	0.514120
H172	H	1.098375	0.009586	0.124824
H173	H	1.031513	0.435660	0.496917
F174	F	1.045178	0.327859	0.478431
H175	H	1.031469	-0.067054	0.371924
H176	H	1.031487	-0.067040	-0.000388
F177	F	1.121252	0.010912	-0.000618
H178	H	1.031504	-0.067024	-0.109894
H179	H	0.833357	0.067079	-0.000395
H180	H	0.766451	-0.009568	0.137222
