data_functionalizedCrystal
_audit_creation_method	'MofGen! by Chris Wilmer'
_symmetry_space_group_name_H-M	'P1'
_symmetry_Int_Tables_number	1
_symmetry_cell_setting	triclinic
loop_
_symmetry_equiv_pos_as_xyz
  x,y,z
_cell_length_a	16.974885
_cell_length_b	15.455341
_cell_length_c	17.699083
_cell_angle_alpha	87.004927
_cell_angle_beta	83.338128
_cell_angle_gamma	83.352751
loop_
_atom_site_label
_atom_site_type_symbol
_atom_site_fract_x
_atom_site_fract_y
_atom_site_fract_z
O1	O	1.049011	-0.001437	0.096496
O2	O	1.382344	0.331897	0.429830
O3	O	1.715677	0.665230	0.763163
O4	O	0.818090	0.014760	0.108126
O5	O	1.151423	0.348094	0.441460
O6	O	1.484756	0.681427	0.774793
O7	O	0.940075	0.006197	-0.007854
O8	O	1.273408	0.339530	0.325479
O9	O	1.606741	0.672863	0.658812
O10	O	0.927026	0.007127	0.212477
O11	O	1.260359	0.340460	0.545810
O12	O	1.593692	0.673794	0.879144
O13	O	0.946262	-0.138498	-0.001933
O14	O	1.279595	0.194835	0.331400
O15	O	1.612929	0.528168	0.664733
O16	O	0.824277	-0.129935	0.114047
O17	O	1.157610	0.203399	0.447381
O18	O	1.490944	0.536732	0.780714
O19	O	1.055198	-0.146131	0.102417
O20	O	1.388531	0.187202	0.435751
O21	O	1.721865	0.520535	0.769084
Cu22	Cu	0.940302	-0.151245	0.108773
Cu23	Cu	1.273636	0.182089	0.442106
Cu24	Cu	1.606969	0.515422	0.775440
Cu25	Cu	0.932985	0.019874	0.101771
Cu26	Cu	1.266318	0.353207	0.435104
Cu27	Cu	1.599652	0.686540	0.768437
O28	O	0.933213	-0.137568	0.218398
O29	O	1.266546	0.195766	0.551731
O30	O	1.599880	0.529099	0.885065
C31	C	0.791637	-0.055515	0.110535
C32	C	1.124971	0.277818	0.443869
C33	C	1.458304	0.611152	0.777202
C34	C	0.703600	-0.049340	0.108883
C35	C	1.036933	0.283993	0.442216
C36	C	1.370267	0.617327	0.775550
C37	C	0.207682	-0.006057	0.099209
C38	C	0.541015	0.327276	0.432542
C39	C	0.874348	0.660610	0.765876
C40	C	0.290403	-0.011870	0.100762
C41	C	0.623736	0.321463	0.434095
C42	C	0.957069	0.654796	0.767429
C43	C	0.335127	-0.093651	0.104772
C44	C	0.668461	0.239682	0.438105
C45	C	1.001794	0.573016	0.771438
C46	C	0.297128	-0.169623	0.107221
C47	C	0.630461	0.163710	0.440554
C48	C	0.963794	0.497044	0.773887
C49	C	0.214409	-0.163809	0.105662
C50	C	0.547742	0.169524	0.438996
C51	C	0.881076	0.502858	0.772329
C52	C	0.582882	-0.119498	0.109774
C53	C	0.916215	0.213835	0.443107
C54	C	1.249548	0.547169	0.776441
C55	C	0.665606	-0.125307	0.111334
C56	C	0.998939	0.208027	0.444668
C57	C	1.332272	0.541360	0.778001
C58	C	0.658875	0.032447	0.104874
C59	C	0.992208	0.365780	0.438207
C60	C	1.325542	0.699114	0.771541
C61	C	0.576154	0.038254	0.103320
C62	C	0.909488	0.371587	0.436654
C63	C	1.242821	0.704921	0.769987
C64	C	0.538163	-0.037718	0.105766
C65	C	0.871496	0.295615	0.439099
C66	C	1.204829	0.628949	0.772432
N67	N	0.419681	-0.099595	0.106361
N68	N	0.753014	0.233738	0.439695
N69	N	1.086348	0.567071	0.773028
N70	N	0.453611	-0.031773	0.104170
N71	N	0.786944	0.301560	0.437504
N72	N	1.120278	0.634894	0.770837
N73	N	0.945455	-0.271601	0.113698
N74	N	1.278788	0.061733	0.447031
N75	N	1.612121	0.395066	0.780364
C76	C	0.973898	-0.817598	0.140993
C77	C	1.307232	-0.484264	0.474327
C78	C	1.640565	-0.150931	0.807660
C79	C	0.970006	-0.726518	0.137264
C80	C	1.303340	-0.393184	0.470597
C81	C	1.636673	-0.059851	0.803930
C82	C	0.920059	-0.677613	0.089376
C83	C	1.253392	-0.344279	0.422709
C84	C	1.586725	-0.010946	0.756043
C85	C	0.873994	-0.719792	0.045221
C86	C	1.207328	-0.386459	0.378554
C87	C	1.540661	-0.053125	0.711888
C88	C	0.877883	-0.810870	0.048955
C89	C	1.211216	-0.477537	0.382289
C90	C	1.544549	-0.144203	0.715622
C91	C	0.903278	-0.404858	0.073277
C92	C	1.236612	-0.071525	0.406610
C93	C	1.569945	0.261809	0.739944
C94	C	0.899395	-0.313774	0.069544
C95	C	1.232729	0.019560	0.402878
C96	C	1.566062	0.352893	0.736211
C97	C	0.995407	-0.320506	0.161588
C98	C	1.328740	0.012828	0.494922
C99	C	1.662074	0.346161	0.828255
C100	C	0.999294	-0.411586	0.165315
C101	C	1.332628	-0.078252	0.498648
C102	C	1.665961	0.255081	0.831982
C103	C	0.953227	-0.453757	0.121163
C104	C	1.286560	-0.120423	0.454496
C105	C	1.619893	0.212910	0.787830
N106	N	0.916081	-0.584514	0.085561
N107	N	1.249415	-0.251181	0.418894
N108	N	1.582748	0.082152	0.752228
N109	N	0.957201	-0.546853	0.124983
N110	N	1.290534	-0.213520	0.458316
N111	N	1.623867	0.119814	0.791649
C112	C	1.081650	-0.075854	0.100008
C113	C	1.414984	0.257479	0.433342
C114	C	1.748317	0.590812	0.766675
C115	C	1.169687	-0.082023	0.101660
C116	C	1.503021	0.251310	0.434994
C117	C	1.836354	0.584643	0.768327
C118	C	0.942701	-0.066118	-0.033092
C119	C	1.276034	0.267215	0.300241
C120	C	1.609367	0.600549	0.633574
C121	C	0.941298	-0.066020	-0.117116
C122	C	1.274631	0.267313	0.216218
C123	C	1.607965	0.600647	0.549551
N124	N	0.927839	0.140229	0.096840
N125	N	1.261172	0.473562	0.430173
N126	N	1.594506	0.806896	0.763507
C127	C	1.012901	-0.071043	-0.165481
C128	C	1.346234	0.262290	0.167852
C129	C	1.679567	0.595623	0.501185
C130	C	1.011578	-0.070943	-0.244430
C131	C	1.344911	0.262390	0.088904
C132	C	1.678244	0.595724	0.422237
C133	C	0.938651	-0.065825	-0.275010
C134	C	1.271985	0.267508	0.058323
C135	C	1.605318	0.600841	0.391656
C136	C	0.867043	-0.060799	-0.226638
C137	C	1.200377	0.272534	0.106695
C138	C	1.533710	0.605868	0.440028
C139	C	0.868367	-0.060893	-0.147692
C140	C	1.201700	0.272440	0.185641
C141	C	1.535034	0.605773	0.518975
C142	C	0.861704	-0.060417	-0.545021
C143	C	1.195037	0.272916	-0.211687
C144	C	1.528371	0.606249	0.121646
C145	C	0.860386	-0.060326	-0.623973
C146	C	1.193719	0.273007	-0.290640
C147	C	1.527053	0.606341	0.042693
C148	C	1.004915	-0.070467	-0.641759
C149	C	1.338248	0.262866	-0.308425
C150	C	1.671581	0.596199	0.024908
C151	C	1.006238	-0.070561	-0.562812
C152	C	1.339572	0.262772	-0.229479
C153	C	1.672905	0.596105	0.103855
C154	C	0.934630	-0.065531	-0.514447
C155	C	1.267964	0.267803	-0.181114
C156	C	1.601297	0.601136	0.152219
C157	C	0.936066	-0.065638	-0.428843
C158	C	1.269399	0.267695	-0.095509
C159	C	1.602732	0.601029	0.237824
C160	C	0.937216	-0.065724	-0.360613
C161	C	1.270549	0.267609	-0.027280
C162	C	1.603882	0.600943	0.306053
C163	C	0.930587	-0.065251	0.243636
C164	C	1.263920	0.268082	0.576969
C165	C	1.597253	0.601416	0.910303
C166	C	0.931989	-0.065343	0.327659
C167	C	1.265323	0.267990	0.660992
C168	C	1.598656	0.601323	0.994326
H169	H	0.183474	-0.225669	0.107666
H170	H	0.516808	0.107664	0.441000
H171	H	0.850141	0.440998	0.774333
Cl172	Cl	1.027885	-0.673502	0.192799
Cl173	Cl	1.361219	-0.340169	0.526133
Cl174	Cl	1.694552	-0.006835	0.859466
H175	H	1.039968	-0.451398	0.204309
H176	H	1.373302	-0.118065	0.537642
H177	H	1.706635	0.215268	0.870976
Cl178	Cl	0.836625	-0.252296	0.009314
Cl179	Cl	1.169958	0.081038	0.342647
Cl180	Cl	1.503291	0.414371	0.675981
H181	H	0.865769	-0.439183	0.037323
H182	H	1.199103	-0.105849	0.370656
H183	H	1.532436	0.227484	0.703989
H184	H	0.689817	0.094299	0.102882
H185	H	1.023150	0.427632	0.436216
H186	H	1.356484	0.760966	0.769549
Cl187	Cl	0.771682	-0.054090	-0.484230
Cl188	Cl	1.105016	0.279243	-0.150896
Cl189	Cl	1.438349	0.612576	0.182437
Cl190	Cl	1.101597	-0.077261	-0.305230
Cl191	Cl	1.434930	0.256072	0.028104
Cl192	Cl	1.768263	0.589406	0.361437
Cl193	Cl	0.768700	-0.053890	-0.662416
Cl194	Cl	1.102034	0.279443	-0.329083
Cl195	Cl	1.435367	0.612777	0.004251
Cl196	Cl	1.097920	-0.076992	-0.524373
Cl197	Cl	1.431253	0.256341	-0.191039
Cl198	Cl	1.764587	0.589674	0.142294
H199	H	0.833322	-0.679966	0.006233
H200	H	1.166656	-0.346633	0.339567
H201	H	1.499989	-0.013299	0.672900
Cl202	Cl	1.104585	-0.077486	-0.127045
Cl203	Cl	1.437918	0.255847	0.206288
Cl204	Cl	1.771251	0.589180	0.539622
Cl205	Cl	0.775364	-0.054354	-0.265083
Cl206	Cl	1.108697	0.278979	0.068250
Cl207	Cl	1.442030	0.612312	0.401583
H208	H	0.810061	-0.056802	-0.108313
H209	H	1.143394	0.276531	0.225021
H210	H	1.476727	0.609864	0.558354
Cl211	Cl	1.094938	-0.076788	-0.702565
Cl212	Cl	1.428271	0.256545	-0.369232
Cl213	Cl	1.761604	0.589878	-0.035899
H214	H	0.171272	0.060538	0.095949
H215	H	0.504605	0.393871	0.429283
H216	H	0.837938	0.727205	0.762616
Cl217	Cl	1.053313	-0.267485	0.217093
Cl218	Cl	1.386646	0.065848	0.550427
Cl219	Cl	1.719980	0.399182	0.883760
Cl220	Cl	0.353353	-0.272434	0.112260
Cl221	Cl	0.686686	0.060899	0.445593
Cl222	Cl	1.020020	0.394233	0.778927
Cl223	Cl	0.819974	-0.863888	-0.006552
Cl224	Cl	1.153308	-0.530554	0.326782
Cl225	Cl	1.486641	-0.197221	0.660115
H226	H	0.321334	0.049990	0.098761
H227	H	0.654668	0.383323	0.432094
H228	H	0.988001	0.716656	0.765428
H229	H	0.539745	0.104849	0.100054
H230	H	0.873078	0.438182	0.433388
H231	H	1.206412	0.771515	0.766721
H232	H	0.551960	-0.181360	0.111754
H233	H	0.885294	0.151973	0.445087
H234	H	1.218627	0.485307	0.778420
Cl235	Cl	0.721830	-0.228124	0.116374
Cl236	Cl	1.055164	0.105209	0.449708
Cl237	Cl	1.388497	0.438542	0.783041
H238	H	1.014574	-0.857410	0.179986
H239	H	1.347908	-0.524077	0.513319
H240	H	1.681241	-0.190744	0.846652
