data_functionalizedCrystal
_audit_creation_method	'MofGen! by Chris Wilmer'
_symmetry_space_group_name_H-M	'P1'
_symmetry_Int_Tables_number	1
_symmetry_cell_setting	triclinic
loop_
_symmetry_equiv_pos_as_xyz
  x,y,z
_cell_length_a	16.959454
_cell_length_b	11.169417
_cell_length_c	11.169409
_cell_angle_alpha	90.020564
_cell_angle_beta	89.967114
_cell_angle_gamma	89.979046
loop_
_atom_site_label
_atom_site_type_symbol
_atom_site_fract_x
_atom_site_fract_y
_atom_site_fract_z
Zn1	Zn	-0.314599	-1.834890	-0.678538
Zn2	Zn	-0.446806	-1.834743	-0.477852
Zn3	Zn	-0.314648	-1.634173	-0.477872
Zn4	Zn	-0.446742	-1.634149	-0.678497
O5	O	-0.380699	-1.734489	-0.578190
O6	O	-0.332144	-2.002820	-0.651925
O7	O	-0.429322	-1.808085	-0.309905
O8	O	-0.204030	-1.660870	-0.504516
O9	O	-0.429275	-2.002712	-0.504482
O10	O	-0.203995	-1.808336	-0.651944
O11	O	-0.332226	-1.660728	-0.309920
O12	O	-0.332163	-1.466220	-0.504477
O13	O	-0.429166	-1.660829	-0.846452
O14	O	-0.429213	-1.466203	-0.651875
O15	O	-0.332081	-1.808313	-0.846482
O16	O	-0.557408	-1.808062	-0.504443
O17	O	-0.557361	-1.660687	-0.651856
C18	C	-0.380687	-1.422664	-0.578174
C19	C	-0.380701	-1.289264	-0.578196
C20	C	-0.586065	-1.734388	-0.578169
C21	C	-0.673922	-1.734455	-0.578201
C22	C	-0.380611	-1.734585	-0.891232
C23	C	-0.380574	-1.734626	-1.024633
C24	C	-1.045403	-1.657862	-0.654940
C25	C	-1.045392	-1.811450	-0.501562
C26	C	-0.962846	-1.811408	-0.501551
C27	C	-0.921575	-1.734591	-0.578234
C28	C	-0.962849	-1.657815	-0.654928
C29	C	-0.921565	-1.888173	-0.424850
C30	C	-0.839014	-1.888134	-0.424835
C31	C	-0.797741	-1.811321	-0.501525
C32	C	-0.839021	-1.734544	-0.578223
C33	C	-0.797750	-1.657726	-0.654906
C34	C	-0.839028	-1.580954	-0.731611
C35	C	-0.921576	-1.581003	-0.731618
C36	C	-0.715193	-1.811272	-0.501518
C37	C	-0.715196	-1.657679	-0.654895
C38	C	-0.174531	-1.734622	-0.578237
C39	C	-0.086674	-1.734679	-0.578257
C40	C	-0.380711	-2.047531	-0.578206
C41	C	-0.380717	-2.180931	-0.578213
C42	C	-0.380729	-1.734462	-0.266365
C43	C	-0.380544	-1.734653	-0.132966
H44	H	-0.805415	-1.518403	-0.794042
H45	H	-1.079015	-1.595359	-0.717394
H46	H	-0.681588	-1.873774	-0.439060
O47	O	-0.966097	-1.971020	-0.342168
H48	H	-0.950329	-1.950480	-0.247943
H49	H	-0.805411	-1.950646	-0.362380
H50	H	-0.955192	-1.518497	-0.794066
O51	O	-1.089899	-1.894334	-0.418889
H52	H	-1.154235	-1.881484	-0.431797
O53	O	-0.670692	-1.574814	-0.737606
H54	H	-0.633032	-1.628471	-0.798718
