data_functionalizedCrystal
_audit_creation_method	'MofGen! by Chris Wilmer'
_symmetry_space_group_name_H-M	'P1'
_symmetry_Int_Tables_number	1
_symmetry_cell_setting	triclinic
loop_
_symmetry_equiv_pos_as_xyz
  x,y,z
_cell_length_a	14.044191
_cell_length_b	14.044190
_cell_length_c	9.130307
_cell_angle_alpha	89.991681
_cell_angle_beta	90.000850
_cell_angle_gamma	93.191777
loop_
_atom_site_label
_atom_site_type_symbol
_atom_site_fract_x
_atom_site_fract_y
_atom_site_fract_z
O1	O	1.277174	0.230199	-0.121759
O2	O	1.000502	0.221886	-0.121776
O3	O	1.134682	0.087706	-0.121739
O4	O	1.142994	0.364379	-0.121796
O5	O	1.134677	0.087704	0.121860
O6	O	1.000497	0.221884	0.121823
O7	O	1.277169	0.230197	0.121840
Cu8	Cu	1.138833	0.226040	0.144074
Cu9	Cu	1.138838	0.226043	-0.144010
O10	O	1.142989	0.364377	0.121803
C11	C	0.964877	0.218249	0.000021
C12	C	0.858734	0.207401	0.000016
C13	C	0.613277	0.264502	0.000019
C14	C	0.664400	0.187585	0.000032
C15	C	0.772537	0.198614	0.000023
C16	C	0.505130	0.253475	0.000028
C17	C	1.131043	0.052083	0.000064
C18	C	1.120195	-0.054060	0.000076
C19	C	1.177296	-0.299517	0.000023
C20	C	1.100379	-0.248394	0.000028
C21	C	1.111408	-0.140257	0.000055
C22	C	1.166269	-0.407664	-0.000004
C23	C	1.312794	0.233834	0.000039
C24	C	1.418937	0.244682	0.000035
C25	C	1.146628	0.400000	-0.000004
C26	C	1.157476	0.506143	-0.000026
N27	N	1.138835	0.226039	0.346697
N28	N	1.138842	0.226037	-0.346633
C29	C	1.257708	0.107264	0.346720
C30	C	1.317150	0.047880	0.423398
C31	C	1.317160	0.047880	0.576731
C32	C	1.257718	0.107269	0.653390
C33	C	1.198276	0.166653	0.576712
C34	C	1.198275	0.166649	0.423375
C35	C	1.079400	0.285421	0.576689
C36	C	1.079394	0.285427	0.423355
C37	C	1.019958	0.344810	0.653347
C38	C	0.960519	0.404200	0.576669
C39	C	0.960513	0.404198	0.423326
C40	C	1.019951	0.344812	0.346677
H41	H	0.626955	0.113453	-0.000056
H42	H	0.650720	0.338629	-0.000001
H43	H	1.026247	-0.285839	0.000015
H44	H	1.251423	-0.262074	0.000042
H45	H	0.912104	0.452552	0.360903
H46	H	1.257714	0.107267	0.221867
H47	H	0.912121	0.452546	0.639094
H48	H	1.365545	-0.000475	0.360969
H49	H	1.365559	-0.000479	0.639163
H50	H	1.257721	0.107257	0.778242
H51	H	1.019964	0.344803	0.778200
H52	H	1.019955	0.344808	0.221825
