data_functionalizedCrystal
_audit_creation_method	'MofGen! by Chris Wilmer'
_symmetry_space_group_name_H-M	'P1'
_symmetry_Int_Tables_number	1
_symmetry_cell_setting	triclinic
loop_
_symmetry_equiv_pos_as_xyz
  x,y,z
_cell_length_a	16.120530
_cell_length_b	21.395361
_cell_length_c	21.395355
_cell_angle_alpha	90.021511
_cell_angle_beta	87.079043
_cell_angle_gamma	92.874023
loop_
_atom_site_label
_atom_site_type_symbol
_atom_site_fract_x
_atom_site_fract_y
_atom_site_fract_z
Zn1	Zn	1.274542	0.298157	-0.402756
Zn2	Zn	1.274412	0.402911	-0.297968
Zn3	Zn	1.135113	0.292835	-0.292686
Zn4	Zn	1.135072	0.397577	-0.397405
O5	O	1.204785	0.347870	-0.347704
O6	O	1.391190	0.316512	-0.393305
O7	O	1.255897	0.388315	-0.209588
O8	O	1.153680	0.205866	-0.307316
O9	O	1.391095	0.393475	-0.316318
O10	O	1.256118	0.209776	-0.388183
O11	O	1.153554	0.307442	-0.205707
O12	O	1.018442	0.302270	-0.302127
O13	O	1.153610	0.384383	-0.485794
O14	O	1.018412	0.379223	-0.379064
O15	O	1.256078	0.311340	-0.489725
O16	O	1.255857	0.489879	-0.311129
O17	O	1.153484	0.485960	-0.384185
C18	C	0.988177	0.339591	-0.339442
C19	C	0.895511	0.336064	-0.335923
C20	C	1.204675	0.510654	-0.347664
C21	C	1.204704	0.580296	-0.347672
C22	C	1.204854	0.347860	-0.511129
C23	C	1.204884	0.347856	-0.580772
C24	C	0.725850	0.329610	-0.329503
C25	C	0.684560	0.366176	-0.365950
C26	C	0.590155	0.362585	-0.362378
C27	C	0.820264	0.333200	-0.333074
C28	C	1.422238	0.356182	-0.355998
C29	C	1.514904	0.359724	-0.359532
C30	C	1.204918	0.184452	-0.347757
C31	C	1.204975	0.114813	-0.347780
C32	C	1.258056	0.615031	-0.309674
C33	C	1.258095	0.680468	-0.309690
C34	C	1.204767	0.711167	-0.347695
C35	C	1.151410	0.676424	-0.385701
C36	C	1.151379	0.610988	-0.385689
C37	C	1.129700	0.812017	-0.349748
C38	C	1.129730	0.877451	-0.349756
C39	C	1.204864	0.912991	-0.347736
C40	C	1.279969	0.883089	-0.345695
C41	C	1.279938	0.817654	-0.345683
C42	C	1.204795	0.782120	-0.347713
C43	C	1.258263	1.018680	-0.309753
C44	C	1.258303	1.084118	-0.309773
C45	C	1.151611	1.080073	-0.385781
C46	C	1.151578	1.014636	-0.385764
C47	C	1.204903	0.983944	-0.347747
C48	C	1.258236	0.309820	-0.615533
C49	C	1.258235	0.309793	-0.680968
C50	C	1.204890	0.347813	-0.711641
C51	C	1.151527	0.385851	-0.676871
C52	C	1.151524	0.385873	-0.611437
C53	C	1.198269	0.403976	-0.815051
C54	C	1.198278	0.403956	-0.880484
C55	C	1.204895	0.347747	-0.913462
C56	C	1.211521	0.291558	-0.880998
C57	C	1.211517	0.291579	-0.815564
C58	C	1.204887	0.347794	-0.782593
C59	C	1.258249	0.309679	-1.019175
C60	C	1.258242	0.309651	-1.084612
C61	C	1.151539	0.385715	-1.080513
C62	C	1.151541	0.385737	-1.015078
C63	C	1.204901	0.347721	-0.984413
C64	C	1.204764	0.347837	-0.184915
C65	C	1.204896	0.347671	-0.115279
H66	H	0.690301	0.295612	-0.295619
N67	N	1.315581	0.581927	-0.268682
H68	H	1.349389	0.613865	-0.244616
H69	H	1.354131	0.556215	-0.295682
N70	N	1.315784	0.268766	-0.718467
H71	H	1.375342	0.280783	-0.709364
H72	H	1.307620	0.274540	-0.764559
H73	H	1.107932	0.582706	-0.416631
N74	N	1.093883	0.709528	-0.426689
H75	H	1.106797	0.698603	-0.471955
H76	H	1.102020	0.756242	-0.420878
H77	H	1.301544	0.708754	-0.278748
H78	H	1.108074	0.416845	-0.583134
H79	H	1.068513	0.783086	-0.351396
H80	H	1.216910	0.245827	-0.789134
H81	H	1.301754	1.112399	-0.278833
H82	H	1.108091	0.416806	-0.701849
H83	H	1.216910	0.245787	-0.907847
H84	H	1.341091	0.793309	-0.344024
N85	N	1.093983	0.426760	-0.977592
H86	H	1.106885	0.472018	-0.989471
H87	H	1.102088	0.420955	-0.931496
N88	N	1.361014	0.921411	-0.343514
H89	H	1.349641	0.967401	-0.343834
H90	H	1.398256	0.911347	-0.381187
N91	N	1.315775	0.985570	-0.268753
H92	H	1.349586	1.017507	-0.244687
H93	H	1.354325	0.959849	-0.295746
H94	H	0.720111	0.400177	-0.399837
H95	H	1.108193	1.105067	-0.416729
H96	H	1.301693	0.278720	-0.994206
N97	N	1.094027	0.977167	-0.426743
H98	H	1.060247	1.006542	-0.450821
H99	H	1.055450	0.948587	-0.399736
N100	N	1.048723	0.909693	-0.351950
H101	H	1.020327	0.897220	-0.391399
H102	H	1.060201	0.956530	-0.351621
H103	H	1.301685	0.278863	-0.590570
H104	H	1.301687	0.278674	-1.112913
H105	H	1.108096	0.416665	-1.105486
N106	N	1.191139	0.464557	-0.915497
H107	H	1.186936	0.500167	-0.884678
H108	H	1.139773	0.461680	-0.940677
H109	H	1.192657	0.449728	-0.788198
