data_functionalizedCrystal
_audit_creation_method	'MofGen! by Chris Wilmer'
_symmetry_space_group_name_H-M	'P1'
_symmetry_Int_Tables_number	1
_symmetry_cell_setting	triclinic
loop_
_symmetry_equiv_pos_as_xyz
  x,y,z
_cell_length_a	14.853567
_cell_length_b	10.540539
_cell_length_c	13.930277
_cell_angle_alpha	89.997612
_cell_angle_beta	89.995755
_cell_angle_gamma	84.080211
loop_
_atom_site_label
_atom_site_type_symbol
_atom_site_fract_x
_atom_site_fract_y
_atom_site_fract_z
O1	O	1.197288	0.165727	-0.079760
O2	O	0.934938	0.185470	-0.079776
O3	O	1.072098	-0.009174	-0.079766
O4	O	1.060128	0.360371	-0.079770
O5	O	1.072079	-0.009178	0.079895
O6	O	0.934919	0.185465	0.079886
O7	O	1.197269	0.165723	0.079902
Zn8	Zn	1.066091	0.175594	0.105244
Zn9	Zn	1.066116	0.175599	-0.105118
O10	O	1.060108	0.360367	0.079892
C11	C	0.901335	0.184573	0.000053
C12	C	0.801236	0.181892	0.000047
C13	C	0.387998	0.054938	0.000069
C14	C	0.368000	0.286179	0.000066
C15	C	0.462048	0.288700	0.000063
C16	C	0.519075	0.174338	0.000062
C17	C	0.482055	0.057455	0.000063
C18	C	0.499075	0.405580	0.000052
C19	C	0.593129	0.408105	0.000048
C20	C	0.650158	0.293742	0.000053
C21	C	0.613132	0.176855	0.000056
C22	C	0.670159	0.062493	0.000054
C23	C	0.633135	-0.054396	0.000064
C24	C	0.539084	-0.056908	0.000069
C25	C	0.744209	0.296254	0.000048
C26	C	0.764216	0.065010	0.000048
C27	C	1.071191	-0.056469	0.000063
C28	C	1.068505	-0.197388	0.000057
C29	C	0.965588	-0.379682	-0.000307
C30	C	0.968311	-0.233094	0.000052
C31	C	1.116712	-0.259578	0.091235
C32	C	1.113293	-0.406085	0.091312
C33	C	1.115353	-0.406621	-0.090254
C34	C	1.116276	-0.259649	-0.091459
C35	C	1.230872	0.166620	0.000071
C36	C	1.330971	0.169300	0.000071
C37	C	1.061016	0.407662	0.000061
C38	C	1.063702	0.548580	0.000060
N39	N	1.066080	0.175589	0.248810
N40	N	1.066134	0.175594	-0.248684
C41	C	1.005379	0.261753	0.701075
C42	C	1.126878	0.089435	0.701053
C43	C	1.126867	0.089431	0.600557
C44	C	1.066112	0.175591	0.550315
C45	C	1.005368	0.261755	0.600570
C46	C	1.187617	0.003277	0.550295
C47	C	1.187609	0.003271	0.449793
C48	C	1.126849	0.089426	0.399550
C49	C	1.066102	0.175592	0.449810
C50	C	1.005347	0.261752	0.399569
C51	C	0.944594	0.347913	0.449828
C52	C	0.944608	0.347909	0.550327
C53	C	1.126835	0.089429	0.299051
C54	C	1.005336	0.261753	0.299064
H55	H	0.623265	0.503283	0.000040
H56	H	0.930096	-0.190919	0.065517
H57	H	0.357849	-0.040229	0.000081
O58	O	0.784147	0.422308	0.000044
H59	H	0.728692	0.501408	0.000050
O60	O	0.939809	0.354687	0.244875
H61	H	0.897575	0.414600	0.296708
H62	H	0.926162	-0.409458	0.064707
O63	O	0.499152	-0.182972	0.000078
H64	H	0.456789	-0.189652	-0.065000
H65	H	0.895146	0.418060	0.591253
H66	H	1.237076	-0.066887	0.408879
H67	H	1.082933	-0.437815	-0.159360
H68	H	1.185351	-0.454846	0.095452
O69	O	0.306500	0.409524	0.000078
H70	H	0.234880	0.388138	0.000090
O71	O	1.066078	-0.442927	0.181586
H72	H	1.063177	-0.547722	0.182540
H73	H	0.930378	-0.190072	-0.065308
O74	O	1.072336	-0.202677	0.181112
H75	H	1.122986	-0.157016	0.224157
H76	H	1.190292	-0.238034	0.094629
H77	H	1.176303	0.019284	0.258135
O78	O	0.437573	0.528923	0.000066
H79	H	0.365954	0.507533	0.000089
H80	H	0.926017	-0.407845	-0.065692
H81	H	0.679579	-0.147509	0.000056
O82	O	1.069627	-0.204912	-0.180816
H83	H	1.012659	-0.133653	-0.160146
O84	O	1.213043	-0.228647	-0.098754
H85	H	1.228673	-0.168115	-0.036986
H86	H	1.187723	-0.454643	-0.090862
H87	H	0.895131	0.418070	0.408910
H88	H	1.176347	0.019292	0.741962
O89	O	0.825724	-0.058339	0.000048
H90	H	0.784176	-0.140033	0.000050
O91	O	0.939859	0.354690	0.755271
H92	H	0.950072	0.340226	0.833596
H93	H	1.237086	-0.066865	0.591205
