data_functionalizedCrystal
_audit_creation_method	'MofGen! by Chris Wilmer'
_symmetry_space_group_name_H-M	'P1'
_symmetry_Int_Tables_number	1
_symmetry_cell_setting	triclinic
loop_
_symmetry_equiv_pos_as_xyz
  x,y,z
_cell_length_a	10.654545
_cell_length_b	10.654550
_cell_length_c	9.730223
_cell_angle_alpha	89.996328
_cell_angle_beta	90.002141
_cell_angle_gamma	95.515995
loop_
_atom_site_label
_atom_site_type_symbol
_atom_site_fract_x
_atom_site_fract_y
_atom_site_fract_z
O1	O	1.667841	-0.176371	0.114276
O2	O	2.167841	0.323629	0.614276
O3	O	1.302362	-0.193183	0.114282
O4	O	1.802362	0.306817	0.614282
O5	O	1.493505	-0.002037	0.114270
O6	O	1.993505	0.497963	0.614270
O7	O	1.476699	-0.367516	0.114287
O8	O	1.976699	0.132484	0.614287
O9	O	1.493495	-0.002034	-0.114310
O10	O	1.993495	0.497966	0.385690
O11	O	1.302352	-0.193179	-0.114298
O12	O	1.802352	0.306821	0.385702
O13	O	1.667831	-0.176367	-0.114304
O14	O	2.167831	0.323633	0.385696
Zn15	Zn	1.485090	-0.184773	-0.150593
Zn16	Zn	1.985090	0.315227	0.349407
Zn17	Zn	1.485103	-0.184777	0.150571
Zn18	Zn	1.985103	0.315223	0.650571
O19	O	1.476688	-0.367513	-0.114292
O20	O	1.976688	0.132487	0.385708
C21	C	1.255559	-0.191948	-0.000008
C22	C	1.755559	0.308052	0.499992
C23	C	1.116115	-0.188258	-0.000006
C24	C	1.616115	0.311742	0.499994
C25	C	1.050605	-0.186519	-0.124606
C26	C	1.550605	0.313481	0.375394
C27	C	0.919586	-0.183032	-0.124606
C28	C	1.419586	0.316968	0.375394
C29	C	0.919597	-0.183027	0.124605
C30	C	1.419597	0.316973	0.624605
C31	C	1.050616	-0.186506	0.124603
C32	C	1.550616	0.313494	0.624603
C33	C	1.492266	0.044762	-0.000019
C34	C	1.992266	0.544762	0.499981
C35	C	1.488574	0.184206	-0.000017
C36	C	1.988574	0.684206	0.499983
C37	C	1.714634	-0.177602	-0.000012
C38	C	2.214634	0.322398	0.499988
C39	C	1.854078	-0.181292	-0.000005
C40	C	2.354078	0.318708	0.499995
C41	C	1.477927	-0.414312	-0.000000
C42	C	1.977927	0.085688	0.500000
C43	C	1.481619	-0.553755	0.000007
C44	C	1.981619	-0.053755	0.500007
N45	N	1.485090	-0.184769	-0.356130
N46	N	1.985090	0.315231	0.143870
C47	C	1.601115	0.263693	-0.000018
C48	C	2.101115	0.763693	0.499982
C49	C	1.597639	0.394714	-0.000002
C50	C	2.097639	0.894714	0.499998
C51	C	1.369069	0.366747	0.000012
C52	C	1.869069	0.866747	0.500012
C53	C	1.372547	0.235729	0.000005
C54	C	1.872547	0.735729	0.500005
C55	C	1.569763	-0.100162	-0.571953
C56	C	2.069763	0.399838	-0.071953
C57	C	1.569755	-0.100163	-0.428070
C58	C	2.069755	0.399837	0.071930
C59	C	1.400436	-0.269387	-0.428080
C60	C	1.900436	0.230613	0.071920
C61	C	1.400451	-0.269391	-0.571960
C62	C	1.900451	0.230609	-0.071960
N63	N	1.485113	-0.184771	0.356107
N64	N	1.985113	0.315229	0.856107
H65	H	1.103931	-0.187946	-0.226070
H66	H	1.603931	0.312054	0.273930
C67	C	0.847529	-0.181134	-0.261676
C68	C	1.347529	0.318866	0.238324
N69	N	0.793256	-0.179708	-0.364923
N70	N	1.293256	0.320292	0.135077
H71	H	1.331504	-0.338281	-0.369498
H72	H	1.831504	0.161719	0.130502
C73	C	1.662900	-0.007084	-0.651074
C74	C	2.162900	0.492916	-0.151074
N75	N	1.733056	0.063023	-0.710664
N76	N	2.233056	0.563023	-0.210664
H77	H	1.331518	-0.338296	-0.630537
H78	H	1.831518	0.161704	-0.130537
H79	H	1.274604	0.408713	0.000027
H80	H	1.774604	0.908713	0.500027
C81	C	1.721444	0.482145	-0.000015
C82	C	2.221444	0.982145	0.499985
N83	N	1.814700	0.547998	-0.000028
N84	N	2.314700	1.047998	0.499972
H85	H	1.638687	-0.031268	-0.369500
H86	H	2.138687	0.468732	0.130500
C87	C	1.122682	-0.188411	0.261680
C88	C	1.622682	0.311589	0.761680
N89	N	1.176963	-0.189841	0.364922
N90	N	1.676963	0.310159	0.864922
H91	H	1.280896	0.171006	0.000010
H92	H	1.780896	0.671006	0.500010
H93	H	1.695592	0.221748	-0.000033
H94	H	2.195592	0.721748	0.499967
C95	C	0.847534	-0.181109	0.261667
C96	C	1.347534	0.318891	0.761667
N97	N	0.793257	-0.179669	0.364906
N98	N	1.293257	0.320331	0.864906
