data_functionalizedCrystal
_audit_creation_method	'MofGen! by Chris Wilmer'
_symmetry_space_group_name_H-M	'P1'
_symmetry_Int_Tables_number	1
_symmetry_cell_setting	triclinic
loop_
_symmetry_equiv_pos_as_xyz
  x,y,z
_cell_length_a	6.817900
_cell_length_b	11.102288
_cell_length_c	11.168136
_cell_angle_alpha	91.983489
_cell_angle_beta	108.508683
_cell_angle_gamma	108.605689
loop_
_atom_site_label
_atom_site_type_symbol
_atom_site_fract_x
_atom_site_fract_y
_atom_site_fract_z
V1	V	-4.110388	-0.175858	-0.393699
O2	O	-4.069442	0.008431	-0.386205
O3	O	-4.087173	-0.348678	-0.391007
O4	O	-4.086671	-0.173162	-0.565405
O5	O	-4.069948	-0.168301	-0.210599
V6	V	-4.587554	-0.153814	-0.371799
O7	O	-4.385590	-0.224214	-0.441739
O8	O	-4.762549	-0.105458	-0.323759
O9	O	-4.387563	0.019006	-0.374492
O10	O	-4.745897	-0.338103	-0.379294
O11	O	-4.745391	-0.161372	-0.554899
O12	O	-4.388065	-0.156511	-0.200093
C13	C	-3.937502	-0.390808	-0.384796
C14	C	-3.999972	-0.532091	-0.383739
C15	C	-4.213310	-0.604939	-0.389542
C16	C	-4.272001	-0.737691	-0.388559
C17	C	-3.903991	-0.724732	-0.375964
C18	C	-3.845308	-0.591984	-0.376957
C19	C	-3.936860	-0.166917	-0.607257
C20	C	-3.998918	-0.165856	-0.747627
C21	C	-4.201443	-0.171411	-0.816319
C22	C	-4.265588	-0.170315	-0.961399
C23	C	-4.200576	0.061129	-0.380699
C24	C	-4.117346	0.202410	-0.381764
C25	C	-4.201217	-0.162759	-0.158235
C26	C	-4.118396	-0.163814	-0.017863
H27	H	-4.445718	-0.796999	-0.393287
H28	H	-3.671579	-0.532669	-0.372235
H29	H	-4.327338	-0.176970	-0.767720
H30	H	-4.439086	-0.175076	-1.020451
C31	C	-3.896307	-0.267393	-0.878984
C32	C	-3.884182	-0.157428	-0.938185
H33	H	-3.751712	-0.263453	-0.829788
H34	H	-3.965092	-0.341697	-0.942254
H35	H	-3.980315	-0.271591	-0.824742
H36	H	-3.800187	-0.153234	-0.992435
H37	H	-3.815365	-0.083103	-0.874907
C38	C	-4.304387	-0.446057	-0.288909
C39	C	-4.383315	-0.539103	-0.397007
H40	H	-4.409356	-0.405422	-0.293519
H41	H	-4.168952	-0.383677	-0.285603
H42	H	-4.281362	-0.485978	-0.214294
H43	H	-4.406324	-0.499180	-0.471622
H44	H	-4.518789	-0.601492	-0.400326
C45	C	-3.830535	-0.922469	-0.368837
C46	C	-3.733985	-0.790569	-0.368492
H47	H	-3.725567	-0.963108	-0.364213
H48	H	-3.954014	-0.958495	-0.445234
H49	H	-3.877471	-0.935257	-0.297282
H50	H	-3.687064	-0.777782	-0.440052
H51	H	-3.610467	-0.754533	-0.292086
H52	H	-3.873014	-0.160280	-0.796223
