data_functionalizedCrystal
_audit_creation_method	'MofGen! by Chris Wilmer'
_symmetry_space_group_name_H-M	'P1'
_symmetry_Int_Tables_number	1
_symmetry_cell_setting	triclinic
loop_
_symmetry_equiv_pos_as_xyz
  x,y,z
_cell_length_a	11.026607
_cell_length_b	16.992695
_cell_length_c	15.455313
_cell_angle_alpha	92.847427
_cell_angle_beta	93.267297
_cell_angle_gamma	80.372880
loop_
_atom_site_label
_atom_site_type_symbol
_atom_site_fract_x
_atom_site_fract_y
_atom_site_fract_z
O1	O	1.647504	-0.330182	0.072140
O2	O	1.290521	-0.292275	0.072140
O3	O	1.467581	-0.196884	0.072133
O4	O	1.470444	-0.425573	0.072147
O5	O	1.457453	-0.202311	-0.072129
O6	O	1.280393	-0.297701	-0.072122
O7	O	1.637376	-0.335608	-0.072122
Cu8	Cu	1.457960	-0.317150	-0.085294
Cu9	Cu	1.469937	-0.310733	0.085312
O10	O	1.460316	-0.430999	-0.072115
C11	C	1.239568	-0.287995	0.000009
C12	C	1.102833	-0.267148	0.000009
C13	C	1.458835	-0.169865	0.000002
C14	C	1.447849	-0.081270	0.000002
N15	N	1.449545	-0.321665	-0.205289
C16	C	1.034609	-0.324710	0.000013
C17	C	0.893286	-0.303165	0.000013
C18	C	1.688329	-0.339888	0.000011
C19	C	1.825065	-0.360735	0.000017
C20	C	1.469062	-0.458018	0.000018
C21	C	1.480048	-0.546613	0.000023
C22	C	1.553847	-0.045991	0.000002
C23	C	1.543518	0.037254	0.000010
C24	C	1.427190	0.085218	0.000013
C25	C	1.321185	0.049934	0.000016
C26	C	1.331515	-0.033310	0.000014
C27	C	1.384374	0.334860	0.000025
C28	C	1.374051	0.418108	0.000024
C29	C	1.596385	0.405422	0.000019
C30	C	1.606705	0.322178	0.000012
C31	C	1.500700	0.286901	0.000020
N32	N	1.416629	0.170308	0.000018
N33	N	1.511263	0.201813	0.000021
C34	C	1.524795	-0.281162	-0.250686
C35	C	1.518443	-0.284585	-0.341494
C36	C	1.436846	-0.328515	-0.386903
C37	C	1.361587	-0.369019	-0.341499
C38	C	1.367933	-0.365591	-0.250693
C39	C	1.409449	-0.343290	-0.658483
C40	C	1.403111	-0.346717	-0.749296
C41	C	1.559967	-0.262281	-0.749284
C42	C	1.566311	-0.258861	-0.658476
C43	C	1.491048	-0.299361	-0.613081
N44	N	1.430354	-0.332017	-0.479723
N45	N	1.497534	-0.295854	-0.520262
N46	N	1.478362	-0.306214	0.205307
H47	H	1.080827	-0.389941	0.000012
H48	H	1.621241	-0.229307	-0.786253
H49	H	0.871275	-0.425971	0.000015
H50	H	1.632754	-0.223090	-0.621506
H51	H	1.295142	-0.404784	-0.378477
O52	O	1.315083	-0.394089	-0.798278
H53	H	1.263801	-0.421667	-0.751457
H54	H	1.348169	-0.376268	-0.621529
O55	O	1.286778	-0.409279	-0.201722
H56	H	1.228980	-0.440410	-0.248552
H57	H	0.847075	-0.237929	0.000031
H58	H	1.056616	-0.201916	0.000027
O59	O	1.679316	-0.097724	0.000007
H60	H	1.751286	-0.059202	0.000019
H61	H	1.701431	0.283130	0.000009
O62	O	1.657841	0.075307	-0.000006
H63	H	1.740464	0.027969	-0.000024
H64	H	1.682688	0.434154	0.000014
O65	O	1.248578	0.469847	0.000037
H66	H	1.176601	0.431333	0.000052
H67	H	1.591246	-0.245394	-0.213720
O68	O	1.270045	0.296813	0.000011
H69	H	1.187422	0.344153	-0.000002
O70	O	1.195715	0.101666	0.000010
H71	H	1.189817	0.142111	0.058802
O72	O	1.217191	-0.071367	0.000006
H73	H	1.134564	-0.024032	-0.000002
O74	O	1.599629	-0.240918	-0.390461
H75	H	1.657454	-0.209810	-0.343630
