data_functionalizedCrystal
_audit_creation_method	'MofGen! by Chris Wilmer'
_symmetry_space_group_name_H-M	'P1'
_symmetry_Int_Tables_number	1
_symmetry_cell_setting	triclinic
loop_
_symmetry_equiv_pos_as_xyz
  x,y,z
_cell_length_a	14.044220
_cell_length_b	15.995350
_cell_length_c	13.101039
_cell_angle_alpha	93.364563
_cell_angle_beta	86.340132
_cell_angle_gamma	88.340626
loop_
_atom_site_label
_atom_site_type_symbol
_atom_site_fract_x
_atom_site_fract_y
_atom_site_fract_z
O1	O	1.262914	0.197637	-0.085096
O2	O	1.596247	0.530971	0.248237
O3	O	1.929581	0.864304	0.581571
O4	O	0.986946	0.190352	-0.085122
O5	O	1.320280	0.523685	0.248211
O6	O	1.653613	0.857018	0.581544
O7	O	1.132474	0.072670	-0.085107
O8	O	1.465807	0.406004	0.248226
O9	O	1.799140	0.739337	0.581559
O10	O	1.117386	0.315319	-0.085111
O11	O	1.450720	0.648652	0.248223
O12	O	1.784053	0.981985	0.581556
O13	O	1.122032	0.081129	0.085321
O14	O	1.455366	0.414462	0.418655
O15	O	1.788699	0.747796	0.751988
O16	O	0.976505	0.198810	0.085307
O17	O	1.309838	0.532144	0.418640
O18	O	1.643172	0.865477	0.751973
O19	O	1.252472	0.206096	0.085333
O20	O	1.585806	0.539429	0.418666
O21	O	1.919139	0.872763	0.751999
Zn22	Zn	1.112831	0.203796	0.112379
Zn23	Zn	1.446164	0.537130	0.445712
Zn24	Zn	1.779498	0.870463	0.779046
Zn25	Zn	1.126588	0.192651	-0.112168
Zn26	Zn	1.459921	0.525985	0.221165
Zn27	Zn	1.793255	0.859318	0.554498
O28	O	1.106945	0.323777	0.085318
O29	O	1.440278	0.657111	0.418651
O30	O	1.773612	0.990444	0.751985
C31	C	0.946411	0.191392	0.000089
C32	C	1.279745	0.524726	0.333422
C33	C	1.613078	0.858059	0.666755
C34	C	0.841186	0.181881	0.000079
C35	C	1.174520	0.515214	0.333412
C36	C	1.507853	0.848547	0.666745
C37	C	1.126629	0.045658	0.000105
C38	C	1.459963	0.378992	0.333438
C39	C	1.793296	0.712325	0.666772
C40	C	1.124760	-0.047432	0.000099
C41	C	1.458093	0.285901	0.333432
C42	C	1.791427	0.619235	0.666766
C43	C	0.648524	0.164494	0.000099
C44	C	0.981857	0.497827	0.333432
C45	C	1.315190	0.831160	0.666766
C46	C	0.590890	0.231950	0.000102
C47	C	0.924224	0.565283	0.333436
C48	C	1.257557	0.898616	0.666769
C49	C	0.483686	0.222275	0.000114
C50	C	0.817019	0.555609	0.333447
C51	C	1.150353	0.888942	0.666781
C52	C	0.755738	0.174167	0.000088
C53	C	1.089071	0.507500	0.333421
C54	C	1.422404	0.840833	0.666754
C55	C	1.118044	-0.385681	0.000102
C56	C	1.451377	-0.052348	0.333435
C57	C	1.784711	0.280986	0.666768
C58	C	1.014425	-0.346007	-0.000290
C59	C	1.347759	-0.012674	0.333043
C60	C	1.681092	0.320659	0.666376
C61	C	1.016272	-0.249158	0.000094
C62	C	1.349606	0.084175	0.333427
C63	C	1.682939	0.417508	0.666761
C64	C	1.121375	-0.217872	0.000100
C65	C	1.454709	0.115462	0.333433
C66	C	1.788042	0.448795	0.666766
C67	C	1.166533	-0.250301	0.097426
C68	C	1.499866	0.083033	0.430759
C69	C	1.833199	0.416366	0.764093
C70	C	1.163924	-0.347127	0.097507
C71	C	1.497258	-0.013794	0.430841
C72	C	1.830591	0.319540	0.764174
C73	C	1.177939	-0.356944	-0.096302
C74	C	1.511272	-0.023611	0.237031
C75	C	1.844606	0.309722	0.570365
C76	C	1.177993	-0.260065	-0.097588
C77	C	1.511327	0.073269	0.235745
C78	C	1.844660	0.406602	0.569079
C79	C	1.123263	-0.123033	0.000102
C80	C	1.456597	0.210300	0.333435
C81	C	1.789930	0.543633	0.666769
C82	C	1.116159	-0.480519	0.000106
C83	C	1.449492	-0.147186	0.333440
C84	C	1.782825	0.186147	0.666773
C85	C	1.293008	0.205055	0.000120
C86	C	1.626341	0.538389	0.333453
C87	C	1.959674	0.871722	0.666786
C88	C	1.398233	0.214566	0.000123
C89	C	1.731566	0.547900	0.333456
C90	C	2.064900	0.881233	0.666790
C91	C	1.112789	0.350789	0.000103
C92	C	1.446123	0.684123	0.333437
C93	C	1.779456	1.017456	0.666770
C94	C	1.114659	0.443879	0.000103
C95	C	1.447993	0.777213	0.333436
C96	C	1.781326	1.110546	0.666769
N97	N	1.103449	0.211402	0.265626
N98	N	1.436782	0.544736	0.598960
N99	N	1.770116	0.878069	0.932293
N100	N	1.135977	0.185039	-0.265416
N101	N	1.469311	0.518373	0.067917
N102	N	1.802644	0.851706	0.401251
C103	C	1.090685	0.221758	0.474668
C104	C	1.424018	0.555091	0.808001
C105	C	1.757351	0.888425	1.141334
C106	C	1.148739	0.174686	0.525549
C107	C	1.482072	0.508019	0.858883
C108	C	1.815405	0.841353	1.192216
C109	C	1.141636	0.180448	0.641867
C110	C	1.474970	0.513781	0.975200
C111	C	1.808303	0.847115	1.308534
C112	C	1.097786	0.215997	0.358340
C113	C	1.431119	0.549330	0.691673
C114	C	1.764452	0.882664	1.025006
H115	H	0.622062	0.296967	0.000097
H116	H	0.955395	0.630300	0.333430
H117	H	1.288728	0.963633	0.666763
H118	H	1.035653	0.266383	0.518459
H119	H	1.368986	0.599716	0.851793
H120	H	1.702320	0.933050	1.185126
H121	H	1.243527	-0.230228	0.101050
H122	H	1.576861	0.103105	0.434383
H123	H	1.910194	0.436439	0.767716
H124	H	0.617354	0.099482	0.000106
H125	H	0.950687	0.432815	0.333439
H126	H	1.284021	0.766149	0.666772
H127	H	0.980363	-0.227200	-0.069674
H128	H	1.313696	0.106133	0.263660
H129	H	1.647029	0.439466	0.596993
H130	H	1.203775	0.130059	0.481753
H131	H	1.537108	0.463393	0.815086
H132	H	1.870442	0.796726	1.148419
H133	H	0.968933	-0.365237	0.069108
H134	H	1.302266	-0.031904	0.402441
H135	H	1.635599	0.301429	0.735775
O136	O	0.970220	-0.376054	-0.083579
O137	O	1.303553	-0.042720	0.249755
O138	O	1.636887	0.290613	0.583088
C139	C	1.032356	-0.433380	-0.142797
C140	C	1.365689	-0.100046	0.190537
C141	C	1.699022	0.233287	0.523870
H142	H	1.087861	-0.459607	-0.092364
H143	H	1.421194	-0.126274	0.240969
H144	H	1.754528	0.207059	0.574303
H145	H	0.989651	-0.486828	-0.176039
H146	H	1.322984	-0.153495	0.157294
H147	H	1.656318	0.179839	0.490628
H148	H	1.069798	-0.400061	-0.207871
H149	H	1.403131	-0.066728	0.125463
H150	H	1.736464	0.266606	0.458796
H151	H	0.971537	-0.220847	0.069973
H152	H	1.304870	0.112486	0.403306
H153	H	1.638204	0.445820	0.736640
O154	O	1.114036	-0.368081	0.184185
O155	O	1.447369	-0.034748	0.517518
O156	O	1.780703	0.298586	0.850851
C157	C	1.034428	-0.414414	0.157604
C158	C	1.367761	-0.081081	0.490938
C159	C	1.701095	0.252252	0.824271
H160	H	1.048306	-0.444647	0.076840
H161	H	1.381639	-0.111314	0.410173
H162	H	1.714973	0.222020	0.743507
H163	H	1.022086	-0.465252	0.214005
H164	H	1.355419	-0.131919	0.547338
H165	H	1.688752	0.201414	0.880671
H166	H	0.968520	-0.370812	0.160475
H167	H	1.301854	-0.037479	0.493809
H168	H	1.635187	0.295855	0.827142
O169	O	1.254429	-0.378474	0.102662
O170	O	1.587762	-0.045141	0.435995
O171	O	1.921095	0.288192	0.769329
C172	C	1.311613	-0.355292	0.017177
C173	C	1.644947	-0.021959	0.350510
C174	C	1.978280	0.311375	0.683844
H175	H	1.278576	-0.297053	-0.014449
H176	H	1.611910	0.036280	0.318884
H177	H	1.945243	0.369614	0.652217
H178	H	1.386318	-0.341271	0.041407
H179	H	1.719651	-0.007938	0.374741
H180	H	2.052985	0.325396	0.708074
H181	H	1.316188	-0.408804	-0.044550
H182	H	1.649522	-0.075471	0.288783
H183	H	1.982855	0.257862	0.622116
O184	O	1.118747	-0.215418	0.183801
O185	O	1.452080	0.117915	0.517134
O186	O	1.785414	0.451248	0.850467
C187	C	1.022213	-0.237427	0.184907
C188	C	1.355546	0.095907	0.518240
C189	C	1.688879	0.429240	0.851573
H190	H	1.015617	-0.297261	0.134491
H191	H	1.348950	0.036073	0.467824
H192	H	1.682284	0.369406	0.801157
H193	H	0.994917	-0.248213	0.266755
H194	H	1.328250	0.085121	0.600088
H195	H	1.661583	0.418454	0.933422
H196	H	0.978045	-0.184604	0.154371
H197	H	1.311378	0.148729	0.487704
H198	H	1.644711	0.482062	0.821037
O199	O	1.143055	-0.388791	-0.184407
O200	O	1.476389	-0.055458	0.148927
O201	O	1.809722	0.277875	0.482260
C202	C	1.198265	-0.361841	-0.269243
C203	C	1.531598	-0.028508	0.064090
C204	C	1.864932	0.304825	0.397423
H205	H	1.272008	-0.344687	-0.244733
H206	H	1.605341	-0.011353	0.088600
H207	H	1.938674	0.321980	0.421933
H208	H	1.205809	-0.414403	-0.332148
H209	H	1.539142	-0.081070	0.001185
H210	H	1.872475	0.252264	0.334519
H211	H	1.161624	-0.304643	-0.299451
H212	H	1.494957	0.028690	0.033883
H213	H	1.828290	0.362023	0.367216
O214	O	1.138641	-0.234976	-0.183387
O215	O	1.471975	0.098358	0.149946
O216	O	1.805308	0.431691	0.483280
C217	C	1.060222	-0.179551	-0.155265
C218	C	1.393556	0.153782	0.178068
C219	C	1.726889	0.487115	0.511401
H220	H	1.068281	-0.149785	-0.075195
H221	H	1.401615	0.183549	0.258138
H222	H	1.734948	0.516882	0.591471
H223	H	1.057599	-0.128462	-0.212236
H224	H	1.390932	0.204872	0.121097
H225	H	1.724265	0.538205	0.454430
H226	H	0.991377	-0.215589	-0.155625
H227	H	1.324710	0.117745	0.177708
H228	H	1.658043	0.451078	0.511041
O229	O	1.269845	-0.235205	-0.104420
O230	O	1.603178	0.098128	0.228913
O231	O	1.936511	0.431461	0.562247
C232	C	1.284984	-0.178813	-0.020653
C233	C	1.618317	0.154521	0.312681
C234	C	1.951651	0.487854	0.646014
H235	H	1.230187	-0.189020	0.045074
H236	H	1.563520	0.144313	0.378408
H237	H	1.896854	0.477646	0.711741
H238	H	1.359922	-0.190049	0.005498
H239	H	1.693255	0.143285	0.338831
H240	H	2.026588	0.476618	0.672164
H241	H	1.277086	-0.111770	-0.044792
H242	H	1.610420	0.221563	0.288541
H243	H	1.943753	0.554897	0.621875
O244	O	1.269094	-0.388206	-0.097140
O245	O	1.602427	-0.054873	0.236193
O246	O	1.935761	0.278461	0.569527
C247	C	1.268605	-0.476464	-0.100826
C248	C	1.601939	-0.143131	0.232508
C249	C	1.935272	0.190203	0.565841
H250	H	1.200162	-0.498730	-0.134388
H251	H	1.533495	-0.165397	0.198946
H252	H	1.866828	0.167937	0.532279
H253	H	1.332883	-0.503269	-0.151002
H254	H	1.666216	-0.169936	0.182331
H255	H	1.999549	0.163398	0.515664
H256	H	1.272378	-0.498761	-0.020069
H257	H	1.605711	-0.165428	0.313264
H258	H	1.939045	0.167906	0.646597
