data_functionalizedCrystal
_audit_creation_method	'MofGen! by Chris Wilmer'
_symmetry_space_group_name_H-M	'P1'
_symmetry_Int_Tables_number	1
_symmetry_cell_setting	triclinic
loop_
_symmetry_equiv_pos_as_xyz
  x,y,z
_cell_length_a	6.817900
_cell_length_b	12.200863
_cell_length_c	14.125465
_cell_angle_alpha	94.991681
_cell_angle_beta	100.398878
_cell_angle_gamma	107.143441
loop_
_atom_site_label
_atom_site_type_symbol
_atom_site_fract_x
_atom_site_fract_y
_atom_site_fract_z
V1	V	-4.009714	-0.157727	-0.300074
V2	V	-3.509714	0.342273	0.199926
O3	O	-3.978506	0.008593	-0.294261
O4	O	-3.478506	0.508593	0.205739
O5	O	-3.979665	-0.313721	-0.298118
O6	O	-3.479665	0.186279	0.201882
O7	O	-3.945521	-0.154856	-0.430902
O8	O	-3.445521	0.345144	0.069098
O9	O	-4.012886	-0.151372	-0.160558
O10	O	-3.512886	0.348628	0.339442
V11	V	-4.493010	-0.137885	-0.283375
V12	V	-3.993010	0.362115	0.216625
O13	O	-4.271469	-0.201250	-0.336704
O14	O	-3.771469	0.298750	0.163296
O15	O	-4.681452	-0.094362	-0.246744
O16	O	-4.181452	0.405638	0.253256
O17	O	-4.299853	0.018109	-0.285330
O18	O	-3.799853	0.518109	0.214670
O19	O	-4.641615	-0.304206	-0.289187
O20	O	-4.141615	0.195794	0.210813
O21	O	-4.607235	-0.144241	-0.422890
O22	O	-4.107235	0.355759	0.077110
O23	O	-4.333996	-0.140757	-0.152546
O24	O	-3.833996	0.359243	0.347454
C25	C	-3.829641	-0.351763	-0.293409
C26	C	-3.329641	0.148237	0.206591
C27	C	-3.886254	-0.479287	-0.292682
C28	C	-3.386254	0.020713	0.207318
C29	C	-3.989866	-0.712768	-0.291359
C30	C	-3.489866	-0.212768	0.208641
C31	C	-3.932201	-0.582843	-0.292096
C32	C	-3.432201	-0.082843	0.207904
C33	C	-3.786086	-0.149113	-0.462787
C34	C	-3.286086	0.350887	0.037213
C35	C	-3.815006	-0.147798	-0.569740
C36	C	-3.315006	0.352202	-0.069740
C37	C	-3.868015	-0.145386	-0.765562
C38	C	-3.368015	0.354614	-0.265562
C39	C	-4.054077	-0.150224	-0.817886
C40	C	-3.554077	0.349776	-0.317886
C41	C	-4.083574	-0.148882	-0.926848
C42	C	-3.583574	0.351118	-0.426848
C43	C	-3.838511	-0.146728	-0.656590
C44	C	-3.338511	0.353272	-0.156590
C45	C	-4.113220	0.056144	-0.290036
C46	C	-3.613220	0.556144	0.209964
C47	C	-4.035844	0.183668	-0.290769
C48	C	-3.535844	0.683668	0.209231
C49	C	-4.156774	-0.146503	-0.120656
C50	C	-3.656774	0.353497	0.379344
C51	C	-4.107092	-0.147812	-0.013702
C52	C	-3.607092	0.352188	0.486298
H53	H	-4.191223	-0.155386	-0.780851
H54	H	-3.691223	0.344614	-0.280851
H55	H	-3.730887	-0.140237	-0.802597
H56	H	-3.230887	0.359763	-0.302597
