data_functionalizedCrystal
_audit_creation_method	'MofGen! by Chris Wilmer'
_symmetry_space_group_name_H-M	'P1'
_symmetry_Int_Tables_number	1
_symmetry_cell_setting	triclinic
loop_
_symmetry_equiv_pos_as_xyz
  x,y,z
_cell_length_a	14.908993
_cell_length_b	14.908178
_cell_length_c	14.908858
_cell_angle_alpha	83.193056
_cell_angle_beta	96.752355
_cell_angle_gamma	96.795214
loop_
_atom_site_label
_atom_site_type_symbol
_atom_site_fract_x
_atom_site_fract_y
_atom_site_fract_z
Zn1	Zn	1.340214	-0.257634	-0.417985
Zn2	Zn	1.340116	-0.417769	-0.257884
Zn3	Zn	1.196676	-0.274245	-0.274453
Zn4	Zn	1.180097	-0.417715	-0.417920
O5	O	1.264276	-0.341841	-0.342060
O6	O	1.467241	-0.271947	-0.389840
O7	O	1.327986	-0.405705	-0.133037
O8	O	1.222696	-0.144982	-0.300454
O9	O	1.467169	-0.389597	-0.272214
O10	O	1.328152	-0.132778	-0.405906
O11	O	1.222601	-0.300259	-0.145211
O12	O	1.067437	-0.300206	-0.300392
O13	O	1.194440	-0.389506	-0.544974
O14	O	1.055256	-0.405613	-0.405797
O15	O	1.312077	-0.271894	-0.545021
O16	O	1.311910	-0.544822	-0.272151
O17	O	1.194345	-0.544782	-0.389730
C18	C	1.028407	-0.354707	-0.354886
C19	C	0.927498	-0.360232	-0.360393
C20	C	0.750513	-0.260670	-0.261155
C21	C	0.655701	-0.265859	-0.266326
C22	C	0.643061	-0.375801	-0.375902
C23	C	0.737873	-0.370613	-0.370731
C24	C	0.791596	-0.313045	-0.313356
C25	C	0.886409	-0.307852	-0.308190
C26	C	0.873767	-0.417799	-0.417760
C27	C	0.778955	-0.422987	-0.422932
C28	C	1.251341	-0.577745	-0.329154
C29	C	1.245890	-0.678659	-0.323658
C30	C	1.345362	-0.855428	-0.423268
C31	C	1.340243	-0.950245	-0.418108
C32	C	1.230526	-0.963114	-0.308182
C33	C	1.235646	-0.868296	-0.313342
C34	C	1.293067	-0.814456	-0.370887
C35	C	1.298191	-0.719637	-0.376042
C36	C	1.188470	-0.732507	-0.266121
C37	C	1.183351	-0.827325	-0.260961
C38	C	1.501066	-0.328925	-0.329186
C39	C	1.601972	-0.323421	-0.323699
C40	C	1.251420	-0.328841	-0.578859
C41	C	1.245941	-0.323301	-0.679769
C42	C	1.277284	-0.105014	-0.355036
C43	C	1.282828	-0.004092	-0.360565
C44	C	1.183358	-0.260595	-0.828334
C45	C	1.188502	-0.265798	-0.733520
C46	C	1.298242	-0.375602	-0.720837
C47	C	1.293098	-0.370398	-0.815651
C48	C	1.235653	-0.312894	-0.869396
C49	C	1.230505	-0.307695	-0.964211
C50	C	1.340250	-0.417494	-0.951526
C51	C	1.345394	-0.422697	-0.856713
C52	C	1.277138	-0.354722	-0.106183
C53	C	1.282806	-0.359996	-0.005279
H54	H	0.907226	-0.460441	-0.460271
O55	O	1.391034	-0.468198	-0.991560
C56	C	1.431724	-0.508869	-1.132003
C57	C	1.374176	-0.451388	-1.086783
H58	H	1.418101	-0.495313	-1.208997
H59	H	1.506827	-0.489935	-1.110315
H60	H	1.412798	-0.583972	-1.110164
H61	H	1.393023	-0.376270	-1.108599
H62	H	1.299088	-0.470398	-1.108470
O63	O	0.591000	-0.431782	-0.431660
C64	C	0.588456	-0.540210	-0.539873
C65	C	0.647521	-0.476874	-0.476740
H66	H	0.634129	-0.576669	-0.576352
H67	H	0.543743	-0.592408	-0.497997
H68	H	0.543759	-0.498383	-0.592060
H69	H	0.692272	-0.518626	-0.424542
H70	H	0.692175	-0.424673	-0.518676
O71	O	1.127432	-0.204800	-0.880452
C72	C	0.973844	-0.167605	-0.920325
C73	C	1.037080	-0.230844	-0.861234
H74	H	0.900778	-0.188650	-0.904823
H75	H	0.994738	-0.094532	-0.904818
H76	H	0.979200	-0.172852	-0.995138
H77	H	1.031755	-0.225676	-0.786404
H78	H	1.016166	-0.303889	-0.876819
O79	O	0.802571	-0.204737	-0.205348
C80	C	0.805106	-0.096197	-0.097249
C81	C	0.746045	-0.159517	-0.160400
H82	H	0.759430	-0.059605	-0.060907
H83	H	0.849765	-0.137957	-0.044957
H84	H	0.849856	-0.044100	-0.139187
H85	H	0.701241	-0.211625	-0.118537
H86	H	0.701446	-0.117697	-0.212695
O87	O	1.174690	-0.251761	-1.016287
C88	C	1.066350	-0.143436	-1.018854
C89	C	1.129537	-0.206732	-0.959775
H90	H	1.029813	-0.107027	-0.973189
H91	H	1.108191	-0.091193	-1.063559
H92	H	1.014217	-0.185285	-1.063563
H93	H	1.181682	-0.164959	-0.915012
H94	H	1.087636	-0.258977	-0.915130
O95	O	1.127500	-0.879494	-0.205048
C96	C	1.019265	-0.882250	-0.096513
C97	C	1.082461	-0.823063	-0.159816
H98	H	0.982848	-0.836650	-0.059913
H99	H	0.967040	-0.926954	-0.138278
H100	H	1.061179	-0.926972	-0.044435
H101	H	1.040622	-0.778287	-0.211906
H102	H	1.134689	-0.778419	-0.117992
O103	O	1.391090	-0.990148	-0.468857
C104	C	1.507248	-1.089666	-0.468699
C105	C	1.449707	-1.044555	-0.411113
H106	H	1.554667	-1.133649	-0.422037
H107	H	1.460601	-1.133808	-0.515966
H108	H	1.549121	-1.034876	-0.510735
H109	H	1.407828	-1.099283	-0.369023
H110	H	1.496403	-1.000393	-0.363905
H111	H	1.344948	-0.675801	-0.422895
O112	O	0.726857	-0.478840	-0.478791
C113	C	0.687024	-0.516192	-0.632325
C114	C	0.746094	-0.452893	-0.569157
H115	H	0.702542	-0.495225	-0.705401
H116	H	0.702534	-0.589257	-0.611332
H117	H	0.612210	-0.510917	-0.627005
H118	H	0.820926	-0.458088	-0.574446
H119	H	0.730507	-0.379855	-0.590168
H120	H	1.392123	-0.811590	-0.470116
H121	H	1.183773	-1.006967	-0.261336
H122	H	0.622256	-0.223209	-0.223820
O123	O	1.137697	-0.692561	-0.215327
C124	C	1.097005	-0.552193	-0.174510
C125	C	1.154533	-0.597314	-0.232101
H126	H	1.110611	-0.475180	-0.188037
H127	H	1.021899	-0.573952	-0.193357
H128	H	1.115965	-0.574055	-0.099441
H129	H	1.135653	-0.575475	-0.307185
H130	H	1.229625	-0.575556	-0.213177
H131	H	1.145919	-0.223209	-0.700092
H132	H	1.345018	-0.422413	-0.677062
O133	O	1.401262	-0.478578	-0.804636
C134	C	1.509505	-0.587001	-0.802064
C135	C	1.446293	-0.523731	-0.861146
H136	H	1.545915	-0.623538	-0.847728
H137	H	1.561735	-0.545210	-0.757393
H138	H	1.467605	-0.639145	-0.757323
H139	H	1.488118	-0.471575	-0.905941
H140	H	1.394060	-0.565581	-0.905757
O141	O	0.938732	-0.251952	-0.252533
C142	C	1.090396	-0.195276	-0.195956
C143	C	1.031252	-0.258602	-0.259044
H144	H	1.165209	-0.200645	-0.201184
H145	H	1.074960	-0.122201	-0.217029
H146	H	1.074793	-0.216150	-0.122891
H147	H	1.046821	-0.237810	-0.332127
H148	H	1.046697	-0.331662	-0.237893
