data_functionalizedCrystal
_audit_creation_method	'MofGen! by Chris Wilmer'
_symmetry_space_group_name_H-M	'P1'
_symmetry_Int_Tables_number	1
_symmetry_cell_setting	triclinic
loop_
_symmetry_equiv_pos_as_xyz
  x,y,z
_cell_length_a	25.639242
_cell_length_b	25.639239
_cell_length_c	19.120904
_cell_angle_alpha	87.589896
_cell_angle_beta	87.577846
_cell_angle_gamma	90.030990
loop_
_atom_site_label
_atom_site_type_symbol
_atom_site_fract_x
_atom_site_fract_y
_atom_site_fract_z
Zn1	Zn	0.786628	-0.220879	0.397121
Zn2	Zn	0.790277	-0.304584	0.279670
Zn3	Zn	0.702929	-0.217153	0.279686
Zn4	Zn	0.699151	-0.308272	0.397076
O5	O	0.744746	-0.262722	0.338388
O6	O	0.860277	-0.231999	0.381554
O7	O	0.781799	-0.289883	0.181390
O8	O	0.714086	-0.144483	0.295289
O9	O	0.862958	-0.293496	0.295263
O10	O	0.775579	-0.147221	0.381569
O11	O	0.717625	-0.225648	0.181401
O12	O	0.629263	-0.229225	0.295245
O13	O	0.707646	-0.299782	0.495364
O14	O	0.626487	-0.296169	0.381491
O15	O	0.771915	-0.235575	0.495398
O16	O	0.778135	-0.378238	0.295219
O17	O	0.711185	-0.380948	0.381476
C18	C	0.608904	-0.262693	0.338366
C19	C	0.550790	-0.262694	0.338372
C20	C	0.298206	-0.230763	0.383402
C21	C	0.352810	-0.230757	0.383398
O22	O	0.379864	-0.203585	0.421679
N23	N	0.381516	-0.262717	0.338396
C24	C	0.355614	-0.294687	0.293401
O25	O	0.385044	-0.321871	0.255123
C26	C	0.301010	-0.294695	0.293409
C27	C	0.272307	-0.262729	0.338408
C28	C	0.269503	-0.198800	0.428399
C29	C	0.214902	-0.198805	0.428401
C30	C	0.189004	-0.230772	0.383408
C31	C	0.217707	-0.262734	0.338411
C32	C	0.275109	-0.326668	0.248417
C33	C	0.220502	-0.326673	0.248429
C34	C	0.191799	-0.294708	0.293429
C35	C	0.137208	-0.294706	0.293421
N36	N	0.108503	-0.262747	0.338422
C37	C	0.134401	-0.230780	0.383416
C38	C	0.470285	-0.294669	0.293388
C39	C	0.524887	-0.294659	0.293376
C40	C	0.522080	-0.230730	0.383374
C41	C	0.467476	-0.230738	0.383382
C42	C	0.441579	-0.262710	0.338390
C43	C	0.019736	-0.230792	0.383418
C44	C	-0.034870	-0.230797	0.383415
C45	C	-0.032058	-0.294728	0.293419
C46	C	0.022543	-0.294721	0.293420
C47	C	0.048438	-0.262751	0.338425
O48	O	0.110119	-0.321866	0.255161
O49	O	0.104964	-0.203606	0.421693
C50	C	0.744659	-0.398564	0.338356
C51	C	0.744669	-0.456678	0.338366
C52	C	0.779692	-0.815621	0.293550
C53	C	0.779712	-0.870225	0.293560
O54	O	0.809399	-0.897253	0.255421
N55	N	0.744837	-0.898963	0.338435
C56	C	0.709943	-0.873093	0.383308
O57	O	0.680281	-0.902550	0.421479
C58	C	0.709926	-0.818490	0.383302
C59	C	0.744800	-0.789755	0.338419
C60	C	0.814563	-0.786886	0.248672
C61	C	0.814543	-0.732285	0.248661
C62	C	0.779650	-0.706419	0.293530
C63	C	0.744779	-0.735154	0.338409
C64	C	0.675035	-0.792621	0.428179
C65	C	0.675021	-0.738013	0.428169
C66	C	0.709895	-0.709279	0.383286
C67	C	0.709866	-0.654687	0.383267
N68	N	0.744741	-0.625950	0.338392
C69	C	0.779633	-0.651816	0.293524
C70	C	0.709982	-0.987764	0.383319
C71	C	0.709996	-1.042366	0.383323
C72	C	0.779766	-1.039495	0.293575
C73	C	0.779749	-0.984892	0.293568
C74	C	0.744857	-0.959027	0.338444
C75	C	0.779587	-0.537150	0.293505
C76	C	0.779562	-0.482544	0.293497
C77	C	0.709794	-0.485421	0.383247
C78	C	0.709817	-0.540021	0.383253
C79	C	0.744718	-0.565885	0.338380
O80	O	0.680195	-0.627624	0.421389
O81	O	0.809295	-0.622352	0.255366
C82	C	0.881118	-0.262752	0.338411
C83	C	0.939232	-0.262764	0.338421
C84	C	0.738952	-0.268506	0.521577
C85	C	0.736483	-0.270971	0.599641
C86	C	0.744847	-0.126351	0.338436
C87	C	0.744890	-0.068237	0.338456
C88	C	0.750548	-0.256924	0.155912
C89	C	0.753118	-0.254312	0.077849
C90	C	0.768783	-0.238701	0.636334
C91	C	0.766456	-0.241014	0.709684
C92	C	0.731833	-0.275601	0.746339
C93	C	0.699529	-0.307872	0.709640
C94	C	0.701853	-0.305555	0.636292
C95	C	0.723139	-0.284266	0.967802
C96	C	0.720819	-0.286582	1.041155
C97	C	0.787745	-0.219723	1.041194
C98	C	0.790068	-0.217411	0.967844
C99	C	0.757763	-0.249680	0.931152
C100	C	0.729455	-0.277968	0.821314
C101	C	0.760139	-0.247310	0.856178
H102	H	0.543176	-0.204701	0.420011
H103	H	0.814046	-0.193450	1.071076
H104	H	0.199419	-0.352711	0.211792
H105	H	0.671336	-0.336032	0.739491
H106	H	0.681564	-0.966708	0.419860
H107	H	0.675546	-0.331828	0.606418
Cl108	Cl	0.823462	-0.569655	0.237091
H109	H	0.646608	-0.716957	0.464714
Cl110	Cl	0.677285	-0.330062	1.087235
H111	H	0.681421	-0.563419	0.419803
Cl112	Cl	-0.064626	-0.334913	0.236858
H113	H	0.681593	-1.065758	0.419864
H114	H	0.808179	-1.060565	0.257043
Cl115	Cl	0.052281	-0.190599	0.439995
H116	H	0.646634	-0.816007	0.464724
H117	H	0.808146	-0.961499	0.257021
H118	H	0.696841	-0.310550	0.937936
H119	H	0.788327	-0.219148	0.826331
Cl120	Cl	0.807087	-0.200468	0.755809
H121	H	0.807960	-0.459150	0.256946
H122	H	0.842942	-0.708893	0.212116
H123	H	0.701267	-0.306131	0.851166
H124	H	-0.058237	-0.204765	0.420059
H125	H	0.681383	-0.464352	0.419777
Cl126	Cl	0.812315	-0.195220	0.590261
H127	H	0.548253	-0.320683	0.256725
Cl128	Cl	0.302051	-0.158608	0.484971
Cl129	Cl	0.431399	-0.190553	0.439957
Cl130	Cl	0.437734	-0.334861	0.236812
Cl131	Cl	0.178827	-0.158623	0.484983
Cl132	Cl	0.058627	-0.334910	0.236853
Cl133	Cl	0.858434	-0.819393	0.192257
Cl134	Cl	0.311179	-0.366847	0.191832
Cl135	Cl	0.833598	-0.173929	0.921769
