data_functionalizedCrystal
_audit_creation_method	'MofGen! by Chris Wilmer'
_symmetry_space_group_name_H-M	'P1'
_symmetry_Int_Tables_number	1
_symmetry_cell_setting	triclinic
loop_
_symmetry_equiv_pos_as_xyz
  x,y,z
_cell_length_a	15.538191
_cell_length_b	23.532407
_cell_length_c	14.750779
_cell_angle_alpha	77.433997
_cell_angle_beta	97.572172
_cell_angle_gamma	65.060386
loop_
_atom_site_label
_atom_site_type_symbol
_atom_site_fract_x
_atom_site_fract_y
_atom_site_fract_z
O1	O	1.231045	-0.168713	-0.079813
O2	O	0.956168	-0.102826	-0.079822
O3	O	1.101900	-0.220390	-0.079800
O4	O	1.085313	-0.051149	-0.079835
O5	O	1.143097	-0.253621	0.079857
O6	O	0.997364	-0.136057	0.079835
O7	O	1.272242	-0.201944	0.079843
Zn8	Zn	1.141344	-0.174277	0.105188
Zn9	Zn	1.087066	-0.130493	-0.105166
O10	O	1.126510	-0.084380	0.079821
C11	C	0.941606	-0.112548	0.000006
C12	C	0.836839	-0.092014	0.000003
C13	C	0.550965	-0.296010	0.000031
C14	C	0.452517	-0.276701	0.000026
C15	C	0.429052	-0.168092	0.000004
C16	C	0.527501	-0.187393	0.000013
C17	C	0.588450	-0.251353	0.000026
C18	C	0.564986	-0.142735	0.000008
C19	C	0.663425	-0.162034	0.000012
C20	C	0.724379	-0.225990	0.000022
C21	C	0.686889	-0.270651	0.000030
C22	C	0.504034	-0.078774	-0.000012
C23	C	0.541519	-0.034116	-0.000017
C24	C	0.639961	-0.053416	-0.000006
C25	C	0.700915	-0.117373	0.000004
C26	C	0.677451	-0.008755	-0.000014
C27	C	0.775891	-0.028054	-0.000010
C28	C	0.799354	-0.136672	0.000008
C29	C	1.122077	-0.258136	0.000031
C30	C	1.120810	-0.321097	0.000038
C31	C	1.199074	-0.736103	-0.000012
C32	C	1.197893	-0.795262	-0.000019
O33	O	1.270448	-0.846752	-0.000052
N34	N	1.111258	-0.800275	-0.000021
C35	C	1.025796	-0.746122	-0.000026
O36	O	0.951997	-0.755818	-0.000029
C37	C	1.026976	-0.686963	-0.000025
C38	C	1.113619	-0.681957	-0.000013
C39	C	1.285710	-0.731095	-0.000001
C40	C	1.286891	-0.671940	0.000008
C41	C	1.201436	-0.617794	0.000006
C42	C	1.114800	-0.622802	-0.000004
C43	C	0.941513	-0.632810	-0.000037
C44	C	0.942701	-0.573649	-0.000037
C45	C	1.029344	-0.568643	-0.000025
C46	C	1.030526	-0.509501	0.000003
N47	N	1.117161	-0.504489	0.000005
C48	C	1.202616	-0.558635	0.000007
C49	C	1.023324	-0.870362	-0.000028
C50	C	1.022144	-0.929521	-0.000022
C51	C	1.194241	-0.978656	-0.000017
C52	C	1.195421	-0.919497	-0.000017
C53	C	1.109959	-0.865349	-0.000026
C54	C	1.205090	-0.434404	0.000027
C55	C	1.206264	-0.375243	0.000040
C56	C	1.034167	-0.326112	0.000030
C57	C	1.032993	-0.385268	0.000022
C58	C	1.118461	-0.439415	0.000017
O59	O	0.958008	-0.457984	0.000032
O60	O	1.276399	-0.548925	-0.000002
C61	C	1.286804	-0.192222	0.000014
C62	C	1.391568	-0.212754	0.000010
C63	C	1.106332	-0.046633	-0.000012
C64	C	1.107598	0.016329	-0.000025
N65	N	1.178395	-0.204160	0.248749
N66	N	1.050023	-0.100616	-0.248728
C67	C	0.946546	-0.017183	0.600532
C68	C	0.972516	-0.038120	0.701035
C69	C	1.101588	-0.142200	0.701018
C70	C	1.075626	-0.121272	0.600512
C71	C	0.998105	-0.058763	0.550278
C72	C	1.127185	-0.162853	0.550258
C73	C	1.101228	-0.141925	0.449762
C74	C	1.023713	-0.079417	0.399520
C75	C	0.972148	-0.037835	0.449781
C76	C	1.204710	-0.225360	0.600495
C77	C	1.256269	-0.266941	0.550240
C78	C	1.230308	-0.246015	0.449742
C79	C	1.152792	-0.183507	0.399500
C80	C	1.281872	-0.287597	0.399480
C81	C	1.255915	-0.266669	0.298984
C82	C	1.126836	-0.162579	0.299004
H83	H	0.804531	-0.241700	0.000013
H84	H	1.002583	-0.062378	0.317689
C85	C	1.365137	-0.603083	0.000009
C86	C	1.382128	-0.666439	0.000006
H87	H	1.423938	-0.599692	0.000010
H88	H	1.315615	-0.571702	-0.055661
H89	H	1.344352	-0.594890	0.055691
H90	H	1.402906	-0.674630	-0.055680
H91	H	1.431667	-0.697829	0.055682
H92	H	0.379414	-0.116014	-0.000011
H93	H	1.355300	-0.775177	-0.000003
H94	H	0.953727	-0.826275	-0.000028
H95	H	0.806413	0.008309	-0.000005
H96	H	1.276823	-0.371174	0.000052
C97	C	0.868077	-0.461141	-0.000041
C98	C	0.848755	-0.514128	-0.000046
H99	H	0.810078	-0.424397	-0.000051
H100	H	0.917980	-0.473134	0.055636
H101	H	0.889263	-0.449952	-0.055716
H102	H	0.827577	-0.525321	0.055632
H103	H	0.798836	-0.502134	-0.055730
H104	H	0.736519	-0.322735	0.000046
C105	C	0.512391	0.047320	0.082039
C106	C	0.474523	0.036187	-0.000030
H107	H	0.471035	0.090725	0.082027
H108	H	0.515432	0.016584	0.137706
H109	H	0.576385	0.042213	0.082033
H110	H	0.410532	0.041290	-0.000021
H111	H	0.471471	0.066933	-0.055711
C112	C	0.348231	-0.063616	-0.082082
C113	C	0.395826	-0.057558	-0.000018
H114	H	0.281431	-0.050521	-0.082082
H115	H	0.351804	-0.036339	-0.137752
H116	H	0.379174	-0.108102	-0.082058
H117	H	0.364888	-0.013070	-0.000046
H118	H	0.392247	-0.084835	0.055666
C119	C	0.907788	0.078836	0.418821
C120	C	0.886934	0.030876	0.394548
H121	H	0.855185	0.121253	0.384715
H122	H	0.915854	0.072327	0.485855
H123	H	0.966464	0.075461	0.402336
H124	H	0.828262	0.034249	0.411039
H125	H	0.878856	0.037388	0.327499
H126	H	0.848985	-0.188755	0.000024
H127	H	0.627810	0.043323	-0.000034
H128	H	1.225844	-0.242396	0.682325
H129	H	1.274686	-0.478484	0.000019
C130	C	1.275415	-0.864391	-0.082087
C131	C	1.290656	-0.913993	-0.000013
H132	H	1.334210	-0.860993	-0.082082
H133	H	1.257015	-0.874860	-0.137751
H134	H	1.224691	-0.823676	-0.082080
H135	H	1.341375	-0.954708	-0.000024
H136	H	1.309069	-0.903527	0.055665
H137	H	1.164709	-0.193095	0.741930
C138	C	0.942140	-0.984624	0.082045
C139	C	0.926906	-0.935021	-0.000024
H140	H	0.883338	-0.988012	0.082041
H141	H	0.992850	-1.025335	0.082037
H142	H	0.960547	-0.974157	0.137718
H143	H	0.908506	-0.945490	-0.055697
H144	H	0.876179	-0.894301	-0.000024
H145	H	0.600595	-0.348094	0.000047
H146	H	0.883414	0.033716	0.559629
H147	H	1.263822	-1.022753	-0.000020
C148	C	0.771522	-0.578270	-0.000070
C149	C	0.846268	-0.638299	-0.000058
H150	H	0.712717	-0.581657	-0.000091
H151	H	0.789927	-0.567816	0.055607
H152	H	0.761219	-0.544629	-0.055745
H153	H	0.856576	-0.671941	0.055621
H154	H	0.827860	-0.648762	-0.055741
H155	H	0.962448	-0.389349	0.000039
H156	H	0.930524	-0.004255	0.741948
C157	C	0.914500	-0.213986	-0.082053
C158	C	0.940236	-0.266586	0.000022
H159	H	0.856506	-0.177237	-0.082065
H160	H	0.966269	-0.202546	-0.082036
H161	H	0.903254	-0.226502	-0.137722
H162	H	0.951489	-0.254071	0.055691
H163	H	0.888454	-0.278027	0.000014
H164	H	1.063704	-0.111680	0.258101
C165	C	1.353371	-0.345241	0.704286
C166	C	1.341474	-0.335651	0.605464
H167	H	1.405968	-0.387663	0.738375
H168	H	1.367521	-0.312708	0.720743
H169	H	1.294693	-0.341867	0.720761
H170	H	1.400150	-0.339021	0.588987
H171	H	1.327330	-0.368194	0.589001
C172	C	1.346213	-0.404262	0.430433
C173	C	1.367079	-0.356306	0.454708
H174	H	1.398819	-0.446680	0.464525
H175	H	1.287549	-0.400887	0.446922
H176	H	1.338137	-0.397746	0.363388
H177	H	1.375148	-0.362819	0.521753
H178	H	1.425760	-0.359683	0.438225
C179	C	0.485603	-0.386007	0.000045
C180	C	0.411314	-0.325795	0.000034
H181	H	0.460164	-0.416314	0.000053
H182	H	0.509144	-0.379685	-0.055625
H183	H	0.537877	-0.402862	0.055727
H184	H	0.359044	-0.308937	-0.055652
H185	H	0.387759	-0.332116	0.055710
H186	H	1.297902	-0.300528	0.258066
