data_functionalizedCrystal
_audit_creation_method	'MofGen! by Chris Wilmer'
_symmetry_space_group_name_H-M	'P1'
_symmetry_Int_Tables_number	1
_symmetry_cell_setting	triclinic
loop_
_symmetry_equiv_pos_as_xyz
  x,y,z
_cell_length_a	10.654558
_cell_length_b	9.730223
_cell_length_c	10.654558
_cell_angle_alpha	89.998840
_cell_angle_beta	84.488271
_cell_angle_gamma	90.001554
loop_
_atom_site_label
_atom_site_type_symbol
_atom_site_fract_x
_atom_site_fract_y
_atom_site_fract_z
O1	O	1.667831	-0.114268	0.176444
O2	O	1.302354	-0.114274	0.193239
O3	O	1.493490	-0.114265	0.002103
O4	O	1.476695	-0.114277	0.367580
O5	O	1.493492	0.114315	0.002105
O6	O	1.302356	0.114306	0.193241
O7	O	1.667833	0.114312	0.176446
Zn8	Zn	1.485095	0.150601	0.184844
Zn9	Zn	1.485092	-0.150563	0.184841
O10	O	1.476697	0.114303	0.367582
C11	C	1.255557	0.000015	0.192005
C12	C	1.116115	0.000012	0.188309
C13	C	0.919575	-0.124587	0.183112
C14	C	1.050597	-0.124588	0.186574
C15	C	1.050604	0.124622	0.186569
C16	C	0.919585	0.124622	0.183098
C17	C	0.854063	-0.249195	0.181390
C18	C	0.919565	-0.373806	0.183127
C19	C	1.050587	-0.373807	0.186589
C20	C	1.116108	-0.249198	0.188314
N21	N	1.485091	-0.356099	0.184831
C22	C	1.408421	-0.428046	0.107797
C23	C	1.408432	-0.571929	0.107800
C24	C	1.561784	-0.571906	0.261882
C25	C	1.561780	-0.428026	0.261871
C26	C	1.331732	-0.356120	0.030756
C27	C	1.255056	-0.428067	-0.046283
C28	C	1.255066	-0.571950	-0.046280
C29	C	1.331754	-0.643886	0.030763
C30	C	1.714630	0.000020	0.177680
C31	C	1.854073	0.000014	0.181376
C32	C	1.492256	0.000024	-0.044694
C33	C	1.488560	0.000019	-0.184137
N34	N	1.485106	0.356137	0.184844
C35	C	1.486822	0.124616	-0.249649
C36	C	1.483360	0.124610	-0.380672
C37	C	1.483369	-0.124600	-0.380657
C38	C	1.486840	-0.124593	-0.249638
C39	C	1.488542	0.249228	-0.184148
C40	C	1.486803	0.373835	-0.249660
C41	C	1.483341	0.373830	-0.380683
C42	C	1.481618	0.249217	-0.446193
C43	C	1.477931	0.000011	0.414379
C44	C	1.481627	0.000007	0.553821
H45	H	1.103917	-0.475271	0.187992
H46	H	1.491356	0.249247	-0.077462
H47	H	1.192626	-0.369487	-0.109014
H48	H	1.481937	0.475290	-0.434021
H49	H	1.192641	-0.630525	-0.109017
H50	H	0.866210	-0.475258	0.181715
Cl51	Cl	1.488985	0.530481	-0.167309
Cl52	Cl	1.481200	-0.281244	-0.463013
Cl53	Cl	1.658172	-0.337571	0.358709
H54	H	1.331763	-0.761045	0.030752
Cl55	Cl	1.477286	0.249215	-0.610912
H56	H	1.624218	-0.630488	0.324607
H57	H	1.488255	-0.226051	-0.196296
H58	H	1.222797	-0.249209	0.191125
Cl59	Cl	1.132973	0.281262	0.188746
Cl60	Cl	0.837235	0.281266	0.180897
Cl61	Cl	0.689348	-0.249202	0.177045
H62	H	1.331713	-0.238963	0.030747
