data_functionalizedCrystal
_audit_creation_method	'MofGen! by Chris Wilmer'
_symmetry_space_group_name_H-M	'P1'
_symmetry_Int_Tables_number	1
_symmetry_cell_setting	triclinic
loop_
_symmetry_equiv_pos_as_xyz
  x,y,z
_cell_length_a	19.188930
_cell_length_b	27.732048
_cell_length_c	17.666332
_cell_angle_alpha	89.988553
_cell_angle_beta	89.976766
_cell_angle_gamma	82.893716
loop_
_atom_site_label
_atom_site_type_symbol
_atom_site_fract_x
_atom_site_fract_y
_atom_site_fract_z
O1	O	0.925765	0.060348	-0.063200
O2	O	0.722402	0.068472	-0.063149
O3	O	0.830399	-0.005968	-0.063161
O4	O	0.817767	0.134787	-0.063187
O5	O	0.830380	-0.005971	0.062735
O6	O	0.722383	0.068468	0.062748
O7	O	0.925746	0.060344	0.062697
Cu8	Cu	0.824063	0.064406	0.074218
Cu9	Cu	0.824085	0.064410	-0.074670
O10	O	0.817748	0.134783	0.062710
C11	C	0.696383	0.068207	-0.000194
C12	C	0.618883	0.067417	-0.000174
C13	C	0.573681	0.111096	-0.000194
C14	C	0.500862	0.110354	-0.000202
C15	C	0.473249	0.065931	-0.000205
C16	C	0.518461	0.022246	-0.000181
C17	C	0.591278	0.022990	-0.000165
N18	N	0.365491	0.031976	-0.043078
N19	N	0.296317	0.031273	-0.043094
C20	C	0.253854	0.063689	-0.000251
N21	N	0.283177	0.096841	0.042600
N22	N	0.352357	0.097546	0.042613
C23	C	0.394291	0.065120	-0.000222
C24	C	0.129692	0.106566	-0.000279
C25	C	0.056872	0.105822	-0.000282
C26	C	0.074473	0.017714	-0.000269
C27	C	0.147292	0.018459	-0.000258
C28	C	0.174897	0.062886	-0.000267
C29	C	0.830125	-0.023977	-0.000211
C30	C	0.829326	-0.077635	-0.000204
C31	C	0.888119	-0.416270	-0.000258
C32	C	0.885157	-0.617939	-0.000268
O33	O	0.938918	-0.649030	-0.000314
N34	N	0.821118	-0.637258	-0.000251
C35	C	0.757816	-0.606157	-0.000237
O36	O	0.703280	-0.627217	-0.000231
C37	C	0.760780	-0.404489	-0.000233
C38	C	0.824822	-0.385173	-0.000242
C39	C	0.952156	-0.396953	-0.000268
C40	C	0.952896	-0.346539	-0.000261
C41	C	0.889599	-0.315441	-0.000245
C42	C	0.825562	-0.334759	-0.000235
C43	C	0.697478	-0.373389	-0.000224
C44	C	0.698225	-0.322969	-0.000225
C45	C	0.762267	-0.303653	-0.000234
C46	C	0.763005	-0.253247	-0.000212
N47	N	0.827043	-0.233928	-0.000229
C48	C	0.890340	-0.265025	-0.000245
C49	C	0.756265	-0.712036	-0.000238
C50	C	0.755524	-0.762452	-0.000238
C51	C	0.882865	-0.774231	-0.000270
C52	C	0.883605	-0.723813	-0.000265
C53	C	0.820303	-0.692716	-0.000254
C54	C	0.891889	-0.159151	-0.000231
C55	C	0.892623	-0.108732	-0.000221
C56	C	0.765283	-0.096958	-0.000193
C57	C	0.764549	-0.147373	-0.000198
C58	C	0.827857	-0.178468	-0.000220
O59	O	0.709272	-0.222127	-0.000174
O60	O	0.944868	-0.243956	-0.000268
C61	C	0.887379	-0.466684	-0.000265
C62	C	0.823342	-0.486001	-0.000255
C63	C	0.760045	-0.454904	-0.000238
C64	C	0.822601	-0.536418	-0.000254
C65	C	0.885898	-0.567515	-0.000271
C66	C	0.949936	-0.548195	-0.000288
C67	C	0.950676	-0.497781	-0.000281
C68	C	0.696007	-0.474223	-0.000222
C69	C	0.695272	-0.524638	-0.000227
C70	C	0.758569	-0.555735	-0.000244
C71	C	0.951765	0.060609	-0.000260
C72	C	1.029264	0.061399	-0.000285
C73	C	0.818023	0.152793	-0.000243
C74	C	0.818821	0.206450	-0.000254
N75	N	0.824052	0.064402	0.178937
N76	N	0.824101	0.064410	-0.179389
C77	C	0.871889	0.031456	0.218541
C78	C	0.871893	0.031454	0.297789
C79	C	0.824067	0.064406	0.337429
C80	C	0.776221	0.097354	0.297816
C81	C	0.776214	0.097352	0.218570
N82	N	0.814718	0.107196	0.461842
N83	N	0.814729	0.107196	0.537122
C84	C	0.824085	0.064412	0.576193
N85	N	0.833444	0.021627	0.537140
N86	N	0.833436	0.021628	0.461853
C87	C	0.824069	0.064411	0.423359
C88	C	0.871929	0.031462	0.701727
C89	C	0.871928	0.031459	0.780976
C90	C	0.776260	0.097363	0.781001
C91	C	0.776257	0.097361	0.701754
C92	C	0.824096	0.064411	0.662121
H93	H	0.464051	0.145923	-0.000216
C94	C	0.645338	0.163047	0.064508
C95	C	0.604035	0.159925	-0.000211
H96	H	0.664084	0.193190	0.064489
H97	H	0.617274	0.160937	0.108401
H98	H	0.682676	0.137133	0.064518
H99	H	0.566694	0.185838	-0.000218
H100	H	0.632101	0.162040	-0.044116
C101	C	0.913857	-0.052285	0.677262
C102	C	0.924503	-0.004743	0.658125
H103	H	0.946312	-0.074630	0.650331
H104	H	0.920727	-0.057016	0.730114
H105	H	0.867315	-0.057452	0.664305
H106	H	0.971044	0.000425	0.671086
H107	H	0.917639	-0.000011	0.605261
C108	C	0.019487	0.180688	-0.065031
C109	C	0.007182	0.153838	-0.000305
H110	H	-0.011194	0.210330	-0.065047
H111	H	0.066800	0.187486	-0.065020
H112	H	0.011188	0.162459	-0.108925
H113	H	0.015486	0.172066	0.043588
H114	H	-0.040142	0.147041	-0.000310
H115	H	0.495974	-0.013923	-0.000195
H116	H	0.910848	0.004625	0.330041
C117	C	0.637577	-0.596687	-0.000228
C118	C	0.624870	-0.545868	-0.000218
H119	H	0.594114	-0.609791	-0.000223
H120	H	0.663621	-0.607360	-0.044133
H121	H	0.663603	-0.607376	0.043673
H122	H	0.598848	-0.535179	-0.044122
H123	H	0.598815	-0.535191	0.043692
C124	C	0.733763	0.126623	0.419307
C125	C	0.723652	0.133577	0.341386
H126	H	0.701309	0.148988	0.446203
H127	H	0.726531	0.094380	0.432308
H128	H	0.780306	0.131795	0.432256
H129	H	0.677111	0.128401	0.328435
H130	H	0.730878	0.165828	0.328379
C131	C	0.601360	-0.064176	-0.000157
C132	C	0.640970	-0.025025	-0.000152
H133	H	0.632040	-0.093818	-0.000155
H134	H	0.572574	-0.062636	0.043740
H135	H	0.572611	-0.062628	-0.044066
H136	H	0.669715	-0.026571	0.043760
H137	H	0.669768	-0.026566	-0.044053
H138	H	1.001475	-0.573524	-0.000298
C139	C	0.630321	-0.705469	-0.000195
C140	C	0.686677	-0.677858	-0.000216
H141	H	0.587361	-0.684369	-0.000173
H142	H	0.632687	-0.725370	-0.044097
H143	H	0.632689	-0.725386	0.043709
H144	H	0.684312	-0.657943	-0.044122
H145	H	0.684310	-0.657948	0.043691
C146	C	0.655091	0.125954	0.805450
C147	C	0.723686	0.133583	0.824565
H148	H	0.622633	0.148313	0.832351
H149	H	0.648247	0.130670	0.752592
H150	H	0.647870	0.093704	0.818457
H151	H	0.730908	0.165832	0.811552
H152	H	0.730533	0.128871	0.877435
H153	H	0.152169	0.142741	-0.000275
H154	H	0.051991	-0.018456	-0.000319
C155	C	0.157372	-0.068704	-0.000256
C156	C	0.196983	-0.029555	-0.000248
H157	H	0.188051	-0.098347	-0.000253
H158	H	0.128583	-0.067164	0.043639
H159	H	0.128626	-0.067156	-0.044168
H160	H	0.225726	-0.031101	0.043666
H161	H	0.225784	-0.031096	-0.044147
C162	C	1.018422	-0.125446	-0.000259
C163	C	0.963023	-0.087500	-0.000237
H164	H	1.061882	-0.112339	-0.000276
H165	H	1.015479	-0.144871	0.043640
H166	H	1.015482	-0.144859	-0.044166
H167	H	0.965961	-0.068089	0.043673
H168	H	0.965968	-0.068067	-0.044141
H169	H	0.943441	-0.184464	-0.000251
H170	H	0.737259	0.124181	0.186323
H171	H	0.644461	-0.448908	-0.000210
C172	C	0.734357	0.181113	0.677347
C173	C	0.723681	0.133583	0.658216
H174	H	0.701898	0.203475	0.650465
H175	H	0.727514	0.185826	0.730209
H176	H	0.780897	0.186275	0.664328
H177	H	0.677142	0.128419	0.671240
H178	H	0.730518	0.128868	0.605342
H179	H	0.910880	0.004628	0.813222
H180	H	1.005046	-0.330816	-0.000272
H181	H	1.003703	-0.422268	-0.000284
C182	C	0.958326	-0.673946	-0.065003
C183	C	0.954000	-0.702581	-0.000282
H184	H	1.001785	-0.660838	-0.065011
H185	H	0.955397	-0.693366	-0.108895
H186	H	0.920733	-0.648209	-0.064987
H187	H	0.991589	-0.728320	-0.000301
H188	H	0.956935	-0.683160	0.043621
C189	C	0.571688	-0.356662	-0.000215
C190	C	0.627080	-0.394613	-0.000221
H191	H	0.528225	-0.369764	-0.000218
H192	H	0.574618	-0.337251	0.043688
H193	H	0.574649	-0.337236	-0.044118
H194	H	0.624121	-0.414036	0.043686
H195	H	0.624148	-0.414031	-0.044128
C196	C	0.955900	-0.837753	-0.065022
C197	C	0.952444	-0.808418	-0.000298
H198	H	0.998856	-0.858857	-0.065045
H199	H	0.917657	-0.856468	-0.065002
H200	H	0.953544	-0.817827	-0.108917
H201	H	0.954796	-0.828344	0.043597
H202	H	0.990699	-0.789700	-0.000311
H203	H	0.703375	-0.778175	-0.000217
H204	H	0.646676	-0.297652	-0.000217
H205	H	0.712400	-0.163101	-0.000170
H206	H	0.713749	-0.071630	-0.000177
C207	C	1.076468	-0.514503	-0.000319
C208	C	1.021074	-0.476553	-0.000300
H209	H	1.119930	-0.501399	-0.000337
H210	H	1.073521	-0.533926	0.043581
H211	H	1.073524	-0.533916	-0.044225
H212	H	1.024015	-0.457142	0.043609
H213	H	1.024022	-0.457122	-0.044205
H214	H	0.910840	0.004625	0.186275
