data_functionalizedCrystal
_audit_creation_method	'MofGen! by Chris Wilmer'
_symmetry_space_group_name_H-M	'P1'
_symmetry_Int_Tables_number	1
_symmetry_cell_setting	triclinic
loop_
_symmetry_equiv_pos_as_xyz
  x,y,z
_cell_length_a	17.052862
_cell_length_b	14.560438
_cell_length_c	14.560438
_cell_angle_alpha	60.000905
_cell_angle_beta	90.000708
_cell_angle_gamma	50.259047
loop_
_atom_site_label
_atom_site_type_symbol
_atom_site_fract_x
_atom_site_fract_y
_atom_site_fract_z
Zr1	Zr	0.914394	0.682251	0.040999
O2	O	0.762831	0.927397	-0.132416
O3	O	0.960856	0.474237	0.094158
O4	O	0.960851	0.665842	-0.097444
O5	O	0.762840	0.735787	0.210327
O6	O	1.117053	0.610661	-0.069854
O7	O	0.762836	0.735791	0.059186
O8	O	1.117061	0.267914	0.272886
O9	O	0.762831	1.078535	-0.132413
O10	O	1.097243	0.504863	0.137422
O11	O	0.980675	0.546041	0.229627
O12	O	0.980669	0.771632	0.004041
O13	O	0.864100	0.812810	0.096247
Zr14	Zr	1.163524	0.594238	0.326054
Zr15	Zr	1.163518	0.594244	0.085001
Zr16	Zr	0.914400	0.682245	0.282052
Zr17	Zr	0.914394	0.923299	0.041004
Zr18	Zr	1.163524	0.353190	0.326050
O19	O	1.117063	0.802253	0.272896
O20	O	1.117054	0.802262	-0.069851
O21	O	0.762840	0.927388	0.210331
O22	O	1.315087	0.349093	0.499470
O23	O	1.315078	0.349101	0.156723
O24	O	0.960865	0.474228	0.436904
O25	O	1.315079	0.540702	0.156727
O26	O	1.117067	0.610647	0.464498
O27	O	0.960865	0.665828	0.436908
O28	O	1.315083	0.540698	0.307868
O29	O	0.960852	1.008581	-0.097437
O30	O	1.117066	0.267909	0.464491
O31	O	1.315087	0.197955	0.499467
O32	O	1.315082	0.197960	0.307861
O33	O	0.762837	1.078530	0.059192
O34	O	0.960857	1.008576	0.094168
O35	O	1.097249	0.504857	0.363012
O36	O	1.213818	0.463679	0.270807
O37	O	1.097244	0.730448	0.137426
O38	O	0.980675	0.771626	0.229632
C39	C	1.038959	0.336731	0.183521
C40	C	1.038958	0.234400	0.183519
C41	C	1.099804	0.164830	0.135388
C42	C	1.099808	0.068669	0.135400
C43	C	0.978113	0.111664	0.231672
C44	C	0.978116	0.207814	0.231668
C45	C	0.727343	0.748328	0.128487
C46	C	0.621583	0.785690	0.109807
C47	C	0.566872	0.333990	0.335646
C48	C	0.666241	0.298882	0.353192
C49	C	0.655082	0.420580	0.292348
C50	C	0.544543	0.577394	0.213953
C51	C	0.445165	0.612505	0.196398
C52	C	0.533375	0.699096	0.153100
C53	C	0.422836	0.855909	0.074706
C54	C	0.323469	0.891014	0.057154
C55	C	0.334628	0.769315	0.117999
C56	C	0.632753	0.663984	0.170656
C57	C	0.511046	0.942500	0.031408
C58	C	0.411677	0.977608	0.013861
C59	C	1.350575	0.528161	0.238567
C60	C	1.456335	0.490800	0.257247
C61	C	1.038951	0.638253	-0.117994
C62	C	1.038949	0.638255	-0.220327
C63	C	1.038960	0.939758	0.183533
C64	C	1.038960	1.042089	0.183535
C65	C	0.978099	0.777503	-0.338027
C66	C	0.978113	0.777492	-0.434173
C67	C	1.099827	0.498974	-0.294907
C68	C	1.099819	0.498985	-0.198762
C69	C	1.038967	0.638237	0.485048
C70	C	1.038970	0.638234	0.587381
C71	C	1.350575	0.226647	0.238561
C72	C	1.456334	0.086955	0.257239
C73	C	1.038967	0.336723	0.485042
C74	C	1.038969	0.234390	0.587373
C75	C	1.350583	0.226639	0.540082
C76	C	1.456345	0.086944	0.661093
C77	C	0.727336	1.049850	-0.173028
C78	C	0.621573	1.189545	-0.294039
C79	C	0.727344	1.049842	0.128493
C80	C	0.621584	1.189534	0.109815
C81	C	1.038952	0.939766	-0.117988
C82	C	1.038949	1.042100	-0.220320
C83	C	1.445149	0.042851	0.196375
C84	C	1.544512	-0.088388	0.213900
C85	C	1.655059	-0.175528	0.292297
C86	C	1.666241	-0.131414	0.353163
C87	C	1.566880	-0.000170	0.335630
C88	C	1.566870	-0.000156	0.669793
C89	C	1.666254	-0.131404	0.783489
C90	C	1.655111	-0.175556	0.888483
C91	C	1.544574	-0.088442	0.879779
C92	C	1.445192	0.042810	0.766085
C93	C	0.511048	1.276657	-0.302739
C94	C	0.411664	1.407935	-0.416435
C95	C	0.422807	1.452092	-0.521429
C96	C	0.533344	1.364972	-0.512725
C97	C	0.632726	1.233703	-0.399031
C98	C	0.632769	1.233648	0.170669
C99	C	0.533406	1.364914	0.153117
C100	C	0.422860	1.452057	0.074716
C101	C	0.411677	1.407939	0.013855
C102	C	0.511039	1.276682	0.031401
C103	C	1.099820	0.164814	0.705074
C104	C	1.099809	0.068674	0.801219
C105	C	0.978095	0.111691	0.661949
C106	C	0.978100	0.207838	0.565805
H107	H	0.928567	0.264459	0.270867
H108	H	1.149356	0.012024	0.096209
H109	H	0.341963	1.558932	0.060440
H110	H	0.253719	0.797891	0.103722
H111	H	0.928542	0.264495	0.469960
H112	H	0.928539	0.090058	0.644402
Cl113	Cl	0.497008	1.095501	-0.045100
H114	H	1.575965	0.035770	0.584314
H115	H	0.722747	0.536305	0.234494
H116	H	0.928565	0.890881	-0.530006
Cl117	Cl	1.176297	0.198242	0.074865
Cl118	Cl	1.176335	0.323905	-0.267809
Cl119	Cl	0.901587	0.952582	-0.365139
H120	H	1.149358	0.012030	0.897054
Cl121	Cl	0.496957	1.221235	-0.045104
H122	H	0.928576	0.090006	0.270872
H123	H	1.756249	-0.202321	0.790554
Cl124	Cl	0.272695	1.517502	-0.084696
Cl125	Cl	1.580962	0.055246	0.412166
Cl126	Cl	0.780006	0.376441	0.314411
H127	H	0.722773	1.162704	0.234517
Cl128	Cl	1.306188	0.152380	0.097805
Cl129	Cl	0.184508	1.088151	-0.041408
Cl130	Cl	1.176338	0.198195	0.732191
Cl131	Cl	0.805194	0.101754	0.451741
H132	H	1.355201	0.113715	0.759017
Cl133	Cl	0.580888	0.181017	0.412117
H134	H	0.321665	1.105286	-0.049969
H135	H	1.535384	-0.124285	0.164333
Cl136	Cl	1.176319	0.323916	-0.050785
Cl137	Cl	1.805224	-0.240985	0.451722
Cl138	Cl	1.779961	-0.340521	0.314328
H139	H	1.736044	-0.282434	0.981052
H140	H	1.535518	-0.124411	0.965281
Cl141	Cl	0.547491	1.420341	0.229644
H142	H	0.501953	1.240718	-0.217260
H143	H	0.321670	1.478850	-0.423499
H144	H	0.341875	1.558983	-0.613999
Cl145	Cl	0.547333	1.420499	-0.644730
Cl146	Cl	0.771668	1.124194	-0.388115
