data_functionalizedCrystal
_audit_creation_method	'MofGen! by Chris Wilmer'
_symmetry_space_group_name_H-M	'P1'
_symmetry_Int_Tables_number	1
_symmetry_cell_setting	triclinic
loop_
_symmetry_equiv_pos_as_xyz
  x,y,z
_cell_length_a	15.297327
_cell_length_b	14.908571
_cell_length_c	15.296720
_cell_angle_alpha	83.041188
_cell_angle_beta	72.680778
_cell_angle_gamma	96.991395
loop_
_atom_site_label
_atom_site_type_symbol
_atom_site_fract_x
_atom_site_fract_y
_atom_site_fract_z
Zn1	Zn	-0.542878	1.168966	0.671282
Zn2	Zn	-0.671492	1.168866	0.542669
Zn3	Zn	-0.507870	1.052494	0.507684
Zn4	Zn	-0.685897	0.990807	0.685707
O5	O	-0.602034	1.095283	0.601836
O6	O	-0.568561	1.292215	0.662826
O7	O	-0.629108	1.179203	0.409700
O8	O	-0.384183	1.093802	0.508708
O9	O	-0.663054	1.292141	0.568335
O10	O	-0.409903	1.179373	0.628902
O11	O	-0.508895	1.093705	0.383997
O12	O	-0.522863	0.921049	0.522695
O13	O	-0.687605	0.988666	0.812122
O14	O	-0.653659	0.875728	0.653488
O15	O	-0.582529	1.119559	0.801524
O16	O	-0.801734	1.119388	0.582322
O17	O	-0.812317	0.988569	0.687411
C18	C	-0.586026	0.866428	0.585861
C19	C	-0.579204	0.768513	0.579052
C20	C	-0.702737	0.537373	0.702324
C21	C	-0.696330	0.445373	0.695930
C22	C	-0.559979	0.492510	0.559876
C23	C	-0.566386	0.584511	0.566270
C24	C	-0.637768	0.606938	0.637495
C25	C	-0.644179	0.698940	0.643884
C26	C	-0.507824	0.746076	0.507834
C27	C	-0.501417	0.654075	0.501441
C28	C	-0.840305	1.047294	0.640250
C29	C	-0.942249	1.026838	0.656720
C30	C	-1.207485	1.241782	0.484460
C31	C	-1.111703	1.261002	0.468981
C32	C	-1.069335	1.202463	0.515915
C33	C	-1.122758	1.124701	0.578330
C34	C	-1.218548	1.105475	0.593805
C35	C	-1.080398	1.066156	0.625259
C36	C	-1.133821	0.988394	0.687674
C37	C	-1.229602	0.969172	0.703147
C38	C	-1.271970	1.027711	0.656213
C39	C	-0.984607	1.085381	0.609784
C40	C	-0.995671	0.949074	0.719128
C41	C	-1.091453	0.929855	0.734608
C42	C	-0.362838	1.143480	0.563294
C43	C	-0.260907	1.164018	0.546869
C44	C	-0.640578	1.047243	0.841027
C45	C	-0.657004	1.026771	0.942956
C46	C	-0.618105	1.325032	0.617874
C47	C	-0.624954	1.422937	0.624708
C48	C	-0.563577	1.143201	0.363568
C49	C	-0.546906	1.163895	0.261609
C50	C	-0.484482	1.241664	1.208208
C51	C	-0.469051	1.260904	1.112441
C52	C	-0.516038	1.202372	1.070065
C53	C	-0.578458	1.124598	1.123466
C54	C	-0.593895	1.105360	1.219243
C55	C	-0.625451	1.066068	1.081100
C56	C	-0.687872	0.988293	1.134501
C57	C	-0.703306	0.969059	1.230268
C58	C	-0.656319	1.027591	1.272644
C59	C	-0.610014	1.085306	0.985323
C60	C	-0.719428	0.949001	0.996358
C61	C	-0.734858	0.929762	1.092125
H62	H	-0.443298	0.635802	0.443453
H63	H	-0.760864	0.555633	0.760315
H64	H	-0.757690	0.901341	0.961856
C65	C	-0.400392	1.346449	1.053704
C66	C	-0.348705	1.410832	1.100309
C67	C	-0.280042	1.496382	1.041569
C68	C	-0.263064	1.517548	0.936224
C69	C	-0.314752	1.453163	0.889614
C70	C	-0.383416	1.367613	0.948353
H71	H	-0.361272	1.395165	1.178296
H72	H	-0.241779	1.544044	1.076074
H73	H	-0.212235	1.580877	0.892742
H74	H	-0.302185	1.468830	0.811626
H75	H	-0.421679	1.319951	0.913848
C76	C	-0.432806	1.306042	1.254825
C77	C	-0.488005	1.353956	1.331897
C78	C	-0.436327	1.418340	1.378516
C79	C	-0.329450	1.434809	1.348062
C80	C	-0.274245	1.386895	1.270985
C81	C	-0.325923	1.322511	1.224367
H82	H	-0.567127	1.341765	1.354445
H83	H	-0.477194	1.453809	1.435573
H84	H	-0.291195	1.482470	1.382571
H85	H	-0.195123	1.399085	1.248437
H86	H	-0.285057	1.287041	1.167309
H87	H	-0.454924	0.802727	0.455044
H88	H	-0.503471	1.218042	0.992087
H89	H	-0.941119	1.148696	0.558965
H90	H	-1.349964	1.012068	0.668816
H91	H	-0.991344	1.218116	0.503307
C92	C	-0.771970	0.883505	1.289000
C93	C	-0.857260	0.893921	1.369103
C94	C	-0.925922	0.808363	1.427826
C95	C	-0.909294	0.712390	1.406447
C96	C	-0.824000	0.701970	1.326339
C97	C	-0.755338	0.787527	1.267616
H98	H	-0.869572	0.964970	1.384933
H99	H	-0.989063	0.816077	1.487127
H100	H	-0.960123	0.649055	1.449917
H101	H	-0.811688	0.630921	1.310509
H102	H	-0.692197	0.779813	1.208315
C103	C	-0.803525	0.844218	1.150877
C104	C	-0.888800	0.854663	1.230982
C105	C	-0.957467	0.769122	1.289737
C106	C	-0.940860	0.673135	1.268385
C107	C	-0.855581	0.662686	1.188276
C108	C	-0.786914	0.748228	1.129521
H109	H	-0.901097	0.925722	1.246791
H110	H	-1.020596	0.776858	1.349039
H111	H	-0.991691	0.609813	1.311879
H112	H	-0.843284	0.591628	1.172466
H113	H	-0.723785	0.740492	1.070219
H114	H	-1.068209	1.324314	0.418163
H115	H	-0.668879	1.011930	1.350625
C116	C	-0.722694	0.723615	0.722231
C117	C	-0.824827	0.691514	0.730519
C118	C	-0.903342	0.716186	0.808870
C119	C	-0.879726	0.772957	0.878933
C120	C	-0.777589	0.805061	0.870648
C121	C	-0.699073	0.780390	0.792297
H122	H	-0.842313	0.649486	0.678652
H123	H	-0.978951	0.692420	0.815003
H124	H	-0.937847	0.791220	0.936933
H125	H	-0.760102	0.847089	0.922515
H126	H	-0.623465	0.804155	0.786164
H127	H	-0.749233	0.388734	0.748722
H128	H	-1.134963	0.866540	0.785426
H129	H	-0.501858	0.474232	0.501892
H130	H	-1.241989	1.289432	0.446248
H131	H	-0.961175	0.901405	0.757344
H132	H	-0.559190	1.148630	0.941853
C133	C	-1.288364	0.883629	0.771797
C134	C	-1.267062	0.787645	0.755130
C135	C	-1.325821	0.702101	0.823781
C136	C	-1.405883	0.712542	0.909097
C137	C	-1.427189	0.808530	0.925768
C138	C	-1.368430	0.894074	0.857118
H139	H	-1.207791	0.779912	0.691970
H140	H	-1.310048	0.631044	0.811439
H141	H	-1.449380	0.649217	0.959916
H142	H	-1.486459	0.816263	0.988928
H143	H	-1.384203	0.965131	0.869459
