data_functionalizedCrystal
_audit_creation_method	'MofGen! by Chris Wilmer'
_symmetry_space_group_name_H-M	'P1'
_symmetry_Int_Tables_number	1
_symmetry_cell_setting	triclinic
loop_
_symmetry_equiv_pos_as_xyz
  x,y,z
_cell_length_a	17.077404
_cell_length_b	21.295417
_cell_length_c	17.077396
_cell_angle_alpha	89.967856
_cell_angle_beta	89.980499
_cell_angle_gamma	90.029927
loop_
_atom_site_label
_atom_site_type_symbol
_atom_site_fract_x
_atom_site_fract_y
_atom_site_fract_z
Zn1	Zn	1.200017	-0.250605	-0.443823
Zn2	Zn	1.700017	0.249395	0.056177
Zn3	Zn	1.199909	-0.355878	-0.312548
Zn4	Zn	1.699909	0.144122	0.187452
Zn5	Zn	1.068749	-0.250628	-0.312571
Zn6	Zn	1.568749	0.249372	0.187429
Zn7	Zn	1.068702	-0.355841	-0.443772
Zn8	Zn	1.568702	0.144159	0.056228
O9	O	1.134344	-0.303238	-0.378178
O10	O	1.634344	0.196762	0.121822
O11	O	1.309850	-0.264577	-0.426421
O12	O	1.809850	0.235423	0.073579
O13	O	1.182485	-0.341942	-0.202704
O14	O	1.682485	0.158058	0.297296
O15	O	1.086228	-0.162535	-0.330012
O16	O	1.586228	0.337465	0.169988
O17	O	1.309770	-0.341920	-0.329974
O18	O	1.809770	0.158080	0.170026
O19	O	1.182670	-0.162519	-0.426442
O20	O	1.682670	0.337481	0.073558
O21	O	1.086122	-0.264614	-0.202721
O22	O	1.586122	0.235386	0.297279
O23	O	0.958896	-0.264578	-0.329963
O24	O	1.458896	0.235422	0.170037
O25	O	1.086146	-0.341856	-0.553626
O26	O	1.586146	0.158144	-0.053626
O27	O	0.958861	-0.341878	-0.426356
O28	O	1.458861	0.158122	0.073644
O29	O	1.182624	-0.264540	-0.553663
O30	O	1.682624	0.235460	-0.053663
O31	O	1.182439	-0.443963	-0.329925
O32	O	1.682439	0.056037	0.170075
O33	O	1.086041	-0.443935	-0.426334
O34	O	1.586041	0.056065	0.073666
C35	C	0.930396	-0.303227	-0.378157
C36	C	1.430396	0.196773	0.121843
C37	C	0.843147	-0.303237	-0.378166
C38	C	1.343147	0.196763	0.121834
C39	C	0.802159	-0.343548	-0.428277
C40	C	1.302159	0.156452	0.071723
C41	C	0.720178	-0.343549	-0.428290
C42	C	1.220178	0.156451	0.071710
C43	C	0.679187	-0.303242	-0.378187
C44	C	1.179187	0.196758	0.121813
C45	C	0.720181	-0.262927	-0.328073
C46	C	1.220181	0.237073	0.171927
C47	C	0.802160	-0.262923	-0.328065
C48	C	1.302160	0.237077	0.171935
C49	C	0.549311	-0.262940	-0.328092
C50	C	1.049311	0.237060	0.171908
C51	C	0.467326	-0.262944	-0.328099
C52	C	0.967326	0.237056	0.171901
C53	C	0.467329	-0.343566	-0.428317
C54	C	0.967329	0.156434	0.071683
C55	C	0.549308	-0.343562	-0.428309
C56	C	1.049308	0.156438	0.071691
C57	C	0.590296	-0.303247	-0.378194
C58	C	1.090296	0.196753	0.121806
C59	C	1.134244	-0.466790	-0.378139
C60	C	1.634244	0.033210	0.121861
C61	C	1.134273	-0.536758	-0.378148
C62	C	1.634273	-0.036758	0.121852
C63	C	1.184462	-0.569559	-0.428395
C64	C	1.684462	-0.069559	0.071605
C65	C	1.184490	-0.635301	-0.428414
C66	C	1.684490	-0.135301	0.071586
C67	C	1.134337	-0.668240	-0.378173
C68	C	1.634337	-0.168240	0.121827
C69	C	1.084138	-0.635431	-0.327922
C70	C	1.584138	-0.135431	0.172078
C71	C	1.084107	-0.569690	-0.327910
C72	C	1.584107	-0.069690	0.172090
N73	N	1.128408	-0.771504	-0.309474
N74	N	1.628408	-0.271504	0.190526
N75	N	1.128443	-0.833955	-0.309488
N76	N	1.628443	-0.333955	0.190512
C77	C	1.134429	-0.866315	-0.378208
C78	C	1.634429	-0.366315	0.121792
N79	N	1.140394	-0.833864	-0.446915
N80	N	1.640394	-0.333864	0.053085
N81	N	1.140363	-0.771407	-0.446900
N82	N	1.640363	-0.271407	0.053100
C83	C	1.134366	-0.739526	-0.378181
C84	C	1.634366	-0.239526	0.121819
C85	C	1.184650	-0.970402	-0.428480
C86	C	1.684650	-0.470402	0.071520
C87	C	1.184672	-1.036145	-0.428501
C88	C	1.684672	-0.536145	0.071499
C89	C	1.084325	-1.036274	-0.328002
C90	C	1.584325	-0.536274	0.171998
C91	C	1.084299	-0.970532	-0.327988
C92	C	1.584299	-0.470532	0.172012
C93	C	1.134465	-0.937599	-0.378226
C94	C	1.634465	-0.437599	0.121774
C95	C	1.339089	-0.303250	-0.378201
C96	C	1.839089	0.196750	0.121799
C97	C	1.426338	-0.303255	-0.378210
C98	C	1.926338	0.196745	0.121790
C99	C	1.134392	-0.303192	-0.582923
C100	C	1.634392	0.196808	-0.082923
C101	C	1.134412	-0.303172	-0.670173
C102	C	1.634412	0.196828	-0.170173
C103	C	1.134466	-0.139048	-0.378235
C104	C	1.634466	0.360952	0.121765
C105	C	1.134518	-0.069080	-0.378260
C106	C	1.634518	0.430920	0.121740
C107	C	1.184650	-0.262910	-0.711183
C108	C	1.684650	0.237090	-0.211183
C109	C	1.184659	-0.262889	-0.793164
C110	C	1.684659	0.237111	-0.293164
C111	C	1.134434	-0.303134	-0.834132
C112	C	1.634434	0.196866	-0.334132
C113	C	1.084191	-0.343397	-0.793116
C114	C	1.584191	0.156603	-0.293116
C115	C	1.084178	-0.343415	-0.711137
C116	C	1.584178	0.156585	-0.211137
C117	C	1.084223	-0.343360	-0.963986
C118	C	1.584223	0.156640	-0.463986
C119	C	1.084237	-0.343343	-1.045970
C120	C	1.584237	0.156657	-0.545970
C121	C	1.184703	-0.262834	-1.046013
C122	C	1.684703	0.237166	-0.546013
C123	C	1.184691	-0.262851	-0.964034
C124	C	1.684691	0.237149	-0.464034
C125	C	1.134448	-0.303116	-0.923023
C126	C	1.634448	0.196884	-0.423023
C127	C	1.134342	-0.303239	-0.174231
C128	C	1.634342	0.196761	0.325769
C129	C	1.134474	-0.303081	-0.086981
C130	C	1.634474	0.196919	0.413019
H131	H	0.835531	-0.230095	-0.287263
H132	H	1.335531	0.269905	0.212737
H133	H	0.686799	-0.230106	-0.287282
H134	H	1.186799	0.269894	0.212718
H135	H	0.686810	-0.376375	-0.469095
H136	H	1.186810	0.123625	0.030905
Cl137	Cl	1.247866	-0.212216	-1.097569
Cl138	Cl	1.747866	0.287784	-0.597569
Cl139	Cl	1.021018	-0.394030	-0.659580
Cl140	Cl	1.521018	0.105970	-0.159580
H141	H	1.043298	-0.376137	-0.930597
H142	H	1.543298	0.123863	-0.430597
Cl143	Cl	1.247797	-0.212317	-0.659689
Cl144	Cl	1.747797	0.287683	-0.159689
H145	H	1.043485	-1.063092	-0.287099
H146	H	1.543485	-0.563092	0.212901
Cl147	Cl	1.247836	-0.212261	-0.912532
Cl148	Cl	1.747836	0.287739	-0.412532
H149	H	0.835528	-0.376372	-0.469075
H150	H	1.335528	0.123628	0.030925
Cl151	Cl	1.021087	-0.393930	-1.097472
Cl152	Cl	1.521087	0.106070	-0.597472
H153	H	1.043302	-0.662255	-0.287017
H154	H	1.543302	-0.162255	0.212983
Cl155	Cl	1.021201	-0.929294	-0.264816
Cl156	Cl	1.521201	-0.429294	0.235184
H157	H	0.582681	-0.376386	-0.469103
H158	H	1.082681	0.123614	0.030897
H159	H	1.043295	-0.376163	-0.826478
H160	H	1.543295	0.123837	-0.326478
Cl161	Cl	1.247852	-0.212300	-0.844717
Cl162	Cl	1.747852	0.287700	-0.344717
Cl163	Cl	1.247523	-0.528162	-0.491557
Cl164	Cl	1.747523	-0.028162	0.008443
H165	H	0.433953	-0.376389	-0.469124
H166	H	0.933953	0.123611	0.030876
Cl167	Cl	1.021006	-0.528452	-0.264737
Cl168	Cl	1.521006	-0.028452	0.235263
Cl169	Cl	0.415795	-0.212275	-0.265107
Cl170	Cl	0.915795	0.287725	0.234893
Cl171	Cl	1.247594	-0.676546	-0.491582
Cl172	Cl	1.747594	-0.176546	0.008418
Cl173	Cl	0.600837	-0.212257	-0.265090
Cl174	Cl	1.100837	0.287743	0.234910
Cl175	Cl	1.247763	-1.077382	-0.491685
Cl176	Cl	1.747763	-0.577382	0.008315
Cl177	Cl	1.247712	-0.928998	-0.491639
Cl178	Cl	1.747712	-0.428998	0.008361
