data_functionalizedCrystal
_audit_creation_method	'MofGen! by Chris Wilmer'
_symmetry_space_group_name_H-M	'P1'
_symmetry_Int_Tables_number	1
_symmetry_cell_setting	triclinic
loop_
_symmetry_equiv_pos_as_xyz
  x,y,z
_cell_length_a	14.971486
_cell_length_b	18.366186
_cell_length_c	14.971486
_cell_angle_alpha	89.994669
_cell_angle_beta	96.385871
_cell_angle_gamma	90.004127
loop_
_atom_site_label
_atom_site_type_symbol
_atom_site_fract_x
_atom_site_fract_y
_atom_site_fract_z
O1	O	1.186951	0.060466	-0.116562
O2	O	0.926550	0.060486	-0.130521
O3	O	1.063730	0.060470	0.006658
O4	O	1.049771	0.060482	-0.253742
O5	O	1.063706	-0.060629	0.006662
O6	O	0.926527	-0.060613	-0.130517
O7	O	1.186927	-0.060633	-0.116559
Zn8	Zn	1.056723	-0.079850	-0.123537
Zn9	Zn	1.056754	0.079703	-0.123543
O10	O	1.049747	-0.060617	-0.253738
C11	C	0.893214	-0.000061	-0.129895
C12	C	0.793917	-0.000054	-0.128024
N13	N	1.056708	-0.188741	-0.123533
C14	C	0.736691	-0.000051	-0.208614
C15	C	0.643392	-0.000062	-0.206850
C16	C	0.607320	-0.000070	-0.124497
C17	C	0.664552	-0.000075	-0.043902
C18	C	0.757850	-0.000069	-0.045666
C19	C	0.470090	-0.000085	-0.040231
C20	C	0.376786	-0.000090	-0.038466
C21	C	0.355632	-0.000078	-0.201415
C22	C	0.448930	-0.000072	-0.203179
C23	C	0.506156	-0.000076	-0.122584
C24	C	1.111005	-0.226838	-0.177877
C25	C	1.111020	-0.303065	-0.177875
C26	C	1.056721	-0.341194	-0.123539
C27	C	1.002420	-0.303089	-0.069184
C28	C	1.002414	-0.226862	-0.069181
C29	C	0.976082	-0.461969	-0.120938
C30	C	0.976087	-0.538194	-0.120947
C31	C	1.056741	-0.576302	-0.123542
C32	C	1.137392	-0.538175	-0.126146
C33	C	1.137386	-0.461949	-0.126144
C34	C	1.056722	-0.423849	-0.123535
C35	C	1.111059	-0.697053	-0.177886
C36	C	1.111075	-0.773282	-0.177877
C37	C	1.002467	-0.773304	-0.069192
C38	C	1.002459	-0.697076	-0.069195
C39	C	1.056753	-0.658955	-0.123547
C40	C	1.220263	-0.000084	-0.117185
C41	C	1.319561	-0.000087	-0.119056
C42	C	1.063094	-0.000079	0.039985
C43	C	1.061223	-0.000078	0.139282
N44	N	1.056776	0.188594	-0.123539
C45	C	1.050384	-0.000066	-0.287065
C46	C	1.052254	-0.000062	-0.386362
C47	C	1.141812	-0.000085	0.196507
C48	C	1.140049	-0.000077	0.289807
C49	C	1.057696	-0.000068	0.325879
C50	C	0.977101	-0.000060	0.268646
C51	C	0.978865	-0.000062	0.175349
C52	C	0.973430	-0.000057	0.463109
C53	C	0.971665	-0.000056	0.556413
C54	C	1.134614	-0.000072	0.577567
C55	C	1.136378	-0.000074	0.484269
C56	C	1.055782	-0.000067	0.427043
H57	H	0.766054	-0.000044	-0.275675
H58	H	1.205673	-0.000084	0.336396
H59	H	0.309033	-0.000078	-0.267039
H60	H	0.347419	-0.000097	0.028593
H61	H	0.958240	-0.666058	-0.024946
C62	C	1.170792	-0.655117	-0.237664
N63	N	1.215785	-0.623533	-0.282688
H64	H	0.516682	-0.000089	0.025399
C65	C	0.887369	-0.580126	-0.118087
N66	N	0.820544	-0.611708	-0.115933
C67	C	1.226971	-0.000088	0.444592
N68	N	1.295207	-0.000096	0.414707
C69	C	0.884769	-0.000052	0.400162
N70	N	0.817992	-0.000054	0.352750
H71	H	0.913240	-0.000056	0.128756
H72	H	0.958197	-0.195845	-0.024927
C73	C	0.624870	-0.000085	0.046688
N74	N	0.594982	-0.000090	0.114922
C75	C	0.887350	-0.420058	-0.118086
N76	N	0.820519	-0.388492	-0.115939
C77	C	0.942688	-0.345032	-0.009417
N78	N	0.897697	-0.376623	0.035602
C79	C	1.170741	-0.184909	-0.237656
N80	N	1.215738	-0.153327	-0.282678
C81	C	0.881072	-0.000037	0.596090
N82	N	0.812837	-0.000020	0.625975
C83	C	0.580448	-0.000072	-0.295505
N84	N	0.533038	-0.000085	-0.362284
H85	H	1.208874	-0.000097	0.167145
H86	H	0.478296	-0.000059	-0.270239
H87	H	0.804443	-0.000071	0.019958
C88	C	1.170753	-0.344980	-0.237659
N89	N	1.215744	-0.376547	-0.282690
H90	H	1.200238	-0.000076	0.624165
H91	H	0.910047	-0.000048	0.298024
C92	C	1.226102	-0.420012	-0.128996
N93	N	1.292925	-0.388426	-0.131139
H94	H	1.203068	-0.569200	-0.128264
H95	H	1.155297	-0.804299	-0.222127
H96	H	0.958256	-0.804348	-0.024949
