data_functionalizedCrystal
_audit_creation_method	'MofGen! by Chris Wilmer'
_symmetry_space_group_name_H-M	'P1'
_symmetry_Int_Tables_number	1
_symmetry_cell_setting	triclinic
loop_
_symmetry_equiv_pos_as_xyz
  x,y,z
_cell_length_a	9.065218
_cell_length_b	13.101039
_cell_length_c	9.065218
_cell_angle_alpha	93.413922
_cell_angle_beta	94.984115
_cell_angle_gamma	93.407648
loop_
_atom_site_label
_atom_site_type_symbol
_atom_site_fract_x
_atom_site_fract_y
_atom_site_fract_z
O1	O	1.968410	0.085213	-0.208321
O2	O	2.301743	0.418546	0.125012
O3	O	2.635076	0.751879	0.458345
O4	O	1.539125	0.085214	-0.226068
O5	O	1.872458	0.418547	0.107266
O6	O	2.205792	0.751881	0.440599
O7	O	1.762641	0.085211	-0.002552
O8	O	2.095974	0.418545	0.330781
O9	O	2.429307	0.751878	0.664114
O10	O	1.744894	0.085215	-0.431837
O11	O	2.078228	0.418549	-0.098504
O12	O	2.411561	0.751882	0.234830
O13	O	1.746604	-0.085218	-0.018616
O14	O	2.079937	0.248115	0.314717
O15	O	2.413271	0.581448	0.648050
O16	O	1.523088	-0.085216	-0.242132
O17	O	1.856422	0.248118	0.091202
O18	O	2.189755	0.581451	0.424535
O19	O	1.952373	-0.085217	-0.224385
O20	O	2.285707	0.248117	0.108948
O21	O	2.619040	0.581450	0.442281
Zn22	Zn	1.735185	-0.112276	-0.235809
Zn23	Zn	2.068518	0.221058	0.097524
Zn24	Zn	2.401851	0.554391	0.430858
Zn25	Zn	1.756314	0.112273	-0.214644
Zn26	Zn	2.089647	0.445606	0.118689
Zn27	Zn	2.422980	0.778939	0.452023
O28	O	1.728858	-0.085214	-0.447901
O29	O	2.062191	0.248119	-0.114567
O30	O	2.395524	0.581452	0.218766
C31	C	1.476120	-0.000001	-0.232394
C32	C	1.809454	0.333333	0.100939
C33	C	2.142787	0.666666	0.434272
C34	C	1.312277	-0.000000	-0.227294
C35	C	1.645611	0.333333	0.106039
C36	C	1.978944	0.666666	0.439372
N37	N	1.720776	-0.265524	-0.250253
N38	N	2.054109	0.067809	0.083081
N39	N	2.387442	0.401143	0.416414
C40	C	1.701171	-0.474566	-0.269917
C41	C	2.034505	-0.141233	0.063416
C42	C	2.367838	0.192100	0.396749
C43	C	1.790334	-0.525443	-0.180529
C44	C	2.123667	-0.192110	0.152804
C45	C	2.457000	0.141224	0.486138
C46	C	1.779426	-0.641761	-0.191471
C47	C	2.112759	-0.308428	0.141863
C48	C	2.446092	0.024905	0.475196
C49	C	1.712078	-0.358238	-0.258978
C50	C	2.045411	-0.024904	0.074356
C51	C	2.378744	0.308429	0.407689
C52	C	2.015378	0.000000	-0.218059
C53	C	2.348712	0.333333	0.115275
C54	C	2.682045	0.666667	0.448608
C55	C	2.179222	0.000006	-0.223158
C56	C	2.512555	0.333340	0.110176
C57	C	2.845888	0.666673	0.443509
C58	C	1.752917	-0.000002	0.044402
C59	C	2.086250	0.333331	0.377736
C60	C	2.419583	0.666665	0.711069
C61	C	1.747818	0.000003	0.208246
C62	C	2.081151	0.333336	0.541579
C63	C	2.414484	0.666670	0.874912
N64	N	1.770734	0.265521	-0.200189
N65	N	2.104068	0.598854	0.133144
N66	N	2.437401	0.932188	0.466478
C67	C	1.738582	0.000001	-0.494855
C68	C	2.071915	0.333335	-0.161522
C69	C	2.405248	0.666668	0.171811
C70	C	1.743682	0.000003	-0.658698
C71	C	2.077015	0.333336	-0.325365
C72	C	2.410348	0.666670	0.007969
H73	H	1.874861	-0.481642	-0.095785
H74	H	2.208194	-0.148308	0.237548
H75	H	2.541528	0.185025	0.570882
Cl76	Cl	1.570680	-0.542186	-0.400756
Cl77	Cl	1.904014	-0.208853	-0.067423
Cl78	Cl	2.237347	0.124481	0.265911
