data_functionalizedCrystal
_audit_creation_method	'MofGen! by Chris Wilmer'
_symmetry_space_group_name_H-M	'P1'
_symmetry_Int_Tables_number	1
_symmetry_cell_setting	triclinic
loop_
_symmetry_equiv_pos_as_xyz
  x,y,z
_cell_length_a	16.109302
_cell_length_b	17.699092
_cell_length_c	15.186229
_cell_angle_alpha	89.997943
_cell_angle_beta	89.994701
_cell_angle_gamma	83.374074
loop_
_atom_site_label
_atom_site_type_symbol
_atom_site_fract_x
_atom_site_fract_y
_atom_site_fract_z
O1	O	1.102966	0.097287	-0.073265
O2	O	1.352966	0.347287	0.176735
O3	O	1.602966	0.597287	0.426735
O4	O	1.852966	0.847287	0.676735
O5	O	0.860883	0.109393	-0.073257
O6	O	1.110883	0.359393	0.176743
O7	O	1.360883	0.609393	0.426743
O8	O	1.610883	0.859393	0.676743
O9	O	0.988761	-0.006839	-0.073259
O10	O	1.238761	0.243161	0.176741
O11	O	1.488761	0.493161	0.426741
O12	O	1.738761	0.743161	0.676741
O13	O	0.975089	0.213519	-0.073263
O14	O	1.225089	0.463519	0.176737
O15	O	1.475089	0.713519	0.426737
O16	O	1.725089	0.963519	0.676737
O17	O	0.988752	-0.006841	0.073198
O18	O	1.238752	0.243159	0.323198
O19	O	1.488752	0.493159	0.573198
O20	O	1.738752	0.743159	0.823198
O21	O	0.860875	0.109391	0.073200
O22	O	1.110875	0.359391	0.323200
O23	O	1.360875	0.609391	0.573200
O24	O	1.610875	0.859391	0.823200
O25	O	1.102957	0.097285	0.073193
O26	O	1.352957	0.347285	0.323193
O27	O	1.602957	0.597285	0.573193
O28	O	1.852957	0.847285	0.823193
Zn29	Zn	0.981915	0.103338	0.096449
Zn30	Zn	1.231915	0.353338	0.346449
Zn31	Zn	1.481915	0.603338	0.596449
Zn32	Zn	1.731915	0.853338	0.846449
Zn33	Zn	0.981926	0.103340	-0.096514
Zn34	Zn	1.231926	0.353340	0.153486
Zn35	Zn	1.481926	0.603340	0.403486
Zn36	Zn	1.731926	0.853340	0.653486
O37	O	0.975080	0.213517	0.073194
O38	O	1.225080	0.463517	0.323194
O39	O	1.475080	0.713517	0.573194
O40	O	1.725080	0.963517	0.823194
C41	C	0.829905	0.108902	-0.000028
C42	C	1.079905	0.358902	0.249972
C43	C	1.329905	0.608902	0.499972
C44	C	1.579905	0.858902	0.749972
C45	C	0.737612	0.107431	-0.000025
C46	C	0.987612	0.357431	0.249975
C47	C	1.237612	0.607431	0.499975
C48	C	1.487612	0.857431	0.749975
C49	C	0.525273	0.104030	0.079800
C50	C	0.775273	0.354030	0.329800
C51	C	1.025273	0.604030	0.579800
C52	C	1.275273	0.854030	0.829800
C53	C	0.438555	0.102640	0.079797
C54	C	0.688555	0.352640	0.329797
C55	C	0.938555	0.602640	0.579797
C56	C	1.188555	0.852640	0.829797
C57	C	0.438575	0.102646	-0.079879
C58	C	0.688575	0.352646	0.170121
C59	C	0.938575	0.602646	0.420121
C60	C	1.188575	0.852646	0.670121
C61	C	0.525292	0.104030	-0.079875
C62	C	0.775292	0.354030	0.170125
C63	C	1.025292	0.604030	0.420125
C64	C	1.275292	0.854030	0.670125
C65	C	0.568638	0.104726	-0.000033
C66	C	0.818638	0.354726	0.249967
C67	C	1.068638	0.604726	0.499967
C68	C	1.318638	0.854726	0.749967
C69	C	0.395203	0.101952	-0.000040
C70	C	0.645203	0.351952	0.249960
C71	C	0.895203	0.601952	0.499960
C72	C	1.145203	0.851952	0.749960
C73	C	0.301180	0.100445	-0.000044
C74	C	0.551180	0.350445	0.249956
C75	C	0.801180	0.600445	0.499956
C76	C	1.051180	0.850445	0.749956
C77	C	0.662667	0.106232	-0.000029
C78	C	0.912667	0.356232	0.249971
C79	C	1.162667	0.606232	0.499971
C80	C	1.412667	0.856232	0.749971
C81	C	0.988265	-0.035037	-0.000032
C82	C	1.238265	0.214963	0.249968
C83	C	1.488265	0.464963	0.499968
C84	C	1.738265	0.714963	0.749968
C85	C	0.986792	-0.119057	-0.000036
C86	C	1.236792	0.130943	0.249964
C87	C	1.486792	0.380943	0.499964
C88	C	1.736792	0.630943	0.749964
C89	C	0.986107	-0.158525	-0.079871
C90	C	1.236107	0.091475	0.170129
C91	C	1.486107	0.341475	0.420129
C92	C	1.736107	0.591475	0.670129
C93	C	0.984717	-0.237470	-0.079872
C94	C	1.234717	0.012530	0.170128
C95	C	1.484717	0.262530	0.420128
C96	C	1.734717	0.512530	0.670128
C97	C	0.984019	-0.276946	-0.000037
C98	C	1.234019	-0.026946	0.249963
C99	C	1.484019	0.223054	0.499963
C100	C	1.734019	0.473054	0.749963
C101	C	0.984702	-0.237473	0.079804
C102	C	1.234702	0.012527	0.329804
C103	C	1.484702	0.262527	0.579804
C104	C	1.734702	0.512527	0.829804
C105	C	0.986086	-0.158529	0.079804
C106	C	1.236086	0.091471	0.329804
C107	C	1.486086	0.341471	0.579804
C108	C	1.736086	0.591471	0.829804
C109	C	0.979121	-0.555846	0.079805
C110	C	1.229121	-0.305846	0.329805
C111	C	1.479121	-0.055846	0.579805
C112	C	1.729121	0.194154	0.829805
C113	C	0.977740	-0.634796	0.079799
C114	C	1.227740	-0.384796	0.329799
C115	C	1.477740	-0.134796	0.579799
C116	C	1.727740	0.115204	0.829799
C117	C	0.977753	-0.634787	-0.079870
C118	C	1.227753	-0.384787	0.170130
C119	C	1.477753	-0.134787	0.420130
C120	C	1.727753	0.115213	0.670130
C121	C	0.979136	-0.555843	-0.079870
C122	C	1.229136	-0.305843	0.170130
C123	C	1.479136	-0.055843	0.420130
C124	C	1.729136	0.194157	0.670130
C125	C	0.979815	-0.516376	-0.000030
C126	C	1.229815	-0.266376	0.249970
C127	C	1.479815	-0.016376	0.499970
C128	C	1.729815	0.233624	0.749970
C129	C	0.981320	-0.430775	-0.000030
C130	C	1.231320	-0.180775	0.249970
C131	C	1.481320	0.069225	0.499970
C132	C	1.731320	0.319225	0.749970
C133	C	0.982520	-0.362547	-0.000036
C134	C	1.232520	-0.112547	0.249964
C135	C	1.482520	0.137453	0.499964
C136	C	1.732520	0.387453	0.749964
C137	C	1.133936	0.097776	-0.000039
C138	C	1.383936	0.347776	0.249961
C139	C	1.633936	0.597776	0.499961
C140	C	1.883936	0.847776	0.749961
C141	C	1.226228	0.099247	-0.000047
C142	C	1.476228	0.349247	0.249953
C143	C	1.726228	0.599247	0.499953
C144	C	1.976228	0.849247	0.749953
C145	C	0.975576	0.241716	-0.000035
C146	C	1.225576	0.491716	0.249965
C147	C	1.475576	0.741716	0.499965
C148	C	1.725576	0.991716	0.749965
C149	C	0.977049	0.325736	-0.000037
C150	C	1.227049	0.575736	0.249963
C151	C	1.477049	0.825736	0.499963
C152	C	1.727049	1.075736	0.749963
N153	N	0.981913	0.103336	0.228142
N154	N	1.231913	0.353336	0.478142
N155	N	1.481913	0.603336	0.728142
N156	N	1.731913	0.853336	0.978142
N157	N	0.981934	0.103336	-0.228207
N158	N	1.231934	0.353336	0.021793
N159	N	1.481934	0.603336	0.271793
N160	N	1.731934	0.853336	0.521793
C161	C	1.038556	0.051886	0.453864
C162	C	1.288556	0.301886	0.703864
C163	C	1.538556	0.551886	0.953864
C164	C	1.788556	0.801886	1.203864
C165	C	1.038559	0.051884	0.546054
C166	C	1.288559	0.301884	0.796054
C167	C	1.538559	0.551884	1.046054
C168	C	1.788559	0.801884	1.296054
C169	C	0.925285	0.154789	0.546065
C170	C	1.175285	0.404789	0.796065
C171	C	1.425285	0.654789	1.046065
C172	C	1.675285	0.904789	1.296065
C173	C	0.925279	0.154786	0.453877
C174	C	1.175279	0.404786	0.703877
C175	C	1.425279	0.654786	0.953877
C176	C	1.675279	0.904786	1.203877
C177	C	0.981919	0.103336	0.407779
C178	C	1.231919	0.353336	0.657779
C179	C	1.481919	0.603336	0.907779
C180	C	1.731919	0.853336	1.157779
C181	C	0.981928	0.103336	0.592156
C182	C	1.231928	0.353336	0.842156
C183	C	1.481928	0.603336	1.092156
C184	C	1.731928	0.853336	1.342156
C185	C	0.981930	0.103335	0.692112
C186	C	1.231930	0.353335	0.942112
C187	C	1.481930	0.603335	1.192112
C188	C	1.731930	0.853335	1.442112
C189	C	0.981916	0.103336	0.307816
C190	C	1.231916	0.353336	0.557816
C191	C	1.481916	0.603336	0.807816
C192	C	1.731916	0.853336	1.057816
H193	H	0.403251	0.102074	0.144805
H194	H	0.653251	0.352074	0.394805
H195	H	0.903251	0.602074	0.644805
H196	H	1.153251	0.852074	0.894805
H197	H	0.560601	0.104595	-0.144888
H198	H	0.810601	0.354595	0.105112
H199	H	1.060601	0.604595	0.355112
H200	H	1.310601	0.854595	0.605112
H201	H	1.084675	0.009991	0.416333
H202	H	1.334675	0.259991	0.666333
H203	H	1.584675	0.509991	0.916333
H204	H	1.834675	0.759991	1.166333
H205	H	0.986679	-0.126389	-0.144882
H206	H	1.236679	0.123611	0.105118
H207	H	1.486679	0.373611	0.355118
H208	H	1.736679	0.623611	0.605118
H209	H	0.403271	0.102080	-0.144883
H210	H	0.653271	0.352080	0.105117
H211	H	0.903271	0.602080	0.355117
H212	H	1.153271	0.852080	0.605117
H213	H	0.984129	-0.269621	0.144807
H214	H	1.234129	-0.019621	0.394807
H215	H	1.484129	0.230379	0.644807
H216	H	1.734129	0.480379	0.894807
H217	H	0.986632	-0.126394	0.144814
H218	H	1.236632	0.123606	0.394814
H219	H	1.486632	0.373606	0.644814
H220	H	1.736632	0.623606	0.894814
H221	H	0.984162	-0.269601	-0.144881
H222	H	1.234162	-0.019601	0.105119
H223	H	1.484162	0.230399	0.355119
H224	H	1.734162	0.480399	0.605119
H225	H	0.979709	-0.523705	-0.144880
H226	H	1.229709	-0.273705	0.105120
H227	H	1.479709	-0.023705	0.355120
H228	H	1.729709	0.226295	0.605120
H229	H	0.977196	-0.666930	-0.144880
H230	H	1.227196	-0.416930	0.105120
H231	H	1.477196	-0.166930	0.355120
H232	H	1.727196	0.083070	0.605120
H233	H	0.979691	-0.523724	0.144816
H234	H	1.229691	-0.273724	0.394816
H235	H	1.479691	-0.023724	0.644816
H236	H	1.729691	0.226276	0.894816
H237	H	0.879171	0.196680	0.583607
H238	H	1.129171	0.446680	0.833607
H239	H	1.379171	0.696680	1.083607
H240	H	1.629171	0.946680	1.333607
H241	H	0.977170	-0.666936	0.144814
H242	H	1.227170	-0.416936	0.394814
H243	H	1.477170	-0.166936	0.644814
H244	H	1.727170	0.083064	0.894814
H245	H	0.879154	0.196683	0.416351
H246	H	1.129154	0.446683	0.666351
H247	H	1.379154	0.696683	0.916351
H248	H	1.629154	0.946683	1.166351
H249	H	0.560562	0.104597	0.144813
H250	H	0.810562	0.354597	0.394813
H251	H	1.060562	0.604597	0.644813
H252	H	1.310562	0.854597	0.894813
H253	H	1.084677	0.009988	0.583574
H254	H	1.334677	0.259988	0.833574
H255	H	1.584677	0.509988	1.083574
H256	H	1.834677	0.759988	1.333574
