data_functionalizedCrystal
_audit_creation_method	'MofGen! by Chris Wilmer'
_symmetry_space_group_name_H-M	'P1'
_symmetry_Int_Tables_number	1
_symmetry_cell_setting	triclinic
loop_
_symmetry_equiv_pos_as_xyz
  x,y,z
_cell_length_a	14.044220
_cell_length_b	15.072220
_cell_length_c	15.995350
_cell_angle_alpha	89.998899
_cell_angle_beta	88.340626
_cell_angle_gamma	90.007881
loop_
_atom_site_label
_atom_site_type_symbol
_atom_site_fract_x
_atom_site_fract_y
_atom_site_fract_z
O1	O	1.257718	0.073680	0.201858
O2	O	0.981749	0.073703	0.194574
O3	O	1.127278	0.073690	0.076892
O4	O	1.112190	0.073693	0.319541
O5	O	1.127242	-0.073875	0.076897
O6	O	0.981713	-0.073862	0.194579
O7	O	1.257682	-0.073885	0.201863
Zn8	Zn	1.119692	-0.097303	0.198222
Zn9	Zn	1.119740	0.097121	0.198216
O10	O	1.112154	-0.073872	0.319545
C11	C	0.946417	-0.000077	0.191388
C12	C	0.841191	-0.000068	0.181877
N13	N	1.119667	-0.229992	0.198226
C14	C	0.648530	-0.000086	0.164489
C15	C	0.590896	-0.000089	0.231945
C16	C	0.483693	-0.000099	0.222270
C17	C	0.755743	-0.000076	0.174162
C18	C	1.119738	-0.589193	0.198212
C19	C	1.041607	-0.551579	0.260931
C20	C	1.041786	-0.448754	0.261195
C21	C	1.119702	-0.410989	0.198219
C22	C	1.218604	-0.448288	0.224687
C23	C	1.218166	-0.551146	0.225142
C24	C	1.099848	-0.551292	0.108887
C25	C	1.097578	-0.448429	0.109304
C26	C	1.119688	-0.310276	0.198221
C27	C	1.119758	-0.689907	0.198212
C28	C	1.293015	-0.000104	0.205049
C29	C	1.398241	-0.000107	0.214560
C30	C	1.126636	-0.000091	0.045653
C31	C	1.124766	-0.000086	-0.047437
N32	N	1.119772	0.229809	0.198206
C33	C	1.118050	-0.000088	-0.385686
C34	C	1.014408	0.000251	-0.345993
C35	C	1.016278	-0.000081	-0.249163
C36	C	1.121381	-0.000086	-0.217877
C37	C	1.172481	-0.084356	-0.255134
C38	C	1.169877	-0.084426	-0.351964
C39	C	1.172059	0.083383	-0.352167
C40	C	1.172035	0.084496	-0.255224
C41	C	1.123269	-0.000088	-0.123038
C42	C	1.116165	-0.000092	-0.480525
C43	C	1.112796	-0.000089	0.350784
C44	C	1.114666	-0.000089	0.443874
H45	H	0.622068	-0.000084	0.296962
Br46	Br	0.596579	-0.000092	0.056128
Br47	Br	1.194812	-0.591830	0.030949
Br48	Br	1.299422	0.084323	-0.395590
Br49	Br	0.919235	-0.406719	0.233151
H50	H	1.236550	-0.422520	0.289358
Br51	Br	0.918668	-0.592813	0.233100
H52	H	1.054133	-0.577418	0.326684
H53	H	1.150788	-0.422725	0.059872
Br54	Br	0.982234	-0.594570	0.069536
H55	H	1.054487	-0.424140	0.327328
Br56	Br	1.110288	0.188419	-0.213885
H57	H	1.235693	-0.575129	0.290512
H58	H	1.248682	0.089581	-0.234137
H59	H	0.973152	-0.059837	-0.368666
Br60	Br	1.317882	-0.592621	0.152440
H61	H	1.245969	-0.088253	-0.378528
H62	H	1.278133	-0.423825	0.180530
H63	H	1.024825	-0.424051	0.089389
H64	H	0.976109	0.060327	-0.223744
Br65	Br	0.945381	0.100977	-0.382036
Br66	Br	0.948821	-0.100923	-0.207745
H67	H	1.132585	-0.147415	-0.373048
H68	H	1.249697	-0.087493	-0.235241
Br69	Br	1.113281	-0.188875	-0.212250
Br70	Br	1.115598	0.189840	-0.390610
