data_functionalizedCrystal
_audit_creation_method	'MofGen! by Chris Wilmer'
_symmetry_space_group_name_H-M	'P1'
_symmetry_Int_Tables_number	1
_symmetry_cell_setting	triclinic
loop_
_symmetry_equiv_pos_as_xyz
  x,y,z
_cell_length_a	14.908783
_cell_length_b	12.759400
_cell_length_c	14.908308
_cell_angle_alpha	93.270344
_cell_angle_beta	89.788727
_cell_angle_gamma	93.304272
loop_
_atom_site_label
_atom_site_type_symbol
_atom_site_fract_x
_atom_site_fract_y
_atom_site_fract_z
Zn1	Zn	1.345353	-0.367466	-0.587851
Zn2	Zn	1.845353	0.132534	-0.087851
Zn3	Zn	1.353951	-0.532490	-0.437501
Zn4	Zn	1.853951	-0.032490	0.062499
Zn5	Zn	1.203666	-0.366329	-0.428823
Zn6	Zn	1.703666	0.133671	0.071177
Zn7	Zn	1.194979	-0.552608	-0.579124
Zn8	Zn	1.694979	-0.052608	-0.079124
O9	O	1.274488	-0.454723	-0.508325
O10	O	1.774488	0.045277	-0.008325
O11	O	1.472321	-0.381413	-0.575191
O12	O	1.972321	0.118587	-0.075191
O13	O	1.341250	-0.501553	-0.310526
O14	O	1.841250	-0.001553	0.189474
O15	O	1.222499	-0.219457	-0.449938
O16	O	1.722499	0.280543	0.050062
O17	O	1.478638	-0.502656	-0.464730
O18	O	1.978638	-0.002656	0.035270
O19	O	1.326596	-0.220293	-0.566776
O20	O	1.826596	0.279707	-0.066776
O21	O	1.230836	-0.379475	-0.304150
O22	O	1.730836	0.120525	0.195850
O23	O	1.076687	-0.398983	-0.441476
O24	O	1.576687	0.101017	0.058524
O25	O	1.207692	-0.536944	-0.706105
O26	O	1.707692	-0.036944	-0.206105
O27	O	1.070304	-0.535842	-0.551902
O28	O	1.570304	-0.035842	-0.051902
O29	O	1.318172	-0.400920	-0.712517
O30	O	1.818172	0.099080	-0.212517
O31	O	1.332826	-0.682181	-0.456267
O32	O	1.832826	-0.182181	0.043733
O33	O	1.216029	-0.696962	-0.560317
O34	O	1.716029	-0.196962	-0.060317
C35	C	1.040870	-0.469473	-0.494801
C36	C	1.540870	0.030527	0.005199
C37	C	0.940927	-0.475809	-0.489036
C38	C	1.440927	0.024191	0.010964
C39	C	0.746532	-0.361662	-0.593404
C40	C	1.246532	0.138338	-0.093404
C41	C	0.652626	-0.367613	-0.587991
C42	C	1.152626	0.132387	-0.087991
C43	C	0.659206	-0.493654	-0.472793
C44	C	1.159206	0.006346	0.027207
C45	C	0.753113	-0.487704	-0.478206
C46	C	1.253113	0.012296	0.021794
C47	C	0.796772	-0.421707	-0.538514
C48	C	1.296772	0.078293	-0.038514
C49	C	0.890680	-0.415763	-0.543932
C50	C	1.390680	0.084237	-0.043932
C51	C	0.897259	-0.541798	-0.428730
C52	C	1.397259	-0.041798	0.071270
C53	C	0.803353	-0.547748	-0.423316
C54	C	1.303353	-0.047748	0.076684
C55	C	1.274441	-0.727693	-0.508308
C56	C	1.774441	-0.227693	-0.008308
C57	C	1.274502	-0.844467	-0.508335
C58	C	1.774502	-0.344467	-0.008335
C59	C	1.328674	-0.899689	-0.569218
C60	C	1.828674	-0.399689	-0.069218
C61	C	1.328714	-1.009412	-0.569243
C62	C	1.828714	-0.509412	-0.069243
C63	C	1.220409	-1.008680	-0.447493
C64	C	1.720409	-0.508680	0.052507
C65	C	1.220365	-0.898960	-0.447474
C66	C	1.720365	-0.398960	0.052526
C67	C	1.382811	-0.845196	-0.630080
C68	C	1.882811	-0.345196	-0.130080
C69	C	1.436988	-0.900419	-0.690967
C70	C	1.936988	-0.400419	-0.190967
C71	C	1.437028	-1.010142	-0.690991
C72	C	1.937028	-0.510142	-0.190991
C73	C	1.382892	-1.064642	-0.630128
C74	C	1.882892	-0.564642	-0.130128
C75	C	1.509017	-0.439917	-0.521902
C76	C	2.009017	0.060083	-0.021902
C77	C	1.608959	-0.433608	-0.527688
C78	C	2.108959	0.066392	-0.027688
C79	C	1.261004	-0.471303	-0.742848
C80	C	1.761004	0.028697	-0.242848
C81	C	1.255258	-0.478368	-0.842788
C82	C	1.755258	0.021632	-0.342788
C83	C	1.274557	-0.180688	-0.508363
C84	C	1.774557	0.319312	-0.008363
C85	C	1.274587	-0.063910	-0.508379
C86	C	1.774587	0.436090	-0.008379
C87	C	1.359501	-0.349979	-1.037264
C88	C	1.859501	0.150021	-0.537264
C89	C	1.354105	-0.356614	-1.131167
C90	C	1.854105	0.143386	-0.631167
C91	C	1.239066	-0.498267	-1.124498
C92	C	1.739066	0.001733	-0.624498
C93	C	1.244462	-0.491632	-1.030595
C94	C	1.744462	0.008368	-0.530595
C95	C	1.304682	-0.417487	-0.986982
C96	C	1.804682	0.082513	-0.486982
C97	C	1.310082	-0.410858	-0.893078
C98	C	1.810082	0.089142	-0.393078
C99	C	1.195040	-0.552505	-0.886410
C100	C	1.695040	-0.052505	-0.386410
C101	C	1.189644	-0.559140	-0.980313
C102	C	1.689644	-0.059140	-0.480313
C103	C	1.287970	-0.438129	-0.274717
C104	C	1.787970	0.061871	0.225283
C105	C	1.293890	-0.430756	-0.174787
C106	C	1.793890	0.069244	0.325213
H107	H	0.926225	-0.362026	-0.593039
H108	H	1.426225	0.137974	-0.093039
H109	H	1.150405	-0.607477	-0.845460
H110	H	1.650405	-0.107477	-0.345460
H111	H	0.623643	-0.547373	-0.423683
H112	H	1.123643	-0.047373	0.076317
H113	H	0.767792	-0.601477	-0.374212
H114	H	1.267792	-0.101477	0.125788
H115	H	0.938174	-0.590699	-0.384041
H116	H	1.438174	-0.090699	0.115959
C117	C	1.172807	-0.579795	-1.172487
C118	C	1.672807	-0.079795	-0.672487
N119	N	1.122894	-0.641196	-1.208634
N120	N	1.622894	-0.141196	-0.708634
C121	C	1.496532	-0.840467	-0.757914
C122	C	1.996532	-0.340467	-0.257914
N123	N	1.541383	-0.795312	-0.808339
N124	N	2.041383	-0.295312	-0.308339
H125	H	0.782080	-0.307930	-0.642513
H126	H	1.282080	0.192070	-0.142513
C127	C	1.496624	-1.070883	-0.757966
C128	C	1.996624	-0.570883	-0.257966
N129	N	1.541519	-1.116631	-0.808410
N130	N	2.041519	-0.616631	-0.308410
H131	H	1.382918	-1.153987	-0.630163
H132	H	1.882918	-0.653987	-0.130163
H133	H	1.176335	-1.053063	-0.397941
H134	H	1.676335	-0.553063	0.102059
C135	C	1.123399	-0.640688	-1.028298
C136	C	1.623399	-0.140688	-0.528298
N137	N	1.073501	-0.702111	-1.064439
N138	N	1.573501	-0.202111	-0.564439
H139	H	0.611724	-0.318716	-0.632685
H140	H	1.111724	0.181284	-0.132685
C141	C	1.160782	-0.838211	-0.380492
C142	C	1.660782	-0.338211	0.119508
N143	N	1.115903	-0.792454	-0.330038
N144	N	1.615903	-0.292454	0.169962
C145	C	1.382768	-0.724499	-0.630061
C146	C	1.882768	-0.224499	-0.130061
N147	N	1.382734	-0.633591	-0.630047
N148	N	1.882734	-0.133591	-0.130047
H149	H	1.359118	-0.350486	-0.857569
H150	H	1.859118	0.149514	-0.357569
C151	C	1.425746	-0.268425	-0.989288
C152	C	1.925746	0.231575	-0.489288
N153	N	1.475643	-0.206995	-0.953154
N154	N	1.975643	0.293005	-0.453154
C155	C	1.414412	-0.282353	-1.186475
C156	C	1.914412	0.217647	-0.686475
N157	N	1.459838	-0.226416	-1.228133
N158	N	1.959838	0.273584	-0.728133
