data_functionalizedCrystal
_audit_creation_method	'MofGen! by Chris Wilmer'
_symmetry_space_group_name_H-M	'P1'
_symmetry_Int_Tables_number	1
_symmetry_cell_setting	triclinic
loop_
_symmetry_equiv_pos_as_xyz
  x,y,z
_cell_length_a	14.519709
_cell_length_b	15.995350
_cell_length_c	12.996460
_cell_angle_alpha	89.996086
_cell_angle_beta	90.000034
_cell_angle_gamma	83.586260
loop_
_atom_site_label
_atom_site_type_symbol
_atom_site_fract_x
_atom_site_fract_y
_atom_site_fract_z
O1	O	1.223669	0.109760	-0.085428
O2	O	1.557003	0.443093	0.247906
O3	O	1.890336	0.776427	0.581239
O4	O	0.955169	0.122686	-0.085458
O5	O	1.288502	0.456019	0.247875
O6	O	1.621836	0.789352	0.581208
O7	O	1.096759	-0.005654	-0.085441
O8	O	1.430092	0.327680	0.247892
O9	O	1.763426	0.661013	0.581225
O10	O	1.082080	0.238099	-0.085445
O11	O	1.415413	0.571433	0.247889
O12	O	1.748746	0.904766	0.581222
O13	O	1.096744	-0.005661	0.085693
O14	O	1.430077	0.327672	0.419026
O15	O	1.763411	0.661006	0.752359
O16	O	0.955154	0.122678	0.085675
O17	O	1.288488	0.456012	0.419009
O18	O	1.621821	0.789345	0.752342
O19	O	1.223655	0.109753	0.085706
O20	O	1.556988	0.443086	0.419040
O21	O	1.890321	0.776420	0.752373
Cu22	Cu	1.089403	0.116215	0.101317
Cu23	Cu	1.422736	0.449548	0.434650
Cu24	Cu	1.756070	0.782882	0.767983
Cu25	Cu	1.089421	0.116224	-0.101069
Cu26	Cu	1.422754	0.449557	0.232264
Cu27	Cu	1.756087	0.782890	0.565598
O28	O	1.082065	0.238092	0.085689
O29	O	1.415398	0.571426	0.419022
O30	O	1.748732	0.904759	0.752356
C31	C	0.920803	0.122080	0.000104
C32	C	1.254136	0.455413	0.333438
C33	C	1.587470	0.788746	0.666771
C34	C	0.818425	0.120275	0.000092
C35	C	1.151758	0.453608	0.333426
C36	C	1.485092	0.786941	0.666759
C37	C	1.096145	-0.036853	0.000124
C38	C	1.429478	0.296480	0.333457
C39	C	1.762811	0.629814	0.666790
C40	C	1.094325	-0.129806	0.000118
C41	C	1.427659	0.203527	0.333451
C42	C	1.760992	0.536861	0.666784
C43	C	0.443541	0.113629	0.000139
C44	C	0.776875	0.446962	0.333473
C45	C	1.110208	0.780296	0.666806
C46	C	0.547846	0.115475	0.000126
C47	C	0.881179	0.448808	0.333459
C48	C	1.214513	0.782141	0.666793
C49	C	0.630980	0.116952	0.000115
C50	C	0.964313	0.450285	0.333448
C51	C	1.297647	0.783618	0.666782
C52	C	0.735291	0.118797	0.000104
C53	C	1.068624	0.452131	0.333437
C54	C	1.401958	0.785464	0.666770
C55	C	1.087791	-0.467563	0.000120
C56	C	1.421125	-0.134230	0.333454
C57	C	1.754458	0.199103	0.666787
C58	C	0.986954	-0.420280	-0.000275
C59	C	1.320287	-0.086947	0.333058
C60	C	1.653620	0.246386	0.666392
C61	C	0.988773	-0.323587	0.000111
C62	C	1.322107	0.009746	0.333444
C63	C	1.655440	0.343079	0.666778
C64	C	1.091032	-0.299998	0.000118
C65	C	1.424366	0.033335	0.333452
C66	C	1.757699	0.366669	0.666785
C67	C	1.140761	-0.341005	0.097848
C68	C	1.474094	-0.007672	0.431181
C69	C	1.807427	0.325662	0.764515
C70	C	1.138227	-0.437645	0.097930
C71	C	1.471561	-0.104311	0.431263
C72	C	1.804894	0.229022	0.764596
C73	C	1.140327	-0.437992	-0.096681
C74	C	1.473661	-0.104658	0.236652
C75	C	1.806994	0.228675	0.569985
C76	C	1.140303	-0.341046	-0.097973
C77	C	1.473637	-0.007713	0.235361
C78	C	1.806970	0.325620	0.568694
C79	C	1.092869	-0.205298	0.000121
C80	C	1.426203	0.128036	0.333454
C81	C	1.759536	0.461369	0.666787
C82	C	1.085957	-0.562264	0.000125
C83	C	1.419291	-0.228931	0.333458
C84	C	1.752624	0.104403	0.666792
C85	C	1.258021	0.110359	0.000141
C86	C	1.591354	0.443692	0.333474
C87	C	1.924687	0.777026	0.666808
C88	C	1.360399	0.112164	0.000146
C89	C	1.693732	0.445497	0.333480
C90	C	2.027065	0.778831	0.666813
C91	C	1.082679	0.269292	0.000122
C92	C	1.416012	0.602625	0.333455
C93	C	1.749346	0.935958	0.666788
C94	C	1.084498	0.362245	0.000121
C95	C	1.417832	0.695578	0.333454
C96	C	1.751165	1.028911	0.666788
N97	N	1.089398	0.116209	0.243664
N98	N	1.422731	0.449542	0.576997
N99	N	1.756064	0.782875	0.910330
N100	N	1.089433	0.116223	-0.243416
N101	N	1.422767	0.449557	0.089917
N102	N	1.756100	0.782890	0.423251
C103	C	1.089419	0.116224	0.663478
C104	C	1.422753	0.449558	0.996811
C105	C	1.756086	0.782891	1.330145
C106	C	1.089411	0.116223	0.546673
C107	C	1.422744	0.449556	0.880006
C108	C	1.756077	0.782889	1.213340
C109	C	1.089409	0.116217	0.453575
C110	C	1.422742	0.449550	0.786908
C111	C	1.756076	0.782884	1.120241
C112	C	1.089399	0.116214	0.336762
C113	C	1.422733	0.449548	0.670095
C114	C	1.756066	0.782881	1.003429
H115	H	0.949683	-0.295221	-0.069946
H116	H	1.283017	0.038112	0.263387
H117	H	1.616350	0.371446	0.596721
O118	O	0.933555	-0.444914	-0.093092
O119	O	1.266888	-0.111581	0.240242
O120	O	1.600221	0.221753	0.573575
H121	H	0.978309	-0.491124	-0.139934
H122	H	1.311643	-0.157790	0.193399
H123	H	1.644976	0.175543	0.526733
O124	O	1.238807	-0.479917	-0.097561
O125	O	1.572140	-0.146583	0.235772
O126	O	1.905473	0.186750	0.569106
H127	H	1.250324	-0.521619	-0.029429
H128	H	1.583657	-0.188285	0.303905
H129	H	1.916991	0.145048	0.637238
H130	H	1.214875	-0.325572	-0.103868
H131	H	1.548209	0.007761	0.229466
H132	H	1.881542	0.341094	0.562799
O133	O	0.933793	-0.446313	0.092031
O134	O	1.267126	-0.112980	0.425364
O135	O	1.600460	0.220354	0.758698
H136	H	0.862717	-0.412578	0.091004
H137	H	1.196050	-0.079244	0.424337
H138	H	1.529383	0.254089	0.757671
H139	H	0.949408	-0.295785	0.070278
H140	H	1.282742	0.037549	0.403612
H141	H	1.616075	0.370882	0.736945
O142	O	1.090169	-0.461973	0.194681
O143	O	1.423503	-0.128640	0.528014
O144	O	1.756836	0.204694	0.861348
H145	H	1.068950	-0.404739	0.240968
H146	H	1.402283	-0.071406	0.574301
H147	H	1.735616	0.261928	0.907635
H148	H	1.212261	-0.469782	0.102369
H149	H	1.545594	-0.136449	0.435702
H150	H	1.878927	0.196885	0.769036
H151	H	1.215887	-0.326767	0.101488
H152	H	1.549221	0.006566	0.434821
H153	H	1.882554	0.339900	0.768155
H154	H	1.106210	-0.312678	0.170570
H155	H	1.439543	0.020655	0.503903
H156	H	1.772876	0.353988	0.837236
O157	O	1.096699	-0.465254	-0.194822
O158	O	1.430032	-0.131921	0.138511
O159	O	1.763366	0.201413	0.471844
H160	H	1.023305	-0.437220	-0.198304
H161	H	1.356639	-0.103887	0.135029
H162	H	1.689972	0.229447	0.468363
H163	H	1.103946	-0.313849	-0.170271
H164	H	1.437279	0.019484	0.163063
H165	H	1.770612	0.352818	0.496396
