data_functionalizedCrystal
_audit_creation_method	'MofGen! by Chris Wilmer'
_symmetry_space_group_name_H-M	'P1'
_symmetry_Int_Tables_number	1
_symmetry_cell_setting	triclinic
loop_
_symmetry_equiv_pos_as_xyz
  x,y,z
_cell_length_a	9.065218
_cell_length_b	14.853567
_cell_length_c	8.140239
_cell_angle_alpha	90.000276
_cell_angle_beta	89.997198
_cell_angle_gamma	84.325408
loop_
_atom_site_label
_atom_site_type_symbol
_atom_site_fract_x
_atom_site_fract_y
_atom_site_fract_z
O1	O	1.957778	0.132191	-0.136602
O2	O	2.457778	0.632191	0.363398
O3	O	1.528278	0.143034	-0.136603
O4	O	2.028278	0.643034	0.363397
O5	O	1.754501	0.006468	-0.136607
O6	O	2.254501	0.506468	0.363393
O7	O	1.731555	0.268757	-0.136598
O8	O	2.231555	0.768757	0.363402
O9	O	1.754488	0.006466	0.136620
O10	O	2.254488	0.506466	0.636620
O11	O	1.528266	0.143032	0.136624
O12	O	2.028266	0.643032	0.636624
O13	O	1.957765	0.132189	0.136625
O14	O	2.457765	0.632189	0.636625
Zn15	Zn	1.743014	0.137611	0.180005
Zn16	Zn	2.243014	0.637611	0.680005
Zn17	Zn	1.743030	0.137613	-0.179983
Zn18	Zn	2.243030	0.637613	0.320017
O19	O	1.731543	0.268756	0.136630
O20	O	2.231543	0.768756	0.636630
C21	C	1.473306	0.141991	0.000010
C22	C	1.973306	0.641991	0.500010
C23	C	1.309525	0.138875	0.000009
C24	C	1.809525	0.638875	0.500009
C25	C	1.753455	-0.027130	0.000001
C26	C	2.253455	0.472870	0.500001
C27	C	1.750339	-0.127236	-0.000013
C28	C	2.250339	0.372764	0.499987
C29	C	1.602788	-0.540862	0.000018
C30	C	2.102788	-0.040862	0.500018
C31	C	1.871546	-0.560154	0.000019
C32	C	2.371546	-0.060154	0.500019
C33	C	1.874475	-0.466099	0.000009
C34	C	2.374475	0.033901	0.500009
C35	C	1.741559	-0.409421	0.000006
C36	C	2.241559	0.090579	0.500006
C37	C	1.605714	-0.446798	0.000013
C38	C	2.105714	0.053202	0.500013
C39	C	2.010318	-0.428714	0.000018
C40	C	2.510318	0.071286	0.500018
C41	C	2.013253	-0.334654	0.000011
C42	C	2.513253	0.165346	0.500011
C43	C	1.880335	-0.277974	-0.000004
C44	C	2.380335	0.222026	0.499996
C45	C	1.744484	-0.315356	0.000002
C46	C	2.244484	0.184644	0.500002
C47	C	1.611568	-0.258678	-0.000001
C48	C	2.111568	0.241322	0.499999
C49	C	1.475716	-0.296059	-0.000008
C50	C	1.975716	0.203941	0.499992
C51	C	1.472796	-0.390118	-0.000001
C52	C	1.972796	0.109882	0.499999
C53	C	1.883255	-0.183915	-0.000010
C54	C	2.383255	0.316085	0.499990
C55	C	1.614494	-0.164614	-0.000006
C56	C	2.114494	0.335386	0.499994
C57	C	2.012738	0.133232	0.000008
C58	C	2.512738	0.633232	0.500008
C59	C	2.176519	0.136348	-0.000001
C60	C	2.676519	0.636348	0.499999
C61	C	1.732589	0.302353	0.000017
C62	C	2.232589	0.802353	0.500017
C63	C	1.735704	0.402460	0.000021
C64	C	2.235704	0.902460	0.500021
N65	N	1.743013	0.137609	0.425688
N66	N	2.243013	0.637609	0.925688
N67	N	1.743042	0.137608	-0.425666
N68	N	2.243042	0.637608	0.074334
H69	H	1.506255	-0.118471	-0.000015
H70	H	2.006255	0.381529	0.499985
O71	O	2.000790	-0.615077	0.000091
O72	O	2.500790	-0.115077	0.500091
C73	C	2.267673	-0.624293	-0.000033
C74	C	2.767673	-0.124293	0.499967
C75	C	2.121409	-0.561985	-0.000068
C76	C	2.621409	-0.061985	0.499932
H77	H	2.365232	-0.581393	-0.000196
H78	H	2.865232	-0.081393	0.499804
H79	H	2.273126	-0.668791	0.114343
H80	H	2.773126	-0.168791	0.614343
H81	H	2.272935	-0.668834	-0.114348
H82	H	2.772935	-0.168834	0.385652
H83	H	2.116049	-0.517388	0.114169
H84	H	2.616049	-0.017388	0.614169
H85	H	2.116016	-0.517548	-0.114519
H86	H	2.616016	-0.017548	0.385481
H87	H	2.123872	-0.304227	0.000014
H88	H	2.623872	0.195773	0.500014
O89	O	1.346741	-0.240868	-0.000080
O90	O	1.846741	0.259132	0.499920
C91	C	1.232167	-0.087406	0.000031
C92	C	1.732167	0.412594	0.500031
C93	C	1.378332	-0.149808	0.000074
C94	C	1.878332	0.350192	0.500074
H95	H	1.257657	-0.013771	0.000190
H96	H	1.757657	0.486229	0.500190
H97	H	1.165311	-0.101064	-0.114345
H98	H	1.665311	0.398936	0.385655
H99	H	1.165312	-0.101193	0.114346
H100	H	1.665312	0.398807	0.614346
H101	H	1.445305	-0.136057	-0.114163
H102	H	1.945305	0.363943	0.385837
H103	H	1.445076	-0.136137	0.114525
H104	H	1.945076	0.363863	0.614525
H105	H	1.492180	-0.571302	0.000006
H106	H	1.992180	-0.071302	0.500006
O107	O	2.015076	-0.147453	0.000070
O108	O	2.515076	0.352547	0.500070
C109	C	2.138696	-0.011102	-0.000038
C110	C	2.638696	0.488898	0.499962
C111	C	1.989297	-0.052272	-0.000088
C112	C	2.489297	0.447728	0.499912
H113	H	2.117905	0.065857	-0.000200
H114	H	2.617905	0.565857	0.499800
H115	H	2.204397	-0.034282	0.114342
H116	H	2.704397	0.465718	0.614342
H117	H	2.204397	-0.034413	-0.114348
H118	H	2.704397	0.465587	0.385652
H119	H	1.923475	-0.028981	0.114145
H120	H	2.423475	0.471019	0.614145
H121	H	1.923709	-0.029096	-0.114543
H122	H	2.423709	0.470904	0.385457
H123	H	1.362192	-0.420562	-0.000005
H124	H	1.862192	0.079438	0.499995
H125	H	2.118531	-0.474868	0.000036
H126	H	2.618531	0.025132	0.500036
