data_functionalizedCrystal
_audit_creation_method	'MofGen! by Chris Wilmer'
_symmetry_space_group_name_H-M	'P1'
_symmetry_Int_Tables_number	1
_symmetry_cell_setting	triclinic
loop_
_symmetry_equiv_pos_as_xyz
  x,y,z
_cell_length_a	14.971486
_cell_length_b	19.288865
_cell_length_c	14.048226
_cell_angle_alpha	89.988335
_cell_angle_beta	89.998499
_cell_angle_gamma	83.375189
loop_
_atom_site_label
_atom_site_type_symbol
_atom_site_fract_x
_atom_site_fract_y
_atom_site_fract_z
O1	O	1.186458	0.090517	-0.079062
O2	O	1.686458	0.590517	0.420938
O3	O	0.925999	0.101357	-0.079090
O4	O	1.425999	0.601357	0.420910
O5	O	1.063754	-0.005169	-0.079056
O6	O	1.563754	0.494831	0.420944
O7	O	1.048702	0.197043	-0.079096
O8	O	1.548702	0.697043	0.420904
O9	O	1.063738	-0.005175	0.079265
O10	O	1.563738	0.494825	0.579265
O11	O	0.925982	0.101351	0.079232
O12	O	1.425982	0.601351	0.579232
O13	O	1.186441	0.090511	0.079259
O14	O	1.686441	0.590511	0.579259
Zn15	Zn	1.056209	0.095930	0.104382
Zn16	Zn	1.556209	0.595930	0.604382
Zn17	Zn	1.056231	0.095938	-0.104213
Zn18	Zn	1.556231	0.595938	0.395787
O19	O	1.048686	0.197037	0.079226
O20	O	1.548686	0.697037	0.579226
C21	C	0.892669	0.100869	0.000068
C22	C	1.392669	0.600869	0.500068
C23	C	0.793379	0.099416	0.000058
C24	C	1.293379	0.599416	0.500058
C25	C	0.735816	0.161997	0.000047
C26	C	1.235816	0.661997	0.500047
C27	C	0.642524	0.160628	0.000062
C28	C	1.142524	0.660628	0.500062
C29	C	0.606797	0.096677	0.000080
C30	C	1.106797	0.596677	0.500080
C31	C	0.664368	0.034092	0.000094
C32	C	1.164368	0.534092	0.500094
C33	C	0.757658	0.035461	0.000086
C34	C	1.257658	0.535461	0.500086
C35	C	0.469921	0.031241	0.000108
C36	C	0.969921	0.531241	0.500108
C37	C	0.376624	0.029871	0.000113
C38	C	0.876624	0.529871	0.500113
C39	C	0.354786	0.156407	0.000083
C40	C	0.854786	0.656407	0.500083
C41	C	0.448077	0.157777	0.000075
C42	C	0.948077	0.657777	0.500075
C43	C	0.505641	0.095191	0.000087
C44	C	1.005641	0.595191	0.500087
C45	C	1.063262	-0.031050	0.000107
C46	C	1.563262	0.468950	0.500107
C47	C	1.061808	-0.108158	0.000115
C48	C	1.561808	0.391842	0.500115
C49	C	1.142636	-0.152591	0.000128
C50	C	1.642636	0.347409	0.500128
C51	C	1.141271	-0.225043	0.000113
C52	C	1.641271	0.274957	0.500113
C53	C	1.059071	-0.253058	0.000104
C54	C	1.559071	0.246942	0.500104
C55	C	0.978232	-0.208615	0.000085
C56	C	1.478232	0.291385	0.500085
C57	C	0.979600	-0.136166	0.000091
C58	C	1.479600	0.363834	0.500091
C59	C	0.994448	-0.361558	0.055554
C60	C	1.494448	0.138442	0.555554
C61	C	0.993083	-0.434007	0.055554
C62	C	1.493083	0.065993	0.555554
C63	C	1.054848	-0.476517	0.000082
C64	C	1.554848	0.023483	0.500082
C65	C	1.117994	-0.446571	-0.055378
C66	C	1.617994	0.053429	0.444622
C67	C	1.119362	-0.374121	-0.055372
C68	C	1.619362	0.125879	0.444628
C69	C	1.057579	-0.331617	0.000097
C70	C	1.557579	0.168383	0.500097
C71	C	1.134201	-0.599511	0.000077
C72	C	1.634201	-0.099511	0.500077
C73	C	1.132832	-0.671963	0.000056
C74	C	1.632832	-0.171963	0.500056
C75	C	0.969791	-0.655535	0.000038
C76	C	1.469791	-0.155535	0.500038
C77	C	0.971163	-0.583084	0.000050
C78	C	1.471163	-0.083084	0.500050
C79	C	1.053370	-0.555077	0.000074
C80	C	1.553370	-0.055077	0.500074
C81	C	1.219771	0.090999	0.000099
C82	C	1.719771	0.590999	0.500099
C83	C	1.319061	0.092452	0.000103
C84	C	1.819061	0.592452	0.500103
C85	C	1.049178	0.222918	0.000060
C86	C	1.549178	0.722918	0.500060
C87	C	1.050632	0.300026	0.000046
C88	C	1.550632	0.800026	0.500046
N89	N	1.056201	0.095924	0.246743
N90	N	1.556201	0.595924	0.746743
N91	N	1.056246	0.095939	-0.246574
N92	N	1.556246	0.595939	0.253426
C93	C	1.117218	0.048774	0.296576
C94	C	1.617218	0.548774	0.796576
C95	C	1.117224	0.048773	0.396233
C96	C	1.617224	0.548773	0.896233
C97	C	1.056217	0.095927	0.446056
C98	C	1.556217	0.595927	0.946056
C99	C	0.995193	0.143079	0.396217
C100	C	1.495193	0.643079	0.896217
C101	C	0.995183	0.143076	0.296561
C102	C	1.495183	0.643076	0.796561
C103	C	0.995219	0.143084	0.603931
C104	C	1.495219	0.643084	1.103931
C105	C	0.995229	0.143089	0.703593
C106	C	1.495229	0.643089	1.203593
C107	C	1.117259	0.048782	0.703603
C108	C	1.617259	0.548782	1.203603
C109	C	1.117250	0.048778	0.603947
C110	C	1.617250	0.548778	1.103947
C111	C	1.056227	0.095932	0.554115
C112	C	1.556227	0.595932	1.054115
H113	H	0.764896	0.214073	0.000032
H114	H	1.264896	0.714073	0.500032
O115	O	1.183004	-0.002102	0.242846
O116	O	1.683004	0.497898	0.742846
H117	H	1.172748	0.005814	0.165177
H118	H	1.672748	0.505814	0.665177
H119	H	0.913778	-0.099988	0.000081
H120	H	1.413778	0.400012	0.500081
O121	O	0.292700	0.223911	0.000079
O122	O	0.792700	0.723911	0.500079
H123	H	0.333216	0.268609	0.000054
H124	H	0.833216	0.768609	0.500054
O125	O	0.486608	0.226754	0.000067
O126	O	0.986608	0.726754	0.500067
H127	H	0.463459	0.256838	-0.064460
H128	H	0.963459	0.756838	0.435540
O129	O	0.889573	-0.238827	0.000075
O130	O	1.389573	0.261173	0.500075
H131	H	0.850737	-0.220987	0.064596
H132	H	1.350737	0.279013	0.564596
H133	H	1.198655	-0.708141	0.000062
H134	H	1.698655	-0.208141	0.500062
H135	H	1.166908	0.010380	0.436807
H136	H	1.666908	0.510380	0.936807
O137	O	1.183074	-0.002084	0.757342
O138	O	1.683074	0.497916	1.257342
H139	H	1.172825	0.005832	0.835010
H140	H	1.672825	0.505832	1.335010
H141	H	1.207093	-0.261227	0.000120
H142	H	1.707093	0.238773	0.500120
H143	H	1.166931	0.010386	0.563382
H144	H	1.666931	0.510386	1.063382
O145	O	0.929363	0.193919	0.242800
O146	O	1.429363	0.693919	0.742800
H147	H	0.966860	0.227722	0.197363
H148	H	1.466860	0.727722	0.697363
H149	H	1.170775	-0.349742	-0.100531
H150	H	1.670775	0.150258	0.399469
H151	H	1.168289	-0.481182	-0.100548
H152	H	1.668289	0.018818	0.399452
H153	H	0.945550	0.181485	0.744154
H154	H	1.445550	0.681485	1.244154
O155	O	0.580434	0.228125	0.000051
O156	O	1.080434	0.728125	0.500051
H157	H	0.620949	0.272824	0.000025
H158	H	1.120949	0.772824	0.500025
O159	O	1.222861	-0.569294	0.000084
O160	O	1.722861	-0.069294	0.500084
H161	H	1.278840	-0.612366	0.000073
H162	H	1.778840	-0.112366	0.500073
H163	H	0.347539	-0.022204	0.000130
H164	H	0.847539	0.477796	0.500130
O165	O	0.929408	0.193944	0.550176
O166	O	1.429408	0.693944	1.050176
H167	H	0.886994	0.226740	0.601562
H168	H	1.386994	0.726740	1.101562
O169	O	0.929399	0.193945	0.449951
O170	O	1.429399	0.693945	0.949951
H171	H	0.859707	0.185005	0.430849
H172	H	1.359707	0.685005	0.930849
O173	O	0.532014	-0.036261	0.000116
O174	O	1.032014	0.463739	0.500116
H175	H	0.491500	-0.080960	0.000119
H176	H	0.991500	0.419040	0.500119
O177	O	1.231303	-0.122387	0.000147
O178	O	1.731303	0.377613	0.500147
H179	H	1.218678	-0.064542	0.000156
H180	H	1.718678	0.435458	0.500156
H181	H	0.635272	-0.017978	0.000123
H182	H	1.135272	0.482022	0.500123
H183	H	0.804527	-0.015498	0.000094
H184	H	1.304527	0.484502	0.500094
H185	H	0.902863	-0.678344	0.000026
H186	H	1.402863	-0.178344	0.500026
O187	O	0.883984	-0.535152	0.000059
O188	O	1.383984	-0.035152	0.500059
H189	H	0.826594	-0.566803	0.000062
H190	H	1.326594	-0.066803	0.500062
O191	O	0.927829	-0.315709	0.115392
O192	O	1.427829	0.184291	0.615392
H193	H	0.883704	-0.348703	0.153967
H194	H	1.383704	0.151297	0.653967
O195	O	0.924983	-0.466306	0.115369
O196	O	1.424983	0.033694	0.615369
H197	H	0.882252	-0.424575	0.153929
H198	H	1.382252	0.075425	0.653929
