data_functionalizedCrystal
_audit_creation_method	'MofGen! by Chris Wilmer'
_symmetry_space_group_name_H-M	'P1'
_symmetry_Int_Tables_number	1
_symmetry_cell_setting	triclinic
loop_
_symmetry_equiv_pos_as_xyz
  x,y,z
_cell_length_a	19.805407
_cell_length_b	10.685194
_cell_length_c	19.805399
_cell_angle_alpha	85.604649
_cell_angle_beta	89.980427
_cell_angle_gamma	94.376925
loop_
_atom_site_label
_atom_site_type_symbol
_atom_site_fract_x
_atom_site_fract_y
_atom_site_fract_z
Zn1	Zn	1.014165	-0.502437	-0.362068
Zn2	Zn	1.005440	-0.713475	-0.240206
Zn3	Zn	0.900979	-0.502472	-0.248891
Zn4	Zn	0.892306	-0.713407	-0.353355
O5	O	0.953223	-0.607948	-0.301130
O6	O	1.107724	-0.530445	-0.345914
O7	O	0.991561	-0.685527	-0.146639
O8	O	0.923274	-0.325871	-0.271186
O9	O	1.101314	-0.685493	-0.256382
O10	O	1.006432	-0.325845	-0.354336
O11	O	0.914814	-0.530505	-0.153021
O12	O	0.805112	-0.530440	-0.262737
O13	O	0.908493	-0.685379	-0.449229
O14	O	0.798741	-0.685413	-0.339486
O15	O	0.998023	-0.530380	-0.455631
O16	O	0.983152	-0.890063	-0.247934
O17	O	0.900033	-0.890013	-0.331064
C18	C	0.777368	-0.607924	-0.301109
C19	C	0.702135	-0.607944	-0.301115
C20	C	0.663486	-0.688760	-0.341003
C21	C	0.592797	-0.688762	-0.341013
C22	C	0.560759	-0.607954	-0.301130
C23	C	0.599413	-0.527129	-0.261240
C24	C	0.670101	-0.527121	-0.261235
C25	C	0.314339	-0.527157	-0.261261
C26	C	0.243646	-0.527173	-0.261268
C27	C	0.237035	-0.688798	-0.341039
C28	C	0.307723	-0.688790	-0.341034
C29	C	0.346371	-0.607961	-0.301147
C30	C	0.423020	-0.607958	-0.301138
C31	C	0.484111	-0.607962	-0.301134
C32	C	0.939723	-0.935828	-0.287626
C33	C	0.934010	-1.076096	-0.281871
C34	C	1.129764	-0.607973	-0.301151
C35	C	1.204996	-0.607984	-0.301160
C36	C	0.953264	-0.607868	-0.477676
C37	C	0.953282	-0.607834	-0.552909
C38	C	0.966794	-0.278788	-0.314702
C39	C	0.972577	-0.138519	-0.320485
C40	C	0.999901	-0.527123	-0.591588
C41	C	0.999909	-0.527086	-0.662278
C42	C	0.953301	-0.607769	-0.694288
C43	C	0.906677	-0.688484	-0.655604
C44	C	0.906666	-0.688513	-0.584916
C45	C	0.906720	-0.688366	-0.940682
C46	C	0.906736	-0.688334	-1.011376
C47	C	0.999963	-0.526939	-1.018045
C48	C	0.999952	-0.526968	-0.947356
C49	C	0.953326	-0.607679	-0.908679
C50	C	0.953317	-0.607716	-0.832029
C51	C	0.953313	-0.607739	-0.770936
C52	C	0.953224	-0.607936	-0.125275
C53	C	0.953352	-0.607614	-0.050056
H54	H	0.689566	-0.754568	-0.373478
Br55	Br	0.540347	-0.798443	-0.395151
Br56	Br	0.555934	-0.417446	-0.207119
Br57	Br	1.034899	-1.048744	-0.382933
Br58	Br	0.843391	-0.798047	-0.532422
H59	H	0.896611	-1.129968	-0.244410
H60	H	1.037856	-0.461425	-0.565531
H61	H	0.701569	-0.461306	-0.228757
Br62	Br	1.063210	-0.417602	-0.714766
Br63	Br	1.063211	-0.417474	-0.903918
H64	H	0.868726	-0.754173	-0.681672
H65	H	0.333805	-0.754597	-0.373508
Br66	Br	0.184580	-0.798499	-0.395171
H67	H	1.037926	-0.461216	-1.049545
H68	H	0.868779	-0.754038	-1.037436
H69	H	0.868763	-0.754104	-0.909199
H70	H	0.217563	-0.461361	-0.228791
H71	H	0.345798	-0.461350	-0.228777
