data_functionalizedCrystal
_audit_creation_method	'MofGen! by Chris Wilmer'
_symmetry_space_group_name_H-M	'P1'
_symmetry_Int_Tables_number	1
_symmetry_cell_setting	triclinic
loop_
_symmetry_equiv_pos_as_xyz
  x,y,z
_cell_length_a	13.339070
_cell_length_b	11.892095
_cell_length_c	12.837942
_cell_angle_alpha	94.302569
_cell_angle_beta	105.229117
_cell_angle_gamma	85.042766
loop_
_atom_site_label
_atom_site_type_symbol
_atom_site_fract_x
_atom_site_fract_y
_atom_site_fract_z
O1	O	1.399806	-0.094044	0.529602
O2	O	1.098515	-0.094037	0.459445
O3	O	1.242480	-0.094034	0.341699
O4	O	1.255842	-0.094048	0.647347
O5	O	1.230474	0.093973	0.351496
O6	O	1.086510	0.093970	0.469241
O7	O	1.387801	0.093963	0.539398
Zn8	Zn	1.235249	0.123817	0.505875
Zn9	Zn	1.251067	-0.123891	0.492968
O10	O	1.243836	0.093959	0.657144
C11	C	1.053681	-0.000033	0.452492
C12	C	0.937974	-0.000030	0.417168
N13	N	1.224462	0.292870	0.514685
C14	C	1.231963	-0.000031	0.306679
C15	C	1.218501	-0.000032	0.187730
C16	C	0.599660	-0.000061	0.691833
C17	C	0.708373	-0.000067	0.725025
C18	C	0.765778	-0.000057	0.648064
C19	C	0.714461	-0.000042	0.537904
C20	C	0.605738	-0.000045	0.504708
C21	C	0.771856	-0.000042	0.460939
C22	C	0.720538	-0.000027	0.350779
C23	C	0.611826	-0.000029	0.317588
C24	C	0.554420	-0.000038	0.394550
C25	C	0.880579	-0.000039	0.494135
C26	C	0.886656	-0.000023	0.307010
C27	C	0.777944	-0.000017	0.273817
C28	C	1.432635	-0.000044	0.546351
C29	C	1.548343	-0.000054	0.581675
N30	N	1.261862	-0.292945	0.484152
C31	C	1.336921	0.529521	0.422784
C32	C	1.329389	0.647863	0.428952
C33	C	1.201860	0.647898	0.533183
C34	C	1.209392	0.529556	0.527015
C35	C	1.276926	0.470372	0.471815
C36	C	1.284463	0.352028	0.465654
C37	C	1.156929	0.352065	0.569878
C38	C	1.149397	0.470407	0.576046
C39	C	1.380342	-0.000059	-0.006682
C40	C	1.367698	-0.000061	-0.118444
C41	C	1.180571	-0.000045	-0.147560
C42	C	1.193215	-0.000043	-0.035798
C43	C	1.293103	-0.000049	0.034638
C44	C	1.305746	-0.000039	0.146403
C45	C	1.118620	-0.000031	0.117285
C46	C	1.105976	-0.000033	0.005522
C47	C	1.254353	-0.000046	0.692164
C48	C	1.267816	-0.000052	0.811113
H49	H	0.922351	-0.000047	0.583827
C50	C	1.076180	0.534873	0.635975
C51	C	1.082440	0.651173	0.630905
C52	C	1.015019	0.710591	0.686116
H53	H	1.006806	0.515633	0.603446
H54	H	1.095587	0.515540	0.709406
H55	H	1.063027	0.670498	0.557487
H56	H	1.151797	0.670446	0.663440
H57	H	1.034426	0.691258	0.759548
H58	H	0.945650	0.691342	0.653582
H59	H	1.019265	0.789506	0.682692
H60	H	0.465897	-0.000033	0.367530
C61	C	1.091970	0.287704	0.623216
C62	C	1.158020	0.219736	0.700896
C63	C	1.098224	0.160422	0.750050
H64	H	1.050665	0.339778	0.657062
H65	H	1.047917	0.241479	0.570014
H66	H	1.202054	0.265957	0.754090
H67	H	1.199325	0.167641	0.667078
H68	H	1.054171	0.114197	0.696848
H69	H	1.056922	0.212504	0.783889
H70	H	1.143029	0.114291	0.802754
H71	H	1.047583	-0.000014	0.150939
H72	H	0.552912	-0.000078	0.754482
C73	C	1.488876	-0.000122	0.069619
C74	C	1.562574	-0.000155	0.009509
C75	C	1.662568	-0.000230	0.079758
H76	H	1.493661	0.065421	0.117264
H77	H	1.501936	-0.065712	0.110391
H78	H	1.549519	0.065429	-0.031245
H79	H	1.557822	-0.065693	-0.038133
H80	H	1.675628	-0.065821	0.120530
H81	H	1.667343	0.065314	0.127399
H82	H	1.712585	-0.000263	0.038983
H83	H	1.438737	-0.000073	-0.152082
H84	H	0.736146	-0.000015	0.184123
H85	H	0.933396	-0.000020	0.244341
H86	H	0.854297	-0.000065	0.675096
C87	C	1.357802	0.287972	0.405626
C88	C	1.408708	0.365108	0.363981
C89	C	1.476264	0.306145	0.308661
H90	H	1.407842	0.241790	0.453954
H91	H	1.319050	0.241843	0.348003
H92	H	1.447459	0.411218	0.421596
H93	H	1.358695	0.411293	0.315638
H94	H	1.437511	0.260016	0.251038
H95	H	1.526296	0.259965	0.356996
H96	H	1.510804	0.358473	0.280390
C97	C	1.394652	0.711879	0.375693
C98	C	1.455420	0.634713	0.326054
C99	C	1.515563	0.693643	0.276988
H100	H	1.350115	0.758059	0.322866
H101	H	1.438782	0.758008	0.428919
H102	H	1.411294	0.588604	0.272834
H103	H	1.499977	0.588531	0.378858
H104	H	1.559693	0.739772	0.330214
H105	H	1.471018	0.739821	0.224166
H106	H	1.556808	0.641296	0.243311
C107	C	0.997448	-0.000085	-0.070782
C108	C	0.923756	-0.000102	-0.010672
C109	C	0.823769	-0.000163	-0.080924
H110	H	0.984297	0.065457	-0.111604
H111	H	0.992758	-0.065677	-0.118383
H112	H	0.928443	0.065483	0.036910
H113	H	0.936873	-0.065638	0.030147
H114	H	0.819078	-0.065755	-0.128525
H115	H	0.810629	0.065380	-0.121742
H116	H	0.773758	-0.000185	-0.040150
H117	H	0.750149	-0.000088	0.814716
H118	H	0.570047	-0.000029	0.227889
H119	H	1.391918	0.481333	0.377847
H120	H	1.146868	0.696101	0.578117
H121	H	1.387080	-0.000039	0.203751
H122	H	1.099247	-0.000053	-0.204928
