data_functionalizedCrystal
_audit_creation_method	'MofGen! by Chris Wilmer'
_symmetry_space_group_name_H-M	'P1'
_symmetry_Int_Tables_number	1
_symmetry_cell_setting	triclinic
loop_
_symmetry_equiv_pos_as_xyz
  x,y,z
_cell_length_a	13.033286
_cell_length_b	14.908520
_cell_length_c	13.034356
_cell_angle_alpha	86.484238
_cell_angle_beta	89.095384
_cell_angle_gamma	85.722915
loop_
_atom_site_label
_atom_site_type_symbol
_atom_site_fract_x
_atom_site_fract_y
_atom_site_fract_z
Zn1	Zn	1.617765	-0.490506	-0.417737
Zn2	Zn	2.117765	0.009494	0.082263
Zn3	Zn	1.586316	-0.655460	-0.258005
Zn4	Zn	2.086316	-0.155460	0.241995
Zn5	Zn	1.424222	-0.485844	-0.267325
Zn6	Zn	1.924222	0.014156	0.232675
Zn7	Zn	1.438428	-0.618247	-0.449044
Zn8	Zn	1.938428	-0.118247	0.050956
O9	O	1.516683	-0.562514	-0.348028
O10	O	2.016683	-0.062514	0.151972
O11	O	1.756484	-0.529913	-0.379546
O12	O	2.256484	-0.029913	0.120454
O13	O	1.545707	-0.646583	-0.116343
O14	O	2.045707	-0.146583	0.383657
O15	O	1.457112	-0.362018	-0.278075
O16	O	1.957112	0.137982	0.221925
O17	O	1.733378	-0.651104	-0.262192
O18	O	2.233378	-0.151104	0.237808
O19	O	1.599308	-0.365443	-0.388583
O20	O	2.099308	0.134557	0.111417
O21	O	1.426617	-0.521967	-0.123190
O22	O	1.926617	-0.021967	0.376810
O23	O	1.283216	-0.485882	-0.308432
O24	O	1.783216	0.014118	0.191568
O25	O	1.481324	-0.587678	-0.587789
O26	O	1.981324	-0.087678	-0.087789
O27	O	1.293653	-0.583158	-0.441940
O28	O	1.793653	-0.083158	0.058060
O29	O	1.613083	-0.493828	-0.564788
O30	O	2.113083	0.006172	-0.064788
O31	O	1.559482	-0.774969	-0.292549
O32	O	2.059482	-0.274969	0.207451
O33	O	1.450829	-0.747628	-0.432904
O34	O	1.950829	-0.247628	0.067096
C35	C	1.251385	-0.529977	-0.379595
C36	C	1.751385	-0.029977	0.120405
C37	C	1.137891	-0.516076	-0.393126
C38	C	1.637891	-0.016076	0.106874
C39	C	1.075852	-0.569767	-0.340991
C40	C	1.575852	-0.069767	0.159009
C41	C	0.958550	-0.555401	-0.354975
C42	C	1.458550	-0.055401	0.145025
C43	C	1.503315	-0.793567	-0.365131
C44	C	2.003315	-0.293567	0.134869
C45	C	1.497694	-0.892420	-0.372471
C46	C	1.997694	-0.392420	0.127529
C47	C	1.600420	-1.106591	-0.240202
C48	C	2.100420	-0.606591	0.259798
C49	C	1.595142	-1.199474	-0.247095
C50	C	2.095142	-0.699474	0.252905
C51	C	1.481865	-1.171069	-0.393154
C52	C	1.981865	-0.671069	0.106846
C53	C	1.487144	-1.078187	-0.386261
C54	C	1.987144	-0.578187	0.113739
C55	C	1.546422	-1.045952	-0.309781
C56	C	2.046422	-0.545952	0.190219
C57	C	1.551694	-0.953067	-0.302885
C58	C	2.051694	-0.453067	0.197115
C59	C	1.438424	-0.924665	-0.448948
C60	C	1.938424	-0.424665	0.051052
C61	C	1.433145	-1.017547	-0.455841
C62	C	1.933145	-0.517547	0.044159
C63	C	1.783016	-0.595180	-0.316337
C64	C	2.283016	-0.095180	0.183663
C65	C	1.896512	-0.609100	-0.302833
C66	C	2.396512	-0.109100	0.197167
C67	C	1.552296	-0.537122	-0.614377
C68	C	2.052296	-0.037122	-0.114377
C69	C	1.567472	-0.526302	-0.727879
C70	C	2.067472	-0.026302	-0.227879
C71	C	1.530133	-0.330561	-0.330876
C72	C	2.030133	0.169439	0.169124
C73	C	1.535865	-0.231716	-0.323567
C74	C	2.035865	0.268284	0.176433
C75	C	1.524729	-0.556734	-0.907174
C76	C	2.024729	-0.056734	-0.407174
C77	C	1.509041	-0.567918	-0.789864
C78	C	2.009041	-0.067918	-0.289864
C79	C	1.481270	-0.587751	-0.082703
C80	C	1.981270	-0.087751	0.417297
C81	C	1.466306	-0.598345	0.030840
C82	C	1.966306	-0.098345	0.530840
H83	H	1.109580	-0.626372	-0.286009
H84	H	1.609580	-0.126372	0.213991
Br85	Br	0.902352	-0.461059	-0.446639
Br86	Br	1.402352	0.038941	0.053361
H87	H	1.104163	-0.459476	-0.448116
H88	H	1.604163	0.040524	0.051884
H89	H	1.599958	-0.926823	-0.240609
H90	H	2.099958	-0.426823	0.259391
H91	H	1.648679	-1.080345	-0.177923
H92	H	2.148679	-0.580345	0.322077
Br93	Br	0.952709	-0.703456	-0.211186
Br94	Br	1.452709	-0.203456	0.288814
Br95	Br	1.401443	-1.214834	-0.496954
Br96	Br	1.901443	-0.714834	0.003046
Br97	Br	1.668434	-1.281770	-0.152666
Br98	Br	2.168434	-0.781770	0.347334
H99	H	1.384886	-1.043806	-0.518110
H100	H	1.884886	-0.543806	-0.018110
Br101	Br	1.406315	-0.641108	-0.733578
Br102	Br	1.906315	-0.141108	-0.233578
Br103	Br	1.365115	-0.842361	-0.543368
Br104	Br	1.865115	-0.342361	-0.043368
Br105	Br	1.363584	-0.671532	-0.912869
Br106	Br	1.863584	-0.171532	-0.412869
H107	H	1.586366	-0.512835	-0.940953
H108	H	2.086366	-0.012835	-0.440953
H109	H	1.629112	-0.482397	-0.761652
H110	H	2.129112	0.017603	-0.261652
