data_functionalizedCrystal
_audit_creation_method	'MofGen! by Chris Wilmer'
_symmetry_space_group_name_H-M	'P1'
_symmetry_Int_Tables_number	1
_symmetry_cell_setting	triclinic
loop_
_symmetry_equiv_pos_as_xyz
  x,y,z
_cell_length_a	10.654546
_cell_length_b	10.654558
_cell_length_c	9.730223
_cell_angle_alpha	89.999578
_cell_angle_beta	90.007447
_cell_angle_gamma	95.514125
loop_
_atom_site_label
_atom_site_type_symbol
_atom_site_fract_x
_atom_site_fract_y
_atom_site_fract_z
O1	O	-1.667842	0.176372	-0.114518
O2	O	-1.302363	0.193183	-0.114470
O3	O	-1.493500	0.002039	-0.114489
O4	O	-1.476705	0.367516	-0.114499
O5	O	-1.493498	0.002044	0.114091
O6	O	-1.302361	0.193188	0.114110
O7	O	-1.667839	0.176377	0.114062
Zn8	Zn	-1.485100	0.184783	0.150378
Zn9	Zn	-1.485103	0.184777	-0.150786
O10	O	-1.476702	0.367521	0.114081
C11	C	-1.255564	0.191952	-0.000174
C12	C	-1.116120	0.188262	-0.000155
C13	C	-1.492264	-0.044756	-0.000200
C14	C	-1.488568	-0.184199	-0.000204
C15	C	-1.036638	0.300804	-0.000173
C16	C	-0.905617	0.297329	-0.000187
C17	C	-0.933573	0.068760	-0.000172
C18	C	-1.064592	0.072236	-0.000148
C19	C	-1.088166	0.416829	-0.000180
C20	C	-1.008682	0.529381	-0.000200
C21	C	-0.877661	0.525906	-0.000214
C22	C	-0.826124	0.409879	-0.000209
C23	C	-1.486827	-0.249710	0.124393
C24	C	-1.483365	-0.380733	0.124388
C25	C	-1.483379	-0.380721	-0.124822
C26	C	-1.486850	-0.249702	-0.124816
C27	C	-1.488545	-0.184207	0.249005
C28	C	-1.486803	-0.249718	0.373612
C29	C	-1.483342	-0.380740	0.373607
C30	C	-1.481621	-0.446252	0.248995
C31	C	-0.714638	0.177611	-0.000219
C32	C	-0.854081	0.181310	-0.000194
C33	C	-1.477939	0.414317	-0.000210
C34	C	-1.481635	0.553759	-0.000216
N35	N	-1.485107	0.184787	0.355915
N36	N	-1.485105	0.184763	-0.356322
C37	C	-1.569764	0.100177	0.427832
C38	C	-1.569761	0.100162	0.571715
C39	C	-1.400439	0.269377	0.571750
C40	C	-1.400437	0.269385	0.427870
C41	C	-1.654434	0.015579	0.355877
C42	C	-1.739100	-0.069037	0.427794
C43	C	-1.739096	-0.069052	0.571677
C44	C	-1.654428	0.015548	0.643643
H45	H	-1.194848	0.419672	-0.000175
C46	C	-1.832212	-0.162127	0.650790
H47	H	-1.820080	-0.150029	0.746786
H48	H	-1.916145	-0.147706	0.627203
H49	H	-1.817839	-0.246077	0.627200
H50	H	-0.719436	0.407059	-0.000199
H51	H	-1.488267	-0.196362	-0.226274
H52	H	-0.891601	-0.025704	-0.000191
C53	C	-1.492359	-0.040088	0.249016
H54	H	-1.493143	-0.010458	0.341072
H55	H	-1.420041	-0.001510	0.202998
H56	H	-1.566268	-0.019388	0.202999
H57	H	-1.050653	0.623845	-0.000192
C58	C	-1.152027	-0.051557	-0.000147
H59	H	-1.102576	-0.121155	-0.000170
H60	H	-1.203703	-0.054954	0.079568
H61	H	-1.203733	-0.054943	-0.079863
C62	C	-1.307322	0.362460	0.348755
H63	H	-1.256910	0.412855	0.412214
H64	H	-1.254655	0.316798	0.292630
H65	H	-1.352963	0.415166	0.292627
H66	H	-0.812948	0.617550	-0.000216
H67	H	-1.654423	0.015520	0.760802
H68	H	-1.488215	-0.196371	0.475067
H69	H	-1.481935	-0.434077	0.475068
H70	H	-1.808027	-0.137923	0.369193
C71	C	-1.477815	-0.590374	0.248991
H72	H	-1.477020	-0.620010	0.341044
H73	H	-1.550139	-0.628950	0.202960
H74	H	-1.403912	-0.611071	0.202982
C75	C	-1.307324	0.362439	0.650909
H76	H	-1.319459	0.350324	0.746899
H77	H	-1.223387	0.348027	0.627346
H78	H	-1.321701	0.446391	0.627330
H79	H	-1.481976	-0.434071	-0.226276
H80	H	-1.654447	0.015586	0.238720
