data_functionalizedCrystal
_audit_creation_method	'MofGen! by Chris Wilmer'
_symmetry_space_group_name_H-M	'P1'
_symmetry_Int_Tables_number	1
_symmetry_cell_setting	triclinic
loop_
_symmetry_equiv_pos_as_xyz
  x,y,z
_cell_length_a	11.792241
_cell_length_b	14.853566
_cell_length_c	13.330367
_cell_angle_alpha	89.995295
_cell_angle_beta	89.999638
_cell_angle_gamma	96.086085
loop_
_atom_site_label
_atom_site_type_symbol
_atom_site_fract_x
_atom_site_fract_y
_atom_site_fract_z
O1	O	-0.148174	1.196946	-0.083346
O2	O	0.351826	1.696946	0.416654
O3	O	-0.165828	0.934555	-0.083361
O4	O	0.334172	1.434555	0.416639
O5	O	0.008209	1.072118	-0.083359
O6	O	0.508209	1.572118	0.416641
O7	O	-0.322211	1.059383	-0.083348
O8	O	0.177789	1.559383	0.416652
O9	O	0.008213	1.072098	0.083488
O10	O	0.508213	1.572098	0.583488
O11	O	-0.165824	0.934535	0.083486
O12	O	0.334176	1.434535	0.583486
O13	O	-0.148171	1.196926	0.083501
O14	O	0.351829	1.696926	0.583501
Cu15	Cu	-0.156997	1.065729	0.098728
Cu16	Cu	0.343003	1.565729	0.598728
Cu17	Cu	-0.157002	1.065753	-0.098588
Cu18	Cu	0.342998	1.565753	0.401412
O19	O	-0.322207	1.059363	0.083499
O20	O	0.177793	1.559363	0.583499
C21	C	-0.165026	0.900954	0.000060
C22	C	0.334974	1.400954	0.500060
C23	C	-0.162630	0.800860	0.000054
C24	C	0.337370	1.300860	0.500054
C25	C	-0.152497	0.377647	-0.090877
C26	C	0.347503	0.877647	0.409123
C27	C	-0.152493	0.377647	0.091026
C28	C	0.347507	0.877647	0.591026
C29	C	-0.154744	0.471689	0.091023
C30	C	0.345256	0.971689	0.591023
C31	C	-0.155872	0.518715	0.000069
C32	C	0.344128	1.018715	0.500069
C33	C	-0.154751	0.471698	-0.090883
C34	C	0.345249	0.971698	0.409117
C35	C	-0.155877	0.518712	0.181973
C36	C	0.344123	1.018712	0.681973
C37	C	-0.158129	0.612761	0.181974
C38	C	0.341871	1.112761	0.681974
C39	C	-0.159249	0.659789	0.091018
C40	C	0.340751	1.159789	0.591018
C41	C	-0.158126	0.612766	0.000063
C42	C	0.341874	1.112766	0.500063
C43	C	-0.159255	0.659792	-0.090892
C44	C	0.340745	1.159792	0.409108
C45	C	-0.158124	0.612772	-0.181848
C46	C	0.341876	1.112772	0.318152
C47	C	-0.155871	0.518727	-0.181839
C48	C	0.344129	1.018727	0.318161
C49	C	-0.161501	0.753835	0.091009
C50	C	0.338499	1.253835	0.591009
C51	C	-0.161509	0.753844	-0.090897
C52	C	0.338491	1.253844	0.409103
C53	C	-0.364495	1.060173	0.000077
C54	C	0.135505	1.560173	0.500077
C55	C	-0.490494	1.062568	0.000082
C56	C	0.009506	1.562568	0.500082
C57	C	-0.721179	1.066970	0.000057
C58	C	-0.221179	1.566970	0.500057
C59	C	-0.592809	1.064524	0.000071
C60	C	-0.092809	1.564524	0.500071
C61	C	0.050497	1.071308	0.000061
C62	C	0.550497	1.571308	0.500061
C63	C	0.176496	1.068914	0.000050
C64	C	0.676496	1.568914	0.500050
C65	C	-0.148972	1.230528	0.000078
C66	C	0.351028	1.730528	0.500078
C67	C	-0.151368	1.330621	0.000077
C68	C	0.348632	1.830621	0.500077
N69	N	-0.156993	1.065719	0.237510
N70	N	0.343007	1.565719	0.737510
N71	N	-0.156996	1.065770	-0.237369
N72	N	0.343004	1.565770	0.262631
C73	C	-0.234035	1.004837	0.710132
C74	C	0.265965	1.504837	1.210132
C75	C	-0.079960	1.126693	0.710101
C76	C	0.420040	1.626693	1.210101
C77	C	-0.079956	1.126682	0.605083
C78	C	0.420044	1.626682	1.105083
C79	C	-0.156994	1.065750	0.552584
C80	C	0.343006	1.565750	1.052584
C81	C	-0.234036	1.004827	0.605104
C82	C	0.265964	1.504827	1.105104
C83	C	-0.002924	1.187610	0.552556
C84	C	0.497076	1.687610	1.052556
C85	C	-0.002918	1.187603	0.447531
C86	C	0.497082	1.687603	0.947531
C87	C	-0.079951	1.126665	0.395030
C88	C	0.420049	1.626665	0.895030
C89	C	-0.156995	1.065739	0.447556
C90	C	0.343005	1.565739	0.947556
C91	C	-0.234033	1.004806	0.395057
C92	C	0.265967	1.504806	0.895057
C93	C	-0.311073	0.943875	0.447581
C94	C	0.188927	1.443875	0.947581
C95	C	-0.311069	0.943889	0.552603
C96	C	0.188931	1.443889	1.052603
C97	C	-0.079955	1.126652	0.290009
C98	C	0.420045	1.626652	0.790009
C99	C	-0.234035	1.004796	0.290029
C100	C	0.265965	1.504796	0.790029
H101	H	-0.159047	0.651037	0.256036
H102	H	0.340953	1.151037	0.756036
Br103	Br	-0.154284	0.454914	-0.305267
Br104	Br	0.345716	0.954914	0.194733
Br105	Br	-0.338583	0.922090	0.218788
Br106	Br	0.161417	1.422090	0.718788
Br107	Br	0.024579	1.209393	0.781346
Br108	Br	0.524579	1.709393	1.281346
H109	H	-0.151582	0.339352	0.165077
H110	H	0.348418	0.839352	0.665077
Br111	Br	0.024580	1.209345	0.218732
Br112	Br	0.524580	1.709345	0.718732
Br113	Br	0.101615	1.270311	0.623800
Br114	Br	0.601615	1.770311	1.123800
Br115	Br	-0.163049	0.817643	0.214438
Br116	Br	0.336951	1.317643	0.714438
Br117	Br	-0.163027	0.817659	-0.214343
Br118	Br	0.336973	1.317659	0.285657
H119	H	-0.159051	0.651072	-0.255903
H120	H	0.340949	1.151072	0.244097
Br121	Br	-0.150922	0.313843	-0.214312
Br122	Br	0.349078	0.813843	0.285688
H123	H	-0.154966	0.480416	0.256023
H124	H	0.345034	0.980416	0.756023
H125	H	-0.373803	0.894267	0.404824
H126	H	0.126197	1.394267	0.904824
H127	H	-0.373793	0.894282	0.595374
H128	H	0.126207	1.394282	1.095374
Br129	Br	0.101633	1.270290	0.376254
Br130	Br	0.601633	1.770290	0.876254
Br131	Br	-0.338577	0.922142	0.781407
Br132	Br	0.161423	1.422142	1.281407
