data_functionalizedCrystal
_audit_creation_method	'MofGen! by Chris Wilmer'
_symmetry_space_group_name_H-M	'P1'
_symmetry_Int_Tables_number	1
_symmetry_cell_setting	triclinic
loop_
_symmetry_equiv_pos_as_xyz
  x,y,z
_cell_length_a	16.109301
_cell_length_b	16.109295
_cell_length_c	14.586319
_cell_angle_alpha	89.999325
_cell_angle_beta	89.999213
_cell_angle_gamma	83.460334
loop_
_atom_site_label
_atom_site_type_symbol
_atom_site_fract_x
_atom_site_fract_y
_atom_site_fract_z
O1	O	-1.103129	-0.106866	0.076176
O2	O	-0.861066	-0.120166	0.076190
O3	O	-0.988750	0.007515	0.076184
O4	O	-0.975445	-0.234547	0.076182
O5	O	-0.988741	0.007517	-0.076297
O6	O	-0.861058	-0.120164	-0.076291
O7	O	-1.103120	-0.106864	-0.076305
Cu8	Cu	-0.982088	-0.113514	-0.090221
Cu9	Cu	-0.982098	-0.113516	0.090106
O10	O	-0.975437	-0.234545	-0.076299
C11	C	-0.988207	0.038491	-0.000054
C12	C	-0.986594	0.130787	-0.000048
C13	C	-0.830087	-0.119626	-0.000049
C14	C	-0.737792	-0.118011	-0.000043
C15	C	-1.134099	-0.107404	-0.000064
C16	C	-1.226394	-0.109019	-0.000064
C17	C	-1.058606	0.353060	-0.000018
C18	C	-1.057084	0.439780	-0.000003
C19	C	-0.905595	0.419906	0.000001
C20	C	-0.907118	0.333187	-0.000007
C21	C	-0.983626	0.299766	-0.000022
C22	C	-0.980580	0.473206	0.000002
C23	C	-0.978929	0.567232	0.000019
C24	C	-0.985277	0.205734	-0.000037
C25	C	-0.515518	-0.190019	-0.000054
C26	C	-0.428798	-0.188495	-0.000060
C27	C	-0.448675	-0.037006	-0.000055
C28	C	-0.535394	-0.038531	-0.000056
C29	C	-0.568813	-0.115040	-0.000051
C30	C	-0.395374	-0.111991	-0.000056
C31	C	-0.301348	-0.110338	-0.000062
C32	C	-0.662845	-0.116693	-0.000046
N33	N	-0.982087	-0.113512	-0.217052
C34	C	-0.975984	0.734479	-0.000037
C35	C	-0.977612	0.642186	0.000028
C36	C	-1.038643	-0.056994	-0.452062
C37	C	-1.038646	-0.056992	-0.548043
C38	C	-0.925543	-0.170033	-0.548047
C39	C	-0.925538	-0.170030	-0.452067
C40	C	-0.982092	-0.113512	-0.404077
C41	C	-0.982100	-0.113512	-0.596038
C42	C	-0.982103	-0.113510	-0.700105
C43	C	-0.982089	-0.113512	-0.300003
N44	N	-0.982106	-0.113512	0.216937
H45	H	-1.120904	0.325852	-0.000028
C46	C	-0.412502	0.046117	0.000094
C47	C	-0.439613	0.091445	0.078533
C48	C	-0.406318	0.168028	0.078699
H49	H	-0.353225	0.036406	0.000144
H50	H	-0.430818	0.077039	-0.053050
H51	H	-0.421292	0.060530	0.131663
H52	H	-0.498885	0.101179	0.078499
H53	H	-0.424634	0.198949	0.025555
H54	H	-0.347042	0.158308	0.078747
H55	H	-0.424714	0.198795	0.131914
C56	C	-1.100074	0.004466	-0.400123
C57	C	-1.149584	0.053978	-0.462694
C58	C	-1.206175	0.110615	-0.414884
H59	H	-1.134752	-0.025351	-0.362673
H60	H	-1.070196	0.039131	-0.362706
H61	H	-1.179460	0.019318	-0.500095
H62	H	-1.114929	0.083813	-0.500146
H63	H	-1.176297	0.145279	-0.377467
H64	H	-1.240847	0.080791	-0.377436
H65	H	-1.239768	0.144220	-0.457331
H66	H	-1.084694	-0.010969	-0.587109
H67	H	-1.118140	0.483169	0.000002
H68	H	-0.578789	0.022530	-0.000056
H69	H	-0.879499	-0.216050	-0.587130
C70	C	-0.370838	-0.269839	0.000085
C71	C	-0.320456	-0.273380	0.078520
C72	C	-0.267047	-0.348301	0.078678
H73	H	-0.403060	-0.315688	0.000135
H74	H	-0.336547	-0.272402	-0.053062
H75	H	-0.354743	-0.270826	0.131653
H76	H	-0.288216	-0.227549	0.078486
H77	H	-0.232756	-0.350863	0.025532
H78	H	-0.299276	-0.394144	0.078726
H79	H	-0.232852	-0.350710	0.131891
H80	H	-0.879483	-0.216054	-0.412996
C81	C	-0.825731	0.275279	0.000178
C82	C	-0.822177	0.224924	0.078635
C83	C	-0.747216	0.171577	0.078848
H84	H	-0.823095	0.240961	-0.052935
H85	H	-0.779924	0.307573	0.000232
H86	H	-0.867971	0.192633	0.078573
H87	H	-0.824799	0.259219	0.131761
H88	H	-0.701409	0.203871	0.078902
H89	H	-0.744586	0.137265	0.025732
H90	H	-0.744791	0.137411	0.132084
H91	H	-0.542724	-0.252317	-0.000057
C92	C	-0.822471	0.456078	-0.000133
C93	C	-0.777134	0.428975	-0.078569
C94	C	-0.700550	0.462268	-0.078720
H95	H	-0.832181	0.515354	-0.000176
H96	H	-0.791557	0.437754	0.053013
H97	H	-0.808041	0.447304	-0.131702
H98	H	-0.767402	0.369703	-0.078543
H99	H	-0.669636	0.443944	-0.025574
H100	H	-0.710268	0.521543	-0.078761
H101	H	-0.669776	0.443877	-0.131933
