data_functionalizedCrystal
_audit_creation_method	'MofGen! by Chris Wilmer'
_symmetry_space_group_name_H-M	'P1'
_symmetry_Int_Tables_number	1
_symmetry_cell_setting	triclinic
loop_
_symmetry_equiv_pos_as_xyz
  x,y,z
_cell_length_a	16.109302
_cell_length_b	19.188930
_cell_length_c	14.586319
_cell_angle_alpha	89.991095
_cell_angle_beta	89.994552
_cell_angle_gamma	83.303281
loop_
_atom_site_label
_atom_site_type_symbol
_atom_site_fract_x
_atom_site_fract_y
_atom_site_fract_z
O1	O	1.102833	0.089746	-0.076292
O2	O	0.860734	0.100914	-0.076286
O3	O	0.988770	-0.006309	-0.076271
O4	O	0.974797	0.196970	-0.076307
O5	O	0.988761	-0.006311	0.076209
O6	O	0.860725	0.100913	0.076195
O7	O	1.102824	0.089745	0.076189
Cu8	Cu	0.981774	0.095329	0.090114
Cu9	Cu	0.981784	0.095331	-0.090212
O10	O	0.974788	0.196968	0.076174
C11	C	0.829756	0.100461	-0.000045
C12	C	0.737466	0.099105	-0.000042
C13	C	0.525130	0.095967	0.083067
C14	C	0.438414	0.094685	0.083064
C15	C	0.438435	0.094690	-0.083179
C16	C	0.525150	0.095967	-0.083175
C17	C	0.568495	0.096609	-0.000049
C18	C	0.395064	0.094050	-0.000056
C19	C	0.301043	0.092660	-0.000060
C20	C	0.662522	0.097998	-0.000045
C21	C	0.988313	-0.032322	-0.000028
C22	C	0.986955	-0.109829	-0.000020
C23	C	1.062082	-0.154578	-0.000018
C24	C	1.060806	-0.227404	-0.000032
C25	C	0.984398	-0.255480	-0.000031
C26	C	0.909261	-0.210722	-0.000039
C27	C	0.910539	-0.137897	-0.000034
N28	N	0.925991	-0.363622	0.051862
N29	N	0.924782	-0.432803	0.051859
C30	C	0.980542	-0.474897	-0.000050
N31	N	1.037571	-0.445198	-0.051944
N32	N	1.038782	-0.376010	-0.051936
C33	C	0.983004	-0.334446	-0.000038
C34	C	1.054291	-0.598613	-0.000064
C35	C	1.053012	-0.671441	-0.000085
C36	C	0.901465	-0.654757	-0.000082
C37	C	0.902746	-0.581931	-0.000071
C38	C	0.979162	-0.553864	-0.000058
C39	C	1.133802	0.090198	-0.000055
C40	C	1.226093	0.091555	-0.000064
C41	C	0.975245	0.222981	-0.000071
C42	C	0.976604	0.300489	-0.000085
N43	N	0.981773	0.095327	0.216946
N44	N	0.981792	0.095327	-0.217044
C45	C	1.038486	0.047864	0.451959
C46	C	1.038488	0.047863	0.547940
C47	C	0.925073	0.142792	0.547937
C48	C	0.925068	0.142789	0.451957
C49	C	0.981778	0.095327	0.403971
C50	C	0.981787	0.095327	0.595932
C51	C	0.981789	0.095326	0.699999
C52	C	0.981775	0.095327	0.299897
H53	H	0.403111	0.094162	0.150746
H54	H	1.114192	-0.707875	-0.000088
H55	H	0.560458	0.096488	-0.150862
H56	H	0.878886	0.181439	0.412883
C57	C	1.145130	-0.124241	-0.000057
C58	C	1.210651	-0.179023	-0.000081
C59	C	1.287166	-0.151102	-0.000130
H60	H	1.148893	-0.096197	0.053104
H61	H	1.148831	-0.096191	-0.053250
H62	H	1.206952	-0.207061	0.053107
H63	H	1.206916	-0.207072	-0.053238
H64	H	1.290867	-0.123053	-0.053323
H65	H	1.290921	-0.123058	0.053032
H66	H	1.331631	-0.188267	-0.000155
C67	C	1.142350	-0.276035	-0.000211
C68	C	1.146064	-0.318311	-0.078671
C69	C	1.221173	-0.363109	-0.078870
H70	H	1.145068	-0.304862	0.052900
H71	H	1.188067	-0.248914	-0.000253
H72	H	1.100359	-0.345429	-0.078620
H73	H	1.143360	-0.289502	-0.131795
H74	H	1.266891	-0.335988	-0.078912
H75	H	1.223885	-0.391931	-0.025756
H76	H	1.223707	-0.391794	-0.132108
C77	C	0.818591	-0.685364	-0.000040
C78	C	0.833549	-0.758720	-0.000026
C79	C	0.757223	-0.786943	0.000020
H80	H	0.787609	-0.670069	-0.053198
H81	H	0.787654	-0.670052	0.053156
H82	H	0.864472	-0.774026	-0.053216
H83	H	0.864518	-0.774035	0.053128
H84	H	0.726287	-0.771630	0.053215
H85	H	0.726248	-0.771643	-0.053140
H86	H	0.767362	-0.836717	0.000037
H87	H	0.847049	-0.233585	-0.000040
C88	C	0.391302	0.094146	-0.173397
C89	C	0.331963	0.153456	-0.178268
C90	C	0.288537	0.152986	-0.261369
H91	H	0.363885	0.053005	-0.176939
H92	H	0.429516	0.094748	-0.222926
H93	H	0.293754	0.152848	-0.128752
H94	H	0.359357	0.194607	-0.174742
H95	H	0.326751	0.153588	-0.310899
H96	H	0.261126	0.111843	-0.264904
H97	H	0.248276	0.193231	-0.264690
H98	H	1.116513	-0.575760	-0.000058
C99	C	0.572049	0.096617	0.173411
C100	C	0.515511	0.095760	0.246199
C101	C	0.558701	0.096345	0.329438
H102	H	0.599392	0.137794	0.176998
H103	H	0.612349	0.056407	0.176919
H104	H	0.475225	0.135966	0.242692
H105	H	0.488165	0.054585	0.242642
H106	H	0.599001	0.056135	0.332947
H107	H	0.586043	0.137523	0.333016
H108	H	0.520347	0.095757	0.378835
H109	H	1.084662	0.009216	0.412891
C110	C	0.828878	-0.089424	0.000016
C111	C	0.761687	-0.129594	0.000033
C112	C	0.686448	-0.084964	0.000093
H113	H	0.826113	-0.060642	-0.053138
H114	H	0.826179	-0.060689	0.053216
H115	H	0.764385	-0.158317	-0.053161
H116	H	0.764425	-0.158375	0.053183
H117	H	0.683749	-0.056229	0.053292
H118	H	0.683692	-0.056184	-0.053062
H119	H	0.640850	-0.112212	0.000113
C120	C	0.821088	-0.533458	-0.000014
C121	C	0.753898	-0.573629	0.000008
C122	C	0.678658	-0.529000	0.000071
H123	H	0.818320	-0.504677	-0.053169
H124	H	0.818390	-0.504722	0.053184
H125	H	0.756594	-0.602353	-0.053185
H126	H	0.756638	-0.602409	0.053160
H127	H	0.675960	-0.500264	0.053269
H128	H	0.675898	-0.500221	-0.053086
H129	H	0.633061	-0.556250	0.000094
C130	C	1.100152	-0.003698	0.599876
C131	C	1.149825	-0.045250	0.537305
C132	C	1.206648	-0.092752	0.585114
H133	H	1.070453	-0.032838	0.637332
H134	H	1.134714	0.021410	0.637288
H135	H	1.115267	-0.070356	0.499909
H136	H	1.179542	-0.016130	0.499847
H137	H	1.241210	-0.067644	0.622525
H138	H	1.176942	-0.121887	0.622567
H139	H	1.240363	-0.120946	0.542666
C140	C	0.863604	0.194295	0.600204
C141	C	0.875761	0.184153	0.694531
C142	C	0.819159	0.231594	0.742706
H143	H	0.808107	0.186746	0.584600
H144	H	0.872470	0.240909	0.584512
H145	H	0.866888	0.137550	0.710217
H146	H	0.931246	0.191708	0.710163
H147	H	0.828025	0.278208	0.727013
H148	H	0.763666	0.224042	0.727094
H149	H	0.827405	0.224724	0.806711
