data_functionalizedCrystal
_audit_creation_method	'MofGen! by Chris Wilmer'
_symmetry_space_group_name_H-M	'P1'
_symmetry_Int_Tables_number	1
_symmetry_cell_setting	triclinic
loop_
_symmetry_equiv_pos_as_xyz
  x,y,z
_cell_length_a	16.959455
_cell_length_b	12.759394
_cell_length_c	12.759387
_cell_angle_alpha	90.031660
_cell_angle_beta	90.021772
_cell_angle_gamma	90.011784
loop_
_atom_site_label
_atom_site_type_symbol
_atom_site_fract_x
_atom_site_fract_y
_atom_site_fract_z
Zn1	Zn	1.208471	-0.418297	0.594034
Zn2	Zn	1.208388	-0.594014	0.418352
Zn3	Zn	1.076282	-0.418340	0.418367
Zn4	Zn	1.076276	-0.593925	0.593987
O5	O	1.142354	-0.506144	0.506185
O6	O	1.319071	-0.441625	0.570743
O7	O	1.190832	-0.570765	0.271333
O8	O	1.093854	-0.271313	0.441696
O9	O	1.319010	-0.570723	0.441670
O10	O	1.190973	-0.271281	0.570758
O11	O	1.093774	-0.441699	0.271344
O12	O	0.965670	-0.441613	0.441650
O13	O	1.093844	-0.570572	0.741015
O14	O	0.965666	-0.570614	0.570677
O15	O	1.190967	-0.441539	0.741049
O16	O	1.190826	-0.741023	0.441624
O17	O	1.093764	-0.740958	0.570663
C18	C	1.142307	-0.779111	0.506160
C19	C	1.142359	-0.895888	0.506184
C20	C	0.936988	-0.506109	0.506161
C21	C	0.849131	-0.506120	0.506176
C22	C	1.243505	-0.895903	0.371917
C23	C	1.294099	-0.950771	0.304796
C24	C	1.294146	-1.060492	0.304824
C25	C	1.243594	-1.115348	0.371983
C26	C	1.193000	-1.060480	0.439105
C27	C	1.192958	-0.950756	0.439067
C28	C	1.091859	-1.060466	0.573375
C29	C	1.091807	-0.950744	0.573343
C30	C	1.041307	-1.115322	0.640535
C31	C	0.990708	-1.060453	0.707652
C32	C	0.990663	-0.950725	0.707620
C33	C	1.041213	-0.895876	0.640464
C34	C	0.477634	-0.438918	0.439141
C35	C	0.477678	-0.573456	0.573289
C36	C	0.560224	-0.573441	0.573283
C37	C	0.601478	-0.506164	0.506203
C38	C	0.560187	-0.438903	0.439130
C39	C	0.601521	-0.640709	0.640347
C40	C	0.684072	-0.640698	0.640343
C41	C	0.725328	-0.573415	0.573268
C42	C	0.684032	-0.506150	0.506193
C43	C	0.725287	-0.438873	0.439113
C44	C	0.683992	-0.371601	0.372043
C45	C	0.601443	-0.371620	0.372055
C46	C	0.807877	-0.573396	0.573255
C47	C	0.807840	-0.438858	0.439102
C48	C	1.348522	-0.506179	0.506210
C49	C	1.436379	-0.506194	0.506220
C50	C	1.142414	-0.506041	0.780219
C51	C	1.142439	-0.505997	0.896995
C52	C	1.142423	-0.232110	0.506234
C53	C	1.142453	-0.115334	0.506254
C54	C	1.142340	-0.506171	0.233218
C55	C	1.142468	-0.505918	0.116441
C56	C	1.243580	-0.371643	0.897051
C57	C	1.294162	-0.304451	0.951940
C58	C	1.294181	-0.304413	1.061662
C59	C	1.243612	-0.371572	1.116497
C60	C	1.193030	-0.438764	1.061608
C61	C	1.193018	-0.438798	0.951884
C62	C	1.091886	-0.573111	1.061553
C63	C	1.091870	-0.573156	0.951831
C64	C	1.041317	-0.640270	1.116388
C65	C	0.990738	-0.707470	1.061500
C66	C	0.990722	-0.707506	0.951771
C67	C	1.041288	-0.640349	0.896942
H68	H	1.243463	-0.806561	0.371873
H69	H	1.335260	-0.906097	0.250117
H70	H	1.041333	-0.640230	1.205729
H71	H	0.949565	-0.762139	1.106155
C72	C	0.432747	-0.646384	0.646074
C73	C	0.351616	-0.631985	0.631743
C74	C	0.310199	-0.699139	0.698787
H75	H	0.446173	-0.716997	0.630644
H76	H	0.446253	-0.631075	0.716713
H77	H	0.338116	-0.647301	0.561120
H78	H	0.338168	-0.561386	0.647180
H79	H	0.323705	-0.683831	0.769426
H80	H	0.323631	-0.769748	0.683352
H81	H	0.255148	-0.689372	0.689080
H82	H	0.949523	-0.762211	0.907087
C83	C	0.935686	-0.891026	0.780329
C84	C	0.885023	-0.828117	0.720777
C85	C	0.834374	-0.773103	0.787724
H86	H	0.905516	-0.939295	0.820351
H87	H	0.965868	-0.848093	0.826109
H88	H	0.854844	-0.871047	0.675016
H89	H	0.915171	-0.779829	0.680758
H90	H	0.864557	-0.730170	0.833504
H91	H	0.804209	-0.821379	0.827742
H92	H	0.799999	-0.730406	0.747329
H93	H	1.041283	-0.640376	0.807601
C94	C	0.852485	-0.365774	0.366153
C95	C	0.798651	-0.306890	0.307404
C96	C	0.839749	-0.239566	0.240182
H97	H	0.884712	-0.319947	0.406297
H98	H	0.884648	-0.405884	0.320243
H99	H	0.766502	-0.266783	0.353308
H100	H	0.766423	-0.352689	0.267239
H101	H	0.871911	-0.279676	0.194272
H102	H	0.871974	-0.193747	0.280334
H103	H	0.803229	-0.199612	0.200307
C104	C	0.556466	-0.298696	0.299288
C105	C	0.475344	-0.313128	0.313639
C106	C	0.433884	-0.245977	0.246620
H107	H	0.569909	-0.228080	0.314728
H108	H	0.569919	-0.313985	0.228642
H109	H	0.461897	-0.297832	0.384269
H110	H	0.461878	-0.383730	0.298192
H111	H	0.447337	-0.261266	0.175974
H112	H	0.447334	-0.175366	0.262065
H113	H	0.378839	-0.255767	0.256341
H114	H	1.041176	-0.806535	0.640425
C115	C	1.349106	-1.119880	0.231837
C116	C	1.393355	-1.048363	0.172999
C117	C	1.443983	-1.103033	0.105743
H118	H	1.383617	-1.162621	0.271960
H119	H	1.318916	-1.162728	0.185985
H120	H	1.423542	-1.005534	0.218845
H121	H	1.358864	-1.005620	0.132854
H122	H	1.413794	-1.145880	0.059891
H123	H	1.478490	-1.145772	0.145875
H124	H	1.474007	-1.054517	0.065807
H125	H	1.243643	-1.204689	0.372010
H126	H	1.243625	-0.371526	1.205838
C127	C	0.556824	-0.713670	0.713352
C128	C	0.576961	-0.690918	0.817333
C129	C	0.535802	-0.758110	0.884621
H130	H	0.501737	-0.704094	0.703893
H131	H	0.570345	-0.784266	0.697928
H132	H	0.563434	-0.620339	0.832752
H133	H	0.632041	-0.700501	0.826825
H134	H	0.549324	-0.828706	0.869198
H135	H	0.480717	-0.748529	0.875154
H136	H	0.549465	-0.742689	0.955179
H137	H	0.949557	-1.105126	0.762332
C138	C	1.041441	-1.234448	0.640768
C139	C	1.061611	-1.270645	0.740818
C140	C	1.061752	-1.380378	0.741070
H141	H	0.990476	-1.259470	0.622622
H142	H	1.078836	-1.259311	0.591224
H143	H	1.024219	-1.245793	0.790346
H144	H	1.112578	-1.245652	0.758984
H145	H	1.099146	-1.405241	0.691525
H146	H	1.010785	-1.405389	0.722920
H147	H	1.075444	-1.404951	0.808949
C148	C	1.243654	-0.371499	0.777924
C149	C	1.298752	-0.298292	0.741650
C150	C	1.298836	-0.298119	0.631916
H151	H	1.257324	-0.439250	0.752965
H152	H	1.192663	-0.353270	0.753052
H153	H	1.349732	-0.316527	0.766512
H154	H	1.285095	-0.230530	0.766581
H155	H	1.247845	-0.279890	0.607044
H156	H	1.312504	-0.365873	0.606967
H157	H	1.336214	-0.248442	0.607290
H158	H	1.335364	-0.249692	1.106352
C159	C	1.348967	-0.231366	0.892456
C160	C	1.331784	-0.127399	0.919140
C161	C	1.382246	-0.060045	0.864358
H162	H	1.402102	-0.246615	0.910402
H163	H	1.341707	-0.240942	0.819239
H164	H	1.339051	-0.117828	0.992341
H165	H	1.278659	-0.112117	0.901192
H166	H	1.374986	-0.069620	0.791140
H167	H	1.435377	-0.075303	0.882308
H168	H	1.370589	0.010505	0.882448
H169	H	0.841495	-0.628171	0.627860
H170	H	0.717592	-0.316829	0.317422
H171	H	0.444008	-0.384144	0.384537
H172	H	0.717687	-0.695474	0.694957
