data_functionalizedCrystal
_audit_creation_method	'MofGen! by Chris Wilmer'
_symmetry_space_group_name_H-M	'P1'
_symmetry_Int_Tables_number	1
_symmetry_cell_setting	triclinic
loop_
_symmetry_equiv_pos_as_xyz
  x,y,z
_cell_length_a	23.196402
_cell_length_b	23.196402
_cell_length_c	23.196401
_cell_angle_alpha	90.013454
_cell_angle_beta	60.008520
_cell_angle_gamma	60.000116
loop_
_atom_site_label
_atom_site_type_symbol
_atom_site_fract_x
_atom_site_fract_y
_atom_site_fract_z
Zr1	Zr	0.631044	0.555324	-0.075651
O2	O	0.751311	0.463250	-0.167698
O3	O	0.510775	0.583551	-0.047435
O4	O	0.631047	0.583520	-0.167703
O5	O	0.631038	0.463304	0.047441
O6	O	0.631051	0.678388	-0.167705
O7	O	0.631040	0.463281	-0.047431
O8	O	0.415907	0.678444	0.047433
O9	O	0.846182	0.463248	-0.167696
O10	O	0.560247	0.666387	-0.035401
O11	O	0.560243	0.595604	0.035402
O12	O	0.701847	0.595567	-0.106198
O13	O	0.701843	0.524785	-0.035395
Zr14	Zr	0.631048	0.706664	0.075655
Zr15	Zr	0.631050	0.706628	-0.075654
Zr16	Zr	0.631042	0.555360	0.075658
Zr17	Zr	0.782352	0.555321	-0.075648
Zr18	Zr	0.479740	0.706668	0.075652
O19	O	0.751317	0.678437	0.047440
O20	O	0.751320	0.678386	-0.167702
O21	O	0.751308	0.463302	0.047443
O22	O	0.510781	0.798738	0.167703
O23	O	0.510784	0.798686	-0.047439
O24	O	0.510772	0.583602	0.167707
O25	O	0.631054	0.798684	-0.047436
O26	O	0.631045	0.678468	0.167708
O27	O	0.631041	0.583600	0.167709
O28	O	0.631052	0.798707	0.047435
O29	O	0.846187	0.583515	-0.167699
O30	O	0.415905	0.678473	0.167703
O31	O	0.415910	0.798740	0.167701
O32	O	0.415912	0.798711	0.047431
O33	O	0.846180	0.463277	-0.047426
O34	O	0.846185	0.583544	-0.047428
O35	O	0.560245	0.666421	0.106202
O36	O	0.560249	0.737203	0.035400
O37	O	0.701849	0.666384	-0.035398
O38	O	0.701845	0.595601	0.035405
C39	C	0.441783	0.630998	-0.000002
C40	C	0.377549	0.630999	-0.000003
C41	C	-0.085292	0.667943	-0.036944
C42	C	-0.024933	0.667941	-0.036950
C43	C	0.005247	0.630995	0.000008
C44	C	-0.024922	0.594032	0.036961
C45	C	-0.085274	0.594029	0.036961
C46	C	0.067273	0.636290	0.061914
C47	C	0.127620	0.636298	0.061916
C48	C	0.191395	0.631000	0.000009
C49	C	0.194807	0.625708	-0.061900
C50	C	0.134455	0.625705	-0.061901
C51	C	0.070689	0.630994	0.000013
C52	C	0.287009	0.667954	-0.036953
C53	C	0.347372	0.667947	-0.036961
C54	C	0.347376	0.594043	0.036957
C55	C	0.287020	0.594045	0.036959
C56	C	0.256837	0.631004	0.000005
C57	C	0.631038	0.441735	0.000006
C58	C	0.631035	0.377502	0.000007
C59	C	0.631049	0.630949	-0.189262
C60	C	0.631050	0.630933	-0.253497
C61	C	0.820309	0.630990	0.000006
C62	C	0.884543	0.630989	0.000008
C63	C	0.557143	-0.048378	0.036960
C64	C	0.557139	0.011979	0.036958
C65	C	0.631051	0.005196	0.000003
C66	C	0.704974	-0.061953	-0.036967
C67	C	0.704977	-0.122308	-0.036970
C68	C	0.687676	0.072503	0.005284
C69	C	0.687670	0.132859	0.005292
C70	C	0.631047	0.191349	0.000008
C71	C	0.574415	0.189483	-0.005270
C72	C	0.574417	0.129128	-0.005273
C73	C	0.631057	0.070636	0.000002
C74	C	0.557123	0.323934	0.036969
C75	C	0.557122	0.384291	0.036962
C76	C	0.704960	0.310356	-0.036957
C77	C	0.704959	0.250001	-0.036955
C78	C	0.631039	0.256795	0.000012
C79	C	0.631054	0.820253	-0.000001
C80	C	0.631056	0.884486	-0.000002
C81	C	0.704961	0.593970	-0.320625
C82	C	0.704962	0.593988	-0.380981
C83	C	0.631048	0.630960	-0.374203
C84	C	0.557127	0.667931	-0.307062
C85	C	0.557128	0.667918	-0.246709
C86	C	0.574418	0.625711	-0.441521
C87	C	0.574420	0.625719	-0.501875
C88	C	0.631042	0.631004	-0.560351
C89	C	0.687675	0.636267	-0.558472
C90	C	0.687676	0.636254	-0.498119
C91	C	0.631038	0.630978	-0.439642
C92	C	0.704959	0.594059	-0.692926
C93	C	0.704957	0.594081	-0.753281
C94	C	0.557119	0.668020	-0.679361
C95	C	0.557124	0.668002	-0.619008
C96	C	0.631046	0.631017	-0.625795
C97	C	0.631043	0.631039	0.189267
C98	C	0.631042	0.631055	0.253501
C99	C	0.441791	0.820257	-0.000005
C100	C	0.377559	0.884491	-0.000007
C101	C	0.441780	0.631043	0.189263
C102	C	0.377545	0.631060	0.253496
C103	C	0.441788	0.820302	0.189259
C104	C	0.377556	0.884552	0.253492
C105	C	0.820304	0.441686	-0.189255
C106	C	0.884536	0.377436	-0.253487
C107	C	0.820301	0.441731	0.000009
C108	C	0.884532	0.377497	0.000012
C109	C	0.820312	0.630945	-0.189258
C110	C	0.884547	0.630928	-0.253491
C111	C	0.347395	0.877691	-0.036972
C112	C	0.287051	0.938040	-0.036988
C113	C	0.256869	1.005188	-0.000036
C114	C	0.287039	1.011987	0.036930
C115	C	0.347386	0.951639	0.036942
C116	C	0.347381	0.668033	0.320624
C117	C	0.287033	0.668046	0.380984
C118	C	0.256848	0.631090	0.374214
C119	C	0.287018	0.594112	0.307079
C120	C	0.347368	0.594095	0.246721
C121	C	0.347393	0.951678	0.246697
C122	C	0.287049	1.012053	0.307044
C123	C	0.256863	1.005300	0.374185
C124	C	0.287031	0.938167	0.380978
C125	C	0.347379	0.877793	0.320631
C126	C	0.914706	0.310310	-0.246693
C127	C	0.975069	0.249935	-0.307040
C128	C	1.005258	0.256688	-0.374181
C129	C	0.975086	0.323821	-0.380974
C130	C	0.914728	0.384195	-0.320627
C131	C	0.914703	0.384297	0.036970
C132	C	0.975064	0.323948	0.036970
C133	C	1.005248	0.256800	0.000015
C134	C	0.975075	0.250001	-0.036948
C135	C	0.914720	0.310349	-0.036951
C136	C	0.914713	0.667892	-0.246699
C137	C	0.975061	0.667890	-0.307047
C138	C	1.005245	0.630920	-0.374187
C139	C	0.975073	0.593955	-0.380978
C140	C	0.914722	0.593961	-0.320631
H141	H	0.137238	0.621395	-0.112309
H142	H	0.890129	0.304798	-0.192029
H143	H	0.371962	0.957190	0.192033
H144	H	0.890132	0.438968	0.067068
C145	C	1.071638	0.190421	0.000030
N146	N	1.121640	0.140427	0.000046
H147	H	0.262445	0.932679	0.435652
H148	H	0.496930	0.438958	0.067057
H149	H	-0.000344	0.563949	0.067052
C150	C	0.380549	0.803955	0.328117
N151	N	0.405531	0.748342	0.333761
C152	C	0.881518	0.708569	-0.172851
N153	N	0.856515	0.739214	-0.117229
C154	C	1.008246	0.176095	-0.299552
N155	N	1.033233	0.120481	-0.293910
C156	C	0.008250	0.708600	-0.077596
N157	N	0.033240	0.739227	-0.108209
H158	H	0.262456	1.066668	0.067015
H159	H	0.207707	0.631109	0.423367
H160	H	1.054387	0.630920	-0.423320
C161	C	1.071648	0.190268	-0.440557
N162	N	1.121649	0.140238	-0.490550
C163	C	1.008295	0.331238	-0.454835
N164	N	1.033305	0.336822	-0.510470
H165	H	0.999658	0.563855	-0.435652
C166	C	0.380553	0.959131	0.077616
N167	N	0.405530	0.964780	0.108255
H168	H	0.262476	0.698160	0.435642
C169	C	0.475814	0.708657	-0.545162
N170	N	0.414568	0.739281	-0.489539
H171	H	-0.109863	0.698036	-0.067035
H172	H	0.371952	0.563956	0.067046
C173	C	1.008244	0.708552	-0.299561
N174	N	1.033236	0.739178	-0.293921
H175	H	0.371968	0.823020	-0.067072
C176	C	0.253800	0.553466	0.299644
N177	N	0.228775	0.522856	0.294046
C178	C	0.786265	0.302889	-0.077609
N179	N	0.847507	0.297268	-0.108229
H180	H	0.890164	0.438850	-0.326167
C181	C	1.008275	0.176130	-0.077584
N182	N	1.033277	0.120489	-0.108184
C183	C	1.008237	0.331443	0.077640
N184	N	1.033220	0.337090	0.108274
C185	C	0.253867	1.085893	0.299557
N186	N	0.228875	1.141507	0.293915
H187	H	0.890156	0.304802	-0.067045
C188	C	0.786278	0.553294	-0.328096
N189	N	0.847527	0.522660	-0.333723
C190	C	0.786274	0.553323	-0.454833
N191	N	0.847518	0.522694	-0.510457
H192	H	0.890167	0.563858	-0.326171
H193	H	0.246735	0.621392	-0.112311
C194	C	0.253811	0.708605	-0.077606
N195	N	0.228808	0.739223	-0.108228
H196	H	0.733788	0.640541	-0.496593
H197	H	0.262455	0.563956	0.067052
C198	C	0.123857	0.642125	0.130018
N199	N	0.121019	0.646515	0.181315
C200	C	0.380554	0.708601	-0.077613
N201	N	0.405547	0.739224	-0.108232
C202	C	0.253867	0.930545	-0.077648
N203	N	0.228873	0.924898	-0.108270
H204	H	0.015349	0.640601	0.112329
C205	C	0.475825	0.085841	0.077626
N206	N	0.414580	0.141472	0.108259
C207	C	-0.118481	0.553399	0.077636
N208	N	-0.143504	0.522806	0.108284
C209	C	0.380534	0.553428	0.172881
N210	N	0.405510	0.522796	0.117266
C211	C	0.475820	0.708598	-0.299608
N212	N	0.414578	0.739231	-0.293993
C213	C	0.512146	0.127067	-0.011107
N214	N	0.465250	0.125510	-0.015513
H215	H	0.496951	-0.042840	0.067060
C216	C	0.512118	0.253823	-0.011076
N217	N	0.465195	0.302287	-0.015444
C218	C	0.475810	0.331405	0.077628
N219	N	0.414564	0.337035	0.108251
H220	H	0.765148	0.195334	-0.067050
H221	H	0.733794	0.134366	0.009575
H222	H	0.765155	-0.067473	-0.067057
C223	C	0.749968	0.008167	0.011101
N224	N	0.796885	-0.040289	0.015483
H225	H	0.765168	-0.176976	-0.067070
H226	H	0.733785	0.640567	-0.606086
H227	H	0.207724	1.054466	0.423317
H228	H	0.765151	0.563944	-0.698453
H229	H	0.765147	0.563984	-0.807941
C230	C	0.512127	0.619894	-0.377200
N231	N	0.465211	0.615512	-0.328756
H232	H	0.496937	0.698124	-0.673841
H233	H	0.528308	0.621430	-0.503399
H234	H	0.496938	0.698019	-0.192048
H235	H	0.207730	1.054322	-0.000051
H236	H	0.371951	0.698128	0.326149
