data_functionalizedCrystal
_audit_creation_method	'MofGen! by Chris Wilmer'
_symmetry_space_group_name_H-M	'P1'
_symmetry_Int_Tables_number	1
_symmetry_cell_setting	triclinic
loop_
_symmetry_equiv_pos_as_xyz
  x,y,z
_cell_length_a	13.897449
_cell_length_b	18.101397
_cell_length_c	13.897441
_cell_angle_alpha	89.965096
_cell_angle_beta	89.976606
_cell_angle_gamma	90.021292
loop_
_atom_site_label
_atom_site_type_symbol
_atom_site_fract_x
_atom_site_fract_y
_atom_site_fract_z
Zn1	Zn	1.474684	-0.294790	-0.545421
Zn2	Zn	1.974684	0.205210	-0.045421
Zn3	Zn	1.474570	-0.418645	-0.384110
Zn4	Zn	1.974570	0.081355	0.115890
Zn5	Zn	1.313373	-0.294824	-0.384132
Zn6	Zn	1.813373	0.205176	0.115868
Zn7	Zn	1.313347	-0.418596	-0.545355
Zn8	Zn	1.813347	0.081404	-0.045355
O9	O	1.393994	-0.356714	-0.464754
O10	O	1.893994	0.143286	0.035246
O11	O	1.609651	-0.311226	-0.524041
O12	O	2.109651	0.188774	-0.024041
O13	O	1.453150	-0.402255	-0.249131
O14	O	1.953150	0.097745	0.250869
O15	O	1.334830	-0.191186	-0.405564
O16	O	1.834830	0.308814	0.094436
O17	O	1.609567	-0.402222	-0.405527
O18	O	2.109567	0.097778	0.094473
O19	O	1.453344	-0.191161	-0.524062
O20	O	1.953344	0.308839	-0.024062
O21	O	1.334720	-0.311284	-0.249147
O22	O	1.834720	0.188716	0.250853
O23	O	1.178388	-0.311236	-0.405500
O24	O	1.678388	0.188764	0.094500
O25	O	1.334785	-0.402137	-0.680346
O26	O	1.834785	0.097863	-0.180346
O27	O	1.178369	-0.402171	-0.523950
O28	O	1.678369	0.097829	-0.023950
O29	O	1.453319	-0.311178	-0.680394
O30	O	1.953319	0.188822	-0.180394
O31	O	1.453125	-0.522272	-0.405463
O32	O	1.953125	-0.022272	0.094537
O33	O	1.334675	-0.522235	-0.523929
O34	O	1.834675	-0.022235	-0.023929
C35	C	1.143379	-0.356702	-0.464721
C36	C	1.643379	0.143298	0.035279
C37	C	1.036165	-0.356715	-0.464729
C38	C	1.536165	0.143285	0.035271
C39	C	0.949096	-0.356718	-0.464745
C40	C	1.449096	0.143282	0.035255
C41	C	0.839863	-0.356723	-0.464775
C42	C	1.339863	0.143277	0.035225
C43	C	1.393911	-0.549124	-0.464708
C44	C	1.893911	-0.049124	0.035292
C45	C	1.393964	-0.631438	-0.464720
C46	C	1.893964	-0.131438	0.035280
C47	C	1.394087	-0.930529	-0.464808
C48	C	1.894087	-0.430529	0.035192
C49	C	1.468405	-0.899196	-0.390073
C50	C	1.968405	-0.399196	0.109927
C51	C	1.468662	-0.813577	-0.390266
C52	C	1.968662	-0.313577	0.109734
C53	C	1.394026	-0.782147	-0.464763
C54	C	1.894026	-0.282147	0.035237
C55	C	1.421587	-0.813148	-0.566438
C56	C	1.921587	-0.313148	-0.066438
C57	C	1.422162	-0.898793	-0.566031
C58	C	1.922162	-0.398793	-0.066031
C59	C	1.292011	-0.899041	-0.438749
C60	C	1.792011	-0.399041	0.061251
C61	C	1.292515	-0.813391	-0.436479
C62	C	1.792515	-0.313391	0.063521
C63	C	1.393990	-0.698287	-0.464745
C64	C	1.893990	-0.198287	0.035255
C65	C	1.394126	-1.014389	-0.464834
C66	C	1.894126	-0.514389	0.035166
C67	C	1.645587	-0.356726	-0.464789
C68	C	2.145587	0.143274	0.035211
C69	C	1.752800	-0.356731	-0.464803
C70	C	2.252800	0.143269	0.035197
C71	C	1.394062	-0.356648	-0.716348
C72	C	1.894062	0.143352	-0.216348
C73	C	1.394091	-0.356620	-0.823562
C74	C	1.894091	0.143380	-0.323562
C75	C	1.394103	-0.163552	-0.464822
C76	C	1.894103	0.336448	0.035178
C77	C	1.394149	-0.081238	-0.464851
C78	C	1.894149	0.418762	0.035149
C79	C	1.394117	-0.356570	-1.019857
C80	C	1.894117	0.143430	-0.519857
C81	C	1.394100	-0.356600	-0.910624
C82	C	1.894100	0.143400	-0.410624
C83	C	1.393981	-0.356725	-0.214140
C84	C	1.893981	0.143275	0.285860
C85	C	1.394139	-0.356545	-0.106927
C86	C	1.894139	0.143455	0.393073
H87	H	1.451370	-0.919844	-0.314457
H88	H	1.951370	-0.419844	0.185543
O89	O	1.218662	-0.925884	-0.510846
O90	O	1.718662	-0.425884	-0.010846
H91	H	1.146796	-0.903415	-0.491967
H92	H	1.646796	-0.403415	0.008033
O93	O	1.519495	-0.785042	-0.596197
O94	O	2.019495	-0.285042	-0.096197
H95	H	1.512953	-0.753110	-0.664086
H96	H	2.012953	-0.253110	-0.164086
O97	O	1.353573	-0.926240	-0.642307
O98	O	1.853573	-0.426240	-0.142307
H99	H	1.296639	-0.960351	-0.608123
H100	H	1.796639	-0.460351	-0.108123
H101	H	1.451419	-0.792620	-0.314876
H102	H	1.951419	-0.292620	0.185124
H103	H	1.496775	-0.918710	-0.588105
H104	H	1.996775	-0.418710	-0.088105
H105	H	1.369113	-0.792786	-0.623619
H106	H	1.869113	-0.292786	-0.123619
H107	H	1.544275	-0.793032	-0.407508
H108	H	2.044275	-0.293032	0.092492
H109	H	1.271733	-0.793137	-0.361655
H110	H	1.771733	-0.293137	0.138345
O111	O	1.568017	-0.927626	-0.412648
O112	O	2.068017	-0.427626	0.087352
H113	H	1.619912	-0.905181	-0.359469
H114	H	2.119912	-0.405181	0.140531
H115	H	1.266939	-0.920706	-0.365893
H116	H	1.766939	-0.420706	0.134107
H117	H	1.234164	-0.792004	-0.486926
H118	H	1.734164	-0.292004	0.013074
