data_functionalizedCrystal
_audit_creation_method	'MofGen! by Chris Wilmer'
_symmetry_space_group_name_H-M	'P1'
_symmetry_Int_Tables_number	1
_symmetry_cell_setting	triclinic
loop_
_symmetry_equiv_pos_as_xyz
  x,y,z
_cell_length_a	27.732048
_cell_length_b	10.723023
_cell_length_c	9.198806
_cell_angle_alpha	89.996513
_cell_angle_beta	89.995410
_cell_angle_gamma	96.444899
loop_
_atom_site_label
_atom_site_type_symbol
_atom_site_fract_x
_atom_site_fract_y
_atom_site_fract_z
O1	O	-0.067787	1.654383	-0.120850
O2	O	-0.074276	1.290962	-0.120853
O3	O	-0.000705	1.483960	-0.120871
O4	O	-0.141359	1.461385	-0.120832
O5	O	-0.000705	1.483944	0.120914
O6	O	-0.074276	1.290947	0.120932
O7	O	-0.067787	1.654368	0.120935
Cu8	Cu	-0.071032	1.472656	0.143010
Cu9	Cu	-0.071032	1.472674	-0.142929
O10	O	-0.141358	1.461370	0.120953
C11	C	-0.073804	1.244474	0.000038
C12	C	-0.072392	1.105978	0.000036
C13	C	-0.071762	1.044225	0.125286
C14	C	-0.070302	0.901082	0.125286
C15	C	-0.159368	1.461852	0.000065
C16	C	-0.213032	1.463279	0.000079
C17	C	-0.551195	1.358213	0.000008
C18	C	-0.752887	1.363507	-0.000009
O19	O	-0.783546	1.267431	-0.000074
N20	N	-0.772722	1.477946	-0.000006
C21	C	-0.742129	1.591070	-0.000008
O22	O	-0.763627	1.688530	-0.000021
C23	C	-0.540438	1.585775	-0.000001
C24	C	-0.520606	1.471328	0.000010
C25	C	-0.531363	1.243775	0.000018
C26	C	-0.480943	1.242453	0.000030
C27	C	-0.450354	1.355568	0.000033
C28	C	-0.470186	1.470006	0.000023
C29	C	-0.509846	1.698898	-0.000013
C30	C	-0.459421	1.697564	-0.000015
C31	C	-0.439589	1.583117	-0.000004
C32	C	-0.389178	1.581799	0.000037
N33	N	-0.369343	1.467359	0.000034
C34	C	-0.399932	1.354244	0.000032
C35	C	-0.848021	1.593843	-0.000009
C36	C	-0.898443	1.595167	-0.000008
C37	C	-0.909198	1.367602	-0.000012
C38	C	-0.858774	1.366280	-0.000002
C39	C	-0.828186	1.479403	-0.000012
C40	C	-0.294045	1.351475	0.000059
C41	C	-0.243620	1.350163	0.000077
C42	C	-0.232870	1.577727	0.000073
C43	C	-0.283291	1.579040	0.000063
C44	C	-0.313878	1.465904	0.000050
O45	O	-0.358490	1.677823	0.000085
O46	O	-0.378424	1.256799	0.000012
C47	C	-0.601615	1.359535	-0.000004
C48	C	-0.621447	1.473973	-0.000014
C49	C	-0.590858	1.587088	-0.000012
C50	C	-0.671869	1.475297	-0.000013
C51	C	-0.702458	1.362181	-0.000016
C52	C	-0.682623	1.247742	-0.000019
C53	C	-0.632203	1.246419	-0.000007
C54	C	-0.610693	1.701528	-0.000008
C55	C	-0.661113	1.702841	-0.000019
C56	C	-0.691702	1.589725	-0.000021
C57	C	0.017305	1.483478	0.000014
C58	C	0.070968	1.482051	-0.000010
C59	C	-0.068259	1.700856	0.000040
C60	C	-0.069672	1.839351	0.000034
N61	N	-0.071031	1.472652	0.344124
N62	N	-0.071029	1.472687	-0.344042
C63	C	-0.040005	1.553692	0.416314
C64	C	-0.040003	1.553712	0.583726
H65	H	-0.070216	0.892449	-0.107204
O66	O	-0.815036	1.715869	0.000002
H67	H	-0.791804	1.720744	-0.098549
O68	O	-0.071671	1.035668	-0.142025
H69	H	-0.103952	0.964624	-0.148253
H70	H	-0.013441	1.623056	0.354182
O71	O	-0.222230	1.226720	0.000085
H72	H	-0.251974	1.148290	0.000066
O73	O	-0.531222	1.822348	-0.000045
H74	H	-0.553937	1.828428	0.098500
O75	O	-0.942197	1.245600	-0.000010
H76	H	-0.919940	1.165790	-0.000005
H77	H	-0.072300	1.097329	0.232518
H78	H	-0.013441	1.623098	0.645806
H79	H	-0.318944	1.259349	0.000048
O80	O	-0.069587	0.830741	0.267333
H81	H	-0.070274	0.897741	0.359082
H82	H	-0.097595	1.403307	0.593887
H83	H	-0.464801	1.149258	0.000027
O84	O	-0.199872	1.699724	0.000072
H85	H	-0.206969	1.754535	0.098621
O86	O	-0.106228	1.380781	0.426405
H87	H	-0.099848	1.283525	0.397310
O88	O	-0.564352	1.121762	0.000038
H89	H	-0.542082	1.041977	0.000061
H90	H	-0.842631	1.273087	0.000013
H91	H	-0.914585	1.688361	0.000006
O92	O	-0.426428	1.819578	-0.000010
H93	H	-0.448693	1.899372	-0.000004
H94	H	-0.299438	1.672232	0.000074
O95	O	-0.610816	1.122981	0.000005
H96	H	-0.623068	1.068688	-0.098549
O97	O	-0.715619	1.125734	-0.000025
H98	H	-0.754012	1.145895	-0.000044
H99	H	-0.585792	1.793642	-0.000008
H100	H	-0.677255	1.796044	-0.000017
