data_functionalizedCrystal
_audit_creation_method	'MofGen! by Chris Wilmer'
_symmetry_space_group_name_H-M	'P1'
_symmetry_Int_Tables_number	1
_symmetry_cell_setting	triclinic
loop_
_symmetry_equiv_pos_as_xyz
  x,y,z
_cell_length_a	10.540539
_cell_length_b	10.540510
_cell_length_c	9.016244
_cell_angle_alpha	89.992678
_cell_angle_beta	90.000301
_cell_angle_gamma	95.480599
loop_
_atom_site_label
_atom_site_type_symbol
_atom_site_fract_x
_atom_site_fract_y
_atom_site_fract_z
O1	O	-1.685864	0.178907	-0.123273
O2	O	-1.316449	0.195763	-0.123291
O3	O	-1.509604	0.002626	-0.123269
O4	O	-1.492709	0.372044	-0.123294
O5	O	-1.509596	0.002612	0.123411
O6	O	-1.316441	0.195749	0.123390
O7	O	-1.685856	0.178892	0.123408
Cu8	Cu	-1.501147	0.187319	0.145923
Cu9	Cu	-1.501157	0.187336	-0.145806
O10	O	-1.492701	0.372029	0.123387
C11	C	-1.269142	0.194492	0.000047
C12	C	-1.128194	0.190710	0.000040
C13	C	-1.508341	-0.044685	0.000071
C14	C	-1.504574	-0.185635	0.000070
N15	N	-1.501150	0.187306	0.351109
C16	C	-1.733163	0.180164	0.000067
C17	C	-1.874110	0.183946	0.000064
C18	C	-0.944783	0.045791	0.000626
C19	C	-1.091401	0.049624	0.000054
C20	C	-1.066519	0.258614	-0.140825
C21	C	-0.919975	0.253799	-0.140928
C22	C	-0.919477	0.256653	0.139594
C23	C	-1.066459	0.257952	0.141441
C24	C	-1.493964	0.419340	0.000043
C25	C	-1.497731	0.560290	0.000034
C26	C	-1.363546	0.777746	0.000612
C27	C	-1.359528	0.631150	0.000033
C28	C	-1.568482	0.605075	-0.140820
C29	C	-1.571521	0.751836	-0.140916
C30	C	-1.574389	0.751593	0.139607
C31	C	-1.567834	0.605251	0.141445
N32	N	-1.501165	0.187339	-0.350992
C33	C	-1.604861	0.084347	0.586107
C34	C	-1.604581	0.083954	0.414216
C35	C	-1.368448	0.157175	0.413530
C36	C	-1.369065	0.156453	0.585475
C37	C	-1.528978	0.320756	0.585606
C38	C	-1.531973	0.319884	0.413650
H39	H	-1.134017	-0.003805	0.101034
H40	H	-1.523175	0.792071	-0.246212
H41	H	-1.629600	0.342721	0.372853
H42	H	-1.668729	0.556178	0.149958
H43	H	-1.586686	-0.015034	0.373103
H44	H	-1.703186	0.102075	0.372012
C45	C	-1.261614	0.255727	0.358313
H46	H	-1.182219	0.235716	0.397373
H47	H	-1.258543	0.253901	0.253045
H48	H	-1.278166	0.338372	0.390483
H49	H	-1.310020	0.821266	-0.099839
H50	H	-0.914585	-0.009704	-0.099827
C51	C	-1.124052	0.194917	-0.282448
H52	H	-1.086122	0.236688	-0.367103
H53	H	-1.108158	0.107719	-0.283710
H54	H	-1.213376	0.201066	-0.283912
H55	H	-1.461429	0.400205	0.370688
C56	C	-1.284740	0.591477	0.136423
H57	H	-1.256540	0.665016	0.192681
H58	H	-1.338385	0.534659	0.196018
H59	H	-1.213128	0.550304	0.104705
C60	C	-1.515360	0.808877	0.283848
H61	H	-1.447578	0.871620	0.260314
H62	H	-1.578557	0.846981	0.338877
H63	H	-1.483492	0.743361	0.341324
C64	C	-1.290780	0.834425	0.137053
H65	H	-1.205884	0.811231	0.135302
H66	H	-1.289475	0.924648	0.135169
H67	H	-1.332080	0.802354	0.224868
C68	C	-0.876866	0.194968	0.283839
H69	H	-0.831008	0.124285	0.260311
H70	H	-0.823634	0.255736	0.338832
H71	H	-0.949679	0.166798	0.341349
H72	H	-1.133155	-0.004170	-0.101092
H73	H	-1.516354	0.576618	0.245649
C74	C	-0.906164	-0.029516	0.137094
H75	H	-0.846587	0.022615	0.194950
H76	H	-0.979592	-0.054374	0.195093
H77	H	-0.868458	-0.103246	0.105428
H78	H	-0.891774	0.203624	-0.246220
H79	H	-1.343547	0.060935	0.370486
C80	C	-1.336203	0.024960	0.639689
H81	H	-1.322610	-0.027516	0.556629
H82	H	-1.261068	0.034983	0.698376
H83	H	-1.404679	-0.013722	0.697488
C84	C	-0.855152	0.390863	-0.149613
H85	H	-0.918414	0.449237	-0.153074
H86	H	-0.802975	0.407909	-0.064677
H87	H	-0.804094	0.400002	-0.236486
C88	C	-1.284328	0.592791	-0.136623
H89	H	-1.256130	0.666844	-0.192009
H90	H	-1.212720	0.551466	-0.105222
H91	H	-1.337757	0.536412	-0.196968
H92	H	-1.623741	0.349422	0.628962
H93	H	-1.453374	0.397414	0.626290
C94	C	-0.855667	0.394314	0.140887
H95	H	-0.883459	0.437770	0.225443
H96	H	-0.765732	0.393019	0.144514
H97	H	-0.878464	0.437089	0.053493
H98	H	-1.088861	0.362224	-0.146073
C99	C	-1.714559	0.781520	0.140914
H100	H	-1.730508	0.832020	0.056886
H101	H	-1.768703	0.704169	0.137815
H102	H	-1.730928	0.826866	0.228837
C103	C	-1.705922	0.541054	-0.147921
H104	H	-1.746952	0.569472	-0.233912
H105	H	-1.704345	0.451170	-0.152158
H106	H	-1.751268	0.563046	-0.062074
C107	C	-1.099164	0.396908	0.152927
H108	H	-1.151120	0.415821	0.071266
H109	H	-1.143758	0.408052	0.242830
H110	H	-1.022781	0.452587	0.151737
C111	C	-1.738517	0.108451	0.641951
H112	H	-1.732281	0.181536	0.704138
H113	H	-1.791810	0.122198	0.559674
H114	H	-1.773910	0.036492	0.696531
H115	H	-1.107423	0.208346	0.245653
C116	C	-1.581030	-0.048617	0.644488
H117	H	-1.508157	-0.041637	0.707026
H118	H	-1.653193	-0.083299	0.699198
H119	H	-1.567010	-0.102940	0.563248
C120	C	-1.711150	0.782911	-0.149627
H121	H	-1.765766	0.705867	-0.153098
H122	H	-1.730900	0.830596	-0.064702
H123	H	-1.722925	0.831421	-0.236508
H124	H	-1.519353	0.574240	-0.245658
H125	H	-1.289522	0.228552	0.627085
