data_functionalizedCrystal
_audit_creation_method	'MofGen! by Chris Wilmer'
_symmetry_space_group_name_H-M	'P1'
_symmetry_Int_Tables_number	1
_symmetry_cell_setting	triclinic
loop_
_symmetry_equiv_pos_as_xyz
  x,y,z
_cell_length_a	12.811457
_cell_length_b	12.837942
_cell_length_c	18.366186
_cell_angle_alpha	89.994829
_cell_angle_beta	95.422910
_cell_angle_gamma	89.411937
loop_
_atom_site_label
_atom_site_type_symbol
_atom_site_fract_x
_atom_site_fract_y
_atom_site_fract_z
O1	O	1.406624	0.139673	0.032334
O2	O	1.102565	0.154864	0.012255
O3	O	1.247852	-0.003663	0.021854
O4	O	1.261337	0.298200	0.022735
O5	O	1.247824	-0.003671	0.142951
O6	O	1.102537	0.154856	0.133352
O7	O	1.406596	0.139665	0.153432
Zn8	Zn	1.254562	0.147259	0.162619
Zn9	Zn	1.254599	0.147270	0.003068
O10	O	1.261309	0.298192	0.143833
C11	C	1.063363	0.154010	0.070216
C12	C	0.946592	0.151462	0.062505
C13	C	0.727136	0.146647	0.180050
C14	C	0.617420	0.144253	0.172808
C15	C	0.617442	0.144272	0.040780
C16	C	0.727158	0.146667	0.048022
C17	C	0.782001	0.147855	0.117659
C18	C	0.891719	0.150257	0.124900
C19	C	0.891739	0.150269	-0.007127
C20	C	0.782023	0.147875	-0.014369
C21	C	1.243283	-0.042307	0.082101
C22	C	1.229697	-0.157443	0.081203
C23	C	1.393024	-0.397699	0.091974
C24	C	1.380264	-0.505879	0.091130
C25	C	1.191418	-0.481987	0.078666
C26	C	1.204178	-0.373807	0.079510
C27	C	1.304984	-0.331666	0.086165
C28	C	1.317743	-0.223484	0.087014
C29	C	1.128898	-0.199594	0.074546
C30	C	1.116138	-0.307775	0.073702
C31	C	1.445798	0.140519	0.095469
C32	C	1.562569	0.143067	0.103176
C33	C	1.265878	0.336837	0.083584
C34	C	1.279464	0.451972	0.084477
N35	N	1.254544	0.147251	0.271509
N36	N	1.254624	0.147269	-0.105822
C37	C	1.318904	0.077090	0.313862
C38	C	1.318910	0.077086	0.390090
C39	C	1.254568	0.147260	0.423963
C40	C	1.190195	0.217427	0.381601
C41	C	1.190183	0.217422	0.305374
C42	C	1.250258	0.241651	0.544436
C43	C	1.250277	0.241657	0.620662
C44	C	1.254599	0.147273	0.659073
C45	C	1.258924	0.052880	0.621249
C46	C	1.258912	0.052876	0.545022
C47	C	1.254574	0.147272	0.506618
C48	C	1.318970	0.077101	0.784081
C49	C	1.318968	0.077095	0.860310
C50	C	1.190259	0.217445	0.851820
C51	C	1.190255	0.217442	0.775592
C52	C	1.254615	0.147272	0.741727
H53	H	0.737355	0.146902	-0.071065
O54	O	1.490866	-0.356585	0.098469
C55	C	1.594214	-0.200512	0.105253
C56	C	1.483348	-0.246933	0.097910
H57	H	1.588173	-0.111853	0.104788
H58	H	1.638278	-0.227604	0.158856
H59	H	1.638275	-0.227727	0.057496
H60	H	1.439199	-0.219739	0.145627
H61	H	1.439363	-0.219846	0.044279
O62	O	0.944872	0.151481	-0.067814
C63	C	0.933313	0.151184	-0.199532
C64	C	0.873010	0.149828	-0.130868
H65	H	0.875239	0.149825	-0.250528
H66	H	0.982292	0.224813	-0.199650
H67	H	0.987066	0.079835	-0.199246
H68	H	0.819202	0.221127	-0.131110
H69	H	0.824098	0.076152	-0.130776
O70	O	1.043288	-0.135556	0.068800
C71	C	0.885825	-0.081982	-0.004345
C72	C	0.982716	-0.154579	0.002070
H73	H	0.836837	-0.097321	-0.058300
H74	H	0.836674	-0.097389	0.043056
H75	H	0.912279	0.002570	-0.002560
H76	H	0.956355	-0.239156	0.000265
H77	H	1.031845	-0.139083	-0.045328
H78	H	0.936371	0.151230	0.181602
H79	H	1.371374	0.019956	0.894795
O80	O	1.127659	0.285653	0.884596
C81	C	1.000045	0.424900	0.868133
C82	C	1.070876	0.347697	0.830916
H83	H	0.954135	0.475098	0.824751
H84	H	0.943050	0.379924	0.900051
H85	H	1.050579	0.476885	0.907165
H86	H	1.020427	0.295693	0.791851
H87	H	1.127877	0.392738	0.799045
H88	H	1.399825	-0.189175	0.092436
H89	H	1.246720	0.318514	0.513167
O90	O	1.018295	-0.348886	0.067276
C91	C	0.914941	-0.504955	0.060410
C92	C	1.025809	-0.458539	0.067705
H93	H	0.920979	-0.593614	0.060739
H94	H	0.870861	-0.477879	0.108196
H95	H	0.870899	-0.477721	0.006839
H96	H	1.069939	-0.485751	0.121248
H97	H	1.069810	-0.485609	0.019881
H98	H	1.246762	0.318517	0.651453
H99	H	1.137805	0.274562	0.409184
H100	H	1.137772	0.274557	0.270889
H101	H	0.771790	0.147628	0.236751
O102	O	1.465897	-0.569875	0.096813
C103	C	1.654553	-0.582152	0.109218
C104	C	1.557660	-0.509558	0.102806
H105	H	1.728767	-0.533415	0.114050
H106	H	1.653369	-0.633385	0.159831
H107	H	1.653247	-0.633410	0.058463
H108	H	1.558903	-0.458235	0.153523
H109	H	1.558880	-0.458395	0.052162
H110	H	1.109346	-0.516317	0.073240
H111	H	0.572753	0.143274	0.223613
H112	H	1.371308	0.019951	0.286291
H113	H	1.371322	0.019950	0.424580
H114	H	0.572770	0.143287	-0.015915
O115	O	1.263060	-0.038904	0.508389
C116	C	1.271687	-0.226143	0.517009
C117	C	1.266974	-0.122279	0.558585
H118	H	1.274875	-0.293578	0.557575
H119	H	1.198973	-0.233477	0.476556
H120	H	1.344784	-0.228259	0.486113
H121	H	1.193923	-0.120091	0.589523
H122	H	1.339739	-0.114987	0.598995
O123	O	1.262937	-0.038796	0.658566
C124	C	1.177742	-0.151497	0.739047
C125	C	1.173047	-0.047656	0.696808
H126	H	1.105086	-0.158684	0.769989
H127	H	1.180765	-0.218994	0.698944
H128	H	1.250903	-0.153654	0.779522
H129	H	1.099894	-0.045396	0.656333
H130	H	1.170081	0.019794	0.736955
H131	H	1.371373	0.019961	0.756507
O132	O	1.127631	0.285466	0.734405
C133	C	0.986474	0.306851	0.639005
C134	C	1.057311	0.229697	0.685612
H135	H	0.929618	0.261792	0.599534
H136	H	0.940409	0.356998	0.676267
H137	H	1.037014	0.358893	0.606676
H138	H	1.006850	0.177588	0.717947
H139	H	1.103383	0.179623	0.648312
