data_functionalizedCrystal
_audit_creation_method	'MofGen! by Chris Wilmer'
_symmetry_space_group_name_H-M	'P1'
_symmetry_Int_Tables_number	1
_symmetry_cell_setting	triclinic
loop_
_symmetry_equiv_pos_as_xyz
  x,y,z
_cell_length_a	18.050590
_cell_length_b	18.050583
_cell_length_c	16.625546
_cell_angle_alpha	90.037482
_cell_angle_beta	89.988365
_cell_angle_gamma	89.999666
loop_
_atom_site_label
_atom_site_type_symbol
_atom_site_fract_x
_atom_site_fract_y
_atom_site_fract_z
Zn1	Zn	1.135330	-0.419595	0.321177
Zn2	Zn	1.468664	-0.086262	0.654510
Zn3	Zn	1.801997	0.247071	0.987844
Zn4	Zn	1.135251	-0.295403	0.456037
Zn5	Zn	1.468584	0.037931	0.789370
Zn6	Zn	1.801918	0.371264	1.122704
Zn7	Zn	1.011147	-0.295453	0.321196
Zn8	Zn	1.344480	0.037880	0.654530
Zn9	Zn	1.677814	0.371213	0.987863
Zn10	Zn	1.011110	-0.419585	0.455946
Zn11	Zn	1.344443	-0.086252	0.789279
Zn12	Zn	1.677777	0.247081	1.122613
O13	O	1.073210	-0.357509	0.388589
O14	O	1.406543	-0.024176	0.721922
O15	O	1.739876	0.309157	1.055256
O16	O	1.239244	-0.403104	0.339097
O17	O	1.572578	-0.069771	0.672430
O18	O	1.905911	0.263563	1.005763
O19	O	1.118771	-0.191485	0.438196
O20	O	1.452104	0.141848	0.771530
O21	O	1.785437	0.475182	1.104863
O22	O	1.027669	-0.311947	0.208361
O23	O	1.361002	0.021387	0.541695
O24	O	1.694336	0.354720	0.875028
O25	O	1.239186	-0.311860	0.438177
O26	O	1.572519	0.021473	0.771511
O27	O	1.905853	0.354806	1.104844
O28	O	1.118906	-0.403153	0.208347
O29	O	1.452239	-0.069820	0.541681
O30	O	1.785572	0.263514	0.875014
O31	O	1.027592	-0.191522	0.339129
O32	O	1.360925	0.141811	0.672463
O33	O	1.694259	0.475145	1.005796
O34	O	0.907218	-0.311937	0.339041
O35	O	1.240551	0.021396	0.672375
O36	O	1.573884	0.354730	1.005708
O37	O	1.027606	-0.523511	0.438022
O38	O	1.360939	-0.190178	0.771356
O39	O	1.694272	0.143155	1.104689
O40	O	0.907190	-0.403136	0.438041
O41	O	1.240524	-0.069803	0.771374
O42	O	1.573857	0.263531	1.104708
O43	O	1.118870	-0.523519	0.339008
O44	O	1.452203	-0.190185	0.672342
O45	O	1.785536	0.143148	1.005675
O46	O	1.118735	-0.311850	0.568857
O47	O	1.452068	0.021483	0.902191
O48	O	1.785401	0.354816	1.235524
O49	O	1.027529	-0.403087	0.568790
O50	O	1.360862	-0.069753	0.902124
O51	O	1.694195	0.263580	1.235457
C52	C	0.880257	-0.357541	0.388534
C53	C	1.213591	-0.024208	0.721867
C54	C	1.546924	0.309125	1.055201
C55	C	0.797712	-0.357573	0.388530
C56	C	1.131045	-0.024239	0.721863
C57	C	1.464378	0.309094	1.055197
C58	C	0.598268	-0.407049	0.442520
C59	C	0.931601	-0.073715	0.775854
C60	C	1.264934	0.259618	1.109187
C61	C	0.548868	-0.425325	0.368996
C62	C	0.882201	-0.091992	0.702330
C63	C	1.215535	0.241341	1.035663
C64	C	0.646581	-0.357536	0.388575
C65	C	0.979915	-0.024203	0.721908
C66	C	1.313248	0.309130	1.055242
C67	C	0.548899	-0.339259	0.462141
C68	C	0.882232	-0.005926	0.795474
C69	C	1.215566	0.327408	1.128808
C70	C	0.500596	-0.357503	0.388625
C71	C	0.833929	-0.024169	0.721958
C72	C	1.167263	0.309164	1.055292
C73	C	0.598269	-0.375848	0.315012
C74	C	0.931602	-0.042515	0.648345
C75	C	1.264936	0.290818	0.981679
C76	C	0.598304	-0.289750	0.408206
C77	C	0.931638	0.043583	0.741539
C78	C	1.264971	0.376916	1.074873
C79	C	0.548927	-0.308001	0.334631
C80	C	0.882260	0.025332	0.667965
C81	C	1.215594	0.358666	1.001298
C82	C	0.730680	-0.357558	0.388547
C83	C	1.064013	-0.024224	0.721881
C84	C	1.397346	0.309109	1.055214
C85	C	0.416500	-0.357481	0.388644
C86	C	0.749833	-0.024148	0.721978
C87	C	1.083166	0.309185	1.055311
C88	C	1.073242	-0.551215	0.388503
C89	C	1.406576	-0.217882	0.721836
C90	C	1.739909	0.115452	1.055170
C91	C	1.073256	-0.633761	0.388466
C92	C	1.406590	-0.300427	0.721800
C93	C	1.739923	0.032906	1.055133
C94	C	1.122935	-0.833216	0.334597
C95	C	1.456269	-0.499882	0.667930
C96	C	1.789602	-0.166549	1.001263
C97	C	1.055200	-0.882629	0.314848
C98	C	1.388533	-0.549296	0.648182
C99	C	1.721867	-0.215963	0.981515
C100	C	1.073286	-0.784891	0.388452
C101	C	1.406619	-0.451558	0.721786
C102	C	1.739953	-0.118225	1.055119
C103	C	1.141049	-0.882559	0.408150
C104	C	1.474382	-0.549226	0.741483
C105	C	1.807716	-0.215893	1.074816
C106	C	1.073321	-0.930876	0.388438
C107	C	1.406654	-0.597543	0.721771
C108	C	1.739987	-0.264210	1.055104
C109	C	1.005515	-0.833218	0.368666
C110	C	1.338848	-0.499884	0.702000
C111	C	1.672181	-0.166551	1.035333
C112	C	1.091409	-0.833143	0.462002
C113	C	1.424743	-0.499810	0.795335
C114	C	1.758076	-0.166477	1.128668
C115	C	1.023627	-0.882535	0.442282
C116	C	1.356960	-0.549201	0.775615
C117	C	1.690294	-0.215868	1.108948
C118	C	1.073267	-0.700793	0.388459
C119	C	1.406600	-0.367460	0.721792
C120	C	1.739934	-0.034126	1.055126
C121	C	1.073332	-1.014973	0.388431
C122	C	1.406666	-0.681640	0.721765
C123	C	1.739999	-0.348306	1.055098
C124	C	1.266915	-0.357478	0.388645
C125	C	1.600248	-0.024144	0.721978
C126	C	1.933582	0.309189	1.055312
C127	C	1.349461	-0.357464	0.388669
C128	C	1.682794	-0.024131	0.722002
C129	C	2.016128	0.309203	1.055335
C130	C	1.073139	-0.357478	0.598080
C131	C	1.406473	-0.024145	0.931413
C132	C	1.739806	0.309188	1.264747
C133	C	1.073177	-0.357490	0.687701
C134	C	1.406510	-0.024156	1.021034
C135	C	1.739844	0.309177	1.354368
C136	C	1.073220	-0.164557	0.388617
C137	C	1.406553	0.168776	0.721950
C138	C	1.739886	0.502110	1.055283
C139	C	1.073349	-0.082012	0.388426
C140	C	1.406683	0.251322	0.721760
C141	C	1.740016	0.584655	1.055093
C142	C	1.073300	-0.357557	0.178280
C143	C	1.406634	-0.024223	0.511614
C144	C	1.739967	0.309110	0.844947
C145	C	1.073339	-0.357577	0.088659
C146	C	1.406672	-0.024244	0.421992
C147	C	1.740006	0.309090	0.755326
C148	C	1.073307	-0.357567	1.015877
C149	C	1.406640	-0.024234	1.349210
C150	C	1.739973	0.309100	1.682543
C151	C	1.073268	-0.357548	0.924568
C152	C	1.406602	-0.024214	1.257902
C153	C	1.739935	0.309119	1.591235
C154	C	1.073241	-0.357528	0.851792
C155	C	1.406575	-0.024195	1.185125
C156	C	1.739908	0.309139	1.518458
C157	C	1.073204	-0.357509	0.760477
C158	C	1.406537	-0.024176	1.093811
C159	C	1.739871	0.309157	1.427144
H160	H	0.527399	-0.266116	0.288980
H161	H	0.860732	0.067217	0.622314
H162	H	1.194066	0.400551	0.955647
Br163	Br	0.512676	-0.520846	0.341345
Br164	Br	0.846009	-0.187513	0.674678
Br165	Br	1.179342	0.145821	1.008011
H166	H	1.198340	-0.904236	0.424814
H167	H	1.531673	-0.570903	0.758147
H168	H	1.865007	-0.237570	1.091481
Br169	Br	0.634496	-0.194238	0.435873
Br170	Br	0.967829	0.139095	0.769206
Br171	Br	1.301163	0.472428	1.102540
Br172	Br	0.512750	-0.313516	0.565798
Br173	Br	0.846083	0.019818	0.899131
Br174	Br	1.179417	0.353151	1.232464
H175	H	1.164854	-0.811558	0.289024
H176	H	1.498187	-0.478225	0.622357
H177	H	1.831520	-0.144891	0.955690
H178	H	1.039882	-0.904366	0.252643
H179	H	1.373215	-0.571033	0.585977
H180	H	1.706549	-0.237699	0.919310
Br181	Br	0.634380	-0.476909	0.518428
Br182	Br	0.967713	-0.143576	0.851761
Br183	Br	1.301046	0.189757	1.185095
Br184	Br	0.634257	-0.401699	0.211321
Br185	Br	0.967590	-0.068365	0.544654
Br186	Br	1.300924	0.264968	0.877988
Br187	Br	0.909993	-0.797250	0.340782
Br188	Br	1.243326	-0.463917	0.674115
Br189	Br	1.576659	-0.130583	1.007449
H190	H	0.981607	-0.904053	0.487820
H191	H	1.314940	-0.570720	0.821153
H192	H	1.648273	-0.237387	1.154486
Br193	Br	1.116974	-0.796885	0.565654
Br194	Br	1.450307	-0.463552	0.898987
Br195	Br	1.783641	-0.130219	1.232320
