data_functionalizedCrystal
_audit_creation_method	'MofGen! by Chris Wilmer'
_symmetry_space_group_name_H-M	'P1'
_symmetry_Int_Tables_number	1
_symmetry_cell_setting	triclinic
loop_
_symmetry_equiv_pos_as_xyz
  x,y,z
_cell_length_a	12.827893
_cell_length_b	18.101395
_cell_length_c	12.827885
_cell_angle_alpha	89.967625
_cell_angle_beta	89.980728
_cell_angle_gamma	90.031075
loop_
_atom_site_label
_atom_site_type_symbol
_atom_site_fract_x
_atom_site_fract_y
_atom_site_fract_z
Zn1	Zn	1.597556	-0.294794	-0.590830
Zn2	Zn	1.597402	-0.418654	-0.416082
Zn3	Zn	1.422797	-0.294830	-0.416103
Zn4	Zn	1.422734	-0.418598	-0.590782
O5	O	1.510122	-0.356719	-0.503449
O6	O	1.743771	-0.311233	-0.567660
O7	O	1.574202	-0.402266	-0.269849
O8	O	1.446070	-0.191193	-0.439310
O9	O	1.743658	-0.402231	-0.439274
O10	O	1.574464	-0.191166	-0.567681
O11	O	1.445920	-0.311294	-0.269865
O12	O	1.276553	-0.311241	-0.439264
O13	O	1.445963	-0.402137	-0.737025
O14	O	1.276507	-0.402172	-0.567600
O15	O	1.574403	-0.311179	-0.737060
O16	O	1.574141	-0.522279	-0.439228
O17	O	1.445814	-0.522239	-0.567579
C18	C	1.238612	-0.356705	-0.503430
C19	C	1.122459	-0.356717	-0.503446
C20	C	1.070679	-0.401783	-0.566852
C21	C	0.950629	-0.401796	-0.566871
C22	C	1.509982	-0.549130	-0.503419
C23	C	1.510018	-0.631444	-0.503440
C24	C	1.510247	-0.930535	-0.503497
C25	C	1.429695	-0.899215	-0.584452
C26	C	1.429312	-0.813597	-0.584199
C27	C	1.510134	-0.782152	-0.503470
C28	C	1.480314	-0.813311	-0.393335
C29	C	1.479795	-0.898956	-0.393820
C30	C	1.620796	-0.898877	-0.531706
C31	C	1.620146	-0.813226	-0.534121
C32	C	1.510071	-0.698293	-0.503448
C33	C	1.510307	-1.014394	-0.503511
C34	C	1.782692	-0.356734	-0.503470
C35	C	1.898845	-0.356740	-0.503479
C36	C	1.510193	-0.356648	-0.776020
C37	C	1.510224	-0.356618	-0.892173
C38	C	1.510291	-0.163557	-0.503503
C39	C	1.510363	-0.081243	-0.503526
C40	C	1.573787	-0.311600	-0.943975
C41	C	1.573820	-0.311568	-1.064025
C42	C	1.510111	-0.356737	-0.231940
C43	C	1.510284	-0.356558	-0.115787
H44	H	0.943368	-0.318158	-0.449188
H45	H	1.455822	-0.395130	-0.936700
C46	C	1.193623	-0.412096	-0.707259
C47	C	1.130807	-0.453858	-0.640120
H48	H	1.230746	-0.444247	-0.752487
H49	H	1.151078	-0.379905	-0.747356
H50	H	1.241658	-0.383821	-0.667464
H51	H	1.082767	-0.482128	-0.679914
H52	H	1.173356	-0.486062	-0.600019
C53	C	0.783233	-0.443813	-0.625995
C54	C	0.890524	-0.453883	-0.640161
H55	H	0.746128	-0.475968	-0.671248
H56	H	0.765363	-0.454587	-0.555750
H57	H	0.765442	-0.394056	-0.641397
H58	H	0.908316	-0.503640	-0.624751
H59	H	0.908401	-0.443115	-0.710421
H60	H	1.628178	-0.273080	-0.899448
C61	C	0.999540	-0.346415	-0.363019
C62	C	1.062344	-0.304646	-0.430161
H63	H	0.962437	-0.314268	-0.317768
H64	H	0.951496	-0.374677	-0.402803
H65	H	1.042098	-0.378618	-0.322938
H66	H	1.019784	-0.272446	-0.470248
H67	H	1.110393	-0.276371	-0.390373
H68	H	1.347370	-0.793175	-0.565514
H69	H	1.447969	-0.792528	-0.665863
C70	C	1.306427	-0.865086	-0.341996
C71	C	1.370702	-0.926021	-0.361571
H72	H	1.239075	-0.881794	-0.322095
H73	H	1.335517	-0.836311	-0.287359
H74	H	1.301085	-0.835835	-0.403266
H75	H	1.376050	-0.955269	-0.300298
H76	H	1.341606	-0.954809	-0.416212
H77	H	1.680811	-0.919130	-0.472743
C78	C	1.665447	-0.846400	-0.709569
C79	C	1.650464	-0.785744	-0.643558
H80	H	1.684141	-0.829435	-0.777139
H81	H	1.719581	-0.876677	-0.682655
H82	H	1.602771	-0.874218	-0.713694
H83	H	1.713143	-0.757929	-0.639428
H84	H	1.596326	-0.755455	-0.670479
H85	H	1.348251	-0.920803	-0.566002
C86	C	1.542694	-0.972553	-0.691854
C87	C	1.454613	-0.926954	-0.695055
H88	H	1.558072	-0.989686	-0.760137
H89	H	1.600364	-0.945350	-0.665714
H90	H	1.529373	-1.013558	-0.647552
H91	H	1.467937	-0.885946	-0.739352
H92	H	1.396931	-0.954158	-0.721210
H93	H	1.535921	-0.919677	-0.331445
H94	H	1.537139	-0.792944	-0.331373
H95	H	1.400359	-0.791927	-0.369010
C96	C	1.660543	-0.737840	-0.385575
C97	C	1.705459	-0.784329	-0.460326
H98	H	1.713211	-0.720005	-0.340008
H99	H	1.627809	-0.697343	-0.419408
H100	H	1.610158	-0.764651	-0.346601
H101	H	1.755839	-0.757516	-0.499305
H102	H	1.738209	-0.824832	-0.426490
C103	C	1.588342	-0.211994	-1.186914
C104	C	1.647286	-0.259530	-1.124151
H105	H	1.633700	-0.179864	-1.224028
H106	H	1.548500	-0.240217	-1.234948
H107	H	1.542864	-0.183654	-1.144327
H108	H	1.692759	-0.287875	-1.166740
H109	H	1.687146	-0.231304	-1.076112
C110	C	1.495762	-0.456125	-0.992891
C111	C	1.436816	-0.408593	-1.055658
H112	H	1.450405	-0.488245	-0.955759
H113	H	1.541228	-0.484469	-1.035470
H114	H	1.535617	-0.427893	-0.944863
H115	H	1.396967	-0.436824	-1.103691
H116	H	1.391333	-0.380246	-1.013075
H117	H	1.647982	-0.920420	-0.610647
