data_functionalizedCrystal
_audit_creation_method	'MofGen! by Chris Wilmer'
_symmetry_space_group_name_H-M	'P1'
_symmetry_Int_Tables_number	1
_symmetry_cell_setting	triclinic
loop_
_symmetry_equiv_pos_as_xyz
  x,y,z
_cell_length_a	18.760487
_cell_length_b	14.809374
_cell_length_c	14.809374
_cell_angle_alpha	60.797835
_cell_angle_beta	90.034794
_cell_angle_gamma	67.449027
loop_
_atom_site_label
_atom_site_type_symbol
_atom_site_fract_x
_atom_site_fract_y
_atom_site_fract_z
Zr1	Zr	0.787305	0.955322	-0.203126
O2	O	0.699992	1.113229	-0.350346
O3	O	0.801710	0.777557	-0.145040
O4	O	0.830866	0.926709	-0.331559
O5	O	0.661898	0.993571	-0.031435
O6	O	0.948164	0.926727	-0.331478
O7	O	0.670836	0.964077	-0.163827
O8	O	0.896009	0.659921	0.002172
O9	O	0.714053	1.260377	-0.365084
O10	O	0.910326	0.858042	-0.135859
O11	O	0.816118	0.880040	-0.037117
O12	O	0.850446	1.055647	-0.256720
O13	O	0.756238	1.077645	-0.157978
Zr14	Zr	0.960127	1.002390	0.008153
Zr15	Zr	0.974381	0.955350	-0.202997
Zr16	Zr	0.773051	1.002362	0.008023
Zr17	Zr	0.809731	1.190006	-0.226632
Zr18	Zr	0.937700	0.767706	0.031659
O19	O	0.945722	1.180155	-0.049934
O20	O	0.965990	1.113270	-0.350161
O21	O	0.679724	1.180114	-0.050119
O22	O	1.047440	0.844483	0.155373
O23	O	1.067708	0.777598	-0.144855
O24	O	0.781442	0.844442	0.155188
O25	O	1.085534	0.964141	-0.163539
O26	O	0.916565	1.031003	0.136586
O27	O	0.799268	1.030985	0.136504
O28	O	1.076596	0.993635	-0.031147
O29	O	0.862754	1.260400	-0.364981
O30	O	0.884678	0.697312	0.170008
O31	O	1.033378	0.697335	0.170111
O32	O	1.044709	0.659944	0.002275
O33	O	0.702723	1.297768	-0.197248
O34	O	0.851423	1.297791	-0.197145
O35	O	0.896986	0.902065	0.061746
O36	O	0.991194	0.880067	-0.036995
O37	O	0.931314	1.077672	-0.157856
O38	O	0.837106	1.099670	-0.059115
C39	C	0.845664	0.685302	-0.068085
C40	C	0.836144	0.585672	-0.058106
C41	C	0.639713	0.978820	-0.097649
C42	C	0.560294	0.978808	-0.097704
C43	C	0.878632	0.530342	-0.102640
C44	C	0.868794	0.427369	-0.092327
C45	C	0.193194	1.082047	-0.160404
C46	C	0.255715	0.875743	-0.034223
C47	C	0.330342	0.875722	-0.034307
C48	C	0.336399	0.978865	-0.097442
C49	C	0.267828	1.082029	-0.160493
C50	C	0.398919	0.772559	0.028734
C51	C	0.473552	0.772534	0.028651
C52	C	0.479610	0.875679	-0.034479
C53	C	0.411033	0.978847	-0.097531
C54	C	0.417089	1.081990	-0.160666
C55	C	0.348513	1.185160	-0.223713
C56	C	0.273885	1.185174	-0.223623
C57	C	0.554237	0.875665	-0.034569
C58	C	0.491723	1.081971	-0.160755
C59	C	1.107719	0.978892	-0.097324
C60	C	1.187138	0.978904	-0.097269
C61	C	0.891546	0.920016	-0.361603
C62	C	0.897597	0.900046	-0.451241
C63	C	0.901768	1.272410	-0.126888
C64	C	0.911288	1.372040	-0.136867
C65	C	0.870591	0.989169	-0.551160
C66	C	0.876845	0.968531	-0.643808
C67	C	0.855886	1.037696	0.166629
C68	C	0.849834	1.057666	0.256268
C69	C	1.079667	0.685338	-0.067922
C70	C	1.149565	0.585720	-0.057888
C71	C	0.827834	0.744142	0.196031
C72	C	0.812262	0.664482	0.295649
C73	C	1.061837	0.744178	0.196194
C74	C	1.125684	0.664530	0.295866
C75	C	0.685595	1.213534	-0.391167
C76	C	0.621748	1.293182	-0.490840
C77	C	0.667764	1.272374	-0.127051
C78	C	0.597866	1.371992	-0.137085
C79	C	0.919598	1.213570	-0.391005
C80	C	0.935170	1.293230	-0.490622
C81	C	1.140179	0.527440	-0.104791
C82	C	1.205851	0.433848	-0.095384
C83	C	1.280908	0.398532	-0.039068
C84	C	1.290294	0.456821	0.007835
C85	C	1.224623	0.550417	-0.001578
C86	C	0.847161	0.638572	0.394045
C87	C	0.832527	0.563738	0.487652
C88	C	0.782998	0.514809	0.482863
C89	C	0.748095	0.540726	0.384456
C90	C	0.762725	0.615565	0.290850
C91	C	1.204850	0.615644	0.291131
C92	C	1.264850	0.540818	0.384775
C93	C	1.245681	0.514873	0.483153
C94	C	1.166507	0.563767	0.487885
C95	C	1.106509	0.638599	0.394242
C96	C	0.542583	1.342079	-0.486106
C97	C	0.482586	1.416935	-0.579752
C98	C	0.501755	1.442885	-0.678131
C99	C	0.580929	1.393984	-0.682862
C100	C	0.640925	1.319136	-0.589218
C101	C	0.607254	1.430280	-0.090192
C102	C	0.541586	1.523893	-0.099625
C103	C	0.466530	1.559211	-0.155944
C104	C	0.457144	1.500918	-0.202843
C105	C	0.522812	1.407312	-0.193416
C106	C	0.984702	1.342136	-0.485798
C107	C	0.999349	1.416974	-0.579389
C108	C	0.964458	1.442911	-0.677805
C109	C	0.914923	1.393997	-0.682626
C110	C	0.900282	1.319153	-0.589035
H111	H	0.922296	0.559199	-0.148397
H112	H	1.013117	1.321032	-0.405672
F113	F	1.195845	0.371824	-0.145305
F114	F	0.354969	1.294928	-0.290905
F115	F	0.398329	1.468963	-0.574694
H116	H	1.294542	0.453938	0.559395
F117	F	0.695385	0.488642	0.379375
H118	H	1.079071	0.556189	-0.150662
F119	F	1.052066	1.469026	-0.574236
F120	F	0.813564	1.177378	-0.765910
F121	F	0.200900	1.294965	-0.290716
H122	H	0.887490	0.678403	0.397964
H123	H	0.925351	0.808467	-0.434287
F124	F	0.847555	1.267119	-0.594187
F125	F	0.120213	1.191844	-0.227495
H126	H	0.452895	1.503832	-0.754374
F127	F	0.811726	0.389647	-0.032502
H128	H	0.529383	0.688526	0.079986
F129	F	0.249265	0.765977	0.032960
H130	H	0.954955	0.400894	-0.182627
H131	H	0.792485	0.556807	-0.012342
H132	H	1.329312	0.501013	0.380903
F133	F	0.834322	1.108873	-0.573328
F134	F	0.687130	1.392712	-0.030250
F135	F	1.146117	0.536144	0.592596
H136	H	0.904600	0.876945	-0.626846
F137	F	1.350794	0.298914	-0.029056
H138	H	0.496644	1.165966	-0.212157
F139	F	0.522163	1.314474	-0.381413
H140	H	0.393980	0.688586	0.080135
H141	H	0.610068	0.791668	0.016771
F142	F	1.370181	0.419220	0.067772
H143	H	1.232276	0.597860	0.036623
F144	F	0.980047	1.522571	-0.777406
F145	F	0.869682	0.536166	0.592373
H146	H	0.771092	0.453872	0.559091
H147	H	0.596528	1.415122	-0.762973
F148	F	0.725580	0.643126	0.186133
H149	H	1.220473	0.636755	0.211036
H150	H	1.042049	0.678393	0.398112
F151	F	0.725178	1.267095	-0.594271
F152	F	0.551592	1.585914	-0.049701
F153	F	0.396646	1.658838	-0.165967
H154	H	0.515156	1.359856	-0.231600
F155	F	0.377256	1.538518	-0.262777
H156	H	0.886518	1.415127	-0.762769
