data_functionalizedCrystal
_audit_creation_method	'MofGen! by Chris Wilmer'
_symmetry_space_group_name_H-M	'P1'
_symmetry_Int_Tables_number	1
_symmetry_cell_setting	triclinic
loop_
_symmetry_equiv_pos_as_xyz
  x,y,z
_cell_length_a	16.992697
_cell_length_b	16.053948
_cell_length_c	16.974813
_cell_angle_alpha	90.769009
_cell_angle_beta	92.975198
_cell_angle_gamma	92.712413
loop_
_atom_site_label
_atom_site_type_symbol
_atom_site_fract_x
_atom_site_fract_y
_atom_site_fract_z
O1	O	-1.036809	0.080385	0.163992
O2	O	-0.808530	0.080289	0.162157
O3	O	-0.929360	0.072607	0.048725
O4	O	-0.915978	0.088068	0.277424
O5	O	-0.935208	-0.065824	0.055022
O6	O	-0.814377	-0.058141	0.168454
O7	O	-1.042656	-0.058046	0.170289
Zn8	Zn	-0.929445	-0.080072	0.170371
Zn9	Zn	-0.921741	0.102316	0.162075
O10	O	-0.921826	-0.050363	0.283721
C11	C	-0.782250	0.010918	0.162946
C12	C	-0.695233	0.010453	0.155908
N13	N	-0.934709	-0.204548	0.176033
C14	C	-0.644725	0.015044	0.223814
C15	C	-0.562965	0.014587	0.217197
C16	C	-0.531714	0.009544	0.142672
C17	C	-0.582229	0.004950	0.074761
C18	C	-0.663988	0.005402	0.081379
C19	C	-0.288226	0.007671	0.115242
C20	C	-0.206460	0.007222	0.108629
C21	C	-0.187202	0.016857	0.251066
C22	C	-0.268963	0.017313	0.257678
C23	C	-0.319471	0.012715	0.189766
N24	N	-0.448143	0.009079	0.135906
N25	N	-0.403041	0.013175	0.196533
C26	C	-0.889213	-0.251562	0.127186
C27	C	-0.892915	-0.338699	0.131157
C28	C	-0.942116	-0.378820	0.183972
C29	C	-0.987613	-0.331799	0.232823
C30	C	-0.983907	-0.244664	0.228856
C31	C	-0.958274	-0.639052	0.201292
C32	C	-0.961979	-0.726194	0.205254
C33	C	-0.867279	-0.733088	0.103588
C34	C	-0.863581	-0.645951	0.099622
C35	C	-0.909074	-0.598937	0.148477
N36	N	-0.945903	-0.467888	0.188030
N37	N	-0.905283	-0.509871	0.144422
C38	C	-0.068936	0.011331	0.169499
C39	C	-0.155952	0.011813	0.176535
C40	C	-0.931884	0.001406	0.022475
C41	C	-0.930682	-0.004510	-0.065124
N42	N	-0.916484	0.226791	0.156407
C43	C	-0.926932	0.068168	-0.109706
C44	C	-0.925798	0.062607	-0.192015
C45	C	-0.928419	-0.015634	-0.229740
C46	C	-0.932167	-0.088318	-0.185152
C47	C	-0.933296	-0.082756	-0.102845
C48	C	-0.925380	-0.040361	-0.475534
C49	C	-0.924254	-0.045917	-0.557848
C50	C	-0.917883	0.105008	-0.564705
C51	C	-0.919016	0.110564	-0.482396
C52	C	-0.922760	0.037880	-0.437815
N53	N	-0.927262	-0.021320	-0.313873
N54	N	-0.923911	0.043567	-0.353683
C55	C	-0.919302	0.020840	0.309971
C56	C	-0.920504	0.026761	0.397570
H57	H	-0.670162	0.019151	0.284500
H58	H	-0.922747	0.121790	-0.228310
H59	H	-1.020952	-0.206385	0.268634
Br60	Br	-0.831162	-0.402501	0.064868
H61	H	-0.916883	0.174276	-0.451686
H62	H	-0.914833	0.164184	-0.601012
Br63	Br	-0.356762	0.001429	0.023076
Br64	Br	-0.164050	0.000360	0.007482
H65	H	-0.521844	0.018326	0.272494
H66	H	-0.823518	-0.613291	0.056613
Br67	Br	-0.539819	-0.001902	-0.026381
H68	H	-0.926385	-0.109634	-0.588560
H69	H	-0.928445	-0.099545	-0.439247
H70	H	-0.995322	-0.600785	0.241070
Br71	Br	-0.935712	-0.194504	-0.236348
H72	H	-0.924801	0.131881	-0.078997
H73	H	-0.294400	0.021429	0.318363
Br74	Br	-0.938381	-0.181395	-0.042339
Br75	Br	-0.118653	0.023096	0.343226
Br76	Br	-1.054378	-0.386248	0.304510
H77	H	-0.705111	0.001664	0.026082
H78	H	-0.830239	-0.771375	0.063815
Br79	Br	-0.822447	-0.197121	0.055497
H80	H	-1.002045	-0.758858	0.248265
