data_functionalizedCrystal
_audit_creation_method	'MofGen! by Chris Wilmer'
_symmetry_space_group_name_H-M	'P1'
_symmetry_Int_Tables_number	1
_symmetry_cell_setting	triclinic
loop_
_symmetry_equiv_pos_as_xyz
  x,y,z
_cell_length_a	6.817900
_cell_length_b	17.982959
_cell_length_c	11.168144
_cell_angle_alpha	94.260582
_cell_angle_beta	108.508840
_cell_angle_gamma	102.451857
loop_
_atom_site_label
_atom_site_type_symbol
_atom_site_fract_x
_atom_site_fract_y
_atom_site_fract_z
V1	V	-4.079253	-0.105423	-0.394226
O2	O	-4.070936	0.005055	-0.386179
O3	O	-4.025440	-0.209026	-0.392052
O4	O	-4.056014	-0.103807	-0.565924
O5	O	-4.040151	-0.100893	-0.211104
V6	V	-4.560322	-0.092208	-0.372260
O7	O	-4.345895	-0.134412	-0.442411
O8	O	-4.743879	-0.063220	-0.324075
O9	O	-4.390929	0.011394	-0.374434
O10	O	-4.686037	-0.202687	-0.380307
O11	O	-4.716822	-0.096739	-0.555383
O12	O	-4.360355	-0.093825	-0.200562
C13	C	-3.868310	-0.234282	-0.385968
C14	C	-3.905766	-0.318979	-0.385334
C15	C	-4.106206	-0.362650	-0.391354
C16	C	-4.141391	-0.442232	-0.390767
C17	C	-3.976130	-0.478140	-0.384150
C18	C	-3.775676	-0.434463	-0.378133
C19	C	-3.740498	-0.354884	-0.378730
C20	C	-3.917544	-0.755399	-0.375728
C21	C	-3.952737	-0.834984	-0.375128
C22	C	-4.318438	-0.842747	-0.387765
C23	C	-4.283259	-0.763168	-0.388362
C24	C	-4.082813	-0.719498	-0.382351
C25	C	-4.044664	-0.633207	-0.382991
C26	C	-4.014272	-0.564429	-0.383501
C27	C	-3.907309	-0.100063	-0.607757
C28	C	-3.969556	-0.099427	-0.748124
C29	C	-4.034858	-0.165450	-0.828175
C30	C	-4.099194	-0.164794	-0.973252
C31	C	-4.211401	0.036646	-0.380515
C32	C	-4.153184	0.121342	-0.381157
C33	C	-4.172401	-0.097571	-0.158723
C34	C	-4.089393	-0.098203	-0.018354
H35	H	-4.417832	-0.733935	-0.393743
Cl36	Cl	-3.488510	-0.299983	-0.371169
H37	H	-4.033365	-0.041676	-0.949586
H38	H	-3.961291	-0.042416	-0.786995
H39	H	-3.754330	-0.719852	-0.370826
H40	H	-4.240779	-0.333418	-0.396731
Cl41	Cl	-4.185659	-0.252067	-1.079429
Cl42	Cl	-4.570436	-0.897651	-0.395325
Cl43	Cl	-4.393381	-0.497130	-0.398333
Cl44	Cl	-3.567921	-0.479606	-0.369822
Cl45	Cl	-3.744962	-0.880125	-0.366810
Cl46	Cl	-4.047664	-0.253475	-0.768175
