data_functionalizedCrystal
_audit_creation_method	'MofGen! by Chris Wilmer'
_symmetry_space_group_name_H-M	'P1'
_symmetry_Int_Tables_number	1
_symmetry_cell_setting	triclinic
loop_
_symmetry_equiv_pos_as_xyz
  x,y,z
_cell_length_a	19.805407
_cell_length_b	19.805404
_cell_length_c	19.805399
_cell_angle_alpha	89.974853
_cell_angle_beta	89.978936
_cell_angle_gamma	90.029747
loop_
_atom_site_label
_atom_site_type_symbol
_atom_site_fract_x
_atom_site_fract_y
_atom_site_fract_z
Zn1	Zn	-1.034715	0.269497	0.382758
Zn2	Zn	-0.701382	0.602831	0.716091
Zn3	Zn	-0.368049	0.936164	1.049425
Zn4	Zn	-1.034621	0.382686	0.269575
Zn5	Zn	-0.701288	0.716019	0.602908
Zn6	Zn	-0.367955	1.049352	0.936241
Zn7	Zn	-0.921530	0.269514	0.269580
Zn8	Zn	-0.588197	0.602847	0.602913
Zn9	Zn	-0.254863	0.936181	0.936246
Zn10	Zn	-0.921485	0.382648	0.382718
Zn11	Zn	-0.588151	0.715981	0.716052
Zn12	Zn	-0.254818	1.049314	1.049385
O13	O	-0.978088	0.326086	0.326158
O14	O	-0.644754	0.659419	0.659491
O15	O	-0.311421	0.992753	0.992824
O16	O	-1.129419	0.284521	0.367758
O17	O	-0.796086	0.617854	0.701092
O18	O	-0.462753	0.951187	1.034425
O19	O	-1.019599	0.367696	0.174859
O20	O	-0.686266	0.701029	0.508192
O21	O	-0.352933	1.034363	0.841525
O22	O	-0.936602	0.174795	0.284612
O23	O	-0.603269	0.508128	0.617945
O24	O	-0.269936	0.841462	0.951278
O25	O	-1.129350	0.367680	0.284603
O26	O	-0.796017	0.701013	0.617936
O27	O	-0.462684	1.034346	0.951270
O28	O	-1.019759	0.174783	0.367763
O29	O	-0.686426	0.508116	0.701097
O30	O	-0.353092	0.841449	1.034430
O31	O	-0.936511	0.284549	0.174862
O32	O	-0.603178	0.617883	0.508196
O33	O	-0.269845	0.951216	0.841529
O34	O	-0.826807	0.284512	0.284573
O35	O	-0.493474	0.617846	0.617907
O36	O	-0.160141	0.951179	0.951240
O37	O	-0.936525	0.367615	0.477440
O38	O	-0.603192	0.700948	0.810774
O39	O	-0.269859	1.034282	1.144107
O40	O	-0.826774	0.367631	0.367696
O41	O	-0.493441	0.700965	0.701029
O42	O	-0.160108	1.034298	1.034362
O43	O	-1.019715	0.284484	0.477469
O44	O	-0.686382	0.617817	0.810803
O45	O	-0.353049	0.951151	1.144136
O46	O	-1.019556	0.477397	0.284565
O47	O	-0.686222	0.810730	0.617898
O48	O	-0.352889	1.144064	0.951231
O49	O	-0.936434	0.477369	0.367691
O50	O	-0.603101	0.810703	0.701024
O51	O	-0.269768	1.144036	1.034358
C52	C	-0.802232	0.326070	0.326131
C53	C	-0.468898	0.659403	0.659465
C54	C	-0.135565	0.992737	0.992798
C55	C	-0.727000	0.326079	0.326136
C56	C	-0.393666	0.659413	0.659469
C57	C	-0.060333	0.992746	0.992803
C58	C	-0.977998	0.501942	0.326138
C59	C	-0.644665	0.835275	0.659471
C60	C	-0.311332	1.168609	0.992804
C61	C	-0.978022	0.577174	0.326152
C62	C	-0.644689	0.910507	0.659485
C63	C	-0.311355	1.243841	0.992818
C64	C	-0.691656	0.369424	0.369347
C65	C	-0.358323	0.702757	0.702680
C66	C	-0.024989	1.036091	1.036014
C67	C	-0.620968	0.369424	0.369355
C68	C	-0.287634	0.702757	0.702688
C69	C	0.045699	1.036091	1.036021
C70	C	-0.585624	0.326082	0.326147
C71	C	-0.252291	0.659416	0.659481
C72	C	0.081042	0.992749	0.992814
C73	C	-0.620973	0.282733	0.282935
C74	C	-0.287640	0.616066	0.616268
C75	C	0.045694	0.949400	0.949601
C76	C	-0.691660	0.282730	0.282931
C77	C	-0.358327	0.616063	0.616264
C78	C	-0.024993	0.949397	0.949597
C79	C	-0.335900	0.282743	0.282950
C80	C	-0.002566	0.616076	0.616283
C81	C	0.330767	0.949409	0.949616
C82	C	-0.265207	0.282750	0.282955
C83	C	0.068126	0.616084	0.616289
C84	C	0.401459	0.949417	0.949622
C85	C	-0.265207	0.369437	0.369373
C86	C	0.068126	0.702770	0.702707
C87	C	0.401459	1.036103	1.036040
C88	C	-0.335894	0.369434	0.369369
C89	C	-0.002561	0.702767	0.702703
C90	C	0.330772	1.036100	1.036036
C91	C	-0.371237	0.326082	0.326160
C92	C	-0.037904	0.659416	0.659493
C93	C	0.295430	0.992749	0.992826
C94	C	-0.447885	0.326082	0.326153
C95	C	-0.114552	0.659415	0.659486
C96	C	0.218781	0.992749	0.992819
C97	C	-0.508977	0.326085	0.326150
C98	C	-0.175644	0.659419	0.659484
C99	C	0.157690	0.992752	0.992817
C100	C	-0.154631	0.326098	0.326178
C101	C	0.178703	0.659432	0.659511
C102	C	0.512036	0.992765	0.992845
C103	C	-0.229862	0.326092	0.326170
C104	C	0.103471	0.659425	0.659503
C105	C	0.436804	0.992759	0.992837
C106	C	-1.021521	1.038957	0.282993
C107	C	-0.688187	1.372290	0.616326
C108	C	-0.354854	1.705624	0.949660
C109	C	-1.021490	0.968269	0.282977
C110	C	-0.688157	1.301602	0.616311
C111	C	-0.354824	1.634935	0.949644
C112	C	-0.978164	0.932936	0.326214
C113	C	-0.644831	1.266269	0.659548
C114	C	-0.311498	1.599602	0.992881
C115	C	-0.934861	0.968295	0.369465
C116	C	-0.601527	1.301628	0.702798
C117	C	-0.268194	1.634962	1.036132
C118	C	-0.934888	1.038982	0.369477
C119	C	-0.601555	1.372315	0.702810
C120	C	-0.268221	1.705649	1.036143
C121	C	-0.934749	0.683222	0.369418
C122	C	-0.601415	1.016555	0.702751
C123	C	-0.268082	1.349888	1.036085
C124	C	-0.934726	0.612530	0.369404
C125	C	-0.601393	0.945863	0.702738
C126	C	-0.268059	1.279196	1.036071
C127	C	-1.021351	0.612508	0.282919
C128	C	-0.688018	0.945842	0.616252
C129	C	-0.354684	1.279175	0.949585
C130	C	-1.021378	0.683195	0.282930
C131	C	-0.688045	1.016529	0.616264
C132	C	-0.354712	1.349862	0.949597
C133	C	-0.978073	0.718548	0.326178
C134	C	-0.644739	1.051882	0.659511
C135	C	-0.311406	1.385215	0.992845
C136	C	-0.978105	0.795197	0.326194
C137	C	-0.644772	1.128530	0.659527
C138	C	-0.311438	1.461863	0.992860
C139	C	-0.978135	0.856289	0.326203
C140	C	-0.644801	1.189622	0.659536
C141	C	-0.311468	1.522955	0.992869
C142	C	-0.978126	0.326043	0.502700
C143	C	-0.644792	0.659377	0.836034
C144	C	-0.311459	0.992710	1.169367
C145	C	-0.978142	0.326025	0.577932
C146	C	-0.644809	0.659359	0.911266
C147	C	-0.311475	0.992692	1.244599
C148	C	-0.978191	1.149543	0.326201
C149	C	-0.644858	1.482877	0.659534
C150	C	-0.311524	1.816210	0.992868
C151	C	-0.978222	1.074311	0.326242
C152	C	-0.644889	1.407645	0.659575
C153	C	-0.311555	1.740978	0.992908
C154	C	-0.978089	0.326080	0.150302
C155	C	-0.644756	0.659413	0.483635
C156	C	-0.311422	0.992746	0.816968
C157	C	-0.978204	0.325907	0.075070
C158	C	-0.644871	0.659241	0.408403
C159	C	-0.311537	0.992574	0.741737
C160	C	-1.021460	0.282737	0.613293
C161	C	-0.688127	0.616070	0.946626
C162	C	-0.354793	0.949403	1.279960
C163	C	-1.021467	0.282717	0.683981
C164	C	-0.688134	0.616050	1.017315
C165	C	-0.354800	0.949384	1.350648
C166	C	-0.978159	0.325990	0.719308
C167	C	-0.644825	0.659323	1.052641
C168	C	-0.311492	0.992657	1.385975
C169	C	-0.934836	0.369280	0.683943
C170	C	-0.601503	0.702614	1.017276
C171	C	-0.268169	1.035947	1.350609
C172	C	-0.934826	0.369296	0.613256
C173	C	-0.601493	0.702629	0.946589
C174	C	-0.268160	1.035963	1.279922
C175	C	-0.934874	0.369217	0.969016
C176	C	-0.601541	0.702551	1.302350
C177	C	-0.268208	1.035884	1.635683
C178	C	-0.934889	0.369200	1.039708
C179	C	-0.601556	0.702533	1.373042
C180	C	-0.268222	1.035866	1.706375
C181	C	-1.021515	0.282638	1.039742
C182	C	-0.688182	0.615972	1.373075
C183	C	-0.354848	0.949305	1.706409
C184	C	-1.021505	0.282654	0.969055
C185	C	-0.688172	0.615987	1.302388
C186	C	-0.354838	0.949321	1.635721
C187	C	-0.978180	0.325942	0.933696
C188	C	-0.644847	0.659275	1.267029
C189	C	-0.311513	0.992608	1.600362
C190	C	-0.978172	0.325961	0.857047
C191	C	-0.644839	0.659295	1.190380
C192	C	-0.311506	0.992628	1.523714
C193	C	-0.978170	0.325974	0.795955
C194	C	-0.644836	0.659307	1.129289
C195	C	-0.311503	0.992641	1.462622
H196	H	-0.592194	0.404720	0.404541
H197	H	-0.258861	0.738053	0.737874
H198	H	0.074473	1.071387	1.071207
C199	C	-1.054532	0.168048	0.947331
C200	C	-0.721198	0.501382	1.280664
C201	C	-0.387865	0.834715	1.613997
C202	C	-1.069107	0.235081	0.930229
C203	C	-0.735774	0.568414	1.263562
C204	C	-0.402441	0.901747	1.596895
H205	H	-1.083916	0.138676	0.923360
H206	H	-0.750583	0.472009	1.256693
H207	H	-0.417250	0.805343	1.590026
H208	H	-1.060738	0.161853	0.994485
H209	H	-0.727404	0.495186	1.327818
H210	H	-0.394071	0.828519	1.661152
H211	H	-1.009056	0.158154	0.935734
H212	H	-0.675723	0.491487	1.269068
H213	H	-0.342390	0.824820	1.602401
H214	H	-1.114581	0.244977	0.941830
H215	H	-0.781248	0.578310	1.275163
H216	H	-0.447915	0.911644	1.608497
H217	H	-1.062907	0.241279	0.883064
H218	H	-0.729574	0.574613	1.216397
H219	H	-0.396240	0.907946	1.549730
H220	H	-0.899545	0.404539	0.584466
H221	H	-0.566212	0.737873	0.917799
H222	H	-0.232879	1.071206	1.251133
C223	C	-1.059994	0.244162	1.148116
C224	C	-0.726661	0.577495	1.481449
C225	C	-0.393327	0.910829	1.814783
C226	C	-1.069132	0.235046	1.078611
C227	C	-0.735798	0.568379	1.411944
C228	C	-0.402465	0.901713	1.745278
H229	H	-1.089388	0.214778	1.172109
H230	H	-0.756055	0.548112	1.505442
H231	H	-0.422721	0.881445	1.838776
H232	H	-1.069875	0.289631	1.159693
H233	H	-0.736542	0.622964	1.493026
H234	H	-0.403208	0.956298	1.826359
H235	H	-1.014522	0.234247	1.159684
H236	H	-0.681189	0.567580	1.493017
H237	H	-0.347856	0.900914	1.826351
H238	H	-1.114602	0.244966	1.067042
H239	H	-0.781269	0.578299	1.400376
H240	H	-0.447936	0.911632	1.733709
H241	H	-1.059256	0.189566	1.067030
H242	H	-0.725922	0.522900	1.400363
H243	H	-0.392589	0.856233	1.733696
C244	C	-0.849242	0.454759	1.032579
C245	C	-0.515909	0.788092	1.365912
C246	C	-0.182575	1.121426	1.699245
C247	C	-0.887276	0.416763	1.078541
C248	C	-0.553942	0.750097	1.411875
C249	C	-0.220609	1.083430	1.745208
H250	H	-0.819847	0.484118	1.056554
H251	H	-0.486514	0.817451	1.389888
H252	H	-0.153181	1.150784	1.723221
H253	H	-0.878707	0.480662	1.005010
H254	H	-0.545373	0.813996	1.338343
H255	H	-0.212040	1.147329	1.671677
H256	H	-0.823369	0.425263	1.005008
H257	H	-0.490036	0.758597	1.338341
H258	H	-0.156702	1.091930	1.671675
H259	H	-0.913153	0.446259	1.106109
H260	H	-0.579819	0.779593	1.439442
H261	H	-0.246486	1.112926	1.772775
H262	H	-0.857807	0.390858	1.106122
H263	H	-0.524474	0.724192	1.439455
H264	H	-0.191141	1.057525	1.772788
C265	C	-0.684565	0.197052	0.197498
C266	C	-0.351231	0.530385	0.530831
C267	C	-0.017898	0.863719	0.864164
C268	C	-0.730513	0.235090	0.235426
C269	C	-0.397179	0.568424	0.568759
C270	C	-0.063846	0.901757	0.902093
H271	H	-0.708552	0.167644	0.168167
H272	H	-0.375218	0.500977	0.501501
H273	H	-0.041885	0.834310	0.834834
H274	H	-0.657022	0.171200	0.227033
H275	H	-0.323689	0.504533	0.560366
H276	H	0.009645	0.837867	0.893700
H277	H	-0.656967	0.226518	0.171561
H278	H	-0.323633	0.559851	0.504895
H279	H	0.009700	0.893184	0.838228
H280	H	-0.758108	0.205625	0.261366
H281	H	-0.424774	0.538958	0.594700
H282	H	-0.091441	0.872292	0.928033
H283	H	-0.758067	0.260944	0.205887
H284	H	-0.424734	0.594278	0.539220
H285	H	-0.091400	0.927611	0.872553
H286	H	-1.056661	0.711960	0.247725
H287	H	-0.723328	1.045293	0.581058
H288	H	-0.389995	1.378627	0.914392
H289	H	-0.720428	0.404720	0.404529
H290	H	-0.387094	0.738053	0.737862
H291	H	-0.053761	1.071387	1.071196
H292	H	-0.364668	0.404729	0.404551
H293	H	-0.031334	0.738063	0.737884
H294	H	0.301999	1.071396	1.071218
C295	C	-1.107141	1.031828	0.197497
C296	C	-0.773807	1.365162	0.530830
C297	C	-0.440474	1.698495	0.864164
C298	C	-1.069146	1.077792	0.235463
C299	C	-0.735812	1.411125	0.568797
C300	C	-0.402479	1.744458	0.902130
H301	H	-1.136538	1.055803	0.168150
H302	H	-0.803205	1.389137	0.501483
H303	H	-0.469872	1.722470	0.834816
H304	H	-1.133002	1.004219	0.227007
H305	H	-0.799669	1.337552	0.560340
H306	H	-0.466335	1.670885	0.893674
H307	H	-1.077647	1.004298	0.171577
H308	H	-0.744313	1.337632	0.504910
H309	H	-0.410980	1.670965	0.838243
H310	H	-1.098639	1.105318	0.261388
H311	H	-0.765306	1.438652	0.594721
H312	H	-0.431973	1.771985	0.928054
H313	H	-1.043282	1.105413	0.205950
H314	H	-0.709949	1.438746	0.539283
H315	H	-0.376616	1.772079	0.872616
H316	H	-0.899442	0.583763	0.404614
H317	H	-0.566109	0.917096	0.737948
H318	H	-0.232776	1.250429	1.071281
H319	H	-0.236423	0.404733	0.404560
H320	H	0.096910	0.738066	0.737893
H321	H	0.430244	1.071400	1.071226
C322	C	-1.030926	0.888833	0.191920
C323	C	-0.697592	1.222167	0.525254
C324	C	-0.364259	1.555500	0.858587
C325	C	-1.069088	0.929411	0.235436
C326	C	-0.735755	1.262744	0.568770
C327	C	-0.402421	1.596078	0.902103
H328	H	-1.060313	0.864849	0.162566
H329	H	-0.726979	1.198183	0.495900
H330	H	-0.393646	1.531516	0.829233
H331	H	-1.005125	0.857675	0.217665
H332	H	-0.671792	1.191008	0.550999
H333	H	-0.338459	1.524341	0.884332
H334	H	-1.001465	0.916461	0.166010
H335	H	-0.668131	1.249794	0.499343
H336	H	-0.334798	1.583128	0.832677
H337	H	-1.098546	0.901783	0.261351
H338	H	-0.765212	1.235116	0.594684
H339	H	-0.431879	1.568449	0.928017
H340	H	-1.094900	0.960573	0.209689
H341	H	-0.761567	1.293907	0.543022
H342	H	-0.428233	1.627240	0.876355
C343	C	-0.925384	0.460285	0.889513
C344	C	-0.592051	0.793618	1.222846
C345	C	-0.258718	1.126951	1.556179
C346	C	-0.887251	0.416803	0.930162
C347	C	-0.553918	0.750136	1.263495
C348	C	-0.220585	1.083469	1.596828
H349	H	-0.895980	0.489660	0.865523
H350	H	-0.562646	0.822994	1.198857
H351	H	-0.229313	1.156327	1.532190
H352	H	-0.954860	0.486168	0.917087
H353	H	-0.621527	0.819501	1.250420
H354	H	-0.288194	1.152835	1.583753
H355	H	-0.951167	0.434512	0.858352
H356	H	-0.617833	0.767845	1.191685
H357	H	-0.284500	1.101179	1.525018
H358	H	-0.861473	0.442575	0.961326
H359	H	-0.528140	0.775908	1.294659
H360	H	-0.194806	1.109242	1.627993
H361	H	-0.857764	0.390917	0.902585
H362	H	-0.524430	0.724250	1.235918
H363	H	-0.191097	1.057584	1.569252
H364	H	-0.899633	1.067767	0.404698
H365	H	-0.566300	1.401100	0.738031
H366	H	-0.232966	1.734433	1.071364
H367	H	-0.899580	0.939523	0.404667
H368	H	-0.566247	1.272856	0.738000
H369	H	-0.232913	1.606189	1.071333
C370	C	-0.415422	0.191678	0.273701
C371	C	-0.082089	0.525011	0.607034
C372	C	0.251244	0.858345	0.940368
C373	C	-0.374745	0.235097	0.235451
C374	C	-0.041412	0.568430	0.568784
C375	C	0.291921	0.901764	0.902118
H376	H	-0.439403	0.162261	0.244374
H377	H	-0.106070	0.495594	0.577708
H378	H	0.227264	0.828928	0.911041
H379	H	-0.446584	0.217489	0.299428
H380	H	-0.113250	0.550822	0.632761
H381	H	0.220083	0.884156	0.966094
H382	H	-0.387863	0.165830	0.303234
H383	H	-0.054529	0.499163	0.636568
H384	H	0.278804	0.832497	0.969901
H385	H	-0.402305	0.260949	0.205921
H386	H	-0.068972	0.594282	0.539254
H387	H	0.264361	0.927616	0.872588
H388	H	-0.343580	0.209283	0.209713
H389	H	-0.010247	0.542617	0.543046
H390	H	0.323087	0.875950	0.876379
C391	C	-1.059774	0.504140	0.244483
C392	C	-0.726441	0.837473	0.577817
C393	C	-0.393107	1.170807	0.911150
C394	C	-1.068948	0.573646	0.235371
C395	C	-0.735614	0.906979	0.568704
C396	C	-0.402281	1.240313	0.902038
H397	H	-1.089156	0.480151	0.215128
H398	H	-0.755822	0.813484	0.548461
H399	H	-0.422489	1.146818	0.881795
H400	H	-1.069648	0.492520	0.289962
H401	H	-0.736315	0.825853	0.623295
H402	H	-0.402982	1.159186	0.956629
H403	H	-1.014296	0.492610	0.234528
H404	H	-0.680963	0.825944	0.567862
H405	H	-0.347630	1.159277	0.901195
H406	H	-1.114424	0.585176	0.245331
H407	H	-0.781091	0.918510	0.578664
H408	H	-0.447758	1.251843	0.911998
H409	H	-1.059078	0.585271	0.189882
H410	H	-0.725745	0.918604	0.523215
H411	H	-0.392411	1.251938	0.856549
H412	H	-0.592191	0.247440	0.247758
H413	H	-0.258857	0.580774	0.581091
H414	H	0.074476	0.914107	0.914424
C415	C	-0.849124	0.676133	0.454910
C416	C	-0.515791	1.009466	0.788243
C417	C	-0.182457	1.342799	1.121576
C418	C	-0.887152	0.722076	0.416960
C419	C	-0.553819	1.055409	0.750293
C420	C	-0.220486	1.388742	1.083627
H421	H	-0.819742	0.700123	0.484264
H422	H	-0.486409	1.033456	0.817597
H423	H	-0.153075	1.366790	1.150931
H424	H	-0.823244	0.648604	0.425389
H425	H	-0.489910	0.981937	0.758723
H426	H	-0.156577	1.315271	1.092056
H427	H	-0.878597	0.648520	0.480821
H428	H	-0.545264	0.981853	0.814155
H429	H	-0.211931	1.315186	1.147488
H430	H	-0.857679	0.749685	0.391044
H431	H	-0.524345	1.083019	0.724378
H432	H	-0.191012	1.416352	1.057711
H433	H	-0.913034	0.749616	0.446484
H434	H	-0.579701	1.082949	0.779817
H435	H	-0.246368	1.416283	1.113151
C436	C	-1.107084	0.197165	0.620434
C437	C	-0.773751	0.530498	0.953767
C438	C	-0.440418	0.863832	1.287100
C439	C	-1.069065	0.235167	0.574465
C440	C	-0.735732	0.568501	0.907798
C441	C	-0.402398	0.901834	1.241132
H442	H	-1.136470	0.167793	0.596463
H443	H	-0.803136	0.501127	0.929796
H444	H	-0.469803	0.834460	1.263130
H445	H	-1.132960	0.226651	0.648001
H446	H	-0.799627	0.559984	0.981335
H447	H	-0.466294	0.893318	1.314668
H448	H	-1.077605	0.171269	0.648005
H449	H	-0.744272	0.504603	0.981338
H450	H	-0.410939	0.837936	1.314672
H451	H	-1.098544	0.261067	0.546897
H452	H	-0.765211	0.594401	0.880230
H453	H	-0.431877	0.927734	1.213564
H454	H	-1.043187	0.205678	0.546886
H455	H	-0.709854	0.539011	0.880219
H456	H	-0.376520	0.872345	1.213552
C457	C	-1.030932	0.191641	0.763476
C458	C	-0.697599	0.524974	1.096810
C459	C	-0.364266	0.858308	1.430143
C460	C	-1.069080	0.235124	0.722843
C461	C	-0.735747	0.568457	1.056176
C462	C	-0.402414	0.901791	1.389510
H463	H	-1.060327	0.162252	0.787462
H464	H	-0.726994	0.495586	1.120795
H465	H	-0.393661	0.828919	1.454129
H466	H	-1.005152	0.217407	0.794634
H467	H	-0.671818	0.550740	1.127967
H468	H	-0.338485	0.884074	1.461301
H469	H	-1.001454	0.165765	0.735887
H470	H	-0.668120	0.499099	1.069220
H471	H	-0.334787	0.832432	1.402554
H472	H	-1.098555	0.261003	0.750433
H473	H	-0.765222	0.594337	1.083766
H474	H	-0.431889	0.927670	1.417100
H475	H	-1.094872	0.209355	0.691682
H476	H	-0.761539	0.542689	1.025015
H477	H	-0.428206	0.876022	1.358348
H478	H	-0.899571	0.404511	0.712711
H479	H	-0.566238	0.737845	1.046045
H480	H	-0.232905	1.071178	1.379378
H481	H	-0.236433	0.247452	0.247771
H482	H	0.096901	0.580786	0.581104
H483	H	0.430234	0.914119	0.914437
