data_functionalizedCrystal
_audit_creation_method	'MofGen! by Chris Wilmer'
_symmetry_space_group_name_H-M	'P1'
_symmetry_Int_Tables_number	1
_symmetry_cell_setting	triclinic
loop_
_symmetry_equiv_pos_as_xyz
  x,y,z
_cell_length_a	15.944499
_cell_length_b	14.421503
_cell_length_c	19.288865
_cell_angle_alpha	90.000948
_cell_angle_beta	83.306928
_cell_angle_gamma	90.010221
loop_
_atom_site_label
_atom_site_type_symbol
_atom_site_fract_x
_atom_site_fract_y
_atom_site_fract_z
O1	O	1.114212	0.077178	0.089402
O2	O	0.869614	0.077169	0.100484
O3	O	0.998981	0.077156	-0.006170
O4	O	0.984845	0.077192	0.196055
O5	O	0.998959	-0.077068	-0.006154
O6	O	0.869592	-0.077054	0.100500
O7	O	1.114191	-0.077045	0.089417
Cu8	Cu	0.991889	-0.091132	0.094960
Cu9	Cu	0.991915	0.091255	0.094941
O10	O	0.984824	-0.077032	0.196071
C11	C	0.838310	0.000056	0.100038
C12	C	0.745067	0.000052	0.098678
N13	N	0.991878	-0.219413	0.094973
C14	C	0.453292	0.000077	0.160641
C15	C	0.514456	0.076113	0.128423
C16	C	0.409449	0.000072	0.093736
C17	C	0.514421	-0.075939	0.128421
C18	C	0.574349	0.000061	0.096167
C19	C	0.469385	0.076171	0.061499
C20	C	0.469344	-0.075949	0.061506
C21	C	0.530490	0.000105	0.029240
C22	C	0.314455	0.000080	0.092337
C23	C	0.669342	0.000060	0.097561
C24	C	0.932048	-0.469060	0.144267
C25	C	1.007898	-0.530857	0.157741
C26	C	0.991898	-0.408574	0.094956
C27	C	0.916068	-0.530871	0.081499
C28	C	0.991911	-0.591296	0.094942
C29	C	1.067786	-0.469010	0.108461
C30	C	0.975906	-0.469019	0.032192
C31	C	1.051811	-0.530788	0.045638
C32	C	0.991890	-0.303313	0.094966
C33	C	0.991929	-0.696555	0.094931
C34	C	1.145494	0.000070	0.089863
C35	C	1.238737	0.000080	0.091223
C36	C	0.998515	0.000041	-0.032040
C37	C	0.997150	0.000033	-0.109147
N38	N	0.991933	0.219537	0.094923
C39	C	1.073056	0.000031	-0.153655
C40	C	1.071774	0.000046	-0.226105
C41	C	0.994580	0.000043	-0.254044
C42	C	0.918663	0.000050	-0.209526
C43	C	0.919948	0.000045	-0.137078
C44	C	0.933889	-0.053980	-0.362476
C45	C	0.932608	-0.053980	-0.434924
C46	C	0.990614	0.000064	-0.477500
C47	C	1.049916	0.054097	-0.447620
C48	C	1.051201	0.054092	-0.375171
C49	C	0.993178	0.000050	-0.332602
C50	C	1.065135	0.000079	-0.600567
C51	C	1.063849	0.000100	-0.673018
C52	C	0.910737	0.000095	-0.656438
C53	C	0.912025	0.000084	-0.583988
C54	C	0.989226	0.000072	-0.556057
C55	C	0.985289	0.000085	0.221941
C56	C	0.986655	0.000099	0.299048
H57	H	0.419748	0.000160	0.216165
O58	O	0.871323	-0.112282	-0.316562
H59	H	0.882173	-0.103204	-0.261165
O60	O	1.156324	0.000043	-0.123534
H61	H	1.192785	-0.062807	-0.141421
H62	H	0.563881	0.000136	-0.026334
H63	H	1.021436	-0.558019	0.210812
O64	O	1.152760	-0.433182	0.123618
H65	H	1.152076	-0.356221	0.123533
H66	H	0.847884	0.000098	-0.679185
O67	O	0.540942	0.161275	0.165897
H68	H	0.585111	0.203059	0.129694
H69	H	1.102485	-0.557721	0.003929
O70	O	0.443089	0.161422	0.024042
H71	H	0.373584	0.160776	0.023334
O72	O	0.868654	-0.112261	-0.467151
H73	H	0.803992	-0.090011	-0.446224
O74	O	0.442816	-0.161109	0.024060
H75	H	0.460634	-0.224137	0.051946
H76	H	0.534378	-0.140219	0.156736
O77	O	0.865073	-0.433144	0.199542
H78	H	0.878563	-0.457911	0.251586
O79	O	1.145726	0.000089	-0.721025
H80	H	1.182703	0.062937	-0.711087
O81	O	0.957948	-0.432998	-0.038084
H82	H	0.894929	-0.457728	-0.049130
H83	H	0.851934	-0.558046	0.070124
H84	H	0.850213	0.000080	-0.547748
O85	O	1.153646	0.000031	-0.274124
H86	H	1.207544	0.000014	-0.242530
O87	O	1.115144	0.112379	-0.342939
H88	H	1.155261	0.149971	-0.384709
O89	O	1.148400	0.000085	-0.570439
H90	H	1.152648	-0.062782	-0.537837
H91	H	1.097150	0.098105	-0.482284
O92	O	0.835401	0.000037	-0.239654
H93	H	0.847260	0.000028	-0.297510
O94	O	0.838075	0.000031	-0.089065
H95	H	0.784179	0.000025	-0.120661
