data_functionalizedCrystal
_audit_creation_method	'MofGen! by Chris Wilmer'
_symmetry_space_group_name_H-M	'P1'
_symmetry_Int_Tables_number	1
_symmetry_cell_setting	triclinic
loop_
_symmetry_equiv_pos_as_xyz
  x,y,z
_cell_length_a	12.759401
_cell_length_b	12.759399
_cell_length_c	18.215399
_cell_angle_alpha	90.024962
_cell_angle_beta	90.017510
_cell_angle_gamma	90.013324
loop_
_atom_site_label
_atom_site_type_symbol
_atom_site_fract_x
_atom_site_fract_y
_atom_site_fract_z
Zn1	Zn	-1.606232	0.418327	-0.416086
Zn2	Zn	-1.106232	0.918327	0.083914
Zn3	Zn	-1.606131	0.594025	-0.293026
Zn4	Zn	-1.106131	1.094025	0.206974
Zn5	Zn	-1.430540	0.418355	-0.293038
Zn6	Zn	-0.930540	0.918355	0.206962
Zn7	Zn	-1.430521	0.593959	-0.416056
Zn8	Zn	-0.930521	1.093959	0.083944
O9	O	-1.518356	0.506167	-0.354551
O10	O	-1.018356	1.006167	0.145449
O11	O	-1.753239	0.441650	-0.399769
O12	O	-1.253239	0.941650	0.100231
O13	O	-1.582804	0.570761	-0.190043
O14	O	-1.082804	1.070761	0.309957
O15	O	-1.453896	0.271330	-0.309378
O16	O	-0.953896	0.771330	0.190622
O17	O	-1.753165	0.570734	-0.309357
O18	O	-1.253165	1.070734	0.190643
O19	O	-1.582976	0.271310	-0.399781
O20	O	-1.082976	0.771310	0.100219
O21	O	-1.453798	0.441697	-0.190052
O22	O	-0.953798	0.941697	0.309948
O23	O	-1.283516	0.441633	-0.309349
O24	O	-0.783516	0.941633	0.190651
O25	O	-1.453864	0.570622	-0.519044
O26	O	-0.953864	1.070622	-0.019044
O27	O	-1.283502	0.570649	-0.399730
O28	O	-0.783502	1.070649	0.100270
O29	O	-1.582958	0.441586	-0.519066
O30	O	-1.082958	0.941586	-0.019066
O31	O	-1.582786	0.741037	-0.309328
O32	O	-1.082786	1.241037	0.190672
O33	O	-1.453766	0.740989	-0.399718
O34	O	-0.953766	1.240989	0.100282
C35	C	-1.245388	0.506138	-0.354538
C36	C	-0.745388	1.006138	0.145462
C37	C	-1.128612	0.506151	-0.354550
C38	C	-0.628612	1.006151	0.145450
C39	C	-1.073789	0.439056	-0.401699
C40	C	-0.573789	0.939056	0.098301
C41	C	-0.964065	0.439063	-0.401702
C42	C	-0.464065	0.939063	0.098298
C43	C	-0.963996	0.573268	-0.307406
C44	C	-0.463996	1.073268	0.192594
C45	C	-1.073718	0.573255	-0.307399
C46	C	-0.573718	1.073255	0.192601
C47	C	-1.518291	0.779134	-0.354534
C48	C	-1.018291	1.279134	0.145466
C49	C	-1.518360	0.895911	-0.354552
C50	C	-1.018360	1.395911	0.145448
C51	C	-1.518420	0.506094	-0.546504
C52	C	-1.018420	1.006094	-0.046504
C53	C	-1.518447	0.506063	-0.628303
C54	C	-1.018447	1.006063	-0.128303
C55	C	-0.792389	0.506186	-0.354562
C56	C	-0.292389	1.006186	0.145438
C57	C	-0.909166	0.506170	-0.354560
C58	C	-0.409166	1.006170	0.145440
C59	C	-1.518449	0.232133	-0.354584
C60	C	-1.018449	0.732133	0.145416
C61	C	-1.518489	0.115357	-0.354598
C62	C	-1.018489	0.615357	0.145402
C63	C	-1.585617	0.950763	-0.307540
C64	C	-1.085617	1.450763	0.192460
C65	C	-1.585685	1.060487	-0.307564
C66	C	-1.085685	1.560487	0.192436
C67	C	-1.451229	1.060497	-0.401616
C68	C	-0.951229	1.560497	0.098384
C69	C	-1.451167	0.950775	-0.401594
C70	C	-0.951167	1.450775	0.098406
C71	C	-1.585690	0.438811	-0.816510
C72	C	-1.085690	0.938811	-0.316510
C73	C	-1.585703	0.438781	-0.893369
C74	C	-1.085703	0.938781	-0.393369
C75	C	-1.451278	0.573153	-0.893334
C76	C	-0.951278	1.073153	-0.393334
C77	C	-1.451261	0.573177	-0.816477
C78	C	-0.951261	1.073177	-0.316477
C79	C	-1.518473	0.506008	-0.778067
C80	C	-1.018473	1.006008	-0.278067
C81	C	-1.518503	0.505953	-0.931783
C82	C	-1.018503	1.005953	-0.431783
C83	C	-1.518516	0.505920	-1.015117
C84	C	-1.018516	1.005920	-0.515117
C85	C	-1.518459	0.506039	-0.694728
C86	C	-1.018459	1.006039	-0.194728
C87	C	-1.518352	0.506163	-0.163345
C88	C	-1.018352	1.006163	0.336655
C89	C	-1.518529	0.505898	-0.081546
C90	C	-1.018529	1.005898	0.418454
H91	H	-1.118356	0.627893	-0.269000
H92	H	-0.618356	1.127893	0.231000
H93	H	-0.919288	0.627902	-0.269018
H94	H	-0.419288	1.127902	0.230982
H95	H	-1.640416	0.384115	-0.785238
H96	H	-1.140416	0.884115	-0.285238
C97	C	-1.659652	0.364878	-0.935656
C98	C	-1.159652	0.864878	-0.435656
H99	H	-1.650034	0.374475	-0.986931
H100	H	-1.150034	0.874475	-0.486931
H101	H	-1.730231	0.380273	-0.923064
H102	H	-1.230231	0.880273	-0.423064
H103	H	-1.644298	0.294284	-0.923070
H104	H	-1.144298	0.794284	-0.423070
C105	C	-1.377360	0.647042	-0.935588
C106	C	-0.877360	1.147042	-0.435588
H107	H	-1.387004	0.637412	-0.986868
H108	H	-0.887004	1.137412	-0.486868
H109	H	-1.306770	0.631669	-0.922989
H110	H	-0.806770	1.131669	-0.422989
H111	H	-1.392722	0.717640	-0.922981
H112	H	-0.892722	1.217640	-0.422981
C113	C	-1.377325	0.647104	-0.774187
C114	C	-0.877325	1.147104	-0.274187
H115	H	-1.337311	0.687116	-0.808069
H116	H	-0.837311	1.187116	-0.308069
H117	H	-1.331554	0.606925	-0.744203
H118	H	-0.831554	1.106925	-0.244203
H119	H	-1.417507	0.692894	-0.744205
H120	H	-0.917507	1.192894	-0.244205
H121	H	-1.640331	0.906095	-0.269236
H122	H	-1.140331	1.406095	0.230764
H123	H	-1.118480	0.384412	-0.440090
H124	H	-0.618480	0.884412	0.059910
H125	H	-0.919433	0.384426	-0.440095
H126	H	-0.419433	0.884426	0.059905
C127	C	-1.659663	1.120820	-0.255847
C128	C	-1.159663	1.620820	0.244153
H129	H	-1.699663	1.072426	-0.227826
H130	H	-1.199663	1.572426	0.272174
H131	H	-1.705445	1.163557	-0.284032
H132	H	-1.205445	1.663557	0.215968
H133	H	-1.619514	1.163686	-0.223765
H134	H	-1.119514	1.663686	0.276235
H135	H	-1.396521	1.105181	-0.439915
H136	H	-0.896521	1.605181	0.060085
H137	H	-1.396398	0.906111	-0.439881
H138	H	-0.896398	1.406111	0.060119
