data_functionalizedCrystal
_audit_creation_method	'MofGen! by Chris Wilmer'
_symmetry_space_group_name_H-M	'P1'
_symmetry_Int_Tables_number	1
_symmetry_cell_setting	triclinic
loop_
_symmetry_equiv_pos_as_xyz
  x,y,z
_cell_length_a	15.298114
_cell_length_b	15.299816
_cell_length_c	11.169409
_cell_angle_alpha	80.352328
_cell_angle_beta	80.332446
_cell_angle_gamma	69.256891
loop_
_atom_site_label
_atom_site_type_symbol
_atom_site_fract_x
_atom_site_fract_y
_atom_site_fract_z
Zn1	Zn	1.485567	-0.615755	0.477843
Zn2	Zn	1.512353	-0.771233	0.306804
Zn3	Zn	1.330075	-0.588931	0.306853
Zn4	Zn	1.356930	-0.744293	0.537082
O5	O	1.421231	-0.680053	0.407145
O6	O	1.619240	-0.658880	0.430342
O7	O	1.488145	-0.747099	0.138879
O8	O	1.328253	-0.462402	0.304764
O9	O	1.638919	-0.773109	0.304680
O10	O	1.442492	-0.482109	0.430389
O11	O	1.354226	-0.613163	0.138914
O12	O	1.203518	-0.587040	0.362206
O13	O	1.374023	-0.727193	0.697156
O14	O	1.223248	-0.701183	0.531354
O15	O	1.468532	-0.632757	0.653633
O16	O	1.514185	-0.897747	0.362122
O17	O	1.399996	-0.877954	0.531307
C18	C	1.179645	-0.638278	0.453214
C19	C	1.076297	-0.620429	0.472955
C20	C	0.825892	-0.807630	0.266349
C21	C	0.922993	-0.824399	0.247792
C22	C	0.961324	-0.773408	0.304082
C23	C	0.902545	-0.705645	0.378931
C24	C	0.805434	-0.688869	0.397482
C25	C	0.940865	-0.654648	0.435214
C26	C	0.882086	-0.586884	0.510063
C27	C	0.784986	-0.570112	0.528612
C28	C	0.746654	-0.621103	0.472322
C29	C	1.037976	-0.671423	0.416663
C30	C	1.017518	-0.552663	0.547796
C31	C	0.920417	-0.535894	0.566353
C32	C	1.462936	-0.921585	0.453159
C33	C	1.480863	-1.024928	0.472867
C34	C	1.293717	-1.275532	0.266576
C35	C	1.276870	-1.178436	0.248063
C36	C	1.327867	-1.140054	0.304262
C37	C	1.395714	-1.198779	0.378979
C38	C	1.412558	-1.295884	0.397501
C39	C	1.446707	-1.160405	0.435187
C40	C	1.514554	-1.219130	0.509904
C41	C	1.531396	-1.316226	0.528422
C42	C	1.480399	-1.354607	0.472223
C43	C	1.429863	-1.063300	0.416664
C44	C	1.548704	-1.083652	0.547589
C45	C	1.565551	-1.180748	0.566103
C46	C	1.663761	-0.721992	0.360898
C47	C	1.767113	-0.739863	0.341189
C48	C	1.421285	-0.679962	0.720155
C49	C	1.421308	-0.679923	0.853541
C50	C	1.379389	-0.437582	0.360974
C51	C	1.361558	-0.334256	0.341298
C52	C	1.421220	-0.680086	0.095331
C53	C	1.421332	-0.679894	-0.038139
H54	H	0.737128	-0.514929	0.589550
Cl55	Cl	1.306360	-1.017932	0.281468
H56	H	0.794672	-0.849133	0.220517
H57	H	1.221629	-1.130625	0.187231
H58	H	1.590228	-1.052402	0.593354
Cl59	Cl	1.065697	-0.488552	0.618557
H60	H	0.970844	-0.879570	0.186848
H61	H	1.040388	-0.787066	0.288968
Cl62	Cl	0.624583	-0.600038	0.495668
H63	H	1.620793	-1.228575	0.626938
H64	H	0.872546	-0.480720	0.627295
Cl65	Cl	1.344574	-0.989487	0.322736
Cl66	Cl	1.229602	-1.323786	0.195957
H67	H	1.085825	-0.726597	0.355721
Cl68	Cl	1.501770	-1.476710	0.495207
Cl69	Cl	1.616671	-1.390046	0.622379
