data_functionalizedCrystal
_audit_creation_method	'MofGen! by Chris Wilmer'
_symmetry_space_group_name_H-M	'P1'
_symmetry_Int_Tables_number	1
_symmetry_cell_setting	triclinic
loop_
_symmetry_equiv_pos_as_xyz
  x,y,z
_cell_length_a	25.639239
_cell_length_b	25.639242
_cell_length_c	25.639234
_cell_angle_alpha	90.020854
_cell_angle_beta	89.975416
_cell_angle_gamma	89.970385
loop_
_atom_site_label
_atom_site_type_symbol
_atom_site_fract_x
_atom_site_fract_y
_atom_site_fract_z
Zn1	Zn	-0.208311	-0.799250	-0.295657
Zn2	Zn	0.291689	-0.299250	0.204343
Zn3	Zn	-0.295738	-0.799166	-0.208221
Zn4	Zn	0.204262	-0.299166	0.291779
Zn5	Zn	-0.208305	-0.711819	-0.208230
Zn6	Zn	0.291695	-0.211819	0.291770
Zn7	Zn	-0.295703	-0.711771	-0.295620
Zn8	Zn	0.204297	-0.211771	0.204380
O9	O	-0.252014	-0.755502	-0.251932
O10	O	0.247986	-0.255502	0.248068
O11	O	-0.219925	-0.872404	-0.284069
O12	O	0.280075	-0.372404	0.215931
O13	O	-0.284153	-0.787564	-0.135057
O14	O	0.215847	-0.287564	0.364943
O15	O	-0.135141	-0.723472	-0.219846
O16	O	0.364859	-0.223472	0.280154
O17	O	-0.284158	-0.872342	-0.219831
O18	O	0.215842	-0.372342	0.280169
O19	O	-0.135145	-0.787707	-0.284078
O20	O	0.364855	-0.287707	0.215922
O21	O	-0.219916	-0.723390	-0.135064
O22	O	0.280084	-0.223390	0.364936
O23	O	-0.219881	-0.638647	-0.219811
O24	O	0.280119	-0.138647	0.280189
O25	O	-0.284098	-0.723391	-0.368790
O26	O	0.215902	-0.223391	0.131210
O27	O	-0.284092	-0.638612	-0.284016
O28	O	0.215908	-0.138612	0.215984
O29	O	-0.219891	-0.787661	-0.368817
O30	O	0.280109	-0.287661	0.131183
O31	O	-0.368899	-0.787518	-0.219796
O32	O	0.131101	-0.287518	0.280204
O33	O	-0.368873	-0.723309	-0.284007
O34	O	0.131127	-0.223309	0.215993
C35	C	-0.251983	-0.619659	-0.251911
C36	C	0.248017	-0.119659	0.248089
C37	C	-0.251982	-0.561545	-0.251914
C38	C	0.248018	-0.061545	0.248086
C39	C	-0.387857	-0.755414	-0.251908
C40	C	0.112143	-0.255414	0.248092
C41	C	-0.445971	-0.755424	-0.251915
C42	C	0.054029	-0.255424	0.248085
C43	C	-0.218617	-0.310392	-0.285429
C44	C	0.281383	0.189608	0.214571
C45	C	-0.218613	-0.364996	-0.285428
C46	C	0.281387	0.135004	0.214572
O47	O	-0.190228	-0.393267	-0.313926
O48	O	0.309772	0.106733	0.186074
N49	N	-0.252000	-0.392271	-0.251927
N50	N	0.248000	0.107729	0.248073
C51	C	-0.285396	-0.364939	-0.218430
C52	C	0.214604	0.135061	0.281570
O53	O	-0.313793	-0.393153	-0.189936
O54	O	0.186207	0.106847	0.310064
C55	C	-0.285402	-0.310336	-0.218434
C56	C	0.214598	0.189664	0.281566
C57	C	-0.252010	-0.283063	-0.251933
C58	C	0.247990	0.216937	0.248067
C59	C	-0.185228	-0.283119	-0.318925
C60	C	0.314772	0.216881	0.181075
C61	C	-0.185231	-0.228519	-0.318926
C62	C	0.314769	0.271481	0.181074
C63	C	-0.218624	-0.201191	-0.285430
C64	C	0.281376	0.298809	0.214570
C65	C	-0.252013	-0.228463	-0.251934
C66	C	0.247987	0.271537	0.248066
C67	C	-0.318800	-0.283005	-0.184940
C68	C	0.181200	0.216995	0.315060
C69	C	-0.318804	-0.228398	-0.184948
C70	C	0.181196	0.271602	0.315052
C71	C	-0.285411	-0.201125	-0.218446
C72	C	0.214589	0.298875	0.281554
C73	C	-0.285409	-0.146534	-0.218438
C74	C	0.214591	0.353466	0.281562
N75	N	-0.252022	-0.119259	-0.251939
N76	N	0.247978	0.380741	0.248061
C77	C	-0.218630	-0.146587	-0.285434
C78	C	0.281370	0.353413	0.214566
C79	C	-0.285381	-0.479610	-0.218424
C80	C	0.214619	0.020390	0.281576
C81	C	-0.285373	-0.534212	-0.218416
C82	C	0.214627	-0.034212	0.281584
C83	C	-0.218591	-0.534265	-0.285415
C84	C	0.281409	-0.034265	0.214585
C85	C	-0.218597	-0.479662	-0.285419
C86	C	0.281403	0.020338	0.214581
C87	C	-0.251995	-0.452335	-0.251924
C88	C	0.248005	0.047665	0.248076
C89	C	-0.218639	-0.031922	-0.285433
C90	C	0.281361	0.468078	0.214567
C91	C	-0.218644	0.022683	-0.285429
C92	C	0.281356	0.522683	0.214571
C93	C	-0.285427	0.022732	-0.218433
C94	C	0.214573	0.522732	0.281567
C95	C	-0.285421	-0.031869	-0.218434
C96	C	0.214579	0.468131	0.281566
C97	C	-0.252025	-0.059195	-0.251939
C98	C	0.247975	0.440805	0.248061
O99	O	-0.313781	-0.118229	-0.189956
O100	O	0.186219	0.381771	0.310044
O101	O	-0.190242	-0.118367	-0.313929
O102	O	0.309758	0.381633	0.186071
C103	C	-0.806335	-0.789022	-0.218554
C104	C	-0.306335	-0.289022	0.281446
C105	C	-0.860939	-0.789042	-0.218561
C106	C	-0.360939	-0.289042	0.281439
O107	O	-0.889177	-0.817518	-0.190169
O108	O	-0.389177	-0.317518	0.309831
N109	N	-0.888253	-0.755593	-0.251967
N110	N	-0.388253	-0.255593	0.248033
C111	C	-0.860960	-0.722126	-0.285371
C112	C	-0.360960	-0.222126	0.214629
O113	O	-0.889207	-0.693677	-0.313787
O114	O	-0.389207	-0.193677	0.186213
C115	C	-0.806357	-0.722109	-0.285367
C116	C	-0.306357	-0.222109	0.214633
C117	C	-0.779046	-0.755556	-0.251955
C118	C	-0.279046	-0.255556	0.248045
C119	C	-0.779024	-0.822467	-0.185145
C120	C	-0.279024	-0.322467	0.314855
C121	C	-0.724423	-0.822446	-0.185138
C122	C	-0.224423	-0.322446	0.314862
C123	C	-0.697134	-0.788980	-0.218539
C124	C	-0.197134	-0.288980	0.281461
C125	C	-0.724445	-0.755535	-0.251947
C126	C	-0.224445	-0.255535	0.248053
C127	C	-0.779065	-0.688644	-0.318774
C128	C	-0.279065	-0.188644	0.181226
C129	C	-0.724458	-0.688630	-0.318766
C130	C	-0.224458	-0.188630	0.181234
C131	C	-0.697147	-0.722077	-0.285354
C132	C	-0.197147	-0.222077	0.214646
C133	C	-0.642556	-0.722048	-0.285341
C134	C	-0.142556	-0.222048	0.214659
N135	N	-0.615241	-0.755497	-0.251935
N136	N	-0.115241	-0.255497	0.248065
C137	C	-0.642531	-0.788963	-0.218534
C138	C	-0.142531	-0.288963	0.281466
C139	C	-0.975631	-0.722165	-0.285379
C140	C	-0.475631	-0.222165	0.214621
C141	C	-1.030233	-0.722179	-0.285382
C142	C	-0.530233	-0.222179	0.214618
C143	C	-1.030208	-0.789097	-0.218572
C144	C	-0.530208	-0.289097	0.281428
C145	C	-0.975605	-0.789080	-0.218567
C146	C	-0.475605	-0.289080	0.281433
C147	C	-0.948317	-0.755614	-0.251974
C148	C	-0.448317	-0.255614	0.248026
C149	C	-0.527866	-0.788916	-0.218520
C150	C	-0.027866	-0.288916	0.281480
C151	C	-0.473260	-0.788890	-0.218514
C152	C	0.026740	-0.288890	0.281486
C153	C	-0.473290	-0.721975	-0.285326
C154	C	0.026710	-0.221975	0.214674
C155	C	-0.527890	-0.721998	-0.285330
C156	C	-0.027890	-0.221998	0.214670
C157	C	-0.555177	-0.755473	-0.251926
C158	C	-0.055177	-0.255473	0.248074
O159	O	-0.614283	-0.693588	-0.313719
O160	O	-0.114283	-0.193588	0.186281
O161	O	-0.614277	-0.817412	-0.190128
O162	O	-0.114277	-0.317412	0.309872
C163	C	-0.115641	-0.755604	-0.251967
C164	C	0.384359	-0.255604	0.248033
C165	C	-0.057527	-0.755648	-0.251983
C166	C	0.442473	-0.255648	0.248017
C167	C	-0.251991	-0.755530	-0.388305
C168	C	0.248009	-0.255530	0.111695
C169	C	-0.251981	-0.755542	-0.446419
C170	C	0.248019	-0.255542	0.053581
C171	C	-0.252040	0.108125	-0.251946
C172	C	0.247960	0.608125	0.248054
C173	C	-0.252036	0.050011	-0.251933
C174	C	0.247964	0.550011	0.248067
C175	C	-0.285387	-0.788971	-0.697602
C176	C	0.214613	-0.288971	-0.197602
C177	C	-0.285398	-0.788965	-0.642997
C178	C	0.214602	-0.288965	-0.142997
O179	O	-0.313858	-0.817364	-0.614751
O180	O	0.186142	-0.317364	-0.114751
N181	N	-0.251956	-0.755553	-0.615693
N182	N	0.248044	-0.255553	-0.115693
C183	C	-0.218505	-0.722141	-0.642996
C184	C	0.281495	-0.222141	-0.142996
O185	O	-0.190062	-0.693720	-0.614758
O186	O	0.309938	-0.193720	-0.114758
C187	C	-0.218497	-0.722144	-0.697599
C188	C	0.281503	-0.222144	-0.197599
C189	C	-0.251937	-0.755562	-0.724901
C190	C	0.248063	-0.255562	-0.224901
C191	C	-0.318824	-0.822386	-0.724903
C192	C	0.181176	-0.322386	-0.224903
C193	C	-0.318813	-0.822392	-0.779504
C194	C	0.181187	-0.322392	-0.279504
C195	C	-0.285363	-0.788983	-0.806803
C196	C	0.214637	-0.288983	-0.306803
C197	C	-0.251926	-0.755568	-0.779501
C198	C	0.248074	-0.255568	-0.279501
C199	C	-0.185050	-0.688729	-0.724901
C200	C	0.314950	-0.188729	-0.224901
C201	C	-0.185045	-0.688735	-0.779508
C202	C	0.314955	-0.188735	-0.279508
C203	C	-0.218485	-0.722153	-0.806810
C204	C	0.281515	-0.222153	-0.306810
C205	C	-0.218464	-0.722165	-0.861401
C206	C	0.281536	-0.222165	-0.361401
N207	N	-0.251906	-0.755577	-0.888705
N208	N	0.248094	-0.255577	-0.388705
C209	C	-0.285355	-0.788986	-0.861406
C210	C	0.214645	-0.288986	-0.361406
C211	C	-0.218525	-0.722136	-0.528325
C212	C	0.281475	-0.222136	-0.028325
C213	C	-0.218530	-0.722135	-0.473723
C214	C	0.281470	-0.222135	0.026277
C215	C	-0.285423	-0.788959	-0.473728
C216	C	0.214577	-0.288959	0.026272
C217	C	-0.285415	-0.788962	-0.528331
C218	C	0.214585	-0.288962	-0.028331
C219	C	-0.251967	-0.755548	-0.555629
C220	C	0.248033	-0.255548	-0.055629
C221	C	-0.285328	-0.788997	-0.976071
C222	C	0.214672	-0.288997	-0.476071
C223	C	-0.285312	-0.789001	-1.030677
C224	C	0.214688	-0.289001	-0.530677
C225	C	-0.218421	-0.722176	-1.030667
C226	C	0.281579	-0.222176	-0.530667
C227	C	-0.218435	-0.722173	-0.976066
C228	C	0.281565	-0.222173	-0.476066
C229	C	-0.251893	-0.755585	-0.948770
C230	C	0.248107	-0.255585	-0.448770
O231	O	-0.190020	-0.693780	-0.889682
O232	O	0.309980	-0.193780	-0.389682
O233	O	-0.313799	-0.817397	-0.889651
O234	O	0.186201	-0.317397	-0.389651
C235	C	-0.252000	-0.755503	-0.116089
C236	C	0.248000	-0.255503	0.383911
C237	C	-0.251862	-0.755593	-0.057976
C238	C	0.248138	-0.255593	0.442024
H239	H	-0.191445	-0.054164	-0.312715
H240	H	0.308555	0.445836	0.187285
C241	C	-0.557558	-0.825177	-0.182230
C242	C	-0.057558	-0.325177	0.317770
C243	C	-0.588965	-0.795614	-0.148700
C244	C	-0.088965	-0.295614	0.351300
C245	C	-0.616332	-0.828999	-0.115269
C246	C	-0.116332	-0.328999	0.384731
H247	H	-0.533530	-0.845107	-0.162283
H248	H	-0.033530	-0.345107	0.337717
H249	H	-0.578854	-0.847945	-0.202246
H250	H	-0.078854	-0.347945	0.297754
H251	H	-0.567671	-0.772855	-0.128686
H252	H	-0.067671	-0.272855	0.371314
H253	H	-0.613003	-0.775685	-0.168632
H254	H	-0.113003	-0.275685	0.331368
H255	H	-0.637629	-0.851767	-0.135285
H256	H	-0.137629	-0.351767	0.364715
H257	H	-0.592301	-0.848927	-0.095326
H258	H	-0.092301	-0.348927	0.404674
H259	H	-0.637649	-0.808946	-0.092518
H260	H	-0.137649	-0.308946	0.407482
H261	H	-0.953371	-0.816316	-0.191361
H262	H	-0.453371	-0.316316	0.308639
C263	C	-0.808559	-0.858906	-0.148907
C264	C	-0.308559	-0.358906	0.351093
C265	C	-0.795189	-0.910614	-0.160348
C266	C	-0.295189	-0.410614	0.339652
C267	C	-0.822368	-0.944202	-0.126966
C268	C	-0.322368	-0.444202	0.373034
H269	H	-0.845004	-0.854221	-0.153642
H270	H	-0.345004	-0.354221	0.346358
H271	H	-0.799611	-0.851304	-0.113763
H272	H	-0.299611	-0.351304	0.386237
H273	H	-0.804141	-0.918213	-0.195483
H274	H	-0.304141	-0.418213	0.304517
H275	H	-0.758749	-0.915316	-0.155610
H276	H	-0.258749	-0.415316	0.344390
H277	H	-0.813420	-0.936601	-0.091822
H278	H	-0.313420	-0.436601	0.408178
H279	H	-0.858811	-0.939513	-0.131703
H280	H	-0.358811	-0.439513	0.368297
H281	H	-0.813297	-0.979290	-0.134721
H282	H	-0.313297	-0.479290	0.365279
H283	H	-0.346065	-0.849592	-0.702682
H284	H	0.153935	-0.349592	-0.202682
C285	C	-0.182109	-0.685834	-0.946516
C286	C	0.317891	-0.185834	-0.446516
C287	C	-0.152822	-0.656569	-0.982113
C288	C	0.347178	-0.156569	-0.482113
C289	C	-0.119364	-0.623077	-0.954915
C290	C	0.380636	-0.123077	-0.454915
H291	H	-0.159291	-0.705785	-0.925218
H292	H	0.340709	-0.205785	-0.425218
H293	H	-0.202102	-0.663007	-0.925221
H294	H	0.297898	-0.163007	-0.425221
H295	H	-0.132831	-0.679393	-1.003399
H296	H	0.367169	-0.179393	-0.503399
H297	H	-0.175627	-0.636607	-1.003412
H298	H	0.324373	-0.136607	-0.503412
H299	H	-0.139357	-0.600250	-0.933620
H300	H	0.360643	-0.100250	-0.433620
H301	H	-0.096549	-0.643033	-0.933618
H302	H	0.403451	-0.143033	-0.433618
H303	H	-0.099492	-0.603214	-0.979063
H304	H	0.400508	-0.103214	-0.479063
C305	C	-1.059976	-0.685881	-0.321598
C306	C	-0.559976	-0.185881	0.178402
C307	C	-1.113638	-0.693048	-0.314452
C308	C	-0.613638	-0.193048	0.185548
C309	C	-1.141051	-0.659616	-0.347804
C310	C	-0.641051	-0.159616	0.152196
H311	H	-1.051061	-0.693477	-0.356754
H312	H	-0.551061	-0.193477	0.143246
H313	H	-1.051092	-0.650742	-0.313905
H314	H	-0.551092	-0.150742	0.186095
H315	H	-1.122519	-0.728179	-0.322148
H316	H	-0.622519	-0.228179	0.177852
H317	H	-1.122569	-0.685449	-0.279303
H318	H	-0.622569	-0.185449	0.220697
H319	H	-1.132167	-0.624477	-0.340111
H320	H	-0.632167	-0.124477	0.159889
H321	H	-1.132132	-0.667214	-0.382958
H322	H	-0.632132	-0.167214	0.117042
H323	H	-1.177463	-0.664470	-0.342957
H324	H	-0.677463	-0.164470	0.157043
C325	C	-0.182369	0.052198	-0.321860
C326	C	0.317631	0.552198	0.178140
C327	C	-0.153137	0.016574	-0.351204
C328	C	0.346863	0.516574	0.148796
C329	C	-0.119723	0.043741	-0.384774
C330	C	0.380277	0.543741	0.115226
H331	H	-0.159514	0.073498	-0.301962
H332	H	0.340486	0.573498	0.198038
H333	H	-0.202391	0.073488	-0.344634
H334	H	0.297609	0.573488	0.155366
H335	H	-0.133117	-0.004707	-0.328433
H336	H	0.366883	0.495293	0.171567
H337	H	-0.175979	-0.004728	-0.371113
H338	H	0.324021	0.495272	0.128887
H339	H	-0.139745	0.065031	-0.407547
H340	H	0.360255	0.565031	0.092453
H341	H	-0.096871	0.065040	-0.364871
H342	H	0.403129	0.565040	0.135129
H343	H	-0.099889	0.019574	-0.404691
H344	H	0.400111	0.519574	0.095309
H345	H	-0.158042	-0.206318	-0.346206
H346	H	0.341958	0.293682	0.153794
H347	H	-0.702189	-0.849683	-0.157933
H348	H	-0.202189	-0.349683	0.342067
H349	H	-0.157806	-0.661525	-0.801732
H350	H	0.342194	-0.161525	-0.301732
H351	H	-0.346045	-0.849603	-0.801727
H352	H	0.153955	-0.349603	-0.301727
C353	C	-0.321704	-0.449915	-0.182136
C354	C	0.178296	0.050085	0.317864
C355	C	-0.355274	-0.418577	-0.211676
C356	C	0.144726	0.081423	0.288324
C357	C	-0.388746	-0.391224	-0.178268
C358	C	0.111254	0.108776	0.321732
H359	H	-0.301736	-0.428571	-0.159381
H360	H	0.198264	0.071429	0.340619
H361	H	-0.341614	-0.473967	-0.162195
H362	H	0.158386	0.026033	0.337805
H363	H	-0.335365	-0.394528	-0.231608
H364	H	0.164635	0.105472	0.268392
H365	H	-0.375253	-0.439908	-0.234430
H366	H	0.124747	0.060092	0.265570
H367	H	-0.408657	-0.415276	-0.158327
H368	H	0.091343	0.084724	0.341673
H369	H	-0.368774	-0.369882	-0.155514
H370	H	0.131226	0.130118	0.344486
H371	H	-0.411530	-0.369961	-0.198306
H372	H	0.088470	0.130039	0.301694
C373	C	-0.321782	-0.825261	-0.557876
C374	C	0.178218	-0.325261	-0.057876
C375	C	-0.351082	-0.854508	-0.522275
C376	C	0.148918	-0.354508	-0.022275
C377	C	-0.384596	-0.887948	-0.549469
C378	C	0.115404	-0.387948	-0.049469
H379	H	-0.301845	-0.848106	-0.579192
H380	H	0.198155	-0.348106	-0.079192
H381	H	-0.344585	-0.805257	-0.579151
H382	H	0.155415	-0.305257	-0.079151
H383	H	-0.328282	-0.874511	-0.501008
H384	H	0.171718	-0.374511	-0.001008
H385	H	-0.371030	-0.831677	-0.500957
H386	H	0.128970	-0.331677	-0.000957
H387	H	-0.407399	-0.867944	-0.570744
H388	H	0.092601	-0.367944	-0.070744
H389	H	-0.364655	-0.910789	-0.570784
H390	H	0.135345	-0.410789	-0.070784
H391	H	-0.404484	-0.907792	-0.525317
H392	H	0.095516	-0.407792	-0.025317
C393	C	-0.321725	-0.825172	-0.443988
C394	C	0.178275	-0.325172	0.056012
C395	C	-0.314583	-0.818001	-0.390326
C396	C	0.185417	-0.318001	0.109674
C397	C	-0.348018	-0.851344	-0.362913
C398	C	0.151982	-0.351344	0.137087
H399	H	-0.314118	-0.860331	-0.452881
H400	H	0.185882	-0.360331	0.047119
H401	H	-0.356863	-0.817486	-0.452894
H402	H	0.143137	-0.317486	0.047106
H403	H	-0.279453	-0.825690	-0.381424
H404	H	0.220547	-0.325690	0.118576
H405	H	-0.322194	-0.782849	-0.381418
H406	H	0.177806	-0.282849	0.118582
H407	H	-0.383155	-0.843658	-0.371819
H408	H	0.116845	-0.343658	0.128181
H409	H	-0.340407	-0.886501	-0.371810
H410	H	0.159593	-0.386501	0.128190
H411	H	-0.343179	-0.846479	-0.326501
H412	H	0.156821	-0.346479	0.173499
H413	H	-0.801293	-0.661405	-0.345979
H414	H	-0.301293	-0.161405	0.154021
C415	C	-0.321662	0.052503	-0.182125
C416	C	0.178338	0.552503	0.317875
C417	C	-0.314525	0.106158	-0.189311
C418	C	0.185475	0.606158	0.310689
C419	C	-0.347903	0.133601	-0.155882
C420	C	0.152097	0.633601	0.344118
H421	H	-0.313998	0.043632	-0.146986
H422	H	0.186002	0.543632	0.353014
H423	H	-0.356813	0.043599	-0.189721
H424	H	0.143187	0.543599	0.310279
H425	H	-0.279382	0.115059	-0.181712
H426	H	0.220618	0.615059	0.318288
H427	H	-0.322192	0.115045	-0.224443
H428	H	0.177808	0.615045	0.275557
H429	H	-0.383054	0.124697	-0.163477
H430	H	0.116946	0.624697	0.336523
H431	H	-0.340237	0.124726	-0.120744
H432	H	0.159763	0.624726	0.379256
H433	H	-0.343069	0.170009	-0.160756
H434	H	0.156931	0.670009	0.339244
C435	C	-0.946100	-0.685766	-0.321667
C436	C	-0.446100	-0.185766	0.178333
C437	C	-0.981713	-0.656470	-0.350910
C438	C	-0.481713	-0.156470	0.149090
C439	C	-0.954532	-0.622930	-0.384338
C440	C	-0.454532	-0.122930	0.115662
H441	H	-0.924769	-0.705684	-0.344514
H442	H	-0.424769	-0.205684	0.155486
H443	H	-0.924841	-0.662960	-0.301655
H444	H	-0.424841	-0.162960	0.198345
H445	H	-1.002963	-0.679273	-0.370920
H446	H	-0.502963	-0.179273	0.129080
H447	H	-1.003046	-0.636542	-0.328076
H448	H	-0.503046	-0.136542	0.171924
H449	H	-0.933273	-0.600125	-0.364326
H450	H	-0.433273	-0.100125	0.135674
H451	H	-0.933202	-0.642852	-0.407182
H452	H	-0.433202	-0.142852	0.092818
H453	H	-0.978691	-0.603046	-0.404180
H454	H	-0.478691	-0.103046	0.095820
H455	H	-0.451063	-0.694725	-0.312519
H456	H	0.048937	-0.194725	0.187481
H457	H	-0.312558	-0.556412	-0.191133
H458	H	0.187442	-0.056412	0.308867
H459	H	-0.702243	-0.661379	-0.345971
H460	H	-0.202243	-0.161379	0.154029
H461	H	-0.550128	-0.694764	-0.312538
H462	H	-0.050128	-0.194764	0.187462
C463	C	-0.182193	-0.685840	-1.060341
C464	C	0.317807	-0.185840	-0.560341
C465	C	-0.211791	-0.652305	-1.091662
C466	C	0.288209	-0.152305	-0.591662
C467	C	-0.178440	-0.618819	-1.119001
C468	C	0.321560	-0.118819	-0.619001
H469	H	-0.159404	-0.705799	-1.081697
H470	H	0.340596	-0.205799	-0.581697
H471	H	-0.162286	-0.665904	-1.036281
H472	H	0.337714	-0.165904	-0.536281
H473	H	-0.231689	-0.672239	-1.115719
H474	H	0.268311	-0.172239	-0.615719
H475	H	-0.234579	-0.632335	-1.070319
H476	H	0.265421	-0.132335	-0.570319
H477	H	-0.158533	-0.598883	-1.094942
H478	H	0.341467	-0.098883	-0.594942
H479	H	-0.155652	-0.638782	-1.140354
H480	H	0.344348	-0.138782	-0.640354
H481	H	-0.198517	-0.596059	-1.140252
H482	H	0.301483	-0.096059	-0.640252
H483	H	-0.345992	-0.305200	-0.157662
H484	H	0.154008	0.194800	0.342338
C485	C	-1.059937	-0.825458	-0.182408
C486	C	-0.559937	-0.325458	0.317592
C487	C	-1.113601	-0.818340	-0.189598
C488	C	-0.613601	-0.318340	0.310402
C489	C	-1.141005	-0.851848	-0.156319
C490	C	-0.641005	-0.351848	0.343681
H491	H	-1.051103	-0.817901	-0.147233
H492	H	-0.551103	-0.317901	0.352767
H493	H	-1.050964	-0.860577	-0.190140
H494	H	-0.550964	-0.360577	0.309860
H495	H	-1.122571	-0.783229	-0.181862
H496	H	-0.622571	-0.283229	0.318138
H497	H	-1.122451	-0.825901	-0.224766
H498	H	-0.622451	-0.325901	0.275234
H499	H	-1.132031	-0.886967	-0.164051
H500	H	-0.632031	-0.386967	0.335949
H501	H	-1.132166	-0.844288	-0.121146
H502	H	-0.632166	-0.344288	0.378854
H503	H	-1.177418	-0.847026	-0.161195
H504	H	-0.677418	-0.347026	0.338805
H505	H	-0.346002	-0.206151	-0.157673
H506	H	0.153998	0.293849	0.342327
C507	C	-0.321679	-0.825304	-1.060223
C508	C	0.178321	-0.325304	-0.560223
C509	C	-0.350984	-0.854549	-1.024624
C510	C	0.149016	-0.354549	-0.524624
C511	C	-0.384495	-0.887989	-1.051821
C512	C	0.115505	-0.387989	-0.551821
H513	H	-0.301739	-0.848150	-1.081536
H514	H	0.198261	-0.348150	-0.581536
H515	H	-0.344479	-0.805301	-1.081502
H516	H	0.155521	-0.305301	-0.581502
H517	H	-0.328187	-0.874551	-1.003354
H518	H	0.171813	-0.374551	-0.503354
H519	H	-0.370934	-0.831716	-1.003310
H520	H	0.129066	-0.331716	-0.503310
H521	H	-0.407295	-0.867985	-1.073100
H522	H	0.092705	-0.367985	-0.573100
H523	H	-0.364551	-0.910832	-1.073133
H524	H	0.135449	-0.410832	-0.573133
H525	H	-0.404386	-0.907832	-1.027671
H526	H	0.095614	-0.407832	-0.527671
H527	H	-0.191294	-0.694929	-0.451499
H528	H	0.308706	-0.194929	0.048501
H529	H	-0.191401	-0.556526	-0.312689
H530	H	0.308599	-0.056526	0.187311
C531	C	-0.321715	-0.825187	-0.946412
C532	C	0.178285	-0.325187	-0.446412
C533	C	-0.355240	-0.795560	-0.915058
C534	C	0.144760	-0.295560	-0.415058
C535	C	-0.388768	-0.828882	-0.887734
C536	C	0.111232	-0.328882	-0.387734
H537	H	-0.301786	-0.847993	-0.925080
H538	H	0.198214	-0.347993	-0.425080
H539	H	-0.341656	-0.845078	-0.970481
H540	H	0.158344	-0.345078	-0.470481
H541	H	-0.335302	-0.775678	-0.890992
H542	H	0.164698	-0.275678	-0.390992
H543	H	-0.375181	-0.772756	-0.936378
H544	H	0.124819	-0.272756	-0.436378
H545	H	-0.408709	-0.848773	-0.911803
H546	H	0.091291	-0.348773	-0.411803
H547	H	-0.368835	-0.851686	-0.866405
H548	H	0.131165	-0.351686	-0.366405
H549	H	-0.411522	-0.808785	-0.866461
H550	H	0.088478	-0.308785	-0.366461
C551	C	-0.182289	-0.685793	-0.557987
C552	C	0.317711	-0.185793	-0.057987
C553	C	-0.211876	-0.652247	-0.589305
C554	C	0.288124	-0.152247	-0.089305
C555	C	-0.178515	-0.618756	-0.616627
C556	C	0.321485	-0.118756	-0.116627
H557	H	-0.159496	-0.705748	-0.579343
H558	H	0.340504	-0.205748	-0.079343
H559	H	-0.162386	-0.665866	-0.533917
H560	H	0.337614	-0.165866	-0.033917
H561	H	-0.231770	-0.672172	-0.613373
H562	H	0.268230	-0.172172	-0.113373
H563	H	-0.234667	-0.632281	-0.567962
H564	H	0.265333	-0.132281	-0.067962
H565	H	-0.158612	-0.598829	-0.592557
H566	H	0.341388	-0.098829	-0.092557
H567	H	-0.155724	-0.638715	-0.637980
H568	H	0.344276	-0.138715	-0.137980
H569	H	-0.198586	-0.595988	-0.637876
H570	H	0.301414	-0.095988	-0.137876
H571	H	-0.157820	-0.661516	-0.702682
H572	H	0.342180	-0.161516	-0.202682
H573	H	-0.158036	-0.305364	-0.346204
H574	H	0.341964	0.194636	0.153796
H575	H	-0.312607	-0.054075	-0.191152
H576	H	0.187393	0.445925	0.308848
C577	C	-0.182327	-0.450149	-0.321851
C578	C	0.317673	0.049851	0.178149
C579	C	-0.153093	-0.485776	-0.351190
C580	C	0.346907	0.014224	0.148810
C581	C	-0.119680	-0.458611	-0.384763
C582	C	0.380320	0.041389	0.115237
H583	H	-0.159473	-0.428845	-0.301955
H584	H	0.340527	0.071155	0.198045
H585	H	-0.202350	-0.428863	-0.344627
H586	H	0.297650	0.071137	0.155373
H587	H	-0.133071	-0.507052	-0.328416
H588	H	0.366929	-0.007052	0.171584
H589	H	-0.175933	-0.507081	-0.371096
H590	H	0.324067	-0.007081	0.128904
H591	H	-0.139703	-0.437325	-0.407540
H592	H	0.360297	0.062675	0.092460
H593	H	-0.096830	-0.437308	-0.364864
H594	H	0.403170	0.062692	0.135136
H595	H	-0.099844	-0.482779	-0.404677
H596	H	0.400156	0.017221	0.095323
H597	H	-0.451025	-0.816127	-0.191304
H598	H	0.048975	-0.316127	0.308696
