data_functionalizedCrystal
_audit_creation_method	'MofGen! by Chris Wilmer'
_symmetry_space_group_name_H-M	'P1'
_symmetry_Int_Tables_number	1
_symmetry_cell_setting	triclinic
loop_
_symmetry_equiv_pos_as_xyz
  x,y,z
_cell_length_a	8.559649
_cell_length_b	12.503572
_cell_length_c	8.559649
_cell_angle_alpha	93.028969
_cell_angle_beta	110.221336
_cell_angle_gamma	93.021187
loop_
_atom_site_label
_atom_site_type_symbol
_atom_site_fract_x
_atom_site_fract_y
_atom_site_fract_z
O1	O	2.137388	0.089317	0.065568
O2	O	1.661903	0.089318	-0.018213
O3	O	1.941536	0.089317	0.261419
O4	O	1.857755	0.089319	-0.214065
O5	O	1.920502	-0.089325	0.240358
O6	O	1.640869	-0.089323	-0.039274
O7	O	2.116354	-0.089325	0.044507
Cu8	Cu	1.876691	-0.105635	0.000693
Cu9	Cu	1.901566	0.105629	0.025600
O10	O	1.836721	-0.089323	-0.235126
C11	C	1.591077	-0.000002	-0.035093
C12	C	1.411378	-0.000002	-0.053992
N13	N	1.859207	-0.254228	-0.016823
C14	C	1.833486	-0.473343	-0.042603
C15	C	1.944779	-0.526671	0.068905
C16	C	1.930468	-0.648594	0.054560
C17	C	1.847795	-0.351409	-0.028261
C18	C	2.187180	-0.000002	0.061387
C19	C	2.366880	0.000005	0.080286
C20	C	1.937368	-0.000002	0.311198
C21	C	1.956268	0.000004	0.490898
N22	N	1.919064	0.254221	0.043130
C23	C	1.840889	-0.000002	-0.284905
C24	C	1.821990	-0.000000	-0.464604
H25	H	1.312001	0.000010	-0.183410
Br26	Br	2.122104	-0.450155	0.245375
Br27	Br	1.606272	-0.000006	0.369762
H28	H	1.727465	-0.519249	-0.148835
H29	H	2.085695	-0.000005	0.590285
H30	H	1.466268	0.000005	0.209714
