data_functionalizedCrystal
_audit_creation_method	'MofGen! by Chris Wilmer'
_symmetry_space_group_name_H-M	'P1'
_symmetry_Int_Tables_number	1
_symmetry_cell_setting	triclinic
loop_
_symmetry_equiv_pos_as_xyz
  x,y,z
_cell_length_a	15.625950
_cell_length_b	15.625429
_cell_length_c	15.186229
_cell_angle_alpha	71.919106
_cell_angle_beta	108.070050
_cell_angle_gamma	89.777900
loop_
_atom_site_label
_atom_site_type_symbol
_atom_site_fract_x
_atom_site_fract_y
_atom_site_fract_z
O1	O	1.196217	0.117783	0.271021
O2	O	0.933789	0.131786	0.182777
O3	O	1.072015	-0.006443	0.271040
O4	O	1.057991	0.256011	0.182758
O5	O	1.072006	-0.006445	0.417495
O6	O	0.933780	0.131784	0.329232
O7	O	1.196208	0.117781	0.417476
Zn8	Zn	1.064993	0.124782	0.396607
Zn9	Zn	1.065005	0.124785	0.203646
O10	O	1.057982	0.256009	0.329213
C11	C	0.900200	0.131147	0.245487
C12	C	0.800128	0.129237	0.214151
C13	C	0.470887	0.122997	0.510133
C14	C	0.376852	0.121219	0.480642
C15	C	0.376909	0.121222	0.320997
C16	C	0.470945	0.123004	0.350473
C17	C	0.517927	0.123891	0.445043
C18	C	0.517985	0.123898	0.285383
C19	C	0.612013	0.125675	0.314859
C20	C	0.659002	0.126559	0.409425
C21	C	0.611955	0.125668	0.474519
C22	C	0.471002	0.123005	0.190816
C23	C	0.518042	0.123899	0.125726
C24	C	0.612071	0.125683	0.155199
C25	C	0.659060	0.126566	0.249766
C26	C	0.659118	0.126574	0.090106
C27	C	0.753147	0.128351	0.119582
C28	C	0.753089	0.128343	0.279242
C29	C	1.071376	-0.040032	0.354788
C30	C	1.069474	-0.140114	0.386133
C31	C	1.063218	-0.469268	0.090085
C32	C	1.061426	-0.563310	0.119564
C33	C	1.061417	-0.563298	0.279219
C34	C	1.063212	-0.469255	0.249755
C35	C	1.064112	-0.422247	0.155186
C36	C	1.064106	-0.422234	0.314856
C37	C	1.065897	-0.328198	0.285392
C38	C	1.066794	-0.281184	0.190826
C39	C	1.065903	-0.328211	0.125722
C40	C	1.063201	-0.469243	0.409422
C41	C	1.064095	-0.422222	0.474523
C42	C	1.065892	-0.328186	0.445062
C43	C	1.066789	-0.281171	0.350496
C44	C	1.066783	-0.281158	0.510166
C45	C	1.068574	-0.187122	0.480702
C46	C	1.068580	-0.187135	0.321032
C47	C	1.229797	0.118419	0.354764
C48	C	1.329869	0.120330	0.386094
C49	C	1.058621	0.289599	0.245462
C50	C	1.060524	0.389681	0.214112
N51	N	1.064991	0.124780	0.528300
N52	N	1.065014	0.124780	0.071958
C53	C	1.126218	0.063593	0.793106
C54	C	1.126221	0.063591	0.885297
C55	C	1.003780	0.185970	0.807142
C56	C	1.003773	0.185967	0.714953
C57	C	1.064998	0.124779	0.707938
C58	C	1.065007	0.124780	0.892319
C59	C	1.065009	0.124778	0.992276
C60	C	1.064994	0.124780	0.607975
H61	H	0.735566	0.128005	0.433423
Cl62	Cl	1.069049	-0.162966	0.153784
Cl63	Cl	1.064362	-0.410167	-0.028799
Cl64	Cl	1.065635	-0.340262	0.629041
H65	H	1.060681	-0.601584	0.356216
H66	H	0.650209	0.126403	0.551522
Cl67	Cl	0.529956	0.124122	0.629019
H68	H	0.479777	0.123173	0.048729
H69	H	0.620853	0.125843	0.013111
H70	H	1.176071	0.013766	0.954641
H71	H	1.176069	0.013769	0.787399
H72	H	0.394437	0.121563	0.166819
Cl73	Cl	1.069724	-0.128034	0.202148
H74	H	0.338644	0.120497	0.244000
H75	H	1.066643	-0.289936	0.048718
H76	H	1.061733	-0.545812	0.433405
H77	H	0.791447	0.129083	0.066577
H78	H	0.953933	0.235788	0.812864
Cl79	Cl	0.317721	0.120080	0.562487
Cl80	Cl	0.926800	0.262889	0.607876
H81	H	1.060690	-0.601590	0.066540
H82	H	1.063359	-0.460508	0.551520
H83	H	0.791342	0.129078	0.356245
Cl84	Cl	1.069704	-0.128006	0.562546
