data_functionalizedCrystal
_audit_creation_method	'MofGen! by Chris Wilmer'
_symmetry_space_group_name_H-M	'P1'
_symmetry_Int_Tables_number	1
_symmetry_cell_setting	triclinic
loop_
_symmetry_equiv_pos_as_xyz
  x,y,z
_cell_length_a	19.377369
_cell_length_b	23.196402
_cell_length_c	23.196402
_cell_angle_alpha	90.005487
_cell_angle_beta	48.638507
_cell_angle_gamma	72.130247
loop_
_atom_site_label
_atom_site_type_symbol
_atom_site_fract_x
_atom_site_fract_y
_atom_site_fract_z
Zr1	Zr	0.779888	0.039901	0.440358
O2	O	0.928520	-0.030123	0.326386
O3	O	0.631252	0.046094	0.490494
O4	O	0.779888	-0.052150	0.468568
O5	O	0.779886	0.162991	0.348319
O6	O	0.779893	-0.052151	0.563436
O7	O	0.779884	0.068120	0.348312
O8	O	0.514011	0.123589	0.602657
O9	O	1.045768	-0.012750	0.309098
O10	O	0.692394	0.067187	0.564314
O11	O	0.692391	0.137988	0.493521
O12	O	0.867391	0.022319	0.467706
O13	O	0.867388	0.093120	0.396913
Zr14	Zr	0.779899	0.191207	0.591674
Zr15	Zr	0.779896	0.039900	0.591661
Zr16	Zr	0.779891	0.191208	0.440370
Zr17	Zr	0.966886	0.067610	0.412786
Zr18	Zr	0.592902	0.163497	0.619245
O19	O	0.928535	0.185014	0.541538
O20	O	0.928531	-0.030125	0.541520
O21	O	0.928524	0.185016	0.326404
O22	O	0.631267	0.261231	0.705645
O23	O	0.631263	0.046092	0.705628
O24	O	0.631256	0.261233	0.490511
O25	O	0.779901	0.068117	0.683712
O26	O	0.779899	0.283257	0.563463
O27	O	0.779894	0.283258	0.468595
O28	O	0.779903	0.162987	0.683720
O29	O	1.045774	-0.012751	0.429364
O30	O	0.514013	0.243858	0.602667
O31	O	0.514019	0.243857	0.722933
O32	O	0.514017	0.123588	0.722923
O33	O	1.045770	0.107519	0.309108
O34	O	1.045776	0.107518	0.429374
O35	O	0.692396	0.208788	0.564325
O36	O	0.692399	0.137987	0.635119
O37	O	0.867396	0.093119	0.538511
O38	O	0.867393	0.163920	0.467718
C39	C	0.545988	0.080894	0.550504
C40	C	0.466603	0.069130	0.562209
C41	C	0.779884	0.115556	0.326758
C42	C	0.779881	0.115556	0.262526
C43	C	0.779897	0.304816	0.516031
C44	C	0.779898	0.369050	0.516036
C45	C	0.205200	0.215430	0.416239
C46	C	0.130515	0.204427	0.427334
C47	C	0.130526	0.130516	0.501237
C48	C	0.205210	0.141515	0.490151
C49	C	0.242542	0.183972	0.447650
C50	C	0.242551	0.110057	0.521563
C51	C	0.317232	0.121053	0.510474
C52	C	0.354571	0.163507	0.467974
C53	C	0.317222	0.194968	0.436562
C54	C	0.205223	0.067597	0.564058
C55	C	0.242565	0.036139	0.595470
C56	C	0.317242	0.047138	0.584386
C57	C	0.354581	0.089592	0.541886
C58	C	0.354591	0.015677	0.615798
C59	C	0.429271	0.026673	0.604709
C60	C	0.429262	0.100588	0.530797
C61	C	1.013799	0.150214	0.481528
C62	C	1.093184	0.161977	0.469823
C63	C	0.779890	-0.073708	0.516000
C64	C	0.779889	-0.137942	0.515995
C65	C	0.871242	0.375804	0.465612
C66	C	0.871244	0.436158	0.465601
C67	C	0.779896	0.489758	0.516030
C68	C	0.688540	0.482999	0.566458
C69	C	0.688541	0.422645	0.566461
C70	C	0.709913	0.603323	0.588249
C71	C	0.709915	0.663675	0.588248
C72	C	0.779888	0.675910	0.516019
C73	C	0.849876	0.627782	0.443791
C74	C	0.849877	0.567428	0.443794
C75	C	0.779884	0.555204	0.516032
C76	C	0.871240	0.748106	0.465579
C77	C	0.871237	0.808463	0.465567
C78	C	0.688531	0.855303	0.566431
C79	C	0.688536	0.794947	0.566436
C80	C	0.779893	0.741351	0.516011
C81	C	0.688560	0.138979	-0.149897
C82	C	0.688555	0.138976	-0.089539
C83	C	0.779900	0.115556	-0.109784
C84	C	0.871258	0.092122	-0.190395
C85	C	0.871262	0.092120	-0.250751
C86	C	0.849881	0.131205	-0.052794
C87	C	0.849874	0.131212	0.007562
C88	C	0.779895	0.115560	0.076370
C89	C	0.709905	0.099912	0.084824
C90	C	0.709908	0.099909	0.024468
C91	C	0.779907	0.115556	-0.044344
C92	C	0.688536	0.138985	0.222419
C93	C	0.688534	0.138977	0.282776
C94	C	0.871240	0.092129	0.181916
C95	C	0.871240	0.092131	0.121562
C96	C	0.779885	0.115562	0.141818
C97	C	0.779903	0.115552	0.705273
C98	C	0.779907	0.115551	0.769506
C99	C	0.545998	0.080892	0.739761
C100	C	0.466616	0.069128	0.815699
C101	C	0.545992	0.270156	0.550519
C102	C	0.466608	0.322626	0.562229
C103	C	0.546002	0.270154	0.739777
C104	C	0.466621	0.322624	0.815719
C105	C	1.013785	-0.039046	0.292254
C106	C	1.093166	-0.091516	0.216312
C107	C	1.013789	0.150216	0.292270
C108	C	1.093171	0.161980	0.216333
C109	C	1.013795	-0.039048	0.481512
C110	C	1.093179	-0.091519	0.469802
C111	C	0.429335	0.026640	0.814400
C112	C	0.354757	0.015574	0.885744
C113	C	0.317457	0.047000	0.958386
C114	C	0.354746	0.089490	0.959682
C115	C	0.429327	0.100552	0.888338
C116	C	0.429331	0.384230	0.604688
C117	C	0.354752	0.433539	0.615687
C118	C	0.317446	0.421242	0.584231
C119	C	0.354730	0.359632	0.541767
C120	C	0.429313	0.310325	0.530764
C121	C	0.429344	0.310307	0.888342
C122	C	0.354768	0.359603	0.959703
C123	C	0.317465	0.421216	0.958439
C124	C	0.354749	0.433533	0.885808
C125	C	0.429329	0.384237	0.814448
C126	C	1.130452	-0.079198	0.143688
C127	C	1.205052	-0.128491	0.072324
C128	C	1.242359	-0.190103	0.073587
C129	C	1.205070	-0.202421	0.146219
C130	C	1.130477	-0.153127	0.217580
C131	C	1.130460	0.204462	0.217630
C132	C	1.205058	0.215515	0.146283
C133	C	1.242361	0.184087	0.073641
C134	C	1.205069	0.141600	0.072345
C135	C	1.130477	0.130545	0.143691
C136	C	1.130462	-0.079202	0.501268
C137	C	1.205041	-0.128500	0.490280
C138	C	1.242343	-0.190112	0.447821
C139	C	1.205053	-0.202428	0.416355
C140	C	1.130469	-0.153132	0.427348
H141	H	0.459659	0.135161	0.496189
H142	H	0.256737	0.461350	1.016550
H143	H	1.235400	-0.118450	0.013192
H144	H	0.256715	0.461396	0.593196
H145	H	0.144419	0.058642	0.573080
H146	H	1.100122	-0.163168	0.401719
H147	H	1.235409	0.250113	0.147354
H148	H	1.235452	0.116015	0.013190
H149	H	0.100116	0.230045	0.401749
H150	H	0.256728	0.037987	1.016473
H151	H	1.100102	-0.029038	0.535841
H152	H	1.303074	-0.230246	0.438876
H153	H	1.235395	-0.118459	0.515905
H154	H	0.415385	0.172457	0.458943
H155	H	0.945616	0.073057	0.165431
H156	H	0.945633	0.073052	-0.206875
H157	H	1.100118	0.095953	0.142624
H158	H	1.303098	0.193095	0.015553
H159	H	0.324404	0.483700	0.650267
H160	H	0.324366	0.483704	0.884791
H161	H	0.652932	0.702857	0.647061
H162	H	0.100125	0.095945	0.535838
H163	H	0.324344	0.349629	0.516159
H164	H	1.235435	-0.252599	0.381784
H165	H	0.347619	0.229542	0.401954
H166	H	0.324406	-0.019024	0.884674
H167	H	0.652922	0.593372	0.647070
H168	H	0.235597	0.250003	0.381631
H169	H	1.100081	-0.029035	0.142645
H170	H	0.906878	0.143941	0.000665
H171	H	0.459705	0.260142	0.889386
H172	H	0.945624	0.073058	0.055933
H173	H	0.459704	0.001040	0.755257
H174	H	0.212164	0.001569	0.630071
H175	H	0.324193	-0.018896	0.650395
H176	H	0.459676	0.001056	0.630287
H177	H	0.945633	0.332168	0.424550
H178	H	0.906861	0.528243	0.384983
H179	H	0.945629	0.441659	0.424536
H180	H	0.945628	0.704466	0.424516
H181	H	0.906855	0.637740	0.384975
H182	H	0.945624	0.813957	0.424500
H183	H	0.459670	0.394274	0.755319
H184	H	1.303097	-0.230235	0.015474
H185	H	0.652918	0.087168	0.140851
H186	H	1.235455	-0.252591	0.147238
H187	H	0.945649	0.073042	-0.316381
H188	H	0.459654	0.260165	0.496194
H189	H	1.100119	-0.163165	0.276712
H190	H	0.614154	0.898944	0.607486
H191	H	0.324419	0.349563	1.018835
H192	H	0.324365	0.115073	1.018837
H193	H	1.100094	0.230060	0.276773
H194	H	0.614154	0.789450	0.607501
H195	H	0.614156	0.417150	0.607524
H196	H	0.614168	0.158065	-0.023904
H197	H	0.614164	0.526644	0.607516
H198	H	0.614172	0.158057	-0.133396
H199	H	0.459672	0.135152	0.889407
H200	H	0.459697	0.394255	0.630305
H201	H	0.614149	0.158061	0.238913
H202	H	0.652921	0.087167	0.031354
H203	H	0.614146	0.158049	0.348405
H204	H	0.906874	0.143950	-0.108821
