data_functionalizedCrystal
_audit_creation_method	'MofGen! by Chris Wilmer'
_symmetry_space_group_name_H-M	'P1'
_symmetry_Int_Tables_number	1
_symmetry_cell_setting	triclinic
loop_
_symmetry_equiv_pos_as_xyz
  x,y,z
_cell_length_a	17.077404
_cell_length_b	19.076808
_cell_length_c	17.077396
_cell_angle_alpha	92.329364
_cell_angle_beta	90.019501
_cell_angle_gamma	92.323651
loop_
_atom_site_label
_atom_site_type_symbol
_atom_site_fract_x
_atom_site_fract_y
_atom_site_fract_z
Zn1	Zn	1.187485	-0.280213	0.431271
Zn2	Zn	1.687485	0.219787	0.931271
Zn3	Zn	1.182112	-0.397923	0.294725
Zn4	Zn	1.682112	0.102077	0.794725
Zn5	Zn	1.056216	-0.280237	0.300018
Zn6	Zn	1.556216	0.219763	0.800018
Zn7	Zn	1.050907	-0.397881	0.425950
Zn8	Zn	1.550907	0.102119	0.925950
O9	O	1.119180	-0.339064	0.362991
O10	O	1.619180	0.160936	0.862991
O11	O	1.296619	-0.295834	0.413170
O12	O	1.796619	0.204166	0.913170
O13	O	1.165385	-0.382340	0.185579
O14	O	1.665385	0.117660	0.685579
O15	O	1.078100	-0.181738	0.321872
O16	O	1.578100	0.318262	0.821872
O17	O	1.292672	-0.382316	0.312849
O18	O	1.792672	0.117684	0.812849
O19	O	1.174543	-0.181719	0.418303
O20	O	1.674543	0.318281	0.918303
O21	O	1.072890	-0.295877	0.189468
O22	O	1.572890	0.204123	0.689468
O23	O	0.945665	-0.295836	0.316712
O24	O	1.445665	0.204164	0.816712
O25	O	1.069051	-0.382245	0.536504
O26	O	1.569051	0.117755	1.036504
O27	O	0.941765	-0.382268	0.409233
O28	O	1.441765	0.117732	0.909233
O29	O	1.169395	-0.295794	0.540414
O30	O	1.669395	0.204206	1.040414
O31	O	1.160237	-0.496414	0.307689
O32	O	1.660237	0.003586	0.807689
O33	O	1.063841	-0.496383	0.404100
O34	O	1.563841	0.003617	0.904100
C35	C	0.915233	-0.339051	0.362970
C36	C	1.415233	0.160949	0.862970
C37	C	0.827982	-0.339062	0.362979
C38	C	1.327982	0.160938	0.862979
C39	C	0.784979	-0.384136	0.411071
C40	C	1.284979	0.115864	0.911071
C41	C	0.702998	-0.384137	0.411084
C42	C	1.202998	0.115863	0.911084
C43	C	0.664023	-0.339068	0.362999
C44	C	1.164023	0.160932	0.862999
C45	C	0.707032	-0.293990	0.314905
C46	C	1.207032	0.206010	0.814905
C47	C	0.789012	-0.293986	0.314897
C48	C	1.289012	0.206014	0.814897
C49	C	0.536162	-0.294004	0.314923
C50	C	1.036162	0.205996	0.814923
C51	C	0.454177	-0.294009	0.314929
C52	C	0.954177	0.205991	0.814929
C53	C	0.450148	-0.384156	0.411110
C54	C	0.950148	0.115844	0.911110
C55	C	0.532128	-0.384151	0.411102
C56	C	1.032128	0.115849	0.911102
C57	C	0.575132	-0.339074	0.363006
C58	C	1.075132	0.160926	0.863006
C59	C	1.110901	-0.521938	0.354760
C60	C	1.610901	-0.021938	0.854760
C61	C	1.107431	-0.600172	0.351265
C62	C	1.607431	-0.100172	0.851265
C63	C	1.155976	-0.636857	0.399870
C64	C	1.655976	-0.136857	0.899870
C65	C	1.152713	-0.710366	0.396588
C66	C	1.652713	-0.210366	0.896588
C67	C	1.100908	-0.747190	0.344695
C68	C	1.600908	-0.247190	0.844695
C69	C	1.052357	-0.710500	0.296088
C70	C	1.552357	-0.210500	0.796088
C71	C	1.055617	-0.636992	0.299375
C72	C	1.555617	-0.136992	0.799375
C73	C	1.085773	-0.967043	0.329480
C74	C	1.585773	-0.467043	0.829480
C75	C	1.082519	-1.040556	0.326195
C76	C	1.582519	-0.540556	0.826195
C77	C	1.182873	-1.040418	0.426696
C78	C	1.682873	-0.540418	0.926696
C79	C	1.186132	-0.966908	0.429975
C80	C	1.686132	-0.466908	0.929975
C81	C	1.137579	-0.930225	0.381371
C82	C	1.637579	-0.430225	0.881371
N83	N	1.097572	-0.822328	0.341337
N84	N	1.597572	-0.322328	0.841337
N85	N	1.140911	-0.855088	0.384733
N86	N	1.640911	-0.355088	0.884733
C87	C	1.323924	-0.339077	0.363013
C88	C	1.823924	0.160923	0.863013
C89	C	1.411173	-0.339083	0.363022
C90	C	1.911173	0.160917	0.863022
C91	C	1.119230	-0.339012	0.567738
C92	C	1.619230	0.160988	1.067738
C93	C	1.119251	-0.338990	0.654989
C94	C	1.619251	0.161010	1.154989
C95	C	1.127513	-0.155475	0.371271
C96	C	1.627513	0.344525	0.871271
C97	C	1.131064	-0.077241	0.374800
C98	C	1.631064	0.422759	0.874800
C99	C	1.119178	-0.339065	0.159043
C100	C	1.619178	0.160935	0.659043
C101	C	1.119318	-0.338888	0.071802
C102	C	1.619318	0.161112	0.571802
C103	C	1.171502	-0.293971	0.698016
C104	C	1.671502	0.206029	1.198016
C105	C	1.171513	-0.293948	0.779997
C106	C	1.671513	0.206052	1.279997
C107	C	1.119275	-0.338947	0.818950
C108	C	1.619275	0.161053	1.318950
C109	C	1.067019	-0.383967	0.775917
C110	C	1.567019	0.116033	1.275917
C111	C	1.067005	-0.383987	0.693937
C112	C	1.567005	0.116013	1.193937
C113	C	1.067052	-0.383925	0.946789
C114	C	1.567052	0.116075	1.446789
C115	C	1.067067	-0.383907	1.028774
C116	C	1.567067	0.116093	1.528774
C117	C	1.171560	-0.293886	1.032849
C118	C	1.671560	0.206114	1.532849
C119	C	1.171546	-0.293905	0.950870
C120	C	1.671546	0.206095	1.450870
C121	C	1.119290	-0.338927	0.907842
C122	C	1.619290	0.161073	1.407842
H123	H	0.422446	-0.257302	0.275785
H124	H	0.922446	0.242698	0.775785
H125	H	1.024484	-0.420604	0.807639
H126	H	1.524484	0.079396	1.307639
H127	H	1.214086	-0.257267	0.919157
H128	H	1.714086	0.242733	1.419157
H129	H	1.228316	-0.936928	0.472230
H130	H	1.728316	-0.436928	0.972230
C131	C	1.217962	-0.253859	1.160325
C132	C	1.717962	0.246141	1.660325
C133	C	1.228988	-0.244384	1.080143
C134	C	1.728988	0.255616	1.580143
H135	H	1.253412	-0.223296	1.189523
H136	H	1.753412	0.276704	1.689523
H137	H	1.227314	-0.301140	1.171632
H138	H	1.727314	0.198860	1.671632
H139	H	1.165685	-0.243555	1.174201
H140	H	1.665685	0.256445	1.674201
H141	H	1.281264	-0.254694	1.066266
H142	H	1.781264	0.245306	1.566266
H143	H	1.219642	-0.197093	1.068831
H144	H	1.719642	0.302907	1.568831
C145	C	0.623924	-0.394040	0.516212
C146	C	1.123924	0.105960	1.016212
C147	C	0.574972	-0.433690	0.463958
C148	C	1.074972	0.066310	0.963958
H149	H	0.650377	-0.424624	0.548841
H150	H	1.150377	0.075376	1.048841
H151	H	0.593340	-0.363417	0.547674
H152	H	1.093340	0.136583	1.047674
H153	H	0.661264	-0.367198	0.487558
H154	H	1.161264	0.132802	0.987558
H155	H	0.537628	-0.460528	0.492613
H156	H	1.037628	0.039472	0.992613
H157	H	0.605559	-0.464325	0.432493
H158	H	1.105559	0.035675	0.932493
C159	C	0.872888	-0.478828	0.417537
C160	C	1.372888	0.021172	0.917537
C161	C	0.827816	-0.433678	0.463928
C162	C	1.327816	0.066322	0.963928
H163	H	0.899327	-0.509415	0.450173
H164	H	1.399327	-0.009415	0.950173
H165	H	0.910232	-0.451985	0.388901
H166	H	1.410232	0.048015	0.888901
H167	H	0.839667	-0.505712	0.382083
H168	H	1.339667	-0.005712	0.882083
H169	H	0.861037	-0.406790	0.499379
H170	H	1.361037	0.093210	0.999379
H171	H	0.790467	-0.460524	0.492577
H172	H	1.290467	0.039476	0.992577
H173	H	1.214042	-0.257330	0.666307
H174	H	1.714042	0.242670	1.166307
H175	H	0.415131	-0.420857	0.450273
H176	H	0.915131	0.079143	0.950273
C177	C	1.274807	-0.204980	0.775790
C178	C	1.774807	0.295020	1.275790
C179	C	1.228954	-0.244467	0.827293
C180	C	1.728954	0.255533	1.327293
H181	H	1.310273	-0.174435	0.804990
H182	H	1.810273	0.325565	1.304990
H183	H	1.241827	-0.178060	0.745026
H184	H	1.741827	0.321940	1.245026
H185	H	1.303429	-0.235668	0.742436
H186	H	1.803429	0.264332	1.242436
H187	H	1.200327	-0.213778	0.860644
H188	H	1.700327	0.286222	1.360644
H189	H	1.261939	-0.271388	0.858071
H190	H	1.761939	0.228612	1.358071
H191	H	0.667988	-0.420841	0.450245
H192	H	1.167988	0.079159	0.950245
C193	C	1.195135	-0.614117	0.533843
C194	C	1.695135	-0.114117	1.033843
C195	C	1.212918	-0.596381	0.456915
C196	C	1.712918	-0.096381	0.956915
H197	H	1.230285	-0.589126	0.569062
H198	H	1.730285	-0.089126	1.069062
H199	H	1.200146	-0.663140	0.538836
H200	H	1.700146	-0.163140	1.038836
H201	H	1.142917	-0.602102	0.545806
H202	H	1.642917	-0.102102	1.045806
H203	H	1.265135	-0.608401	0.444950
H204	H	1.765135	-0.108401	0.944950
H205	H	1.207915	-0.547347	0.451918
H206	H	1.707915	-0.047347	0.951918
C207	C	0.531913	-0.204911	0.219835
C208	C	1.031913	0.295089	0.719835
C209	C	0.583433	-0.244462	0.262046
C210	C	1.083433	0.255538	0.762046
H211	H	0.561098	-0.174334	0.187185
H212	H	1.061098	0.325666	0.687185
H213	H	0.501176	-0.178021	0.255294
H214	H	1.001176	0.321979	0.755294
H215	H	0.498533	-0.235556	0.188386
H216	H	0.998533	0.264444	0.688386
H217	H	0.616810	-0.213817	0.293499
H218	H	1.116810	0.286183	0.793499
H219	H	0.614183	-0.271353	0.226582
H220	H	1.114183	0.228647	0.726582
H221	H	0.675292	-0.257291	0.275757
H222	H	1.175292	0.242709	0.775757
C223	C	1.046198	-0.854429	0.289895
C224	C	1.546198	-0.354429	0.789895
C225	C	1.032408	-0.926726	0.276052
C226	C	1.532408	-0.426726	0.776052
H227	H	1.013247	-0.829538	0.256912
H228	H	1.513247	-0.329538	0.756912
H229	H	1.099475	-0.842348	0.278993
H230	H	1.599475	-0.342348	0.778993
H231	H	1.035213	-0.842369	0.343168
H232	H	1.535213	-0.342369	0.843168
H233	H	1.043399	-0.938787	0.222780
H234	H	1.543399	-0.438787	0.722780
H235	H	0.979119	-0.938812	0.286949
H236	H	1.479119	-0.438812	0.786949
H237	H	1.024529	-0.420548	1.060487
H238	H	1.524529	0.079452	1.560487
H239	H	1.192249	-0.740232	0.436161
H240	H	1.692249	-0.240232	0.936161
C241	C	0.963792	-0.472934	0.950990
C242	C	1.463792	0.027066	1.450990
C243	C	1.009629	-0.433430	0.899491
C244	C	1.509629	0.066570	1.399491
H245	H	0.928353	-0.503503	0.921788
H246	H	1.428353	-0.003503	1.421788
H247	H	0.935147	-0.442263	0.984332
H248	H	1.435147	0.057737	1.484332
H249	H	0.996792	-0.499835	0.981768
H250	H	1.496792	0.000165	1.481768
H251	H	0.976630	-0.406524	0.868716
H252	H	1.476630	0.093476	1.368716
H253	H	1.038276	-0.464104	0.866135
H254	H	1.538276	0.035896	1.366135
H255	H	1.024449	-0.420638	0.658905
H256	H	1.524449	0.079362	1.158905
H257	H	0.824025	-0.257279	0.275739
H258	H	1.324025	0.242721	0.775739
C259	C	1.016053	-0.524368	0.259794
C260	C	1.516053	-0.024368	0.759794
C261	C	1.002256	-0.596664	0.245947
C262	C	1.502256	-0.096664	0.745947
H263	H	0.983102	-0.499474	0.226814
H264	H	1.483102	0.000526	0.726814
H265	H	1.069330	-0.512290	0.248891
H266	H	1.569330	-0.012290	0.748891
H267	H	1.005069	-0.512310	0.313068
H268	H	1.505069	-0.012310	0.813068
H269	H	1.013245	-0.608724	0.192675
H270	H	1.513245	-0.108724	0.692675
H271	H	0.948967	-0.608747	0.256845
H272	H	1.448967	-0.108747	0.756845
C273	C	1.222432	-1.153038	0.466289
C274	C	1.722432	-0.653038	0.966289
C275	C	1.236233	-1.080742	0.480127
C276	C	1.736233	-0.580742	0.980127
H277	H	1.255372	-1.177931	0.499283
H278	H	1.755372	-0.677931	0.999283
H279	H	1.233421	-1.165104	0.413026
H280	H	1.733421	-0.665104	0.913026
H281	H	1.169145	-1.165112	0.477188
H282	H	1.669145	-0.665112	0.977188
H283	H	1.289519	-1.068667	0.469223
H284	H	1.789519	-0.568667	0.969223
H285	H	1.225250	-1.068671	0.533402
H286	H	1.725250	-0.568671	1.033402
H287	H	1.040329	-1.070536	0.283937
H288	H	1.540329	-0.570536	0.783937
H289	H	1.010173	-0.740487	0.253840
H290	H	1.510173	-0.240487	0.753840
