data_functionalizedCrystal
_audit_creation_method	'MofGen! by Chris Wilmer'
_symmetry_space_group_name_H-M	'P1'
_symmetry_Int_Tables_number	1
_symmetry_cell_setting	triclinic
loop_
_symmetry_equiv_pos_as_xyz
  x,y,z
_cell_length_a	10.654550
_cell_length_b	11.792241
_cell_length_c	9.730223
_cell_angle_alpha	89.998500
_cell_angle_beta	89.996251
_cell_angle_gamma	84.339159
loop_
_atom_site_label
_atom_site_type_symbol
_atom_site_fract_x
_atom_site_fract_y
_atom_site_fract_z
O1	O	1.667383	0.159415	-0.114404
O2	O	1.301862	0.174603	-0.114382
O3	O	1.493493	0.001859	-0.114383
O4	O	1.475752	0.332159	-0.114402
O5	O	1.493490	0.001863	0.114196
O6	O	1.301859	0.174608	0.114198
O7	O	1.667381	0.159419	0.114176
Zn8	Zn	1.484620	0.167014	0.150479
Zn9	Zn	1.484623	0.167008	-0.150685
O10	O	1.475750	0.332163	0.114178
C11	C	1.255066	0.173490	-0.000089
C12	C	1.115632	0.170154	-0.000080
C13	C	1.035858	0.271863	-0.000106
C14	C	0.904847	0.268721	-0.000129
C15	C	0.933394	0.062152	-0.000107
C16	C	1.064404	0.065295	-0.000074
C17	C	1.019376	0.391124	-0.000124
C18	C	0.888364	0.387982	-0.000148
C19	C	1.492377	-0.040432	-0.000094
C20	C	1.489042	-0.166454	-0.000095
C21	C	1.482908	-0.397180	-0.000118
C22	C	1.486316	-0.268787	-0.000105
C23	C	1.714177	0.160532	-0.000120
C24	C	1.853611	0.163869	-0.000137
C25	C	1.476865	0.374455	-0.000114
C26	C	1.480201	0.500476	-0.000122
N27	N	1.484627	0.167017	0.356016
N28	N	1.484625	0.166996	-0.356221
C29	C	1.569503	0.090552	0.427941
C30	C	1.569500	0.090539	0.571824
C31	C	1.399740	0.243465	0.571844
C32	C	1.399739	0.243472	0.427963
C33	C	1.667516	0.002265	0.427931
C34	C	1.667513	0.002251	0.571814
H35	H	1.129352	-0.017527	-0.000033
H36	H	1.637233	-0.080191	0.616436
H37	H	0.846505	0.432916	-0.095818
H38	H	0.891668	-0.023221	-0.000123
N39	N	1.795272	0.028009	0.623548
H40	H	1.852285	0.039520	0.542856
H41	H	1.785517	0.099522	0.681259
N42	N	1.058077	0.452899	0.126586
H43	H	1.101256	0.521766	0.098392
H44	H	0.980798	0.478124	0.183062
H45	H	1.054925	0.429097	-0.098814
H46	H	0.842589	0.424026	0.098534
H47	H	1.330615	0.305726	0.369403
H48	H	1.330626	0.305712	0.630439
H49	H	1.646320	-0.084976	0.388883
H50	H	1.758622	0.029909	0.383297
