data_functionalizedCrystal
_audit_creation_method	'MofGen! by Chris Wilmer'
_symmetry_space_group_name_H-M	'P1'
_symmetry_Int_Tables_number	1
_symmetry_cell_setting	triclinic
loop_
_symmetry_equiv_pos_as_xyz
  x,y,z
_cell_length_a	18.101398
_cell_length_b	25.639234
_cell_length_c	18.101397
_cell_angle_alpha	89.977192
_cell_angle_beta	90.015323
_cell_angle_gamma	89.988672
loop_
_atom_site_label
_atom_site_type_symbol
_atom_site_fract_x
_atom_site_fract_y
_atom_site_fract_z
Zn1	Zn	1.132191	-0.295498	-0.294963
Zn2	Zn	1.465524	0.037835	0.038371
Zn3	Zn	1.798858	0.371168	0.371704
Zn4	Zn	1.132108	-0.208066	-0.418798
Zn5	Zn	1.465441	0.125267	-0.085464
Zn6	Zn	1.798774	0.458601	0.247869
Zn7	Zn	1.008346	-0.208090	-0.294965
Zn8	Zn	1.341680	0.125243	0.038368
Zn9	Zn	1.675013	0.458577	0.371702
Zn10	Zn	1.008325	-0.295483	-0.418757
Zn11	Zn	1.341658	0.037850	-0.085424
Zn12	Zn	1.674992	0.371183	0.247910
O13	O	1.070243	-0.251784	-0.356871
O14	O	1.403576	0.081549	-0.023537
O15	O	1.736909	0.414882	0.309796
O16	O	1.235813	-0.283897	-0.311406
O17	O	1.569146	0.049437	0.021928
O18	O	1.902479	0.382770	0.355261
O19	O	1.115665	-0.134904	-0.402389
O20	O	1.448998	0.198429	-0.069056
O21	O	1.782331	0.531763	0.264277
O22	O	1.024818	-0.219701	-0.191332
O23	O	1.358152	0.113632	0.142001
O24	O	1.691485	0.446965	0.475335
O25	O	1.235752	-0.219660	-0.402387
O26	O	1.569085	0.113673	-0.069053
O27	O	1.902418	0.447006	0.264280
O28	O	1.115806	-0.283920	-0.191330
O29	O	1.449140	0.049413	0.142003
O30	O	1.782473	0.382747	0.475337
O31	O	1.024738	-0.134922	-0.311410
O32	O	1.358071	0.198412	0.021923
O33	O	1.691404	0.531745	0.355257
O34	O	0.904711	-0.219687	-0.311370
O35	O	1.238044	0.113647	0.021963
O36	O	1.571377	0.446980	0.355296
O37	O	1.024782	-0.368651	-0.402317
O38	O	1.358115	-0.035317	-0.068984
O39	O	1.691449	0.298016	0.264349
O40	O	0.904695	-0.283894	-0.402320
O41	O	1.238028	0.049439	-0.068987
O42	O	1.571362	0.382772	0.264347
O43	O	1.115786	-0.368662	-0.311366
O44	O	1.449119	-0.035328	0.021967
O45	O	1.782452	0.298005	0.355301
O46	O	1.115644	-0.219646	-0.522425
O47	O	1.448977	0.113688	-0.189092
O48	O	1.782311	0.447021	0.144241
O49	O	1.024701	-0.283871	-0.522395
O50	O	1.358035	0.049462	-0.189062
O51	O	1.691368	0.382796	0.144271
C52	C	0.877832	-0.251792	-0.356842
C53	C	1.211165	0.081542	-0.023508
C54	C	1.544499	0.414875	0.309825
C55	C	0.795518	-0.251807	-0.356847
C56	C	1.128851	0.081526	-0.023514
C57	C	1.462185	0.414859	0.309820
C58	C	0.496427	-0.251785	-0.356890
C59	C	0.829760	0.081548	-0.023557
C60	C	1.163094	0.414881	0.309776
C61	C	0.527767	-0.291984	-0.414390
C62	C	0.861100	0.041350	-0.081057
C63	C	1.194434	0.374683	0.252277
C64	C	0.613385	-0.292149	-0.414210
C65	C	0.946719	0.041184	-0.080877
C66	C	1.280052	0.374518	0.252457
C67	C	0.644809	-0.251796	-0.356870
C68	C	0.978143	0.081537	-0.023536
C69	C	1.311476	0.414870	0.309797
C70	C	0.613740	-0.266854	-0.278869
C71	C	0.947073	0.066480	0.054464
C72	C	1.280407	0.399813	0.387797
C73	C	0.528095	-0.267140	-0.279215
C74	C	0.861429	0.066194	0.054119
C75	C	1.194762	0.399527	0.387452
C76	C	0.527976	-0.196433	-0.376703
C77	C	0.861309	0.136900	-0.043370
C78	C	1.194643	0.470234	0.289963
C79	C	0.613626	-0.196729	-0.378415
C80	C	0.946960	0.136605	-0.045082
C81	C	1.280293	0.469938	0.288252
C82	C	0.728669	-0.251802	-0.356853
C83	C	1.062002	0.081532	-0.023520
C84	C	1.395336	0.414865	0.309814
C85	C	0.412567	-0.251781	-0.356902
C86	C	0.745901	0.081552	-0.023569
C87	C	1.079234	0.414885	0.309765
C88	C	1.070291	-0.388158	-0.356837
C89	C	1.403624	-0.054824	-0.023504
C90	C	1.736957	0.278509	0.309830
C91	C	1.070311	-0.446272	-0.356822
C92	C	1.403644	-0.112938	-0.023489
C93	C	1.736978	0.220395	0.309844
C94	C	1.022986	-0.806649	-0.309361
C95	C	1.356320	-0.473316	0.023972
C96	C	1.689653	-0.139983	0.357305
C97	C	1.022990	-0.861254	-0.309348
C98	C	1.356324	-0.527920	0.023985
C99	C	1.689657	-0.194587	0.357319
O100	O	0.982716	-0.889503	-0.269076
O101	O	1.316049	-0.556170	0.064257
O102	O	1.649382	-0.222836	0.397590
N103	N	1.070336	-0.888554	-0.356706
N104	N	1.403669	-0.555221	-0.023373
N105	N	1.737002	-0.221888	0.309960
C106	C	1.117675	-0.861248	-0.404087
C107	C	1.451008	-0.527914	-0.070753
C108	C	1.784342	-0.194581	0.262580
O109	O	1.157946	-0.889483	-0.444368
O110	O	1.491279	-0.556149	-0.111035
O111	O	1.824613	-0.222816	0.222299
C112	C	1.117667	-0.806644	-0.404103
C113	C	1.451000	-0.473311	-0.070770
C114	C	1.784333	-0.139978	0.262564
C115	C	1.070323	-0.779347	-0.356736
C116	C	1.403657	-0.446013	-0.023403
C117	C	1.736990	-0.112680	0.309930
C118	C	0.975646	-0.779352	-0.261999
C119	C	1.308980	-0.446018	0.071334
C120	C	1.642313	-0.112685	0.404668
C121	C	0.975643	-0.724751	-0.262012
C122	C	1.308977	-0.391418	0.071322
C123	C	1.642310	-0.058085	0.404655
C124	C	1.022981	-0.697448	-0.309387
C125	C	1.356314	-0.364115	0.023947
C126	C	1.689647	-0.030782	0.357280
C127	C	1.070321	-0.724746	-0.356749
C128	C	1.403654	-0.391413	-0.023416
C129	C	1.736987	-0.058079	0.309918
C130	C	1.165002	-0.779338	-0.451487
C131	C	1.498335	-0.446005	-0.118153
C132	C	1.831668	-0.112672	0.215180
C133	C	1.164989	-0.724731	-0.451499
C134	C	1.498322	-0.391398	-0.118166
C135	C	1.831656	-0.058065	0.215167
C136	C	1.117646	-0.697434	-0.404133
C137	C	1.450979	-0.364100	-0.070799
C138	C	1.784312	-0.030767	0.262534
C139	C	1.117655	-0.642843	-0.404137
C140	C	1.450988	-0.309509	-0.070803
C141	C	1.784322	0.023824	0.262530
N142	N	1.070309	-0.615542	-0.356778
N143	N	1.403643	-0.282209	-0.023445
N144	N	1.736976	0.051125	0.309889
C145	C	1.022972	-0.642845	-0.309403
C146	C	1.356306	-0.309512	0.023930
C147	C	1.689639	0.023822	0.357264
C148	C	1.117688	-0.975918	-0.404049
C149	C	1.451021	-0.642585	-0.070716
C150	C	1.784355	-0.309252	0.262618
C151	C	1.117700	-1.030521	-0.404029
C152	C	1.451034	-0.697187	-0.070696
C153	C	1.784367	-0.363854	0.262637
C154	C	1.023014	-1.030523	-0.309291
C155	C	1.356348	-0.697190	0.024042
C156	C	1.689681	-0.363856	0.357375
C157	C	1.023006	-0.975920	-0.309308
C158	C	1.356340	-0.642586	0.024025
C159	C	1.689673	-0.309253	0.357359
C160	C	1.070342	-0.948618	-0.356691
C161	C	1.403676	-0.615284	-0.023357
C162	C	1.737009	-0.281951	0.309976
C163	C	1.022970	-0.528180	-0.309433
C164	C	1.356304	-0.194847	0.023901
C165	C	1.689637	0.138487	0.357234
C166	C	1.022974	-0.473574	-0.309447
C167	C	1.356307	-0.140241	0.023886
C168	C	1.689641	0.193092	0.357219
C169	C	1.117657	-0.473577	-0.404188
C170	C	1.450990	-0.140243	-0.070854
C171	C	1.784323	0.193090	0.262479
C172	C	1.117656	-0.528177	-0.404171
C173	C	1.450990	-0.194844	-0.070837
C174	C	1.784323	0.138489	0.262496
C175	C	1.070307	-0.555478	-0.356791
C176	C	1.403640	-0.222144	-0.023457
C177	C	1.736974	0.111189	0.309876
O178	O	1.157907	-0.614559	-0.444390
O179	O	1.491240	-0.281225	-0.111056
O180	O	1.824574	0.052108	0.222277
O181	O	0.982701	-0.614603	-0.269135
O182	O	1.316035	-0.281270	0.064198
O183	O	1.649368	0.052063	0.397531
C184	C	1.263404	-0.251777	-0.356900
C185	C	1.596738	0.081556	-0.023567
C186	C	1.930071	0.414889	0.309766
C187	C	1.345718	-0.251774	-0.356913
C188	C	1.679052	0.081559	-0.023580
C189	C	2.012385	0.414892	0.309754
C190	C	1.070181	-0.251766	-0.549281
C191	C	1.403515	0.081568	-0.215948
C192	C	1.736848	0.414901	0.117385
C193	C	1.070223	-0.251775	-0.631595
C194	C	1.403556	0.081558	-0.298262
C195	C	1.736890	0.414892	0.035071
C196	C	1.070237	-0.115942	-0.356851
C197	C	1.403571	0.217391	-0.023517
C198	C	1.736904	0.550725	0.309816
C199	C	1.070360	-0.057828	-0.356657
C200	C	1.403693	0.275505	-0.023323
C201	C	1.737027	0.608838	0.310010
C202	C	1.070268	-0.251793	-0.782304
C203	C	1.403601	0.081541	-0.448970
C204	C	1.736935	0.414874	-0.115637
C205	C	1.127543	-0.211423	-0.813645
C206	C	1.460877	0.121910	-0.480312
C207	C	1.794210	0.455244	-0.146978
C208	C	1.127401	-0.211275	-0.899264
C209	C	1.460734	0.122059	-0.565930
C210	C	1.794067	0.455392	-0.232597
C211	C	1.070314	-0.251810	-0.930686
C212	C	1.403647	0.081523	-0.597353
C213	C	1.736980	0.414857	-0.264020
C214	C	0.992211	-0.236988	-0.899662
C215	C	1.325545	0.096345	-0.566328
C216	C	1.658878	0.429679	-0.232995
C217	C	0.992516	-0.236685	-0.814017
C218	C	1.325850	0.096649	-0.480684
C219	C	1.659183	0.429982	-0.147350
C220	C	1.090423	-0.307090	-0.813807
C221	C	1.423756	0.026244	-0.480474
C222	C	1.757089	0.359577	-0.147140
C223	C	1.092171	-0.306805	-0.899457
C224	C	1.425504	0.026528	-0.566123
C225	C	1.758837	0.359862	-0.232790
C226	C	1.070335	-0.251821	-1.014546
C227	C	1.403668	0.081512	-0.681212
C228	C	1.737001	0.414846	-0.347879
C229	C	1.070242	-0.251781	-0.698444
C230	C	1.403575	0.081553	-0.365111
C231	C	1.736909	0.414886	-0.031778
C232	C	1.070324	-0.251815	-0.163709
C233	C	1.403657	0.081518	0.169625
C234	C	1.736991	0.414852	0.502958
C235	C	1.070359	-0.251828	-0.081395
C236	C	1.403692	0.081505	0.251939
C237	C	1.737025	0.414839	0.585272
H238	H	0.506373	-0.182749	-0.432608
H239	H	0.839706	0.150584	-0.099275
H240	H	1.173040	0.483918	0.234059
Cl241	Cl	0.645167	-0.223064	-0.210928
Cl242	Cl	0.978501	0.110270	0.122405
Cl243	Cl	1.311834	0.443603	0.455738
H244	H	0.507708	-0.166481	-0.334821
H245	H	0.841042	0.166852	-0.001488
H246	H	1.174375	0.500185	0.331846
H247	H	0.937089	-0.702530	-0.223443
H248	H	1.270422	-0.369197	0.109890
H249	H	1.603755	-0.035864	0.443223
H250	H	0.974875	-0.197020	-0.921160
H251	H	1.308208	0.136313	-0.587826
H252	H	1.641541	0.469647	-0.254493
H253	H	1.156215	-0.550404	-0.442732
H254	H	1.489549	-0.217071	-0.109399
H255	H	1.822882	0.116262	0.223934
Cl256	Cl	0.646873	-0.328650	-0.252451
Cl257	Cl	0.980206	0.004683	0.080882
Cl258	Cl	1.313539	0.338016	0.414215
H259	H	0.984415	-0.550401	-0.270851
H260	H	1.317748	-0.217068	0.062482
H261	H	1.651081	0.116265	0.395816
H262	H	1.156200	-0.451337	-0.442757
H263	H	1.489533	-0.118004	-0.109424
H264	H	1.822866	0.215330	0.223910
Cl265	Cl	1.177230	-1.064831	-0.463569
Cl266	Cl	1.510563	-0.731497	-0.130236
Cl267	Cl	1.843896	-0.398164	0.203097
Cl268	Cl	1.180906	-0.324071	-0.930765
Cl269	Cl	1.514239	0.009262	-0.597432
Cl270	Cl	1.847573	0.342595	-0.264099
H271	H	1.185309	-0.220532	-0.920238
H272	H	1.518642	0.112801	-0.586904
H273	H	1.851975	0.446135	-0.253571
Cl274	Cl	1.217212	-0.225545	-0.781784
Cl275	Cl	1.550545	0.107789	-0.448451
Cl276	Cl	1.883878	0.441122	-0.115118
H277	H	1.146391	-0.320601	-0.792158
H278	H	1.479724	0.012732	-0.458825
H279	H	1.813058	0.346066	-0.125491
H280	H	1.114058	-0.170307	-0.919798
H281	H	1.447391	0.163026	-0.586465
H282	H	1.780724	0.496360	-0.253132
Cl283	Cl	1.032510	-0.355724	-0.932475
Cl284	Cl	1.365843	-0.022390	-0.599142
Cl285	Cl	1.699176	0.310943	-0.265809
H286	H	0.506256	-0.332759	-0.401448
H287	H	0.839589	0.000574	-0.068115
H288	H	1.172922	0.333907	0.265219
Cl289	Cl	0.924545	-0.280995	-0.931087
Cl290	Cl	1.257878	0.052338	-0.597753
Cl291	Cl	1.591212	0.385672	-0.264420
Cl292	Cl	1.026033	-0.353529	-0.782497
Cl293	Cl	1.359366	-0.020195	-0.449163
Cl294	Cl	1.692699	0.313138	-0.115830
H295	H	0.633941	-0.185372	-0.435812
H296	H	0.967275	0.147961	-0.102478
H297	H	1.300608	0.481294	0.230855
H298	H	0.633887	-0.333162	-0.401101
H299	H	0.967220	0.000172	-0.067768
H300	H	1.300553	0.333505	0.265566
Cl301	Cl	0.646645	-0.148002	-0.318446
Cl302	Cl	0.979979	0.185332	0.014888
Cl303	Cl	1.313312	0.518665	0.348221
Cl304	Cl	1.107176	-0.148523	-0.780490
Cl305	Cl	1.440509	0.184811	-0.447157
Cl306	Cl	1.773842	0.518144	-0.113823
H307	H	0.984456	-0.953698	-0.270737
H308	H	1.317789	-0.620364	0.062596
H309	H	1.651122	-0.287031	0.395929
Cl310	Cl	0.963453	-0.439261	-0.249895
Cl311	Cl	1.296787	-0.105928	0.083439
Cl312	Cl	1.630120	0.227406	0.416772
H313	H	0.937095	-0.801576	-0.223420
H314	H	1.270428	-0.468243	0.109913
H315	H	1.603761	-0.134909	0.443247
Cl316	Cl	0.963503	-1.064857	-0.249735
Cl317	Cl	1.296836	-0.731524	0.083598
Cl318	Cl	1.630169	-0.398190	0.416932
H319	H	1.203541	-0.702505	-0.490080
H320	H	1.536875	-0.369172	-0.156747
H321	H	1.870208	-0.035838	0.176586
Cl322	Cl	1.177209	-0.941601	-0.463615
Cl323	Cl	1.510542	-0.608268	-0.130282
Cl324	Cl	1.843876	-0.274935	0.203051
Cl325	Cl	1.224517	-0.813642	-0.511044
Cl326	Cl	1.557850	-0.480309	-0.177710
Cl327	Cl	1.891184	-0.146975	0.155623
H328	H	0.975463	-0.196268	-0.794089
H329	H	1.308796	0.137065	-0.460755
H330	H	1.642129	0.470399	-0.127422
H331	H	0.634392	-0.282712	-0.472052
H332	H	0.967725	0.050622	-0.138718
H333	H	1.301058	0.383955	0.194615
H334	H	0.507163	-0.282652	-0.472421
H335	H	0.840496	0.050681	-0.139087
H336	H	1.173829	0.384015	0.194246
H337	H	0.508132	-0.307605	-0.262409
H338	H	0.841466	0.025729	0.070925
H339	H	1.174799	0.359062	0.404258
Cl340	Cl	0.496083	-0.223910	-0.210830
Cl341	Cl	0.829416	0.109424	0.122503
Cl342	Cl	1.162750	0.442757	0.455837
Cl343	Cl	0.924368	-0.280115	-0.782006
Cl344	Cl	1.257702	0.053218	-0.448673
Cl345	Cl	1.591035	0.386551	-0.115340
