data_functionalizedCrystal
_audit_creation_method	'MofGen! by Chris Wilmer'
_symmetry_space_group_name_H-M	'P1'
_symmetry_Int_Tables_number	1
_symmetry_cell_setting	triclinic
loop_
_symmetry_equiv_pos_as_xyz
  x,y,z
_cell_length_a	23.532355
_cell_length_b	23.532407
_cell_length_c	22.010155
_cell_angle_alpha	90.002880
_cell_angle_beta	90.008557
_cell_angle_gamma	82.838088
loop_
_atom_site_label
_atom_site_type_symbol
_atom_site_fract_x
_atom_site_fract_y
_atom_site_fract_z
O1	O	0.755288	0.068988	0.050449
O2	O	0.589420	0.079022	0.050469
O3	O	0.677356	-0.008928	0.050447
O4	O	0.667352	0.156937	0.050470
O5	O	0.677330	-0.008918	-0.050603
O6	O	0.589395	0.079032	-0.050582
O7	O	0.755262	0.068998	-0.050602
Cu8	Cu	0.672326	0.074016	-0.059818
Cu9	Cu	0.672356	0.074004	0.059685
O10	O	0.667327	0.156948	-0.050580
C11	C	0.568191	0.078776	-0.000054
C12	C	0.504972	0.078022	-0.000047
C13	C	0.677088	-0.030139	-0.000080
C14	C	0.676322	-0.093356	-0.000084
C15	C	0.112944	0.073290	-0.055155
C16	C	0.053545	0.072572	-0.055158
O17	O	0.022815	0.072186	-0.102003
N18	N	0.023850	0.072211	-0.000076
C19	C	0.053559	0.072561	0.055013
O20	O	0.022847	0.072187	0.101864
C21	C	0.112958	0.073274	0.055015
C22	C	0.142649	0.073641	-0.000071
C23	C	0.142635	0.073656	-0.110237
C24	C	0.202030	0.074374	-0.110234
C25	C	0.231735	0.074726	-0.055150
C26	C	0.202044	0.074360	-0.000069
C27	C	0.142666	0.073621	0.110102
C28	C	0.202069	0.074333	0.110099
C29	C	0.231760	0.074701	0.055014
C30	C	0.291143	0.075430	0.055018
N31	N	0.320838	0.075792	-0.000064
C32	C	0.291134	0.075440	-0.055148
C33	C	-0.071182	0.071062	0.055005
C34	C	-0.130581	0.070353	0.055004
C35	C	-0.130591	0.070363	-0.055167
C36	C	-0.071192	0.071076	-0.055165
C37	C	-0.041488	0.071423	-0.000077
C38	C	0.415868	0.076949	-0.055138
C39	C	0.475268	0.077670	-0.055131
C40	C	0.475273	0.077657	0.055040
C41	C	0.415878	0.076939	0.055032
C42	C	0.386177	0.076583	-0.000061
O43	O	0.321912	0.075814	0.101839
O44	O	0.321854	0.075806	-0.101992
C45	C	0.723557	-0.492468	-0.000057
C46	C	0.722845	-0.551868	-0.000052
O47	O	0.766632	-0.588620	-0.000035
N48	N	0.670568	-0.574484	-0.000046
C49	C	0.618998	-0.537697	-0.000039
O50	O	0.574467	-0.562388	-0.000033
C51	C	0.619710	-0.478298	-0.000039
C52	C	0.671991	-0.455685	-0.000051
C53	C	0.775834	-0.469854	-0.000068
C54	C	0.776545	-0.410458	-0.000074
C55	C	0.724979	-0.373676	-0.000068
C56	C	0.672703	-0.396289	-0.000057
C57	C	0.568141	-0.441512	-0.000027
C58	C	0.568858	-0.382110	-0.000027
C59	C	0.621139	-0.359497	-0.000039
C60	C	0.621848	-0.300110	-0.000057
N61	N	0.674126	-0.277494	-0.000063
C62	C	0.725691	-0.314277	-0.000069
C63	C	0.617507	-0.662439	-0.000037
C64	C	0.616794	-0.721837	-0.000041
C65	C	0.720642	-0.736004	-0.000053
C66	C	0.721354	-0.676605	-0.000053
C67	C	0.669784	-0.639823	-0.000043
C68	C	0.727181	-0.189540	-0.000082
C69	C	0.727888	-0.130138	-0.000090
C70	C	0.624041	-0.115977	-0.000074
C71	C	0.623334	-0.175373	-0.000069
C72	C	0.674909	-0.212154	-0.000071
O73	O	0.578084	-0.263323	-0.000072
O74	O	0.770216	-0.289577	-0.000067
C75	C	0.776491	0.069244	-0.000078
C76	C	0.839710	0.069998	-0.000081
C77	C	0.667594	0.178158	-0.000052
C78	C	0.668360	0.241375	-0.000043
N79	N	0.672309	0.074024	-0.143871
C80	C	0.637999	0.039639	-0.436476
C81	C	0.637994	0.039642	-0.372869
O82	O	0.608800	0.010407	-0.339972
N83	N	0.672332	0.074006	-0.341055
C84	C	0.706681	0.108366	-0.372852
O85	O	0.735888	0.137596	-0.339951
C86	C	0.706689	0.108360	-0.436458
C87	C	0.672344	0.073998	-0.468269
C88	C	0.603658	0.005279	-0.468287
C89	C	0.603662	0.005277	-0.531890
C90	C	0.638008	0.039636	-0.563683
C91	C	0.672349	0.073996	-0.531872
C92	C	0.741041	0.142717	-0.468254
C93	C	0.741046	0.142708	-0.531865
C94	C	0.706701	0.108345	-0.563676
C95	C	0.706698	0.108353	-0.627268
N96	N	0.672361	0.073988	-0.659082
C97	C	0.638015	0.039630	-0.627289
C98	C	0.706663	0.108376	-0.239274
C99	C	0.706653	0.108385	-0.175669
C100	C	0.637966	0.039660	-0.175690
C101	C	0.637974	0.039653	-0.239297
C102	C	0.672325	0.074011	-0.271088
C103	C	0.638027	0.039629	-0.760861
C104	C	0.638032	0.039632	-0.824470
C105	C	0.706721	0.108356	-0.824443
C106	C	0.706713	0.108355	-0.760839
C107	C	0.672364	0.073987	-0.729050
O108	O	0.735879	0.137571	-0.660205
O109	O	0.608819	0.010399	-0.660198
N110	N	0.672378	0.073991	0.143738
H111	H	0.391692	0.076665	-0.100001
C112	C	0.510628	-0.466371	-0.000010
C113	C	0.467873	-0.452349	-0.052471
C114	C	0.410354	-0.477205	-0.052453
C115	C	0.395592	-0.516082	0.000026
C116	C	0.438348	-0.530106	0.052491
C117	C	0.495867	-0.505251	0.052473
H118	H	0.478800	-0.423568	-0.091323
H119	H	0.378703	-0.466823	-0.091292
H120	H	0.353013	-0.534482	0.000040
H121	H	0.427421	-0.558888	0.091343
H122	H	0.527518	-0.515633	0.091311
C123	C	0.234680	0.074752	-0.170836
C124	C	0.219752	0.124101	-0.216293
C125	C	0.252394	0.124467	-0.276901
C126	C	0.299964	0.075484	-0.292051
C127	C	0.314895	0.026131	-0.246593
C128	C	0.282253	0.025765	-0.185985
H129	H	0.184535	0.160365	-0.205079
H130	H	0.241341	0.161002	-0.310552
H131	H	0.324128	0.075755	-0.336917
H132	H	0.350112	-0.010133	-0.257807
H133	H	0.293306	-0.010770	-0.152334
H134	H	0.582057	-0.086018	-0.000072
H135	H	0.762629	-0.765963	-0.000055
C136	C	0.600253	0.001829	-0.859460
C137	C	0.562478	-0.035967	-0.824484
C138	C	0.524701	-0.073769	-0.859472
C139	C	0.524699	-0.073776	-0.929437
C140	C	0.562476	-0.035978	-0.964417
C141	C	0.600253	0.001824	-0.929429
H142	H	0.562477	-0.035963	-0.772688
H143	H	0.496736	-0.101749	-0.833577
H144	H	0.496735	-0.101759	-0.955337
H145	H	0.562477	-0.035982	-1.016213
H146	H	0.628218	0.029804	-0.955324
H147	H	-0.047022	0.071376	-0.100021
C148	C	0.559284	-0.746706	-0.000035
C149	C	0.516534	-0.732692	-0.052503
C150	C	0.459021	-0.757557	-0.052493
C151	C	0.444258	-0.796438	-0.000016
C152	C	0.487009	-0.810454	0.052456
C153	C	0.544522	-0.785588	0.052446
H154	H	0.527461	-0.703909	-0.091353
H155	H	0.427374	-0.747181	-0.091336
H156	H	0.401683	-0.814845	-0.000009
H157	H	0.476082	-0.839237	0.091306
H158	H	0.576169	-0.795964	0.091289
C159	C	0.744488	0.146158	-0.725846
C160	C	0.716836	0.192696	-0.682121
C161	C	0.754617	0.230495	-0.647134
C162	C	0.820050	0.221756	-0.655872
C163	C	0.847706	0.175216	-0.699599
C164	C	0.809925	0.137417	-0.734586
H165	H	0.668395	0.199167	-0.675651
H166	H	0.734144	0.264947	-0.614765
H167	H	0.848018	0.249737	-0.629973
H168	H	0.896147	0.168745	-0.706070
H169	H	0.830398	0.102965	-0.766956
C170	C	-0.163237	0.069956	0.115599
C171	C	-0.148306	0.020590	0.161036
C172	C	-0.180959	0.020190	0.221634
C173	C	-0.228543	0.069156	0.236796
C174	C	-0.243477	0.118527	0.191358
C175	C	-0.210824	0.118927	0.130760
H176	H	-0.113079	-0.015662	0.149813
H177	H	-0.169904	-0.016358	0.255269
H178	H	-0.252715	0.068860	0.281654
H179	H	-0.278704	0.154778	0.202581
H180	H	-0.221879	0.155474	0.097125
H181	H	0.499439	0.077971	-0.099990
C182	C	0.512130	-0.341649	-0.000017
C183	C	0.469212	-0.343971	0.052463
C184	C	0.412484	-0.303512	0.052472
C185	C	0.398675	-0.260732	-0.000001
C186	C	0.441594	-0.258409	-0.052486
C187	C	0.498321	-0.298867	-0.052494
H188	H	0.479434	-0.375641	0.091310
H189	H	0.380713	-0.305232	0.091325
H190	H	0.356682	-0.230782	0.000005
H191	H	0.431372	-0.226739	-0.091332
H192	H	0.530092	-0.297147	-0.091347
H193	H	0.575510	-0.632494	-0.000033
H194	H	0.734683	0.136331	-0.850340
C195	C	0.109968	0.073271	-0.170836
C196	C	0.111390	0.122838	-0.216266
C197	C	0.078727	0.122458	-0.276870
C198	C	0.044642	0.072511	-0.292045
C199	C	0.043219	0.022940	-0.246614
C200	C	0.075882	0.023320	-0.186010
H201	H	0.136622	0.159816	-0.205034
H202	H	0.079781	0.159155	-0.310501
H203	H	0.020463	0.072230	-0.336908
H204	H	0.017986	-0.014038	-0.257847
H205	H	0.074828	-0.013376	-0.152379
H206	H	-0.154787	0.070075	-0.100020
H207	H	0.610000	0.011683	-0.149793
H208	H	-0.047002	0.071350	0.099867
C209	C	0.110019	0.073214	0.170700
C210	C	0.124956	0.023842	0.216129
C211	C	0.092312	0.023436	0.276732
C212	C	0.044730	0.072401	0.291906
C213	C	0.029791	0.121776	0.246477
C214	C	0.062435	0.122183	0.185874
H215	H	0.160181	-0.012408	0.204897
H216	H	0.103371	-0.013116	0.310362
H217	H	0.020565	0.072100	0.336768
H218	H	-0.005434	0.158027	0.257709
H219	H	0.051376	0.158735	0.152244
H220	H	0.226251	0.074617	0.154960
H221	H	0.769009	0.170698	-0.442365
H222	H	0.763925	-0.658198	-0.000063
H223	H	0.391701	0.076649	0.099888
H224	H	0.580762	-0.193785	-0.000076
C225	C	0.744426	0.146191	-0.140682
C226	C	0.782203	0.183983	-0.175661
C227	C	0.819980	0.221787	-0.140677
C228	C	0.819981	0.221799	-0.070712
C229	C	0.782204	0.184005	-0.035728
C230	C	0.744426	0.146201	-0.070713
H231	H	0.782203	0.183976	-0.227457
H232	H	0.847946	0.249765	-0.166574
H233	H	0.847947	0.249784	-0.044814
H234	H	0.782203	0.184012	0.016067
H235	H	0.716460	0.118223	-0.044815
H236	H	0.610057	0.011644	-0.734985
C237	C	0.565889	-0.032534	-0.566871
C238	C	0.574669	-0.097964	-0.558104
C239	C	0.536896	-0.135782	-0.593077
C240	C	0.490343	-0.108169	-0.636816
C241	C	0.481561	-0.042735	-0.645585
C242	C	0.519334	-0.004918	-0.610612
H243	H	0.609131	-0.118408	-0.525724
H244	H	0.543397	-0.184220	-0.586586
H245	H	0.462382	-0.136164	-0.662705
H246	H	0.447099	-0.022291	-0.677965
H247	H	0.512833	0.043521	-0.617103
C248	C	0.783913	-0.229993	-0.000088
C249	C	0.826827	-0.227667	-0.052572
C250	C	0.883558	-0.268120	-0.052583
C251	C	0.897375	-0.310900	-0.000111
C252	C	0.854460	-0.313228	0.052376
C253	C	0.797729	-0.272774	0.052388
H254	H	0.816600	-0.195998	-0.091418
H255	H	0.915326	-0.266397	-0.091438
H256	H	0.939371	-0.340846	-0.000120
H257	H	0.864687	-0.344897	0.091223
H258	H	0.765960	-0.274498	0.091243
H259	H	0.499469	0.077946	0.099888
C260	C	0.565870	-0.032517	-0.433323
C261	C	0.574632	-0.097950	-0.442072
C262	C	0.536836	-0.135744	-0.407114
C263	C	0.490279	-0.108105	-0.363407
C264	C	0.481516	-0.042669	-0.354656
C265	C	0.519311	-0.004875	-0.389614
H266	H	0.609098	-0.118413	-0.474429
H267	H	0.543324	-0.184185	-0.413593
H268	H	0.462301	-0.136082	-0.337529
H269	H	0.447050	-0.022205	-0.322299
H270	H	0.512823	0.043566	-0.383135
C271	C	0.785400	-0.105266	-0.000100
C272	C	0.828127	-0.119287	-0.052575
C273	C	0.885637	-0.094417	-0.052583
C274	C	0.900422	-0.055526	-0.000116
C275	C	0.857694	-0.041503	0.052363
C276	C	0.800184	-0.066373	0.052371
H277	H	0.817183	-0.148078	-0.091418
H278	H	0.917267	-0.104798	-0.091432
H279	H	0.942994	-0.037115	-0.000122
H280	H	0.868638	-0.012711	0.091206
H281	H	0.768554	-0.055992	0.091220
C282	C	0.832562	-0.510308	-0.000078
C283	C	0.875476	-0.507975	-0.052561
C284	C	0.932209	-0.548424	-0.052576
C285	C	0.946029	-0.591208	-0.000108
C286	C	0.903115	-0.593543	0.052379
C287	C	0.846382	-0.553093	0.052394
H288	H	0.865246	-0.476303	-0.091404
H289	H	0.963977	-0.546696	-0.091430
H290	H	0.988026	-0.621151	-0.000119
H291	H	0.913344	-0.625215	0.091223
H292	H	0.814614	-0.554822	0.091249
H293	H	0.819117	-0.392053	-0.000081
C294	C	0.744446	0.146180	-0.274241
C295	C	0.809878	0.137447	-0.265469
C296	C	0.847661	0.175250	-0.300432
C297	C	0.820012	0.221786	-0.344166
C298	C	0.754577	0.230520	-0.352940
C299	C	0.716794	0.192717	-0.317977
H300	H	0.830348	0.102997	-0.233093
H301	H	0.896100	0.168784	-0.293937
H302	H	0.847982	0.249770	-0.370047
H303	H	0.734107	0.264970	-0.385316
H304	H	0.668354	0.199183	-0.324472
H305	H	0.610007	0.011672	-0.265193
H306	H	0.769020	0.170686	-0.557746
