data_functionalizedCrystal
_audit_creation_method	'MofGen! by Chris Wilmer'
_symmetry_space_group_name_H-M	'P1'
_symmetry_Int_Tables_number	1
_symmetry_cell_setting	triclinic
loop_
_symmetry_equiv_pos_as_xyz
  x,y,z
_cell_length_a	9.065218
_cell_length_b	14.853567
_cell_length_c	8.140239
_cell_angle_alpha	90.000276
_cell_angle_beta	89.997198
_cell_angle_gamma	84.325408
loop_
_atom_site_label
_atom_site_type_symbol
_atom_site_fract_x
_atom_site_fract_y
_atom_site_fract_z
O1	O	1.957778	0.132191	-0.136602
O2	O	1.528278	0.143034	-0.136603
O3	O	1.754501	0.006468	-0.136607
O4	O	1.731555	0.268757	-0.136598
O5	O	1.754488	0.006466	0.136620
O6	O	1.528266	0.143032	0.136624
O7	O	1.957765	0.132189	0.136625
Zn8	Zn	1.743014	0.137611	0.180005
Zn9	Zn	1.743030	0.137613	-0.179983
O10	O	1.731543	0.268756	0.136630
C11	C	1.473306	0.141991	0.000010
C12	C	1.309525	0.138875	0.000009
C13	C	1.753455	-0.027130	0.000001
C14	C	1.750339	-0.127236	-0.000013
C15	C	1.602788	-0.540862	0.000018
C16	C	1.871546	-0.560154	0.000019
C17	C	1.874475	-0.466099	0.000009
C18	C	1.741559	-0.409421	0.000006
C19	C	1.605714	-0.446798	0.000013
C20	C	2.010318	-0.428714	0.000018
C21	C	2.013253	-0.334654	0.000011
C22	C	1.880335	-0.277974	-0.000004
C23	C	1.744484	-0.315356	0.000002
C24	C	1.611568	-0.258678	-0.000001
C25	C	1.475716	-0.296059	-0.000008
C26	C	1.472796	-0.390118	-0.000001
C27	C	1.883255	-0.183915	-0.000010
C28	C	1.614494	-0.164614	-0.000006
C29	C	2.012738	0.133232	0.000008
C30	C	2.176519	0.136348	-0.000001
C31	C	1.732589	0.302353	0.000017
C32	C	1.735704	0.402460	0.000021
N33	N	1.743013	0.137609	0.425688
N34	N	1.743042	0.137608	-0.425666
H35	H	1.367496	-0.249899	0.000002
C36	C	1.348984	-0.525736	0.000040
C37	C	1.323477	-0.431209	0.000016
H38	H	1.256800	-0.551104	0.000066
H39	H	1.403706	-0.545113	-0.095236
H40	H	1.403724	-0.545097	0.095325
H41	H	1.268746	-0.411847	-0.095276
H42	H	1.268732	-0.411824	0.095302
H43	H	1.979760	-0.606307	0.000034
C44	C	2.172464	-0.240081	-0.140465
C45	C	2.162576	-0.293567	-0.000001
H46	H	2.264647	-0.214713	-0.140468
H47	H	2.165742	-0.276381	-0.235719
H48	H	2.093719	-0.192867	-0.140450
H49	H	2.241315	-0.340786	-0.000021
H50	H	2.169313	-0.257266	0.095278
C51	C	2.125151	-0.581466	0.000022
C52	C	2.156412	-0.491015	0.000030
H53	H	2.215349	-0.619929	0.000020
H54	H	2.069456	-0.592909	0.095291
H55	H	2.069467	-0.592906	-0.095271
H56	H	2.212087	-0.479573	0.095329
H57	H	2.212131	-0.479567	-0.095249
H58	H	1.492180	-0.571302	0.000006
C59	C	2.042461	-0.089331	-0.140461
C60	C	2.032564	-0.142819	-0.000002
H61	H	2.134640	-0.063957	-0.140449
H62	H	2.035754	-0.125630	-0.235719
H63	H	1.963710	-0.042120	-0.140455
H64	H	2.111309	-0.190035	-0.000015
H65	H	2.039285	-0.106518	0.095280
H66	H	1.506255	-0.118471	-0.000015
