data_functionalizedCrystal
_audit_creation_method	'MofGen! by Chris Wilmer'
_symmetry_space_group_name_H-M	'P1'
_symmetry_Int_Tables_number	1
_symmetry_cell_setting	triclinic
loop_
_symmetry_equiv_pos_as_xyz
  x,y,z
_cell_length_a	16.109301
_cell_length_b	16.176319
_cell_length_c	17.699103
_cell_angle_alpha	89.991593
_cell_angle_beta	96.623729
_cell_angle_gamma	90.003263
loop_
_atom_site_label
_atom_site_type_symbol
_atom_site_fract_x
_atom_site_fract_y
_atom_site_fract_z
O1	O	1.102974	0.068703	-0.097283
O2	O	0.860892	0.068718	-0.109390
O3	O	0.988764	0.068694	0.006842
O4	O	0.975102	0.068727	-0.213515
O5	O	0.988749	-0.068799	0.006842
O6	O	0.860877	-0.068775	-0.109389
O7	O	1.102959	-0.068790	-0.097283
Cu8	Cu	0.981917	-0.081337	-0.103336
Cu9	Cu	0.981934	0.081265	-0.103336
O10	O	0.975087	-0.068766	-0.213514
C11	C	0.829910	-0.000027	-0.108899
C12	C	0.737618	-0.000022	-0.107429
N13	N	0.981910	-0.195702	-0.103335
C14	C	0.515237	-0.000022	-0.172980
C15	C	0.428519	-0.000028	-0.171592
C16	C	0.448620	-0.000045	-0.033687
C17	C	0.535337	-0.000045	-0.035076
C18	C	0.568643	-0.000030	-0.104724
C19	C	0.395208	-0.000035	-0.101948
C20	C	0.301185	-0.000041	-0.100444
C21	C	0.662672	-0.000025	-0.106229
C22	C	1.032241	-0.238959	-0.149255
C23	C	1.032250	-0.325506	-0.149252
C24	C	0.981923	-0.368795	-0.103333
C25	C	0.931590	-0.325532	-0.057408
C26	C	0.931586	-0.238986	-0.057407
C27	C	0.931606	-0.674560	-0.057409
C28	C	0.931612	-0.761112	-0.057415
C29	C	1.032269	-0.761079	-0.149254
C30	C	1.032265	-0.674534	-0.149253
C31	C	0.981936	-0.631279	-0.103325
C32	C	0.981928	-0.537435	-0.103328
C33	C	0.981926	-0.462637	-0.103334
C34	C	1.133940	-0.000043	-0.097773
C35	C	1.226233	-0.000042	-0.099244
C36	C	0.988264	-0.000054	0.035040
C37	C	0.986787	-0.000061	0.119059
N38	N	0.981947	0.195630	-0.103331
C39	C	0.975587	-0.000016	-0.241712
C40	C	0.977064	-0.000003	-0.325731
C41	C	0.977761	0.074941	0.634783
C42	C	0.979148	0.074933	0.555838
C43	C	0.979831	-0.000019	0.516379
C44	C	0.979136	-0.074969	0.555870
C45	C	0.977756	-0.074961	0.634814
C46	C	0.984706	-0.075004	0.237496
C47	C	0.986084	-0.075006	0.158545
C48	C	0.986098	0.074890	0.158519
C49	C	0.984717	0.074899	0.237464
C50	C	0.984027	-0.000051	0.276948
C51	C	0.982525	-0.000042	0.362550
C52	C	0.981327	-0.000029	0.430778
H53	H	0.542352	-0.000016	-0.229692
H54	H	0.986662	0.135918	0.126361
H55	H	0.421492	-0.000062	0.023018
H56	H	1.073218	-0.203719	-0.186653
H57	H	0.977197	0.135976	0.666904
H58	H	0.979698	-0.135997	0.523737
C59	C	0.983966	0.157347	0.280868
C60	C	0.984739	0.239787	0.237436
C61	C	0.983992	0.322238	0.280840
C62	C	0.982473	0.322248	0.367676
C63	C	0.981701	0.239805	0.411113
C64	C	0.982447	0.157355	0.367709
H65	H	0.985864	0.239782	0.173151
H66	H	0.984564	0.383268	0.248685
H67	H	0.981920	0.383283	0.399806
H68	H	0.980576	0.239811	0.475398
H69	H	0.981875	0.096325	0.399864
H70	H	0.578822	-0.000054	0.020510
H71	H	0.890618	-0.360785	-0.020016
C72	C	0.876232	-0.626991	-0.006898
C73	C	0.888649	-0.638914	0.079995
C74	C	0.833269	-0.591343	0.130506
C75	C	0.765471	-0.531849	0.094124
C76	C	0.753050	-0.519924	0.007226
C77	C	0.808431	-0.567495	-0.043285
H78	H	0.938840	-0.682957	0.106931
H79	H	0.842463	-0.600171	0.194834
H80	H	0.724475	-0.496634	0.131515
H81	H	0.702860	-0.475881	-0.019711
H82	H	0.799237	-0.558666	-0.107613
H83	H	0.890602	-0.203768	-0.020014
C84	C	1.087640	-0.808663	-0.199770
C85	C	1.183111	-0.796751	-0.188649
C86	C	1.238477	-0.844332	-0.239166
C87	C	1.198371	-0.903827	-0.300804
C88	C	1.102895	-0.915742	-0.311928
C89	C	1.047529	-0.868160	-0.261411
H90	H	1.212804	-0.752707	-0.143019
H91	H	1.309155	-0.835512	-0.230931
H92	H	1.239357	-0.939050	-0.338199
H93	H	1.073202	-0.959785	-0.357558
H94	H	0.976851	-0.876981	-0.269646
H95	H	1.073243	-0.639292	-0.186649
C96	C	1.087610	-0.373088	-0.199769
C97	C	1.142961	-0.325473	-0.250286
C98	C	1.198325	-0.373055	-0.300805
C99	C	1.198337	-0.468252	-0.300807
C100	C	1.142984	-0.515872	-0.250288
C101	C	1.087621	-0.468290	-0.199769
H102	H	1.142954	-0.254998	-0.250286
H103	H	1.239301	-0.337803	-0.338202
H104	H	1.239321	-0.503475	-0.338204
H105	H	1.142992	-0.586347	-0.250288
H106	H	1.046645	-0.503542	-0.162372
C107	C	0.876254	-0.808732	-0.006895
C108	C	0.820897	-0.761156	0.043627
C109	C	0.765542	-0.808776	0.094143
C110	C	0.765545	-0.903973	0.094136
C111	C	0.820905	-0.951554	0.043612
C112	C	0.876259	-0.903934	-0.006904
H113	H	0.820893	-0.690681	0.043634
H114	H	0.724561	-0.773553	0.131544
H115	H	0.724568	-0.939224	0.131531
H116	H	0.820909	-1.022029	0.043605
H117	H	0.917240	-0.939157	-0.044305
H118	H	0.979717	0.135961	0.523693
H119	H	0.986636	-0.136046	0.126419
H120	H	0.984145	-0.136033	0.269635
C121	C	0.976979	-0.157399	0.678254
C122	C	0.904991	-0.219223	0.658809
C123	C	0.904215	-0.301663	0.702249
C124	C	0.975427	-0.322278	0.765134
C125	C	1.047421	-0.260451	0.784582
C126	C	1.048197	-0.178012	0.741142
H127	H	0.852270	-0.203965	0.612255
H128	H	0.850920	-0.347431	0.687852
H129	H	0.974853	-0.383304	0.797291
H130	H	1.100141	-0.275710	0.831136
H131	H	1.101491	-0.132244	0.755539
H132	H	0.385039	-0.000024	-0.227173
