data_functionalizedCrystal
_audit_creation_method	'MofGen! by Chris Wilmer'
_symmetry_space_group_name_H-M	'P1'
_symmetry_Int_Tables_number	1
_symmetry_cell_setting	triclinic
loop_
_symmetry_equiv_pos_as_xyz
  x,y,z
_cell_length_a	15.995350
_cell_length_b	17.038272
_cell_length_c	14.472310
_cell_angle_alpha	89.999298
_cell_angle_beta	89.990621
_cell_angle_gamma	87.301966
loop_
_atom_site_label
_atom_site_type_symbol
_atom_site_fract_x
_atom_site_fract_y
_atom_site_fract_z
O1	O	1.118175	0.100774	-0.076763
O2	O	1.618175	0.600774	0.423237
O3	O	0.875286	0.113219	-0.076782
O4	O	1.375286	0.613219	0.423218
O5	O	0.995287	-0.006819	-0.076766
O6	O	1.495287	0.493181	0.423234
O7	O	0.998174	0.220812	-0.076780
O8	O	1.498174	0.720812	0.423220
O9	O	0.995254	-0.006812	0.076916
O10	O	1.495254	0.493188	0.576916
O11	O	0.875253	0.113226	0.076900
O12	O	1.375253	0.613226	0.576900
O13	O	1.118142	0.100781	0.076919
O14	O	1.618142	0.600781	0.576919
Cu15	Cu	0.996695	0.107004	0.090942
Cu16	Cu	1.496695	0.607004	0.590942
Cu17	Cu	0.996733	0.106996	-0.090805
Cu18	Cu	1.496733	0.606996	0.409195
O19	O	0.998141	0.220819	0.076902
O20	O	1.498141	0.720819	0.576902
C21	C	0.844038	0.112708	0.000056
C22	C	1.344038	0.612708	0.500056
C23	C	0.750978	0.111165	0.000049
C24	C	1.250978	0.611165	0.500049
C25	C	0.412836	0.105626	0.000069
C26	C	0.912836	0.605626	0.500069
C27	C	0.454180	0.020137	0.000417
C28	C	0.954180	0.520137	0.500417
C29	C	0.550981	0.021680	0.000064
C30	C	1.050981	0.521680	0.500064
C31	C	0.580592	0.108374	0.000060
C32	C	1.080592	0.608374	0.500060
C33	C	0.542527	0.150536	-0.087699
C34	C	1.042527	0.650536	0.412301
C35	C	0.445739	0.148388	-0.087766
C36	C	0.945739	0.648388	0.412234
C37	C	0.445488	0.150162	0.086999
C38	C	0.945488	0.650162	0.586999
C39	C	0.542432	0.150142	0.088152
C40	C	1.042432	0.650142	0.588152
C41	C	0.675401	0.109931	0.000051
C42	C	1.175401	0.609931	0.500051
C43	C	0.318027	0.104071	0.000071
C44	C	0.818027	0.604071	0.500071
C45	C	0.992645	-0.035945	0.000075
C46	C	1.492645	0.464055	0.500075
C47	C	0.984810	-0.122740	0.000074
C48	C	1.484810	0.377260	0.500074
C49	C	1.056739	-0.172836	0.000081
C50	C	1.556739	0.327164	0.500081
C51	C	1.049373	-0.254389	0.000072
C52	C	1.549373	0.245611	0.500072
C53	C	0.970077	-0.285843	0.000062
C54	C	1.470077	0.214157	0.500062
C55	C	0.898143	-0.235740	0.000053
C56	C	1.398143	0.264260	0.500053
C57	C	0.905510	-0.154189	0.000056
C58	C	1.405510	0.345811	0.500056
C59	C	0.944051	-0.531607	0.000047
C60	C	1.444051	-0.031607	0.500047
C61	C	0.936689	-0.613164	0.000048
C62	C	1.436689	-0.113164	0.500048
C63	C	1.087920	-0.631807	0.000065
C64	C	1.587920	-0.131807	0.500065
C65	C	1.095280	-0.550254	0.000073
C66	C	1.595280	-0.050254	0.500073
C67	C	1.023346	-0.500158	0.000059
C68	C	1.523346	-0.000158	0.500059
C69	C	0.962546	-0.369202	0.000056
C70	C	1.462546	0.130798	0.500056
C71	C	1.030878	-0.416801	0.000059
C72	C	1.530878	0.083199	0.500059
C73	C	1.149390	0.101292	0.000078
C74	C	1.649390	0.601292	0.500078
C75	C	1.242450	0.102834	0.000079
C76	C	1.742450	0.602834	0.500079
C77	C	1.000784	0.249944	0.000059
C78	C	1.500784	0.749944	0.500059
C79	C	1.008618	0.336739	0.000054
C80	C	1.508618	0.836739	0.500054
N81	N	0.996674	0.107009	0.218773
N82	N	1.496674	0.607009	0.718773
N83	N	0.996761	0.106984	-0.218636
N84	N	1.496761	0.606984	0.281364
C85	C	0.996732	0.106993	0.592864
C86	C	1.496732	0.606993	1.092864
C87	C	0.932276	0.171007	0.553689
C88	C	1.432276	0.671007	1.053689
C89	C	0.932452	0.171241	0.446601
C90	C	1.432452	0.671241	0.946601
C91	C	0.996702	0.107001	0.407273
C92	C	1.496702	0.607001	0.907273
C93	C	1.085336	0.124819	0.446115
C94	C	1.585336	0.624819	0.946115
C95	C	1.084981	0.125274	0.553237
C96	C	1.584981	0.625274	1.053237
C97	C	0.973320	0.024970	0.553397
C98	C	1.473320	0.524970	1.053397
C99	C	0.971356	0.025517	0.446269
C100	C	1.471356	0.525517	0.946269
C101	C	0.996691	0.107004	0.302385
C102	C	1.496691	0.607004	0.802385
C103	C	0.996749	0.106991	0.697752
C104	C	1.496749	0.606991	1.197752
H105	H	0.425254	0.117636	-0.153365
H106	H	0.925254	0.617636	0.346635
N107	N	0.845431	0.157202	0.411798
N108	N	1.345431	0.657202	0.911798
H109	H	0.846776	0.107951	0.372886
H110	H	1.346776	0.607951	0.872886
H111	H	0.806654	0.150839	0.466090
H112	H	1.306654	0.650839	0.966090
N113	N	0.889133	0.002284	0.589204
N114	N	1.389133	0.502284	1.089204
H115	H	0.895878	-0.048665	0.624686
H116	H	1.395878	0.451335	1.124686
H117	H	0.865361	0.044997	0.631343
H118	H	1.365361	0.544997	1.131343
H119	H	1.146484	-0.672604	0.000074
H120	H	1.646484	-0.172604	0.500074
N121	N	0.577347	0.111730	-0.174211
N122	N	1.077347	0.611730	0.325789
H123	H	0.552473	0.139272	-0.230306
H124	H	1.052473	0.639272	0.269694
H125	H	0.640200	0.115201	-0.175136
H126	H	1.140200	0.615201	0.324864
N127	N	1.126952	-0.308422	0.000084
N128	N	1.626952	0.191578	0.500084
H129	H	1.178303	-0.276121	0.000099
H130	H	1.678303	0.223879	0.500099
H131	H	1.127170	-0.342664	0.057056
H132	H	1.627170	0.157336	0.557056
N133	N	1.116400	-0.382877	0.000079
N134	N	1.616400	0.117123	0.500079
H135	H	1.160855	-0.426985	0.000087
H136	H	1.660855	0.073015	0.500087
H137	H	1.122765	-0.349445	-0.056890
H138	H	1.622765	0.150555	0.443110
N139	N	1.180805	-0.516330	0.000088
N140	N	1.680805	-0.016330	0.500088
H141	H	1.225256	-0.560442	0.000091
H142	H	1.725256	-0.060442	0.500091
H143	H	1.187171	-0.482897	-0.056880
H144	H	1.687171	0.017103	0.443120
H145	H	0.906126	0.011995	0.420882
H146	H	1.406126	0.511995	0.920882
H147	H	0.885477	-0.490828	0.000036
H148	H	1.385477	0.009172	0.500036
N149	N	0.426401	-0.025119	0.083786
N150	N	0.926401	0.474881	0.583786
H151	H	0.363552	-0.028611	0.082581
H152	H	0.863552	0.471389	0.582581
H153	H	0.453700	-0.079779	0.082630
H154	H	0.953700	0.420221	0.582630
N155	N	0.812616	-0.269661	0.000037
N156	N	1.312616	0.230339	0.500037
H157	H	0.818862	-0.328925	0.000039
H158	H	1.318862	0.171075	0.500039
H159	H	0.780872	-0.251333	0.057005
H160	H	1.280872	0.248667	0.557005
N161	N	0.851160	-0.647092	0.000036
N162	N	1.351160	-0.147092	0.500036
H163	H	0.806707	-0.602983	0.000025
H164	H	1.306707	-0.102983	0.500025
H165	H	0.844830	-0.680524	-0.056936
H166	H	1.344830	-0.180524	0.443064
H167	H	0.846938	-0.113400	0.000050
H168	H	1.346938	0.386600	0.500050
N169	N	1.111113	0.204514	0.586323
N170	N	1.611113	0.704514	1.086323
H171	H	1.111139	0.205605	0.656099
H172	H	1.611139	0.705605	1.156099
H173	H	1.169176	0.214104	0.562729
H174	H	1.669176	0.714104	1.062729
H175	H	1.134688	0.079434	0.420639
H176	H	1.634688	0.579434	0.920639
N177	N	0.415648	0.113139	0.175113
N178	N	0.915648	0.613139	0.675113
H179	H	0.437315	0.142617	0.230011
H180	H	0.937315	0.642617	0.730011
H181	H	0.352447	0.115482	0.176268
H182	H	0.852447	0.615482	0.676268
H183	H	1.014806	-0.024352	0.419501
H184	H	1.514806	0.475648	0.919501
H185	H	0.567542	0.119364	0.153076
H186	H	1.067542	0.619364	0.653076
N187	N	1.150789	0.065840	0.587571
N188	N	1.650789	0.565840	1.087571
H189	H	1.179907	0.039466	0.533117
H190	H	1.679907	0.539466	1.033117
H191	H	1.193090	0.093296	0.626256
H192	H	1.693090	0.593296	1.126256
H193	H	0.576475	-0.011692	-0.062951
H194	H	1.076475	0.488308	0.437049
N195	N	0.877019	-0.403125	0.000054
N196	N	1.377019	0.096875	0.500054
H197	H	0.870605	-0.436544	-0.056918
H198	H	1.370605	0.063456	0.443082
H199	H	0.870640	-0.436509	0.057060
H200	H	1.370640	0.063491	0.557060
N201	N	0.844989	0.157186	0.587840
N202	N	1.344989	0.657186	1.087840
H203	H	0.846376	0.109297	0.629040
H204	H	1.346376	0.609297	1.129040
H205	H	0.823112	0.204548	0.623944
H206	H	1.323112	0.704548	1.123944
H207	H	0.947652	0.231532	0.580596
H208	H	1.447652	0.731532	1.080596
H209	H	0.948007	0.232108	0.420964
H210	H	1.448007	0.732108	0.920964
N211	N	1.111924	0.203149	0.410567
N212	N	1.611924	0.703149	0.910567
H213	H	1.066691	0.227199	0.369311
H214	H	1.566691	0.727199	0.869311
H215	H	1.121355	0.239332	0.464462
H216	H	1.621355	0.739332	0.964462
N217	N	1.142266	-0.138914	0.000093
N218	N	1.642266	0.361086	0.500093
H219	H	1.148680	-0.105498	0.057068
H220	H	1.648680	0.394502	0.557068
H221	H	1.186660	-0.183071	0.000061
H222	H	1.686660	0.316929	0.500061
H223	H	1.020257	-0.022668	0.578729
H224	H	1.520257	0.477332	1.078729
H225	H	0.577035	-0.011462	0.062974
H226	H	1.077035	0.488538	0.562974
H227	H	0.432177	-0.013880	-0.062167
H228	H	0.932177	0.486120	0.437833
H229	H	0.417962	0.211153	-0.091752
H230	H	0.917962	0.711153	0.408248
N231	N	0.409352	0.233647	0.087784
N232	N	0.909352	0.733647	0.587784
H233	H	0.375524	0.243036	0.146007
H234	H	0.875524	0.743036	0.646007
H235	H	0.456343	0.271178	0.085695
H236	H	0.956343	0.771178	0.585695
H237	H	0.561190	0.214227	-0.090966
H238	H	1.061190	0.714227	0.409034
H239	H	0.562300	0.213362	0.093450
H240	H	1.062300	0.713362	0.593450
