data_functionalizedCrystal
_audit_creation_method	'MofGen! by Chris Wilmer'
_symmetry_space_group_name_H-M	'P1'
_symmetry_Int_Tables_number	1
_symmetry_cell_setting	triclinic
loop_
_symmetry_equiv_pos_as_xyz
  x,y,z
_cell_length_a	10.540539
_cell_length_b	10.868271
_cell_length_c	10.540514
_cell_angle_alpha	90.000678
_cell_angle_beta	84.520326
_cell_angle_gamma	90.002310
loop_
_atom_site_label
_atom_site_type_symbol
_atom_site_fract_x
_atom_site_fract_y
_atom_site_fract_z
O1	O	1.685871	0.102262	0.178896
O2	O	1.316457	0.102277	0.195752
O3	O	1.509609	0.102263	0.002616
O4	O	1.492719	0.102276	0.372033
O5	O	1.509591	-0.102381	0.002622
O6	O	1.316439	-0.102367	0.195759
O7	O	1.685854	-0.102382	0.178902
Zn8	Zn	1.501144	-0.134867	0.187331
Zn9	Zn	1.501167	0.134761	0.187323
O10	O	1.492702	-0.102369	0.372039
C11	C	1.269145	-0.000043	0.194491
C12	C	1.128197	-0.000038	0.190709
C13	C	0.944784	-0.000520	0.045791
C14	C	1.091402	-0.000046	0.049624
C15	C	1.066529	0.116822	0.258602
C16	C	0.919985	0.116907	0.253787
C17	C	0.919476	-0.115812	0.256664
C18	C	1.066458	-0.117344	0.257964
N19	N	1.501137	-0.318881	0.187336
C20	C	1.501147	-0.430218	0.187337
C21	C	1.501164	-0.569896	0.187325
C22	C	1.733166	-0.000059	0.180163
C23	C	1.874113	-0.000057	0.183945
C24	C	1.508340	-0.000058	-0.044685
C25	C	1.504571	-0.000054	-0.185634
N26	N	1.501183	0.318776	0.187308
C27	C	1.493970	-0.000045	0.419339
C28	C	1.497740	-0.000040	0.560289
C29	C	1.359600	-0.000037	0.630995
C30	C	1.363474	-0.000508	0.777608
C31	C	1.572857	-0.116686	0.752627
C32	C	1.568003	-0.116777	0.606087
C33	C	1.570067	0.115951	0.605685
C34	C	1.571400	0.117477	0.752664
H35	H	1.133159	0.083866	-0.004178
C36	C	1.291217	-0.114115	0.834002
C37	C	1.229524	-0.204531	0.745649
C38	C	1.157267	-0.318145	0.802045
C39	C	1.146704	-0.341343	0.946794
C40	C	1.208399	-0.250924	1.035156
C41	C	1.280656	-0.137310	0.978761
H42	H	1.237341	-0.187361	0.638489
H43	H	1.111597	-0.385079	0.736632
H44	H	1.093216	-0.425447	0.988542
H45	H	1.200582	-0.268094	1.142316
H46	H	1.326326	-0.070376	1.044173
C47	C	1.710339	0.127461	0.785339
C48	C	1.806124	0.024392	0.745236
C49	C	1.945068	0.034364	0.777913
C50	C	1.988227	0.147403	0.850694
C51	C	1.892441	0.250480	0.890802
C52	C	1.753497	0.240509	0.858125
H53	H	1.774176	-0.059294	0.691355
H54	H	2.015975	-0.041941	0.748222
H55	H	2.091082	0.154785	0.874884
H56	H	1.924388	0.334166	0.944683
H57	H	1.682589	0.316813	0.887815
H58	H	1.303569	0.083590	0.602457
H59	H	1.304374	-0.083546	0.600766
H60	H	1.090674	-0.124396	0.360824
H61	H	1.134013	-0.083817	-0.003796
H62	H	0.872240	-0.116598	0.358569
C63	C	1.290899	0.112399	0.835257
C64	C	1.229006	0.203627	0.747896
C65	C	1.156414	0.316530	0.805540
C66	C	1.145715	0.338206	0.950545
C67	C	1.207610	0.246976	1.037915
C68	C	1.280202	0.134073	0.980271
H69	H	1.236924	0.187583	0.640547
H70	H	1.110595	0.384064	0.740862
H71	H	1.091978	0.421784	0.993217
H72	H	1.199692	0.263020	1.145265
H73	H	1.326021	0.066538	1.044949
C74	C	0.881880	0.234905	0.185985
C75	C	0.984747	0.328402	0.136592
C76	C	0.946651	0.446402	0.068787
C77	C	0.805687	0.470904	0.050375
C78	C	0.702811	0.377404	0.099769
C79	C	0.740907	0.259405	0.167575
H80	H	1.089106	0.310267	0.150220
H81	H	1.022808	0.515616	0.032222
H82	H	0.777486	0.558254	0.000182
H83	H	0.598453	0.395540	0.086141
H84	H	0.664750	0.190191	0.204140
H85	H	1.676488	-0.120698	0.774941
H86	H	1.518118	-0.204292	0.577862
C87	C	1.509560	-0.234391	0.810122
C88	C	1.506466	-0.258992	0.954261
C89	C	1.443160	-0.376694	1.011754
C90	C	1.382949	-0.469795	0.925106
C91	C	1.386041	-0.445196	0.780958
C92	C	1.449347	-0.327495	0.723465
H93	H	1.551039	-0.190071	1.018411
H94	H	1.440871	-0.394902	1.118462
H95	H	1.336086	-0.556924	0.967665
H96	H	1.341467	-0.514118	0.716808
H97	H	1.451635	-0.309286	0.616757
H98	H	1.669477	-0.121741	0.558081
C99	C	1.507958	0.235419	0.563149
C100	C	1.390760	0.229174	0.486634
C101	C	1.328635	0.348634	0.444099
C102	C	1.383710	0.474339	0.478079
C103	C	1.500915	0.480588	0.554598
C104	C	1.563039	0.361128	0.597133
H105	H	1.349984	0.136116	0.461477
H106	H	1.241872	0.344007	0.387454
H107	H	1.337722	0.562770	0.446592
H108	H	1.541690	0.573647	0.579755
H109	H	1.649802	0.365755	0.653778
H110	H	0.916196	-0.084327	-0.009943
H111	H	1.107417	-0.203796	0.208366
H112	H	0.914589	0.082816	-0.009713
H113	H	0.872007	0.122215	0.355253
H114	H	0.887926	-0.204391	0.211008
H115	H	1.671959	0.117075	0.558424
H116	H	1.088873	0.121174	0.362211
H117	H	1.109129	0.203789	0.211434
H118	H	1.521431	0.203760	0.793581
