data_functionalizedCrystal
_audit_creation_method	'MofGen! by Chris Wilmer'
_symmetry_space_group_name_H-M	'P1'
_symmetry_Int_Tables_number	1
_symmetry_cell_setting	triclinic
loop_
_symmetry_equiv_pos_as_xyz
  x,y,z
_cell_length_a	16.120530
_cell_length_b	18.050589
_cell_length_c	16.120297
_cell_angle_alpha	87.124343
_cell_angle_beta	89.871860
_cell_angle_gamma	87.123928
loop_
_atom_site_label
_atom_site_type_symbol
_atom_site_fract_x
_atom_site_fract_y
_atom_site_fract_z
Zn1	Zn	1.247404	-0.376248	0.534587
Zn2	Zn	1.747404	0.123752	1.034587
Zn3	Zn	1.254344	-0.494473	0.395537
Zn4	Zn	1.754344	0.005527	0.895537
Zn5	Zn	1.115396	-0.363698	0.388504
Zn6	Zn	1.615396	0.136302	0.888504
Zn7	Zn	1.108300	-0.493789	0.527506
Zn8	Zn	1.608300	0.006211	1.027506
O9	O	1.181361	-0.432052	0.461533
O10	O	1.681361	0.067948	0.961533
O11	O	1.364691	-0.397469	0.522048
O12	O	1.864691	0.102531	1.022048
O13	O	1.241786	-0.472159	0.278238
O14	O	1.741786	0.027841	0.778238
O15	O	1.132972	-0.261442	0.407903
O16	O	1.632972	0.238558	0.907903
O17	O	1.369789	-0.484328	0.419888
O18	O	1.869789	0.015672	0.919888
O19	O	1.229959	-0.270662	0.515230
O20	O	1.729959	0.229338	1.015230
O21	O	1.139701	-0.376080	0.273071
O22	O	1.639701	0.123920	0.773071
O23	O	0.998089	-0.375417	0.401037
O24	O	1.498089	0.124583	0.901037
O25	O	1.120879	-0.483162	0.644811
O26	O	1.620879	0.016838	1.144811
O27	O	0.992876	-0.470994	0.503160
O28	O	1.492876	0.029006	1.003160
O29	O	1.223078	-0.396806	0.650014
O30	O	1.723078	0.103194	1.150014
O31	O	1.234906	-0.598303	0.413022
O32	O	1.734906	-0.098303	0.913022
O33	O	1.127608	-0.597800	0.509979
O34	O	1.627608	-0.097800	1.009979
C35	C	0.965310	-0.421770	0.450568
C36	C	1.465310	0.078230	0.950568
C37	C	0.872881	-0.417390	0.445896
C38	C	1.372881	0.082610	0.945896
C39	C	1.181261	-0.624999	0.461515
C40	C	1.681261	-0.124999	0.961515
C41	C	1.181293	-0.707547	0.461538
C42	C	1.681293	-0.207547	0.961538
C43	C	0.703653	-0.409376	0.437374
C44	C	1.203653	0.090624	0.937374
C45	C	0.659907	-0.454785	0.485754
C46	C	1.159907	0.045215	0.985754
C47	C	0.565742	-0.450326	0.481012
C48	C	1.065742	0.049674	0.981012
C49	C	0.797826	-0.413834	0.442115
C50	C	1.297826	0.086166	0.942115
C51	C	1.123001	-0.906753	0.514247
C52	C	1.623001	-0.406753	1.014247
C53	C	1.106578	-0.951975	0.437341
C54	C	1.606578	-0.451975	0.937341
C55	C	1.181375	-0.858682	0.461553
C56	C	1.681375	-0.358682	0.961553
C57	C	1.197838	-0.960544	0.538470
C58	C	1.697838	-0.460544	1.038470
C59	C	1.181451	-1.004671	0.461574
C60	C	1.681451	-0.504671	0.961574
C61	C	1.164914	-0.902813	0.384605
C62	C	1.664914	-0.402813	0.884605
C63	C	1.256207	-0.911381	0.485787
C64	C	1.756207	-0.411381	0.985787
C65	C	1.239815	-0.956580	0.408830
C66	C	1.739815	-0.456580	0.908830
C67	C	1.181328	-0.774581	0.461542
C68	C	1.681328	-0.274581	0.961542
C69	C	1.181498	-1.088770	0.461577
C70	C	1.681498	-0.588770	0.961577
C71	C	1.398256	-0.442375	0.472543
C72	C	1.898256	0.057625	0.972543
C73	C	1.490683	-0.446774	0.477234
C74	C	1.990683	0.053226	0.977234
C75	C	1.170413	-0.441308	0.678428
C76	C	1.670413	0.058692	1.178428
C77	C	1.165748	-0.445252	0.770856
C78	C	1.665748	0.054748	1.270856
C79	C	1.181483	-0.238354	0.461572
C80	C	1.681483	0.261646	0.961572
C81	C	1.181535	-0.155811	0.461588
C82	C	1.681535	0.344189	0.961588
C83	C	1.192314	-0.422781	0.245485
C84	C	1.692314	0.077219	0.745485
C85	C	1.197141	-0.418635	0.153066
C86	C	1.697141	0.081365	0.653066
C87	C	1.157199	-0.452435	0.940081
C88	C	1.657199	0.047565	1.440081
C89	C	1.205687	-0.411454	0.983846
C90	C	1.705687	0.088546	1.483846
C91	C	1.200930	-0.415451	1.078009
C92	C	1.700930	0.084549	1.578009
C93	C	1.161955	-0.448439	0.845910
C94	C	1.661955	0.051561	1.345910
H95	H	0.693175	-0.497008	0.530735
H96	H	1.193175	0.002992	1.030735
C97	C	0.611472	-0.389604	0.320710
C98	C	1.111472	0.110396	0.820710
C99	C	0.658749	-0.352382	0.376649
C100	C	1.158749	0.147618	0.876649
H101	H	0.583748	-0.354419	0.283219
H102	H	1.083748	0.145581	0.783219
H103	H	0.571658	-0.417502	0.350448
H104	H	1.071658	0.082498	0.850448
H105	H	0.646953	-0.422126	0.290517
H106	H	1.146953	0.077874	0.790517
H107	H	0.623267	-0.319863	0.406847
H108	H	1.123267	0.180137	0.906847
H109	H	0.698568	-0.324472	0.346909
H110	H	1.198568	0.175528	0.846909
C111	C	1.073802	-0.822595	0.298729
C112	C	1.573802	-0.322595	0.798729
C113	C	1.146050	-0.868893	0.296774
C114	C	1.646050	-0.368893	0.796774
H115	H	1.062154	-0.801658	0.244506
H116	H	1.562154	-0.301658	0.744506
H117	H	1.081636	-0.783964	0.335399
H118	H	1.581636	-0.283964	0.835399
H119	H	1.028617	-0.850770	0.317596
H120	H	1.528617	-0.350770	0.817596
H121	H	1.191237	-0.840717	0.277913
H122	H	1.691237	-0.340717	0.777913
H123	H	1.138222	-0.907530	0.260091
H124	H	1.638222	-0.407530	0.760091
H125	H	1.250770	-0.373367	0.950596
H126	H	1.750770	0.126633	1.450596
H127	H	1.073570	-0.884877	0.558738
H128	H	1.573570	-0.384877	1.058738
H129	H	1.043330	-0.969970	0.416862
H130	H	1.543330	-0.469970	0.916862
C131	C	1.394073	-0.949997	0.531327
C132	C	1.894073	-0.449997	1.031327
C133	C	1.341565	-0.887085	0.513481
C134	C	1.841565	-0.387085	1.013481
H135	H	1.446767	-0.934995	0.548437
H136	H	1.946767	-0.434995	1.048437
H137	H	1.400544	-0.977822	0.483059
H138	H	1.900544	-0.477822	0.983059
H139	H	1.370524	-0.979832	0.574600
H140	H	1.870524	-0.479832	1.074600
H141	H	1.365112	-0.857252	0.470204
H142	H	1.865112	-0.357252	0.970204
H143	H	1.335097	-0.859248	0.561755
H144	H	1.835097	-0.359248	1.061755
C145	C	1.217178	-1.072132	0.625194
C146	C	1.717178	-0.572132	1.125194
C147	C	1.216599	-0.994589	0.626268
C148	C	1.716599	-0.494589	1.126268
H149	H	1.228750	-1.093146	0.679400
H150	H	1.728750	-0.593146	1.179400
H151	H	1.258727	-1.089199	0.587844
H152	H	1.758727	-0.589199	1.087844
H153	H	1.164441	-1.086639	0.607623
H154	H	1.664441	-0.586639	1.107623
H155	H	1.269338	-0.980082	0.643833
H156	H	1.769338	-0.480082	1.143833
H157	H	1.175048	-0.977515	0.663631
H158	H	1.675048	-0.477515	1.163631
C159	C	1.289100	-0.956489	0.268163
C160	C	1.789100	-0.456489	0.768163
C161	C	1.306502	-0.985928	0.348618
C162	C	1.806502	-0.485928	0.848618
H163	H	1.330265	-0.974613	0.230990
H164	H	1.830265	-0.474613	0.730990
H165	H	1.289130	-0.903844	0.267500
H166	H	1.789130	-0.403844	0.767500
H167	H	1.236106	-0.971058	0.251432
H168	H	1.736106	-0.471058	0.751432
H169	H	1.359494	-0.971355	0.365351
H170	H	1.859494	-0.471355	0.865351
H171	H	1.306481	-1.038584	0.349283
H172	H	1.806481	-0.538584	0.849283
H173	H	1.112120	-0.490519	0.973329
H174	H	1.612120	0.009481	1.473329
