data_functionalizedCrystal
_audit_creation_method	'MofGen! by Chris Wilmer'
_symmetry_space_group_name_H-M	'P1'
_symmetry_Int_Tables_number	1
_symmetry_cell_setting	triclinic
loop_
_symmetry_equiv_pos_as_xyz
  x,y,z
_cell_length_a	21.395364
_cell_length_b	21.395363
_cell_length_c	21.395355
_cell_angle_alpha	89.996048
_cell_angle_beta	90.025600
_cell_angle_gamma	90.000356
loop_
_atom_site_label
_atom_site_type_symbol
_atom_site_fract_x
_atom_site_fract_y
_atom_site_fract_z
Zn1	Zn	-0.957983	-0.249553	-0.354342
Zn2	Zn	-0.457983	0.250447	0.145658
Zn3	Zn	-0.957938	-0.354313	-0.249592
Zn4	Zn	-0.457938	0.145687	0.250408
Zn5	Zn	-0.853198	-0.249548	-0.249577
Zn6	Zn	-0.353198	0.250452	0.250423
Zn7	Zn	-0.853220	-0.354292	-0.354330
Zn8	Zn	-0.353220	0.145708	0.145670
O9	O	-0.905585	-0.301926	-0.301960
O10	O	-0.405585	0.198074	0.198040
O11	O	-1.045655	-0.263460	-0.340458
O12	O	-0.545655	0.236540	0.159542
O13	O	-0.944016	-0.340422	-0.161912
O14	O	-0.444016	0.159578	0.338088
O15	O	-0.867108	-0.161871	-0.263474
O16	O	-0.367108	0.338129	0.236526
O17	O	-1.045622	-0.340427	-0.263498
O18	O	-0.545622	0.159573	0.236502
O19	O	-0.944093	-0.161874	-0.340444
O20	O	-0.444093	0.338126	0.159556
O21	O	-0.867065	-0.263452	-0.161901
O22	O	-0.367065	0.236548	0.338099
O23	O	-0.765523	-0.263432	-0.263462
O24	O	-0.265523	0.236568	0.236538
O25	O	-0.867145	-0.340391	-0.442009
O26	O	-0.367145	0.159609	0.057991
O27	O	-0.765539	-0.340387	-0.340423
O28	O	-0.265539	0.159613	0.159577
O29	O	-0.944114	-0.263440	-0.442019
O30	O	-0.444114	0.236560	0.057981
O31	O	-0.944037	-0.441988	-0.263486
O32	O	-0.444037	0.058012	0.236514
O33	O	-0.867101	-0.441973	-0.340437
O34	O	-0.367101	0.058027	0.159563
C35	C	-0.742797	-0.301907	-0.301940
C36	C	-0.242797	0.198093	0.198060
C37	C	-0.673156	-0.301914	-0.301946
C38	C	-0.173156	0.198086	0.198054
C39	C	-0.171385	-0.342059	-0.341984
C40	C	0.328615	0.157941	0.158016
C41	C	-0.236820	-0.342060	-0.341979
C42	C	0.263180	0.157940	0.158021
C43	C	-0.269518	-0.301931	-0.301970
C44	C	0.230482	0.198069	0.198030
C45	C	-0.236775	-0.261809	-0.261954
C46	C	0.263225	0.238191	0.238046
C47	C	-0.171341	-0.261813	-0.261956
C48	C	0.328659	0.238187	0.238044
C49	C	-0.373178	-0.245467	-0.297106
C50	C	0.126822	0.254533	0.202894
C51	C	-0.438611	-0.245462	-0.297108
C52	C	0.061389	0.254538	0.202892
C53	C	-0.471339	-0.301917	-0.301960
C54	C	0.028661	0.198083	0.198040
C55	C	-0.438625	-0.358380	-0.306822
C56	C	0.061375	0.141620	0.193178
C57	C	-0.373191	-0.358385	-0.306824
C58	C	0.126809	0.141615	0.193176
C59	C	-0.340470	-0.301922	-0.301963
C60	C	0.159530	0.198078	0.198037
C61	C	-0.575026	-0.342041	-0.341965
C62	C	-0.075026	0.157959	0.158035
C63	C	-0.640463	-0.342044	-0.341955
C64	C	-0.140463	0.157956	0.158045
C65	C	-0.640416	-0.261786	-0.261933
C66	C	-0.140416	0.238214	0.238067
C67	C	-0.574981	-0.261789	-0.261940
C68	C	-0.074981	0.238211	0.238060
C69	C	-0.542290	-0.301916	-0.301959
C70	C	-0.042290	0.198084	0.198041
C71	C	-0.905583	-0.464714	-0.301975
C72	C	-0.405583	0.035286	0.198025
C73	C	-0.905640	-0.534355	-0.302003
C74	C	-0.405640	-0.034355	0.197997
C75	C	-0.905637	-0.301914	-0.465384
C76	C	-0.405637	0.198086	0.034616
C77	C	-0.905659	-0.301908	-0.535025
C78	C	-0.405659	0.198092	-0.035025
C79	C	-0.069008	-0.301942	-0.301977
C80	C	0.430992	0.198058	0.198023
C81	C	-0.138650	-0.301940	-0.301975
C82	C	0.361350	0.198060	0.198025
C83	C	-0.905604	-0.138503	-0.301959
C84	C	-0.405604	0.361497	0.198041
C85	C	-0.905612	-0.068862	-0.301958
C86	C	-0.405612	0.431138	0.198042
C87	C	-0.865537	-0.036146	-0.261885
C88	C	-0.365537	0.463854	0.238115
C89	C	-0.865536	0.029289	-0.261892
C90	C	-0.365536	0.529289	0.238108
C91	C	-0.905621	0.062006	-0.301967
C92	C	-0.405621	0.562006	0.198033
C93	C	-0.945699	0.029283	-0.342048
C94	C	-0.445699	0.529283	0.157952
C95	C	-0.945694	-0.036151	-0.342044
C96	C	-0.445694	0.463849	0.157956
C97	C	-0.962080	0.165669	-0.306926
C98	C	-0.462080	0.665669	0.193074
C99	C	-0.962086	0.231102	-0.306925
C100	C	-0.462086	0.731102	0.193075
C101	C	-0.905636	0.263827	-0.301983
C102	C	-0.405636	0.763827	0.198017
C103	C	-0.849178	0.231111	-0.297028
C104	C	-0.349178	0.731111	0.202972
C105	C	-0.849173	0.165677	-0.297024
C106	C	-0.349173	0.665677	0.202976
C107	C	-0.905631	0.132959	-0.301976
C108	C	-0.405631	0.632959	0.198024
C109	C	-0.865557	0.367496	-0.261915
C110	C	-0.365557	0.867496	0.238085
C111	C	-0.865555	0.432932	-0.261927
C112	C	-0.365555	0.932932	0.238073
C113	C	-0.945724	0.432924	-0.342080
C114	C	-0.445724	0.932924	0.157920
C115	C	-0.945720	0.367489	-0.342071
C116	C	-0.445720	0.867489	0.157929
C117	C	-0.905637	0.334778	-0.301986
C118	C	-0.405637	0.834778	0.198014
C119	C	-0.945735	-0.261838	-0.567744
C120	C	-0.445735	0.238162	-0.067744
C121	C	-0.945735	-0.261811	-0.633179
C122	C	-0.445735	0.238189	-0.133179
C123	C	-0.905664	-0.301866	-0.665893
C124	C	-0.405664	0.198134	-0.165893
C125	C	-0.865580	-0.341939	-0.633166
C126	C	-0.365580	0.158061	-0.133166
C127	C	-0.865578	-0.341960	-0.567732
C128	C	-0.365578	0.158040	-0.067732
C129	C	-0.900716	-0.358281	-0.769573
C130	C	-0.400716	0.141719	-0.269573
C131	C	-0.900723	-0.358260	-0.835006
C132	C	-0.400723	0.141740	-0.335006
C133	C	-0.905668	-0.301799	-0.867714
C134	C	-0.405668	0.198201	-0.367714
C135	C	-0.910619	-0.245357	-0.834981
C136	C	-0.410619	0.254643	-0.334981
C137	C	-0.910617	-0.245378	-0.769547
C138	C	-0.410617	0.254622	-0.269547
C139	C	-0.905662	-0.301847	-0.736846
C140	C	-0.405662	0.198153	-0.236846
C141	C	-0.945745	-0.261697	-0.971386
C142	C	-0.445745	0.238303	-0.471386
C143	C	-0.945740	-0.261669	-1.036822
C144	C	-0.445740	0.238331	-0.536822
C145	C	-0.865589	-0.341802	-1.036808
C146	C	-0.365589	0.158198	-0.536808
C147	C	-0.865591	-0.341824	-0.971373
C148	C	-0.365591	0.158176	-0.471373
C149	C	-0.905672	-0.301772	-0.938665
C150	C	-0.405672	0.198228	-0.438665
C151	C	-0.905569	-0.301894	-0.139173
C152	C	-0.405569	0.198106	0.360827
C153	C	-0.905668	-0.301723	-0.069532
C154	C	-0.405668	0.198277	0.430468
H155	H	-0.465242	-0.199486	-0.293157
H156	H	0.034758	0.300514	0.206843
H157	H	-0.832960	-0.374458	-0.944733
H158	H	-0.332960	0.125542	-0.444733
C159	C	-0.787071	0.129692	-0.291580
C160	C	-0.287071	0.629692	0.208420
N161	N	-0.740294	0.102588	-0.287484
N162	N	-0.240294	0.602588	0.212516
H163	H	-0.346537	-0.199492	-0.293145
H164	H	0.153463	0.300508	0.206855
C165	C	-0.272744	-0.217662	-0.217948
C166	C	0.227256	0.282338	0.282052
N167	N	-0.299835	-0.184409	-0.184802
N168	N	0.200165	0.315591	0.315198
H169	H	-0.144688	-0.229141	-0.229375
H170	H	0.355312	0.270859	0.270625
H171	H	-0.978356	0.340851	-0.374700
H172	H	-0.478356	0.840851	0.125300
C173	C	-0.989827	-0.217733	-0.669177
C174	C	-0.489827	0.282267	-0.169177
N175	N	-1.023039	-0.184534	-0.696289
N176	N	-0.523039	0.315466	-0.196289
H177	H	-0.832940	-0.374589	-0.541093
H178	H	-0.332940	0.125411	-0.041093
H179	H	-0.803212	0.257755	-0.293002
H180	H	-0.303212	0.757755	0.206998
C181	C	-0.821456	0.065284	-0.217800
C182	C	-0.321456	0.565284	0.282200
N183	N	-0.788257	0.092393	-0.184587
N184	N	-0.288257	0.592393	0.315413
H185	H	-0.667115	-0.374718	-0.374534
H186	H	-0.167115	0.125282	0.125466
H187	H	-0.914646	-0.199421	-0.742898
H188	H	-0.414646	0.300579	-0.242898
C189	C	-0.676380	-0.217644	-0.217922
C190	C	-0.176380	0.282356	0.282078
N191	N	-0.703471	-0.184397	-0.184770
N192	N	-0.203471	0.315603	0.315230
C193	C	-0.538971	-0.217646	-0.217934
C194	C	-0.038971	0.282354	0.282066
N195	N	-0.511849	-0.184395	-0.184787
N196	N	-0.011849	0.315605	0.315213
C197	C	-0.821500	-0.385996	-0.669153
C198	C	-0.321500	0.114004	-0.169153
N199	N	-0.788294	-0.419179	-0.696258
N200	N	-0.288294	0.080821	-0.196258
C201	C	-0.474620	-0.420487	-0.312158
C202	C	0.025380	0.079513	0.187842
N203	N	-0.501734	-0.467264	-0.316179
N204	N	-0.001734	0.032736	0.183821
H205	H	-0.832917	0.340861	-0.229278
H206	H	-0.332917	0.840861	0.270722
C207	C	-0.135428	-0.386214	-0.385993
C208	C	0.364572	0.113786	0.114007
N209	N	-0.108345	-0.419476	-0.419136
N210	N	0.391655	0.080524	0.080864
H211	H	-0.832918	0.459570	-0.229297
H212	H	-0.332918	0.959570	0.270703
H213	H	-0.832956	-0.374409	-1.063443
H214	H	-0.332956	0.125591	-0.563443
H215	H	-0.978359	0.459562	-0.374711
H216	H	-0.478359	0.959562	0.125289
H217	H	-0.914647	-0.199381	-0.861611
H218	H	-0.414647	0.300619	-0.361611
H219	H	-0.896695	-0.404219	-0.861652
H220	H	-0.396695	0.095781	-0.361652
C221	C	-0.989830	-0.217634	-0.935405
C222	C	-0.489830	0.282366	-0.435405
N223	N	-1.023034	-0.184444	-0.908307
N224	N	-0.523034	0.315556	-0.408307
C225	C	-0.337208	-0.420494	-0.312161
C226	C	0.162792	0.079506	0.187839
N227	N	-0.310106	-0.467275	-0.316175
N228	N	0.189894	0.032725	0.183825
C229	C	-0.895288	-0.420397	-0.733601
C230	C	-0.395288	0.079603	-0.233601
N231	N	-0.891205	-0.467183	-0.706507
N232	N	-0.391205	0.032817	-0.206507
C233	C	-1.024192	0.267083	-0.312359
C234	C	-0.524192	0.767083	0.187641
N235	N	-1.070972	0.294183	-0.316447
N236	N	-0.570972	0.794183	0.183553
H237	H	-0.978336	0.055924	-0.374678
H238	H	-0.478336	0.555924	0.125322
H239	H	-1.008051	0.139030	-0.310958
H240	H	-0.508051	0.639030	0.189042
C241	C	-0.989828	-0.217584	-1.072813
C242	C	-0.489828	0.282416	-0.572813
N243	N	-1.023037	-0.184380	-1.099922
N244	N	-0.523037	0.315620	-0.599922
H245	H	-0.978372	-0.229224	-0.541118
H246	H	-0.478372	0.270776	-0.041118
C247	C	-0.272836	-0.386192	-0.385998
C248	C	0.227164	0.113808	0.114002
N249	N	-0.299961	-0.419431	-0.419155
N250	N	0.200039	0.080569	0.080845
C251	C	-0.539064	-0.386186	-0.385982
C252	C	-0.039064	0.113814	0.114018
N253	N	-0.511979	-0.419436	-0.419136
N254	N	-0.011979	0.080564	0.080864
C255	C	-0.989787	-0.072140	-0.386124
C256	C	-0.489787	0.427860	0.113876
N257	N	-1.023001	-0.099247	-0.419324
N258	N	-0.523001	0.400753	0.080676
C259	C	-0.821439	-0.072124	-0.217795
C260	C	-0.321439	0.427876	0.282205
N261	N	-0.788222	-0.099223	-0.184588
N262	N	-0.288222	0.400777	0.315412
