data_functionalizedCrystal
_audit_creation_method	'MofGen! by Chris Wilmer'
_symmetry_space_group_name_H-M	'P1'
_symmetry_Int_Tables_number	1
_symmetry_cell_setting	triclinic
loop_
_symmetry_equiv_pos_as_xyz
  x,y,z
_cell_length_a	17.699077
_cell_length_b	14.519709
_cell_length_c	16.776229
_cell_angle_alpha	90.004360
_cell_angle_beta	90.005198
_cell_angle_gamma	83.480361
loop_
_atom_site_label
_atom_site_type_symbol
_atom_site_fract_x
_atom_site_fract_y
_atom_site_fract_z
O1	O	1.004414	0.116594	0.066279
O2	O	1.504414	0.616594	0.566279
O3	O	0.784078	0.131773	0.066283
O4	O	1.284078	0.631773	0.566283
O5	O	0.900088	-0.010080	0.066274
O6	O	1.400088	0.489920	0.566274
O7	O	0.888404	0.258447	0.066289
O8	O	1.388404	0.758447	0.566289
O9	O	0.900075	-0.010080	-0.066302
O10	O	1.400075	0.489920	0.433698
O11	O	0.784065	0.131772	-0.066293
O12	O	1.284065	0.631772	0.433707
O13	O	1.004401	0.116594	-0.066297
O14	O	1.504401	0.616594	0.433703
Zn15	Zn	0.894231	0.124183	-0.087345
Zn16	Zn	1.394231	0.624183	0.412655
Zn17	Zn	0.894248	0.124183	0.087331
Zn18	Zn	1.394248	0.624183	0.587331
O19	O	0.888391	0.258446	-0.066288
O20	O	1.388391	0.758446	0.433712
C21	C	0.755873	0.131230	-0.000004
C22	C	1.255873	0.631230	0.499996
C23	C	0.671850	0.129601	-0.000003
C24	C	1.171850	0.629601	0.499997
C25	C	0.632373	0.128833	-0.072271
C26	C	1.132373	0.628833	0.427729
C27	C	0.553427	0.127288	-0.072272
C28	C	1.053427	0.627288	0.427728
C29	C	0.513957	0.126517	-0.000004
C30	C	1.013957	0.626517	0.499996
C31	C	0.553440	0.127282	0.072270
C32	C	1.053440	0.627282	0.572270
C33	C	0.632386	0.128821	0.072270
C34	C	1.132386	0.628821	0.572270
C35	C	0.235059	0.121076	0.072271
C36	C	0.735059	0.621076	0.572271
C37	C	0.156107	0.119540	0.072265
C38	C	0.656107	0.619540	0.572265
C39	C	0.156099	0.119543	-0.072271
C40	C	0.656099	0.619543	0.427729
C41	C	0.235045	0.121082	-0.072271
C42	C	0.735045	0.621082	0.427729
C43	C	0.274522	0.121842	0.000002
C44	C	0.774522	0.621842	0.500002
C45	C	0.360125	0.123515	0.000002
C46	C	0.860125	0.623515	0.500002
C47	C	0.428354	0.124850	-0.000003
C48	C	0.928354	0.624850	0.499997
C49	C	0.899537	-0.044438	-0.000014
C50	C	1.399537	0.455562	0.499986
C51	C	0.897905	-0.146812	-0.000015
C52	C	1.397905	0.353188	0.499985
C53	C	0.891898	-0.521682	0.000006
C54	C	1.391898	-0.021682	0.500006
C55	C	0.893566	-0.417381	0.000000
C56	C	1.393566	0.082619	0.500000
C57	C	0.894902	-0.334250	-0.000005
C58	C	1.394902	0.165750	0.499995
C59	C	0.896570	-0.229943	-0.000010
C60	C	1.396570	0.270057	0.499990
C61	C	1.032606	0.117137	-0.000008
C62	C	1.532606	0.617137	0.499992
C63	C	1.116629	0.118766	-0.000004
C64	C	1.616629	0.618766	0.499996
C65	C	0.888942	0.292804	0.000002
C66	C	1.388942	0.792804	0.500002
C67	C	0.890574	0.395178	0.000008
C68	C	1.390574	0.895178	0.500008
N69	N	0.894225	0.124182	-0.206556
N70	N	1.394225	0.624182	0.293444
C71	C	0.940200	0.180046	-0.248267
C72	C	1.440200	0.680046	0.251733
C73	C	0.940208	0.180043	-0.331719
C74	C	1.440208	0.680043	0.168281
C75	C	0.894237	0.124179	-0.373459
C76	C	1.394237	0.624179	0.126541
C77	C	0.848260	0.068308	-0.331741
C78	C	1.348260	0.568308	0.168259
C79	C	0.848256	0.068308	-0.248291
C80	C	1.348256	0.568308	0.251709
C81	C	0.848275	0.068310	-0.668289
C82	C	1.348275	0.568310	-0.168289
C83	C	0.848281	0.068317	-0.751745
C84	C	1.348281	0.568317	-0.251745
C85	C	0.940227	0.180045	-0.751717
C86	C	1.440227	0.680045	-0.251717
C87	C	0.940223	0.180044	-0.668266
C88	C	1.440223	0.680044	-0.168266
C89	C	0.894250	0.124170	-0.626557
C90	C	1.394250	0.624170	-0.126557
C91	C	0.894242	0.124173	-0.536068
C92	C	1.394242	0.624173	-0.036068
C93	C	0.894240	0.124180	-0.463945
C94	C	1.394240	0.624180	0.036055
N95	N	0.894261	0.124177	0.206542
N96	N	1.394261	0.624177	0.706542
H97	H	0.521298	0.126648	0.131112
H98	H	1.021298	0.626648	0.631112
C99	C	0.675810	0.129667	0.151771
C100	C	1.175810	0.629667	0.651771
N101	N	0.708516	0.130302	0.211654
N102	N	1.208516	0.630302	0.711654
C103	C	0.990773	0.241501	-0.202361
C104	C	1.490773	0.741501	0.297639
N105	N	1.028869	0.287788	-0.167788
N106	N	1.528869	0.787788	0.332212
C107	C	0.797678	0.006855	-0.202409
C108	C	1.297678	0.506855	0.297591
N109	N	0.759582	-0.039435	-0.167852
N110	N	1.259582	0.460565	0.332148
H111	H	0.123973	0.118911	0.131118
H112	H	0.623973	0.618911	0.631118
C113	C	0.990807	0.241500	-0.797605
C114	C	1.490807	0.741500	-0.297605
N115	N	1.028901	0.287787	-0.832167
N116	N	1.528901	0.787787	-0.332167
H117	H	0.664503	0.129468	-0.131121
H118	H	1.164503	0.629468	0.368879
C119	C	0.278458	0.121927	-0.151772
C120	C	0.778458	0.621927	0.348228
N121	N	0.311155	0.122559	-0.211653
N122	N	0.811155	0.622559	0.288347
H123	H	0.977647	0.225532	-0.365677
H124	H	1.477647	0.725532	0.134323
H125	H	0.977655	0.225538	-0.634286
H126	H	1.477655	0.725538	-0.134286
C127	C	0.797710	0.006855	-0.797657
C128	C	1.297710	0.506855	-0.297657
N129	N	0.759622	-0.039435	-0.832238
N130	N	1.259622	0.460565	-0.332238
H131	H	0.810841	0.022813	-0.634339
H132	H	1.310841	0.522813	-0.134339
C133	C	0.797689	0.006860	-0.377658
C134	C	1.297689	0.506860	0.122342
N135	N	0.759595	-0.039421	-0.412241
N136	N	1.259595	0.460579	0.087759
H137	H	0.521290	0.126647	-0.131120
H138	H	1.021290	0.626647	0.368880
H139	H	0.123949	0.118920	-0.131120
H140	H	0.623949	0.618920	0.368880
H141	H	0.267191	0.121692	0.131121
H142	H	0.767191	0.621692	0.631121
