data_functionalizedCrystal
_audit_creation_method	'MofGen! by Chris Wilmer'
_symmetry_space_group_name_H-M	'P1'
_symmetry_Int_Tables_number	1
_symmetry_cell_setting	triclinic
loop_
_symmetry_equiv_pos_as_xyz
  x,y,z
_cell_length_a	11.169417
_cell_length_b	19.120786
_cell_length_c	11.169409
_cell_angle_alpha	87.520717
_cell_angle_beta	89.980487
_cell_angle_gamma	92.466524
loop_
_atom_site_label
_atom_site_type_symbol
_atom_site_fract_x
_atom_site_fract_y
_atom_site_fract_z
Zn1	Zn	1.814457	-0.279552	-0.658094
Zn2	Zn	1.805729	-0.397034	-0.448821
Zn3	Zn	1.613739	-0.279596	-0.457426
Zn4	Zn	1.605137	-0.396977	-0.649471
O5	O	1.709765	-0.338290	-0.553453
O6	O	1.981248	-0.295142	-0.630341
O7	O	1.780208	-0.381497	-0.282010
O8	O	1.647618	-0.181299	-0.491255
O9	O	1.974836	-0.381455	-0.476589
O10	O	1.795084	-0.181267	-0.638684
O11	O	1.639155	-0.295216	-0.288332
O12	O	1.444649	-0.295161	-0.482894
O13	O	1.632956	-0.381359	-0.818568
O14	O	1.438329	-0.381401	-0.623989
O15	O	1.786742	-0.295087	-0.824903
O16	O	1.771867	-0.495317	-0.468228
O17	O	1.624493	-0.495276	-0.615645
C18	C	1.397941	-0.338280	-0.553440
C19	C	1.264540	-0.338293	-0.553462
C20	C	1.696332	-0.520782	-0.540093
C21	C	1.690695	-0.598854	-0.534418
C22	C	1.764767	-0.635455	-0.608573
C23	C	1.759465	-0.708811	-0.603242
C24	C	1.680097	-0.745565	-0.523750
C25	C	1.606016	-0.708958	-0.449592
C26	C	1.611313	-0.635604	-0.454930
C27	C	1.660261	-0.967052	-0.503797
C28	C	1.654973	-1.040412	-0.498463
C29	C	1.808421	-1.040259	-0.652115
C30	C	1.813715	-0.966903	-0.657440
C31	C	1.739631	-0.930304	-0.583287
C32	C	1.674678	-0.820546	-0.518297
C33	C	1.745044	-0.855323	-0.588747
C34	C	2.022807	-0.338300	-0.553467
C35	C	2.156207	-0.338304	-0.553473
C36	C	1.709863	-0.338212	-0.866501
C37	C	1.709905	-0.338179	-0.999904
C38	C	1.723284	-0.155084	-0.566891
C39	C	1.729045	-0.077013	-0.572618
C40	C	1.709741	-0.338317	-0.241626
C41	C	1.709946	-0.338152	-0.108239
H42	H	1.819792	-0.738608	-0.663618
N43	N	1.531423	-0.596130	-0.374937
H44	H	1.582423	-0.565695	-0.321576
H45	H	1.477986	-0.565743	-0.425957
N46	N	1.569366	-1.080054	-0.412717
H47	H	1.615981	-1.110482	-0.354924
H48	H	1.523260	-1.045691	-0.366636
H49	H	1.878343	-0.936980	-0.722169
H50	H	1.599941	-0.937259	-0.443416
N51	N	1.830636	-0.815680	-0.674486
H52	H	1.888469	-0.785237	-0.627968
H53	H	1.876683	-0.850036	-0.720640
H54	H	1.541388	-0.738889	-0.384873
N55	N	1.589092	-0.860191	-0.432546
H56	H	1.542970	-0.825876	-0.386368
H57	H	1.531327	-0.890633	-0.479137
N58	N	1.850378	-0.595815	-0.694305
H59	H	1.896496	-0.630136	-0.740474
H60	H	1.803694	-0.565379	-0.752019
H61	H	1.868735	-1.070067	-0.712488
