data_functionalizedCrystal
_audit_creation_method	'MofGen! by Chris Wilmer'
_symmetry_space_group_name_H-M	'P1'
_symmetry_Int_Tables_number	1
_symmetry_cell_setting	triclinic
loop_
_symmetry_equiv_pos_as_xyz
  x,y,z
_cell_length_a	15.995343
_cell_length_b	15.072220
_cell_length_c	15.995292
_cell_angle_alpha	89.997939
_cell_angle_beta	83.478900
_cell_angle_gamma	90.008177
loop_
_atom_site_label
_atom_site_type_symbol
_atom_site_fract_x
_atom_site_fract_y
_atom_site_fract_z
O1	O	1.110977	0.073687	0.107893
O2	O	1.610977	0.573687	0.607893
O3	O	0.867198	0.073708	0.121228
O4	O	1.367198	0.573708	0.621228
O5	O	0.995777	0.073698	-0.007331
O6	O	1.495777	0.573698	0.492669
O7	O	0.982399	0.073697	0.236451
O8	O	1.482399	0.573697	0.736451
O9	O	0.995745	-0.073867	-0.007324
O10	O	1.495745	0.426133	0.492676
O11	O	0.867167	-0.073857	0.121235
O12	O	1.367167	0.426143	0.621235
O13	O	1.110946	-0.073878	0.107900
O14	O	1.610946	0.426122	0.607900
Zn15	Zn	0.989051	-0.097297	0.114568
Zn16	Zn	1.489051	0.402703	0.614568
Zn17	Zn	0.989093	0.097127	0.114559
Zn18	Zn	1.489093	0.597127	0.614559
O19	O	0.982367	-0.073869	0.236459
O20	O	1.482367	0.426131	0.736459
C21	C	0.835988	-0.000072	0.120681
C22	C	1.335988	0.499928	0.620681
C23	C	0.743037	-0.000064	0.119032
C24	C	1.243037	0.499936	0.619032
N25	N	0.989029	-0.229986	0.114574
N26	N	1.489029	0.270014	0.614574
C27	C	0.572852	-0.000076	0.116038
C28	C	1.072852	0.499924	0.616038
C29	C	0.549525	-0.000075	0.023238
C30	C	1.049525	0.499925	0.523238
C31	C	0.452848	-0.000415	0.021493
C32	C	0.952848	0.499585	0.521493
C33	C	0.405292	-0.000087	0.113089
C34	C	0.905292	0.499913	0.613089
C35	C	0.434356	-0.084186	0.159755
C36	C	0.934356	0.415814	0.659755
C37	C	0.531148	-0.084252	0.160855
C38	C	1.031148	0.415748	0.660855
C39	C	0.531095	0.083563	0.162206
C40	C	1.031095	0.583563	0.662206
C41	C	0.434601	0.084664	0.158780
C42	C	0.934601	0.584664	0.658780
C43	C	0.310595	-0.000096	0.111428
C44	C	0.810595	0.499904	0.611428
C45	C	0.667549	-0.000073	0.117702
C46	C	1.167549	0.499927	0.617702
C47	C	0.989091	-0.589187	0.114556
C48	C	1.489091	-0.089187	0.614556
C49	C	0.920060	-0.551575	0.183114
C50	C	1.420060	-0.051575	0.683114
C51	C	0.920219	-0.448749	0.183365
C52	C	1.420219	0.051251	0.683365
C53	C	0.989059	-0.410983	0.114565
C54	C	1.489059	0.089017	0.614565
C55	C	1.076421	-0.448282	0.133645
C56	C	1.576421	0.051718	0.633645
C57	C	1.076034	-0.551140	0.134132
C58	C	1.576034	-0.051140	0.634132
C59	C	0.971540	-0.551285	0.026714
C60	C	1.471540	-0.051285	0.526714
C61	C	0.969535	-0.448421	0.027300
C62	C	1.469535	0.051579	0.527300
C63	C	0.989047	-0.310270	0.114569
C64	C	1.489047	0.189730	0.614569
C65	C	0.989110	-0.689901	0.114554
C66	C	1.489110	-0.189901	0.614554
C67	C	1.142156	-0.000096	0.108447
C68	C	1.642156	0.499904	0.608447
C69	C	1.235107	-0.000098	0.110096
C70	C	1.735107	0.499902	0.610096
C71	C	0.995217	-0.000082	-0.038523
C72	C	1.495217	0.499918	0.461477
C73	C	0.993584	-0.000075	-0.131476
C74	C	1.493584	0.499925	0.368524
N75	N	0.989122	0.229815	0.114547
N76	N	1.489122	0.729815	0.614547
C77	C	0.987583	-0.000083	-0.469214
C78	C	1.487583	0.499917	0.030786
C79	C	1.080388	-0.000420	-0.445904
C80	C	1.580388	0.499580	0.054096
C81	C	1.082152	-0.000085	-0.349229
C82	C	1.582152	0.499915	0.150771
C83	C	0.990561	-0.000080	-0.301658
C84	C	1.490561	0.499920	0.198342
C85	C	0.944181	0.084188	-0.330762
C86	C	1.444181	0.584188	0.169238
C87	C	0.943064	0.084256	-0.427553
C88	C	1.443064	0.584256	0.072447
C89	C	0.941133	-0.083553	-0.427402
C90	C	1.441133	0.416447	0.072598
C91	C	0.944572	-0.084664	-0.330909
C92	C	1.444572	0.415336	0.169091
C93	C	0.992239	-0.000075	-0.206962
C94	C	1.492239	0.499925	0.293038
C95	C	0.985902	-0.000082	-0.563910
C96	C	1.485902	0.499918	-0.063910
C97	C	0.982927	-0.000086	0.267650
C98	C	1.482927	0.499914	0.767650
C99	C	0.984560	-0.000087	0.360603
C100	C	1.484560	0.499913	0.860603
H101	H	0.433849	0.059859	-0.015036
H102	H	0.933849	0.559859	0.484964
H103	H	0.545094	0.084374	0.230512
H104	H	1.045094	0.584374	0.730512
H105	H	1.116146	-0.060853	-0.473900
H106	H	1.616146	0.439147	0.026100
H107	H	0.577553	0.060224	-0.012734
H108	H	1.077553	0.560224	0.487266
Br109	Br	0.996649	0.189236	-0.472260
Br110	Br	1.496649	0.689236	0.027740
H111	H	0.970345	-0.147428	-0.455488
H112	H	1.470345	0.352572	0.044512
Br113	Br	0.829657	0.090642	-0.451807
Br114	Br	1.329657	0.590642	0.048193
Br115	Br	0.400861	-0.188901	0.106402
Br116	Br	0.900861	0.311099	0.606402
Br117	Br	0.831847	0.089425	-0.277644
Br118	Br	1.331847	0.589425	0.222356
Br119	Br	0.833142	-0.093143	-0.275957
Br120	Br	1.333142	0.406857	0.224043
H121	H	0.416064	0.146882	0.124796
H122	H	0.916064	0.646882	0.624796
H123	H	0.976415	0.146896	-0.310706
H124	H	1.476415	0.646896	0.189294
H125	H	1.129015	-0.423817	0.085039
H126	H	1.629015	0.076183	0.585039
H127	H	0.578504	-0.060294	-0.012143
H128	H	1.078504	0.439706	0.487857
H129	H	0.978343	-0.147005	-0.312342
H130	H	1.478343	0.352995	0.187658
Br131	Br	1.102826	-0.405337	0.239201
Br132	Br	1.602826	0.094663	0.739201
Br133	Br	0.379658	0.093560	0.270181
Br134	Br	0.879658	0.593560	0.770181
H135	H	0.402495	-0.087078	0.227167
H136	H	0.902495	0.412922	0.727167
H137	H	1.129005	-0.576019	0.086166
H138	H	1.629005	-0.076019	0.586166
H139	H	0.872821	-0.084117	-0.441390
H140	H	1.372821	0.415883	0.058610
H141	H	0.855281	-0.423533	0.171997
H142	H	1.355281	0.076467	0.671997
H143	H	0.434405	-0.061054	-0.014859
H144	H	0.934405	0.438946	0.485141
Br145	Br	0.938487	-0.594622	0.291156
Br146	Br	1.438487	-0.094622	0.791156
Br147	Br	1.101817	-0.591119	0.240905
Br148	Br	1.601817	-0.091119	0.740905
H149	H	0.557927	-0.147356	0.128921
H150	H	1.057927	0.352644	0.628921
Br151	Br	0.811467	-0.592810	0.164467
Br152	Br	1.311467	-0.092810	0.664467
H153	H	0.931424	-0.424137	0.248550
H154	H	1.431424	0.075863	0.748550
Br155	Br	0.555420	-0.090235	0.274277
Br156	Br	1.055420	0.409765	0.774277
H157	H	0.909221	-0.577270	0.008367
H158	H	1.409221	-0.077270	0.508367
Br159	Br	0.862423	-0.407794	0.003163
Br160	Br	1.362423	0.092206	0.503163
Br161	Br	1.143094	0.100765	-0.318552
Br162	Br	1.643094	0.600765	0.181448
Br163	Br	0.578244	0.189844	0.113402
Br164	Br	1.078244	0.689844	0.613402
H165	H	1.021881	-0.575607	-0.024305
H166	H	1.521881	-0.075607	0.475695
Br167	Br	1.142670	-0.100781	-0.317508
Br168	Br	1.642670	0.399219	0.182492
Br169	Br	1.047903	-0.405592	-0.061720
Br170	Br	1.547903	0.094408	0.438280
Br171	Br	1.139705	0.099727	-0.494274
Br172	Br	1.639705	0.599727	0.005726
