data_functionalizedCrystal
_audit_creation_method	'MofGen! by Chris Wilmer'
_symmetry_space_group_name_H-M	'P1'
_symmetry_Int_Tables_number	1
_symmetry_cell_setting	triclinic
loop_
_symmetry_equiv_pos_as_xyz
  x,y,z
_cell_length_a	15.297475
_cell_length_b	19.120786
_cell_length_c	15.296720
_cell_angle_alpha	96.814151
_cell_angle_beta	91.617114
_cell_angle_gamma	82.327649
loop_
_atom_site_label
_atom_site_type_symbol
_atom_site_fract_x
_atom_site_fract_y
_atom_site_fract_z
Zn1	Zn	1.229665	-0.538911	-0.692920
Zn2	Zn	1.250536	-0.638619	-0.540205
Zn3	Zn	1.110256	-0.500011	-0.523592
Zn4	Zn	1.079062	-0.631812	-0.661759
O5	O	1.167379	-0.577338	-0.604619
O6	O	1.354169	-0.571266	-0.692656
O7	O	1.253717	-0.606801	-0.416266
O8	O	1.130416	-0.408284	-0.552142
O9	O	1.369502	-0.644521	-0.580457
O10	O	1.218145	-0.436864	-0.676547
O11	O	1.150654	-0.504966	-0.404060
O12	O	0.984382	-0.498366	-0.521926
O13	O	1.077250	-0.632920	-0.787627
O14	O	0.961464	-0.595200	-0.623437
O15	O	1.187897	-0.564666	-0.810522
O16	O	1.223469	-0.734603	-0.550240
O17	O	1.097488	-0.729602	-0.639546
C18	C	0.941358	-0.541824	-0.567498
C19	C	0.844661	-0.526650	-0.551637
C20	C	0.524506	-0.685796	-0.717981
C21	C	0.615358	-0.700057	-0.732881
C22	C	0.672688	-0.656707	-0.687571
C23	C	0.639157	-0.599092	-0.627359
C24	C	0.548297	-0.584832	-0.612453
C25	C	0.696479	-0.555743	-0.582043
C26	C	0.662949	-0.498128	-0.521832
C27	C	0.572097	-0.483871	-0.506929
C28	C	0.514767	-0.527222	-0.552238
C29	C	0.787340	-0.570003	-0.596949
C30	C	0.811131	-0.469039	-0.491422
C31	C	0.720279	-0.454778	-0.476522
C32	C	1.159378	-0.757230	-0.593337
C33	C	1.156030	-0.834204	-0.588553
C34	C	1.200083	-0.885185	-0.651115
C35	C	1.196933	-0.957510	-0.646620
C36	C	1.149734	-0.978853	-0.579560
C37	C	1.105676	-0.927866	-0.516995
C38	C	1.108821	-0.855543	-0.521494
C39	C	1.137950	-1.196483	-0.562738
C40	C	1.134810	-1.268813	-0.558242
C41	C	1.226067	-1.298452	-0.687869
C42	C	1.229212	-1.226125	-0.692358
C43	C	1.185150	-1.175145	-0.629796
C44	C	1.146516	-1.052781	-0.574963
C45	C	1.188364	-1.101218	-0.634398
C46	C	1.394283	-0.612992	-0.641885
C47	C	1.490975	-0.628185	-0.657766
C48	C	1.126766	-0.602373	-0.831522
C49	C	1.109459	-0.613041	-0.928214
C50	C	1.175432	-0.396750	-0.615968
C51	C	1.178863	-0.319794	-0.620804
C52	C	1.291113	-0.500975	-1.248455
C53	C	1.307379	-0.490953	-1.157608
C54	C	1.257900	-0.521474	-1.100255
C55	C	1.192153	-0.562018	-1.133758
C56	C	1.175890	-0.572045	-1.224614
C57	C	1.142677	-0.592545	-1.076414
C58	C	1.076930	-0.633089	-1.109917
C59	C	1.060669	-0.643114	-1.200764
C60	C	1.110148	-0.612593	-1.258117
C61	C	1.158940	-0.582518	-0.985558
C62	C	1.043717	-0.653589	-0.961717
C63	C	1.027451	-0.663610	-1.052564
C64	C	1.207887	-0.552359	-0.378610
C65	C	1.225371	-0.541522	-0.281958
H66	H	0.814631	-0.616913	-0.645975
C67	C	1.252007	-0.861716	-0.724886
N68	N	1.291116	-0.844041	-0.780454
H69	H	0.440787	-0.515612	-0.540112
C70	C	1.275789	-0.510442	-1.000321
N71	N	1.289262	-0.502127	-0.925046
C72	C	0.535217	-0.420494	-0.440692
N73	N	0.507440	-0.372756	-0.390805
C74	C	0.988348	-0.687718	-1.237614
N75	N	0.933874	-0.721312	-1.265368
H76	H	1.072947	-0.814033	-0.470550
C77	C	1.281153	-1.202655	-0.766117
N78	N	1.320285	-1.184978	-0.821666
H79	H	1.003429	-0.678443	-0.915020
H80	H	0.642652	-0.746969	-0.781903
H81	H	0.692966	-0.407867	-0.427497
C82	C	1.345528	-0.467403	-1.311547
N83	N	1.386514	-0.442112	-1.359069
C84	C	1.245409	-1.013587	-0.715434
N85	N	1.281927	-1.055825	-0.767265
C86	C	0.874191	-0.421349	-0.441580
N87	N	0.921692	-0.385432	-0.404042
C88	C	1.274525	-1.354535	-0.756687
N89	N	1.311022	-1.396778	-0.808527
H90	H	0.477821	-0.721089	-0.754860
C91	C	1.379692	-0.446349	-1.120761
N92	N	1.434159	-0.412747	-1.093008
C93	C	1.092270	-0.623626	-1.358057
N94	N	1.078811	-0.631940	-1.433334
C95	C	0.955128	-0.708207	-1.089429
N96	N	0.900654	-0.741795	-1.117197
H97	H	0.746663	-0.668322	-0.699706
H98	H	1.102075	-1.154980	-0.511796
C99	C	1.053819	-0.951349	-0.443184
N100	N	1.014785	-0.969036	-0.387569
C101	C	1.082882	-1.292287	-0.484470
N102	N	1.043771	-1.309968	-0.428908
H103	H	1.226789	-1.083839	-0.689001
H104	H	1.108089	-1.070167	-0.520360
H105	H	1.212472	-0.549506	-0.958290
