data_functionalizedCrystal
_audit_creation_method	'MofGen! by Chris Wilmer'
_symmetry_space_group_name_H-M	'P1'
_symmetry_Int_Tables_number	1
_symmetry_cell_setting	triclinic
loop_
_symmetry_equiv_pos_as_xyz
  x,y,z
_cell_length_a	7.681481
_cell_length_b	16.109301
_cell_length_c	16.109301
_cell_angle_alpha	83.461481
_cell_angle_beta	84.258119
_cell_angle_gamma	95.724535
loop_
_atom_site_label
_atom_site_type_symbol
_atom_site_fract_x
_atom_site_fract_y
_atom_site_fract_z
O1	O	0.146325	-1.095274	-0.114735
O2	O	0.646325	-0.595274	0.385265
O3	O	0.146354	-0.853211	-0.128036
O4	O	0.646354	-0.353211	0.371964
O5	O	0.146321	-0.980893	-0.000353
O6	O	0.646321	-0.480893	0.499647
O7	O	0.146358	-0.967592	-0.242417
O8	O	0.646358	-0.467592	0.257583
O9	O	-0.146541	-0.996609	0.015398
O10	O	0.353459	-0.496609	0.515398
O11	O	-0.146508	-0.868926	-0.112285
O12	O	0.353492	-0.368926	0.387715
O13	O	-0.146537	-1.110990	-0.098984
O14	O	0.353463	-0.610990	0.401016
Zn15	Zn	-0.193021	-0.992453	-0.103133
Zn16	Zn	0.306979	-0.492453	0.396867
Zn17	Zn	0.192838	-0.971747	-0.123886
Zn18	Zn	0.692838	-0.471747	0.376114
O19	O	-0.146504	-0.983307	-0.226666
O20	O	0.353496	-0.483307	0.273334
C21	C	-0.000074	-0.830093	-0.119622
C22	C	0.499926	-0.330093	0.380378
C23	C	-0.000063	-0.737798	-0.118007
C24	C	0.499937	-0.237798	0.381993
N25	N	-0.456358	-1.006591	-0.088970
N26	N	0.043642	-0.506591	0.411030
C27	C	-0.000111	-0.988212	0.038497
C28	C	0.499889	-0.488212	0.538497
C29	C	-0.000113	-0.986597	0.130792
C30	C	0.499887	-0.486597	0.630792
N31	N	0.456175	-0.957617	-0.138043
N32	N	0.956175	-0.457617	0.361957
C33	C	-0.000105	-1.134107	-0.107398
C34	C	0.499895	-0.634107	0.392602
C35	C	-0.000104	-1.226402	-0.109013
C36	C	0.499896	-0.726402	0.390987
C37	C	-0.000073	-0.515526	-0.190014
C38	C	0.499927	-0.015526	0.309986
C39	C	-0.000084	-0.428806	-0.188490
C40	C	0.499916	0.071194	0.311510
C41	C	-0.000100	-0.448681	-0.037000
C42	C	0.499900	0.051319	0.463000
C43	C	-0.000101	-0.535400	-0.038525
C44	C	0.499899	-0.035400	0.461475
C45	C	-0.000079	-0.568819	-0.115035
C46	C	0.499921	-0.068819	0.384965
C47	C	-0.000089	-0.395381	-0.111986
C48	C	0.499911	0.104619	0.388014
C49	C	-0.000101	-0.301355	-0.110332
C50	C	0.499899	0.198645	0.389668
C51	C	-0.000069	-0.662851	-0.116689
C52	C	0.499931	-0.162851	0.383311
C53	C	-0.000068	-0.975988	-0.265517
C54	C	0.499932	-0.475988	0.234483
C55	C	-0.000054	-0.977602	-0.357813
C56	C	0.499946	-0.477602	0.142187
C57	C	-0.000094	-1.058604	0.353064
C58	C	0.499906	-0.558604	0.853064
C59	C	-0.000079	-1.057079	0.439783
C60	C	0.499921	-0.557079	0.939783
C61	C	-0.000068	-0.905590	0.419908
C62	C	0.499932	-0.405590	0.919908
C63	C	-0.000070	-0.907115	0.333190
C64	C	0.499930	-0.407115	0.833190
C65	C	-0.000092	-0.983625	0.299771
C66	C	0.499908	-0.483625	0.799771
C67	C	-0.000075	-0.980575	0.473209
C68	C	0.499925	-0.480575	0.973209
C69	C	-0.000060	-0.978921	0.567234
C70	C	0.499940	-0.478921	1.067234
C71	C	-0.000105	-0.985279	0.205739
C72	C	0.499895	-0.485279	0.705739
H73	H	-0.468615	-0.907624	-0.188133
H74	H	0.031385	-0.407624	0.311867
H75	H	-0.000111	-0.578794	0.022536
H76	H	0.499889	-0.078794	0.522536
H77	H	-0.000108	-1.120903	0.325857
H78	H	0.499892	-0.620903	0.825857
C79	C	-0.000097	-1.139563	0.498404
C80	C	0.499903	-0.639563	0.998404
N81	N	-0.000114	-1.201694	0.542557
N82	N	0.499886	-0.701694	1.042557
H83	H	-0.000064	-0.846054	0.289796
H84	H	0.499936	-0.346054	0.789796
C85	C	-0.557971	-1.074137	-0.021300
C86	C	-0.057971	-0.574137	0.478700
N87	N	-0.634507	-1.125011	0.029670
N88	N	-0.134507	-0.625011	0.529670
C89	C	-0.000070	-0.552285	-0.274176
C90	C	0.499930	-0.052285	0.225824
N91	N	-0.000077	-0.579969	-0.337569
N92	N	0.499923	-0.079969	0.162431
H93	H	-0.000129	-0.421461	0.025292
H94	H	0.499871	0.078539	0.525292
C95	C	-0.000086	-0.370187	-0.270973
C96	C	0.499914	0.129813	0.229027
N97	N	-0.000092	-0.326035	-0.333103
N98	N	0.499908	0.173965	0.166897
H99	H	-0.000054	-0.843298	0.447130
H100	H	0.499946	-0.343298	0.947130
