data_functionalizedCrystal
_audit_creation_method	'MofGen! by Chris Wilmer'
_symmetry_space_group_name_H-M	'P1'
_symmetry_Int_Tables_number	1
_symmetry_cell_setting	triclinic
loop_
_symmetry_equiv_pos_as_xyz
  x,y,z
_cell_length_a	17.640968
_cell_length_b	17.640112
_cell_length_c	17.640280
_cell_angle_alpha	87.815931
_cell_angle_beta	65.682561
_cell_angle_gamma	87.860920
loop_
_atom_site_label
_atom_site_type_symbol
_atom_site_fract_x
_atom_site_fract_y
_atom_site_fract_z
Zn1	Zn	-0.189698	-1.251359	-0.023073
Zn2	Zn	-0.024069	-1.251298	-0.188752
Zn3	Zn	-0.076159	-1.106797	-0.075311
Zn4	Zn	-0.179117	-1.148399	-0.178182
O5	O	-0.117261	-1.189463	-0.116329
O6	O	-0.150355	-1.354914	-0.027613
O7	O	0.081425	-1.214694	-0.199989
O8	O	-0.117448	-1.108588	0.044008
O9	O	-0.028669	-1.354870	-0.149337
O10	O	-0.200865	-1.214797	0.082386
O11	O	0.043155	-1.108529	-0.116644
O12	O	-0.107188	-1.008752	-0.106394
O13	O	-0.292925	-1.179493	-0.131321
O14	O	-0.182831	-1.039317	-0.181973
O15	O	-0.300699	-1.255137	-0.017364
O16	O	-0.018409	-1.255033	-0.299739
O17	O	-0.132322	-1.179434	-0.291973
C18	C	-0.149514	-0.997182	-0.148705
C19	C	-0.163327	-0.914929	-0.162571
C20	C	-0.326772	-1.221962	-0.067336
C21	C	-0.416053	-1.235811	-0.046458
C22	C	-0.068579	-1.221764	-0.324990
C23	C	-0.047768	-1.235655	-0.414238
C24	C	-0.689444	-1.084469	-0.274453
C25	C	-0.773337	-1.097496	-0.254822
C26	C	-0.781421	-1.176258	-0.136168
C27	C	-0.697528	-1.163234	-0.155787
C28	C	-0.651546	-1.117340	-0.224930
C29	C	-0.659630	-1.196105	-0.106264
C30	C	-0.575743	-1.183085	-0.125884
C31	C	-0.529754	-1.137195	-0.195026
C32	C	-0.567659	-1.104320	-0.244550
C33	C	-0.705612	-1.242004	-0.037124
C34	C	-0.667713	-1.274874	0.012398
C35	C	-0.583827	-1.261851	-0.007218
C36	C	-0.537838	-1.215960	-0.076360
C37	C	-0.545922	-1.294725	0.042306
C38	C	-0.462035	-1.281706	0.022686
C39	C	-0.453951	-1.202940	-0.095980
C40	C	0.091429	-1.157124	-0.165067
C41	C	0.180681	-1.143383	-0.185695
C42	C	-0.084882	-1.382495	-0.083827
C43	C	-0.071084	-1.464754	-0.069977
C44	C	-0.012337	-0.564743	-0.010979
C45	C	-0.025323	-0.487458	-0.024022
C46	C	-0.103880	-0.519334	-0.102905
C47	C	-0.090904	-0.596623	-0.089865
C48	C	-0.045131	-0.619321	-0.043903
C49	C	-0.123697	-0.651201	-0.122789
C50	C	-0.110718	-0.728483	-0.109754
C51	C	-0.064946	-0.751188	-0.063796
C52	C	-0.032152	-0.696603	-0.030868
C53	C	-0.169465	-0.628502	-0.168756
C54	C	-0.202259	-0.683080	-0.201680
C55	C	-0.189285	-0.760364	-0.188640
C56	C	-0.143512	-0.783068	-0.142682
C57	C	-0.222079	-0.814949	-0.221568
C58	C	-0.209100	-0.892231	-0.208534
C59	C	-0.130533	-0.860351	-0.129647
C60	C	-0.275600	-1.084287	-0.687787
C61	C	-0.256019	-1.097337	-0.771655
C62	C	-0.137496	-1.176134	-0.779643
C63	C	-0.157069	-1.163094	-0.695773
C64	C	-0.226122	-1.117169	-0.649852
C65	C	-0.107591	-1.195976	-0.657837
C66	C	-0.127160	-1.182933	-0.573976
C67	C	-0.196208	-1.137009	-0.528050
C68	C	-0.245691	-1.104127	-0.565990
C69	C	-0.038535	-1.241896	-0.703761
C70	C	0.010944	-1.274778	-0.665825
C71	C	-0.008629	-1.261740	-0.581961
C72	C	-0.077677	-1.215815	-0.536035
C73	C	0.040854	-1.294622	-0.544020
C74	C	0.021285	-1.281579	-0.460159
C75	C	-0.097246	-1.202773	-0.452173
C76	C	-0.166147	-1.157059	0.093153
C77	C	-0.186980	-1.143250	0.182422
H78	H	-0.416517	-1.165548	-0.152268
Br79	Br	-0.608331	-1.357020	0.136130
Br80	Br	0.019198	-0.413387	0.020656
Br81	Br	-0.505250	-1.042024	-0.338382
Br82	Br	-0.415904	-1.119530	-0.221662
H83	H	-0.141145	-0.500842	-0.140330
Br84	Br	-0.730123	-1.337162	0.106229
H85	H	-0.239524	-0.664588	-0.239106
Br86	Br	0.049774	-0.595554	0.051409
Br87	Br	-0.819458	-1.259679	-0.010501
H88	H	-0.054377	-0.814117	-0.053186
H89	H	-0.093275	-0.878832	-0.092205
Br90	Br	-0.222942	-1.119525	-0.414157
Br91	Br	-0.410594	-1.326321	0.089890
Br92	Br	0.104654	-1.337102	-0.728153
H93	H	0.061576	-1.308354	-0.429272
Br94	Br	-0.323166	-1.052693	-0.823142
H95	H	0.005106	-0.715084	0.006574
H96	H	-0.180031	-0.565572	-0.179368
H97	H	-0.652010	-1.047076	-0.330740
Br98	Br	-0.824769	-1.052880	-0.322038
H99	H	-0.818870	-1.213628	-0.079873
H100	H	-0.081271	-1.213523	-0.817044
Br101	Br	-0.284173	-0.784134	-0.283967
Br102	Br	-0.253600	-0.966306	-0.253221
Br103	Br	-0.339415	-1.041811	-0.503657
H104	H	-0.153481	-1.165383	-0.414780
Br105	Br	-0.369324	-1.021971	-0.625454
H106	H	-0.022606	-1.252515	-0.772045
Br107	Br	0.134571	-1.356937	-0.606354
