data_functionalizedCrystal
_audit_creation_method	'MofGen! by Chris Wilmer'
_symmetry_space_group_name_H-M	'P1'
_symmetry_Int_Tables_number	1
_symmetry_cell_setting	triclinic
loop_
_symmetry_equiv_pos_as_xyz
  x,y,z
_cell_length_a	15.297475
_cell_length_b	21.295417
_cell_length_c	15.296720
_cell_angle_alpha	99.638166
_cell_angle_beta	91.617114
_cell_angle_gamma	80.332118
loop_
_atom_site_label
_atom_site_type_symbol
_atom_site_fract_x
_atom_site_fract_y
_atom_site_fract_z
Zn1	Zn	1.253315	-0.489896	-0.726513
Zn2	Zn	1.278561	-0.580536	-0.580012
Zn3	Zn	1.132199	-0.454534	-0.554760
Zn4	Zn	1.106789	-0.574348	-0.701142
O5	O	1.192716	-0.524829	-0.640607
O6	O	1.379239	-0.519309	-0.728265
O7	O	1.280346	-0.551612	-0.454090
O8	O	1.148333	-0.371150	-0.577592
O9	O	1.397787	-0.585901	-0.620632
O10	O	1.237317	-0.397130	-0.703779
O11	O	1.172814	-0.459039	-0.435537
O12	O	1.006253	-0.453039	-0.552991
O13	O	1.105026	-0.575355	-0.827080
O14	O	0.987585	-0.541066	-0.660538
O15	O	1.212678	-0.513309	-0.845720
O16	O	1.255707	-0.667790	-0.596031
O17	O	1.129506	-0.663244	-0.685025
C18	C	0.965136	-0.492545	-0.601272
C19	C	0.867773	-0.478750	-0.584465
C20	C	0.554602	-0.623422	-0.760730
C21	C	0.646080	-0.636386	-0.776518
C22	C	0.701507	-0.596978	-0.728507
C23	C	0.665449	-0.544604	-0.664703
C24	C	0.573963	-0.531641	-0.648908
C25	C	0.720868	-0.505198	-0.616685
C26	C	0.684809	-0.452823	-0.552882
C27	C	0.593332	-0.439862	-0.537090
C28	C	0.537904	-0.479270	-0.585102
C29	C	0.812354	-0.518160	-0.632480
C30	C	0.831715	-0.426380	-0.520659
C31	C	0.740237	-0.413415	-0.504870
C32	C	1.192609	-0.688359	-0.640538
C33	C	1.192639	-0.758333	-0.640552
C34	C	1.258392	-0.793558	-0.594279
C35	C	1.258429	-0.859308	-0.594306
C36	C	1.192700	-0.889827	-0.640594
C37	C	1.126942	-0.854594	-0.686877
C38	C	1.126911	-0.788847	-0.686856
N39	N	1.114918	-0.982893	-0.634027
N40	N	1.114951	-1.045351	-0.634042
C41	C	1.192790	-1.087921	-0.640661
N42	N	1.270600	-1.065673	-0.647247
N43	N	1.270567	-1.003210	-0.647228
C44	C	1.192726	-0.961119	-0.640622
C45	C	1.258588	-1.194441	-0.594415
C46	C	1.258626	-1.260193	-0.594448
C47	C	1.127132	-1.255477	-0.687013
C48	C	1.127101	-1.189727	-0.686986
C49	C	1.192829	-1.159213	-0.640682
C50	C	1.421184	-0.557239	-0.680096
C51	C	1.518543	-0.571051	-0.696923
C52	C	1.153201	-0.547586	-0.869070
C53	C	1.136362	-0.557284	-0.966428
C54	C	1.192843	-0.360665	-0.640699
C55	C	1.192898	-0.290708	-0.640738
C56	C	1.313098	-0.455410	-1.279682
C57	C	1.328925	-0.446300	-1.188211
C58	C	1.280785	-0.474045	-1.132761
C59	C	1.216817	-0.510902	-1.168791
C60	C	1.200994	-0.520017	-1.260272
C61	C	1.168681	-0.538652	-1.113350
C62	C	1.104713	-0.575509	-1.149380
C63	C	1.088892	-0.584622	-1.240852
C64	C	1.137031	-0.556877	-1.296302
C65	C	1.184504	-0.529537	-1.021869
C66	C	1.072400	-0.594144	-1.002458
C67	C	1.056573	-0.603254	-1.093930
C68	C	1.232127	-0.502121	-0.413041
C69	C	1.249136	-0.492270	-0.315713
H70	H	0.710865	-0.370771	-0.452921
F71	F	1.252582	-0.490313	-0.983534
F72	F	1.056925	-0.751356	-0.736108
F73	F	1.120194	-0.566574	-1.393659
F74	F	0.440540	-0.465472	-0.568306
F75	F	1.297630	-0.464348	-1.035409
H76	H	1.036812	-0.614639	-1.270186
H77	H	1.033202	-0.616738	-0.957311
H78	H	1.312110	-1.169596	-0.556715
F79	F	0.554959	-0.384124	-0.469179
H80	H	0.876845	-0.394291	-0.481562
F81	F	0.798866	-0.610777	-0.745313
H82	H	1.311913	-0.768716	-0.556579
H83	H	1.311976	-0.887995	-0.556626
H84	H	1.073426	-0.879448	-0.724567
H85	H	1.073617	-1.280325	-0.724706
H86	H	1.312175	-1.288874	-0.556770
F87	F	0.988496	-0.642479	-1.132287
F88	F	1.397002	-0.407077	-1.149872
F89	F	0.684450	-0.692126	-0.844418
F90	F	0.850720	-0.573900	-0.700382
H91	H	1.352292	-0.432829	-1.324838
F92	F	0.495611	-0.665365	-0.811804
F93	F	1.057114	-1.152235	-0.736233
