data_functionalizedCrystal
_audit_creation_method	'MofGen! by Chris Wilmer'
_symmetry_space_group_name_H-M	'P1'
_symmetry_Int_Tables_number	1
_symmetry_cell_setting	triclinic
loop_
_symmetry_equiv_pos_as_xyz
  x,y,z
_cell_length_a	15.944551
_cell_length_b	16.109301
_cell_length_c	14.586319
_cell_angle_alpha	90.005214
_cell_angle_beta	89.999016
_cell_angle_gamma	83.480110
loop_
_atom_site_label
_atom_site_type_symbol
_atom_site_fract_x
_atom_site_fract_y
_atom_site_fract_z
O1	O	-1.114488	-0.107227	-0.076148
O2	O	-0.869934	-0.120447	-0.076171
O3	O	-0.998929	0.007192	-0.076149
O4	O	-0.985492	-0.234866	-0.076169
O5	O	-0.998920	0.007194	0.076332
O6	O	-0.869925	-0.120445	0.076310
O7	O	-1.114479	-0.107225	0.076333
Cu8	Cu	-0.992201	-0.113835	0.090244
Cu9	Cu	-0.992211	-0.113837	-0.090082
O10	O	-0.985484	-0.234864	0.076312
C11	C	-0.998380	0.038168	0.000091
C12	C	-0.996748	0.130464	0.000093
C13	C	-0.838635	-0.119897	0.000067
C14	C	-0.745390	-0.118252	0.000058
C15	C	-1.145777	-0.107775	0.000094
C16	C	-1.239022	-0.109420	0.000096
C17	C	-0.530561	-0.035203	0.000083
C18	C	-0.469532	-0.073769	-0.075101
C19	C	-0.574665	-0.115275	0.000069
C20	C	-0.469546	-0.073786	0.075233
C21	C	-0.409753	-0.112394	0.000084
C22	C	-0.514865	-0.153864	-0.075177
C23	C	-0.514884	-0.153870	0.075225
C24	C	-0.453874	-0.192494	0.000022
C25	C	-0.669667	-0.116933	0.000060
C26	C	-0.314753	-0.110743	0.000087
C27	C	-0.986032	-0.265840	0.000069
C28	C	-0.987664	-0.358136	0.000062
N29	N	-0.992200	-0.113833	0.217076
C30	C	-1.069497	0.352712	0.000085
C31	C	-1.067958	0.439433	0.000077
C32	C	-0.914909	0.419608	0.000066
C33	C	-0.916450	0.332889	0.000068
C34	C	-0.993746	0.299444	0.000082
C35	C	-0.990666	0.472884	0.000073
C36	C	-0.988996	0.566910	0.000064
C37	C	-0.995417	0.205411	0.000088
N38	N	-0.992219	-0.113833	-0.216914
C39	C	-1.049337	-0.057333	0.452092
C40	C	-1.049340	-0.057331	0.548073
C41	C	-0.935075	-0.170335	0.548064
C42	C	-0.935070	-0.170332	0.452084
C43	C	-0.992205	-0.113833	0.404101
C44	C	-0.992214	-0.113833	0.596062
C45	C	-0.992216	-0.113831	0.700129
C46	C	-0.992202	-0.113833	0.300027
H47	H	-0.563915	0.031251	-0.000005
H48	H	-0.854760	0.289515	0.000062
Br49	Br	-0.810012	0.465004	0.000045
Br50	Br	-1.126875	0.019353	0.613203
Br51	Br	-1.126877	0.019346	0.386975
Br52	Br	-0.548416	-0.210272	0.181164
H53	H	-0.888558	-0.216337	0.587141
H54	H	-1.132437	0.325484	0.000094
Br55	Br	-1.170767	0.511724	0.000077
H56	H	-0.888542	-0.216341	0.413007
H57	H	-0.534845	-0.187707	-0.138809
H58	H	-0.449437	-0.039902	-0.138659
H59	H	-0.420693	-0.259016	-0.000026
H60	H	-0.449467	-0.039903	0.138793
