data_functionalizedCrystal
_audit_creation_method	'MofGen! by Chris Wilmer'
_symmetry_space_group_name_H-M	'P1'
_symmetry_Int_Tables_number	1
_symmetry_cell_setting	triclinic
loop_
_symmetry_equiv_pos_as_xyz
  x,y,z
_cell_length_a	12.594517
_cell_length_b	12.594516
_cell_length_c	16.120297
_cell_angle_alpha	87.123207
_cell_angle_beta	87.115035
_cell_angle_gamma	90.018129
loop_
_atom_site_label
_atom_site_type_symbol
_atom_site_fract_x
_atom_site_fract_y
_atom_site_fract_z
Zn1	Zn	1.596732	-0.454279	0.471266
Zn2	Zn	1.605644	-0.623247	0.331865
Zn3	Zn	1.427762	-0.445284	0.331885
Zn4	Zn	1.418713	-0.632214	0.471248
O5	O	1.512213	-0.538756	0.401566
O6	O	1.746860	-0.476704	0.452773
O7	O	1.589564	-0.592123	0.215203
O8	O	1.450234	-0.297532	0.350390
O9	O	1.753408	-0.600844	0.350356
O10	O	1.574375	-0.304141	0.452793
O11	O	1.458876	-0.461374	0.215218
O12	O	1.277616	-0.470069	0.350372
O13	O	1.434810	-0.616128	0.587914
O14	O	1.270967	-0.607406	0.452762
O15	O	1.565600	-0.485399	0.587928
O16	O	1.580789	-0.773381	0.350338
O17	O	1.443452	-0.779969	0.452742
C18	C	1.235672	-0.538736	0.401568
C19	C	1.117365	-0.538754	0.401588
C20	C	0.973769	-0.613573	0.457175
C21	C	1.049466	-0.634546	0.381088
C22	C	1.043240	-0.517828	0.477667
C23	C	0.982280	-0.559807	0.325436
C24	C	0.976044	-0.443047	0.422067
C25	C	1.051713	-0.463979	0.345927
C26	C	1.512133	-0.815296	0.401554
C27	C	1.512195	-0.933603	0.401577
C28	C	1.437557	-1.077240	0.457247
C29	C	1.533268	-1.007655	0.477692
C30	C	1.416492	-1.001619	0.381169
C31	C	1.608127	-1.074808	0.422093
C32	C	1.491287	-1.068776	0.325535
C33	C	1.587067	-0.999221	0.345951
C34	C	1.789834	-0.538777	0.401564
C35	C	1.908139	-0.538786	0.401564
C36	C	1.498202	-0.552767	0.619016
C37	C	1.492231	-0.558738	0.711681
C38	C	1.512320	-0.261137	0.401596
C39	C	1.512366	-0.142832	0.401608
C40	C	1.526230	-0.524723	0.184961
C41	C	1.532407	-0.518452	0.092297
C42	C	1.481291	-0.569615	0.881340
C43	C	1.543344	-0.507578	0.922643
C44	C	1.537257	-0.513630	1.017047
C45	C	1.487377	-0.563564	0.786927
H46	H	0.955472	-0.577619	0.261069
H47	H	1.423601	-0.627268	0.916877
H48	H	1.085625	-0.400717	0.298855
O49	O	0.937620	-0.346548	0.442919
C50	C	0.968461	-0.324767	0.523218
H51	H	0.986014	-0.402570	0.559089
H52	H	1.042844	-0.272772	0.518034
C53	C	0.856399	-0.170553	0.525425
C54	C	0.877949	-0.266113	0.569484
H55	H	0.800570	-0.134368	0.553963
H56	H	0.835623	-0.185224	0.471324
H57	H	0.918392	-0.127237	0.521107
H58	H	0.815960	-0.309433	0.573792
H59	H	0.898712	-0.251448	0.623587
O60	O	1.612067	-0.438640	0.880297
C61	C	1.587526	-0.333892	0.901521
H62	H	1.500978	-0.330018	0.925508
H63	H	1.641405	-0.309257	0.951999
C64	C	1.711148	-0.262742	0.794652
C65	C	1.604845	-0.257981	0.824107
H66	H	1.721835	-0.215914	0.746901
H67	H	1.727685	-0.333312	0.780355
H68	H	1.756035	-0.242214	0.836725
H69	H	1.559961	-0.278521	0.782038
H70	H	1.588300	-0.187412	0.838395
O71	O	1.075432	-0.496873	0.554455
C72	C	1.136592	-0.582516	0.585214
H73	H	1.115626	-0.657592	0.552831
H74	H	1.224663	-0.563751	0.572639
C75	C	1.138502	-0.507792	0.719319
C76	C	1.112745	-0.600003	0.679550
H77	H	1.123797	-0.518577	0.777511
H78	H	1.097301	-0.450090	0.698596
H79	H	1.211894	-0.492164	0.708832
H80	H	1.039352	-0.615622	0.690030
H81	H	1.153933	-0.657708	0.700278
O82	O	0.933133	-0.689223	0.513102
C83	C	0.970635	-0.790016	0.491192
H84	H	0.994960	-0.787430	0.422040
H85	H	1.042274	-0.812460	0.528808
C86	C	0.852093	-0.876472	0.594792
C87	C	0.881961	-0.873297	0.509856
H88	H	0.797398	-0.927845	0.606308
H89	H	0.826830	-0.808566	0.609556
H90	H	0.911800	-0.895171	0.626129
H91	H	0.822258	-0.854585	0.478522
H92	H	0.907212	-0.941202	0.495087
H93	H	1.081674	-0.715496	0.363750
O94	O	1.662668	-0.958773	0.289897
C95	C	1.763464	-0.996343	0.311728
H96	H	1.760973	-1.020532	0.380900
H97	H	1.785753	-1.068084	0.274171
C98	C	1.849880	-0.878086	0.207908
C99	C	1.846824	-0.907787	0.292868
H100	H	1.901302	-0.823464	0.196272
H101	H	1.781972	-0.852777	0.193198
H102	H	1.868451	-0.937879	0.176621
H103	H	1.828240	-0.847999	0.324153
H104	H	1.914730	-0.933085	0.307583
H105	H	1.689153	-1.106790	0.439442
H106	H	1.374438	-1.111379	0.504348
H107	H	1.551031	-0.980647	0.542012
H108	H	1.335484	-0.969509	0.363896
O109	O	1.469876	-1.100989	0.248850
C110	C	1.368773	-1.063715	0.227547
H111	H	1.318970	-1.047665	0.286592
H112	H	1.378079	-0.987077	0.187094
C113	C	1.374209	-1.167920	0.106642
C114	C	1.313036	-1.148215	0.179163
H115	H	1.339828	-1.220041	0.076793
H116	H	1.442325	-1.193030	0.120992
H117	H	1.381958	-1.104048	0.072941
H118	H	1.305299	-1.212083	0.212867
H119	H	1.244917	-1.123119	0.164818
