data_functionalizedCrystal
_audit_creation_method	'MofGen! by Chris Wilmer'
_symmetry_space_group_name_H-M	'P1'
_symmetry_Int_Tables_number	1
_symmetry_cell_setting	triclinic
loop_
_symmetry_equiv_pos_as_xyz
  x,y,z
_cell_length_a	27.732048
_cell_length_b	27.732048
_cell_length_c	26.809956
_cell_angle_alpha	89.999364
_cell_angle_beta	89.996742
_cell_angle_gamma	82.642655
loop_
_atom_site_label
_atom_site_type_symbol
_atom_site_fract_x
_atom_site_fract_y
_atom_site_fract_z
O1	O	0.640931	0.057510	-0.041421
O2	O	1.140931	0.557510	0.458579
O3	O	0.500138	0.066256	-0.041436
O4	O	1.000138	0.566256	0.458564
O5	O	0.574907	-0.008514	-0.041419
O6	O	1.074907	0.491486	0.458581
O7	O	0.566162	0.132280	-0.041439
O8	O	1.066162	0.632280	0.458561
O9	O	0.574893	-0.008502	0.041541
O10	O	1.074893	0.491498	0.541541
O11	O	0.500123	0.066267	0.041523
O12	O	1.000123	0.566267	0.541523
O13	O	0.640917	0.057522	0.041539
O14	O	1.140917	0.557522	0.541539
Zn15	Zn	0.570518	0.061896	0.054702
Zn16	Zn	1.070518	0.561896	0.554702
Zn17	Zn	0.570536	0.061881	-0.054600
Zn18	Zn	1.070536	0.561881	0.445400
O19	O	0.566147	0.132291	0.041521
O20	O	1.066147	0.632291	0.541521
C21	C	0.482124	0.066078	0.000041
C22	C	0.982124	0.566078	0.500041
C23	C	0.428469	0.065525	0.000036
C24	C	0.928469	0.565525	0.500036
C25	C	0.574716	-0.026515	0.000062
C26	C	1.074716	0.473485	0.500062
C27	C	0.574164	-0.080170	0.000066
C28	C	1.074164	0.419830	0.500066
C29	C	0.089654	0.106229	0.000051
C30	C	0.589654	0.606229	0.500051
C31	C	-0.112006	0.104178	0.000056
C32	C	0.387994	0.604178	0.500056
O33	O	-0.143262	0.141398	0.000073
O34	O	0.356738	0.641398	0.500073
N35	N	-0.131130	0.059843	0.000062
N36	N	0.368870	0.559843	0.500062
C37	C	-0.099835	0.016017	0.000069
C38	C	0.400165	0.516017	0.500069
O39	O	-0.120728	-0.021740	0.000079
O40	O	0.379272	0.478260	0.500079
C41	C	0.101824	0.018068	0.000068
C42	C	0.601824	0.518068	0.500068
C43	C	0.120944	0.062407	0.000057
C44	C	0.620944	0.562407	0.500057
C45	C	0.108775	0.150563	0.000042
C46	C	0.608775	0.650563	0.500042
C47	C	0.159187	0.151076	0.000038
C48	C	0.659187	0.651076	0.500038
C49	C	0.190477	0.107253	0.000044
C50	C	0.690477	0.607253	0.500044
C51	C	0.171356	0.062919	0.000054
C52	C	0.671356	0.562919	0.500054
C53	C	0.133117	-0.025757	0.000079
C54	C	0.633117	0.474243	0.500079
C55	C	0.183535	-0.025240	0.000080
C56	C	0.683535	0.474760	0.500080
C57	C	0.202655	0.019098	0.000069
C58	C	0.702655	0.519098	0.500069
C59	C	0.253059	0.019609	0.000056
C60	C	0.753059	0.519609	0.500056
N61	N	0.272183	0.063944	0.000050
N62	N	0.772183	0.563944	0.500050
C63	C	0.240892	0.107766	0.000044
C64	C	0.740892	0.607766	0.500044
C65	C	-0.205709	0.014943	0.000069
C66	C	0.294291	0.514943	0.500069
C67	C	-0.256124	0.014430	0.000068
C68	C	0.243876	0.514430	0.500068
C69	C	-0.268291	0.102591	0.000056
C70	C	0.231709	0.602591	0.500056
C71	C	-0.217876	0.103104	0.000053
C72	C	0.282124	0.603104	0.500053
C73	C	-0.186585	0.059278	0.000063
C74	C	0.313415	0.559278	0.500063
C75	C	0.346761	0.108839	0.000036
C76	C	0.846761	0.608839	0.500036
C77	C	0.397178	0.109347	0.000030
C78	C	0.897178	0.609347	0.500030
C79	C	0.409341	0.021186	0.000044
C80	C	0.909341	0.521186	0.500044
C81	C	0.358929	0.020678	0.000048
C82	C	0.858929	0.520678	0.500048
C83	C	0.327639	0.064508	0.000045
C84	C	0.827639	0.564508	0.500045
O85	O	0.284343	-0.017592	0.000045
O86	O	0.784343	0.482408	0.500045
O87	O	0.261794	0.145518	0.000045
O88	O	0.761794	0.645518	0.500045
C89	C	0.039242	0.105716	0.000055
C90	C	0.539242	0.605716	0.500055
C91	C	0.020120	0.061382	0.000065
C92	C	0.520120	0.561382	0.500065
C93	C	0.051411	0.017560	0.000071
C94	C	0.551411	0.517560	0.500071
C95	C	-0.030294	0.060869	0.000065
C96	C	0.469706	0.560869	0.500065
C97	C	-0.061585	0.104691	0.000059
C98	C	0.438415	0.604691	0.500059
C99	C	-0.042461	0.149026	0.000053
C100	C	0.457539	0.649026	0.500053
C101	C	0.007951	0.149539	0.000049
C102	C	0.507951	0.649539	0.500049
C103	C	0.032287	-0.026775	0.000077
C104	C	0.532287	0.473225	0.500077
C105	C	-0.018125	-0.027284	0.000080
C106	C	0.481875	0.472716	0.500080
C107	C	-0.049416	0.016538	0.000074
C108	C	0.450584	0.516538	0.500074
C109	C	0.614867	-0.418985	0.000045
C110	C	1.114867	0.081015	0.500045
C111	C	0.612816	-0.620645	0.000038
C112	C	1.112816	-0.120645	0.500038
O113	O	0.650037	-0.651900	0.000021
O114	O	1.150037	-0.151900	0.500021
N115	N	0.568481	-0.639768	0.000034
N116	N	1.068481	-0.139768	0.500034
C117	C	0.524656	-0.608474	0.000028
C118	C	1.024656	-0.108474	0.500028
O119	O	0.486899	-0.629367	0.000019
O120	O	0.986899	-0.129367	0.500019
C121	C	0.526707	-0.406815	0.000031
C122	C	1.026707	0.093185	0.500031
C123	C	0.571045	-0.387694	0.000041
C124	C	1.071045	0.112306	0.500041
C125	C	0.659202	-0.399864	0.000054
C126	C	1.159202	0.100136	0.500054
C127	C	0.659714	-0.349452	0.000059
C128	C	1.159714	0.150548	0.500059
C129	C	0.615892	-0.318161	0.000054
C130	C	1.115892	0.181839	0.500054
C131	C	0.571557	-0.337282	0.000045
C132	C	1.071557	0.162718	0.500045
C133	C	0.482882	-0.375521	0.000022
C134	C	0.982882	0.124479	0.500022
C135	C	0.483399	-0.325104	0.000021
C136	C	0.983399	0.174896	0.500021
C137	C	0.527737	-0.305983	0.000031
C138	C	1.027737	0.194017	0.500031
C139	C	0.528247	-0.255580	0.000045
C140	C	1.028247	0.244420	0.500045
N141	N	0.572583	-0.236456	0.000050
N142	N	1.072583	0.263544	0.500050
C143	C	0.616405	-0.267747	0.000054
C144	C	1.116405	0.232253	0.500054
C145	C	0.523582	-0.714348	0.000027
C146	C	1.023582	-0.214348	0.500027
C147	C	0.523069	-0.764762	0.000027
C148	C	1.023069	-0.264762	0.500027
C149	C	0.611230	-0.776930	0.000036
C150	C	1.111230	-0.276930	0.500036
C151	C	0.611742	-0.726514	0.000040
C152	C	1.111742	-0.226514	0.500040
C153	C	0.567917	-0.695224	0.000031
C154	C	1.067917	-0.195224	0.500031
C155	C	0.617477	-0.161878	0.000064
C156	C	1.117477	0.338122	0.500064
C157	C	0.617986	-0.111461	0.000071
C158	C	1.117986	0.388539	0.500071
C159	C	0.529825	-0.099298	0.000059
C160	C	1.029825	0.400702	0.500059
C161	C	0.529316	-0.149710	0.000055
C162	C	1.029316	0.350290	0.500055
C163	C	0.573147	-0.180999	0.000056
C164	C	1.073147	0.319001	0.500056
O165	O	0.491047	-0.224296	0.000057
O166	O	0.991047	0.275704	0.500057
O167	O	0.654156	-0.246844	0.000053
O168	O	1.154156	0.253156	0.500053
C169	C	0.614355	-0.469397	0.000041
C170	C	1.114355	0.030603	0.500041
C171	C	0.570021	-0.488518	0.000032
C172	C	1.070021	0.011482	0.500032
C173	C	0.526198	-0.457228	0.000027
C174	C	1.026198	0.042772	0.500027
C175	C	0.569508	-0.538933	0.000032
C176	C	1.069508	-0.038933	0.500032
C177	C	0.613330	-0.570223	0.000036
C178	C	1.113330	-0.070223	0.500036
C179	C	0.657665	-0.551100	0.000041
C180	C	1.157665	-0.051100	0.500041
C181	C	0.658177	-0.500688	0.000045
C182	C	1.158177	-0.000688	0.500045
C183	C	0.481863	-0.476351	0.000023
C184	C	0.981863	0.023649	0.500023
C185	C	0.481355	-0.526764	0.000019
C186	C	0.981355	-0.026764	0.500019
C187	C	0.525177	-0.558054	0.000023
C188	C	1.025177	-0.058054	0.500023
C189	C	0.658931	0.057699	0.000060
C190	C	1.158931	0.557699	0.500060
C191	C	0.712586	0.058252	0.000062
C192	C	1.212586	0.558252	0.500062
C193	C	0.566338	0.150292	0.000039
C194	C	1.066338	0.650292	0.500039
C195	C	0.566891	0.203947	0.000031
C196	C	1.066891	0.703947	0.500031
N197	N	0.570509	0.061906	0.129298
N198	N	1.070509	0.561906	0.629298
N199	N	0.570549	0.061867	-0.129196
N200	N	1.070549	0.561867	0.370804
C201	C	0.603640	0.028781	0.473932
C202	C	1.103640	0.528781	0.973932
C203	C	0.603652	0.028774	0.682810
C204	C	1.103652	0.528774	1.182810
O205	O	0.631801	0.000613	0.709820
O206	O	1.131801	0.500613	1.209820
N207	N	0.570539	0.061870	0.708925
N208	N	1.070539	0.561870	1.208925
C209	C	0.537419	0.094969	0.682818
C210	C	1.037419	0.594969	1.182818
O211	O	0.509252	0.123116	0.709824
O212	O	1.009252	0.623116	1.209824
C213	C	0.537406	0.094974	0.473941
C214	C	1.037406	0.594974	0.973941
C215	C	0.570524	0.061878	0.447829
C216	C	1.070524	0.561878	0.947829
C217	C	0.636755	-0.004312	0.447819
C218	C	1.136755	0.495688	0.947819
C219	C	0.636754	-0.004308	0.395603
C220	C	1.136754	0.495692	0.895603
C221	C	0.603637	0.028789	0.369500
C222	C	1.103637	0.528789	0.869500
C223	C	0.570522	0.061882	0.395612
C224	C	1.070522	0.561882	0.895612
C225	C	0.504284	0.128070	0.447835
C226	C	1.004284	0.628070	0.947835
C227	C	0.504283	0.128067	0.395613
C228	C	1.004283	0.628067	0.895613
C229	C	0.537401	0.094972	0.369500
C230	C	1.037401	0.594972	0.869500
C231	C	0.537405	0.094983	0.317293
C232	C	1.037405	0.594983	0.817293
N233	N	0.570517	0.061887	0.291177
N234	N	1.070517	0.561887	0.791177
C235	C	0.603633	0.028790	0.317281
C236	C	1.103633	0.528790	0.817281
C237	C	0.537429	0.094965	0.792481
C238	C	1.037429	0.594965	1.292481
C239	C	0.537433	0.094964	0.844700
C240	C	1.037433	0.594964	1.344700
C241	C	0.603665	0.028768	0.844689
C242	C	1.103665	0.528768	1.344689
C243	C	0.603663	0.028772	0.792469
C244	C	1.103663	0.528772	1.292469
C245	C	0.570542	0.061868	0.766366
C246	C	1.070542	0.561868	1.266366
C247	C	0.603628	0.028801	0.207623
C248	C	1.103628	0.528801	0.707623
C249	C	0.603625	0.028809	0.155402
C250	C	1.103625	0.528809	0.655402
C251	C	0.537392	0.095003	0.155418
C252	C	1.037392	0.595003	0.655418
C253	C	0.537396	0.094997	0.207635
C254	C	1.037396	0.594997	0.707635
C255	C	0.570516	0.061892	0.233735
C256	C	1.070516	0.561892	0.733735
O257	O	0.509266	0.123126	0.290250
O258	O	1.009266	0.623126	0.790250
O259	O	0.631789	0.000640	0.290266
O260	O	1.131789	0.500640	0.790266
C261	C	0.603642	0.028777	0.526149
C262	C	1.103642	0.528777	1.026149
C263	C	0.570527	0.061870	0.552261
C264	C	1.070527	0.561870	1.052261
C265	C	0.537410	0.094968	0.526158
C266	C	1.037410	0.594968	1.026158
C267	C	0.570531	0.061870	0.604480
C268	C	1.070531	0.561870	1.104480
C269	C	0.603647	0.028773	0.630584
C270	C	1.103647	0.528773	1.130584
C271	C	0.636759	-0.004324	0.604468
C272	C	1.136759	0.495676	1.104468
C273	C	0.636758	-0.004320	0.552252
C274	C	1.136758	0.495680	1.052252
C275	C	0.504298	0.128064	0.552273
C276	C	1.004298	0.628064	1.052273
C277	C	0.504303	0.128058	0.604489
C278	C	1.004303	0.628058	1.104489
C279	C	0.537419	0.094961	0.630593
C280	C	1.037419	0.594961	1.130593
H281	H	0.321291	0.144530	0.000035
H282	H	0.821291	0.644530	0.500035
C283	C	0.672558	-0.040409	0.367275
C284	C	1.172558	0.459591	0.867275
C285	C	0.646920	-0.069802	0.337391
C286	C	1.146920	0.430198	0.837391
C287	C	0.679854	-0.103126	0.311325
C288	C	1.179854	0.396874	0.811325
H289	H	0.692216	-0.060157	0.390317
H290	H	1.192216	0.439843	0.890317
H291	H	0.692627	-0.023326	0.346815
H292	H	1.192627	0.476674	0.846815
H293	H	0.626859	-0.086884	0.357849
H294	H	1.126859	0.413116	0.857849
H295	H	0.627264	-0.050067	0.314340
H296	H	1.127264	0.449933	0.814340
H297	H	0.699924	-0.086043	0.290864
H298	H	1.199924	0.413957	0.790864
H299	H	0.699511	-0.122871	0.334370
H300	H	1.199511	0.377129	0.834370
H301	H	0.662464	-0.123070	0.291042
H302	H	1.162464	0.376930	0.791042
C303	C	0.434757	-0.396301	0.000108
C304	C	0.934757	0.103699	0.500108
C305	C	0.431861	-0.424880	0.042791
C306	C	0.931861	0.075120	0.542791
C307	C	0.387531	-0.444024	0.042888
C308	C	0.887531	0.055976	0.542888
H309	H	0.432684	-0.415745	-0.028791
H310	H	0.932684	0.084255	0.471209
H311	H	0.408721	-0.370453	0.000128
H312	H	0.908721	0.129547	0.500128
H313	H	0.457890	-0.450725	0.042765
H314	H	0.957890	0.049275	0.542765
H315	H	0.433925	-0.405447	0.071696
H316	H	0.933925	0.094553	0.571696
H317	H	0.361494	-0.418177	0.042908
H318	H	0.861494	0.081823	0.542908
H319	H	0.385462	-0.463466	0.013987
H320	H	0.885462	0.036534	0.513987
H321	H	0.385558	-0.463414	0.071849
H322	H	0.885558	0.036586	0.571849
C323	C	-0.038975	-0.075377	0.000065
C324	C	0.461025	0.424623	0.500065
C325	C	-0.089824	-0.066454	0.000055
C326	C	0.410176	0.433546	0.500055
C327	C	-0.109045	-0.110743	0.000038
C328	C	0.390955	0.389257	0.500038
H329	H	-0.028263	-0.093434	0.028989
H330	H	0.471737	0.406566	0.528989
H331	H	-0.028238	-0.093414	-0.028874
H332	H	0.471762	0.406586	0.471126
H333	H	-0.100556	-0.048425	0.028991
H334	H	0.399444	0.451575	0.528991
H335	H	-0.100549	-0.048404	-0.028868
H336	H	0.399451	0.451596	0.471132
H337	H	-0.098309	-0.128780	-0.028900
H338	H	0.401691	0.371220	0.471100
H339	H	-0.098330	-0.128797	0.028964
H340	H	0.401670	0.371203	0.528964
H341	H	-0.143547	-0.104695	0.000027
H342	H	0.356453	0.395305	0.500027
C343	C	0.659866	-0.705730	0.000148
C344	C	1.159866	-0.205730	0.500148
C345	C	0.662740	-0.677151	0.042834
C346	C	1.162740	-0.177151	0.542834
C347	C	0.707069	-0.658006	0.042952
C348	C	1.207069	-0.158006	0.542952
H349	H	0.661954	-0.686286	-0.028749
H350	H	1.161954	-0.186286	0.471251
H351	H	0.685903	-0.731577	0.000178
H352	H	1.185903	-0.231577	0.500178
H353	H	0.636710	-0.651308	0.042799
H354	H	1.136710	-0.151308	0.542799
H355	H	0.660661	-0.696585	0.071737
H356	H	1.160661	-0.196585	0.571737
H357	H	0.733106	-0.683853	0.042982
H358	H	1.233106	-0.183853	0.542982
H359	H	0.709153	-0.638564	0.014053
H360	H	1.209153	-0.138564	0.514053
H361	H	0.709026	-0.638617	0.071915
H362	H	1.209026	-0.138617	0.571915
C363	C	0.658846	-0.810851	-0.000041
C364	C	1.158846	-0.310851	0.499959
C365	C	0.685572	-0.802251	-0.042715
C366	C	1.185572	-0.302251	0.457285
C367	C	0.729439	-0.833487	-0.042804
C368	C	1.229439	-0.333487	0.457196
H369	H	0.652256	-0.843630	-0.000068
H370	H	1.152256	-0.343630	0.499932
H371	H	0.677069	-0.805086	0.028874
H372	H	1.177069	-0.305086	0.528874
H373	H	0.667353	-0.808019	-0.071622
H374	H	1.167353	-0.308019	0.428378
H375	H	0.692175	-0.769478	-0.042697
H376	H	1.192175	-0.269478	0.457303
H377	H	0.747662	-0.827723	-0.013890
H378	H	1.247662	-0.327723	0.486110
H379	H	0.722844	-0.866264	-0.042830
H380	H	1.222844	-0.366264	0.457170
H381	H	0.747579	-0.827654	-0.071756
H382	H	1.247579	-0.327654	0.428244
C383	C	0.433197	-0.547492	-0.000095
C384	C	0.933197	-0.047492	0.499905
C385	C	0.406748	-0.531559	-0.042786
C386	C	0.906748	-0.031559	0.457214
C387	C	0.362388	-0.550647	-0.042916
C388	C	0.862388	-0.050647	0.457084
H389	H	0.415104	-0.536743	0.028798
H390	H	0.915104	-0.036743	0.528798
H391	H	0.439142	-0.582000	-0.000125
H392	H	0.939142	-0.082000	0.499875
H393	H	0.400801	-0.497058	-0.042752
H394	H	0.900801	0.002942	0.457248
H395	H	0.424826	-0.542307	-0.071686
H396	H	0.924826	-0.042307	0.428314
H397	H	0.368333	-0.585155	-0.042947
H398	H	0.868333	-0.085155	0.457053
H399	H	0.344299	-0.539897	-0.014022
H400	H	0.844299	-0.039897	0.485978
H401	H	0.344438	-0.539843	-0.071884
H402	H	0.844438	-0.039843	0.428116
H403	H	0.057760	-0.062462	0.000083
H404	H	0.557760	0.437538	0.500083
H405	H	0.510430	0.121952	0.134157
H406	H	1.010430	0.621952	0.634157
H407	H	0.023514	0.185643	0.000042
H408	H	0.523514	0.685643	0.500042
H409	H	0.653168	-0.187348	0.000063
H410	H	1.153168	0.312652	0.500063
H411	H	0.477330	0.155015	0.531024
H412	H	0.977330	0.655015	1.031024
H413	H	0.510457	0.121917	0.771232
H414	H	1.010457	0.621917	1.271232
C415	C	0.474880	-0.785424	-0.000003
C416	C	0.974880	-0.285424	0.499997
C417	C	0.436615	-0.747225	-0.000022
C418	C	0.936615	-0.247225	0.499978
C419	C	0.392216	-0.766238	-0.000059
C420	C	0.892216	-0.266238	0.499941
H421	H	0.472769	-0.804830	0.028918
H422	H	0.972769	-0.304830	0.528918
H423	H	0.472825	-0.804823	-0.028946
H424	H	0.972825	-0.304823	0.471054
H425	H	0.438669	-0.727835	0.028918
H426	H	0.938669	-0.227835	0.528918
H427	H	0.438709	-0.727816	-0.028940
H428	H	0.938709	-0.227816	0.471060
H429	H	0.390160	-0.785637	-0.029002
H430	H	0.890160	-0.285637	0.470998
H431	H	0.390110	-0.785644	0.028862
H432	H	0.890110	-0.285644	0.528862
H433	H	0.366248	-0.740323	-0.000076
H434	H	0.866248	-0.240323	0.499924
H435	H	0.446177	-0.450879	0.000018
H436	H	0.946177	0.049121	0.500018
C437	C	0.179848	0.199265	0.000059
C438	C	0.679848	0.699265	0.500059
C439	C	0.141647	0.237527	0.000069
C440	C	0.641647	0.737527	0.500069
C441	C	0.160657	0.281929	0.000098
C442	C	0.660657	0.781929	0.500098
H443	H	0.199256	0.201369	-0.028862
H444	H	0.699256	0.701369	0.471138
H445	H	0.199244	0.201328	0.029001
H446	H	0.699244	0.701328	0.529001
H447	H	0.122259	0.235465	-0.028870
H448	H	0.622259	0.735465	0.471130
H449	H	0.122236	0.235439	0.028988
H450	H	0.622236	0.735439	0.528988
H451	H	0.180053	0.283992	0.029040
H452	H	0.680053	0.783992	0.529040
H453	H	0.180065	0.284028	-0.028824
H454	H	0.680065	0.784028	0.471176
H455	H	0.134741	0.307895	0.000110
H456	H	0.634741	0.807895	0.500110
C457	C	0.435763	-0.291212	0.000038
C458	C	0.935763	0.208788	0.500038
C459	C	0.396829	-0.318753	0.000041
C460	C	0.896829	0.181247	0.500041
C461	C	0.352941	-0.287550	0.000064
C462	C	0.852941	0.212450	0.500064
H463	H	0.434067	-0.271280	-0.028883
H464	H	0.934067	0.228720	0.471117
H465	H	0.434096	-0.271301	0.028980
H466	H	0.934096	0.228699	0.528980
H467	H	0.398496	-0.338656	-0.028898
H468	H	0.898496	0.161344	0.471102
H469	H	0.398509	-0.338684	0.028960
H470	H	0.898509	0.161316	0.528960
H471	H	0.351273	-0.267638	0.029006
H472	H	0.851273	0.232362	0.529006
H473	H	0.351250	-0.267619	-0.028858
H474	H	0.851250	0.232381	0.471142
H475	H	0.326519	-0.306232	0.000071
H476	H	0.826519	0.193768	0.500071
C477	C	0.481129	-0.170379	0.000020
C478	C	0.981129	0.329621	0.500020
C479	C	0.442862	-0.132183	0.000006
C480	C	0.942862	0.367817	0.500006
C481	C	0.398464	-0.151200	-0.000039
C482	C	0.898464	0.348800	0.499961
H483	H	0.479019	-0.189790	0.028937
H484	H	0.979019	0.310210	0.528937
H485	H	0.479077	-0.189773	-0.028926
H486	H	0.979077	0.310227	0.471074
H487	H	0.444912	-0.112797	0.028949
H488	H	0.944912	0.387203	0.528949
H489	H	0.444956	-0.112768	-0.028909
H490	H	0.944956	0.387232	0.471091
H491	H	0.396412	-0.170594	-0.028986
H492	H	0.896412	0.329406	0.471014
H493	H	0.396359	-0.170611	0.028878
H494	H	0.896359	0.329389	0.528878
H495	H	0.372494	-0.125287	-0.000054
H496	H	0.872494	0.374713	0.499946
C497	C	0.706367	-0.480026	0.000026
C498	C	1.206367	0.019974	0.500026
C499	C	0.744629	-0.518228	0.000016
C500	C	1.244629	-0.018228	0.500016
C501	C	0.789030	-0.499217	-0.000010
C502	C	1.289030	0.000783	0.499990
H503	H	0.708468	-0.460621	0.028949
H504	H	1.208468	0.039379	0.528949
H505	H	0.708433	-0.460627	-0.028915
H506	H	1.208433	0.039373	0.471085
H507	H	0.742564	-0.537619	0.028954
H508	H	1.242564	-0.037619	0.528954
H509	H	0.742544	-0.537636	-0.028904
H510	H	1.242544	-0.037636	0.471096
H511	H	0.791097	-0.479818	-0.028950
H512	H	1.291097	0.020182	0.471050
H513	H	0.791127	-0.479813	0.028913
H514	H	1.291127	0.020187	0.528913
H515	H	0.814997	-0.525134	-0.000021
H516	H	1.314997	-0.025134	0.499979
H517	H	0.494146	-0.073812	0.000057
H518	H	0.994146	0.426188	0.500057
C519	C	0.074751	0.198111	-0.000047
C520	C	0.574751	0.698111	0.499953
C521	C	0.045451	0.200382	-0.042724
C522	C	0.545451	0.700382	0.457276
C523	C	0.014102	0.244176	-0.042824
C524	C	0.514102	0.744176	0.457176
H525	H	0.093306	0.224624	-0.000079
H526	H	0.593306	0.724624	0.499921
H527	H	0.054798	0.199759	0.028866
H528	H	0.554798	0.699759	0.528866
H529	H	0.065402	0.198738	-0.071629
H530	H	0.565402	0.698738	0.428371
H531	H	0.026885	0.173879	-0.042702
H532	H	0.526885	0.673879	0.457298
H533	H	-0.005852	0.245824	-0.013912
H534	H	0.494148	0.745824	0.486088
H535	H	0.032661	0.270685	-0.042855
H536	H	0.532661	0.770685	0.457145
H537	H	-0.005785	0.245720	-0.071778
H538	H	0.494215	0.745720	0.428222
H539	H	0.663725	-0.031269	0.530995
H540	H	1.163725	0.468731	1.030995
H541	H	0.412743	0.145454	0.000021
H542	H	0.912743	0.645454	0.500021
H543	H	0.695819	-0.333889	0.000065
H544	H	1.195819	0.166111	0.500065
H545	H	0.343360	-0.015426	0.000049
H546	H	0.843360	0.484574	0.500049
C547	C	0.501421	0.130852	0.236055
C548	C	1.001421	0.630852	0.736055
C549	C	0.472034	0.105300	0.266040
C550	C	0.972034	0.605300	0.766040
C551	C	0.438889	0.138310	0.292230
C552	C	0.938889	0.638310	0.792230
H553	H	0.481651	0.150581	0.213087
H554	H	0.981651	0.650581	0.713087
H555	H	0.518644	0.150846	0.256457
H556	H	1.018644	0.650846	0.756457
H557	H	0.454813	0.085315	0.245640
H558	H	0.954813	0.585315	0.745640
H559	H	0.491791	0.085574	0.289017
H560	H	0.991791	0.585574	0.789017
H561	H	0.456112	0.158304	0.312632
H562	H	0.956112	0.658304	0.812632
H563	H	0.419122	0.158037	0.269259
H564	H	0.919122	0.658037	0.769259
H565	H	0.418950	0.120978	0.312581
H566	H	0.918950	0.620978	0.812581
C567	C	0.705229	-0.585102	-0.000059
C568	C	1.205229	-0.085102	0.499941
C569	C	0.707515	-0.614387	-0.042749
C570	C	1.207515	-0.114387	0.457251
C571	C	0.751324	-0.645713	-0.042865
C572	C	1.251324	-0.145713	0.457135
H573	H	0.706903	-0.605070	0.028835
H574	H	1.206903	-0.105070	0.528835
H575	H	0.731725	-0.566515	-0.000082
H576	H	1.231725	-0.066515	0.499918
H577	H	0.681027	-0.632973	-0.042721
H578	H	1.181027	-0.132973	0.457279
H579	H	0.705850	-0.594432	-0.071650
H580	H	1.205850	-0.094432	0.428350
H581	H	0.777820	-0.627126	-0.042888
H582	H	1.277820	-0.127126	0.457112
H583	H	0.752993	-0.665678	-0.013969
H584	H	1.252993	-0.165678	0.486031
H585	H	0.752883	-0.665584	-0.071831
H586	H	1.252883	-0.165584	0.428169
H587	H	0.487892	-0.688875	0.000020
H588	H	0.987892	-0.188875	0.500020
C589	C	0.639604	-0.007181	0.127142
C590	C	1.139604	0.492819	0.627142
C591	C	0.668595	-0.036175	0.161183
C592	C	1.168595	0.463825	0.661183
C593	C	0.701738	-0.069338	0.135170
C594	C	1.201738	0.430662	0.635170
H595	H	0.659642	0.010013	0.106769
H596	H	1.159642	0.510013	0.606769
H597	H	0.622380	-0.027210	0.106782
H598	H	1.122380	0.472790	0.606782
H599	H	0.685818	-0.016148	0.181534
H600	H	1.185818	0.483852	0.681534
H601	H	0.648571	-0.053379	0.181557
H602	H	1.148571	0.446621	0.681557
H603	H	0.684514	-0.089367	0.114811
H604	H	1.184514	0.410633	0.614811
H605	H	0.721772	-0.052140	0.114798
H606	H	1.221772	0.447860	0.614798
H607	H	0.721410	-0.089017	0.158263
H608	H	1.221410	0.410983	0.658263
H609	H	0.630597	0.001843	0.228868
H610	H	1.130597	0.501843	0.728868
C611	C	0.666177	-0.090796	0.000053
C612	C	1.166177	0.409204	0.500053
C613	C	0.704443	-0.128993	0.000041
C614	C	1.204443	0.371007	0.500041
C615	C	0.748841	-0.109978	0.000017
C616	C	1.248841	0.390022	0.500017
H617	H	0.668276	-0.071392	0.028977
H618	H	1.168276	0.428608	0.528977
H619	H	0.668241	-0.071395	-0.028886
H620	H	1.168241	0.428605	0.471114
H621	H	0.702380	-0.148386	0.028978
H622	H	1.202380	0.351614	0.528978
H623	H	0.702360	-0.148401	-0.028880
H624	H	1.202360	0.351599	0.471120
H625	H	0.750905	-0.090577	-0.028923
H626	H	1.250905	0.409423	0.471077
H627	H	0.750935	-0.090574	0.028941
H628	H	1.250935	0.409426	0.528941
H629	H	0.774810	-0.135892	0.000004
H630	H	1.274810	0.364108	0.500004
H631	H	0.663722	-0.031266	0.469068
H632	H	1.163722	0.468734	0.969068
H633	H	0.630630	0.001822	0.771211
H634	H	1.130630	0.501822	1.271211
H635	H	0.630630	0.001820	0.865951
H636	H	1.130630	0.501820	1.365951
H637	H	-0.180236	-0.020747	0.000077
H638	H	0.319764	0.479253	0.500077
C639	C	0.501425	0.130922	0.872958
C640	C	1.001425	0.630922	1.372958
C641	C	0.472416	0.159896	0.838914
C642	C	0.972416	0.659896	1.338914
C643	C	0.439233	0.193020	0.864924
C644	C	0.939233	0.693020	1.364924
H645	H	0.518603	0.150974	0.893329
H646	H	1.018603	0.650974	1.393329
H647	H	0.481408	0.113684	0.893319
H648	H	0.981408	0.613684	1.393319
H649	H	0.492430	0.177133	0.818561
H650	H	0.992430	0.677133	1.318561
H651	H	0.455228	0.139858	0.818542
H652	H	0.955228	0.639858	1.318542
H653	H	0.419216	0.175781	0.885286
H654	H	0.919216	0.675781	1.385286
H655	H	0.456414	0.213068	0.885294
H656	H	0.956414	0.713068	1.385294
H657	H	0.419543	0.212679	0.841830
H658	H	0.919543	0.712679	1.341830
H659	H	0.477317	0.155019	0.469089
H660	H	0.977317	0.655019	0.969089
C661	C	0.468301	0.164058	0.367364
C662	C	0.968301	0.664058	0.867364
C663	C	0.439310	0.193046	0.401413
C664	C	0.939310	0.693046	0.901413
C665	C	0.406165	0.226211	0.375410
C666	C	0.906165	0.726211	0.875410
H667	H	0.448263	0.146867	0.346992
H668	H	0.948263	0.646867	0.846992
H669	H	0.485523	0.184091	0.347004
H670	H	0.985523	0.684091	0.847004
H671	H	0.422090	0.173016	0.421764
H672	H	0.922090	0.673016	0.921764
H673	H	0.459335	0.210249	0.421786
H674	H	0.959335	0.710249	0.921786
H675	H	0.423387	0.246244	0.355050
H676	H	0.923387	0.746244	0.855050
H677	H	0.386130	0.209015	0.355039
H678	H	0.886130	0.709015	0.855039
H679	H	0.386494	0.245886	0.398508
H680	H	0.886494	0.745886	0.898508
C681	C	0.672660	-0.040237	0.632906
C682	C	1.172660	0.459763	1.132906
C683	C	0.665559	-0.033160	0.684225
C684	C	1.165559	0.466840	1.184225
C685	C	0.698613	-0.066238	0.710439
C686	C	1.198613	0.433762	1.210439
H687	H	0.704903	-0.035245	0.624409
H688	H	1.204903	0.464755	1.124409
H689	H	0.667647	-0.072473	0.624378
H690	H	1.167647	0.427527	1.124378
H691	H	0.670576	-0.000931	0.692749
H692	H	1.170576	0.499069	1.192749
H693	H	0.633323	-0.038156	0.692736
H694	H	1.133323	0.461844	1.192736
H695	H	0.693601	-0.098474	0.701911
H696	H	1.193601	0.401526	1.201911
H697	H	0.730854	-0.061243	0.701939
H698	H	1.230854	0.438757	1.201939
H699	H	0.693797	-0.061444	0.745261
H700	H	1.193797	0.438556	1.245261
C701	C	0.468288	0.164015	0.632747
C702	C	0.968288	0.664015	1.132747
C703	C	0.439280	0.192989	0.598703
C704	C	0.939280	0.692989	1.098703
C705	C	0.406092	0.226109	0.624713
C706	C	0.906092	0.726109	1.124713
H707	H	0.485463	0.184066	0.653121
H708	H	0.985463	0.684066	1.153121
H709	H	0.448271	0.146773	0.653105
H710	H	0.948271	0.646773	1.153105
H711	H	0.459294	0.210229	0.578354
H712	H	0.959294	0.710229	1.078354
H713	H	0.422095	0.172951	0.578328
H714	H	0.922095	0.672951	1.078328
H715	H	0.386075	0.208867	0.645071
H716	H	0.886075	0.708867	1.145071
H717	H	0.423271	0.246157	0.645087
H718	H	0.923271	0.746157	1.145087
H719	H	0.386403	0.245769	0.601619
H720	H	0.886403	0.745769	1.101619
H721	H	-0.202311	0.139207	0.000047
H722	H	0.297689	0.639207	0.500047
H723	H	0.209009	-0.060929	0.000089
H724	H	0.709009	0.439071	0.500089
H725	H	-0.293777	0.138273	0.000051
H726	H	0.206223	0.638273	0.500051
H727	H	0.117558	-0.061861	0.000088
H728	H	0.617558	0.438139	0.500088
H729	H	-0.271687	-0.021674	0.000069
H730	H	0.228313	0.478326	0.500069
H731	H	0.434827	-0.014492	0.000047
H732	H	0.934827	0.485508	0.500047
H733	H	-0.067947	0.184708	0.000046
H734	H	0.432053	0.684708	0.500046
H735	H	0.694889	-0.425336	0.000056
H736	H	1.194889	0.074664	0.500056
