data_functionalizedCrystal
_audit_creation_method	'MofGen! by Chris Wilmer'
_symmetry_space_group_name_H-M	'P1'
_symmetry_Int_Tables_number	1
_symmetry_cell_setting	triclinic
loop_
_symmetry_equiv_pos_as_xyz
  x,y,z
_cell_length_a	11.026623
_cell_length_b	13.596369
_cell_length_c	11.026607
_cell_angle_alpha	90.003326
_cell_angle_beta	108.586360
_cell_angle_gamma	90.004947
loop_
_atom_site_label
_atom_site_type_symbol
_atom_site_fract_x
_atom_site_fract_y
_atom_site_fract_z
O1	O	-1.726737	-0.081791	-0.533637
O2	O	-1.226737	0.418209	-0.033637
O3	O	-1.360157	-0.081792	-0.472871
O4	O	-0.860157	0.418208	0.027129
O5	O	-1.513065	-0.081788	-0.319964
O6	O	-1.013065	0.418212	0.180036
O7	O	-1.573829	-0.081795	-0.686544
O8	O	-1.073829	0.418205	-0.186544
O9	O	-1.513042	0.081795	-0.319949
O10	O	-1.013042	0.581795	0.180051
O11	O	-1.360133	0.081791	-0.472857
O12	O	-0.860133	0.581791	0.027143
O13	O	-1.726713	0.081792	-0.533623
O14	O	-1.226713	0.581792	-0.033623
Zn15	Zn	-1.543420	0.107763	-0.503237
Zn16	Zn	-1.043420	0.607763	-0.003237
Zn17	Zn	-1.543451	-0.107764	-0.503256
Zn18	Zn	-1.043451	0.392236	-0.003256
O19	O	-1.573805	0.081788	-0.686530
O20	O	-1.073805	0.581788	-0.186530
C21	C	-1.312485	-0.000001	-0.461654
C22	C	-0.812485	0.499999	0.038346
C23	C	-1.170471	-0.000001	-0.428236
C24	C	-0.670471	0.499999	0.071764
N25	N	-1.543408	0.254855	-0.503226
N26	N	-1.043408	0.754855	-0.003226
C27	C	-1.116822	-0.000004	-0.520505
C28	C	-0.616822	0.499996	-0.020505
C29	C	-0.970043	-0.000004	-0.485968
C30	C	-0.470043	0.499996	0.014032
C31	C	-1.543441	0.656146	-0.503259
C32	C	-1.043441	1.156146	-0.003259
C33	C	-1.543429	0.544495	-0.503253
C34	C	-1.043429	1.044495	-0.003253
C35	C	-1.543425	0.455504	-0.503243
C36	C	-1.043425	0.955504	-0.003243
C37	C	-1.543411	0.343846	-0.503235
C38	C	-1.043411	0.843846	-0.003235
C39	C	-0.774385	-0.000001	-0.544838
C40	C	-0.274385	0.499999	-0.044838
C41	C	-0.916398	-0.000006	-0.578251
C42	C	-0.416398	0.499994	-0.078251
C43	C	-1.501844	0.000002	-0.272297
C44	C	-1.001844	0.500002	0.227703
C45	C	-1.468427	-0.000002	-0.130283
C46	C	-0.968427	0.499998	0.369717
N47	N	-1.543460	0.745144	-0.503262
N48	N	-1.043460	1.245144	-0.003262
C49	C	-1.585027	-0.000005	-0.734197
C50	C	-1.085027	0.499995	-0.234197
C51	C	-1.618444	-0.000008	-0.876211
C52	C	-1.118444	0.499992	-0.376211
C53	C	-1.560696	-0.000003	-0.076634
C54	C	-1.060696	0.499997	0.423366
C55	C	-1.526161	-0.000006	0.070145
C56	C	-1.026161	0.499994	0.570145
H57	H	-1.179555	-0.000000	-0.625068
H58	H	-0.679555	0.500000	-0.125068
H59	H	-0.907314	-0.000027	-0.381398
H60	H	-0.407314	0.499973	0.118602
H61	H	-1.723014	-0.000081	0.061061
H62	H	-1.223014	0.499919	0.561061
H63	H	-1.665259	0.000004	-0.139368
H64	H	-1.165259	0.500004	0.360632
C65	C	-1.327167	-0.000009	-0.045552
C66	C	-0.827167	0.499991	0.454448
H67	H	-1.273756	-0.000015	-0.098245
H68	H	-0.773756	0.499985	0.401755
H69	H	-1.310280	0.057032	0.006939
H70	H	-0.810280	0.557032	0.506939
H71	H	-1.310310	-0.057065	0.006908
H72	H	-0.810310	0.442935	0.506908
H73	H	-1.107738	-0.000025	-0.323673
H74	H	-0.607738	0.499975	0.176327
C75	C	-1.001127	-0.000015	-0.719517
C76	C	-0.501127	0.499985	-0.219517
H77	H	-1.088664	-0.000022	-0.724201
H78	H	-0.588664	0.499978	-0.224201
H79	H	-0.983494	0.057026	-0.760751
H80	H	-0.483494	0.557026	-0.260751
H81	H	-0.983506	-0.057071	-0.760744
H82	H	-0.483506	0.442929	-0.260744
C83	C	-1.384896	-0.000008	0.154877
C84	C	-0.884896	0.499992	0.654877
H85	H	-1.380215	-0.000004	0.242413
H86	H	-0.880215	0.499996	0.742413
H87	H	-1.343670	-0.057051	0.137243
H88	H	-0.843670	0.442949	0.637243
H89	H	-1.343659	0.057046	0.137262
H90	H	-0.843659	0.557046	0.637262
