data_functionalizedCrystal
_audit_creation_method	'MofGen! by Chris Wilmer'
_symmetry_space_group_name_H-M	'P1'
_symmetry_Int_Tables_number	1
_symmetry_cell_setting	triclinic
loop_
_symmetry_equiv_pos_as_xyz
  x,y,z
_cell_length_a	14.519709
_cell_length_b	10.654545
_cell_length_c	12.996460
_cell_angle_alpha	89.994208
_cell_angle_beta	89.998766
_cell_angle_gamma	84.081612
loop_
_atom_site_label
_atom_site_type_symbol
_atom_site_fract_x
_atom_site_fract_y
_atom_site_fract_z
O1	O	0.129506	1.666603	-0.085559
O2	O	0.141852	1.301005	-0.085564
O3	O	0.001491	1.493498	-0.085552
O4	O	0.269867	1.474111	-0.085571
O5	O	0.001499	1.493473	0.085582
O6	O	0.141860	1.300981	0.085570
O7	O	0.129514	1.666578	0.085575
Cu8	Cu	0.135688	1.483777	0.101198
Cu9	Cu	0.135678	1.483807	-0.101187
O10	O	0.269875	1.474086	0.085563
C11	C	0.140950	1.254204	0.000003
C12	C	0.138241	1.114786	0.000001
C13	C	0.136970	1.049280	0.093287
C14	C	0.134409	0.918286	0.093287
C15	C	0.134394	0.918313	-0.093292
C16	C	0.136948	1.049307	-0.093291
C17	C	0.076989	0.748755	0.205367
C18	C	0.075734	0.683242	0.298657
C19	C	0.130515	0.716236	0.381017
C20	C	0.186573	0.814738	0.370090
C21	C	0.187836	0.880243	0.276797
C22	C	0.133034	0.847254	0.194442
C23	C	0.194375	1.218838	-0.205364
C24	C	0.195645	1.284345	-0.298657
C25	C	0.140870	1.251351	-0.381026
C26	C	0.084826	1.152843	-0.370108
C27	C	0.083556	1.087337	-0.276815
C28	C	0.138330	1.120339	-0.194447
C29	C	-0.032870	1.492582	0.000015
C30	C	-0.135265	1.489874	0.000016
C31	C	-0.510212	1.479907	-0.000011
C32	C	-0.405890	1.482675	-0.000003
C33	C	-0.322742	1.484890	0.000003
C34	C	-0.218413	1.487659	0.000009
C35	C	0.304236	1.475002	-0.000006
C36	C	0.406631	1.477710	-0.000014
C37	C	0.130416	1.713380	0.000006
C38	C	0.133125	1.852798	0.000001
N39	N	0.135694	1.483766	0.243545
N40	N	0.135665	1.483828	-0.243534
C41	C	0.135696	1.483772	0.336651
C42	C	0.135690	1.483783	0.453457
C43	C	0.135680	1.483799	0.546555
C44	C	0.135675	1.483812	0.663367
H45	H	0.030086	0.603042	0.307548
O46	O	0.023665	0.716900	0.125389
C47	C	-0.038811	0.821624	0.097767
H48	H	-0.049619	0.888647	0.166069
H49	H	-0.009422	0.872941	0.030221
C50	C	-0.118881	0.693838	-0.017313
C51	C	-0.132162	0.776153	0.066579
H52	H	-0.176464	0.665791	-0.036557
H53	H	-0.076788	0.623284	0.001292
H54	H	-0.094388	0.736615	-0.073592
H55	H	-0.156644	0.733371	0.122860
H56	H	-0.174262	0.846698	0.047982
O57	O	0.029037	0.991706	-0.266368
C58	C	-0.019016	0.976597	-0.359084
H59	H	-0.023779	1.068435	-0.404696
H60	H	0.019586	0.897812	-0.406382
C61	C	-0.111367	0.829663	-0.278834
C62	C	-0.117224	0.942464	-0.334851
H63	H	-0.171945	0.808603	-0.263888
H64	H	-0.078991	0.839838	-0.216370
H65	H	-0.079195	0.764022	-0.318257
H66	H	-0.149385	1.008105	-0.295423
H67	H	-0.149608	0.932299	-0.397308
H68	H	0.138022	1.102590	0.169252
O69	O	0.239742	0.847005	0.450065
C70	C	0.213850	0.973762	0.477512
H71	H	0.179041	1.026224	0.409122
H72	H	0.163511	0.977332	0.545020
C73	C	0.343342	0.972101	0.592684
C74	C	0.300596	1.036539	0.508683
H75	H	0.396849	1.010825	0.611916
H76	H	0.360785	0.886701	0.574196
H77	H	0.301383	0.975081	0.648931
H78	H	0.342550	1.033545	0.452434
H79	H	0.283162	1.121940	0.527162
H80	H	0.129491	0.662886	0.456976
O81	O	0.250111	1.380039	-0.309078
C82	C	0.298199	1.395105	-0.216380
H83	H	0.259151	1.355002	-0.149936
H84	H	0.370596	1.342814	-0.221860
C85	C	0.353639	1.585628	-0.279077
C86	C	0.305675	1.536382	-0.197469
H87	H	0.358254	1.672772	-0.267413
H88	H	0.321244	1.575476	-0.341532
H89	H	0.413965	1.542040	-0.283636
H90	H	0.245346	1.579959	-0.192919
H91	H	0.338060	1.546544	-0.135012
H92	H	0.233481	0.960437	0.267899
O93	O	0.133277	0.854815	-0.183976
C94	C	0.213642	0.872758	-0.240719
H95	H	0.242073	0.963184	-0.214196
H96	H	0.268038	0.789197	-0.227785
C97	C	0.154620	0.772024	-0.388577
C98	C	0.189535	0.883093	-0.356007
H99	H	0.139752	0.778394	-0.459692
H100	H	0.100478	0.759931	-0.350347
H101	H	0.199956	0.702401	-0.377790
H102	H	0.144195	0.952712	-0.366782
H103	H	0.243670	0.895199	-0.394241
O104	O	0.031643	1.120979	-0.450208
C105	C	0.044799	1.199897	-0.534899
H106	H	0.070688	1.291221	-0.506523
H107	H	0.098032	1.149828	-0.589452
C108	C	-0.079507	1.118208	-0.626903
C109	C	-0.047718	1.230378	-0.592049
H110	H	-0.136574	1.137007	-0.662160
H111	H	-0.088369	1.065036	-0.569847
H112	H	-0.035138	1.076495	-0.672358
H113	H	-0.092081	1.272081	-0.546586
H114	H	-0.038866	1.283558	-0.649099
O115	O	0.247641	1.250666	-0.125321
C116	C	0.310140	1.145955	-0.097729
H117	H	0.281805	1.055467	-0.124264
H118	H	0.379922	1.154090	-0.136009
C119	C	0.357226	1.253956	0.052556
C120	C	0.322420	1.142817	0.019973
H121	H	0.364804	1.252022	0.125159
H122	H	0.315122	1.324505	0.033965
H123	H	0.415374	1.260723	0.020647
H124	H	0.264268	1.136060	0.051872
H125	H	0.364514	1.072267	0.038572
H126	H	0.141918	1.304688	-0.456993
