data_functionalizedCrystal
_audit_creation_method	'MofGen! by Chris Wilmer'
_symmetry_space_group_name_H-M	'P1'
_symmetry_Int_Tables_number	1
_symmetry_cell_setting	triclinic
loop_
_symmetry_equiv_pos_as_xyz
  x,y,z
_cell_length_a	8.497374
_cell_length_b	19.077114
_cell_length_c	19.077105
_cell_angle_alpha	89.883258
_cell_angle_beta	92.300019
_cell_angle_gamma	92.286070
loop_
_atom_site_label
_atom_site_type_symbol
_atom_site_fract_x
_atom_site_fract_y
_atom_site_fract_z
Zn1	Zn	1.016674	0.323109	1.062852
Zn2	Zn	0.763004	0.440586	1.058069
Zn3	Zn	0.741900	0.318369	0.945380
Zn4	Zn	1.015735	0.435851	0.940585
O5	O	0.884328	0.379479	1.001722
O6	O	0.992249	0.342658	1.160548
O7	O	0.539443	0.424371	1.043125
O8	O	0.769910	0.220667	0.964971
O9	O	0.805879	0.428968	1.157034
O10	O	0.971785	0.224150	1.051278
O11	O	0.523938	0.334579	0.960333
O12	O	0.769000	0.329988	0.846414
O13	O	1.236621	0.420897	0.956799
O14	O	0.970185	0.416301	0.842891
O15	O	1.237311	0.338067	1.046629
O16	O	0.804969	0.538289	1.038476
O17	O	0.990649	0.534810	0.952161
C18	C	0.867201	0.372116	0.819156
C19	C	0.859913	0.368984	0.741053
C20	C	0.900033	0.562046	0.994298
C21	C	0.906811	0.640152	0.991186
C22	C	0.961083	0.412519	0.702542
C23	C	0.954241	0.409566	0.629156
C24	C	0.846222	0.363081	0.594283
C25	C	0.745048	0.319542	0.632800
C26	C	0.751898	0.322492	0.706185
C27	C	0.814527	0.349430	0.375003
C28	C	0.807681	0.346485	0.301613
C29	C	1.016877	0.436509	0.297975
C30	C	1.023711	0.439457	0.371360
C31	C	0.922543	0.395915	0.409871
N32	N	0.839223	0.360064	0.519272
N33	N	0.929551	0.398930	0.484881
C34	C	1.295808	0.379479	1.001716
C35	C	1.474453	0.379487	1.001718
C36	C	0.901523	0.386870	1.185000
C37	C	0.908850	0.390020	1.263102
C38	C	0.813408	0.678635	1.034699
C39	C	0.819792	0.752024	1.031777
C40	C	0.919572	0.786927	0.985338
C41	C	1.012985	0.748439	0.941823
C42	C	1.006608	0.675052	0.944750
C43	C	0.949009	1.006220	0.971766
C44	C	0.955375	1.079612	0.968841
C45	C	0.762184	1.083192	1.058796
C46	C	0.755809	1.009803	1.061715
C47	C	0.849228	0.971321	1.018203
N48	N	0.926096	0.861942	0.982348
N49	N	0.842711	0.896308	1.021197
C50	C	0.868618	1.196199	1.009187
C51	C	0.861973	1.118095	1.012354
H52	H	1.049039	0.450374	0.730930
O53	O	0.642763	0.275537	0.747719
H54	H	0.713549	0.241174	0.782603
H55	H	0.686130	1.114532	1.094222
O56	O	0.719039	0.793528	1.078707
H57	H	0.740245	0.850423	1.068878
H58	H	1.036656	1.108028	0.931033
H59	H	0.674561	0.981386	1.099530
H60	H	1.025071	0.974893	0.936335
O61	O	1.120590	0.786079	0.891725
H62	H	1.109316	0.843575	0.896991
H63	H	1.082668	0.643719	0.909318
H64	H	1.036623	0.445017	0.597803
H65	H	1.099245	0.471957	0.266612
O66	O	1.140231	0.489587	0.408974
H67	H	1.209445	0.519359	0.369866
O68	O	0.691173	0.296355	0.263982
H69	H	0.715000	0.241784	0.280287
O70	O	0.705368	0.302491	0.416535
H71	H	0.629082	0.269686	0.379954
O72	O	0.628498	0.269421	0.595192
H73	H	0.640703	0.274694	0.537692
O74	O	0.705795	0.640990	1.084790
H75	H	0.641934	0.680083	1.114562
