data_functionalizedCrystal
_audit_creation_method	'MofGen! by Chris Wilmer'
_symmetry_space_group_name_H-M	'P1'
_symmetry_Int_Tables_number	1
_symmetry_cell_setting	triclinic
loop_
_symmetry_equiv_pos_as_xyz
  x,y,z
_cell_length_a	14.044220
_cell_length_b	14.044220
_cell_length_c	12.503572
_cell_angle_alpha	86.156832
_cell_angle_beta	86.164750
_cell_angle_gamma	86.811122
loop_
_atom_site_label
_atom_site_type_symbol
_atom_site_fract_x
_atom_site_fract_y
_atom_site_fract_z
O1	O	1.282200	-0.225116	-0.089210
O2	O	1.005530	-0.216809	-0.089237
O3	O	1.139712	-0.082627	-0.089213
O4	O	1.148019	-0.359298	-0.089234
O5	O	1.129622	-0.092737	0.089427
O6	O	0.995440	-0.226918	0.089403
O7	O	1.272110	-0.235226	0.089430
Cu8	Cu	1.132854	-0.231995	0.105728
Cu9	Cu	1.144786	-0.220040	-0.105535
O10	O	1.137929	-0.369407	0.089406
C11	C	0.964864	-0.218228	0.000080
C12	C	0.858721	-0.207383	0.000070
C13	C	0.664382	-0.187558	0.000092
C14	C	0.613253	-0.264472	0.000091
C15	C	0.505116	-0.253441	0.000104
C16	C	0.772529	-0.198587	0.000080
C17	C	1.131031	-0.052060	0.000107
C18	C	1.120187	0.054082	0.000107
C19	C	1.312777	-0.233807	0.000111
C20	C	1.418920	-0.244651	0.000114
C21	C	1.146609	-0.399974	0.000084
C22	C	1.157454	-0.506117	0.000077
N23	N	1.124469	-0.240404	0.254319
C24	C	1.100361	0.248421	0.000090
C25	C	1.177275	0.299551	0.000094
C26	C	1.166244	0.407687	0.000084
C27	C	1.111391	0.140274	0.000099
N28	N	1.153179	-0.211624	-0.254126
C29	C	1.112134	-0.252782	0.473432
C30	C	1.165511	-0.199249	0.526768
C31	C	1.158648	-0.206136	0.648690
C32	C	1.118996	-0.245896	0.351499
H33	H	0.650692	-0.338605	0.000081
O34	O	1.011858	0.292928	0.000035
C35	C	0.942502	0.224096	0.000066
H36	H	0.976775	0.156047	-0.033750
H37	H	0.912283	0.207454	0.085769
C38	C	0.819172	0.346889	-0.028460
C39	C	0.861265	0.263313	-0.070002
H40	H	0.769059	0.371080	-0.071677
H41	H	0.865897	0.393263	-0.028477
H42	H	0.793997	0.333009	0.042959
H43	H	0.886450	0.277196	-0.141414
H44	H	0.814543	0.216941	-0.069999
H45	H	1.251413	0.262115	0.000029
O46	O	1.225974	-0.138294	0.471849
C47	C	1.219303	-0.144742	0.360578
H48	H	1.191258	-0.216913	0.345276
H49	H	1.168276	-0.085082	0.328846
C50	C	1.353272	-0.046247	0.321361
C51	C	1.318835	-0.134891	0.302566
H52	H	1.414666	-0.040166	0.285574
H53	H	1.357765	-0.041899	0.396326
H54	H	1.310741	0.003460	0.294918
H55	H	1.361359	-0.184597	0.329021
H56	H	1.314351	-0.139247	0.227603
O57	O	0.619693	-0.099131	-0.000095
C58	C	0.567426	-0.082968	-0.092597
H59	H	0.598925	-0.131152	-0.157262
H60	H	0.489615	-0.099666	-0.071673
C61	C	0.534209	0.081513	-0.055132
C62	C	0.572901	0.022338	-0.134558
H63	H	0.537581	0.146472	-0.081013
H64	H	0.569418	0.070624	0.007191
H65	H	0.469369	0.067587	-0.037702
H66	H	0.637742	0.036256	-0.151976
H67	H	0.537702	0.033232	-0.196885
H68	H	1.061285	-0.303783	0.519330
