data_functionalizedCrystal
_audit_creation_method	'MofGen! by Chris Wilmer'
_symmetry_space_group_name_H-M	'P1'
_symmetry_Int_Tables_number	1
_symmetry_cell_setting	triclinic
loop_
_symmetry_equiv_pos_as_xyz
  x,y,z
_cell_length_a	15.944551
_cell_length_b	10.540539
_cell_length_c	9.616153
_cell_angle_alpha	90.000705
_cell_angle_beta	89.988942
_cell_angle_gamma	84.012115
loop_
_atom_site_label
_atom_site_type_symbol
_atom_site_fract_x
_atom_site_fract_y
_atom_site_fract_z
O1	O	1.115503	0.163707	-0.115772
O2	O	0.871074	0.183891	-0.115744
O3	O	0.998865	-0.010984	-0.115759
O4	O	0.987712	0.358581	-0.115756
O5	O	0.998848	-0.010979	0.115532
O6	O	0.871056	0.183895	0.115548
O7	O	1.115486	0.163711	0.115520
Zn8	Zn	0.993268	0.173804	0.152256
Zn9	Zn	0.993292	0.173798	-0.152480
O10	O	0.987695	0.358586	0.115535
C11	C	0.839766	0.183055	-0.000095
C12	C	0.746505	0.180543	-0.000084
C13	C	1.146794	0.164547	-0.000132
C14	C	1.240055	0.167059	-0.000152
C15	C	0.988540	0.405875	-0.000110
C16	C	0.991042	0.546789	-0.000110
C17	C	1.455667	0.293856	-0.000119
C18	C	1.516345	0.234974	-0.114157
C19	C	1.410807	0.171604	-0.000132
C20	C	1.516305	0.234949	0.113878
C21	C	1.575746	0.176002	-0.000106
C22	C	1.470257	0.112688	-0.114264
C23	C	1.470211	0.112680	0.113874
C24	C	1.530870	0.053709	-0.000192
C25	C	1.315790	0.169073	-0.000148
C26	C	1.670763	0.178523	-0.000100
C27	C	0.998020	-0.058273	-0.000117
C28	C	0.995518	-0.199187	-0.000126
N29	N	0.993259	0.173807	0.360231
C30	C	1.086929	0.728910	-0.000656
C31	C	1.084393	0.582327	-0.000123
C32	C	0.946108	0.609069	0.131970
C33	C	0.949294	0.755570	0.132069
C34	C	0.947415	0.756093	-0.130952
C35	C	0.946555	0.609123	-0.132687
N36	N	0.993308	0.173785	-0.360455
C37	C	0.924690	0.277708	0.580609
C38	C	0.924841	0.278092	0.419442
C39	C	1.081078	0.202745	0.418670
C40	C	1.080704	0.203479	0.579888
C41	C	0.974883	0.040618	0.580143
C42	C	0.972867	0.041511	0.418917
H43	H	1.536775	0.286682	-0.210564
O44	O	1.102904	0.329932	0.365195
H45	H	1.051347	0.372729	0.297013
H46	H	1.449763	0.061019	0.210289
O47	O	1.443394	0.044256	-0.242127
H48	H	1.373876	0.042980	-0.241162
O49	O	0.860370	0.820337	0.140046
H50	H	0.815284	0.746978	0.143826
H51	H	0.977315	0.566065	0.230258
O52	O	0.940176	0.407874	0.634241
H53	H	0.884375	0.449077	0.694213
O54	O	0.838406	0.255275	0.367097
H55	H	0.791228	0.332022	0.405838
O56	O	0.855304	0.580678	0.138526
H57	H	0.841205	0.521733	0.047499
O58	O	0.856403	0.578264	-0.143235
H59	H	0.847850	0.526266	-0.241745
H60	H	0.977633	0.787232	-0.231066
O61	O	0.837982	0.255271	0.632042
H62	H	0.842863	0.169816	0.700169
H63	H	0.979390	0.567732	-0.230399
H64	H	0.912198	0.012792	0.620888
O65	O	1.412352	0.428272	-0.000261
H66	H	1.342980	0.425235	0.000714
O67	O	1.135791	0.766121	-0.126122
H68	H	1.200020	0.714175	-0.124151
H69	H	1.563418	-0.047858	-0.000251
H70	H	1.096819	0.300597	0.617475
H71	H	0.879983	0.804217	-0.131821
O72	O	0.887291	0.012416	0.368329
H73	H	0.873347	-0.081224	0.410260
O74	O	1.034690	-0.065734	0.365575
H75	H	1.081125	-0.026239	0.296096
H76	H	0.936684	0.376914	0.380861
O77	O	1.041130	-0.061808	0.630724
H78	H	1.010440	-0.133759	0.691363
O79	O	0.993269	0.792340	0.262834
H80	H	0.995973	0.897129	0.264206
H81	H	1.536691	0.286680	0.210288
O82	O	1.150427	0.107046	0.631544
H83	H	1.184266	0.060101	0.541370
H84	H	1.119754	0.539234	-0.094799
H85	H	1.123682	0.758742	0.093431
O86	O	1.131523	0.526367	0.125504
H87	H	1.156211	0.604021	0.186120
O88	O	1.150373	0.105159	0.367872
H89	H	1.152683	0.107326	0.252543
