data_functionalizedCrystal
_audit_creation_method	'MofGen! by Chris Wilmer'
_symmetry_space_group_name_H-M	'P1'
_symmetry_Int_Tables_number	1
_symmetry_cell_setting	triclinic
loop_
_symmetry_equiv_pos_as_xyz
  x,y,z
_cell_length_a	14.044220
_cell_length_b	14.044220
_cell_length_c	13.101039
_cell_angle_alpha	93.667477
_cell_angle_beta	86.340132
_cell_angle_gamma	93.188878
loop_
_atom_site_label
_atom_site_type_symbol
_atom_site_fract_x
_atom_site_fract_y
_atom_site_fract_z
O1	O	1.281968	0.225348	-0.085109
O2	O	1.005298	0.217041	-0.085135
O3	O	1.139480	0.082860	-0.085112
O4	O	1.147787	0.359530	-0.085132
O5	O	1.129854	0.092504	0.085316
O6	O	0.995673	0.226686	0.085293
O7	O	1.272343	0.234993	0.085319
Zn8	Zn	1.132479	0.232371	0.112365
Zn9	Zn	1.145162	0.219663	-0.112181
O10	O	1.138161	0.369175	0.085296
C11	C	0.964864	0.218228	0.000076
C12	C	0.858722	0.207383	0.000066
C13	C	0.664383	0.187558	0.000088
C14	C	0.613253	0.264472	0.000087
C15	C	0.505116	0.253441	0.000099
C16	C	0.772529	0.198587	0.000076
C17	C	1.131031	0.052060	0.000102
C18	C	1.120187	-0.054083	0.000102
C19	C	1.100362	-0.248421	0.000086
C20	C	1.177276	-0.299551	0.000090
C21	C	1.166245	-0.407688	0.000080
C22	C	1.111391	-0.140275	0.000095
C23	C	1.312777	0.233806	0.000106
C24	C	1.418920	0.244651	0.000109
C25	C	1.146610	0.399974	0.000080
C26	C	1.157455	0.506116	0.000073
N27	N	1.123831	0.241043	0.265612
N28	N	1.153817	0.210984	-0.265428
C29	C	1.112065	0.252851	0.474653
C30	C	1.165580	0.199179	0.525538
C31	C	1.159034	0.205749	0.641855
C32	C	1.118610	0.246282	0.358325
H33	H	0.626945	0.113431	0.000099
O34	O	1.051629	0.313540	0.527047
C35	C	1.058460	0.306661	0.633201
H36	H	1.130483	0.278109	0.647720
H37	H	0.998602	0.255970	0.663659
C38	C	0.961029	0.441258	0.670571
C39	C	1.049493	0.406198	0.688403
H40	H	0.955494	0.502655	0.704624
H41	H	0.956424	0.445891	0.599053
H42	H	0.911157	0.399007	0.695953
H43	H	1.099363	0.448443	0.663010
H44	H	1.054107	0.401574	0.759918
H45	H	0.650693	0.338605	0.000077
O46	O	1.265645	-0.254739	0.000153
C47	C	1.257134	-0.155182	0.000135
H48	H	1.182749	-0.136395	0.032388
H49	H	1.268686	-0.131677	-0.081624
C50	C	1.424077	-0.126632	0.027379
C51	C	1.332718	-0.103557	0.067000
H52	H	1.470703	-0.094786	0.068620
H53	H	1.429813	-0.193706	0.027387
H54	H	1.433690	-0.107044	-0.040753
H55	H	1.323103	-0.123156	0.135125
H56	H	1.326983	-0.036485	0.067005
O57	O	1.011992	-0.293226	0.000127
C58	C	1.020515	-0.392785	0.000097
H59	H	1.091259	-0.407922	0.032360
H60	H	1.018202	-0.425524	-0.081667
C61	C	0.850498	-0.418275	0.027308
C62	C	0.937383	-0.436866	0.066942
H63	H	0.799217	-0.445468	0.068537
H64	H	0.844755	-0.351201	0.027324
H65	H	0.848584	-0.445559	-0.040828
H66	H	0.939301	-0.409573	0.135071
H67	H	0.943125	-0.503937	0.066938
O68	O	1.225901	0.138367	0.473143
C69	C	1.218941	0.145105	0.366987
H70	H	1.190856	0.217315	0.352388
H71	H	1.167832	0.085527	0.336714
C72	C	1.352808	0.046712	0.329573
C73	C	1.318322	0.135405	0.311642
H74	H	1.414110	0.040724	0.295431
H75	H	1.357496	0.042169	0.401091
H76	H	1.310208	-0.002927	0.304345
H77	H	1.360915	0.185041	0.336881
H78	H	1.313643	0.139956	0.240125
