data_functionalizedCrystal
_audit_creation_method	'MofGen! by Chris Wilmer'
_symmetry_space_group_name_H-M	'P1'
_symmetry_Int_Tables_number	1
_symmetry_cell_setting	triclinic
loop_
_symmetry_equiv_pos_as_xyz
  x,y,z
_cell_length_a	16.974897
_cell_length_b	15.455313
_cell_length_c	16.109301
_cell_angle_alpha	87.337130
_cell_angle_beta	83.431140
_cell_angle_gamma	96.324780
loop_
_atom_site_label
_atom_site_type_symbol
_atom_site_fract_x
_atom_site_fract_y
_atom_site_fract_z
O1	O	1.056133	0.146192	0.098648
O2	O	1.389466	0.479526	0.431981
O3	O	1.722799	0.812859	0.765314
O4	O	0.825147	0.129997	0.112949
O5	O	1.158480	0.463331	0.446282
O6	O	1.491814	0.796664	0.779616
O7	O	0.946985	0.138531	-0.015260
O8	O	1.280318	0.471864	0.318074
O9	O	1.613651	0.805198	0.651407
O10	O	0.934295	0.137659	0.226856
O11	O	1.267628	0.470992	0.560190
O12	O	1.600962	0.804325	0.893523
O13	O	0.940018	-0.006219	-0.007958
O14	O	1.273351	0.327114	0.325375
O15	O	1.606684	0.660447	0.658709
O16	O	0.818180	-0.014753	0.120251
O17	O	1.151513	0.318580	0.453584
O18	O	1.484847	0.651914	0.786917
O19	O	1.049165	0.001442	0.105949
O20	O	1.382499	0.334776	0.439283
O21	O	1.715832	0.668109	0.772616
Cu22	Cu	0.933036	-0.019872	0.113767
Cu23	Cu	1.266370	0.313461	0.447100
Cu24	Cu	1.599703	0.646795	0.780433
Cu25	Cu	0.941276	0.151312	0.105132
Cu26	Cu	1.274609	0.484645	0.438465
Cu27	Cu	1.607943	0.817978	0.771798
O28	O	0.927328	-0.007091	0.234158
O29	O	1.260661	0.326242	0.567491
O30	O	1.593994	0.659575	0.900825
C31	C	0.792106	0.055550	0.116189
C32	C	1.125439	0.388883	0.449523
C33	C	1.458773	0.722216	0.782856
C34	C	0.704034	0.049374	0.114956
C35	C	1.037367	0.382708	0.448290
C36	C	1.370701	0.716041	0.781623
N37	N	0.927247	-0.140273	0.119839
N38	N	1.260580	0.193060	0.453173
N39	N	1.593914	0.526394	0.786506
C40	C	0.666448	0.125370	0.110399
C41	C	0.999781	0.458703	0.443733
C42	C	1.333114	0.792037	0.777066
C43	C	0.583693	0.119555	0.109255
C44	C	0.917026	0.452888	0.442588
C45	C	1.250359	0.786221	0.775921
C46	C	0.538526	0.037743	0.112661
C47	C	0.871859	0.371076	0.445994
C48	C	1.205192	0.704410	0.779328
C49	C	0.576117	-0.038258	0.117221
C50	C	0.909450	0.295075	0.450554
C51	C	1.242784	0.628408	0.783888
C52	C	0.658870	-0.032442	0.118371
C53	C	0.992204	0.300891	0.451705
C54	C	1.325537	0.634224	0.785038
C55	C	0.290623	0.011888	0.109652
C56	C	0.623957	0.345221	0.442986
C57	C	0.957290	0.678554	0.776319
C58	C	0.207865	0.006077	0.108499
C59	C	0.541198	0.339411	0.441832
C60	C	0.874532	0.672744	0.775165
C61	C	0.215446	0.163891	0.100534
C62	C	0.548779	0.497224	0.433867
C63	C	0.882113	0.830558	0.767201
C64	C	0.298201	0.169700	0.101680
C65	C	0.631534	0.503033	0.435013
C66	C	0.964868	0.836367	0.768347
C67	C	0.335785	0.093699	0.106244
C68	C	0.669118	0.427032	0.439578
C69	C	1.002451	0.760365	0.772911
N70	N	0.453937	0.031797	0.111488
N71	N	0.787270	0.365130	0.444822
N72	N	1.120603	0.698464	0.778155
N73	N	0.420371	0.099645	0.107423
N74	N	0.753705	0.432979	0.440756
N75	N	1.087038	0.766312	0.774089
C76	C	0.979026	-0.182041	0.065392
C77	C	1.312359	0.151293	0.398725
C78	C	1.645693	0.484626	0.732058
C79	C	0.974655	-0.273155	0.069992
C80	C	1.307988	0.060179	0.403325
C81	C	1.641322	0.393512	0.736658
C82	C	0.918508	-0.322499	0.129044
C83	C	1.251842	0.010834	0.462378
C84	C	1.585175	0.344167	0.795711
C85	C	0.866724	-0.280726	0.183494
C86	C	1.200057	0.052607	0.516828
C87	C	1.533390	0.385941	0.850161
C88	C	0.871092	-0.189614	0.178890
C89	C	1.204425	0.143720	0.512223
C90	C	1.537758	0.477053	0.845556
C91	C	0.899655	-0.595401	0.148898
C92	C	1.232989	-0.262068	0.482231
C93	C	1.566322	0.071265	0.815564
C94	C	0.895293	-0.686519	0.153500
C95	C	1.228626	-0.353186	0.486833
C96	C	1.561960	-0.019853	0.820167
C97	C	1.003223	-0.678942	0.039996
C98	C	1.336557	-0.345609	0.373329
C99	C	1.669890	-0.012275	0.706663
C100	C	1.007590	-0.587828	0.035400
C101	C	1.340923	-0.254495	0.368733
C102	C	1.674256	0.078839	0.702066
C103	C	0.955802	-0.546063	0.089847
C104	C	1.289136	-0.212729	0.423180
C105	C	1.622469	0.120604	0.756514
N106	N	0.914041	-0.415632	0.133750
N107	N	1.247374	-0.082299	0.467083
N108	N	1.580707	0.251034	0.800416
N109	N	0.960267	-0.452932	0.085137
N110	N	1.293600	-0.119598	0.418470
N111	N	1.626933	0.213735	0.751804
C112	C	1.082207	0.075892	0.102709
C113	C	1.415540	0.409225	0.436042
C114	C	1.748873	0.742558	0.769376
C115	C	1.170279	0.082073	0.103942
C116	C	1.503612	0.415406	0.437275
C117	C	1.836945	0.748740	0.770608
C118	C	0.942987	0.066119	-0.042582
C119	C	1.276320	0.399453	0.290752
C120	C	1.609654	0.732786	0.624085
C121	C	0.941446	0.066010	-0.134870
C122	C	1.274779	0.399343	0.198463
C123	C	1.608113	0.732677	0.531797
N124	N	0.947072	0.271713	0.099052
N125	N	1.280405	0.605046	0.432386
N126	N	1.613738	0.938380	0.765719
C127	C	1.010159	0.070842	-0.357441
C128	C	1.343493	0.404175	-0.024108
C129	C	1.676826	0.737508	0.309225
C130	C	1.008705	0.070747	-0.444156
C131	C	1.342039	0.404080	-0.110822
C132	C	1.675372	0.737413	0.222511
C133	C	0.864148	0.060608	-0.423654
C134	C	1.197482	0.393941	-0.090321
C135	C	1.530815	0.727275	0.243013
C136	C	0.865603	0.060709	-0.336942
C137	C	1.198937	0.394042	-0.003608
C138	C	1.532270	0.727376	0.329725
C139	C	0.938611	0.065822	-0.303838
C140	C	1.271944	0.399155	0.029496
C141	C	1.605278	0.732488	0.362829
C142	C	0.935702	0.065626	-0.477264
C143	C	1.269035	0.398959	-0.143931
C144	C	1.602369	0.732292	0.189402
C145	C	0.934125	0.065523	-0.571284
C146	C	1.267458	0.398856	-0.237951
C147	C	1.600792	0.732189	0.095383
C148	C	0.940188	0.065926	-0.209812
C149	C	1.273522	0.399259	0.123521
C150	C	1.606855	0.732593	0.456855
C151	C	0.931325	0.065322	0.261480
C152	C	1.264659	0.398655	0.594813
C153	C	1.597992	0.731989	0.928146
C154	C	0.932867	0.065437	0.353768
C155	C	1.266200	0.398771	0.687101
C156	C	1.599534	0.732104	1.020435
H157	H	0.703217	0.191990	0.107623
H158	H	1.036551	0.525323	0.440956
H159	H	1.369884	0.858657	0.774289
H160	H	0.807337	0.056623	-0.293295
H161	H	1.140670	0.389957	0.040038
H162	H	1.474003	0.723290	0.373372
C163	C	0.331956	-0.071717	0.114663
C164	C	0.665289	0.261616	0.447997
C165	C	0.998622	0.594950	0.781330
N166	N	0.363090	-0.134692	0.118435
N167	N	0.696423	0.198641	0.451769
N168	N	1.029757	0.531974	0.785102
C169	C	1.060179	-0.724892	-0.019898
C170	C	1.393512	-0.391558	0.313435
C171	C	1.726846	-0.058225	0.646768
N172	N	1.103077	-0.759502	-0.065016
N173	N	1.436411	-0.426168	0.268317
N174	N	1.769744	-0.092835	0.601650
H175	H	0.821004	-0.320908	0.231574
H176	H	1.154337	0.012425	0.564907
H177	H	1.487671	0.345759	0.898240
C178	C	0.833522	-0.740797	0.218463
C179	C	1.166855	-0.407464	0.551796
C180	C	1.500189	-0.074131	0.885129
N181	N	0.786999	-0.781679	0.267390
N182	N	1.120332	-0.448346	0.600724
N183	N	1.453666	-0.115013	0.934057
H184	H	1.024750	-0.141869	0.017308
H185	H	1.358083	0.191464	0.350642
H186	H	1.691416	0.524797	0.683975
C187	C	0.526430	-0.128253	0.120969
C188	C	0.859764	0.205081	0.454302
C189	C	1.193097	0.538414	0.787636
N190	N	0.489008	-0.196038	0.123789
N191	N	0.822341	0.137295	0.457122
N192	N	1.155674	0.470629	0.790455
H193	H	0.553094	0.181439	0.105544
H194	H	0.886427	0.514772	0.438877
H195	H	1.219761	0.848105	0.772210
C196	C	0.347880	0.259699	0.097918
C197	C	0.681214	0.593033	0.431252
C198	C	1.014547	0.926366	0.764585
N199	N	0.385300	0.327488	0.095077
N200	N	0.718633	0.660822	0.428410
N201	N	1.051967	0.994155	0.761744
C202	C	1.031597	-0.319096	0.010075
C203	C	1.364931	0.014238	0.343408
C204	C	1.698264	0.347571	0.676741
N205	N	1.074482	-0.353698	-0.035065
N206	N	1.407815	-0.020365	0.298268
N207	N	1.741148	0.312968	0.631601
H208	H	0.828927	-0.155608	0.223226
H209	H	1.162260	0.177725	0.556559
H210	H	1.495593	0.511059	0.889892
H211	H	0.184836	0.225767	0.096820
H212	H	0.518169	0.559100	0.430153
H213	H	0.851503	0.892434	0.763487
C214	C	1.087414	0.076261	-0.503116
C215	C	1.420747	0.409595	-0.169783
C216	C	1.754081	0.742928	0.163550
N217	N	1.146701	0.080414	-0.547525
N218	N	1.480034	0.413747	-0.214192
N219	N	1.813367	0.747080	0.119142
H220	H	0.689471	-0.094326	0.122086
H221	H	1.022804	0.239007	0.455419
H222	H	1.356138	0.572340	0.788753
H223	H	1.069607	0.075006	-0.330491
H224	H	1.402940	0.408340	0.002842
H225	H	1.736273	0.741673	0.336175
C226	C	0.783843	0.054967	-0.460076
C227	C	1.117177	0.388301	-0.126743
C228	C	1.450510	0.721634	0.206590
N229	N	0.723356	0.050712	-0.487508
N230	N	1.056689	0.384046	-0.154175
N231	N	1.390022	0.717379	0.179158
C232	C	1.069351	-0.533556	-0.029567
C233	C	1.402684	-0.200222	0.303767
C234	C	1.736018	0.133111	0.637100
N235	N	1.115871	-0.492678	-0.078500
N236	N	1.449205	-0.159344	0.254833
N237	N	1.782538	0.173989	0.588167
C238	C	0.158183	-0.083926	0.112244
C239	C	0.491516	0.249407	0.445577
C240	C	0.824850	0.582741	0.778910
N241	N	0.120763	-0.151713	0.115061
N242	N	0.454096	0.181621	0.448394
N243	N	0.787430	0.514954	0.781728
C244	C	0.842790	-0.549464	0.208899
C245	C	1.176123	-0.216131	0.542233
C246	C	1.509457	0.117202	0.875566
N247	N	0.799993	-0.514859	0.254134
N248	N	1.133327	-0.181526	0.587467
N249	N	1.466660	0.151808	0.920801
