data_functionalizedCrystal
_audit_creation_method	'MofGen! by Chris Wilmer'
_symmetry_space_group_name_H-M	'P1'
_symmetry_Int_Tables_number	1
_symmetry_cell_setting	triclinic
loop_
_symmetry_equiv_pos_as_xyz
  x,y,z
_cell_length_a	14.519710
_cell_length_b	14.519709
_cell_length_c	9.016244
_cell_angle_alpha	89.996820
_cell_angle_beta	90.006400
_cell_angle_gamma	96.319855
loop_
_atom_site_label
_atom_site_type_symbol
_atom_site_fract_x
_atom_site_fract_y
_atom_site_fract_z
O1	O	1.223872	-0.120887	0.123311
O2	O	0.955395	-0.135124	0.123322
O3	O	1.096752	0.006233	0.123303
O4	O	1.082515	-0.262244	0.123330
O5	O	1.096731	0.006230	-0.123378
O6	O	0.955374	-0.135127	-0.123359
O7	O	1.223851	-0.120891	-0.123370
Cu8	Cu	1.089611	-0.128009	-0.145888
Cu9	Cu	1.089635	-0.128005	0.145840
O10	O	1.082494	-0.262247	-0.123351
C11	C	0.921025	-0.134462	-0.000018
C12	C	0.818643	-0.132474	-0.000014
N13	N	1.089600	-0.128011	-0.351074
C14	C	1.096078	0.040591	-0.000038
C15	C	1.094090	0.142972	-0.000039
C16	C	1.258221	-0.121553	-0.000027
C17	C	1.360602	-0.123541	-0.000021
C18	C	1.735498	-0.130860	-0.000020
C19	C	1.631190	-0.128828	-0.000019
C20	C	1.548054	-0.127201	-0.000019
C21	C	1.443739	-0.125168	-0.000022
C22	C	1.083168	-0.296606	-0.000007
C23	C	1.085156	-0.398987	0.000004
C24	C	1.086770	0.517868	0.000000
C25	C	1.088803	0.413560	-0.000011
C26	C	1.090430	0.330423	-0.000021
C27	C	1.092463	0.226109	-0.000029
C28	C	1.013755	-0.203378	-0.586097
C29	C	1.013920	-0.203657	-0.414206
C30	C	1.185864	-0.149189	-0.413414
C31	C	1.185449	-0.149722	-0.585359
C32	C	1.070141	-0.031215	-0.585627
C33	C	1.067924	-0.031860	-0.413673
N34	N	1.089653	-0.127996	0.351026
H35	H	0.941980	-0.190940	-0.627489
H36	H	1.001467	-0.010890	-0.629074
H37	H	0.942371	-0.191015	-0.372061
C38	C	1.030413	-0.299863	-0.644339
C39	C	1.112561	-0.310441	-0.748650
C40	C	1.129241	-0.406929	-0.806852
C41	C	1.063773	-0.492840	-0.760744
C42	C	0.981620	-0.482265	-0.656428
C43	C	0.964940	-0.385777	-0.598226
H44	H	1.161029	-0.246842	-0.782787
H45	H	1.190057	-0.414757	-0.884074
H46	H	1.076121	-0.564266	-0.803829
H47	H	0.933152	-0.545864	-0.622291
H48	H	0.904124	-0.377949	-0.521004
H49	H	1.119596	0.026875	-0.370704
C50	C	1.030769	-0.300676	-0.358600
C51	C	1.120567	-0.341719	-0.400842
C52	C	1.137419	-0.438743	-0.345240
C53	C	1.064473	-0.494725	-0.247395
C54	C	0.974668	-0.453684	-0.205147
C55	C	0.957816	-0.356659	-0.260750
H56	H	1.174571	-0.300277	-0.473278
H57	H	1.203898	-0.469124	-0.376515
H58	H	1.076948	-0.566548	-0.206235
H59	H	0.920664	-0.495126	-0.132712
H60	H	0.891337	-0.326278	-0.229475
H61	H	1.125488	0.024883	-0.626287
C62	C	1.208637	-0.245079	-0.639519
C63	C	1.294514	-0.252112	-0.737342
C64	C	1.317700	-0.347473	-0.791493
C65	C	1.255011	-0.435801	-0.747821
C66	C	1.169129	-0.428771	-0.649993
C67	C	1.145942	-0.333410	-0.595842
H68	H	1.340925	-0.186723	-0.769676
H69	H	1.381276	-0.352676	-0.863912
H70	H	1.272175	-0.506392	-0.787906
H71	H	1.122718	-0.494160	-0.617659
H72	H	1.082366	-0.328207	-0.523423
C73	C	1.264297	-0.078829	-0.642008
C74	C	1.242141	0.002475	-0.740642
C75	C	1.321111	0.073150	-0.797500
C76	C	1.422236	0.062520	-0.755725
C77	C	1.444396	-0.018788	-0.657086
C78	C	1.365427	-0.089462	-0.600228
H79	H	1.167278	0.010347	-0.771571
H80	H	1.304706	0.133339	-0.870519
H81	H	1.480694	0.114838	-0.797814
H82	H	1.519260	-0.026660	-0.626157
H83	H	1.381832	-0.149652	-0.527209
C84	C	1.263992	-0.077009	-0.358163
C85	C	1.261888	0.026248	-0.395389
C86	C	1.340014	0.098429	-0.340134
C87	C	1.420246	0.067354	-0.247654
C88	C	1.422354	-0.035908	-0.210424
C89	C	1.344227	-0.108089	-0.265679
H90	H	1.202493	0.049256	-0.463852
H91	H	1.338453	0.174871	-0.367695
H92	H	1.478080	0.120787	-0.206752
H93	H	1.481749	-0.058916	-0.141961
H94	H	1.345788	-0.184531	-0.238118
H95	H	1.203434	-0.218973	-0.370330
H96	H	0.997111	-0.015792	-0.372930
