data_functionalizedCrystal
_audit_creation_method	'MofGen! by Chris Wilmer'
_symmetry_space_group_name_H-M	'P1'
_symmetry_Int_Tables_number	1
_symmetry_cell_setting	triclinic
loop_
_symmetry_equiv_pos_as_xyz
  x,y,z
_cell_length_a	15.995350
_cell_length_b	12.811457
_cell_length_c	15.072220
_cell_angle_alpha	84.580565
_cell_angle_beta	89.998899
_cell_angle_gamma	83.769027
loop_
_atom_site_label
_atom_site_type_symbol
_atom_site_fract_x
_atom_site_fract_y
_atom_site_fract_z
O1	O	0.112772	1.392652	-0.038281
O2	O	0.125035	1.087075	-0.013692
O3	O	-0.002955	1.248217	-0.026659
O4	O	0.240762	1.231510	-0.025313
O5	O	-0.002948	1.248177	-0.174221
O6	O	0.125042	1.087035	-0.161253
O7	O	0.112779	1.392612	-0.185843
Zn8	Zn	0.118911	1.239817	-0.196977
Zn9	Zn	0.118902	1.239870	-0.002558
O10	O	0.240769	1.231470	-0.172875
C11	C	0.124351	1.047952	-0.084326
C12	C	0.122294	0.931437	-0.074950
C13	C	0.118419	0.712451	-0.218222
C14	C	0.116485	0.602975	-0.209417
C15	C	0.116486	0.603008	-0.048536
C16	C	0.118420	0.712484	-0.057341
C17	C	0.119387	0.767202	-0.142187
C18	C	0.121327	0.876679	-0.150991
C19	C	0.121323	0.876711	0.009889
C20	C	0.119389	0.767235	0.018694
C21	C	-0.034149	1.247506	-0.100383
C22	C	-0.127106	1.245435	-0.100211
C23	C	-0.464880	1.237999	-0.099616
C24	C	-0.417846	1.123237	-0.090050
C25	C	-0.321148	1.125308	-0.090549
C26	C	-0.297306	1.241688	-0.099911
C27	C	-0.338183	1.298270	-0.188729
C28	C	-0.434829	1.295387	-0.188568
C29	C	-0.435186	1.297803	-0.020953
C30	C	-0.338241	1.297776	-0.019837
C31	C	-0.202602	1.243778	-0.100081
C32	C	-0.559585	1.235912	-0.099452
C33	C	0.271963	1.232181	-0.099149
C34	C	0.364920	1.234252	-0.099315
C35	C	0.113462	1.431735	-0.115206
C36	C	0.115520	1.548250	-0.124576
N37	N	0.118917	1.239789	-0.329663
C38	C	0.118899	1.239868	-0.688871
C39	C	0.187152	1.153355	-0.644302
C40	C	0.187403	1.153553	-0.541492
C41	C	0.118908	1.239828	-0.510664
C42	C	0.138371	1.349341	-0.556767
C43	C	0.138857	1.348856	-0.659586
C44	C	0.030983	1.217844	-0.649200
C45	C	0.031560	1.215331	-0.546134
C46	C	0.118912	1.239812	-0.409949
C47	C	0.118897	1.239890	-0.789586
N48	N	0.118890	1.239906	0.130128
H49	H	-0.436540	1.077385	-0.025932
N50	N	0.075552	1.436700	-0.699611
H51	H	0.075376	1.437072	-0.766650
H52	H	0.017752	1.425262	-0.676233
H53	H	0.016798	1.134772	-0.515280
H54	H	-0.455860	1.260299	0.045933
H55	H	-0.466783	1.379642	-0.199168
H56	H	0.115701	0.558401	-0.271333
N57	N	0.115450	0.543978	0.042968
H58	H	0.116359	0.595272	0.089804
H59	H	0.062803	0.507067	0.049443
H60	H	0.118597	0.722670	0.087773
N61	N	0.006333	1.114338	-0.675260
H62	H	-0.050249	1.101767	-0.649106
H63	H	0.002944	1.116864	-0.742353
N64	N	-0.300757	1.246175	-0.267600
H65	H	-0.311604	1.169638	-0.262280
H66	H	-0.327473	1.283216	-0.324402
N67	N	-0.319071	1.411521	-0.201978
H68	H	-0.287339	1.423242	-0.259358
H69	H	-0.373448	1.459870	-0.204995
N70	N	0.122376	0.935761	0.091906
H71	H	0.123751	1.013416	0.073457
H72	H	0.070196	0.925145	0.127894
N73	N	-0.302288	1.243049	0.067147
H74	H	-0.259659	1.182181	0.054746
H75	H	-0.274111	1.294735	0.100385
H76	H	-0.322584	1.382646	-0.021576
H77	H	-0.292884	1.080830	-0.026566
N78	N	-0.476861	1.409883	-0.029212
H79	H	-0.514794	1.421909	-0.083614
H80	H	-0.511263	1.422434	0.025718
N81	N	0.119464	0.771472	-0.309728
H82	H	0.120837	0.849132	-0.303768
H83	H	0.170973	0.743820	-0.342628
H84	H	0.175751	1.072150	-0.509731
H85	H	0.201771	1.369212	-0.532597
N86	N	-0.443998	1.062718	-0.164776
H87	H	-0.486181	1.109317	-0.204798
H88	H	-0.392966	1.039822	-0.200495
H89	H	0.175686	1.071688	-0.662492
N90	N	-0.284429	1.065966	-0.165926
H91	H	-0.298043	0.990539	-0.157267
H92	H	-0.309271	1.100617	-0.224418
N93	N	-0.459266	1.240691	-0.267603
H94	H	-0.407280	1.218675	-0.302219
H95	H	-0.487444	1.176276	-0.246021
N96	N	0.273084	1.171752	-0.679961
H97	H	0.267992	1.235878	-0.724865
H98	H	0.311078	1.183585	-0.629182
N99	N	0.273887	1.171978	-0.510463
H100	H	0.288595	1.242209	-0.538744
H101	H	0.274461	1.172079	-0.443466
H102	H	-0.021640	1.274250	-0.525167
N103	N	-0.036316	1.301389	-0.688143
H104	H	-0.064315	1.339773	-0.638660
H105	H	-0.009976	1.353200	-0.731281
N106	N	0.122375	0.935692	-0.242500
H107	H	0.070195	0.925142	-0.276814
H108	H	0.123781	1.013329	-0.236471
N109	N	0.223798	1.374563	-0.693430
H110	H	0.260575	1.386101	-0.641549
H111	H	0.251109	1.314078	-0.725368
H112	H	0.089997	1.415256	-0.537603
