data_functionalizedCrystal
_audit_creation_method	'MofGen! by Chris Wilmer'
_symmetry_space_group_name_H-M	'P1'
_symmetry_Int_Tables_number	1
_symmetry_cell_setting	triclinic
loop_
_symmetry_equiv_pos_as_xyz
  x,y,z
_cell_length_a	33.510554
_cell_length_b	33.509711
_cell_length_c	33.506470
_cell_angle_alpha	60.004186
_cell_angle_beta	60.008358
_cell_angle_gamma	59.994760
loop_
_atom_site_label
_atom_site_type_symbol
_atom_site_fract_x
_atom_site_fract_y
_atom_site_fract_z
O1	O	0.055430	-0.583081	0.487524
O2	O	0.555430	-0.083081	0.987524
O3	O	0.020931	-0.453975	0.392819
O4	O	0.520931	0.046025	0.892819
O5	O	0.102693	-0.535652	0.392731
O6	O	0.602693	-0.035652	0.892731
O7	O	-0.026332	-0.501404	0.487613
O8	O	0.473668	-0.001404	0.987613
O9	O	0.129823	-0.508526	0.419767
O10	O	0.629823	-0.008526	0.919767
O11	O	0.048062	-0.426850	0.419856
O12	O	0.548062	0.073150	0.919856
O13	O	0.082561	-0.555956	0.514561
O14	O	0.582561	-0.055956	1.014561
Cu15	Cu	0.067789	-0.488926	0.469677
Cu16	Cu	0.567789	0.011074	0.969677
Cu17	Cu	0.035703	-0.521005	0.437703
Cu18	Cu	0.535703	-0.021005	0.937703
O19	O	0.000799	-0.474279	0.514649
O20	O	0.500799	0.025721	1.014649
N21	N	0.090357	-0.466366	0.492168
N22	N	0.590357	0.033634	0.992168
N23	N	0.013139	-0.543569	0.415212
N24	N	0.513139	-0.043569	0.915212
C25	C	0.143028	-0.279707	0.544737
C26	C	0.643028	0.220293	1.044737
C27	C	0.143165	-0.413746	0.678712
C28	C	0.643165	0.086254	1.178712
C29	C	0.143043	-0.413725	0.544739
C30	C	0.643043	0.086275	1.044739
C31	C	0.277090	-0.413694	0.544637
C32	C	0.777090	0.086306	1.044637
C33	C	0.157791	-0.323929	0.559462
C34	C	0.657791	0.176071	1.059462
C35	C	0.157869	-0.398994	0.634489
C36	C	0.657869	0.101006	1.134489
C37	C	0.232865	-0.398963	0.559407
C38	C	0.732865	0.101037	1.059407
C39	C	0.157801	-0.398982	0.559463
C40	C	0.657801	0.101018	1.059463
C41	C	0.124237	-0.223419	0.525994
C42	C	0.624237	0.276581	1.025994
C43	C	0.124262	-0.432490	0.525997
C44	C	0.624262	0.067510	1.025997
C45	C	0.176583	-0.380217	0.578205
C46	C	0.676583	0.119783	1.078205
C47	C	0.358938	-0.399566	0.501510
C48	C	0.858938	0.100434	1.001510
C49	C	0.410104	-0.416609	0.484423
C50	C	0.910104	0.083391	0.984423
C51	C	0.410135	-0.499402	0.515995
C52	C	0.910135	0.000598	1.015995
C53	C	0.358969	-0.482358	0.533084
C54	C	0.858969	0.017642	1.033084
C55	C	0.136554	-0.197822	0.475693
C56	C	0.636554	0.302178	0.975693
C57	C	0.119469	-0.146653	0.458657
C58	C	0.619469	0.353347	0.958657
C59	C	0.077755	-0.146680	0.542223
C60	C	0.577755	0.353320	1.042223
C61	C	0.094840	-0.197850	0.559260
C62	C	0.594840	0.302150	1.059260
C63	C	0.073954	-0.420144	0.538396
C64	C	0.573954	0.079856	1.038396
C65	C	0.056884	-0.437203	0.521352
C66	C	0.556884	0.062797	1.021352
C67	C	0.140427	-0.478952	0.479524
C68	C	0.640427	0.021048	0.979524
C69	C	0.157498	-0.461894	0.496561
C70	C	0.657498	0.038106	0.996561
C71	C	0.074158	-0.420182	0.760618
C72	C	0.574158	0.079818	1.260618
C73	C	0.057149	-0.437256	0.811786
C74	C	0.557149	0.062744	1.311786
C75	C	0.140732	-0.479014	0.811717
C76	C	0.640732	0.020986	1.311717
C77	C	0.157740	-0.461942	0.760547
C78	C	0.657740	0.038058	1.260547
C79	C	0.124452	-0.432525	0.734999
C80	C	0.624452	0.067475	1.234999
C81	C	0.333372	-0.432439	0.525839
C82	C	0.833372	0.067561	1.025839
C83	C	-0.020612	-0.577650	0.170305
C84	C	0.479388	-0.077650	0.670305
C85	C	-0.020943	-0.788098	0.380897
C86	C	0.479057	-0.288098	0.880897
C87	C	-0.020912	-0.577638	0.380991
C88	C	0.479088	-0.077638	0.880991
C89	C	-0.231336	-0.577418	0.380585
C90	C	0.268664	-0.077418	0.880585
C91	C	-0.129735	-0.611383	0.346870
C92	C	0.370265	-0.111383	0.846870
C93	C	-0.054722	-0.611464	0.347017
C94	C	0.445278	-0.111464	0.847017
C95	C	-0.073450	-0.630202	0.328195
C96	C	0.426550	-0.130202	0.828195
C97	C	-0.087616	-0.712029	0.371239
C98	C	0.412384	-0.212029	0.871239
C99	C	-0.070599	-0.763199	0.388315
C100	C	0.429401	-0.263199	0.888315
C101	C	0.012191	-0.763282	0.356872
C102	C	0.512191	-0.263282	0.856872
C103	C	-0.004828	-0.712113	0.339795
C104	C	0.495172	-0.212113	0.839795
C105	C	-0.155381	-0.623711	0.397158
C106	C	0.344619	-0.123711	0.897158
C107	C	-0.206547	-0.606601	0.414133
C108	C	0.293453	-0.106601	0.914133
C109	C	-0.206417	-0.564839	0.330529
C110	C	0.293583	-0.064839	0.830529
C111	C	-0.155251	-0.581949	0.313554
C112	C	0.344749	-0.081949	0.813554
C113	C	-0.067051	-0.561160	0.334643
C114	C	0.432949	-0.061160	0.834643
C115	C	-0.050026	-0.544131	0.351759
C116	C	0.449974	-0.044131	0.851759
C117	C	-0.008343	-0.627704	0.393612
C118	C	0.491657	-0.127704	0.893612
C119	C	-0.025368	-0.644736	0.376502
C120	C	0.474632	-0.144736	0.876502
C121	C	-0.066922	-0.561168	0.246303
C122	C	0.433078	-0.061168	0.746303
C123	C	-0.049794	-0.544141	0.195134
C124	C	0.450206	-0.044141	0.695134
C125	C	-0.008048	-0.627719	0.195183
C126	C	0.491952	-0.127719	0.695183
C127	C	-0.025175	-0.644745	0.246352
C128	C	0.474825	-0.144745	0.746352
C129	C	-0.054614	-0.611468	0.271911
C130	C	0.445386	-0.111468	0.771911
C131	C	-0.054732	-0.686488	0.346980
C132	C	0.445268	-0.186488	0.846980
C133	C	-0.002117	-0.558258	0.114025
C134	C	0.497883	-0.058258	0.614025
C135	C	-0.002879	-0.844379	0.399940
C136	C	0.497121	-0.344379	0.899940
C137	C	-0.002504	-0.558243	0.399473
C138	C	0.497496	-0.058243	0.899473
C139	C	-0.287615	-0.558285	0.398601
C140	C	0.212385	-0.058285	0.898601
N141	N	0.434975	-0.466279	0.491900
N142	N	0.934975	0.033721	0.991900
O143	O	0.591199	-0.470749	0.375150
O144	O	1.091199	0.029251	0.875150
O145	O	0.591395	-0.565767	0.504116
O146	O	1.091395	-0.065767	1.004116
O147	O	0.591311	-0.565550	0.422329
O148	O	1.091311	-0.065550	0.922329
O149	O	0.591283	-0.470966	0.456937
O150	O	1.091283	0.029034	0.956937
O151	O	0.510024	-0.538522	0.449509
O152	O	1.010024	-0.038522	0.949509
O153	O	0.510108	-0.538739	0.531297
O154	O	1.010108	-0.038739	1.031297
O155	O	0.509913	-0.443721	0.402330
O156	O	1.009913	0.056279	0.902330
Cu157	Cu	0.502588	-0.488762	0.469295
Cu158	Cu	1.002588	0.011238	0.969295
Cu159	Cu	0.598719	-0.520726	0.437151
Cu160	Cu	1.098719	-0.020726	0.937151
O161	O	0.509997	-0.443938	0.484117
O162	O	1.009997	0.056062	0.984117
N163	N	0.666332	-0.543209	0.414541
N164	N	1.166332	-0.043209	0.914541
N165	N	0.090323	-0.121809	0.492157
N166	N	0.590323	0.378191	0.992157
O167	O	-0.026342	0.034503	0.487582
O168	O	0.473658	0.534503	0.987582
O169	O	0.102626	0.034543	0.392540
O170	O	0.602626	0.534543	0.892540
O171	O	0.020797	0.034507	0.392812
O172	O	0.520797	0.534507	0.892812
O173	O	0.055487	0.034539	0.487310
O174	O	0.555487	0.534539	0.987310
O175	O	0.047933	-0.046785	0.419900
O176	O	0.547933	0.453215	0.919900
O177	O	0.129763	-0.046749	0.419628
O178	O	0.629763	0.453251	0.919628
O179	O	0.000794	-0.046789	0.514670
O180	O	0.500794	0.453211	1.014670
Cu181	Cu	0.067756	-0.054192	0.469623
Cu182	Cu	0.567756	0.445808	0.969623
Cu183	Cu	0.035664	0.041946	0.437588
Cu184	Cu	0.535664	0.541946	0.937588
O185	O	0.082623	-0.046753	0.514399
O186	O	0.582623	0.453247	1.014399
N187	N	0.013091	0.109564	0.415054
N188	N	0.513091	0.609564	0.915054
N189	N	0.090671	-0.466416	0.836606
N190	N	0.590671	0.033584	1.336606
O191	O	0.086120	-0.583065	0.992910
O192	O	0.586120	-0.083065	1.492910
O193	O	-0.008880	-0.454051	0.992954
O194	O	0.491120	0.045949	1.492954
O195	O	-0.008658	-0.535864	0.992931
O196	O	0.491342	-0.035864	1.492931
O197	O	0.085897	-0.501252	0.992933
O198	O	0.585897	-0.001252	1.492933
O199	O	0.018407	-0.508749	0.911642
O200	O	0.518407	-0.008749	1.411642
O201	O	0.018185	-0.426936	0.911665
O202	O	0.518185	0.073064	1.411665
O203	O	0.113185	-0.555949	0.911621
O204	O	0.613185	-0.055949	1.411621
Cu205	Cu	0.068156	-0.488967	0.904221
Cu206	Cu	0.568156	0.011033	1.404221
Cu207	Cu	0.036148	-0.521034	1.000355
Cu208	Cu	0.536148	-0.021034	1.500355
O209	O	0.112963	-0.474136	0.911644
O210	O	0.612963	0.025864	1.411644
N211	N	0.013633	-0.543590	1.067970
N212	N	0.513633	-0.043590	1.567970
C213	C	0.031262	-0.424144	0.393290
C214	C	0.531262	0.075856	0.893290
C215	C	0.132513	-0.525291	0.393180
C216	C	0.632513	-0.025291	0.893180
C217	C	0.072229	-0.585787	0.514090
C218	C	0.572229	-0.085787	1.014090
C219	C	-0.029022	-0.484640	0.514200
C220	C	0.470978	0.015360	1.014200
C221	C	0.550775	-0.565338	0.533954
C222	C	1.050775	-0.065338	1.033954
C223	C	0.550672	-0.565070	0.432670
C224	C	1.050672	-0.065070	0.932670
C225	C	0.550530	-0.444149	0.372492
C226	C	1.050530	0.055851	0.872492
C227	C	0.550635	-0.444418	0.473776
C228	C	1.050635	0.055582	0.973776
C229	C	0.132408	-0.005998	0.392963
C230	C	0.632408	0.494002	0.892963
C231	C	0.031106	-0.006142	0.393333
C232	C	0.531106	0.493858	0.893333
C233	C	-0.029021	-0.006147	0.514213
C234	C	0.470979	0.493853	1.014213
C235	C	0.072314	-0.006104	0.513878
C236	C	0.572314	0.493896	1.013878
C237	C	-0.008430	-0.424240	0.952316
C238	C	0.491570	0.075760	1.452316
C239	C	-0.008150	-0.525550	0.952271
C240	C	0.491850	-0.025550	1.452271
C241	C	0.112735	-0.585760	0.952260
C242	C	0.612735	-0.085760	1.452260
C243	C	0.112461	-0.484444	0.952286
C244	C	0.612461	0.015556	1.452286
H245	H	0.016194	-0.427197	0.832639
H246	H	0.516194	0.072803	1.332639
F247	F	-0.077431	-0.006163	0.553213
F248	F	0.422569	0.493837	1.053213
F249	F	0.550448	-0.405155	0.324082
F250	F	1.050448	0.094845	0.824082
F251	F	0.021395	-0.006149	0.354525
F252	F	0.521395	0.493851	0.854525
H253	H	0.079744	-0.006095	0.543566
H254	H	0.579744	0.493905	1.043566
F255	F	0.550626	-0.405582	0.483452
F256	F	1.050626	0.094418	0.983452
F257	F	-0.047414	-0.375809	0.952330
F258	F	0.452586	0.124191	1.452330
H259	H	-0.037843	-0.532946	0.952238
H260	H	0.462157	-0.032946	1.452238
F261	F	0.550691	-0.603909	0.422991
F262	F	1.050691	-0.103909	0.922991
H263	H	-0.060067	-0.503170	0.341685
H264	H	0.439933	-0.003170	0.841685
F265	F	0.437375	-0.552530	0.523701
F266	F	0.937375	-0.052530	1.023701
H267	H	0.142562	-0.622811	0.952240
H268	H	0.642562	-0.122811	1.452240
H269	H	0.169370	-0.005761	0.363053
H270	H	0.669370	0.494239	0.863053
H271	H	0.142166	-0.477036	0.952281
H272	H	0.642166	0.022964	1.452281
F273	F	0.550842	-0.604327	0.582369
F274	F	1.050842	-0.104327	1.082369
F275	F	0.180948	-0.534829	0.354234
F276	F	0.680948	-0.034829	0.854234
F277	F	0.176162	-0.510315	0.838906
F278	F	0.676162	-0.010315	1.338906
F279	F	0.038725	-0.388871	0.733432
F280	F	0.538725	0.111129	1.233432
H281	H	0.046887	-0.396202	0.562361
H282	H	0.546887	0.103798	1.062361
F283	F	0.211272	-0.475082	0.733286
F284	F	0.711272	0.024918	1.233286
F285	F	0.003341	-0.424125	0.534607
F286	F	0.503341	0.075875	1.034607
H287	H	0.167497	-0.502899	0.455559
H288	H	0.667497	-0.002899	0.955559
H289	H	-0.066081	-0.477343	0.543993
H290	H	0.433919	0.022657	1.043993
F291	F	0.211042	-0.475033	0.483366
F292	F	0.711042	0.024967	0.983366
H293	H	-0.227194	-0.540877	0.303400
H294	H	0.272806	-0.040877	0.803400
F295	F	0.331765	-0.517350	0.558978
F296	F	0.831765	-0.017350	1.058978
F297	F	0.081864	-0.634262	0.552970
F298	F	0.581864	-0.134262	1.052970
H299	H	0.338097	-0.358917	0.495611
H300	H	0.838097	0.141083	0.995611
F301	F	0.167841	-0.225032	0.440286
F302	F	0.667841	0.274968	0.940286
F303	F	0.437315	-0.381620	0.458529
F304	F	0.937315	0.118380	0.958529
H305	H	0.053825	-0.125861	0.569312
H306	H	0.553825	0.374139	1.069312
F307	F	0.132575	-0.119409	0.405120
F308	F	0.632575	0.380591	0.905120
H309	H	-0.059824	-0.503179	0.174290
H310	H	0.440176	-0.003179	0.674290
F311	F	0.081727	-0.225088	0.612795
F312	F	0.581727	0.274912	1.112795
H313	H	-0.090896	-0.534066	0.267110
H314	H	0.409104	-0.034066	0.767110
H315	H	0.015913	-0.654818	0.174378
H316	H	0.515913	-0.154818	0.674378
F317	F	0.021629	-0.375668	0.354410
F318	F	0.521629	0.124332	0.854410
H319	H	-0.015148	-0.685706	0.267200
H320	H	0.484852	-0.185706	0.767200
H321	H	0.015562	-0.654800	0.417614
H322	H	0.515562	-0.154800	0.917614
F323	F	-0.098329	-0.525747	0.303301
F324	F	0.401671	-0.025747	0.803301
H325	H	-0.128252	-0.691169	0.377093
H326	H	0.371748	-0.191169	0.877093
F327	F	-0.012244	-0.698274	0.389665
F328	F	0.487756	-0.198274	0.889665
H329	H	0.021953	-0.691318	0.320042
H330	H	0.521953	-0.191318	0.820042
H331	H	0.052828	-0.784146	0.351024
H332	H	0.552828	-0.284146	0.851024
H333	H	-0.097376	-0.783993	0.408060
H334	H	0.402624	-0.283993	0.908060
H335	H	-0.134607	-0.647683	0.424287
H336	H	0.365393	-0.147683	0.924287
H337	H	-0.227429	-0.616637	0.455084
H338	H	0.272571	-0.116637	0.955084
H339	H	-0.134369	-0.571905	0.272603
H340	H	0.365631	-0.071905	0.772603
