data_functionalizedCrystal
_audit_creation_method	'MofGen! by Chris Wilmer'
_symmetry_space_group_name_H-M	'P1'
_symmetry_Int_Tables_number	1
_symmetry_cell_setting	triclinic
loop_
_symmetry_equiv_pos_as_xyz
  x,y,z
_cell_length_a	18.050591
_cell_length_b	13.897448
_cell_length_c	13.897441
_cell_angle_alpha	89.969401
_cell_angle_beta	90.027901
_cell_angle_gamma	89.986302
loop_
_atom_site_label
_atom_site_type_symbol
_atom_site_fract_x
_atom_site_fract_y
_atom_site_fract_z
Zn1	Zn	1.135398	0.384087	0.545566
Zn2	Zn	1.385398	0.634087	0.795566
Zn3	Zn	1.635398	0.884087	1.045566
Zn4	Zn	1.885398	1.134087	1.295566
Zn5	Zn	1.135316	0.545409	0.384267
Zn6	Zn	1.385316	0.795409	0.634267
Zn7	Zn	1.635316	1.045409	0.884267
Zn8	Zn	1.885316	1.295409	1.134267
Zn9	Zn	1.011202	0.384118	0.384264
Zn10	Zn	1.261202	0.634118	0.634264
Zn11	Zn	1.511202	0.884118	0.884264
Zn12	Zn	1.761202	1.134118	1.134264
Zn13	Zn	1.011188	0.545330	0.545499
Zn14	Zn	1.261188	0.795330	0.795499
Zn15	Zn	1.511188	1.045330	1.045499
Zn16	Zn	1.761188	1.295330	1.295499
O17	O	1.073276	0.464736	0.464899
O18	O	1.323276	0.714736	0.714899
O19	O	1.573276	0.964736	0.964899
O20	O	1.823276	1.214736	1.214899
O21	O	1.239312	0.405506	0.524198
O22	O	1.489312	0.655506	0.774198
O23	O	1.739312	0.905506	1.024198
O24	O	1.989312	1.155506	1.274198
O25	O	1.118824	0.524059	0.249285
O26	O	1.368824	0.774059	0.499285
O27	O	1.618824	1.024059	0.749285
O28	O	1.868824	1.274059	0.999285
O29	O	1.027717	0.249132	0.405687
O30	O	1.277717	0.499132	0.655687
O31	O	1.527717	0.749132	0.905687
O32	O	1.777717	0.999132	1.155687
O33	O	1.239252	0.524029	0.405693
O34	O	1.489252	0.774029	0.655693
O35	O	1.739252	1.024029	0.905693
O36	O	1.989252	1.274029	1.155693
O37	O	1.118963	0.249109	0.524195
O38	O	1.368963	0.499109	0.774195
O39	O	1.618963	0.749109	1.024195
O40	O	1.868963	0.999109	1.274195
O41	O	1.027638	0.405559	0.249282
O42	O	1.277638	0.655559	0.499282
O43	O	1.527638	0.905559	0.749282
O44	O	1.777638	1.155559	0.999282
O45	O	0.907276	0.405483	0.405623
O46	O	1.157276	0.655483	0.655623
O47	O	1.407276	0.905483	0.905623
O48	O	1.657276	1.155483	1.155623
O49	O	1.027693	0.523895	0.680490
O50	O	1.277693	0.773895	0.930490
O51	O	1.527693	1.023895	1.180490
O52	O	1.777693	1.273895	1.430490
O53	O	0.907265	0.523925	0.524082
O54	O	1.157265	0.773925	0.774082
O55	O	1.407265	1.023925	1.024082
O56	O	1.657265	1.273925	1.274082
O57	O	1.118950	0.405430	0.680539
O58	O	1.368950	0.655430	0.930539
O59	O	1.618950	0.905430	1.180539
O60	O	1.868950	1.155430	1.430539
O61	O	1.118810	0.680380	0.405628
O62	O	1.368810	0.930380	0.655628
O63	O	1.618810	1.180380	0.905628
O64	O	1.868810	1.430380	1.155628
O65	O	1.027614	0.680322	0.524085
O66	O	1.277614	0.930322	0.774085
O67	O	1.527614	1.180322	1.024085
O68	O	1.777614	1.430322	1.274085
C69	C	1.073222	0.715350	0.464871
C70	C	1.323222	0.965350	0.714871
C71	C	1.573222	1.215350	0.964871
C72	C	1.823222	1.465350	1.214871
C73	C	1.073267	0.822564	0.464891
C74	C	1.323267	1.072564	0.714891
C75	C	1.573267	1.322564	0.964891
C76	C	1.823267	1.572564	1.214891
C77	C	0.880324	0.464700	0.464846
C78	C	1.130324	0.714700	0.714846
C79	C	1.380324	0.964700	0.964846
C80	C	1.630324	1.214700	1.214846
C81	C	0.797778	0.464708	0.464846
C82	C	1.047778	0.714708	0.714846
C83	C	1.297778	0.964708	0.964846
C84	C	1.547778	1.214708	1.214846
C85	C	1.073329	0.464651	0.716492
C86	C	1.323329	0.714651	0.966492
C87	C	1.573329	0.964651	1.216492
C88	C	1.823329	1.214651	1.466492
C89	C	1.073351	0.464614	0.823706
C90	C	1.323351	0.714614	1.073706
C91	C	1.573351	0.964614	1.323706
C92	C	1.823351	1.214614	1.573706
C93	C	0.598312	0.400224	0.400576
C94	C	0.848312	0.650224	0.650576
C95	C	1.098312	0.900224	0.900576
C96	C	1.348312	1.150224	1.150576
C97	C	0.548902	0.488207	0.376841
C98	C	0.798902	0.738207	0.626841
C99	C	1.048902	0.988207	0.876841
C100	C	1.298902	1.238207	1.126841
C101	C	0.646648	0.464737	0.464889
C102	C	0.896648	0.714737	0.714889
C103	C	1.146648	0.964737	0.964889
C104	C	1.396648	1.214737	1.214889
C105	C	0.548976	0.376785	0.488622
C106	C	0.798976	0.626785	0.738622
C107	C	1.048976	0.876785	0.988622
C108	C	1.298976	1.126785	1.238622
C109	C	0.500663	0.464758	0.464930
C110	C	0.750663	0.714758	0.714930
C111	C	1.000663	0.964758	0.964930
C112	C	1.250663	1.214758	1.214930
C113	C	0.598326	0.552766	0.441108
C114	C	0.848326	0.802766	0.691108
C115	C	1.098326	1.052766	0.941108
C116	C	1.348326	1.302766	1.191108
C117	C	0.598403	0.441285	0.552930
C118	C	0.848403	0.691285	0.802930
C119	C	1.098403	0.941285	1.052930
C120	C	1.348403	1.191285	1.302930
C121	C	0.549016	0.529328	0.529228
C122	C	0.799016	0.779328	0.779228
C123	C	1.049016	1.029328	1.029228
C124	C	1.299016	1.279328	1.279228
C125	C	0.730746	0.464724	0.464864
C126	C	0.980746	0.714724	0.714864
C127	C	1.230746	0.964724	0.964864
C128	C	1.480746	1.214724	1.214864
C129	C	0.416566	0.464781	0.464955
C130	C	0.666566	0.714781	0.714955
C131	C	0.916566	0.964781	0.964955
C132	C	1.166566	1.214781	1.214955
C133	C	1.266982	0.464773	0.464953
C134	C	1.516982	0.714773	0.714953
C135	C	1.766982	0.964773	0.964953
C136	C	2.016982	1.214773	1.214953
C137	C	1.349528	0.464788	0.464976
C138	C	1.599528	0.714788	0.714976
C139	C	1.849528	0.964788	0.964976
C140	C	2.099528	1.214788	1.214976
C141	C	1.073351	0.213143	0.464948
C142	C	1.323351	0.463143	0.714948
C143	C	1.573351	0.713143	0.964948
C144	C	1.823351	0.963143	1.214948
C145	C	1.073383	0.105929	0.464969
C146	C	1.323383	0.355929	0.714969
C147	C	1.573383	0.605929	0.964969
C148	C	1.823383	0.855929	1.214969
C149	C	1.073345	1.018859	0.464952
C150	C	1.323345	1.268859	0.714952
C151	C	1.573345	1.518859	0.964952
C152	C	1.823345	1.768859	1.214952
C153	C	1.073299	0.909627	0.464921
C154	C	1.323299	1.159627	0.714921
C155	C	1.573299	1.409627	0.964921
C156	C	1.823299	1.659627	1.214921
C157	C	1.073266	0.464751	0.214285
C158	C	1.323266	0.714751	0.464285
C159	C	1.573266	0.964751	0.714285
C160	C	1.823266	1.214751	0.964285
C161	C	1.073388	0.464516	0.107071
C162	C	1.323388	0.714516	0.357071
C163	C	1.573388	0.964516	0.607071
C164	C	1.823388	1.214516	0.857071
C165	C	1.073371	0.464549	1.020001
C166	C	1.323371	0.714549	1.270001
C167	C	1.573371	0.964549	1.520001
C168	C	1.823371	1.214549	1.770001
C169	C	1.073358	0.464588	0.910769
C170	C	1.323358	0.714588	1.160769
C171	C	1.573358	0.964588	1.410769
C172	C	1.823358	1.214588	1.660769
H173	H	0.619957	0.345727	0.346129
H174	H	0.869957	0.595727	0.596129
H175	H	1.119957	0.845727	0.846129
H176	H	1.369957	1.095727	1.096129
Cl177	Cl	0.515804	0.613665	0.613227
Cl178	Cl	0.765804	0.863665	0.863227
Cl179	Cl	1.015804	1.113665	1.113227
Cl180	Cl	1.265804	1.363665	1.363227
Cl181	Cl	0.631999	0.410597	0.667825
Cl182	Cl	0.881999	0.660597	0.917825
Cl183	Cl	1.131999	0.910597	1.167825
Cl184	Cl	1.381999	1.160597	1.417825
H185	H	0.527259	0.302407	0.508645
H186	H	0.777259	0.552407	0.758645
H187	H	1.027259	0.802407	1.008645
H188	H	1.277259	1.052407	1.258645
H189	H	0.527160	0.508058	0.302403
H190	H	0.777160	0.758058	0.552403
H191	H	1.027160	1.008058	0.802403
H192	H	1.277160	1.258058	1.052403
Cl193	Cl	0.631650	0.667649	0.410008
Cl194	Cl	0.881650	0.917649	0.660008
Cl195	Cl	1.131650	1.167649	0.910008
Cl196	Cl	1.381650	1.417649	1.160008
