data_functionalizedCrystal
_audit_creation_method	'MofGen! by Chris Wilmer'
_symmetry_space_group_name_H-M	'P1'
_symmetry_Int_Tables_number	1
_symmetry_cell_setting	triclinic
loop_
_symmetry_equiv_pos_as_xyz
  x,y,z
_cell_length_a	14.519731
_cell_length_b	15.995292
_cell_length_c	13.596369
_cell_angle_alpha	89.997204
_cell_angle_beta	89.994584
_cell_angle_gamma	83.578735
loop_
_atom_site_label
_atom_site_type_symbol
_atom_site_fract_x
_atom_site_fract_y
_atom_site_fract_z
O1	O	1.223632	0.109848	-0.081786
O2	O	1.556965	0.443181	0.251547
O3	O	1.890298	0.776514	0.584880
O4	O	0.955131	0.122755	-0.081787
O5	O	1.288464	0.456088	0.251546
O6	O	1.621798	0.789422	0.584880
O7	O	1.096749	-0.005578	-0.081788
O8	O	1.430082	0.327755	0.251545
O9	O	1.763415	0.661089	0.584879
O10	O	1.082014	0.238181	-0.081785
O11	O	1.415347	0.571514	0.251548
O12	O	1.748680	0.904848	0.584881
O13	O	1.096735	-0.005585	0.081795
O14	O	1.430068	0.327749	0.415128
O15	O	1.763401	0.661082	0.748461
O16	O	0.955117	0.122748	0.081796
O17	O	1.288450	0.456082	0.415129
O18	O	1.621784	0.789415	0.748463
O19	O	1.223618	0.109841	0.081797
O20	O	1.556951	0.443174	0.415130
O21	O	1.890284	0.776508	0.748463
Zn22	Zn	1.089365	0.116294	0.107769
Zn23	Zn	1.422698	0.449627	0.441102
Zn24	Zn	1.756032	0.782960	0.774435
Zn25	Zn	1.089383	0.116303	-0.107759
Zn26	Zn	1.422717	0.449636	0.225574
Zn27	Zn	1.756050	0.782969	0.558908
O28	O	1.082000	0.238174	0.081798
O29	O	1.415333	0.571507	0.415131
O30	O	1.748666	0.904841	0.748464
C31	C	0.920766	0.122147	0.000004
C32	C	1.254099	0.455480	0.333338
C33	C	1.587432	0.788814	0.666671
C34	C	0.818389	0.120335	0.000004
C35	C	1.151722	0.453668	0.333337
C36	C	1.485056	0.787001	0.666670
C37	C	0.735248	0.118862	-0.000000
C38	C	1.068581	0.452195	0.333333
C39	C	1.401915	0.785529	0.666666
C40	C	0.630943	0.117022	-0.000001
C41	C	0.964276	0.450355	0.333333
C42	C	1.297610	0.783689	0.666666
C43	C	0.547807	0.115562	-0.000001
C44	C	0.881140	0.448895	0.333333
C45	C	1.214474	0.782228	0.666666
C46	C	0.443495	0.113722	-0.000003
C47	C	0.776829	0.447055	0.333331
C48	C	1.110162	0.780389	0.666664
C49	C	1.096142	-0.036778	0.000001
C50	C	1.429475	0.296555	0.333334
C51	C	1.762809	0.629889	0.666668
C52	C	1.094344	-0.129734	-0.000007
C53	C	1.427677	0.203600	0.333327
C54	C	1.761011	0.536933	0.666660
C55	C	1.087734	-0.467482	0.000002
C56	C	1.421068	-0.134149	0.333336
C57	C	1.754401	0.199184	0.666669
C58	C	1.189950	-0.444010	0.000368
C59	C	1.523284	-0.110677	0.333701
C60	C	1.856617	0.222657	0.667035
C61	C	1.191893	-0.347331	-0.000004
C62	C	1.525226	-0.013998	0.333329
C63	C	1.858560	0.319335	0.666663
C64	C	1.091014	-0.299921	-0.000001
C65	C	1.424347	0.033412	0.333332
C66	C	1.757681	0.366745	0.666665
C67	C	1.039919	-0.329099	-0.093412
C68	C	1.373252	0.004235	0.239921
C69	C	1.706586	0.337568	0.573254
C70	C	1.038688	-0.425891	-0.093487
C71	C	1.372022	-0.092558	0.239846
C72	C	1.705355	0.240776	0.573180
C73	C	1.036585	-0.425759	0.092537
C74	C	1.369919	-0.092426	0.425871
C75	C	1.703252	0.240907	0.759204
C76	C	1.040373	-0.329261	0.093768
C77	C	1.373706	0.004073	0.427102
C78	C	1.707040	0.337406	0.760435
C79	C	1.092862	-0.205222	-0.000007
C80	C	1.426196	0.128111	0.333326
C81	C	1.759529	0.461444	0.666660
C82	C	1.085883	-0.562181	0.000001
C83	C	1.419216	-0.228848	0.333335
C84	C	1.752550	0.104486	0.666668
C85	C	1.257983	0.110449	0.000003
C86	C	1.591316	0.443783	0.333336
C87	C	1.924649	0.777116	0.666670
C88	C	1.360359	0.112261	-0.000003
C89	C	1.693693	0.445595	0.333331
C90	C	2.027026	0.778928	0.666664
C91	C	1.082606	0.269374	0.000007
C92	C	1.415940	0.602707	0.333340
C93	C	1.749273	0.936041	0.666673
C94	C	1.084404	0.362330	0.000008
C95	C	1.417738	0.695663	0.333341
C96	C	1.751071	1.028996	0.666674
N97	N	1.089359	0.116287	0.254860
N98	N	1.422692	0.449620	0.588194
N99	N	1.756026	0.782954	0.921527
N100	N	1.089397	0.116303	-0.254851
N101	N	1.422730	0.449636	0.078483
N102	N	1.756063	0.782969	0.411816
C103	C	1.089382	0.116303	0.656151
C104	C	1.422716	0.449637	0.989485
C105	C	1.756049	0.782970	1.322818
C106	C	1.089373	0.116302	0.544500
C107	C	1.422706	0.449635	0.877833
C108	C	1.756040	0.782968	1.211167
C109	C	1.089371	0.116296	0.455509
C110	C	1.422704	0.449629	0.788843
C111	C	1.756038	0.782962	1.122176
C112	C	1.089361	0.116293	0.343851
C113	C	1.422694	0.449626	0.677184
C114	C	1.756028	0.782959	1.010518
H115	H	1.229343	-0.471948	0.067357
H116	H	1.562677	-0.138615	0.400690
H117	H	1.896010	0.194718	0.734024
N118	N	0.936928	-0.444458	0.093378
N119	N	1.270262	-0.111124	0.426711
N120	N	1.603595	0.222209	0.760045
H121	H	0.924561	-0.476184	0.155352
H122	H	1.257894	-0.142851	0.488685
H123	H	1.591228	0.190483	0.822019
H124	H	0.894588	-0.389915	0.091159
H125	H	1.227921	-0.056582	0.424492
H126	H	1.561254	0.276752	0.757825
H127	H	0.963743	-0.440559	-0.097717
H128	H	1.297077	-0.107225	0.235616
H129	H	1.630410	0.226108	0.568949
N130	N	0.941592	-0.287034	-0.098015
N131	N	1.274926	0.046299	0.235318
N132	N	1.608259	0.379633	0.568651
H133	H	0.932575	-0.253067	-0.160584
H134	H	1.265909	0.080266	0.172749
H135	H	1.599242	0.413600	0.506083
H136	H	0.897187	-0.331328	-0.097051
H137	H	1.230521	0.002005	0.236283
H138	H	1.563854	0.335338	0.569616
N139	N	1.241867	-0.482343	-0.087871
N140	N	1.575200	-0.149009	0.245463
N141	N	1.908533	0.184324	0.578796
H142	H	1.297044	-0.521618	-0.065068
H143	H	1.630377	-0.188285	0.268265
H144	H	1.963711	0.145049	0.601599
H145	H	1.199398	-0.514808	-0.128048
H146	H	1.532732	-0.181475	0.205285
H147	H	1.866065	0.151858	0.538619
H148	H	1.232158	-0.328861	-0.067082
H149	H	1.565491	0.004472	0.266252
H150	H	1.898824	0.337806	0.599585
H151	H	1.231910	-0.328246	0.066955
H152	H	1.565243	0.005087	0.400288
H153	H	1.898577	0.338420	0.733622
H154	H	1.074086	-0.452649	-0.163315
H155	H	1.407420	-0.119316	0.170018
H156	H	1.740753	0.214018	0.503351
N157	N	1.086940	-0.302467	-0.185500
N158	N	1.420274	0.030867	0.147834
N159	N	1.753607	0.364200	0.481167
H160	H	1.053560	-0.321533	-0.245207
H161	H	1.386894	0.011800	0.088126
H162	H	1.720227	0.345134	0.421460
H163	H	1.085291	-0.239181	-0.186477
H164	H	1.418625	0.094152	0.146856
H165	H	1.751958	0.427485	0.480189
H166	H	1.068769	-0.453800	0.163343
H167	H	1.402102	-0.120467	0.496676
H168	H	1.735436	0.212866	0.830009
H169	H	1.077578	-0.310640	0.162873
H170	H	1.410911	0.022693	0.496206
H171	H	1.744245	0.356027	0.829540
N172	N	0.942827	-0.285765	0.101224
N173	N	1.276161	0.047568	0.434557
N174	N	1.609494	0.380902	0.767891
H175	H	0.944701	-0.222934	0.105381
H176	H	1.278034	0.110400	0.438714
H177	H	1.611367	0.443733	0.772047
H178	H	0.906430	-0.299436	0.041158
H179	H	1.239763	0.033897	0.374491
H180	H	1.573097	0.367231	0.707824
