data_functionalizedCrystal
_audit_creation_method	'MofGen! by Chris Wilmer'
_symmetry_space_group_name_H-M	'P1'
_symmetry_Int_Tables_number	1
_symmetry_cell_setting	triclinic
loop_
_symmetry_equiv_pos_as_xyz
  x,y,z
_cell_length_a	10.723024
_cell_length_b	10.723024
_cell_length_c	9.730223
_cell_angle_alpha	90.000190
_cell_angle_beta	89.999921
_cell_angle_gamma	84.467869
loop_
_atom_site_label
_atom_site_type_symbol
_atom_site_fract_x
_atom_site_fract_y
_atom_site_fract_z
O1	O	-1.657181	-0.175022	-0.114277
O2	O	-1.294029	-0.191775	-0.114282
O3	O	-1.483982	-0.001822	-0.114274
O4	O	-1.467228	-0.364975	-0.114285
O5	O	-1.483980	-0.001827	0.114306
O6	O	-1.294027	-0.191780	0.114298
O7	O	-1.657179	-0.175027	0.114303
Zn8	Zn	-1.475603	-0.183404	0.150593
Zn9	Zn	-1.475605	-0.183398	-0.150571
O10	O	-1.467226	-0.364979	0.114295
C11	C	-1.247528	-0.190558	0.000008
C12	C	-1.108974	-0.186911	0.000006
C13	C	-1.703680	-0.176243	0.000010
C14	C	-1.842234	-0.179891	0.000003
C15	C	-1.482762	0.044675	0.000014
C16	C	-1.479114	0.183229	0.000009
C17	C	-1.033991	-0.293198	0.000002
C18	C	-0.890788	-0.289431	0.000001
C19	C	-1.468447	-0.411477	0.000004
C20	C	-1.472094	-0.550031	-0.000000
C21	C	-1.365807	0.374986	0.000001
C22	C	-1.369574	0.231783	0.000006
N23	N	-1.475610	-0.183408	0.356129
N24	N	-1.475608	-0.183384	-0.356108
C25	C	-1.559743	-0.099325	0.428058
C26	C	-1.559739	-0.099310	0.571941
C27	C	-1.391466	-0.267471	0.571953
C28	C	-1.391464	-0.267479	0.428073
C29	C	-1.656898	-0.002243	0.428053
C30	C	-1.656894	-0.002227	0.571936
H31	H	-1.075814	-0.386984	0.000007
H32	H	-1.626589	0.088410	0.616553
H33	H	-1.322946	-0.335934	0.369509
H34	H	-1.752788	-0.023594	0.610987
H35	H	-1.635606	0.093672	0.389001
N36	N	-1.053579	-0.062679	0.000008
H37	H	-1.082251	-0.013596	-0.084725
H38	H	-1.082265	-0.013700	0.084801
N39	N	-1.596334	0.394592	0.000010
H40	H	-1.602754	0.341178	-0.084720
H41	H	-1.602666	0.341250	0.084806
N42	N	-1.241568	0.430367	-0.000013
H43	H	-1.256487	0.524817	-0.000017
H44	H	-1.192547	0.401605	0.084726
N45	N	-1.249038	0.146448	0.000033
H46	H	-1.268815	0.056245	0.000043
H47	H	-1.198813	0.163056	-0.084701
N48	N	-1.300719	-0.358152	0.649546
H49	H	-1.212035	-0.342965	0.624501
H50	H	-1.313589	-0.345344	0.751584
H51	H	-1.570109	0.247654	0.000015
H52	H	-1.747496	-0.032623	0.383427
H53	H	-0.906659	-0.088896	-0.000002
N54	N	-0.805453	-0.409967	-0.000016
H55	H	-0.715250	-0.390190	-0.000019
H56	H	-0.822069	-0.460185	0.084720
