data_functionalizedCrystal
_audit_creation_method	'MofGen! by Chris Wilmer'
_symmetry_space_group_name_H-M	'P1'
_symmetry_Int_Tables_number	1
_symmetry_cell_setting	triclinic
loop_
_symmetry_equiv_pos_as_xyz
  x,y,z
_cell_length_a	18.101398
_cell_length_b	18.101395
_cell_length_c	19.076919
_cell_angle_alpha	92.272317
_cell_angle_beta	92.285692
_cell_angle_gamma	90.029256
loop_
_atom_site_label
_atom_site_type_symbol
_atom_site_fract_x
_atom_site_fract_y
_atom_site_fract_z
Zn1	Zn	1.115284	-0.311701	-0.397871
Zn2	Zn	1.120161	-0.430570	-0.280179
Zn3	Zn	0.996423	-0.306743	-0.280199
Zn4	Zn	0.991395	-0.435500	-0.397845
O5	O	1.055816	-0.371128	-0.339024
O6	O	1.219564	-0.327480	-0.382262
O7	O	1.107891	-0.410006	-0.181693
O8	O	1.012253	-0.203769	-0.295828
O9	O	1.223146	-0.414813	-0.295794
O10	O	1.099581	-0.207411	-0.382281
O11	O	1.016982	-0.319031	-0.181707
O12	O	0.892123	-0.323812	-0.295802
O13	O	1.003685	-0.423216	-0.496338
O14	O	0.888429	-0.418409	-0.382236
O15	O	1.094705	-0.332261	-0.496357
O16	O	1.103016	-0.534856	-0.295769
O17	O	1.008413	-0.538478	-0.382217
C18	C	0.863405	-0.371108	-0.339019
C19	C	0.781091	-0.371118	-0.339033
C20	C	0.630382	-0.371131	-0.339032
C21	C	0.596733	-0.430734	-0.393330
C22	C	0.511121	-0.430959	-0.393169
C23	C	0.482000	-0.371145	-0.339032
C24	C	0.516195	-0.388830	-0.264769
C25	C	0.601827	-0.389252	-0.265083
C26	C	0.598044	-0.293674	-0.358349
C27	C	0.512324	-0.294172	-0.359985
C28	C	0.398140	-0.371151	-0.339028
C29	C	0.714242	-0.371127	-0.339032
C30	C	1.055718	-0.563538	-0.339003
C31	C	1.055742	-0.645853	-0.339018
C32	C	1.055903	-0.944945	-0.339056
C33	C	0.996508	-0.915936	-0.393581
C34	C	0.996244	-0.830311	-0.393411
C35	C	1.055823	-0.796562	-0.339037
C36	C	1.037833	-0.824575	-0.264863
C37	C	1.037451	-0.910234	-0.265190
C38	C	1.133441	-0.914095	-0.358051
C39	C	1.132912	-0.828513	-0.359678
C40	C	1.055780	-0.712702	-0.339023
C41	C	1.055945	-1.028805	-0.339065
C42	C	1.248977	-0.371150	-0.339029
C43	C	1.331291	-0.371159	-0.339031
C44	C	1.048090	-0.378841	-0.522599
C45	C	1.044798	-0.382128	-0.600827
C46	C	1.055934	-0.177968	-0.339060
C47	C	1.055984	-0.095655	-0.339075
C48	C	1.090639	-0.336319	-0.637591
C49	C	1.087536	-0.339405	-0.711095
C50	C	1.038597	-0.388303	-0.747834
C51	C	0.992751	-0.434114	-0.711066
C52	C	0.995850	-0.431024	-0.637563
C53	C	1.024243	-0.402618	-0.967663
C54	C	1.021149	-0.405706	-1.041171
C55	C	1.115934	-0.310995	-1.041195
C56	C	1.119031	-0.307913	-0.967691
C57	C	1.073183	-0.353721	-0.930929
N58	N	1.035426	-0.391460	-0.822968
N59	N	1.076351	-0.350560	-0.855797
C60	C	1.063554	-0.363392	-0.156163
C61	C	1.066989	-0.359897	-0.077935
H62	H	0.624337	-0.347527	-0.223240
Br63	Br	0.479263	-0.216664	-0.298936
Br64	Br	0.901189	-0.951055	-0.372894
H65	H	1.079005	-0.929175	-0.223179
H66	H	0.617417	-0.276898	-0.411589
H67	H	0.619994	-0.249309	-0.318806
Br68	Br	1.157066	-0.269959	-0.587737
H69	H	1.150455	-0.937893	-0.411217
H70	H	0.622460	-0.445768	-0.248757
Br71	Br	0.474650	-0.271835	-0.451079
Br72	Br	0.627230	-0.413247	-0.485378
H73	H	0.981294	-0.445527	-1.071083
Br74	Br	1.185455	-0.241550	-0.917835
Br75	Br	0.633442	-0.525967	-0.372235
Br76	Br	0.485219	-0.318467	-0.195484
Br77	Br	1.107897	-0.787687	-0.195301
Br78	Br	0.477813	-0.526742	-0.371832
H79	H	0.952901	-0.473926	-0.740985
Br80	Br	0.944548	-0.787779	-0.237559
Br81	Br	0.481563	-0.481966	-0.237086
H82	H	1.007136	-0.811574	-0.448410
Br83	Br	1.149786	-0.277267	-0.760986
H84	H	1.177654	-0.932666	-0.318338
H85	H	1.153260	-0.273700	-1.071135
H86	H	1.146535	-0.810460	-0.414266
Br87	Br	1.210156	-0.790224	-0.298316
H88	H	0.986921	-0.439929	-0.937740
H89	H	0.958514	-0.468319	-0.607631
H90	H	0.487797	-0.420296	-0.448225
Br91	Br	0.900344	-0.795373	-0.372446
Br92	Br	1.014425	-0.954076	-0.485552
Br93	Br	0.943138	-0.942506	-0.238368
