data_functionalizedCrystal
_audit_creation_method	'MofGen! by Chris Wilmer'
_symmetry_space_group_name_H-M	'P1'
_symmetry_Int_Tables_number	1
_symmetry_cell_setting	triclinic
loop_
_symmetry_equiv_pos_as_xyz
  x,y,z
_cell_length_a	19.805407
_cell_length_b	12.759394
_cell_length_c	19.805399
_cell_angle_alpha	89.977727
_cell_angle_beta	89.980427
_cell_angle_gamma	90.013856
loop_
_atom_site_label
_atom_site_type_symbol
_atom_site_fract_x
_atom_site_fract_y
_atom_site_fract_z
Zn1	Zn	1.034795	-0.418291	-0.382745
Zn2	Zn	1.034734	-0.593984	-0.269567
Zn3	Zn	0.921609	-0.418320	-0.269569
Zn4	Zn	0.921598	-0.593928	-0.382714
O5	O	0.978184	-0.506131	-0.326149
O6	O	1.129503	-0.441608	-0.367743
O7	O	1.019708	-0.570717	-0.174851
O8	O	0.936654	-0.271295	-0.284596
O9	O	1.129459	-0.570689	-0.284592
O10	O	1.019811	-0.271274	-0.367746
O11	O	0.936595	-0.441658	-0.174852
O12	O	0.826891	-0.441603	-0.284566
O13	O	0.936634	-0.570594	-0.477434
O14	O	0.826883	-0.570622	-0.367693
O15	O	1.019799	-0.441554	-0.477457
O16	O	1.019696	-0.740998	-0.284562
O17	O	0.936575	-0.740957	-0.367691
C18	C	0.802328	-0.506111	-0.326127
C19	C	0.727096	-0.506127	-0.326133
C20	C	0.691765	-0.573409	-0.369347
C21	C	0.621077	-0.573411	-0.369357
C22	C	0.585720	-0.506136	-0.326149
C23	C	0.621056	-0.438847	-0.282933
C24	C	0.691743	-0.438841	-0.282927
C25	C	0.335983	-0.438870	-0.282955
C26	C	0.265291	-0.438884	-0.282963
C27	C	0.265316	-0.573440	-0.369385
C28	C	0.336003	-0.573434	-0.369379
C29	C	0.371333	-0.506142	-0.326166
C30	C	0.447982	-0.506139	-0.326157
C31	C	0.509073	-0.506143	-0.326154
C32	C	0.978146	-0.779098	-0.326137
C33	C	0.978192	-0.895875	-0.326155
C34	C	1.064719	-0.895695	-0.412804
C35	C	1.108003	-0.950465	-0.456133
C36	C	1.108043	-1.060187	-0.456148
C37	C	1.064793	-1.115140	-0.412830
C38	C	1.021508	-1.060370	-0.369500
C39	C	1.021474	-0.950646	-0.369489
C40	C	0.934980	-1.060550	-0.282856
C41	C	0.934942	-0.950828	-0.282837
C42	C	0.891729	-1.115504	-0.239538
C43	C	0.848447	-1.060733	-0.196205
C44	C	0.848409	-0.951005	-0.196191
C45	C	0.891657	-0.896058	-0.239508
C46	C	1.154727	-0.506152	-0.326171
C47	C	1.229959	-0.506161	-0.326180
C48	C	0.978222	-0.506065	-0.502691
C49	C	0.978238	-0.506036	-0.577923
C50	C	0.978240	-0.232097	-0.326175
C51	C	0.978264	-0.115321	-0.326186
C52	C	1.021543	-0.438842	-0.613281
C53	C	1.021550	-0.438811	-0.683969
C54	C	0.978255	-0.505982	-0.719299
C55	C	0.934945	-0.573179	-0.683937
C56	C	0.934935	-0.573203	-0.613250
C57	C	0.934983	-0.573081	-0.969010
C58	C	0.934998	-0.573054	-1.039703
C59	C	1.021598	-0.438689	-1.039730
C60	C	1.021588	-0.438713	-0.969042
C61	C	0.978276	-0.505907	-0.933687
C62	C	0.978268	-0.505937	-0.857038
C63	C	0.978266	-0.505957	-0.795946
C64	C	0.978185	-0.506121	-0.150293
C65	C	0.978300	-0.505853	-0.075061
H66	H	0.592313	-0.628199	-0.404546
H67	H	1.143282	-1.104781	-0.491437
H68	H	1.056815	-0.384097	-0.712754
F69	F	0.802417	-1.119224	-0.150113
F70	F	0.373628	-0.645041	-0.415365
F71	F	1.067693	-0.367172	-1.077363
H72	H	0.720509	-0.384048	-0.247741
F73	F	1.064673	-0.778919	-0.412798
H74	H	0.236542	-0.628229	-0.404574
F75	F	1.067628	-0.367354	-0.575686
H76	H	0.891763	-1.204845	-0.239556
H77	H	1.064824	-1.204481	-0.412851
H78	H	0.813159	-0.906416	-0.160910
H79	H	0.891634	-0.806717	-0.239498
F80	F	1.067672	-0.367226	-0.931445
F81	F	0.888842	-0.644719	-0.575620
H82	H	1.143216	-0.905713	-0.491404
F83	F	0.888914	-0.644548	-1.077302
F84	F	0.888887	-0.644594	-0.931391
H85	H	0.720547	-0.628195	-0.404531
F86	F	0.227664	-0.367276	-0.236973
F87	F	0.888864	-0.644663	-0.721540
H88	H	0.364740	-0.384085	-0.247763
H89	H	0.592264	-0.384066	-0.247755
