data_functionalizedCrystal
_audit_creation_method	'MofGen! by Chris Wilmer'
_symmetry_space_group_name_H-M	'P1'
_symmetry_Int_Tables_number	1
_symmetry_cell_setting	triclinic
loop_
_symmetry_equiv_pos_as_xyz
  x,y,z
_cell_length_a	10.967926
_cell_length_b	10.967829
_cell_length_c	10.065875
_cell_angle_alpha	86.921207
_cell_angle_beta	93.120479
_cell_angle_gamma	87.248880
loop_
_atom_site_label
_atom_site_type_symbol
_atom_site_fract_x
_atom_site_fract_y
_atom_site_fract_z
O1	O	1.622282	0.210055	0.218659
O2	O	2.122282	0.710055	0.718659
O3	O	1.272392	0.213494	0.135556
O4	O	1.772392	0.713494	0.635556
O5	O	1.449083	0.036855	0.218663
O6	O	1.949083	0.536855	0.718663
O7	O	1.445591	0.386694	0.135552
O8	O	1.945591	0.886694	0.635552
O9	O	1.415397	0.070679	0.429772
O10	O	1.915397	0.570679	0.929772
O11	O	1.238705	0.247319	0.346665
O12	O	1.738705	0.747319	0.846665
O13	O	1.588596	0.243879	0.429769
O14	O	2.088596	0.743879	0.929769
Zn15	Zn	1.408302	0.250969	0.421735
Zn16	Zn	1.908302	0.750969	0.921735
Zn17	Zn	1.452685	0.206404	0.143589
Zn18	Zn	1.952685	0.706404	0.643589
O19	O	1.411904	0.420519	0.346662
O20	O	1.911904	0.920519	0.846662
C21	C	1.210630	0.227600	0.231205
C22	C	1.710630	0.727600	0.731205
C23	C	1.076785	0.219225	0.201695
C24	C	1.576785	0.719225	0.701695
C25	C	0.999662	0.233013	0.297899
C26	C	1.499662	0.733013	0.797899
C27	C	0.861326	0.224357	0.267401
C28	C	1.361326	0.724357	0.767401
C29	C	1.429441	0.008854	0.334121
C30	C	1.929441	0.508854	0.834121
C31	C	1.421085	-0.124975	0.363625
C32	C	1.921085	0.375025	0.863625
C33	C	1.434811	-0.202155	0.267417
C34	C	1.934811	0.297845	0.767417
C35	C	1.426176	-0.340474	0.297910
C36	C	1.926176	0.159526	0.797910
C37	C	1.650358	0.229773	0.334116
C38	C	2.150358	0.729773	0.834116
C39	C	1.784204	0.238147	0.363619
C40	C	2.284204	0.738147	0.863619
C41	C	1.431547	0.448519	0.231201
C42	C	1.931547	0.948519	0.731201
C43	C	1.439904	0.582346	0.201688
C44	C	1.939904	1.082346	0.701688
N45	N	1.378021	0.281383	0.611565
N46	N	1.878021	0.781383	1.111565
N47	N	1.482976	0.175981	-0.046236
N48	N	1.982976	0.675981	0.453764
C49	C	1.442142	0.216978	0.709574
C50	C	1.942142	0.716978	1.209574
C51	C	1.418846	0.240395	0.855754
C52	C	1.918846	0.740395	1.355754
H53	H	0.820583	0.256356	0.468570
H54	H	1.320583	0.756356	0.968570
O55	O	1.028607	0.195104	0.062678
O56	O	1.528607	0.695104	0.562678
H57	H	0.927512	0.192101	0.060536
H58	H	1.427512	0.692101	0.560536
H59	H	1.555119	0.103496	0.929461
H60	H	2.055119	0.603496	1.429461
H61	H	1.402934	-0.161298	0.468565
H62	H	1.902934	0.338702	0.968565
H63	H	1.346693	0.312872	0.880057
H64	H	1.846693	0.812872	1.380057
H65	H	1.305873	0.353855	0.635875
H66	H	1.805873	0.853855	1.135875
O67	O	0.813166	0.200221	0.128376
O68	O	1.313166	0.700221	0.628376
H69	H	0.749669	0.277332	0.089449
H70	H	1.249669	0.777332	0.589449
O71	O	1.458842	-0.154060	0.128402
O72	O	1.958842	0.345940	0.628402
H73	H	1.461859	-0.052966	0.126269
H74	H	1.961859	0.447034	0.626269
H75	H	1.408023	-0.376792	0.402857
H76	H	1.908023	0.123208	0.902857
O77	O	1.463935	-0.369552	0.062670
O78	O	1.963935	0.130448	0.562670
H79	H	1.389656	-0.395401	-0.008082
H80	H	1.889656	0.104599	0.491918
H81	H	1.514280	0.144497	0.685266
H82	H	2.014280	0.644497	1.185266
H83	H	1.036049	0.251219	0.402843
H84	H	1.536049	0.751219	0.902843
