data_functionalizedCrystal
_audit_creation_method	'MofGen! by Chris Wilmer'
_symmetry_space_group_name_H-M	'P1'
_symmetry_Int_Tables_number	1
_symmetry_cell_setting	triclinic
loop_
_symmetry_equiv_pos_as_xyz
  x,y,z
_cell_length_a	12.759401
_cell_length_b	16.120444
_cell_length_c	12.759393
_cell_angle_alpha	87.135249
_cell_angle_beta	90.019676
_cell_angle_gamma	92.926867
loop_
_atom_site_label
_atom_site_type_symbol
_atom_site_fract_x
_atom_site_fract_y
_atom_site_fract_z
Zn1	Zn	1.584975	-0.331858	0.615155
Zn2	Zn	1.575921	-0.471294	0.448370
Zn3	Zn	1.409271	-0.331899	0.439496
Zn4	Zn	1.400324	-0.471233	0.624007
O5	O	1.492623	-0.401571	0.531757
O6	O	1.730795	-0.350362	0.593039
O7	O	1.553769	-0.452846	0.300174
O8	O	1.440113	-0.215228	0.455380
O9	O	1.724142	-0.452805	0.470503
O10	O	1.569202	-0.215197	0.584435
O11	O	1.431333	-0.350433	0.293655
O12	O	1.261064	-0.350374	0.463963
O13	O	1.424863	-0.452701	0.769851
O14	O	1.254490	-0.452742	0.599522
O15	O	1.560526	-0.350303	0.763347
O16	O	1.545093	-0.587951	0.479087
O17	O	1.416083	-0.587907	0.608127
C18	C	1.219656	-0.401556	0.531741
C19	C	1.102879	-0.401570	0.531761
C20	C	1.051475	-0.348325	0.595675
C21	C	0.941751	-0.348333	0.595683
C22	C	0.934842	-0.454840	0.467859
C23	C	1.044565	-0.454827	0.467847
C24	C	0.798136	-0.250064	0.627182
C25	C	0.746728	-0.196826	0.691113
C26	C	0.783202	-0.184119	0.792841
C27	C	0.871081	-0.224663	0.830660
C28	C	0.922483	-0.277908	0.766734
C29	C	0.886011	-0.290599	0.664991
C30	C	1.188182	-0.553097	0.436358
C31	C	1.239586	-0.606346	0.372437
C32	C	1.203113	-0.619061	0.270708
C33	C	1.115230	-0.578532	0.232895
C34	C	1.063827	-0.525283	0.296815
C35	C	1.100306	-0.512566	0.398543
C36	C	1.478663	-0.618179	0.545553
C37	C	1.472788	-0.710845	0.551490
C38	C	1.523361	-0.921789	0.501184
C39	C	1.462080	-0.880501	0.562341
C40	C	1.468039	-0.786096	0.556302
C41	C	1.517402	-1.016203	0.507222
C42	C	1.766655	-0.401586	0.531773
C43	C	1.883431	-0.401592	0.531780
C44	C	1.492707	-0.401491	0.805785
C45	C	1.492742	-0.401457	0.922560
C46	C	1.506665	-0.184117	0.517930
C47	C	1.512649	-0.091451	0.512038
C48	C	1.492604	-0.401590	0.258791
C49	C	1.492787	-0.401390	0.142002
C50	C	1.563387	-0.348129	0.974037
C51	C	1.563407	-0.348093	1.083758
C52	C	1.422134	-0.454719	1.090518
C53	C	1.422110	-0.454750	0.980798
C54	C	1.607330	-0.249731	1.227461
C55	C	1.677991	-0.196411	1.278942
C56	C	1.781324	-0.183628	1.242533
C57	C	1.814016	-0.224177	1.154645
C58	C	1.743360	-0.277504	1.103170
C59	C	1.640014	-0.290270	1.139577
C60	C	1.378198	-0.553114	0.837093
C61	C	1.307546	-0.606445	0.785617
C62	C	1.204211	-0.619236	0.822024
C63	C	1.171522	-0.578702	0.909916
C64	C	1.242173	-0.525371	0.961393
C65	C	1.345508	-0.512578	0.924977
H66	H	1.098951	-0.304957	0.647715
H67	H	1.580297	-0.886240	0.444293
C68	C	1.778841	-0.321679	1.007877
C69	C	1.766933	-0.407813	1.028104
C70	C	1.799621	-0.448530	0.940344
H71	H	1.737425	-0.306070	0.948949
H72	H	1.850523	-0.306489	0.993564
H73	H	1.695263	-0.422998	1.042403
H74	H	1.808349	-0.423447	1.087016
H75	H	1.871303	-0.433339	0.926031
H76	H	1.758202	-0.432914	0.881422
H77	H	1.791555	-0.506976	0.954059
H78	H	1.620898	-0.304732	0.926622
H79	H	1.405139	-0.916055	0.619235
H80	H	1.898164	-0.213771	1.125014
H81	H	1.215549	-0.492365	1.032959
H82	H	0.675177	-0.163815	0.660312
C83	C	1.334989	-0.650461	0.413318
C84	C	1.372179	-0.699833	0.335578
C85	C	1.460053	-0.740490	0.373202
H86	H	1.388430	-0.610419	0.431042
H87	H	1.315921	-0.684606	0.473848
H88	H	1.391250	-0.665690	0.275067
H89	H	1.318765	-0.739890	0.317846
H90	H	1.440985	-0.774635	0.433731
H91	H	1.513486	-0.700442	0.390925
H92	H	1.485291	-0.773999	0.320465
C93	C	1.490478	-0.539246	0.797790
C94	C	1.559668	-0.564125	0.877143
C95	C	1.663109	-0.551355	0.840987
H96	H	1.499999	-0.571015	0.738110
H97	H	1.504196	-0.481927	0.779131
H98	H	1.545955	-0.621434	0.895787
H99	H	1.550180	-0.532361	0.936829
H100	H	1.676828	-0.494036	0.822329
H101	H	1.672620	-0.583125	0.781307
H102	H	1.710068	-0.568226	0.894826
H103	H	0.994036	-0.310914	0.797523
H104	H	0.741338	-0.140771	0.844894
C105	C	0.910754	-0.210705	0.941049
C106	C	0.938333	-0.126200	0.950242
C107	C	0.974900	-0.113308	1.051913
H108	H	0.857134	-0.227554	0.990382
H109	H	0.970489	-0.242428	0.954440
H110	H	0.878605	-0.094488	0.936863
H111	H	0.991961	-0.109332	0.900933
H112	H	1.034635	-0.145031	1.065305
H113	H	0.921275	-0.130161	1.101238
H114	H	0.993626	-0.055973	1.058162
H115	H	1.838857	-0.140213	1.284456
H116	H	1.523187	-0.260127	1.257108
H117	H	1.651364	-0.163395	1.350500
C118	C	1.127360	-0.677142	0.766312
C119	C	1.029872	-0.679676	0.817026
C120	C	0.959055	-0.733014	0.765746
H121	H	1.119641	-0.657316	0.695508
H122	H	1.153164	-0.731440	0.767946
H123	H	1.004073	-0.625389	0.815381
H124	H	1.037557	-0.699511	0.887826
H125	H	0.984859	-0.787312	0.767380
H126	H	0.951346	-0.713183	0.694944
H127	H	0.892905	-0.734746	0.800154
C128	C	1.345573	-0.512552	1.153938
C129	C	1.360732	-0.501129	1.261046
C130	C	1.290233	-0.554400	1.319497
H131	H	1.275721	-0.500403	1.135301
H132	H	1.357335	-0.568592	1.139580
H133	H	1.348962	-0.445101	1.275397
H134	H	1.430570	-0.513283	1.279713
H135	H	1.301995	-0.610440	1.305139
H136	H	1.220385	-0.542246	1.300852
H137	H	1.300515	-0.546662	1.392176
C138	C	0.758362	-0.263951	0.516811
C139	C	0.654925	-0.297381	0.521837
C140	C	0.618250	-0.310196	0.420185
H141	H	0.760502	-0.212439	0.477133
H142	H	0.801504	-0.301496	0.484130
H143	H	0.611795	-0.259838	0.554503
H144	H	0.652757	-0.348899	0.561496
H145	H	0.661392	-0.347740	0.387504
H146	H	0.620397	-0.258680	0.380515
H147	H	0.548069	-0.332886	0.423582
H148	H	1.087379	-0.589120	0.939563
H149	H	1.334174	-0.639458	0.714058
H150	H	0.887350	-0.498201	0.415823
H151	H	1.244954	-0.662445	0.218679
C152	C	0.968498	-0.481120	0.255837
C153	C	0.988777	-0.394985	0.256904
C154	C	0.900981	-0.354276	0.219177
H155	H	0.954053	-0.496213	0.186081
H156	H	0.909629	-0.496831	0.299293
H157	H	1.047627	-0.379279	0.213448
H158	H	1.003209	-0.379867	0.326648
H159	H	0.842113	-0.369988	0.262633
H160	H	0.886544	-0.369376	0.149423
H161	H	0.914725	-0.295830	0.219905
H162	H	1.217893	-0.542741	0.519192
C163	C	1.075638	-0.592509	0.122480
C164	C	1.048115	-0.677023	0.113279
C165	C	1.011652	-0.689936	0.011578
H166	H	1.015903	-0.560824	0.109001
H167	H	1.129324	-0.575636	0.073208
H168	H	0.994434	-0.693886	0.162536
H169	H	1.107834	-0.708726	0.126738
H170	H	1.065337	-0.673064	-0.037694
H171	H	0.951920	-0.658247	-0.001893
H172	H	0.992982	-0.747280	0.005319
