data_functionalizedCrystal
_audit_creation_method	'MofGen! by Chris Wilmer'
_symmetry_space_group_name_H-M	'P1'
_symmetry_Int_Tables_number	1
_symmetry_cell_setting	triclinic
loop_
_symmetry_equiv_pos_as_xyz
  x,y,z
_cell_length_a	14.853567
_cell_length_b	15.944551
_cell_length_c	13.930277
_cell_angle_alpha	89.994493
_cell_angle_beta	89.995755
_cell_angle_gamma	83.566834
loop_
_atom_site_label
_atom_site_type_symbol
_atom_site_fract_x
_atom_site_fract_y
_atom_site_fract_z
O1	O	1.196228	0.109664	-0.079767
O2	O	0.933751	0.122728	-0.079783
O3	O	1.072157	-0.006071	-0.079766
O4	O	1.057822	0.238463	-0.079784
O5	O	1.072138	-0.006073	0.079896
O6	O	0.933732	0.122725	0.079878
O7	O	1.196208	0.109662	0.079895
Zn8	Zn	1.064967	0.116193	0.105236
Zn9	Zn	1.064993	0.116197	-0.105125
O10	O	1.057803	0.238460	0.079878
C11	C	0.900154	0.122135	0.000045
C12	C	0.800072	0.120361	0.000039
C13	C	0.387646	0.036354	0.000067
C14	C	0.366169	0.189369	0.000055
C15	C	0.460201	0.191037	0.000051
C16	C	0.517960	0.115362	0.000055
C17	C	0.481687	0.038019	0.000061
C18	C	0.496480	0.268379	0.000035
C19	C	0.590517	0.270050	0.000031
C20	C	0.648278	0.194374	0.000041
C21	C	0.612000	0.117028	0.000049
C22	C	0.669759	0.041353	0.000052
C23	C	0.633483	-0.035994	0.000066
C24	C	0.539448	-0.037657	0.000071
C25	C	0.742313	0.196036	0.000036
C26	C	0.763800	0.043018	0.000046
C27	C	1.071552	-0.037367	0.000065
C28	C	1.069768	-0.130615	0.000065
C29	C	0.979713	-0.345572	0.000047
C30	C	1.021522	-0.406544	0.078772
C31	C	1.066541	-0.301344	0.000058
C32	C	1.021562	-0.406524	-0.078642
C33	C	1.063416	-0.466260	0.000046
C34	C	1.108373	-0.361088	0.078848
C35	C	1.108401	-0.361062	-0.078636
C36	C	1.150273	-0.422017	0.000109
C37	C	1.068338	-0.206340	0.000065
C38	C	1.061626	-0.561263	0.000046
C39	C	1.229806	0.110255	0.000064
C40	C	1.329887	0.112029	0.000064
C41	C	1.058407	0.269756	0.000044
C42	C	1.060191	0.363004	0.000038
N43	N	1.064957	0.116190	0.248803
N44	N	1.065010	0.116193	-0.248691
C45	C	1.003704	0.173206	0.701064
C46	C	1.126306	0.059181	0.701049
C47	C	1.126295	0.059178	0.600553
C48	C	1.064989	0.116191	0.550308
C49	C	1.003693	0.173207	0.600559
C50	C	1.187596	0.002169	0.550295
C51	C	1.187588	0.002164	0.449793
C52	C	1.126277	0.059174	0.399546
C53	C	1.064978	0.116192	0.449803
C54	C	1.003672	0.173205	0.399558
C55	C	0.942368	0.230220	0.449814
C56	C	0.942382	0.230217	0.550312
C57	C	1.126263	0.059177	0.299047
C58	C	1.003661	0.173206	0.299053
H59	H	0.449447	0.329989	0.000023
H60	H	0.892471	0.276637	0.591236
H61	H	0.771845	0.259011	0.000026
H62	H	1.222407	-0.455095	0.000158
H63	H	1.176224	0.012766	0.741962
O64	O	0.629635	0.353472	0.000039
H65	H	0.606435	0.389850	-0.065031
O66	O	0.884254	-0.301545	0.000137
H67	H	0.848419	-0.319635	0.065584
O68	O	0.348522	-0.047066	0.000087
H69	H	0.404486	-0.099404	0.000096
H70	H	0.892456	0.276644	0.408893
H71	H	0.984790	-0.426694	0.145324
O72	O	0.826098	-0.038604	0.000056
H73	H	0.813205	-0.075611	-0.065016
H74	H	0.984834	-0.426641	-0.145203
O75	O	0.937589	0.234704	0.755257
H76	H	0.947895	0.225133	0.833583
H77	H	0.680523	-0.097609	0.000062
H78	H	0.319136	0.250981	0.000044
H79	H	1.237514	-0.044246	0.591208
O80	O	1.156964	-0.334567	0.167114
H81	H	1.157871	-0.265057	0.166445
O82	O	1.157017	-0.334327	-0.166790
H83	H	1.120841	-0.352312	-0.232047
O84	O	0.937527	0.234688	0.244857
H85	H	0.975463	0.275578	0.199048
H86	H	0.509903	-0.100629	0.000105
O87	O	1.253698	-0.059335	0.395597
H88	H	1.215737	-0.100220	0.349824
O89	O	1.192371	-0.002310	0.244840
H90	H	1.235001	-0.041957	0.296663
