data_functionalizedCrystal
_audit_creation_method	'MofGen! by Chris Wilmer'
_symmetry_space_group_name_H-M	'P1'
_symmetry_Int_Tables_number	1
_symmetry_cell_setting	triclinic
loop_
_symmetry_equiv_pos_as_xyz
  x,y,z
_cell_length_a	16.956984
_cell_length_b	27.731996
_cell_length_c	26.210047
_cell_angle_alpha	89.989354
_cell_angle_beta	89.983218
_cell_angle_gamma	79.337403
loop_
_atom_site_label
_atom_site_type_symbol
_atom_site_fract_x
_atom_site_fract_y
_atom_site_fract_z
O1	O	1.057800	0.020036	-0.042434
O2	O	0.825428	0.037015	-0.042436
O3	O	0.948853	-0.042129	-0.042424
O4	O	0.934376	0.099181	-0.042446
O5	O	0.948814	-0.042128	0.042434
O6	O	0.825390	0.037017	0.042422
O7	O	1.057762	0.020037	0.042425
Cu8	Cu	0.941572	0.028527	0.050172
Cu9	Cu	0.941618	0.028526	-0.050183
O10	O	0.934337	0.099182	0.042412
C11	C	0.795690	0.037886	-0.000007
C12	C	0.707136	0.040471	-0.000007
C13	C	0.948536	-0.060125	0.000007
C14	C	0.947640	-0.113750	0.000012
C15	C	0.675598	-0.002750	0.000000
C16	C	0.592392	-0.000318	-0.000004
C17	C	0.540726	0.045334	-0.000012
C18	C	0.572269	0.088558	-0.000021
C19	C	0.655474	0.086126	-0.000021
C20	C	0.290801	0.057374	-0.000017
C21	C	0.207592	0.059803	-0.000016
C22	C	0.227720	-0.029074	0.000000
C23	C	0.310925	-0.031502	0.000004
C24	C	0.342462	0.011721	-0.000008
N25	N	0.455676	0.047821	-0.000014
N26	N	0.427510	0.009234	-0.000009
C27	C	0.942026	-0.446267	-0.046269
C28	C	0.938624	-0.647805	-0.046278
O29	O	0.938168	-0.673860	-0.085617
N30	N	0.938181	-0.673006	-0.000022
C31	C	0.938582	-0.647820	0.046239
O32	O	0.938119	-0.673878	0.085582
C33	C	0.941978	-0.446282	0.046248
C34	C	0.942430	-0.421084	-0.000011
C35	C	0.942476	-0.421069	-0.092524
C36	C	0.943331	-0.370688	-0.092521
C37	C	0.943735	-0.345506	-0.046263
C38	C	0.943284	-0.370704	-0.000008
C39	C	0.942374	-0.421096	0.092508
C40	C	0.943221	-0.370708	0.092506
C41	C	0.943673	-0.345510	0.046248
C42	C	0.944543	-0.295140	0.046252
N43	N	0.944987	-0.269938	-0.000004
C44	C	0.944583	-0.295121	-0.046261
C45	C	0.936801	-0.753630	0.046231
C46	C	0.935954	-0.804014	0.046229
C47	C	0.935994	-0.803996	-0.046288
C48	C	0.936847	-0.753611	-0.046285
C49	C	0.937245	-0.728429	-0.000024
C50	C	0.946378	-0.189318	-0.046252
C51	C	0.947236	-0.138933	-0.046245
C52	C	0.947192	-0.138955	0.046271
C53	C	0.946338	-0.189336	0.046265
C54	C	0.945929	-0.214516	-0.000001
O55	O	0.944991	-0.269053	0.085571
O56	O	0.945029	-0.269052	-0.085599
C57	C	0.941171	-0.496648	-0.046271
C58	C	0.940720	-0.521846	-0.000017
C59	C	0.941124	-0.496663	0.046241
C60	C	0.939873	-0.572231	-0.000019
C61	C	0.939469	-0.597413	-0.046276
C62	C	0.939912	-0.572212	-0.092532
C63	C	0.940767	-0.521831	-0.092529
C64	C	0.940681	-0.521865	0.092497
C65	C	0.939827	-0.572246	0.092490
C66	C	0.939423	-0.597429	0.046233
C67	C	1.087500	0.019167	-0.000005
C68	C	1.176053	0.016582	-0.000008
C69	C	0.934654	0.117178	-0.000020
C70	C	0.935549	0.170803	-0.000028
N71	N	0.941546	0.028528	0.120755
N72	N	0.941650	0.028521	-0.120767
C73	C	0.989623	0.055936	0.473265
C74	C	0.989647	0.055935	0.686924
O75	O	1.030505	0.079234	0.714542
N76	N	0.941637	0.028520	0.713649
C77	C	0.893622	0.001101	0.686957
O78	O	0.852793	-0.022221	0.714591
C79	C	0.893603	0.001100	0.473299
C80	C	0.941610	0.028520	0.446577
C81	C	1.037627	0.083354	0.446542
C82	C	1.037617	0.083356	0.393131
C83	C	0.989604	0.055940	0.366442
C84	C	0.941600	0.028522	0.393165
C85	C	0.845592	-0.026322	0.446608
C86	C	0.845594	-0.026321	0.393190
C87	C	0.893600	0.001100	0.366467
C88	C	0.893577	0.001109	0.313065
N89	N	0.941587	0.028524	0.286340
C90	C	0.989600	0.055940	0.313028
C91	C	0.893634	0.001104	0.799130
C92	C	0.893637	0.001105	0.852545
C93	C	0.989663	0.055938	0.852508
C94	C	0.989655	0.055940	0.799092
C95	C	0.941643	0.028519	0.772405
C96	C	0.989576	0.055942	0.200860
C97	C	0.989559	0.055944	0.147444
C98	C	0.893536	0.001108	0.147486
C99	C	0.893549	0.001109	0.200897
C100	C	0.941575	0.028527	0.227583
O101	O	0.852747	-0.022182	0.285414
O102	O	1.030436	0.079250	0.285385
C103	C	0.989633	0.055934	0.526677
C104	C	0.941629	0.028516	0.553400
C105	C	0.893616	0.001100	0.526711
C106	C	0.941633	0.028517	0.606814
C107	C	0.989646	0.055933	0.633502
C108	C	1.037656	0.083348	0.606777
C109	C	1.037646	0.083350	0.553365
C110	C	0.845606	-0.026315	0.553436
C111	C	0.845619	-0.026314	0.606848
C112	C	0.893632	0.001102	0.633537
H113	H	0.717660	-0.039925	0.000009
Cl114	Cl	0.142640	0.117199	-0.000022
H115	H	0.854535	-0.021217	0.874298
Cl116	Cl	1.049951	0.090412	0.234400
H117	H	1.028746	0.078269	0.777338
H118	H	0.352988	-0.068677	0.000013
H119	H	0.943696	-0.350177	-0.130190
H120	H	0.806501	-0.048651	0.468357
Cl121	Cl	1.097960	0.117838	0.359545
Cl122	Cl	0.188069	-0.083408	0.000012
Cl123	Cl	0.507317	0.145950	-0.000036
H124	H	0.941011	-0.501366	0.130166
H125	H	1.028755	0.078264	0.874247
Cl126	Cl	0.552748	-0.054655	-0.000009
H127	H	0.316468	0.092569	-0.000030
Cl128	Cl	0.695122	0.140462	-0.000033
Cl129	Cl	0.947806	-0.107259	-0.104404
Cl130	Cl	1.097994	0.117825	0.480084
Cl131	Cl	0.945865	-0.220965	-0.104416
H132	H	0.942144	-0.441568	-0.130194
Cl133	Cl	1.049910	0.090421	0.113853
H134	H	0.937214	-0.733099	-0.083953
H135	H	0.935666	-0.824509	-0.083953
Cl136	Cl	0.833179	-0.033355	0.113924
H137	H	0.935598	-0.824528	0.083898
H138	H	0.937128	-0.733131	0.083905
Cl139	Cl	0.941801	-0.452760	0.150666
H140	H	0.943533	-0.350205	0.130178
H141	H	0.854535	-0.021226	0.777406
H142	H	0.945978	-0.209854	0.083933
H143	H	0.947524	-0.118443	0.083933
H144	H	0.939587	-0.592725	-0.130197
H145	H	0.806496	-0.048651	0.371464
H146	H	0.941134	-0.501319	-0.130198
Cl147	Cl	0.939263	-0.603917	0.150650
Cl148	Cl	0.833190	-0.033358	0.234492
Cl149	Cl	1.097996	0.117826	0.519779
H150	H	1.076746	0.105673	0.628516
H151	H	0.806518	-0.048642	0.628601
H152	H	0.806508	-0.048641	0.531712
