data_functionalizedCrystal
_audit_creation_method	'MofGen! by Chris Wilmer'
_symmetry_space_group_name_H-M	'P1'
_symmetry_Int_Tables_number	1
_symmetry_cell_setting	triclinic
loop_
_symmetry_equiv_pos_as_xyz
  x,y,z
_cell_length_a	14.519709
_cell_length_b	10.654550
_cell_length_c	9.730223
_cell_angle_alpha	89.996251
_cell_angle_beta	90.002285
_cell_angle_gamma	95.917476
loop_
_atom_site_label
_atom_site_type_symbol
_atom_site_fract_x
_atom_site_fract_y
_atom_site_fract_z
O1	O	0.129528	-1.666589	0.114406
O2	O	0.141869	-1.300991	0.114384
O3	O	0.001510	-1.493483	0.114384
O4	O	0.269887	-1.474097	0.114407
O5	O	0.001514	-1.493481	-0.114196
O6	O	0.141873	-1.300989	-0.114195
O7	O	0.129532	-1.666586	-0.114174
Zn8	Zn	0.135703	-1.483787	-0.150477
Zn9	Zn	0.135698	-1.483790	0.150687
O10	O	0.269890	-1.474094	-0.114173
C11	C	0.140965	-1.254201	0.000092
C12	C	0.138254	-1.114784	0.000083
C13	C	-0.032852	-1.492579	0.000093
C14	C	-0.135247	-1.489871	0.000092
N15	N	0.135705	-1.483795	-0.356013
C16	C	-0.510195	-1.479904	0.000127
C17	C	-0.405873	-1.482672	0.000117
C18	C	-0.322725	-1.484887	0.000109
C19	C	-0.218396	-1.487656	0.000101
C20	C	0.304253	-1.474999	0.000120
C21	C	0.406648	-1.477707	0.000130
C22	C	0.130436	-1.713377	0.000122
C23	C	0.133147	-1.852794	0.000140
C24	C	0.220895	-1.034504	0.000110
C25	C	0.218342	-0.903507	0.000134
C26	C	0.050500	-0.933085	0.000108
C27	C	0.053054	-1.064078	0.000075
C28	C	0.317797	-1.017426	0.000131
C29	C	0.315244	-0.886430	0.000154
C30	C	0.073576	-1.569052	-0.427939
C31	C	0.073565	-1.569048	-0.571822
C32	C	0.197821	-1.398527	-0.571840
C33	C	0.197827	-1.398525	-0.427959
C34	C	0.001840	-1.667505	-0.427931
C35	C	0.001829	-1.667502	-0.571814
N36	N	0.135688	-1.483793	0.356224
H37	H	-0.014241	-1.129439	0.000033
C38	C	0.354803	-0.824336	-0.133153
C39	C	0.391331	-0.906089	-0.247408
C40	C	0.430884	-0.843993	-0.380714
C41	C	0.433909	-0.700144	-0.399765
C42	C	0.397380	-0.618382	-0.285506
C43	C	0.357827	-0.680478	-0.152200
H44	H	0.389093	-1.012583	-0.233309
H45	H	0.457925	-0.904520	-0.465296
H46	H	0.463189	-0.654177	-0.498446
H47	H	0.399618	-0.511889	-0.299605
H48	H	0.330786	-0.619952	-0.067618
C49	C	0.266162	-1.304734	-0.348834
C50	C	0.334540	-1.211007	-0.427969
C51	C	0.402877	-1.117211	-0.348842
C52	C	0.402836	-1.117143	-0.190579
C53	C	0.334456	-1.210874	-0.111435
C54	C	0.266119	-1.304669	-0.190563
H55	H	0.334573	-1.211054	-0.545133
H56	H	0.453497	-1.047825	-0.407430
H57	H	0.453423	-1.047710	-0.132004
H58	H	0.334423	-1.210826	0.005729
H59	H	0.215499	-1.374055	-0.131974
C60	C	-0.093914	-1.639449	-0.375166
C61	C	-0.171115	-1.616824	-0.478001
C62	C	-0.266866	-1.588766	-0.425236
C63	C	-0.285416	-1.583333	-0.269637
C64	C	-0.208213	-1.605958	-0.166793
C65	C	-0.112462	-1.634016	-0.219558
H66	H	-0.157385	-1.620846	-0.593193
H67	H	-0.324017	-1.572018	-0.501369
H68	H	-0.356297	-1.562563	-0.230578
H69	H	-0.221943	-1.601936	-0.051601
H70	H	-0.055312	-1.650764	-0.143425
H71	H	-0.018867	-0.891784	0.000123
C72	C	0.032185	-1.790392	-0.367624
C73	C	-0.023316	-1.917817	-0.400819
C74	C	0.007034	-2.040702	-0.340513
C75	C	0.092886	-2.036163	-0.247012
C76	C	0.148392	-1.908734	-0.213812
C77	C	0.118041	-1.785849	-0.274118
H78	H	-0.086873	-1.921181	-0.470039
H79	H	-0.034055	-2.135033	-0.365091
H80	H	0.115353	-2.127130	-0.202370
H81	H	0.211949	-1.905370	-0.144592
H82	H	0.159131	-1.691517	-0.249540
H83	H	-0.065157	-1.637633	-0.616437
H84	H	0.351754	-0.844347	0.095825
H85	H	0.348651	-1.052786	0.098821
H86	H	0.248398	-1.329102	-0.630434
H87	H	0.355697	-1.046392	-0.095532
C88	C	0.023191	-1.797659	-0.624586
C89	C	-0.047542	-1.876821	-0.715574
C90	C	-0.026172	-2.006967	-0.768353
C91	C	0.065930	-2.057950	-0.730144
C92	C	0.136669	-1.978787	-0.639151
C93	C	0.115300	-1.848641	-0.586372
H94	H	-0.115727	-1.839081	-0.743863
H95	H	-0.078539	-2.065568	-0.835712
H96	H	0.081749	-2.154291	-0.769214
H97	H	0.204855	-2.016526	-0.610862
H98	H	0.167666	-1.790039	-0.519013
