data_functionalizedCrystal
_audit_creation_method	'MofGen! by Chris Wilmer'
_symmetry_space_group_name_H-M	'P1'
_symmetry_Int_Tables_number	1
_symmetry_cell_setting	triclinic
loop_
_symmetry_equiv_pos_as_xyz
  x,y,z
_cell_length_a	23.096457
_cell_length_b	14.560438
_cell_length_c	23.096457
_cell_angle_alpha	60.001593
_cell_angle_beta	89.999736
_cell_angle_gamma	59.999411
loop_
_atom_site_label
_atom_site_type_symbol
_atom_site_fract_x
_atom_site_fract_y
_atom_site_fract_z
Zr1	Zr	0.557764	1.005290	-0.075990
O2	O	0.465313	1.196889	-0.168434
O3	O	0.586105	0.813690	-0.047652
O4	O	0.586102	1.005291	-0.168440
O5	O	0.465319	1.005287	0.047636
O6	O	0.681382	1.005294	-0.168444
O7	O	0.465316	1.005287	-0.047646
O8	O	0.681387	0.662554	0.047624
O9	O	0.465314	1.348027	-0.168432
O10	O	0.669299	0.892500	-0.035568
O11	O	0.598194	0.892498	0.035542
O12	O	0.598191	1.118084	-0.106670
O13	O	0.527086	1.118082	-0.035560
Zr14	Zr	0.709729	1.005293	0.075967
Zr15	Zr	0.709725	1.005294	-0.075995
Zr16	Zr	0.557768	1.005289	0.075973
Zr17	Zr	0.557764	1.246338	-0.075987
Zr18	Zr	0.709729	0.764246	0.075964
O19	O	0.681388	1.196893	0.047630
O20	O	0.681383	1.196894	-0.168442
O21	O	0.465319	1.196888	0.047638
O22	O	0.802180	0.813695	0.168411
O23	O	0.802174	0.813696	-0.047660
O24	O	0.586110	0.813689	0.168419
O25	O	0.802174	1.005296	-0.047658
O26	O	0.681391	1.005292	0.168418
O27	O	0.586110	1.005290	0.168421
O28	O	0.802177	1.005296	0.047623
O29	O	0.586103	1.348030	-0.168436
O30	O	0.681390	0.662554	0.168414
O31	O	0.802179	0.662557	0.168409
O32	O	0.802176	0.662557	0.047619
O33	O	0.465317	1.348026	-0.047642
O34	O	0.586106	1.348029	-0.047646
O35	O	0.669302	0.892500	0.106647
O36	O	0.740407	0.892502	0.035537
O37	O	0.669299	1.118085	-0.035565
O38	O	0.598194	1.118083	0.035545
C39	C	0.633746	0.703778	-0.000015
C40	C	0.633746	0.601447	-0.000016
C41	C	0.443666	1.005287	-0.000004
C42	C	0.379155	1.005285	-0.000002
C43	C	0.670861	0.553372	-0.037135
C44	C	0.670863	0.457213	-0.037128
C45	C	0.596631	0.457215	0.037117
C46	C	0.596633	0.553366	0.037114
C47	C	0.385967	0.887536	0.037106
C48	C	0.325351	0.887534	0.037109
C49	C	0.257924	1.005288	-0.000010
C50	C	0.251115	1.123052	-0.037119
C51	C	0.311730	1.123051	-0.037115
N52	N	0.135127	1.092938	-0.060419
N53	N	0.077547	1.092932	-0.060422
C54	C	0.075291	1.005300	-0.000022
N55	N	0.132796	0.917654	0.060379
N56	N	0.190382	0.917657	0.060380
C57	C	0.192193	1.005303	-0.000018
C58	C	0.016380	0.887541	0.037092
C59	C	-0.044238	0.887544	0.037097
C60	C	-0.118475	1.123065	-0.037138
C61	C	-0.057857	1.123059	-0.037136
C62	C	0.009568	1.005293	-0.000022
C63	C	0.823827	1.005297	-0.000018
C64	C	0.888338	1.005299	-0.000021
C65	C	0.633742	1.005293	-0.190093
C66	C	0.633740	1.005293	-0.254606
C67	C	0.633747	1.306806	-0.000008
C68	C	0.633747	1.409137	-0.000007
C69	C	0.581257	1.005305	-0.715119
C70	C	0.581257	1.005296	-0.654500
C71	C	0.633747	1.005298	-0.624190
C72	C	0.686252	1.005277	-0.654493
C73	C	0.686255	1.005273	-0.715106
N74	N	0.649639	1.078831	-0.552196
N75	N	0.649632	1.078837	-0.494616
C76	C	0.633743	1.005307	-0.441563
N77	N	0.617847	0.931787	-0.448270
N78	N	0.617851	0.931786	-0.505857
C79	C	0.633750	1.005302	-0.558464
C80	C	0.581244	1.005309	-0.345535
C81	C	0.581249	1.005292	-0.284913
C82	C	0.686241	1.005287	-0.284910
C83	C	0.686239	1.005291	-0.345528
C84	C	0.633737	1.005308	-0.375838
C85	C	0.633751	1.005291	0.190071
C86	C	0.633753	1.005291	0.254583
C87	C	0.823826	0.703783	-0.000022
C88	C	0.888338	0.601454	-0.000025
C89	C	0.633751	0.703777	0.190067
C90	C	0.633752	0.601446	0.254578
C91	C	0.823831	0.703782	0.190060
C92	C	0.888344	0.601453	0.254569
C93	C	0.443662	1.306801	-0.190083
C94	C	0.379149	1.409131	-0.254591
C95	C	0.443667	1.306800	-0.000001
C96	C	0.379155	1.409130	0.000003
C97	C	0.633742	1.306806	-0.190090
C98	C	0.633741	1.409138	-0.254601
C99	C	0.881515	0.553398	-0.037149
C100	C	0.942125	0.457262	-0.037167
C101	C	1.009556	0.409177	-0.000056
C102	C	1.016377	0.457242	0.037069
C103	C	0.955769	0.553383	0.037082
C104	C	0.670871	0.553391	0.321996
C105	C	0.670870	0.457253	0.382616
C106	C	0.633753	0.409166	0.375818
C107	C	0.596630	0.457230	0.308394
C108	C	0.596628	0.553373	0.247774
C109	C	0.955763	0.553399	0.247744
C110	C	1.016385	0.457263	0.308351
C111	C	1.009588	0.409176	0.375782
C112	C	0.942162	0.457239	0.382605
C113	C	0.881541	0.553380	0.321999
C114	C	0.311730	1.457196	-0.247767
C115	C	0.251108	1.553362	-0.308374
C116	C	0.257905	1.601454	-0.375805
C117	C	0.325331	1.553385	-0.382628
C118	C	0.385952	1.457227	-0.322022
C119	C	0.385978	1.457196	0.037120
C120	C	0.325368	1.553358	0.037121
C121	C	0.257937	1.601446	0.000008
C122	C	0.251116	1.553377	-0.037114
C123	C	0.311724	1.457222	-0.037119
C124	C	0.670864	1.457195	-0.247780
C125	C	0.670876	1.553333	-0.308389
C126	C	0.633761	1.601419	-0.375818
C127	C	0.596637	1.553353	-0.382638
C128	C	0.596629	1.457209	-0.322029
H129	H	0.701081	0.592515	-0.067367
O130	O	0.458701	1.405365	0.077142
H131	H	0.464869	1.361583	0.134189
O132	O	0.332659	1.605251	-0.455359
H133	H	0.279174	1.680176	-0.496349
O134	O	0.304362	1.250078	-0.077181
H135	H	0.330203	1.255676	-0.118203
H136	H	0.633773	1.679705	-0.425164
O137	O	0.332733	1.605179	0.077172
H138	H	0.389806	1.555559	0.102988
H139	H	0.936638	0.418072	0.437516
H140	H	0.728984	1.005287	-0.370200
O141	O	-0.191193	1.250074	-0.077171
H142	H	-0.197353	1.306543	-0.134217
H143	H	0.208591	1.679741	0.000018
O144	O	0.556590	0.405380	0.077150
H145	H	0.594056	0.299315	0.118172
O146	O	0.458668	1.405370	-0.329386
H147	H	0.453202	1.454962	-0.386458
O148	O	0.178384	1.605248	-0.077143
H149	H	0.137392	1.680174	-0.070893
H150	H	0.306159	1.418090	-0.067342
H151	H	0.566418	1.592519	-0.437547
H152	H	0.701086	0.418071	-0.067353
O153	O	-0.036885	0.760529	0.077123
H154	H	-0.062715	0.754875	0.118157
O155	O	0.710907	1.405326	-0.175056
H156	H	0.736729	1.454893	-0.180507
O157	O	-0.065198	1.250059	-0.077170
H158	H	-0.122267	1.331943	-0.102987
H159	H	0.538508	1.005315	-0.739795
O160	O	0.934753	0.405430	-0.077207
H161	H	0.960573	0.423907	-0.118249
O162	O	0.742876	1.005275	-0.747789
H163	H	0.773146	0.917226	-0.747651
H164	H	0.538495	1.005318	-0.370213
O165	O	0.710917	1.605170	-0.301026
H166	H	0.736712	1.555590	-0.243955
H167	H	0.566395	1.418092	-0.327593
O168	O	1.089109	0.405447	0.300997
H169	H	1.118523	0.299377	0.326846
O170	O	0.556608	0.605233	0.077152
H171	H	0.499555	0.649059	0.055709
O172	O	0.458689	0.760524	0.077137
H173	H	0.453238	0.678645	0.102945
H174	H	0.961311	0.592537	0.192844
O175	O	0.332688	0.760530	0.077125
H176	H	0.389756	0.678642	0.102928
H177	H	0.538502	1.005295	-0.260241
H178	H	1.058902	0.330892	-0.000072
O179	O	0.192518	1.705182	-0.441171
H180	H	0.144498	1.730516	-0.425090
H181	H	1.058955	0.330891	0.425126
H182	H	0.196211	1.218928	-0.067341
H183	H	0.538507	1.005307	-0.629827
H184	H	0.961334	0.592498	0.067317
O185	O	0.742876	1.005245	-0.621788
H186	H	0.717646	1.093288	-0.621922
O187	O	0.089107	0.760534	0.077123
H188	H	0.095276	0.704073	0.134172
O189	O	0.742864	1.005270	-0.252220
H190	H	0.717629	1.093317	-0.252357
O191	O	0.808789	0.605264	-0.077187
H192	H	0.814239	0.555697	-0.103009
H193	H	1.071288	0.418077	0.067283
O194	O	0.808825	0.605180	0.329363
H195	H	0.814291	0.555568	0.386436
O196	O	0.304391	1.405343	-0.175041
H197	H	0.247321	1.454946	-0.180489
O198	O	0.710903	0.605252	0.329336
H199	H	0.736703	0.555684	0.386405
H200	H	0.701102	0.418130	0.437510
O201	O	0.633772	0.305446	0.441203
H202	H	0.665830	0.280102	0.489222
H203	H	0.566411	0.418063	0.302869
H204	H	0.566404	0.592486	0.192882
H205	H	0.196213	1.592484	-0.302804
