data_functionalizedCrystal
_audit_creation_method	'MofGen! by Chris Wilmer'
_symmetry_space_group_name_H-M	'P1'
_symmetry_Int_Tables_number	1
_symmetry_cell_setting	triclinic
loop_
_symmetry_equiv_pos_as_xyz
  x,y,z
_cell_length_a	10.654538
_cell_length_b	17.666332
_cell_length_c	10.654551
_cell_angle_alpha	90.001713
_cell_angle_beta	95.517272
_cell_angle_gamma	89.991767
loop_
_atom_site_label
_atom_site_type_symbol
_atom_site_fract_x
_atom_site_fract_y
_atom_site_fract_z
O1	O	-1.667853	0.062986	0.176328
O2	O	-1.167853	0.562986	0.676328
O3	O	-1.302373	0.062978	0.193149
O4	O	-0.802373	0.562978	0.693149
O5	O	-1.493515	0.062982	0.001999
O6	O	-0.993515	0.562982	0.501999
O7	O	-1.476710	0.062981	0.367478
O8	O	-0.976710	0.562981	0.867478
O9	O	-1.493494	-0.062914	0.001994
O10	O	-0.993494	0.437086	0.501994
O11	O	-1.302351	-0.062919	0.193144
O12	O	-0.802351	0.437081	0.693144
O13	O	-1.667831	-0.062911	0.176323
O14	O	-1.167831	0.437089	0.676323
Cu15	Cu	-1.485089	-0.074410	0.184733
Cu16	Cu	-0.985089	0.425590	0.684733
Cu17	Cu	-1.485115	0.074477	0.184739
Cu18	Cu	-0.985115	0.574477	0.684739
O19	O	-1.476689	-0.062916	0.367473
O20	O	-0.976689	0.437084	0.867473
C21	C	-1.255564	0.000028	0.191915
C22	C	-0.755564	0.500028	0.691915
C23	C	-1.116120	0.000025	0.188229
C24	C	-0.616120	0.500025	0.688229
N25	N	-1.485080	-0.179130	0.184728
N26	N	-0.985080	0.320870	0.684728
C27	C	-1.050636	0.068654	0.186487
C28	C	-0.550636	0.568654	0.686487
C29	C	-0.919615	0.068658	0.183014
C30	C	-0.419615	0.568658	0.683014
C31	C	-0.919573	-0.068602	0.183019
C32	C	-0.419573	0.431398	0.683019
C33	C	-1.050590	-0.068605	0.186501
C34	C	-0.550590	0.431395	0.686501
C35	C	-1.116166	0.137284	0.188215
C36	C	-0.616166	0.637284	0.688215
C37	C	-1.050683	0.205918	0.186472
C38	C	-0.550683	0.705918	0.686472
C39	C	-0.919661	0.205922	0.182998
C40	C	-0.419661	0.705922	0.682998
C41	C	-0.854123	0.137292	0.181268
C42	C	-0.354123	0.637292	0.681268
C43	C	-1.569774	-0.781178	0.100116
C44	C	-1.069774	-0.281178	0.600116
C45	C	-1.569776	-0.701930	0.100119
C46	C	-1.069776	-0.201930	0.600119
C47	C	-1.485116	-0.662311	0.184727
C48	C	-0.985116	-0.162311	0.684727
C49	C	-1.400469	-0.701947	0.269361
C50	C	-0.900469	-0.201947	0.769361
C51	C	-1.400478	-0.781193	0.269365
C52	C	-0.900478	-0.281193	0.769365
N53	N	-1.374117	-0.537901	0.199701
N54	N	-0.874117	-0.037901	0.699701
N55	N	-1.374112	-0.462621	0.199690
N56	N	-0.874112	0.037379	0.699690
C57	C	-1.485086	-0.423547	0.184725
C58	C	-0.985086	0.076453	0.684725
N59	N	-1.596069	-0.462598	0.169746
N60	N	-1.096069	0.037402	0.669746
N61	N	-1.596072	-0.537886	0.169750
N62	N	-1.096072	-0.037886	0.669750
C63	C	-1.485098	-0.576382	0.184734
C64	C	-0.985098	-0.076382	0.684734
C65	C	-1.569736	-0.297992	0.100106
C66	C	-1.069736	0.202008	0.600106
C67	C	-1.569740	-0.218743	0.100117
C68	C	-1.069740	0.281257	0.600117
C69	C	-1.400422	-0.218761	0.269354
C70	C	-0.900422	0.281239	0.769354
C71	C	-1.400429	-0.298009	0.269348
C72	C	-0.900429	0.201991	0.769348
C73	C	-1.485085	-0.337620	0.184717
C74	C	-0.985085	0.162380	0.684717
C75	C	-0.714639	0.000036	0.177565
C76	C	-0.214639	0.500036	0.677565
C77	C	-0.854081	0.000032	0.181273
C78	C	-0.354081	0.500032	0.681273
C79	C	-1.492270	0.000036	-0.044801
C80	C	-0.992270	0.500036	0.455199
C81	C	-1.488578	0.000041	-0.184244
C82	C	-0.988578	0.500041	0.315756
N83	N	-1.485134	0.179197	0.184734
N84	N	-0.985134	0.679197	0.684734
C85	C	-1.486857	0.068666	-0.249754
C86	C	-0.986857	0.568666	0.250246
C87	C	-1.483377	0.068662	-0.380774
C88	C	-0.983377	0.568662	0.119226
C89	C	-1.483343	-0.068598	-0.380765
C90	C	-0.983343	0.431402	0.119235
C91	C	-1.486814	-0.068593	-0.249746
C92	C	-0.986814	0.431407	0.250254
C93	C	-1.488621	0.137299	-0.184252
C94	C	-0.988621	0.637299	0.315748
C95	C	-1.486902	0.205930	-0.249762
C96	C	-0.986902	0.705930	0.250238
C97	C	-1.483422	0.205926	-0.380782
C98	C	-0.983422	0.705926	0.119218
C99	C	-1.481660	0.137292	-0.446293
C100	C	-0.981660	0.637292	0.053707
C101	C	-1.477934	0.000033	0.414273
C102	C	-0.977934	0.500033	0.914273
C103	C	-1.481626	0.000033	0.553716
C104	C	-0.981626	0.500033	1.053716
H105	H	-1.222850	0.137288	0.191040
H106	H	-0.722850	0.637288	0.691040
Br107	Br	-1.489284	0.299071	-0.160858
Br108	Br	-0.989284	0.799071	0.339142
Br109	Br	-1.481070	0.299065	-0.469684
Br110	Br	-0.981070	0.799065	0.030316
H111	H	-1.478808	0.137295	-0.552976
H112	H	-0.978808	0.637295	-0.052976
Br113	Br	-1.684628	-0.351752	-0.014745
Br114	Br	-1.184628	0.148248	0.485255
H115	H	-1.331502	-0.330274	0.338247
H116	H	-0.831502	0.169726	0.838247
H117	H	-1.638703	-0.669661	0.031211
H118	H	-1.138703	-0.169661	0.531211
H119	H	-1.331540	-0.669685	0.338253
H120	H	-0.831540	-0.169685	0.838253
Br121	Br	-1.285602	-0.834975	0.384213
Br122	Br	-0.785602	-0.334975	0.884213
H123	H	-0.866201	-0.124477	0.181608
H124	H	-0.366201	0.375523	0.681608
Br125	Br	-1.139620	0.299054	0.188839
Br126	Br	-0.639620	0.799054	0.688839
Br127	Br	-1.493356	0.137308	-0.006441
Br128	Br	-0.993356	0.637308	0.493559
H129	H	-1.481910	-0.124476	-0.434114
H130	H	-0.981910	0.375524	0.065886
H131	H	-0.866347	0.261808	0.181592
H132	H	-0.366347	0.761808	0.681592
Br133	Br	-0.676305	0.137299	0.176574
Br134	Br	-0.176305	0.637299	0.676574
Br135	Br	-1.489153	-0.161728	-0.160832
Br136	Br	-0.989153	0.338272	0.339168
Br137	Br	-1.139468	-0.161745	0.188873
Br138	Br	-0.639468	0.338255	0.688873
H139	H	-1.638708	-0.813427	0.031208
H140	H	-1.138708	-0.313427	0.531208
Br141	Br	-1.684629	-0.164961	-0.014719
Br142	Br	-1.184629	0.335039	0.485281
Br143	Br	-1.285539	-0.164999	0.384194
Br144	Br	-0.785539	0.335001	0.884194
