data_functionalizedCrystal
_audit_creation_method	'MofGen! by Chris Wilmer'
_symmetry_space_group_name_H-M	'P1'
_symmetry_Int_Tables_number	1
_symmetry_cell_setting	triclinic
loop_
_symmetry_equiv_pos_as_xyz
  x,y,z
_cell_length_a	11.169417
_cell_length_b	18.101395
_cell_length_c	11.169409
_cell_angle_alpha	89.964326
_cell_angle_beta	89.980176
_cell_angle_gamma	90.031983
loop_
_atom_site_label
_atom_site_type_symbol
_atom_site_fract_x
_atom_site_fract_y
_atom_site_fract_z
Zn1	Zn	1.834789	-0.294752	-0.678515
Zn2	Zn	1.834606	-0.418619	-0.477820
Zn3	Zn	1.634075	-0.294797	-0.477849
Zn4	Zn	1.634010	-0.418558	-0.678465
O5	O	1.734370	-0.356682	-0.578162
O6	O	2.002715	-0.311190	-0.651901
O7	O	1.807956	-0.402238	-0.309874
O8	O	1.660804	-0.191159	-0.504501
O9	O	2.002580	-0.402194	-0.504451
O10	O	1.808268	-0.191125	-0.651929
O11	O	1.660626	-0.311267	-0.309896
O12	O	1.466117	-0.311208	-0.504453
O13	O	1.660693	-0.402091	-0.846421
O14	O	1.466069	-0.402135	-0.651844
O15	O	1.808205	-0.311131	-0.846458
O16	O	1.807892	-0.522244	-0.504403
O17	O	1.660515	-0.522199	-0.651816
C18	C	1.422545	-0.356670	-0.578147
C19	C	1.289145	-0.356684	-0.578169
C20	C	1.734209	-0.549092	-0.578127
C21	C	1.734250	-0.631406	-0.578152
C22	C	1.734514	-0.930497	-0.578217
C23	C	1.642003	-0.899175	-0.671195
C24	C	1.641564	-0.813557	-0.670904
C25	C	1.734383	-0.782115	-0.578186
C26	C	1.700132	-0.813278	-0.451699
C27	C	1.699535	-0.898923	-0.452255
C28	C	1.861478	-0.898837	-0.610612
C29	C	1.860732	-0.813186	-0.613386
C30	C	1.734311	-0.698255	-0.578160
C31	C	1.734583	-1.014357	-0.578234
C32	C	2.047412	-0.356694	-0.578178
C33	C	2.180812	-0.356699	-0.578185
C34	C	1.734462	-0.356599	-0.891205
C35	C	1.734501	-0.356564	-1.024605
C36	C	1.734564	-0.163520	-0.578224
C37	C	1.734647	-0.081206	-0.578250
C38	C	1.734347	-0.356710	-0.266338
C39	C	1.734541	-0.356537	-0.132938
H40	H	1.662994	-0.792484	-0.764693
O41	O	1.947393	-0.787573	-0.538646
C42	C	2.033194	-0.747829	-0.605277
H43	H	1.991034	-0.727425	-0.692141
H44	H	2.112210	-0.785380	-0.626842
C45	C	2.128911	-0.706313	-0.424901
C46	C	2.077127	-0.681247	-0.531586
H47	H	2.156016	-0.665244	-0.379445
H48	H	2.071109	-0.733091	-0.380010
H49	H	2.194751	-0.737606	-0.442888
H50	H	2.011280	-0.649963	-0.513598
H51	H	2.134919	-0.654462	-0.576473
H52	H	1.608304	-0.791896	-0.423764
H53	H	1.930402	-0.919092	-0.542892
H54	H	1.663221	-0.919714	-0.765288
H55	H	1.548466	-0.920764	-0.650008
H56	H	1.892704	-0.920376	-0.701273
H57	H	1.765392	-0.792913	-0.380534
O58	O	1.529213	-0.789280	-0.645439
C59	C	1.448858	-0.815523	-0.732977
H60	H	1.487739	-0.866934	-0.777206
H61	H	1.434103	-0.770939	-0.803576
C62	C	1.280738	-0.771822	-0.619164
C63	C	1.328488	-0.834970	-0.673480
H64	H	1.206486	-0.783815	-0.582466
H65	H	1.334875	-0.754139	-0.560189
H66	H	1.268453	-0.734675	-0.678006
H67	H	1.340787	-0.872112	-0.614636
H68	H	1.274351	-0.852660	-0.732444
H69	H	1.763992	-0.919646	-0.380617
H70	H	1.606724	-0.918969	-0.424813
O71	O	1.891400	-0.788786	-0.724423
C72	C	1.799027	-0.743850	-0.770162
H73	H	1.743953	-0.720671	-0.692898
H74	H	1.738791	-0.778161	-0.830944
C75	C	1.921534	-0.708192	-0.937286
C76	C	1.853897	-0.679719	-0.842389
H77	H	1.955378	-0.668635	-0.981844
H78	H	1.983766	-0.738469	-0.906474
H79	H	1.871326	-0.736785	-0.987925
H80	H	1.904108	-0.651135	-0.791744
H81	H	1.791675	-0.649436	-0.873194
