data_functionalizedCrystal
_audit_creation_method	'MofGen! by Chris Wilmer'
_symmetry_space_group_name_H-M	'P1'
_symmetry_Int_Tables_number	1
_symmetry_cell_setting	triclinic
loop_
_symmetry_equiv_pos_as_xyz
  x,y,z
_cell_length_a	15.944493
_cell_length_b	15.944493
_cell_length_c	9.798715
_cell_angle_alpha	90.002491
_cell_angle_beta	89.997114
_cell_angle_gamma	83.475044
loop_
_atom_site_label
_atom_site_type_symbol
_atom_site_fract_x
_atom_site_fract_y
_atom_site_fract_z
O1	O	1.114531	0.108102	-0.113455
O2	O	0.869972	0.121509	-0.113459
O3	O	0.998955	-0.007474	-0.113468
O4	O	0.985548	0.237085	-0.113446
O5	O	0.998946	-0.007475	0.113514
O6	O	0.869963	0.121508	0.113523
O7	O	1.114522	0.108101	0.113527
Zn8	Zn	0.992241	0.114804	0.149563
Zn9	Zn	0.992253	0.114805	-0.149495
O10	O	0.985539	0.237084	0.113536
C11	C	0.838673	0.120961	0.000031
C12	C	0.745424	0.119318	0.000028
C13	C	0.509649	0.195240	0.000034
C14	C	0.459094	0.154298	0.111950
C15	C	0.574704	0.116273	0.000031
C16	C	0.459108	0.154280	-0.111836
C17	C	0.409795	0.113339	0.000027
C18	C	0.525378	0.075352	0.112039
C19	C	0.525395	0.075346	-0.111848
C20	C	0.474873	0.034346	0.000095
C21	C	0.669704	0.117966	0.000034
C22	C	0.314798	0.111640	0.000033
C23	C	0.998403	-0.038769	0.000017
C24	C	0.996760	-0.132018	-0.000000
C25	C	1.072682	-0.367793	0.000027
C26	C	1.031744	-0.418352	-0.111887
C27	C	0.993716	-0.302738	0.000016
C28	C	1.031717	-0.418329	0.111899
C29	C	0.990781	-0.467647	0.000038
C30	C	0.952799	-0.352069	-0.111990
C31	C	0.952783	-0.352043	0.111897
C32	C	0.911788	-0.402569	-0.000045
C33	C	0.995408	-0.207739	0.000002
C34	C	0.989082	-0.562644	0.000042
C35	C	1.145821	0.108649	0.000034
C36	C	1.239069	0.110292	0.000028
C37	C	0.986091	0.268379	0.000048
C38	C	0.987734	0.361627	0.000056
N39	N	0.992239	0.114803	0.353663
N40	N	0.992261	0.114800	-0.353595
C41	C	0.938091	0.169194	0.421477
C42	C	0.938103	0.169193	0.578640
H43	H	0.554209	0.042023	0.206749
H44	H	1.140702	-0.352179	-0.000085
Cl45	Cl	0.451007	-0.070750	0.000185
Cl46	Cl	1.063841	0.042899	0.556383
H47	H	0.891727	0.215765	0.363186
Cl48	Cl	0.570118	0.023906	-0.257944
H49	H	1.038609	0.068238	0.411956
Cl50	Cl	0.901350	-0.307568	-0.258230
H51	H	0.891741	0.215757	0.636956
H52	H	0.430166	0.187645	-0.206439
H53	H	1.065097	-0.447305	-0.206502
H54	H	0.919460	-0.323075	0.206515
Cl55	Cl	0.533760	0.300255	0.000206
Cl56	Cl	0.806691	-0.426430	-0.000136
Cl57	Cl	1.083222	-0.463006	0.257970
H58	H	0.430146	0.187646	0.206572
