data_functionalizedCrystal
_audit_creation_method	'MofGen! by Chris Wilmer'
_symmetry_space_group_name_H-M	'P1'
_symmetry_Int_Tables_number	1
_symmetry_cell_setting	triclinic
loop_
_symmetry_equiv_pos_as_xyz
  x,y,z
_cell_length_a	10.654556
_cell_length_b	7.088929
_cell_length_c	10.654551
_cell_angle_alpha	96.282333
_cell_angle_beta	84.486483
_cell_angle_gamma	83.734059
loop_
_atom_site_label
_atom_site_type_symbol
_atom_site_fract_x
_atom_site_fract_y
_atom_site_fract_z
O1	O	1.655064	0.158908	0.189229
O2	O	1.289585	0.158927	0.206028
O3	O	1.480727	0.158913	0.014889
O4	O	1.463922	0.158922	0.380367
O5	O	1.506270	-0.159064	-0.010713
O6	O	1.315128	-0.159050	0.180426
O7	O	1.680607	-0.159069	0.163626
Cu8	Cu	1.500200	-0.188093	0.169688
Cu9	Cu	1.469992	0.187951	0.199966
O10	O	1.489465	-0.159055	0.354765
C11	C	1.255558	-0.000059	0.191992
C12	C	1.116115	-0.000052	0.188297
N13	N	1.521456	-0.452583	0.148392
C14	C	0.905647	0.173263	0.197049
C15	C	1.036668	0.173275	0.200514
C16	C	1.064536	-0.173401	0.172601
C17	C	0.933518	-0.173411	0.169127
C18	C	1.714633	-0.000079	0.177663
C19	C	1.854076	-0.000074	0.181358
C20	C	1.492264	-0.000073	-0.044710
C21	C	1.488571	-0.000063	-0.184152
N22	N	1.448746	0.452441	0.221252
C23	C	1.472914	0.173268	-0.235700
C24	C	1.469434	0.173270	-0.366721
C25	C	1.497274	-0.173406	-0.394635
C26	C	1.500745	-0.173406	-0.263616
C27	C	1.477927	-0.000065	0.414365
C28	C	1.481620	-0.000062	0.553808
H29	H	0.840968	0.314406	0.207007
C30	C	1.465833	0.327207	-0.022457
C31	C	1.459489	0.363801	-0.148346
H32	H	1.457540	0.444841	0.031467
H33	H	1.399030	0.255974	0.002198
H34	H	1.545245	0.256014	-0.015659
H35	H	1.380073	0.434983	-0.155146
H36	H	1.526297	0.435065	-0.173008
C37	C	1.451739	0.327206	-0.555164
C38	C	1.452225	0.363800	-0.423384
H39	H	1.441105	0.444839	-0.590140
H40	H	1.529991	0.255991	-0.591305
H41	H	1.383773	0.255994	-0.573414
H42	H	1.520196	0.435000	-0.405133
H43	H	1.373962	0.435045	-0.387230
C44	C	1.743104	-0.514534	0.071411
C45	C	1.623198	-0.562806	0.046459
H46	H	1.805911	-0.582591	0.008485
H47	H	1.744537	-0.381054	0.069949
H48	H	1.760188	-0.547252	0.152715
H49	H	1.606110	-0.530074	-0.034842
H50	H	1.621762	-0.696315	0.047908
C51	C	1.241234	-0.374505	0.052552
C52	C	1.151866	-0.363924	0.159173
H53	H	1.295150	-0.492124	0.044272
H54	H	1.198485	-0.367322	-0.021321
H55	H	1.290692	-0.271258	0.062410
H56	H	1.102402	-0.467164	0.149311
H57	H	1.194619	-0.371126	0.233064
C58	C	1.504341	-0.327340	-0.607878
C59	C	1.510681	-0.363938	-0.481989
H60	H	1.512631	-0.444972	-0.661803
H61	H	1.424946	-0.256139	-0.614677
H62	H	1.571162	-0.256113	-0.632534
H63	H	1.443853	-0.435154	-0.457330
H64	H	1.590086	-0.435170	-0.475185
C65	C	1.413023	-0.374515	-0.119293
C66	C	1.517955	-0.363948	-0.206946
H67	H	1.423642	-0.492147	-0.084314
H68	H	1.406273	-0.271293	-0.053226
H69	H	1.337991	-0.367302	-0.160904
H70	H	1.592986	-0.371147	-0.165333
H71	H	1.524719	-0.467198	-0.273024
H72	H	1.078651	0.314422	0.213290
H73	H	1.373389	-0.465907	0.296756
H74	H	0.891530	-0.314571	0.156348
