data_functionalizedCrystal
_audit_creation_method	'MofGen! by Chris Wilmer'
_symmetry_space_group_name_H-M	'P1'
_symmetry_Int_Tables_number	1
_symmetry_cell_setting	triclinic
loop_
_symmetry_equiv_pos_as_xyz
  x,y,z
_cell_length_a	15.297979
_cell_length_b	15.297327
_cell_length_c	15.296720
_cell_angle_alpha	107.319222
_cell_angle_beta	88.354193
_cell_angle_gamma	110.796881
loop_
_atom_site_label
_atom_site_type_symbol
_atom_site_fract_x
_atom_site_fract_y
_atom_site_fract_z
Zn1	Zn	1.197207	-0.284921	-0.766908
Zn2	Zn	1.197104	-0.413558	-0.638287
Zn3	Zn	1.077921	-0.275615	-0.593782
Zn4	Zn	1.014744	-0.467255	-0.766759
O5	O	1.121744	-0.360337	-0.691434
O6	O	1.323433	-0.283407	-0.768533
O7	O	1.207691	-0.368892	-0.506163
O8	O	1.120227	-0.142813	-0.598184
O9	O	1.323358	-0.377916	-0.674036
O10	O	1.207866	-0.149650	-0.725379
O11	O	1.120127	-0.267547	-0.473466
O12	O	0.943300	-0.319615	-0.598040
O13	O	1.012552	-0.469435	-0.892998
O14	O	0.896885	-0.460411	-0.725125
O15	O	1.146606	-0.335475	-0.893107
O16	O	1.146431	-0.554717	-0.673892
O17	O	1.012452	-0.594168	-0.768280
C18	C	0.887360	-0.394831	-0.656738
C19	C	0.787080	-0.409615	-0.641919
C20	C	0.739966	-0.465650	-0.585652
C21	C	0.645747	-0.479544	-0.571734
C22	C	0.598634	-0.437397	-0.614076
C23	C	0.645750	-0.381355	-0.670340
C24	C	0.739976	-0.367466	-0.684265
C25	C	0.598644	-0.339213	-0.712689
C26	C	0.645760	-0.283171	-0.768952
C27	C	0.739977	-0.269285	-0.782874
C28	C	0.787090	-0.311431	-0.740532
C29	C	0.504418	-0.353102	-0.698764
C30	C	0.504428	-0.254918	-0.797376
C31	C	0.598647	-0.241025	-0.811294
C32	C	1.072596	-0.609198	-0.725922
C33	C	1.051646	-0.715655	-0.740719
C34	C	1.271783	-0.933460	-0.586042
C35	C	1.291466	-0.833436	-0.572136
C36	C	1.231513	-0.803986	-0.614280
C37	C	1.151872	-0.874569	-0.670334
C38	C	1.132183	-0.974602	-0.684236
C39	C	1.091913	-0.845128	-0.712474
C40	C	1.012272	-0.915711	-0.768528
C41	C	0.992586	-1.015734	-0.782428
C42	C	1.052540	-1.045184	-0.740284
C43	C	1.111603	-0.745095	-0.698572
C44	C	0.972003	-0.786238	-0.796766
C45	C	0.952319	-0.886261	-0.810673
C46	C	1.357044	-0.325709	-0.726266
C47	C	1.457314	-0.310953	-0.741109
C48	C	1.072543	-0.409482	-0.926695
C49	C	1.051577	-0.430425	-1.026950
C50	C	1.171105	-0.110505	-0.656834
C51	C	1.192140	-0.004042	-0.642090
C52	C	1.271662	-0.210483	-1.309780
C53	C	1.291366	-0.190807	-1.215587
C54	C	1.231420	-0.250709	-1.168423
C55	C	1.151767	-0.330292	-1.215462
C56	C	1.132065	-0.349975	-1.309665
C57	C	1.091823	-0.390201	-1.168308
C58	C	1.012170	-0.469784	-1.215346
C59	C	0.992471	-0.489462	-1.309541
C60	C	1.052416	-0.429560	-1.356705
C61	C	1.111526	-0.370519	-1.074104
C62	C	0.971928	-0.510011	-1.073989
C63	C	0.952224	-0.529687	-1.168182
C64	C	1.170819	-0.311306	-0.457085
C65	C	1.192014	-0.290068	-0.356820
H66	H	0.521917	-0.448712	-0.602741
H67	H	0.923182	-0.762261	-0.831082
Br68	Br	1.353016	-0.129206	-1.373795
H69	H	1.036519	-1.126630	-0.751606
Br70	Br	1.258162	-0.224004	-1.040587
Br71	Br	0.662599	-0.164970	-0.887649
H72	H	0.927729	-1.073201	-0.828059
H73	H	1.247544	-0.722541	-0.602953
H74	H	0.923117	-0.558790	-1.035589
H75	H	1.356309	-0.775971	-0.526496
H76	H	0.607393	-0.525173	-0.525925
Br77	Br	0.803904	-0.522855	-0.528207
Br78	Br	1.353134	-0.973433	-0.528848
H79	H	0.887474	-0.943743	-0.856312
Br80	Br	1.399464	-0.082809	-1.151757
H81	H	0.466065	-0.398733	-0.652955
Br82	Br	1.025680	-0.456264	-1.484545
H83	H	1.176380	-0.305721	-1.035815
Br84	Br	0.884384	-0.597485	-1.373383
Br85	Br	0.844126	-0.637688	-1.232030
H86	H	0.863812	-0.300119	-0.751858
H87	H	0.778332	-0.223662	-0.828696
H88	H	0.466068	-0.220600	-0.831856
Br89	Br	1.219682	-0.649316	-0.622500
