data_functionalizedCrystal
_audit_creation_method	'MofGen! by Chris Wilmer'
_symmetry_space_group_name_H-M	'P1'
_symmetry_Int_Tables_number	1
_symmetry_cell_setting	triclinic
loop_
_symmetry_equiv_pos_as_xyz
  x,y,z
_cell_length_a	12.759401
_cell_length_b	16.120484
_cell_length_c	12.759393
_cell_angle_alpha	92.863726
_cell_angle_beta	89.982824
_cell_angle_gamma	92.925560
loop_
_atom_site_label
_atom_site_type_symbol
_atom_site_fract_x
_atom_site_fract_y
_atom_site_fract_z
Zn1	Zn	1.584957	-0.331861	-0.615146
Zn2	Zn	1.575913	-0.471296	-0.448359
Zn3	Zn	1.409260	-0.331902	-0.439488
Zn4	Zn	1.400309	-0.471234	-0.623997
O5	O	1.492610	-0.401573	-0.531747
O6	O	1.730778	-0.350366	-0.593030
O7	O	1.553767	-0.452849	-0.300164
O8	O	1.440099	-0.215231	-0.455373
O9	O	1.724133	-0.452809	-0.470492
O10	O	1.569182	-0.215201	-0.584428
O11	O	1.431328	-0.350436	-0.293647
O12	O	1.261053	-0.350376	-0.463955
O13	O	1.424842	-0.452703	-0.769841
O14	O	1.254476	-0.452743	-0.599513
O15	O	1.560502	-0.350306	-0.763339
O16	O	1.545087	-0.587953	-0.479074
O17	O	1.416071	-0.587908	-0.608114
C18	C	1.219643	-0.401558	-0.531732
C19	C	1.102866	-0.401572	-0.531752
C20	C	1.478655	-0.618181	-0.545540
C21	C	1.472781	-0.710846	-0.551476
C22	C	1.044601	-0.454959	-0.602231
C23	C	0.934877	-0.454970	-0.602243
C24	C	0.941691	-0.348203	-0.461288
C25	C	1.051414	-0.348189	-0.461282
C26	C	1.096053	-0.508342	-0.672701
C27	C	1.037788	-0.561735	-0.743185
C28	C	0.928064	-0.561746	-0.743197
C29	C	0.876604	-0.508363	-0.672725
C30	C	1.462063	-0.880507	-0.562334
C31	C	1.523345	-0.921799	-0.501178
C32	C	1.517381	-1.016204	-0.507220
C33	C	1.468025	-0.786093	-0.556294
C34	C	1.766642	-0.401589	-0.531763
C35	C	1.883418	-0.401596	-0.531770
C36	C	1.492682	-0.401493	-0.805776
C37	C	1.492713	-0.401458	-0.922550
C38	C	1.506648	-0.184120	-0.517924
C39	C	1.512630	-0.091455	-0.512033
C40	C	1.422099	-0.454752	-0.980798
C41	C	1.422139	-0.454721	-1.090520
C42	C	1.563411	-0.348098	-1.083737
C43	C	1.563375	-0.348133	-0.974017
C44	C	1.351436	-0.508077	-0.929332
C45	C	1.280816	-0.561374	-0.987580
C46	C	1.280856	-0.561344	-1.097302
C47	C	1.351517	-0.508017	-1.148776
C48	C	1.492602	-0.401594	-0.258781
C49	C	1.492790	-0.401393	-0.141992
H50	H	1.185396	-0.508341	-0.672698
H51	H	1.580288	-0.886250	-0.444283
H52	H	1.620874	-0.304735	-0.926590
O53	O	0.886194	-0.290651	-0.385254
H54	H	0.800107	-0.299643	-0.397085
O55	O	0.758256	-0.508380	-0.672723
H56	H	0.726383	-0.554478	-0.733565
H57	H	1.405123	-0.916054	-0.619223
O58	O	1.114268	-0.290615	-0.385259
H59	H	1.060058	-0.253508	-0.336244
O60	O	1.204690	-0.618821	-1.160133
H61	H	1.155545	-0.655900	-1.105907
O62	O	1.093291	-0.619302	-0.819196
H63	H	1.034339	-0.656420	-0.868216
O64	O	0.865209	-0.619417	-0.819108
H65	H	0.919423	-0.656569	-0.868061
H66	H	1.351394	-0.508107	-0.839991
O67	O	1.204603	-0.618889	-0.932072
H68	H	1.216428	-0.609952	-0.845989
H69	H	1.351551	-0.508002	-1.238120
H70	H	1.620939	-0.304680	-1.125656
