data_functionalizedCrystal
_audit_creation_method	'MofGen! by Chris Wilmer'
_symmetry_space_group_name_H-M	'P1'
_symmetry_Int_Tables_number	1
_symmetry_cell_setting	triclinic
loop_
_symmetry_equiv_pos_as_xyz
  x,y,z
_cell_length_a	15.995350
_cell_length_b	17.666332
_cell_length_c	15.995350
_cell_angle_alpha	90.004241
_cell_angle_beta	83.492375
_cell_angle_gamma	90.005705
loop_
_atom_site_label
_atom_site_type_symbol
_atom_site_fract_x
_atom_site_fract_y
_atom_site_fract_z
O1	O	1.110991	0.062880	0.107928
O2	O	0.867216	0.062896	0.121256
O3	O	0.995767	0.062887	-0.007296
O4	O	0.982440	0.062889	0.236479
O5	O	0.995745	-0.063010	-0.007303
O6	O	0.867193	-0.063001	0.121249
O7	O	1.110969	-0.063016	0.107921
Cu8	Cu	0.989079	-0.074504	0.114584
Cu9	Cu	0.989106	0.074383	0.114592
O10	O	0.982417	-0.063008	0.236473
C11	C	0.836010	-0.000051	0.120701
C12	C	0.743060	-0.000045	0.119049
N13	N	0.989066	-0.179224	0.114578
C14	C	0.405312	-0.000061	0.113117
C15	C	0.452746	-0.000342	0.021565
C16	C	0.549436	-0.000053	0.023217
C17	C	0.572873	-0.000053	0.116060
C18	C	0.531798	0.071837	0.161220
C19	C	0.435163	0.071892	0.158920
C20	C	0.434798	-0.071276	0.160804
C21	C	0.531743	-0.072221	0.160782
C22	C	0.667570	-0.000047	0.117727
C23	C	0.310614	-0.000062	0.111452
C24	C	1.046007	-0.218837	0.057683
C25	C	1.046012	-0.298085	0.057679
C26	C	0.989084	-0.337716	0.114584
C27	C	0.932132	-0.298093	0.171483
C28	C	0.932124	-0.218847	0.171480
N29	N	0.978426	-0.462133	0.188673
N30	N	0.978439	-0.537414	0.188673
C31	C	0.989106	-0.576480	0.114596
N32	N	0.999776	-0.537421	0.040516
N33	N	0.999766	-0.462134	0.040517
C34	C	0.989087	-0.423645	0.114594
C35	C	1.046056	-0.702023	0.057692
C36	C	1.046055	-0.781272	0.057687
C37	C	0.932179	-0.781278	0.171499
C38	C	0.932176	-0.702030	0.171497
C39	C	0.989119	-0.662408	0.114594
C40	C	1.142175	-0.000068	0.108476
C41	C	1.235125	-0.000069	0.110127
C42	C	0.995205	-0.000060	-0.038494
C43	C	0.993553	-0.000056	-0.131444
N44	N	0.989125	0.179103	0.114592
C45	C	0.987621	-0.000058	-0.469192
C46	C	0.896069	0.000230	-0.421758
C47	C	0.897721	-0.000054	-0.325068
C48	C	0.990564	-0.000056	-0.301631
C49	C	1.035707	-0.071951	-0.342713
C50	C	1.033408	-0.072011	-0.439349
C51	C	1.035324	0.071157	-0.439699
C52	C	1.035303	0.072107	-0.342753
C53	C	0.992231	-0.000058	-0.206934
C54	C	0.985956	-0.000061	-0.563890
C55	C	0.982980	-0.000059	0.267671
C56	C	0.984631	-0.000059	0.360621
H57	H	0.434215	-0.051898	-0.015033
O58	O	0.870701	-0.176124	0.232852
H59	H	0.830004	-0.140036	0.197576
O60	O	1.107438	-0.659284	-0.003712
H61	H	1.097865	-0.597523	0.005842
H62	H	1.092420	-0.813526	0.011352
H63	H	0.885824	-0.813545	0.217829
O64	O	0.870770	-0.659296	0.232871
H65	H	0.831189	-0.700165	0.272447
H66	H	0.545924	0.074510	0.229429
O67	O	0.392719	-0.071924	0.250212
H68	H	0.441444	-0.070070	0.294364
H69	H	0.402915	0.075155	0.226136
O70	O	0.586354	0.068332	-0.024105
H71	H	0.631871	0.049549	-0.077634
O72	O	0.850700	0.068201	-0.287403
H73	H	0.826570	0.101709	-0.338244
O74	O	0.426804	0.067566	-0.026691
H75	H	0.398128	0.048192	-0.082988
H76	H	0.859486	0.051787	-0.440287
H77	H	0.559050	-0.125405	0.127815
H78	H	0.416864	0.125632	0.125993
H79	H	0.547108	-0.076563	0.228485
H80	H	0.861977	-0.051674	-0.297206
O81	O	1.124740	0.071800	-0.481759
H82	H	1.135716	0.124243	-0.519625
H83	H	1.092372	-0.186578	0.011348
H84	H	1.005401	0.125649	-0.460236
H85	H	1.004334	-0.125451	-0.314334
O86	O	1.107437	-0.340826	-0.003679
H87	H	1.147036	-0.299960	-0.043241
H88	H	1.002297	0.125293	-0.315502
H89	H	0.577856	-0.051588	-0.012281
O90	O	1.126056	-0.075502	-0.323999
H91	H	1.156514	-0.126793	-0.353723
H92	H	0.859630	-0.051035	-0.441355
O93	O	0.870733	-0.340830	0.232866
H94	H	0.880312	-0.402591	0.223318
O95	O	0.989770	-0.143189	-0.463605
H96	H	0.970502	-0.177241	-0.406339
O97	O	0.569379	0.142713	0.119679
H98	H	0.617299	0.126919	0.066877
H99	H	0.414253	-0.125767	0.130871
H100	H	1.100623	-0.075275	-0.471597
O101	O	1.124990	0.077860	-0.322416
H102	H	1.139144	0.029155	-0.282508
