data_functionalizedCrystal
_audit_creation_method	'MofGen! by Chris Wilmer'
_symmetry_space_group_name_H-M	'P1'
_symmetry_Int_Tables_number	1
_symmetry_cell_setting	triclinic
loop_
_symmetry_equiv_pos_as_xyz
  x,y,z
_cell_length_a	16.109301
_cell_length_b	10.654550
_cell_length_c	9.730223
_cell_angle_alpha	89.996251
_cell_angle_beta	90.002753
_cell_angle_gamma	96.026808
loop_
_atom_site_label
_atom_site_type_symbol
_atom_site_fract_x
_atom_site_fract_y
_atom_site_fract_z
O1	O	0.116770	-1.666250	0.114408
O2	O	0.127896	-1.300620	0.114386
O3	O	0.001362	-1.493479	0.114384
O4	O	0.243304	-1.473391	0.114410
O5	O	0.001365	-1.493477	-0.114196
O6	O	0.127899	-1.300618	-0.114194
O7	O	0.116773	-1.666248	-0.114172
Zn8	Zn	0.122337	-1.483433	-0.150475
Zn9	Zn	0.122332	-1.483436	0.150689
O10	O	0.243307	-1.473389	-0.114170
C11	C	0.127080	-1.253832	0.000093
C12	C	0.124636	-1.114422	0.000085
C13	C	-0.029616	-1.492665	0.000093
C14	C	-0.121926	-1.490225	0.000091
N15	N	0.122339	-1.483440	-0.356011
C16	C	-0.343552	-1.598991	0.000119
C17	C	-0.430286	-1.596689	0.000130
C18	C	-0.411772	-1.367868	0.000111
C19	C	-0.325040	-1.370172	0.000110
C20	C	-0.290932	-1.485737	0.000107
C21	C	-0.464399	-1.481131	0.000119
C22	C	-0.558440	-1.478634	0.000131
C23	C	-0.196885	-1.488234	0.000097
C24	C	0.274286	-1.474204	0.000124
C25	C	0.366595	-1.476643	0.000135
C26	C	0.117589	-1.713036	0.000124
C27	C	0.120033	-1.852446	0.000141
C28	C	0.199138	-1.033926	0.000113
C29	C	0.196836	-0.902936	0.000136
C30	C	0.045526	-0.932952	0.000109
C31	C	0.047828	-1.063939	0.000076
C32	C	0.286496	-1.016595	0.000135
C33	C	0.284194	-0.885606	0.000158
C34	C	0.066329	-1.568859	-0.427939
C35	C	0.066319	-1.568856	-0.571822
C36	C	0.178336	-1.398010	-0.571837
C37	C	0.178342	-1.398008	-0.427957
C38	C	0.001659	-1.667500	-0.427931
C39	C	0.001649	-1.667497	-0.571814
N40	N	0.122324	-1.483438	0.356225
H41	H	-0.315785	-1.693091	0.000119
H42	H	-0.017009	-0.891833	0.000123
F43	F	0.318704	-0.825433	-0.128820
F44	F	-0.081865	-1.640606	-0.376889
H45	H	-0.473126	-1.688912	0.000143
F46	F	-0.077278	-1.628676	-0.630148
H47	H	0.015894	-1.763815	-0.610857
H48	H	0.320662	-1.045462	-0.095527
F49	F	-0.448080	-1.244883	0.000115
H50	H	-0.282194	-1.277941	0.000104
H51	H	0.317108	-0.843427	0.095829
H52	H	-0.012838	-1.129476	0.000033
F53	F	0.237935	-1.307091	-0.648418
H54	H	0.314310	-1.051874	0.098825
H55	H	0.223942	-1.328442	-0.369395
H56	H	0.021908	-1.758409	-0.383296
