data_functionalizedCrystal
_audit_creation_method	'MofGen! by Chris Wilmer'
_symmetry_space_group_name_H-M	'P1'
_symmetry_Int_Tables_number	1
_symmetry_cell_setting	triclinic
loop_
_symmetry_equiv_pos_as_xyz
  x,y,z
_cell_length_a	21.295419
_cell_length_b	29.839133
_cell_length_c	21.295412
_cell_angle_alpha	89.980908
_cell_angle_beta	89.976510
_cell_angle_gamma	90.044403
loop_
_atom_site_label
_atom_site_type_symbol
_atom_site_fract_x
_atom_site_fract_y
_atom_site_fract_z
Zn1	Zn	0.962353	-0.178687	-0.355962
Zn2	Zn	1.295686	0.154646	-0.022628
Zn3	Zn	1.629020	0.487980	0.310705
Zn4	Zn	0.962259	-0.253814	-0.250708
Zn5	Zn	1.295592	0.079519	0.082625
Zn6	Zn	1.628926	0.412852	0.415958
Zn7	Zn	0.857078	-0.178719	-0.250707
Zn8	Zn	1.190411	0.154615	0.082627
Zn9	Zn	1.523745	0.487948	0.415960
Zn10	Zn	0.857047	-0.253810	-0.355940
Zn11	Zn	1.190381	0.079523	-0.022607
Zn12	Zn	1.523714	0.412857	0.310727
O13	O	0.909684	-0.216258	-0.303329
O14	O	1.243018	0.117076	0.030004
O15	O	1.576351	0.450409	0.363337
O16	O	1.050430	-0.188641	-0.342009
O17	O	1.383763	0.144692	-0.008676
O18	O	1.717097	0.478025	0.324657
O19	O	0.948280	-0.243868	-0.162619
O20	O	1.281613	0.089466	0.170715
O21	O	1.614947	0.422799	0.504048
O22	O	0.871095	-0.115847	-0.264677
O23	O	1.204429	0.217486	0.068656
O24	O	1.537762	0.550819	0.401989
O25	O	1.050361	-0.243837	-0.264680
O26	O	1.383694	0.089496	0.068653
O27	O	1.717028	0.422829	0.401986
O28	O	0.948440	-0.115824	-0.342008
O29	O	1.281774	0.217509	-0.008674
O30	O	1.615107	0.550843	0.324659
O31	O	0.871004	-0.188695	-0.162618
O32	O	1.204338	0.144638	0.170716
O33	O	1.537671	0.477971	0.504049
O34	O	0.768985	-0.188691	-0.264657
O35	O	1.102318	0.144642	0.068677
O36	O	1.435651	0.477976	0.402010
O37	O	0.871043	-0.243830	-0.444032
O38	O	1.204376	0.089503	-0.110699
O39	O	1.537709	0.422837	0.222634
O40	O	0.768962	-0.243861	-0.341971
O41	O	1.102295	0.089473	-0.008638
O42	O	1.435629	0.422806	0.324696
O43	O	0.948410	-0.188637	-0.444048
O44	O	1.281744	0.144696	-0.110715
O45	O	1.615077	0.478029	0.222618
O46	O	0.948250	-0.316681	-0.264659
O47	O	1.281584	0.016652	0.068674
O48	O	1.614917	0.349986	0.402007
O49	O	0.870952	-0.316678	-0.341973
O50	O	1.204285	0.016655	-0.008639
O51	O	1.537618	0.349989	0.324694
C52	C	0.746133	-0.216279	-0.303312
C53	C	1.079466	0.117054	0.030022
C54	C	1.412799	0.450388	0.363355
C55	C	0.676165	-0.216299	-0.303319
C56	C	1.009498	0.117034	0.030014
C57	C	1.342831	0.450368	0.363348
C58	C	0.643356	-0.187606	-0.343647
C59	C	0.976690	0.145728	-0.010313
C60	C	1.310023	0.479061	0.323020
C61	C	0.577614	-0.187594	-0.343649
C62	C	0.910947	0.145740	-0.010316
C63	C	1.244281	0.479073	0.323018
C64	C	0.544682	-0.216283	-0.303330
C65	C	0.878015	0.117050	0.030003
C66	C	1.211349	0.450384	0.363336
C67	C	0.577498	-0.244978	-0.262995
C68	C	0.910832	0.088355	0.070338
C69	C	1.244165	0.421688	0.403672
C70	C	0.643240	-0.244987	-0.262989
C71	C	0.976573	0.088347	0.070344
C72	C	1.309906	0.421680	0.403677
N73	N	0.441408	-0.255591	-0.298422
N74	N	0.774741	0.077743	0.034911
N75	N	1.108074	0.411076	0.368245
N76	N	0.378956	-0.255582	-0.298431
N77	N	0.712290	0.077751	0.034902
N78	N	1.045623	0.411085	0.368236
C79	C	0.346607	-0.216260	-0.303344
C80	C	0.679941	0.117074	0.029989
C81	C	1.013274	0.450407	0.363322
N82	N	0.379069	-0.176946	-0.308261
N83	N	0.712403	0.156387	0.025073
N84	N	1.045736	0.489721	0.358406
N85	N	0.441527	-0.176956	-0.308255
N86	N	0.774860	0.156378	0.025079
N87	N	1.108193	0.489711	0.358412
C88	C	0.473397	-0.216277	-0.303332
C89	C	0.806730	0.117056	0.030001
C90	C	1.140063	0.450389	0.363335
C91	C	0.242514	-0.187551	-0.343677
C92	C	0.575847	0.145783	-0.010343
C93	C	0.909180	0.479116	0.322990
C94	C	0.176770	-0.187538	-0.343675
C95	C	0.510103	0.145795	-0.010341
C96	C	0.843437	0.479129	0.322992
C97	C	0.176656	-0.244927	-0.263024
C98	C	0.509989	0.088406	0.070309
C99	C	0.843322	0.421740	0.403643
C100	C	0.242398	-0.244936	-0.263023
C101	C	0.575731	0.088398	0.070311
C102	C	0.909065	0.421731	0.403644
C103	C	0.275323	-0.216248	-0.303352
C104	C	0.608656	0.117085	0.029981
C105	C	0.941990	0.450418	0.363314
C106	C	0.909604	-0.332980	-0.303327
C107	C	1.242938	0.000353	0.030006
C108	C	1.576271	0.333687	0.363339
C109	C	0.909628	-0.382915	-0.303348
C110	C	1.242961	-0.049581	0.029986
C111	C	1.576294	0.283752	0.363319
C112	C	0.949981	-0.739455	-0.343641
C113	C	1.283314	-0.406121	-0.010308
C114	C	1.616648	-0.072788	0.323025
C115	C	0.949921	-0.551782	-0.343641
C116	C	1.283255	-0.218448	-0.010307
C117	C	1.616588	0.114885	0.323026
O118	O	0.984150	-0.527477	-0.377890
O119	O	1.317483	-0.194144	-0.044557
O120	O	1.650816	0.139190	0.288776
N121	N	0.909678	-0.528360	-0.303346
N122	N	1.243011	-0.195026	0.029987
N123	N	1.576344	0.138307	0.363320
C124	C	0.869449	-0.551859	-0.263046
C125	C	1.202782	-0.218526	0.070287
C126	C	1.536115	0.114808	0.403620
O127	O	0.835222	-0.527631	-0.228769
O128	O	1.168555	-0.194298	0.104564
O129	O	1.501889	0.139036	0.437898
C130	C	0.869512	-0.739531	-0.263044
C131	C	1.202845	-0.406198	0.070289
C132	C	1.536179	-0.072864	0.403622
C133	C	0.909754	-0.762951	-0.303346
C134	C	1.243087	-0.429617	0.029987
C135	C	1.576421	-0.096284	0.363321
C136	C	0.990220	-0.762874	-0.383939
C137	C	1.323554	-0.429541	-0.050606
C138	C	1.656887	-0.096207	0.282728
C139	C	0.990232	-0.809790	-0.383941
C140	C	1.323566	-0.476456	-0.050608
C141	C	1.656899	-0.143123	0.282725
C142	C	0.950005	-0.833286	-0.343646
C143	C	1.283338	-0.499952	-0.010312
C144	C	1.616672	-0.166619	0.323021
C145	C	0.909766	-0.809866	-0.303348
C146	C	1.243099	-0.476533	0.029985
C147	C	1.576433	-0.143199	0.363319
C148	C	0.829287	-0.763029	-0.222742
C149	C	1.162620	-0.429696	0.110592
C150	C	1.495953	-0.096363	0.443925
C151	C	0.829307	-0.809950	-0.222744
C152	C	1.162640	-0.476617	0.110590
C153	C	1.495974	-0.143284	0.443923
C154	C	0.869549	-0.833370	-0.263045
C155	C	1.202882	-0.500037	0.070288
C156	C	1.536216	-0.166703	0.403622
C157	C	0.869551	-0.880277	-0.263055
C158	C	1.202884	-0.546944	0.070279
C159	C	1.536217	-0.213611	0.403612
N160	N	0.909795	-0.903699	-0.303349
N161	N	1.243128	-0.570366	0.029984
N162	N	1.576461	-0.237033	0.363318
C163	C	0.950022	-0.880203	-0.343645
C164	C	1.283355	-0.546870	-0.010311
C165	C	1.616689	-0.213537	0.323022
C166	C	0.869417	-0.453328	-0.263051
C167	C	1.202751	-0.119995	0.070282
C168	C	1.536084	0.213338	0.403616
C169	C	0.869401	-0.406410	-0.263052
C170	C	1.202734	-0.073077	0.070281
C171	C	1.536067	0.260256	0.403614
C172	C	0.949874	-0.406336	-0.343646
C173	C	1.283208	-0.073003	-0.010313
C174	C	1.616541	0.260330	0.323021
C175	C	0.949888	-0.453255	-0.343647
C176	C	1.283221	-0.119922	-0.010314
C177	C	1.616554	0.213412	0.323019
C178	C	0.909661	-0.476750	-0.303345
C179	C	1.242995	-0.143417	0.029988
C180	C	1.576328	0.189916	0.363321
C181	C	0.950044	-0.978729	-0.343647
C182	C	1.283377	-0.645396	-0.010313
C183	C	1.616710	-0.312063	0.323020
C184	C	0.950050	-1.025649	-0.343647
C185	C	1.283384	-0.692315	-0.010314
C186	C	1.616717	-0.358982	0.323020
C187	C	0.869579	-1.025719	-0.263051
C188	C	1.202913	-0.692385	0.070282
C189	C	1.536246	-0.359052	0.403615
C190	C	0.869570	-0.978803	-0.263053
C191	C	1.202903	-0.645470	0.070280
C192	C	1.536237	-0.312137	0.403614
C193	C	0.909807	-0.955310	-0.303353
C194	C	1.243141	-0.621976	0.029981
C195	C	1.576474	-0.288643	0.363314
O196	O	0.835346	-0.904611	-0.228818
O197	O	1.168679	-0.571278	0.104515
O198	O	1.502012	-0.237944	0.437849
O199	O	0.984253	-0.904439	-0.377907
O200	O	1.317587	-0.571106	-0.044574
O201	O	1.650920	-0.237773	0.288760
C202	C	0.949969	-0.692539	-0.343639
C203	C	1.283302	-0.359206	-0.010306
C204	C	1.616636	-0.025873	0.323028
C205	C	0.909730	-0.669120	-0.303341
C206	C	1.243063	-0.335786	0.029992
C207	C	1.576396	-0.002453	0.363325
C208	C	0.869503	-0.692616	-0.263046
C209	C	1.202836	-0.359282	0.070287
C210	C	1.536169	-0.025949	0.403621
C211	C	0.909713	-0.622202	-0.303343
C212	C	1.243046	-0.288868	0.029991
C213	C	1.576380	0.044465	0.363324
C214	C	0.949940	-0.598706	-0.343638
C215	C	1.283273	-0.265373	-0.010305
C216	C	1.616607	0.067961	0.323029
C217	C	0.990184	-0.622128	-0.383932
C218	C	1.323517	-0.288794	-0.050599
C219	C	1.656851	0.044539	0.282734
C220	C	0.990196	-0.669043	-0.383935
C221	C	1.323529	-0.335710	-0.050601
C222	C	1.656863	-0.002377	0.282732
C223	C	0.829259	-0.669194	-0.222752
C224	C	1.162592	-0.335860	0.110582
C225	C	1.495925	-0.002527	0.443915
C226	C	0.829249	-0.622278	-0.222753
C227	C	1.162583	-0.288945	0.110580
C228	C	1.495916	0.044388	0.443913
C229	C	0.869477	-0.598782	-0.263049
C230	C	1.202810	-0.265449	0.070285
C231	C	1.536143	0.067884	0.403618
C232	C	1.073875	-0.216236	-0.303347
C233	C	1.407208	0.117097	0.029986
C234	C	1.740541	0.450430	0.363319
C235	C	1.143843	-0.216227	-0.303355
C236	C	1.477176	0.117106	0.029978
C237	C	1.810509	0.450440	0.363312
C238	C	0.909734	-0.216230	-0.467520
C239	C	1.243067	0.117104	-0.134186
C240	C	1.576400	0.450437	0.199147
C241	C	0.909755	-0.216218	-0.537488
C242	C	1.243088	0.117116	-0.204154
C243	C	1.576421	0.450449	0.129179
C244	C	0.909782	-0.099079	-0.303345
C245	C	1.243115	0.234254	0.029988
C246	C	1.576448	0.567587	0.363322
C247	C	0.909823	-0.049145	-0.303352
C248	C	1.243157	0.284189	0.029982
C249	C	1.576490	0.617522	0.363315
C250	C	0.869528	-0.187486	-0.570344
C251	C	1.202861	0.145847	-0.237011
C252	C	1.536194	0.479181	0.096323
C253	C	0.869526	-0.187478	-0.636086
C254	C	1.202859	0.145856	-0.302753
C255	C	1.536192	0.479189	0.030580
C256	C	0.909761	-0.216196	-0.668970
C257	C	1.243095	0.117137	-0.335637
C258	C	1.576428	0.450470	-0.002304
C259	C	0.949991	-0.244933	-0.636106
C260	C	1.283324	0.088400	-0.302773
C261	C	1.616658	0.421733	0.030560
C262	C	0.949988	-0.244944	-0.570365
C263	C	1.283321	0.088389	-0.237032
C264	C	1.616654	0.421723	0.096302
N265	N	0.964866	-0.219617	-0.772209
N266	N	1.298199	0.113716	-0.438876
N267	N	1.631533	0.447050	-0.105543
N268	N	0.964867	-0.219604	-0.834661
N269	N	1.298201	0.113729	-0.501328
N270	N	1.631534	0.447062	-0.167994
C271	C	0.909773	-0.216166	-0.867045
C272	C	1.243106	0.117167	-0.533712
C273	C	1.576440	0.450500	-0.200378
N274	N	0.854676	-0.212733	-0.834619
N275	N	1.188009	0.120600	-0.501285
N276	N	1.521343	0.453934	-0.167952
N277	N	0.854675	-0.212743	-0.772161
N278	N	1.188009	0.120590	-0.438828
N279	N	1.521342	0.453923	-0.105495
C280	C	0.909769	-0.216188	-0.740256
C281	C	1.243103	0.117145	-0.406922
C282	C	1.576436	0.450479	-0.073589
C283	C	0.869540	-0.187424	-0.971187
C284	C	1.202874	0.145909	-0.637853
C285	C	1.536207	0.479242	-0.304520
C286	C	0.869537	-0.187419	-1.036931
C287	C	1.202870	0.145914	-0.703597
C288	C	1.536204	0.479248	-0.370264
C289	C	0.950008	-0.244872	-1.036949
C290	C	1.283342	0.088461	-0.703616
C291	C	1.616675	0.421794	-0.370282
C292	C	0.950006	-0.244880	-0.971207
C293	C	1.283339	0.088453	-0.637873
C294	C	1.616673	0.421787	-0.304540
C295	C	0.909773	-0.216153	-0.938329
C296	C	1.243106	0.117180	-0.604996
C297	C	1.576439	0.450513	-0.271663
C298	C	0.909672	-0.216253	-0.139778
C299	C	1.243005	0.117080	0.193556
C300	C	1.576338	0.450414	0.526889
C301	C	0.909773	-0.216138	-0.069810
C302	C	1.243106	0.117195	0.263523
C303	C	1.576439	0.450528	0.596857
H304	H	0.269111	-0.268303	-0.230186
H305	H	0.602444	0.065030	0.103147
H306	H	0.935778	0.398364	0.436480
Br307	Br	0.533078	-0.148648	-0.398381
Br308	Br	0.866412	0.184685	-0.065048
Br309	Br	1.199745	0.518018	0.268286
Br310	Br	1.004504	-0.485034	-0.398343
Br311	Br	1.337837	-0.151700	-0.065010
Br312	Br	1.671171	0.181633	0.268323
H313	H	0.836775	-0.164024	-1.063681
H314	H	1.170108	0.169310	-0.730348
H315	H	1.503441	0.502643	-0.397014
Br316	Br	0.814924	-0.148502	-0.525727
Br317	Br	1.148258	0.184831	-0.192394
Br318	Br	1.481591	0.518165	0.140939
H319	H	0.982751	-0.268316	-0.662884
H320	H	1.316085	0.065017	-0.329551
H321	H	1.649418	0.398350	0.003782
H322	H	0.836826	-1.044858	-0.230245
H323	H	1.170159	-0.711524	0.103088
H324	H	1.503492	-0.378191	0.436421
Br325	Br	1.004470	-0.374440	-0.398331
Br326	Br	1.337803	-0.041107	-0.064997
Br327	Br	1.671137	0.292226	0.268336
H328	H	0.982765	-0.268275	-0.944455
H329	H	1.316098	0.065058	-0.611122
H330	H	1.649431	0.398391	-0.277788
Br331	Br	0.532807	-0.283911	-0.208272
Br332	Br	0.866140	0.049422	0.125062
Br333	Br	1.199474	0.382756	0.458395
H334	H	1.022936	-0.602990	-0.416745
H335	H	1.356270	-0.269656	-0.083412
H336	H	1.689603	0.063677	0.249922
H337	H	1.022965	-0.688107	-0.416753
H338	H	1.356298	-0.354774	-0.083420
H339	H	1.689631	-0.021441	0.249914
Br340	Br	1.004664	-1.057430	-0.398350
Br341	Br	1.337998	-0.724096	-0.065016
Br342	Br	1.671331	-0.390763	0.268317
Br343	Br	1.004585	-0.283940	-0.525771
Br344	Br	1.337919	0.049393	-0.192438
Br345	Br	1.671252	0.382726	0.140896
H346	H	0.669952	-0.268353	-0.230149
H347	H	1.003285	0.064980	0.103185
H348	H	1.336618	0.398314	0.436518
Br349	Br	0.774663	-0.731258	-0.168049
Br350	Br	1.107996	-0.397924	0.165284
Br351	Br	1.441329	-0.064591	0.498617
Br352	Br	0.287202	-0.148616	-0.398404
Br353	Br	0.620535	0.184717	-0.065071
Br354	Br	0.953868	0.518050	0.268262
Br355	Br	1.004652	-0.946852	-0.398339
Br356	Br	1.337986	-0.613519	-0.065006
Br357	Br	1.671319	-0.280186	0.268328
H358	H	0.149843	-0.268286	-0.230196
H359	H	0.483177	0.065047	0.103137
H360	H	0.816510	0.398380	0.436471
H361	H	0.836780	-0.164034	-0.944417
H362	H	1.170113	0.169300	-0.611083
H363	H	1.503446	0.502633	-0.277750
Br364	Br	0.132243	-0.148590	-0.398406
Br365	Br	0.465576	0.184743	-0.065072
Br366	Br	0.798910	0.518077	0.268261
Br367	Br	1.004609	-0.283853	-1.081570
Br368	Br	1.337942	0.049481	-0.748237
Br369	Br	1.671276	0.382814	-0.414903
H370	H	0.670160	-0.164246	-0.376486
H371	H	1.003493	0.169088	-0.043152
H372	H	1.336827	0.502421	0.290181
Br373	Br	1.044847	-0.841566	-0.438642
Br374	Br	1.378180	-0.508233	-0.105308
Br375	Br	1.711514	-0.174899	0.228025
Br376	Br	1.044822	-0.730996	-0.438633
Br377	Br	1.378156	-0.397662	-0.105300
Br378	Br	1.711489	-0.064329	0.228034
H379	H	0.836795	-0.959735	-0.230242
H380	H	1.170128	-0.626401	0.103091
H381	H	1.503462	-0.293068	0.436424
H382	H	0.796474	-0.603213	-0.189936
H383	H	1.129807	-0.269880	0.143397
H384	H	1.463141	0.063453	0.476730
Br385	Br	0.814772	-0.374633	-0.208368
Br386	Br	1.148105	-0.041299	0.124966
Br387	Br	1.481439	0.292034	0.458299
H388	H	0.836658	-0.472454	-0.230231
H389	H	1.169992	-0.139120	0.103103
H390	H	1.503325	0.194213	0.436436
H391	H	0.796550	-0.829078	-0.189923
H392	H	1.129883	-0.495744	0.143410
H393	H	1.463217	-0.162411	0.476743
H394	H	0.796501	-0.688319	-0.189936
H395	H	1.129834	-0.354986	0.143397
H396	H	1.463168	-0.021653	0.476730
Br397	Br	0.814942	-0.148472	-0.680687
Br398	Br	1.148275	0.184861	-0.347354
Br399	Br	1.481609	0.518194	-0.014020
