data_functionalizedCrystal
_audit_creation_method	'MofGen! by Chris Wilmer'
_symmetry_space_group_name_H-M	'P1'
_symmetry_Int_Tables_number	1
_symmetry_cell_setting	triclinic
loop_
_symmetry_equiv_pos_as_xyz
  x,y,z
_cell_length_a	20.016444
_cell_length_b	14.560438
_cell_length_c	14.560438
_cell_angle_alpha	60.001909
_cell_angle_beta	60.002114
_cell_angle_gamma	90.002078
loop_
_atom_site_label
_atom_site_type_symbol
_atom_site_fract_x
_atom_site_fract_y
_atom_site_fract_z
Zr1	Zr	0.643581	-0.120506	1.005315
O2	O	0.536909	-0.267149	1.196906
O3	O	0.676282	-0.075555	0.813717
O4	O	0.676281	-0.267153	1.005315
O5	O	0.536910	0.075587	1.005311
O6	O	0.786221	-0.267153	1.005322
O7	O	0.536909	-0.075551	1.005309
O8	O	0.786222	0.075580	0.662589
O9	O	0.536909	-0.267146	1.348044
O10	O	0.772275	-0.056381	0.892532
O11	O	0.690229	0.056412	0.892529
O12	O	0.690228	-0.169169	1.118110
O13	O	0.608182	-0.056376	1.118106
Zr14	Zr	0.818924	0.120541	1.005331
Zr15	Zr	0.818923	-0.120507	1.005327
Zr16	Zr	0.643582	0.120542	1.005319
Zr17	Zr	0.643582	-0.120502	1.246363
Zr18	Zr	0.818923	0.120537	0.764283
O19	O	0.786223	0.075590	1.196928
O20	O	0.786222	-0.267149	1.196923
O21	O	0.536910	0.075591	1.196912
O22	O	0.925596	0.267184	0.813739
O23	O	0.925595	-0.075556	0.813734
O24	O	0.676283	0.267184	0.813723
O25	O	0.925595	-0.075552	1.005334
O26	O	0.786223	0.267188	1.005331
O27	O	0.676283	0.267188	1.005324
O28	O	0.925596	0.075586	1.005337
O29	O	0.676282	-0.267146	1.348053
O30	O	0.786223	0.267181	0.662592
O31	O	0.925596	0.267181	0.662601
O32	O	0.925595	0.075580	0.662598
O33	O	0.536910	-0.075545	1.348047
O34	O	0.676283	-0.075545	1.348057
O35	O	0.772276	0.169205	0.892536
O36	O	0.854323	0.056412	0.892539
O37	O	0.772276	-0.056377	1.118117
O38	O	0.690229	0.056416	1.118114
C39	C	0.511927	0.000018	1.005308
C40	C	0.437490	0.000018	1.005304
C41	C	0.731252	0.000012	0.703809
C42	C	0.731252	0.000010	0.601478
C43	C	0.731254	0.301532	1.005328
C44	C	0.731254	0.403863	1.005330
C45	C	0.309051	0.058895	0.887569
C46	C	0.239105	0.058898	0.887575
C47	C	0.153456	-0.058862	1.123086
C48	C	0.223400	-0.058857	1.123079
C49	C	0.301197	0.000018	1.005317
C50	C	0.161308	0.000017	1.005329
C51	C	0.085470	0.000019	1.005336
C52	C	0.377040	0.000018	1.005309
C53	C	0.950578	0.000017	1.005337
C54	C	1.025015	0.000017	1.005342
C55	C	0.731251	-0.301497	1.005318
C56	C	0.731251	-0.403828	1.005316
C57	C	0.688427	0.393067	1.123077
C58	C	0.688423	0.489222	1.123071
C59	C	0.774079	0.606966	0.887560
C60	C	0.774078	0.510812	0.887567
C61	C	0.774078	-0.058867	0.553404
C62	C	0.774081	-0.058856	0.457244
C63	C	0.688426	0.058909	0.457246
C64	C	0.688428	0.058905	0.553397
C65	C	0.731253	0.000023	1.306837
C66	C	0.731253	0.000025	1.409168
C67	C	0.950577	0.000012	0.703823
C68	C	1.025014	0.000009	0.601497
C69	C	0.731253	0.301526	0.703814
C70	C	0.731253	0.403856	0.601485
C71	C	0.950578	0.301526	0.703829
C72	C	1.025016	0.403855	0.601504
C73	C	0.511926	-0.301491	1.306817
C74	C	0.437489	-0.403820	1.409142
C75	C	0.511927	0.000024	1.306822
C76	C	0.437491	0.000026	1.409148
C77	C	0.731252	-0.301491	1.306832
C78	C	0.731251	-0.403820	1.409161
C79	C	1.017143	-0.058878	0.553440
C80	C	1.087077	-0.058903	0.457307
C81	C	1.164883	-0.000032	0.409227
C82	C	1.172753	0.058857	0.457293
C83	C	1.102819	0.058874	0.553431
C84	C	1.102807	0.393033	0.553453
C85	C	1.172755	0.489173	0.457322
C86	C	1.164911	0.596134	0.409237
C87	C	1.087111	0.606954	0.457297
C88	C	1.017165	0.510815	0.553433
C89	C	0.359698	-0.392998	1.457204
C90	C	0.289749	-0.489138	1.553365
C91	C	0.297594	-0.596099	1.601455
C92	C	0.375393	-0.606918	1.553389
C93	C	0.445340	-0.510780	1.457236
C94	C	0.445362	0.058903	1.457216
C95	C	0.375427	0.058901	1.553375
C96	C	0.297622	0.000027	1.601459
C97	C	0.289752	-0.058858	1.553388
C98	C	0.359686	-0.058861	1.457237
C99	C	0.774081	0.510807	0.553412
C100	C	0.774071	0.606952	0.457272
C101	C	0.688407	0.489182	0.457282
C102	C	0.688412	0.393039	0.553427
H103	H	0.372394	0.106848	0.791680
O104	O	0.646692	0.115954	0.600225
C105	C	0.563092	0.072688	0.655810
H106	H	0.547926	-0.017054	0.684666
H107	H	0.524353	0.072840	0.745596
H108	H	0.549396	0.127291	0.582117
H109	H	0.245507	0.106842	0.791693
H110	H	0.240632	-0.674372	1.679749
O111	O	0.941611	-0.115990	0.599914
C112	C	0.932638	-0.072695	0.497316
H113	H	0.995597	-0.029581	0.401136
H114	H	0.895851	-0.144357	0.511823
H115	H	0.899210	-0.009137	0.496027
O116	O	1.232898	0.000033	0.315867
C117	C	1.303265	0.064648	0.283696
H118	H	1.287233	0.069079	0.368011
H119	H	1.352653	0.023873	0.263707
H120	H	1.326809	0.153240	0.193356
H121	H	0.808954	-0.106798	0.418103
H122	H	1.221873	0.674407	0.330956
H123	H	1.236097	0.480343	0.418201
O124	O	1.110371	0.116182	0.600067
C125	C	1.072509	0.198847	0.576514
H126	H	1.024831	0.174089	0.564572
H127	H	1.041474	0.206015	0.661888
H128	H	1.120605	0.283282	0.484041
H129	H	0.808952	0.519611	0.791678
O130	O	1.248293	0.116217	0.410543
C131	C	1.257270	0.231154	0.354876
H132	H	1.194313	0.240791	0.398330
H133	H	1.294083	0.267248	0.375913
H134	H	1.290673	0.278363	0.245376
O135	O	0.815610	-0.116047	0.600283
C136	C	0.806448	-0.103406	0.695435
H137	H	0.748603	-0.081728	0.737493
H138	H	0.801546	-0.185357	0.776316
H139	H	0.861784	-0.032915	0.649444
H140	H	0.216999	-0.106799	1.218969
O141	O	0.352179	-0.116024	1.410431
C142	C	0.430581	-0.103384	1.315222
H143	H	0.476956	-0.081720	1.330998
H144	H	0.429795	-0.185331	1.323015
H145	H	0.448392	-0.032884	1.214666
O146	O	1.079524	-0.115935	0.410393
C147	C	1.117402	-0.040349	0.275674
H148	H	1.165082	0.037131	0.234892
H149	H	1.148437	-0.083076	0.225864
H150	H	1.069317	-0.013984	0.257329
O151	O	1.110585	0.289223	0.599958
C152	C	1.194251	0.300311	0.536846
H153	H	1.231550	0.386060	0.497346
H154	H	1.204002	0.231276	0.608910
H155	H	1.214856	0.292562	0.453252
H156	H	0.226409	-0.480306	1.592485
H157	H	0.090107	-0.106797	1.218963
H158	H	0.381771	-0.694017	1.592557
H159	H	1.080736	0.694054	0.418132
H160	H	0.953826	0.519642	0.592544
O161	O	0.646927	0.289077	0.600106
C162	C	0.701916	0.229950	0.576585
H163	H	0.758290	0.266676	0.564607
H164	H	0.670851	0.137421	0.661991
H165	H	0.721072	0.237939	0.484141
H166	H	0.353295	-0.305914	1.418054
H167	H	0.508679	-0.519604	1.418105
H168	H	0.653548	0.480422	1.218952
O169	O	0.646754	0.289263	1.237582
C170	C	0.608970	0.300359	1.341506
H171	H	0.600490	0.386159	1.306976
H172	H	0.546756	0.231402	1.423864
H173	H	0.649108	0.292489	1.377714
O174	O	0.520998	0.116074	1.410341
C175	C	0.581048	0.103434	1.315190
H176	H	0.553797	0.081765	1.273123
H177	H	0.634984	0.185382	1.234316
H178	H	0.602922	0.032937	1.361185
O179	O	0.382982	0.116201	1.600022
C180	C	0.345105	0.198852	1.576501
H181	H	0.297424	0.174088	1.564566
H182	H	0.314071	0.206003	1.661887
H183	H	0.393191	0.283296	1.484033
H184	H	0.240684	0.000040	1.679752
O185	O	0.214108	-0.115940	1.600199
C186	C	0.154080	-0.103318	1.695387
H187	H	0.181356	-0.023803	1.679591
H188	H	0.100144	-0.096554	1.687586
H189	H	0.132201	-0.179390	1.795952
H190	H	0.808962	0.519621	0.592543
O191	O	0.815694	0.710770	0.773055
C192	C	0.853510	0.699677	0.669130
H193	H	0.819916	0.613876	0.703655
H194	H	0.851207	0.768632	0.586769
H195	H	0.919985	0.707552	0.632927
O196	O	0.815748	0.710760	0.410673
C197	C	0.853541	0.699683	0.473737
H198	H	0.862024	0.613885	0.513351
H199	H	0.915754	0.768644	0.401607
H200	H	0.813408	0.707562	0.557244
O201	O	0.646877	0.478879	0.410397
C202	C	0.656043	0.586670	0.315243
H203	H	0.713883	0.650408	0.273201
H204	H	0.660957	0.585602	0.234352
H205	H	0.600703	0.611164	0.361229
H206	H	0.653559	0.106858	0.418088
