data_functionalizedCrystal
_audit_creation_method	'MofGen! by Chris Wilmer'
_symmetry_space_group_name_H-M	'P1'
_symmetry_Int_Tables_number	1
_symmetry_cell_setting	triclinic
loop_
_symmetry_equiv_pos_as_xyz
  x,y,z
_cell_length_a	14.519709
_cell_length_b	10.540539
_cell_length_c	13.596369
_cell_angle_alpha	89.996161
_cell_angle_beta	89.999184
_cell_angle_gamma	95.897182
loop_
_atom_site_label
_atom_site_type_symbol
_atom_site_fract_x
_atom_site_fract_y
_atom_site_fract_z
O1	O	-1.224765	0.166400	-0.081647
O2	O	-0.724765	0.666400	0.418353
O3	O	-0.956394	0.185995	-0.081679
O4	O	-0.456394	0.685995	0.418321
O5	O	-1.096702	-0.008572	-0.081661
O6	O	-0.596702	0.491428	0.418339
O7	O	-1.084457	0.360966	-0.081665
O8	O	-0.584457	0.860966	0.418335
O9	O	-1.096688	-0.008582	0.081922
O10	O	-0.596688	0.491418	0.581922
O11	O	-0.956380	0.185985	0.081904
O12	O	-0.456380	0.685985	0.581904
O13	O	-1.224751	0.166389	0.081936
O14	O	-0.724751	0.666389	0.581936
Zn15	Zn	-1.090563	0.176185	0.107893
Zn16	Zn	-0.590563	0.676185	0.607893
Zn17	Zn	-1.090582	0.176199	-0.107635
Zn18	Zn	-0.590582	0.676199	0.392365
O19	O	-1.084442	0.360956	0.081918
O20	O	-0.584442	0.860956	0.581918
C21	C	-0.922022	0.185077	0.000109
C22	C	-0.422022	0.685077	0.500109
C23	C	-0.819626	0.182340	0.000096
C24	C	-0.319626	0.682340	0.500096
C25	C	-1.095777	-0.055870	0.000129
C26	C	-0.595777	0.444130	0.500129
C27	C	-1.093029	-0.196790	0.000123
C28	C	-0.593029	0.303210	0.500123
C29	C	-0.444676	0.172265	0.000137
C30	C	0.055324	0.672265	0.500137
C31	C	-0.548999	0.175063	0.000126
C32	C	-0.048999	0.675063	0.500126
C33	C	-0.632148	0.177303	0.000116
C34	C	-0.132148	0.677303	0.500116
C35	C	-0.736477	0.180101	0.000106
C36	C	-0.236477	0.680101	0.500106
C37	C	-0.987750	-0.379142	-0.000256
C38	C	-0.487750	0.120858	0.499744
C39	C	-0.990535	-0.232553	0.000112
C40	C	-0.490535	0.267447	0.500112
C41	C	-1.142346	-0.258957	0.093543
C42	C	-0.642346	0.241043	0.593543
C43	C	-1.138848	-0.405466	0.093621
C44	C	-0.638848	0.094534	0.593621
C45	C	-1.140949	-0.405994	-0.092403
C46	C	-0.640949	0.094006	0.407597
C47	C	-1.141893	-0.259022	-0.093638
C48	C	-0.641893	0.240978	0.406362
C49	C	-0.259123	0.167308	0.000144
C50	C	0.240877	0.667308	0.500144
C51	C	-0.361519	0.170044	0.000143
C52	C	0.138481	0.670044	0.500143
C53	C	-1.085368	0.408255	0.000127
C54	C	-0.585368	0.908255	0.500127
C55	C	-1.088115	0.549175	0.000126
C56	C	-0.588115	1.049175	0.500126
N57	N	-1.090557	0.176175	0.254984
N58	N	-0.590557	0.676175	0.754984
N59	N	-1.090595	0.176199	-0.254727
N60	N	-0.590595	0.676199	0.245273
C61	C	-1.090580	0.176200	0.656275
C62	C	-0.590580	0.676200	1.156275
C63	C	-1.090571	0.176198	0.544624
C64	C	-0.590571	0.676198	1.044624
C65	C	-1.090569	0.176189	0.455634
C66	C	-0.590569	0.676189	0.955634
C67	C	-1.090559	0.176184	0.343975
C68	C	-0.590559	0.676184	0.843975
H69	H	-0.951729	-0.189549	-0.066855
H70	H	-0.451729	0.310451	0.433145
H71	H	-1.212560	-0.454188	0.097868
H72	H	-0.712560	0.045812	0.597868
C73	C	-0.933052	-0.417229	-0.090755
C74	C	-0.433052	0.082771	0.409245
N75	N	-0.891852	-0.445928	-0.158919
N76	N	-0.391852	0.054072	0.341081
C77	C	-0.933277	-0.419360	0.089749
C78	C	-0.433277	0.080640	0.589749
N79	N	-0.892254	-0.449642	0.157550
N80	N	-0.392254	0.050358	0.657550
C81	C	-1.240959	-0.470822	-0.093244
C82	C	-0.740959	0.029178	0.406756
N83	N	-1.316283	-0.519659	-0.093872
N84	N	-0.816283	-0.019659	0.406128
H85	H	-1.216619	-0.235563	-0.099270
H86	H	-0.716619	0.264437	0.400730
H87	H	-0.951446	-0.190402	0.067182
H88	H	-0.451446	0.309598	0.567182
C89	C	-1.093191	-0.203248	-0.187005
C90	C	-0.593191	0.296752	0.312995
N91	N	-1.056500	-0.161242	-0.257328
N92	N	-0.556500	0.338758	0.242672
H93	H	-1.102389	-0.433298	0.163446
H94	H	-0.602389	0.066702	0.663446
H95	H	-1.107782	-0.437204	-0.163208
H96	H	-0.607782	0.062796	0.336792
C97	C	-1.244025	-0.229772	0.098264
C98	C	-0.744025	0.270228	0.598264
N99	N	-1.320608	-0.207778	0.101821
N100	N	-0.820608	0.292222	0.601821
H101	H	-1.108076	-0.216013	0.163055
H102	H	-0.608076	0.283987	0.663055
