data_functionalizedCrystal
_audit_creation_method	'MofGen! by Chris Wilmer'
_symmetry_space_group_name_H-M	'P1'
_symmetry_Int_Tables_number	1
_symmetry_cell_setting	triclinic
loop_
_symmetry_equiv_pos_as_xyz
  x,y,z
_cell_length_a	19.288840
_cell_length_b	11.792254
_cell_length_c	17.766277
_cell_angle_alpha	89.993496
_cell_angle_beta	89.983415
_cell_angle_gamma	83.662307
loop_
_atom_site_label
_atom_site_type_symbol
_atom_site_fract_x
_atom_site_fract_y
_atom_site_fract_z
O1	O	0.922172	0.141446	-0.062720
O2	O	0.720018	0.160575	-0.062694
O3	O	0.825996	-0.014234	-0.062703
O4	O	0.816194	0.316255	-0.062712
O5	O	0.825977	-0.014243	0.062486
O6	O	0.719999	0.160566	0.062494
O7	O	0.922153	0.141437	0.062468
Cu8	Cu	0.821074	0.151001	0.073912
Cu9	Cu	0.821096	0.151011	-0.074138
O10	O	0.816175	0.316246	0.062476
C11	C	0.694128	0.159960	-0.000097
C12	C	0.617013	0.158126	-0.000087
C13	C	0.825369	-0.056520	-0.000109
C14	C	0.823521	-0.182505	-0.000109
C15	C	0.580815	0.157250	-0.068329
C16	C	0.508358	0.155515	-0.068338
C17	C	0.472104	0.154633	-0.000101
C18	C	0.508311	0.155515	0.068150
C19	C	0.580765	0.157262	0.068157
C20	C	0.362373	0.085385	0.052169
C21	C	0.289920	0.083631	0.052159
C22	C	0.248630	0.149250	-0.000121
C23	C	0.279801	0.216608	-0.052403
C24	C	0.352256	0.218355	-0.052396
C25	C	0.393539	0.152739	-0.000101
C26	C	0.133865	0.146494	-0.068377
C27	C	0.061407	0.144766	-0.068384
C28	C	0.061361	0.144755	0.068106
C29	C	0.133818	0.146495	0.068111
C30	C	0.170066	0.147359	-0.000133
C31	C	0.822019	-0.284818	-0.000112
C32	C	0.820141	-0.413176	-0.000118
C33	C	0.948042	0.142052	-0.000131
C34	C	1.025157	0.143886	-0.000146
C35	C	0.816802	0.358532	-0.000119
C36	C	0.818650	0.484517	-0.000124
N37	N	0.821064	0.150993	0.178042
N38	N	0.821112	0.151010	-0.178268
C39	C	0.868006	0.073625	0.217425
C40	C	0.868010	0.073620	0.296227
C41	C	0.821078	0.151002	0.335643
C42	C	0.774127	0.228375	0.296250
C43	C	0.774120	0.228371	0.217450
C44	C	0.812370	0.254413	0.460479
C45	C	0.812382	0.254419	0.539277
C46	C	0.821097	0.151015	0.578689
C47	C	0.829814	0.047601	0.539292
C48	C	0.829807	0.047596	0.460492
C49	C	0.821081	0.151015	0.421088
C50	C	0.868046	0.073636	0.703518
C51	C	0.868046	0.073629	0.782321
C52	C	0.774166	0.228394	0.782343
C53	C	0.774163	0.228391	0.703541
C54	C	0.821107	0.151013	0.664133
H55	H	0.478879	0.154803	-0.123911
H56	H	0.377633	0.273203	-0.094964
H57	H	0.735892	0.291374	0.185383
H58	H	0.246183	0.270046	-0.094972
H59	H	0.163379	0.147210	-0.123946
H60	H	0.031935	0.144060	-0.123957
H61	H	0.906270	0.010621	0.814388
C62	C	0.919053	-0.010441	0.338862
C63	C	0.960170	-0.078192	0.287485
C64	C	1.007202	-0.155633	0.326730
H65	H	0.893972	-0.057683	0.369619
H66	H	0.948158	0.030236	0.369571
H67	H	0.931069	-0.118866	0.256789
H68	H	0.985266	-0.030980	0.256726
H69	H	1.036307	-0.114956	0.357439
H70	H	0.982114	-0.202868	0.357485
H71	H	1.035109	-0.201604	0.291876
H72	H	0.805261	0.338622	0.428396
C73	C	0.723282	0.312588	0.660819
C74	C	0.734982	0.424067	0.679958
C75	C	0.688126	0.501661	0.640612
H76	H	0.676853	0.300618	0.673722
H77	H	0.730002	0.301583	0.608236
H78	H	0.728257	0.435067	0.732529
H79	H	0.781402	0.436073	0.667054
H80	H	0.694846	0.490657	0.588029
H81	H	0.641700	0.489681	0.653517
H82	H	0.696062	0.577308	0.653587
C83	C	0.802874	0.366810	0.581911
C84	C	0.795212	0.457364	0.530533
C85	C	0.786443	0.560917	0.569777
H86	H	0.842562	0.373107	0.612634
H87	H	0.762424	0.369337	0.612654
H88	H	0.835658	0.454839	0.499803
H89	H	0.755524	0.451105	0.499808
H90	H	0.745992	0.563444	0.600520
H91	H	0.826132	0.567202	0.600499
H92	H	0.781237	0.622370	0.534923
H93	H	0.735913	0.291379	0.328346
H94	H	0.478788	0.154800	0.123709
H95	H	0.031844	0.144044	0.123666
H96	H	0.264547	0.028778	0.094727
H97	H	0.610237	0.157976	0.123730
C98	C	0.620039	0.158251	-0.142499
C99	C	0.572821	0.157141	-0.202265
C100	C	0.608929	0.158078	-0.270601
H101	H	0.653359	0.092781	-0.145437
H102	H	0.643233	0.225129	-0.145379
H103	H	0.549638	0.090270	-0.199387
H104	H	0.539499	0.222606	-0.199352
H105	H	0.632123	0.224956	-0.273481
H106	H	0.642248	0.092607	-0.273532
H107	H	0.576897	0.157336	-0.311160
H108	H	0.163291	0.147200	0.123681
C109	C	0.839118	-0.064723	0.417768
C110	C	0.785243	-0.129774	0.436962
C111	C	0.793786	-0.233248	0.397616
H112	H	0.882733	-0.105531	0.430634
H113	H	0.837830	-0.049977	0.365185
H114	H	0.786538	-0.144524	0.489533
H115	H	0.741621	-0.089002	0.424093
H116	H	0.792498	-0.218501	0.345033
H117	H	0.837403	-0.274044	0.410485
H118	H	0.757231	-0.277393	0.410628
H119	H	0.395987	0.031947	0.094746
H120	H	0.906229	0.010617	0.185342
C121	C	0.839133	-0.064654	0.582105
C122	C	0.780520	-0.073418	0.627351
C123	C	0.789079	-0.176816	0.666793
H124	H	0.879531	-0.067240	0.612891
H125	H	0.844289	-0.126268	0.547375
H126	H	0.775372	-0.011821	0.662077
H127	H	0.740114	-0.070852	0.596583
H128	H	0.794234	-0.238430	0.632064
H129	H	0.829478	-0.179393	0.697576
H130	H	0.749309	-0.182781	0.697492
C131	C	0.918925	-0.010524	0.660737
C132	C	0.907256	-0.122029	0.679867
C133	C	0.954105	-0.199569	0.640454
H134	H	0.965357	0.001458	0.673590
H135	H	0.912180	0.000524	0.608164
H136	H	0.914007	-0.133072	0.732429
H137	H	0.860833	-0.134047	0.667012
H138	H	0.947360	-0.188521	0.587881
H139	H	1.000534	-0.187576	0.653310
H140	H	0.946190	-0.275233	0.653423
H141	H	0.735950	0.291395	0.814434
