data_functionalizedCrystal
_audit_creation_method	'MofGen! by Chris Wilmer'
_symmetry_space_group_name_H-M	'P1'
_symmetry_Int_Tables_number	1
_symmetry_cell_setting	triclinic
loop_
_symmetry_equiv_pos_as_xyz
  x,y,z
_cell_length_a	6.817900
_cell_length_b	10.773890
_cell_length_c	10.943624
_cell_angle_alpha	95.382956
_cell_angle_beta	108.838799
_cell_angle_gamma	96.645716
loop_
_atom_site_label
_atom_site_type_symbol
_atom_site_fract_x
_atom_site_fract_y
_atom_site_fract_z
V1	V	-4.053411	-0.172562	-0.400448
O2	O	-4.076200	0.008326	-0.394990
O3	O	-3.970332	-0.342194	-0.395628
O4	O	-4.032334	-0.169893	-0.576047
O5	O	-4.013768	-0.165168	-0.213321
V6	V	-4.537992	-0.150927	-0.378319
O7	O	-4.312348	-0.220019	-0.448990
O8	O	-4.729252	-0.103470	-0.329777
O9	O	-4.397865	0.018704	-0.383140
O10	O	-4.632601	-0.331815	-0.383778
O11	O	-4.695032	-0.158322	-0.565446
O12	O	-4.335863	-0.153597	-0.202720
C13	C	-3.806012	-0.383547	-0.388774
C14	C	-3.819554	-0.522223	-0.386003
C15	C	-3.998378	-0.590085	-0.390818
C16	C	-4.012378	-0.733414	-0.387954
C17	C	-3.885101	-0.163758	-0.618915
C18	C	-3.948922	-0.162698	-0.762454
C19	C	-3.796320	-0.155561	-0.839689
C20	C	-3.947564	-0.261501	-0.944388
C21	C	-3.911419	-0.054882	-0.913519
C22	C	-4.099341	-0.268737	-0.865275
C23	C	-4.063150	-0.062025	-0.834384
C24	C	-4.214519	-0.167995	-0.939053
C25	C	-4.225525	0.060051	-0.389990
C26	C	-4.191223	0.198726	-0.392769
C27	C	-4.146436	-0.159735	-0.159846
C28	C	-4.061855	-0.160789	-0.016305
H29	H	-4.333973	-0.753271	-0.399017
N30	N	-3.823282	-0.796991	-0.379673
H31	H	-3.702019	-0.732012	-0.376852
H32	H	-3.857947	-0.862895	-0.458581
H33	H	-4.141114	-0.542075	-0.397066
N34	N	-3.561394	-0.148788	-0.782196
H35	H	-3.500389	-0.070315	-0.716143
H36	H	-3.498550	-0.145837	-0.853950
N37	N	-3.883737	-0.373211	-1.007870
H38	H	-3.726349	-0.368459	-0.971537
H39	H	-3.929005	-0.372052	-1.105152
H40	H	-4.178171	-0.359218	-0.843628
H41	H	-3.676824	-0.570235	-0.379769
H42	H	-4.391933	-0.173277	-0.982233
H43	H	-4.111269	0.022310	-0.786428
N44	N	-3.807007	0.064840	-0.942429
H45	H	-3.649649	0.069421	-0.906116
H46	H	-3.849283	0.140169	-0.900689
