data_functionalizedCrystal
_audit_creation_method	'MofGen! by Chris Wilmer'
_symmetry_space_group_name_H-M	'P1'
_symmetry_Int_Tables_number	1
_symmetry_cell_setting	triclinic
loop_
_symmetry_equiv_pos_as_xyz
  x,y,z
_cell_length_a	10.489741
_cell_length_b	14.519709
_cell_length_c	12.996460
_cell_angle_alpha	89.992910
_cell_angle_beta	89.997126
_cell_angle_gamma	84.109659
loop_
_atom_site_label
_atom_site_type_symbol
_atom_site_fract_x
_atom_site_fract_y
_atom_site_fract_z
O1	O	-1.692699	-0.130116	0.085506
O2	O	-1.442699	0.119884	0.335506
O3	O	-1.192699	0.369884	0.585506
O4	O	-0.942699	0.619884	0.835506
O5	O	-1.321376	-0.142329	0.085522
O6	O	-1.071376	0.107671	0.335522
O7	O	-0.821376	0.357671	0.585522
O8	O	-0.571376	0.607671	0.835522
O9	O	-1.516883	-0.002038	0.085504
O10	O	-1.266883	0.247962	0.335504
O11	O	-1.016883	0.497962	0.585504
O12	O	-0.766883	0.747962	0.835504
O13	O	-1.497193	-0.270408	0.085524
O14	O	-1.247193	-0.020408	0.335524
O15	O	-0.997193	0.229592	0.585524
O16	O	-0.747193	0.479592	0.835524
O17	O	-1.516862	-0.002030	-0.085630
O18	O	-1.266862	0.247970	0.164370
O19	O	-1.016862	0.497970	0.414370
O20	O	-0.766862	0.747970	0.664370
O21	O	-1.321356	-0.142322	-0.085612
O22	O	-1.071356	0.107678	0.164388
O23	O	-0.821356	0.357678	0.414388
O24	O	-0.571356	0.607678	0.664388
O25	O	-1.692679	-0.130108	-0.085628
O26	O	-1.442679	0.119892	0.164372
O27	O	-1.192679	0.369892	0.414372
O28	O	-0.942679	0.619892	0.664372
Cu29	Cu	-1.507015	-0.136214	-0.101246
Cu30	Cu	-1.257015	0.113786	0.148754
Cu31	Cu	-1.007015	0.363786	0.398754
Cu32	Cu	-0.757015	0.613786	0.648754
Cu33	Cu	-1.507040	-0.136224	0.101140
Cu34	Cu	-1.257040	0.113776	0.351140
Cu35	Cu	-1.007040	0.363776	0.601140
Cu36	Cu	-0.757040	0.613776	0.851140
O37	O	-1.497172	-0.270400	-0.085610
O38	O	-1.247172	-0.020400	0.164390
O39	O	-0.997172	0.229600	0.414390
O40	O	-0.747172	0.479600	0.664390
C41	C	-1.273844	-0.141403	-0.000043
C42	C	-1.023844	0.108597	0.249957
C43	C	-0.773844	0.358597	0.499957
C44	C	-0.523844	0.608597	0.749957
C45	C	-1.132243	-0.138643	-0.000037
C46	C	-0.882243	0.111357	0.249963
C47	C	-0.632243	0.361357	0.499963
C48	C	-0.382243	0.611357	0.749963
C49	C	-1.515955	0.032331	-0.000063
C50	C	-1.265955	0.282331	0.249937
C51	C	-1.015955	0.532331	0.499937
C52	C	-0.765955	0.782331	0.749937
C53	C	-1.513205	0.134727	-0.000063
C54	C	-1.263205	0.384727	0.249937
C55	C	-1.013205	0.634727	0.499937
C56	C	-0.763205	0.884727	0.749937
C57	C	-1.740211	-0.131035	-0.000061
C58	C	-1.490211	0.118965	0.249939
C59	C	-1.240211	0.368965	0.499939
C60	C	-0.990211	0.618965	0.749939
C61	C	-1.881812	-0.133794	-0.000060
C62	C	-1.631812	0.116206	0.249940
C63	C	-1.381812	0.366206	0.499940
C64	C	-1.131812	0.616206	0.749940
C65	C	-1.065034	-0.049380	-0.000053
C66	C	-0.815034	0.200620	0.249947
C67	C	-0.565034	0.450620	0.499947
C68	C	-0.315034	0.700620	0.749947
C69	C	-0.972477	-0.091551	0.084326
C70	C	-0.722477	0.158449	0.334326
C71	C	-0.472477	0.408449	0.584326
C72	C	-0.222477	0.658449	0.834326
C73	C	-0.972491	-0.091564	-0.084399
C74	C	-0.722491	0.158436	0.165601
C75	C	-0.472491	0.408436	0.415601
C76	C	-0.222491	0.658436	0.665601
C77	C	-1.041552	-0.180851	0.084411
C78	C	-0.791552	0.069149	0.334411
C79	C	-0.541552	0.319149	0.584411
C80	C	-0.291552	0.569149	0.834411
C81	C	-1.041575	-0.180852	-0.084389
C82	C	-0.791575	0.069148	0.165611
C83	C	-0.541575	0.319148	0.415611
C84	C	-0.291575	0.569148	0.665611
C85	C	-0.949046	-0.223088	0.000010
C86	C	-0.699046	0.026912	0.250010
C87	C	-0.449046	0.276912	0.500010
C88	C	-0.199046	0.526912	0.750010
C89	C	-1.498100	-0.304768	-0.000041
C90	C	-1.248100	-0.054768	0.249959
C91	C	-0.998100	0.195232	0.499959
C92	C	-0.748100	0.445232	0.749959
C93	C	-1.500850	-0.407165	-0.000034
C94	C	-1.250850	-0.157165	0.249966
C95	C	-1.000850	0.092835	0.499966
C96	C	-0.750850	0.342835	0.749966
N97	N	-1.507008	-0.136207	-0.243593
N98	N	-1.257008	0.113793	0.006407
N99	N	-1.007008	0.363793	0.256407
N100	N	-0.757008	0.613793	0.506407
C101	C	-1.503082	0.509678	-0.000036
C102	C	-1.253082	0.759678	0.249964
C103	C	-1.003082	1.009678	0.499964
C104	C	-0.753082	1.259678	0.749964
C105	C	-1.505893	0.405355	-0.000044
C106	C	-1.255893	0.655355	0.249956
C107	C	-1.005893	0.905355	0.499956
C108	C	-0.755893	1.155355	0.749956
C109	C	-1.508143	0.322206	-0.000051
C110	C	-1.258143	0.572206	0.249949
C111	C	-1.008143	0.822206	0.499949
C112	C	-0.758143	1.072206	0.749949
C113	C	-1.510955	0.217876	-0.000057
C114	C	-1.260955	0.467876	0.249943
C115	C	-1.010955	0.717876	0.499943
C116	C	-0.760955	0.967876	0.749943
C117	C	-1.507038	-0.136224	-0.663407
C118	C	-1.257038	0.113776	-0.413407
C119	C	-1.007038	0.363776	-0.163407
C120	C	-0.757038	0.613776	0.086593
C121	C	-1.507026	-0.136223	-0.546602
C122	C	-1.257026	0.113777	-0.296602
C123	C	-1.007026	0.363777	-0.046602
C124	C	-0.757026	0.613777	0.203398
C125	C	-1.507023	-0.136216	-0.453504
C126	C	-1.257023	0.113784	-0.203504
C127	C	-1.007023	0.363784	0.046496
C128	C	-0.757023	0.613784	0.296496
C129	C	-1.507010	-0.136213	-0.336691
C130	C	-1.257010	0.113787	-0.086691
C131	C	-1.007010	0.363787	0.163309
C132	C	-0.757010	0.613787	0.413309
N133	N	-1.507057	-0.136223	0.243487
N134	N	-1.257057	0.113777	0.493487
N135	N	-1.007057	0.363777	0.743487
N136	N	-0.757057	0.613777	0.993487
H137	H	-1.115488	0.024000	0.000047
H138	H	-0.865488	0.274000	0.250047
H139	H	-0.615488	0.524000	0.500047
H140	H	-0.365488	0.774000	0.750047
H141	H	-0.941898	-0.053776	-0.155735
H142	H	-0.691898	0.196224	0.094265
H143	H	-0.441898	0.446224	0.344265
H144	H	-0.191898	0.696224	0.594265
H145	H	-0.898856	-0.296546	0.000062
H146	H	-0.648856	-0.046546	0.250062
H147	H	-0.398856	0.203454	0.500062
H148	H	-0.148856	0.453454	0.750062
N149	N	-1.081879	-0.230833	0.179017
N150	N	-0.831879	0.019167	0.429017
N151	N	-0.581879	0.269167	0.679017
N152	N	-0.331879	0.519167	0.929017
H153	H	-1.056164	-0.197369	0.242664
H154	H	-0.806164	0.052631	0.492664
H155	H	-0.556164	0.302631	0.742664
H156	H	-0.306164	0.552631	0.992664
H157	H	-1.038560	-0.296247	0.179224
H158	H	-0.788560	-0.046247	0.429224
H159	H	-0.538560	0.203753	0.679224
H160	H	-0.288560	0.453753	0.929224
N161	N	-0.931921	-0.041535	0.178815
N162	N	-0.681921	0.208465	0.428815
N163	N	-0.431921	0.458465	0.678815
N164	N	-0.181921	0.708465	0.928815
H165	H	-0.974537	0.024081	0.178751
H166	H	-0.724537	0.274081	0.428751
H167	H	-0.474537	0.524081	0.678751
H168	H	-0.224537	0.774081	0.928751
H169	H	-0.835777	-0.040636	0.178394
H170	H	-0.585777	0.209364	0.428394
H171	H	-0.335777	0.459364	0.678394
H172	H	-0.085777	0.709364	0.928394
N173	N	-1.082129	-0.230863	-0.178876
N174	N	-0.832129	0.019137	0.071124
N175	N	-0.582129	0.269137	0.321124
N176	N	-0.332129	0.519137	0.571124
H177	H	-1.057280	-0.197092	-0.242586
H178	H	-0.807280	0.052908	0.007414
H179	H	-0.557280	0.302908	0.257414
H180	H	-0.307280	0.552908	0.507414
H181	H	-1.178070	-0.232894	-0.177739
H182	H	-0.928070	0.017106	0.072261
H183	H	-0.678070	0.267106	0.322261
H184	H	-0.428070	0.517106	0.572261
