data_functionalizedCrystal
_audit_creation_method	'MofGen! by Chris Wilmer'
_symmetry_space_group_name_H-M	'P1'
_symmetry_Int_Tables_number	1
_symmetry_cell_setting	triclinic
loop_
_symmetry_equiv_pos_as_xyz
  x,y,z
_cell_length_a	12.811457
_cell_length_b	11.295501
_cell_length_c	12.837942
_cell_angle_alpha	85.830212
_cell_angle_beta	90.588063
_cell_angle_gamma	89.163056
loop_
_atom_site_label
_atom_site_type_symbol
_atom_site_fract_x
_atom_site_fract_y
_atom_site_fract_z
O1	O	1.402953	-0.052485	-0.136357
O2	O	1.101174	-0.019892	-0.153608
O3	O	1.245371	-0.035473	0.005904
O4	O	1.258756	-0.036904	-0.295869
O5	O	1.231596	-0.232036	0.018331
O6	O	1.087398	-0.216456	-0.141181
O7	O	1.389178	-0.249048	-0.123930
Cu8	Cu	1.237030	-0.250700	-0.131421
Cu9	Cu	1.253321	-0.018240	-0.146117
O10	O	1.244980	-0.233467	-0.283442
C11	C	1.055391	-0.113973	-0.146809
C12	C	0.939496	-0.101457	-0.145052
N13	N	1.225579	-0.414200	-0.121083
C14	C	1.347203	-0.676620	-0.230909
C15	C	1.338557	-0.800350	-0.223089
C16	C	1.199646	-0.785393	-0.097617
C17	C	1.208293	-0.661663	-0.105437
C18	C	1.282072	-0.607281	-0.172087
C19	C	1.290713	-0.483548	-0.179912
C20	C	1.151808	-0.468594	-0.054435
C21	C	1.143162	-0.592324	-0.046615
C22	C	0.706696	-0.292254	-0.128182
C23	C	0.597802	-0.280499	-0.126530
C24	C	0.612812	-0.066194	-0.140090
C25	C	0.721706	-0.077949	-0.141742
C26	C	0.768644	-0.190982	-0.135789
C27	C	0.877540	-0.202736	-0.137448
C28	C	0.892548	0.011569	-0.151000
C29	C	0.783654	0.023323	-0.149349
C30	C	1.434960	-0.154964	-0.130729
C31	C	1.550856	-0.167473	-0.132486
C32	C	1.233963	-0.133266	0.050727
C33	C	1.220479	-0.131807	0.165771
N34	N	1.264780	0.145259	-0.156446
C35	C	1.256389	-0.135672	-0.328265
C36	C	1.269874	-0.137122	-0.443309
C37	C	1.382583	-0.149290	0.407131
C38	C	1.369918	-0.147920	0.515225
C39	C	1.182487	-0.127690	0.490055
C40	C	1.195152	-0.129060	0.381961
C41	C	1.295202	-0.139862	0.340503
C42	C	1.307865	-0.141240	0.232407
C43	C	1.120436	-0.121001	0.207239
C44	C	1.107771	-0.119631	0.315333
H45	H	1.350784	-0.439272	-0.234186
C46	C	1.410195	-0.876618	-0.287810
N47	N	1.464154	-0.934063	-0.336565
H48	H	1.441073	-0.155594	0.569470
C49	C	1.072439	-0.115820	0.535679
N50	N	0.989549	-0.106887	0.570045
H51	H	0.547368	-0.362965	-0.120342
H52	H	1.139588	-0.829694	-0.043342
H53	H	1.098769	-0.412123	-0.006543
C54	C	0.997720	-0.107763	0.360950
N55	N	0.914826	-0.098833	0.395309
C56	C	0.561161	0.058133	-0.146624
N57	N	0.522257	0.151777	-0.151544
H58	H	1.049284	-0.113333	0.152978
C59	C	1.062004	-0.652158	0.026691
N60	N	1.000870	-0.697223	0.081903
H61	H	0.745422	0.115352	-0.154190
C62	C	0.960700	0.122975	-0.159369
N63	N	1.012033	0.206884	-0.165675
C64	C	1.417922	-0.153119	0.186805
N65	N	1.500821	-0.162061	0.152461
H66	H	1.464047	-0.158097	0.373376
C67	C	0.758330	-0.416590	-0.121640
N68	N	0.797219	-0.510243	-0.116711
C69	C	0.929170	-0.327074	-0.130895
N70	N	0.968055	-0.420729	-0.125955
C71	C	1.428356	-0.616797	-0.304228
N72	N	1.489483	-0.571740	-0.359453
