data_functionalizedCrystal
_audit_creation_method	'MofGen! by Chris Wilmer'
_symmetry_space_group_name_H-M	'P1'
_symmetry_Int_Tables_number	1
_symmetry_cell_setting	triclinic
loop_
_symmetry_equiv_pos_as_xyz
  x,y,z
_cell_length_a	10.967829
_cell_length_b	10.065875
_cell_length_c	10.908890
_cell_angle_alpha	83.386829
_cell_angle_beta	107.316847
_cell_angle_gamma	93.121474
loop_
_atom_site_label
_atom_site_type_symbol
_atom_site_fract_x
_atom_site_fract_y
_atom_site_fract_z
O1	O	1.568549	0.255478	-0.221813
O2	O	1.217775	0.172970	-0.225444
O3	O	1.439666	0.225145	-0.038922
O4	O	1.346658	0.203304	-0.408335
O5	O	1.397324	0.442178	-0.074639
O6	O	1.175434	0.390003	-0.261161
O7	O	1.526207	0.472511	-0.257530
Zn8	Zn	1.344098	0.465716	-0.265016
Zn9	Zn	1.399884	0.179766	-0.217958
O10	O	1.304317	0.420336	-0.444052
C11	C	1.152403	0.271089	-0.240339
C12	C	1.020700	0.240109	-0.231495
C13	C	1.427188	0.335699	-0.009354
C14	C	1.453076	0.341766	0.131962
C15	C	1.591580	0.374389	-0.242634
C16	C	1.723284	0.405361	-0.251478
N17	N	1.306034	0.660871	-0.297132
C18	C	1.803931	0.306738	-0.236917
C19	C	1.940054	0.338746	-0.246057
N20	N	1.437960	-0.015387	-0.185833
C21	C	1.386635	0.747602	-0.229123
C22	C	1.357347	0.897883	-0.253851
C23	C	1.358637	0.319543	0.185498
C24	C	1.385391	0.325813	0.331555
C25	C	1.316802	0.309750	0.526386
C26	C	1.290938	0.303587	0.385086
H27	H	1.772201	0.198608	-0.217678
H28	H	1.215342	0.697872	-0.373658
C29	C	2.078489	0.009055	-0.193807
C30	C	1.977890	0.094122	-0.205525
H31	H	2.052059	-0.081067	-0.177766
H32	H	2.101906	0.019641	-0.271536
H33	H	2.149722	0.030889	-0.124155
H34	H	1.906659	0.072295	-0.275184
H35	H	1.954456	0.083529	-0.127787
C36	C	1.235690	0.913560	-0.477751
C37	C	1.234907	0.947808	-0.357172
H38	H	1.160098	0.944377	-0.541532
H39	H	1.308167	0.953954	-0.498829
H40	H	1.239316	0.819118	-0.474672
H41	H	1.231292	1.042251	-0.360248
H42	H	1.162411	0.907419	-0.336089
H43	H	1.477320	0.710601	-0.152587
H44	H	1.486056	0.349488	0.393846
C45	C	1.154837	0.271592	0.172594
C46	C	1.155040	0.271624	0.301009
H47	H	1.070941	0.251850	0.120693
H48	H	1.181933	0.357124	0.142544
H49	H	1.211485	0.205760	0.167456
H50	H	1.098398	0.337463	0.306148
H51	H	1.127927	0.186080	0.331067
C52	C	1.892668	0.554791	-0.281472
C53	C	1.766107	0.551339	-0.277442
H54	H	1.919097	0.644915	-0.297509
H55	H	1.946270	0.516530	-0.201138
H56	H	1.898461	0.505286	-0.348520
H57	H	1.760315	0.600837	-0.210387
H58	H	1.712491	0.589619	-0.357786
C59	C	1.565418	0.795407	-0.077590
C60	C	1.560191	0.934637	-0.082220
H61	H	1.640819	0.764544	-0.013544
H62	H	1.492741	0.755155	-0.056812
H63	H	1.566259	0.772104	-0.159273
H64	H	1.559339	0.957940	-0.000539
H65	H	1.632886	0.974904	-0.102991
C66	C	1.589170	0.373734	0.344463
C67	C	1.588969	0.373711	0.216049
H68	H	1.673070	0.393447	0.396372
H69	H	1.532542	0.439566	0.349610
H70	H	1.562052	0.288192	0.374504
H71	H	1.616078	0.459256	0.186005
H72	H	1.645616	0.307875	0.210897
H73	H	1.971782	0.446885	-0.265284
H74	H	1.257976	0.295882	0.123200
