data_functionalizedCrystal
_audit_creation_method	'MofGen! by Chris Wilmer'
_symmetry_space_group_name_H-M	'P1'
_symmetry_Int_Tables_number	1
_symmetry_cell_setting	triclinic
loop_
_symmetry_equiv_pos_as_xyz
  x,y,z
_cell_length_a	18.050591
_cell_length_b	13.897449
_cell_length_c	13.897441
_cell_angle_alpha	89.978378
_cell_angle_beta	90.018081
_cell_angle_gamma	89.997485
loop_
_atom_site_label
_atom_site_type_symbol
_atom_site_fract_x
_atom_site_fract_y
_atom_site_fract_z
Zn1	Zn	-1.135476	-0.383987	-0.545373
Zn2	Zn	-0.802142	-0.050653	-0.212040
Zn3	Zn	-0.468809	0.282680	0.121294
Zn4	Zn	-1.135427	-0.545308	-0.384100
Zn5	Zn	-0.802093	-0.211975	-0.050766
Zn6	Zn	-0.468760	0.121358	0.282567
Zn7	Zn	-1.011280	-0.384029	-0.384099
Zn8	Zn	-0.677947	-0.050695	-0.050766
Zn9	Zn	-0.344613	0.282638	0.282568
Zn10	Zn	-1.011298	-0.545241	-0.545360
Zn11	Zn	-0.677965	-0.211908	-0.212027
Zn12	Zn	-0.344632	0.121425	0.121307
O13	O	-1.073370	-0.464641	-0.464733
O14	O	-0.740037	-0.131308	-0.131400
O15	O	-0.406704	0.202025	0.201934
O16	O	-1.239394	-0.405397	-0.523986
O17	O	-0.906061	-0.072064	-0.190652
O18	O	-0.572727	0.261270	0.142681
O19	O	-1.118930	-0.523960	-0.249118
O20	O	-0.785597	-0.190627	0.084215
O21	O	-0.452264	0.142707	0.417549
O22	O	-1.027767	-0.249042	-0.405498
O23	O	-0.694434	0.084292	-0.072164
O24	O	-0.361101	0.417625	0.261169
O25	O	-1.239358	-0.523919	-0.405499
O26	O	-0.906025	-0.190586	-0.072166
O27	O	-0.572691	0.142747	0.261168
O28	O	-1.119014	-0.249011	-0.523985
O29	O	-0.785680	0.084323	-0.190652
O30	O	-0.452347	0.417656	0.142682
O31	O	-1.027720	-0.405469	-0.249117
O32	O	-0.694387	-0.072135	0.084216
O33	O	-0.361053	0.261198	0.417549
O34	O	-0.907358	-0.405403	-0.405485
O35	O	-0.574024	-0.072070	-0.072151
O36	O	-0.240691	0.261263	0.261182
O37	O	-1.027799	-0.523805	-0.680343
O38	O	-0.694466	-0.190471	-0.347010
O39	O	-0.361132	0.142862	-0.013677
O40	O	-0.907371	-0.523845	-0.523962
O41	O	-0.574038	-0.190512	-0.190629
O42	O	-0.240705	0.142821	0.142704
O43	O	-1.119032	-0.405332	-0.680353
O44	O	-0.785698	-0.071998	-0.347020
O45	O	-0.452365	0.261335	-0.013686
O46	O	-1.118948	-0.680281	-0.405486
O47	O	-0.785615	-0.346948	-0.072153
O48	O	-0.452282	-0.013614	0.261181
O49	O	-1.027752	-0.680232	-0.523963
O50	O	-0.694418	-0.346898	-0.190630
O51	O	-0.361085	-0.013565	0.142704
C52	C	-0.880418	-0.464622	-0.464723
C53	C	-0.547085	-0.131289	-0.131389
C54	C	-0.213751	0.202044	0.201944
C55	C	-0.797872	-0.464638	-0.464741
C56	C	-0.464539	-0.131304	-0.131408
C57	C	-0.131206	0.202029	0.201926
C58	C	-0.549076	-0.529186	-0.529078
C59	C	-0.215742	-0.195852	-0.195745
C60	C	0.117591	0.137481	0.137588
C61	C	-0.598445	-0.552670	-0.441040
C62	C	-0.265112	-0.219337	-0.107707
C63	C	0.068221	0.113996	0.225627
C64	C	-0.500752	-0.464675	-0.464735
C65	C	-0.167419	-0.131342	-0.131402
C66	C	0.165915	0.201992	0.201931
C67	C	-0.598464	-0.441217	-0.552771
C68	C	-0.265130	-0.107884	-0.219438
C69	C	0.068203	0.225450	0.113895
C70	C	-0.646737	-0.464659	-0.464743
C71	C	-0.313404	-0.131326	-0.131409
C72	C	0.019930	0.202008	0.201924
C73	C	-0.549034	-0.488206	-0.376651
C74	C	-0.215701	-0.154872	-0.043317
C75	C	0.117632	0.178461	0.290016
C76	C	-0.549048	-0.376711	-0.488441
C77	C	-0.215715	-0.043378	-0.155108
C78	C	0.117618	0.289956	0.178225
C79	C	-0.598396	-0.400163	-0.400342
C80	C	-0.265063	-0.066829	-0.067009
C81	C	0.068271	0.266504	0.266324
C82	C	-0.416654	-0.464687	-0.464733
C83	C	-0.083320	-0.131353	-0.131399
C84	C	0.250013	0.201980	0.201934
C85	C	-0.730834	-0.464647	-0.464736
C86	C	-0.397500	-0.131314	-0.131403
C87	C	-0.064167	0.202020	0.201931
C88	C	-1.073367	-0.715256	-0.464744
C89	C	-0.740033	-0.381922	-0.131411
C90	C	-0.406700	-0.048589	0.201922
C91	C	-1.073433	-0.822470	-0.464781
C92	C	-0.740100	-0.489136	-0.131448
C93	C	-0.406767	-0.155803	0.201885
C94	C	-1.073423	-0.464556	-0.716326
C95	C	-0.740090	-0.131223	-0.382993
C96	C	-0.406756	0.202111	-0.049659
C97	C	-1.073445	-0.464520	-0.823540
C98	C	-0.740112	-0.131186	-0.490207
C99	C	-0.406779	0.202147	-0.156873
C100	C	-0.267076	-0.464667	-0.464741
C101	C	0.066258	-0.131334	-0.131407
C102	C	0.399591	0.202000	0.201926
C103	C	-0.349622	-0.464693	-0.464736
C104	C	-0.016288	-0.131360	-0.131403
C105	C	0.317045	0.201973	0.201931
C106	C	-1.073394	-0.213048	-0.464743
C107	C	-0.740061	0.120285	-0.131409
C108	C	-0.406727	0.453618	0.201924
C109	C	-1.073404	-0.105834	-0.464747
C110	C	-0.740071	0.227499	-0.131413
C111	C	-0.406737	0.560832	0.201920
C112	C	-1.073427	0.090461	-0.464777
C113	C	-0.740093	0.423794	-0.131444
C114	C	-0.406760	0.757127	0.201889
C115	C	-1.073416	-0.018772	-0.464763
C116	C	-0.740083	0.314562	-0.131430
C117	C	-0.406749	0.647895	0.201903
C118	C	-1.073465	-0.464454	-1.019835
C119	C	-0.740132	-0.131121	-0.686502
C120	C	-0.406799	0.202212	-0.353169
C121	C	-1.073452	-0.464493	-0.910603
C122	C	-0.740119	-0.131160	-0.577269
C123	C	-0.406785	0.202173	-0.243936
C124	C	-1.073360	-0.464657	-0.214119
C125	C	-0.740027	-0.131323	0.119215
C126	C	-0.406694	0.202010	0.452548
C127	C	-1.073482	-0.464421	-0.106905
C128	C	-0.740149	-0.131088	0.226428
C129	C	-0.406815	0.202245	0.559762
H130	H	-0.527414	-0.508130	-0.302183
H131	H	-0.194080	-0.174796	0.031151
H132	H	0.139253	0.158537	0.364484
N133	N	-0.520381	-0.601513	-0.601051
N134	N	-0.187048	-0.268180	-0.267718
N135	N	0.146285	0.065154	0.065616
H136	H	-0.464432	-0.600575	-0.600972
H137	H	-0.131099	-0.267241	-0.267639
H138	H	0.202234	0.066092	0.065695
H139	H	-0.539185	-0.584444	-0.667348
H140	H	-0.205852	-0.251111	-0.334015
H141	H	0.127482	0.082223	-0.000682
N142	N	-0.626911	-0.327895	-0.328191
N143	N	-0.293578	0.005438	0.005142
N144	N	0.039755	0.338771	0.338476
H145	H	-0.682862	-0.327889	-0.328986
H146	H	-0.349528	0.005444	0.004347
H147	H	-0.016195	0.338777	0.337681
H148	H	-0.608095	-0.261687	-0.345538
H149	H	-0.274761	0.071646	-0.012205
H150	H	0.058572	0.404979	0.321128
N151	N	-0.520306	-0.278195	-0.515016
N152	N	-0.186972	0.055138	-0.181683
N153	N	0.146361	0.388472	0.151651
H154	H	-0.538262	-0.260532	-0.581557
H155	H	-0.204929	0.072801	-0.248223
H156	H	0.128405	0.406135	0.085110
H157	H	-0.464360	-0.278820	-0.514139
H158	H	-0.131027	0.054514	-0.180806
H159	H	0.202307	0.387847	0.152527
H160	H	-0.620142	-0.627053	-0.420985
H161	H	-0.286809	-0.293720	-0.087652
H162	H	0.046524	0.039614	0.245682
H163	H	-0.620176	-0.421383	-0.627219
H164	H	-0.286842	-0.088049	-0.293886
H165	H	0.046491	0.245284	0.039448
