data_functionalizedCrystal
_audit_creation_method	'MofGen! by Chris Wilmer'
_symmetry_space_group_name_H-M	'P1'
_symmetry_Int_Tables_number	1
_symmetry_cell_setting	triclinic
loop_
_symmetry_equiv_pos_as_xyz
  x,y,z
_cell_length_a	8.559649
_cell_length_b	8.597304
_cell_length_c	7.681481
_cell_angle_alpha	76.508647
_cell_angle_beta	94.912730
_cell_angle_gamma	77.624625
loop_
_atom_site_label
_atom_site_type_symbol
_atom_site_fract_x
_atom_site_fract_y
_atom_site_fract_z
O1	O	2.105022	-0.037136	-0.140789
O2	O	1.639815	0.045185	-0.153280
O3	O	1.885142	-0.229573	-0.111592
O4	O	1.859695	0.237622	-0.182477
O5	O	1.915337	-0.263459	0.186408
O6	O	1.670011	0.011299	0.144719
O7	O	2.135217	-0.071022	0.157210
Zn8	Zn	1.907408	-0.035242	0.198279
Zn9	Zn	1.867624	0.009405	-0.194348
O10	O	1.889891	0.203736	0.115522
C11	C	1.595383	0.034480	-0.005227
C12	C	1.418002	0.053050	-0.008046
C13	C	1.899189	-0.305773	0.046395
C14	C	1.896041	-0.482338	0.073173
C15	C	2.179649	-0.060317	0.009154
C16	C	2.357029	-0.078885	0.011960
C17	C	1.875843	0.279937	-0.042469
C18	C	1.878990	0.456503	-0.069259
N19	N	1.934572	-0.065714	0.466236
N20	N	1.840474	0.039863	-0.462304
H21	H	1.440538	-0.206056	0.031255
O22	O	1.307406	0.221499	-0.033598
H23	H	1.218260	0.250223	-0.157322
H24	H	1.866796	-0.460779	-0.211698
O25	O	1.912202	-0.591900	0.261873
H26	H	1.907125	-0.718046	0.254021
H27	H	1.744419	0.147627	0.446148
O28	O	2.061826	-0.208471	0.587493
H29	H	2.058301	-0.204513	0.730530
