data_functionalizedCrystal
_audit_creation_method	'MofGen! by Chris Wilmer'
_symmetry_space_group_name_H-M	'P1'
_symmetry_Int_Tables_number	1
_symmetry_cell_setting	triclinic
loop_
_symmetry_equiv_pos_as_xyz
  x,y,z
_cell_length_a	10.654550
_cell_length_b	10.654551
_cell_length_c	9.730223
_cell_angle_alpha	90.001469
_cell_angle_beta	89.996251
_cell_angle_gamma	84.485132
loop_
_atom_site_label
_atom_site_type_symbol
_atom_site_fract_x
_atom_site_fract_y
_atom_site_fract_z
O1	O	1.667835	0.176393	-0.114394
O2	O	1.302356	0.193199	-0.114371
O3	O	1.493498	0.002057	-0.114383
O4	O	1.476693	0.367535	-0.114381
O5	O	1.493496	0.002062	0.114197
O6	O	1.302354	0.193204	0.114209
O7	O	1.667832	0.176398	0.114186
Zn8	Zn	1.485093	0.184802	0.150490
Zn9	Zn	1.485096	0.184795	-0.150674
O10	O	1.476691	0.367540	0.114199
C11	C	1.255557	0.191968	-0.000078
C12	C	1.116114	0.188276	-0.000069
C13	C	1.036629	0.300817	-0.000089
C14	C	0.905608	0.297341	-0.000113
C15	C	0.933570	0.068771	-0.000104
C16	C	1.064589	0.072249	-0.000070
C17	C	1.088154	0.416844	-0.000088
C18	C	1.008667	0.529395	-0.000109
C19	C	0.877647	0.525918	-0.000133
C20	C	0.826112	0.409891	-0.000136
C21	C	1.492263	-0.044739	-0.000096
C22	C	1.488570	-0.184182	-0.000105
C23	C	1.486839	-0.249696	-0.124702
C24	C	1.483359	-0.380717	-0.124695
C25	C	1.483346	-0.380697	0.124515
C26	C	1.486817	-0.249678	0.124507
C27	C	1.488592	-0.184200	-0.249314
C28	C	1.486862	-0.249715	-0.373921
C29	C	1.483382	-0.380735	-0.373914
C30	C	1.481631	-0.446241	-0.249301
C31	C	1.714632	0.177629	-0.000109
C32	C	1.854075	0.181321	-0.000127
C33	C	1.477926	0.414336	-0.000091
C34	C	1.481619	0.553779	-0.000091
N35	N	1.485100	0.184805	0.356026
N36	N	1.485099	0.184782	-0.356211
C37	C	1.569760	0.100197	0.427947
C38	C	1.569756	0.100181	0.571830
C39	C	1.400430	0.269395	0.571859
C40	C	1.400428	0.269403	0.427979
C41	C	1.654431	0.015599	0.355994
C42	C	1.739099	-0.069016	0.427915
C43	C	1.739095	-0.069031	0.571798
C44	C	1.654425	0.015568	0.643760
H45	H	1.050636	0.623860	-0.000095
H46	H	1.488276	-0.196370	-0.475376
H47	H	1.481922	-0.434042	0.225969
O48	O	0.883305	-0.043822	-0.000180
C49	C	0.750620	-0.022758	-0.000182
H50	H	0.720726	0.074984	-0.043460
H51	H	0.714069	-0.029161	0.109468
C52	C	0.732155	-0.243181	-0.036691
C53	C	0.695439	-0.123136	-0.089856
H54	H	0.698115	-0.305102	-0.092000
H55	H	0.821548	-0.257374	-0.036684
H56	H	0.701694	-0.248499	0.054683
H57	H	0.725914	-0.117815	-0.181222
H58	H	0.606050	-0.108945	-0.089881
O59	O	1.821145	-0.151291	0.357892
C60	C	1.753183	-0.229410	0.274720
H61	H	1.655366	-0.180264	0.253149
H62	H	1.743797	-0.322285	0.330204
C63	C	1.943900	-0.316035	0.164551
C64	C	1.823762	-0.255668	0.138047
H65	H	1.987438	-0.332238	0.080247
H66	H	1.989689	-0.263408	0.220589
H67	H	1.936061	-0.393424	0.210791
H68	H	1.831603	-0.178273	0.091825
H69	H	1.777976	-0.308282	0.081998
O70	O	1.821278	-0.151397	0.641512
C71	C	1.799776	-0.275914	0.606362
H72	H	1.751368	-0.276202	0.501898
H73	H	1.736931	-0.315347	0.687338
C74	C	1.986026	-0.357918	0.727997
C75	C	1.926581	-0.358273	0.599688
H76	H	2.064244	-0.408724	0.723886
H77	H	2.000511	-0.274030	0.751683
H78	H	1.933643	-0.390777	0.795464
H79	H	1.978958	-0.325401	0.532227
H80	H	1.912108	-0.442158	0.575990
H81	H	0.812931	0.617562	-0.000136
O82	O	1.141628	-0.037189	-0.000124
C83	C	1.068059	-0.140343	-0.000113
H84	H	0.970576	-0.109324	-0.043408
H85	H	1.058399	-0.175854	0.109544
C86	C	1.252162	-0.285051	-0.036571
C87	C	1.132434	-0.246956	-0.089758
H88	H	1.291872	-0.350818	-0.091862
H89	H	1.301728	-0.215555	-0.036573
H90	H	1.244095	-0.314635	0.054809
H91	H	1.140503	-0.217358	-0.181129
H92	H	1.082870	-0.316449	-0.089773
O93	O	1.481754	-0.444190	-0.495072
C94	C	1.484010	-0.358277	-0.605051
H95	H	1.526179	-0.269736	-0.568526
H96	H	1.383804	-0.332039	-0.643363
C97	C	1.513083	-0.528222	-0.767634
C98	C	1.564885	-0.419479	-0.722776
H99	H	1.562964	-0.565975	-0.840256
H100	H	1.511558	-0.586104	-0.693541
H101	H	1.429578	-0.506342	-0.799552
H102	H	1.648381	-0.441362	-0.690844
H103	H	1.566425	-0.361602	-0.796868
H104	H	1.491429	-0.077517	-0.249334
H105	H	1.331496	0.338273	0.630460
O106	O	1.488276	-0.185935	0.245495
C107	C	1.381717	-0.096852	0.252909
H108	H	1.304789	-0.127079	0.182208
H109	H	1.408894	-0.000564	0.219404
C110	C	1.427006	-0.051653	0.488607
C111	C	1.332518	-0.088784	0.401780
H112	H	1.396660	-0.046671	0.580438
H113	H	1.498799	-0.111666	0.483612
H114	H	1.449645	0.028584	0.460670
H115	H	1.309892	-0.169025	0.429707
H116	H	1.260719	-0.028784	0.406783
O117	O	1.318150	0.351716	0.358319
C118	C	1.243404	0.426369	0.452675
H119	H	1.294902	0.428267	0.555237
H120	H	1.149759	0.384719	0.467978
C121	C	1.155441	0.559287	0.270562
C122	C	1.218696	0.561626	0.396526
H123	H	1.140194	0.642718	0.235925
H124	H	1.205794	0.508989	0.206991
H125	H	1.077410	0.524573	0.283331
H126	H	1.296732	0.596325	0.383752
H127	H	1.168355	0.611933	0.460094
H128	H	0.719425	0.407069	-0.000134
H129	H	1.194836	0.419687	-0.000075
H130	H	1.478779	-0.552924	-0.249306
H131	H	1.654444	0.015606	0.238837
H132	H	1.654421	0.015540	0.760919
