data_functionalizedCrystal
_audit_creation_method	'MofGen! by Chris Wilmer'
_symmetry_space_group_name_H-M	'P1'
_symmetry_Int_Tables_number	1
_symmetry_cell_setting	triclinic
loop_
_symmetry_equiv_pos_as_xyz
  x,y,z
_cell_length_a	16.625548
_cell_length_b	12.759399
_cell_length_c	12.759401
_cell_angle_alpha	89.991679
_cell_angle_beta	90.008727
_cell_angle_gamma	89.983816
loop_
_atom_site_label
_atom_site_type_symbol
_atom_site_fract_x
_atom_site_fract_y
_atom_site_fract_z
Zn1	Zn	1.232627	0.418420	0.594067
Zn2	Zn	1.565961	0.751753	0.927400
Zn3	Zn	1.899294	1.085086	1.260733
Zn4	Zn	1.232576	0.594066	0.418386
Zn5	Zn	1.565909	0.927399	0.751719
Zn6	Zn	1.899242	1.260733	1.085052
Zn7	Zn	1.097817	0.418405	0.418397
Zn8	Zn	1.431150	0.751738	0.751730
Zn9	Zn	1.764484	1.085072	1.085063
Zn10	Zn	1.097777	0.594060	0.594017
Zn11	Zn	1.431110	0.927394	0.927351
Zn12	Zn	1.764444	1.260727	1.260684
O13	O	1.165199	0.506238	0.506217
O14	O	1.498533	0.839571	0.839550
O15	O	1.831866	1.172904	1.172883
O16	O	1.345453	0.441728	0.570778
O17	O	1.678786	0.775061	0.904112
O18	O	2.012120	1.108395	1.237445
O19	O	1.214695	0.570760	0.271366
O20	O	1.548028	0.904094	0.604699
O21	O	1.881362	1.237427	0.938033
O22	O	1.115738	0.271386	0.441725
O23	O	1.449072	0.604719	0.775058
O24	O	1.782405	0.938053	1.108391
O25	O	1.345415	0.570775	0.441706
O26	O	1.678748	0.904108	0.775040
O27	O	2.012082	1.237441	1.108373
O28	O	1.214783	0.271397	0.570789
O29	O	1.548116	0.604730	0.904122
O30	O	1.881450	0.938063	1.237456
O31	O	1.115688	0.441703	0.271374
O32	O	1.449022	0.775036	0.604707
O33	O	1.782355	1.108370	0.938041
O34	O	0.984979	0.441698	0.441677
O35	O	1.318313	0.775031	0.775010
O36	O	1.651646	1.108364	1.108344
O37	O	1.115670	0.570765	0.741045
O38	O	1.449003	0.904099	1.074378
O39	O	1.782337	1.237432	1.407712
O40	O	0.984950	0.570751	0.570705
O41	O	1.318283	0.904084	0.904038
O42	O	1.651617	1.237418	1.237371
O43	O	1.214744	0.441723	0.741081
O44	O	1.548077	0.775056	1.074415
O45	O	1.881411	1.108389	1.407748
O46	O	1.214656	0.741086	0.441658
O47	O	1.547989	1.074420	0.774992
O48	O	1.881323	1.407753	1.108325
O49	O	1.115620	0.741082	0.570694
O50	O	1.448953	1.074416	0.904028
O51	O	1.782287	1.407749	1.237361
C52	C	0.955708	0.506223	0.506187
C53	C	1.289042	0.839556	0.839521
C54	C	1.622375	1.172889	1.172854
C55	C	0.866087	0.506242	0.506200
C56	C	1.199421	0.839575	0.839533
C57	C	1.532754	1.172908	1.172866
C58	C	1.165150	0.779205	0.506193
C59	C	1.498483	1.112539	0.839526
C60	C	1.831817	1.445872	1.172859
C61	C	1.165202	0.895982	0.506218
C62	C	1.498536	1.229315	0.839551
C63	C	1.831869	1.562648	1.172884
C64	C	1.165208	0.506245	0.780250
C65	C	1.498542	0.839578	1.113583
C66	C	1.831875	1.172912	1.446916
C67	C	1.165212	0.506248	0.897026
C68	C	1.498545	0.839581	1.230360
C69	C	1.831879	1.172915	1.563693
C70	C	0.537912	0.506249	0.506244
C71	C	0.871245	0.839582	0.839578
C72	C	1.204578	1.172915	1.172911
C73	C	0.629220	0.506244	0.506229
C74	C	0.962553	0.839577	0.839562
C75	C	1.295887	1.172910	1.172895
C76	C	0.701997	0.506246	0.506221
C77	C	1.035330	0.839579	0.839555
C78	C	1.368663	1.172912	1.172888
C79	C	0.793311	0.506240	0.506207
C80	C	1.126644	0.839573	0.839540
C81	C	1.459978	1.172906	1.172874
C82	C	1.375508	0.506254	0.506247
C83	C	1.708841	0.839587	0.839580
C84	C	2.042175	1.172920	1.172913
C85	C	1.465129	0.506260	0.506260
C86	C	1.798463	0.839594	0.839593
C87	C	2.131796	1.172927	1.172926
C88	C	1.165271	0.232204	0.506264
C89	C	1.498604	0.565538	0.839597
C90	C	1.831938	0.898871	1.172930
C91	C	1.165301	0.115428	0.506284
C92	C	1.498635	0.448761	0.839617
C93	C	1.831968	0.782094	1.172950
C94	C	1.216829	0.950811	0.439105
C95	C	1.550163	1.284144	0.772438
C96	C	1.883496	1.617478	1.105772
C97	C	1.216881	1.060535	0.439140
C98	C	1.550215	1.393868	0.772474
C99	C	1.883548	1.727202	1.105807
C100	C	1.113672	1.060591	0.573404
C101	C	1.447005	1.393924	0.906737
C102	C	1.780339	1.727258	1.240070
C103	C	1.113625	0.950869	0.573373
C104	C	1.446958	1.284202	0.906706
C105	C	1.780292	1.617536	1.240039
C106	C	1.216793	0.439066	0.951909
C107	C	1.550127	0.772400	1.285242
C108	C	1.883460	1.105733	1.618576
C109	C	1.216786	0.439064	1.061633
C110	C	1.550120	0.772398	1.394966
C111	C	1.883453	1.105731	1.728300
C112	C	1.113615	0.573435	1.061582
C113	C	1.446948	0.906768	1.394916
C114	C	1.780281	1.240101	1.728249
C115	C	1.113618	0.573430	0.951860
C116	C	1.446951	0.906764	1.285194
C117	C	1.780285	1.240097	1.618527
C118	C	1.165190	0.506254	1.233249
C119	C	1.498523	0.839587	1.566583
C120	C	1.831856	1.172921	1.899916
C121	C	1.165202	0.506250	1.116473
C122	C	1.498535	0.839583	1.449806
C123	C	1.831868	1.172917	1.783139
H124	H	1.258828	0.906124	0.384425
H125	H	1.592161	1.239458	0.717758
H126	H	1.925495	1.572791	1.051091
H127	H	1.071610	0.628134	1.106241
H128	H	1.404944	0.961468	1.439575
H129	H	1.738277	1.294801	1.772908
H130	H	1.258788	0.384357	1.106314
H131	H	1.592121	0.717690	1.439647
H132	H	1.925455	1.051023	1.772980
H133	H	1.071608	0.628137	0.907174
H134	H	1.404942	0.961470	1.240507
H135	H	1.738275	1.294804	1.573840
H136	H	1.258922	1.105172	0.384492
H137	H	1.592256	1.438505	0.717825
H138	H	1.925589	1.771839	1.051159
H139	H	1.071678	1.105293	0.628077
H140	H	1.405012	1.438627	0.961411
H141	H	1.738345	1.771960	1.294744
H142	H	1.071584	0.906224	0.628029
H143	H	1.404917	1.239557	0.961362
H144	H	1.738251	1.572891	1.294696
H145	H	1.258802	0.384359	0.907266
H146	H	1.592136	0.717693	1.240600
H147	H	1.925469	1.051026	1.573933
