data_functionalizedCrystal
_audit_creation_method	'MofGen! by Chris Wilmer'
_symmetry_space_group_name_H-M	'P1'
_symmetry_Int_Tables_number	1
_symmetry_cell_setting	triclinic
loop_
_symmetry_equiv_pos_as_xyz
  x,y,z
_cell_length_a	12.759401
_cell_length_b	18.050590
_cell_length_c	12.759393
_cell_angle_alpha	90.034679
_cell_angle_beta	90.020938
_cell_angle_gamma	90.020077
loop_
_atom_site_label
_atom_site_type_symbol
_atom_site_fract_x
_atom_site_fract_y
_atom_site_fract_z
Zn1	Zn	1.606238	-0.295593	0.593990
Zn2	Zn	1.606118	-0.419801	0.418297
Zn3	Zn	1.430537	-0.295633	0.418325
Zn4	Zn	1.430517	-0.419749	0.593934
O5	O	1.518352	-0.357694	0.506136
O6	O	1.753243	-0.312075	0.570695
O7	O	1.582784	-0.403368	0.271279
O8	O	1.453903	-0.191703	0.441662
O9	O	1.753155	-0.403330	0.441614
O10	O	1.582990	-0.191674	0.570722
O11	O	1.453786	-0.312142	0.271300
O12	O	1.283513	-0.312092	0.441608
O13	O	1.453869	-0.403241	0.740963
O14	O	1.283499	-0.403280	0.570628
O15	O	1.582971	-0.312025	0.741003
O16	O	1.582765	-0.523719	0.441561
O17	O	1.453752	-0.523681	0.570601
C18	C	1.245385	-0.357685	0.506115
C19	C	1.128608	-0.357699	0.506131
C20	C	1.518272	-0.550646	0.506094
C21	C	1.518333	-0.633192	0.506112
C22	C	1.073766	-0.405253	0.573206
C23	C	0.964042	-0.405256	0.573227
C24	C	0.964012	-0.310149	0.439089
C25	C	1.073734	-0.310143	0.439075
C26	C	0.814144	-0.431904	0.697085
C27	C	0.759298	-0.479469	0.764150
C28	C	0.794889	-0.551945	0.780090
C29	C	0.885324	-0.576870	0.728950
C30	C	0.940164	-0.529309	0.661877
C31	C	0.904575	-0.456822	0.645956
C32	C	1.223635	-0.283503	0.315215
C33	C	1.278477	-0.235944	0.248136
C34	C	1.242888	-0.163467	0.232185
C35	C	1.152450	-0.138545	0.283307
C36	C	1.097608	-0.186103	0.350386
C37	C	1.133204	-0.258579	0.366339
C38	C	1.588636	-0.832636	0.436038
C39	C	1.614306	-0.881961	0.531925
C40	C	1.518393	-0.784322	0.506154
C41	C	1.492831	-0.882079	0.410310
C42	C	1.518452	-0.930307	0.506186
C43	C	1.544111	-0.832560	0.602091
C44	C	1.422592	-0.832674	0.480411
C45	C	1.448224	-0.881976	0.576364
C46	C	1.518361	-0.700224	0.506134
C47	C	1.518484	-1.014404	0.506216
C48	C	1.792386	-0.357704	0.506158
C49	C	1.909162	-0.357708	0.506167
C50	C	1.518431	-0.357623	0.780170
C51	C	1.518465	-0.357592	0.896947
C52	C	1.518462	-0.163989	0.506201
C53	C	1.518509	-0.081443	0.506229
C54	C	1.518335	-0.357712	0.233169
C55	C	1.518505	-0.357533	0.116393
C56	C	1.585693	-0.310088	0.951831
C57	C	1.585711	-0.310056	1.061556
C58	C	1.451269	-0.405039	1.061500
C59	C	1.451247	-0.405067	0.951778
C60	C	1.623331	-0.222435	1.211543
C61	C	1.690576	-0.174938	1.266431
C62	C	1.793089	-0.163549	1.230841
C63	C	1.828380	-0.199670	1.140364
C64	C	1.761141	-0.247173	1.085481
C65	C	1.658612	-0.258547	1.121070
C66	C	1.413637	-0.492689	0.801789
C67	C	1.346403	-0.540196	0.746904
C68	C	1.243887	-0.551592	0.782492
C69	C	1.208601	-0.515485	0.872973
C70	C	1.275835	-0.467977	0.927858
C71	C	1.378350	-0.456580	0.892262
H72	H	1.013794	-0.549602	0.620239
H73	H	1.471186	-0.903830	0.329242
N74	N	1.315279	-0.803956	0.451512
H75	H	1.262031	-0.822684	0.503721
H76	H	1.296100	-0.821941	0.379029
H77	H	1.375146	-0.569604	0.673237
N78	N	1.572906	-0.803874	0.709505
H79	H	1.638451	-0.772694	0.704446
H80	H	1.585886	-0.847050	0.758109
N81	N	1.658187	-0.258886	0.892689
H82	H	1.700776	-0.228787	0.944112
H83	H	1.615433	-0.224527	0.847168
H84	H	1.789875	-0.276584	1.011819
N85	N	1.667338	-0.803933	0.357572
H86	H	1.739709	-0.821861	0.377172
H87	H	1.666196	-0.747988	0.357675
N88	N	1.721647	-0.910654	0.560795
H89	H	1.741528	-0.891867	0.632683
H90	H	1.774566	-0.892707	0.507714
N91	N	1.000067	-0.159221	0.405534
H92	H	0.970726	-0.200347	0.450445
H93	H	0.946134	-0.143966	0.351768
N94	N	1.098031	-0.527766	0.911374
H95	H	1.087366	-0.582039	0.927373
H96	H	1.046826	-0.511767	0.855420
H97	H	1.911861	-0.190399	1.111399
N98	N	1.369555	-0.910484	0.655002
H99	H	1.389017	-0.892366	0.727347
H100	H	1.369590	-0.966432	0.654077
N101	N	1.865621	-0.112324	1.290041
H102	H	1.827713	-0.091173	1.352756
H103	H	1.888557	-0.070662	1.242477
H104	H	1.497112	-0.483409	0.772799
N105	N	1.652518	-0.135979	1.364013
H106	H	1.577365	-0.150392	1.378227
H107	H	1.657127	-0.080616	1.353563
H108	H	1.189149	-0.590283	0.737800
N109	N	0.735733	-0.603241	0.852430
H110	H	0.783263	-0.619502	0.911398
H111	H	0.711259	-0.648098	0.811878
N112	N	1.512753	-0.234697	1.249926
H113	H	1.514624	-0.256140	1.322998
H114	H	1.475559	-0.270244	1.201360
H115	H	1.396545	-0.443693	1.106158
N116	N	1.237782	-0.429031	1.025450
H117	H	1.162636	-0.443458	1.039671
H118	H	1.242371	-0.373667	1.015005
N119	N	0.904818	-0.258879	0.366744
H120	H	0.859315	-0.224502	0.409518
H121	H	0.859333	-0.289092	0.318010
N122	N	1.132955	-0.456542	0.645529
H123	H	1.081559	-0.486667	0.688024
H124	H	1.178517	-0.426352	0.694220
H125	H	0.914288	-0.635890	0.741925
H126	H	0.685666	-0.459168	0.805790
H127	H	0.785164	-0.372885	0.684123
H128	H	1.123460	-0.079532	0.270303
H129	H	1.352116	-0.256243	0.206509
H130	H	1.287546	-0.124748	0.177554
N131	N	1.262027	-0.361675	0.332432
H132	H	1.327635	-0.370249	0.289861
H133	H	1.206013	-0.397852	0.309782
