data_functionalizedCrystal
_audit_creation_method	'MofGen! by Chris Wilmer'
_symmetry_space_group_name_H-M	'P1'
_symmetry_Int_Tables_number	1
_symmetry_cell_setting	triclinic
loop_
_symmetry_equiv_pos_as_xyz
  x,y,z
_cell_length_a	10.654545
_cell_length_b	9.130313
_cell_length_c	10.654551
_cell_angle_alpha	90.002754
_cell_angle_beta	84.484254
_cell_angle_gamma	90.003066
loop_
_atom_site_label
_atom_site_type_symbol
_atom_site_fract_x
_atom_site_fract_y
_atom_site_fract_z
O1	O	1.667844	0.121779	0.176372
O2	O	1.302364	0.121784	0.193184
O3	O	1.493506	0.121778	0.002038
O4	O	1.476702	0.121785	0.367517
O5	O	1.493493	-0.121821	0.002033
O6	O	1.302351	-0.121815	0.193178
O7	O	1.667830	-0.121820	0.176366
Cu8	Cu	1.485090	-0.144060	0.184771
Cu9	Cu	1.485105	0.144024	0.184778
O10	O	1.476689	-0.121814	0.367511
C11	C	1.255560	-0.000015	0.191948
C12	C	1.116116	-0.000012	0.188258
C13	C	1.050604	-0.132799	0.186518
C14	C	0.919585	-0.132799	0.183030
C15	C	0.919600	0.132786	0.183028
C16	C	1.050618	0.132784	0.186507
C17	C	1.492265	-0.000019	-0.044762
C18	C	1.488573	-0.000012	-0.184205
C19	C	1.714635	-0.000018	0.177602
C20	C	1.854079	-0.000011	0.181292
N21	N	1.485088	-0.346683	0.184766
C22	C	1.569754	-0.423337	0.100163
C23	C	1.569766	-0.576674	0.100163
C24	C	1.400441	-0.576688	0.269381
C25	C	1.400424	-0.423354	0.269374
N26	N	1.485117	0.346646	0.184774
C27	C	1.486847	0.132775	-0.249706
C28	C	1.483367	0.132776	-0.380727
C29	C	1.483344	-0.132809	-0.380735
C30	C	1.486815	-0.132808	-0.249715
C31	C	1.477929	-0.000014	0.414312
C32	C	1.481622	-0.000011	0.553755
H33	H	0.866251	-0.240927	0.181614
H34	H	0.866255	0.240904	0.181603
C35	C	1.481518	0.278853	-0.452777
N36	N	1.480141	0.388884	-0.507047
H37	H	1.103960	0.240922	0.187920
H38	H	1.331512	-0.639130	0.338268
H39	H	1.103929	-0.240931	0.187944
C40	C	1.662876	-0.339004	0.007082
N41	N	1.733015	-0.275488	-0.063033
C42	C	1.307337	-0.339029	0.362506
N43	N	1.237246	-0.275516	0.432670
C44	C	1.488766	0.278854	-0.177648
N45	N	1.490206	0.388886	-0.123377
C46	C	1.488712	-0.278892	-0.177660
N47	N	1.490138	-0.388918	-0.123388
C48	C	1.662896	-0.660987	0.007083
N49	N	1.733041	-0.724491	-0.063035
C50	C	1.481415	-0.278876	-0.452808
N51	N	1.479965	-0.388898	-0.507093
