data_functionalizedCrystal
_audit_creation_method	'MofGen! by Chris Wilmer'
_symmetry_space_group_name_H-M	'P1'
_symmetry_Int_Tables_number	1
_symmetry_cell_setting	triclinic
loop_
_symmetry_equiv_pos_as_xyz
  x,y,z
_cell_length_a	25.639242
_cell_length_b	25.639240
_cell_length_c	25.639233
_cell_angle_alpha	89.974071
_cell_angle_beta	89.977834
_cell_angle_gamma	90.028283
loop_
_atom_site_label
_atom_site_type_symbol
_atom_site_fract_x
_atom_site_fract_y
_atom_site_fract_z
Zn1	Zn	0.799247	-0.208277	-0.295716
Zn2	Zn	1.299247	0.291723	0.204284
Zn3	Zn	0.799179	-0.295696	-0.208270
Zn4	Zn	1.299179	0.204304	0.291730
Zn5	Zn	0.711823	-0.208269	-0.208280
Zn6	Zn	1.211823	0.291731	0.291720
Zn7	Zn	0.711777	-0.295676	-0.295659
Zn8	Zn	1.211777	0.204324	0.204341
O9	O	0.755506	-0.251979	-0.251981
O10	O	1.255506	0.248021	0.248019
O11	O	0.872403	-0.219884	-0.284135
O12	O	1.372403	0.280116	0.215865
O13	O	0.787582	-0.284103	-0.135106
O14	O	1.287582	0.215897	0.364894
O15	O	0.723467	-0.135105	-0.219907
O16	O	1.223467	0.364895	0.280093
O17	O	0.872353	-0.284111	-0.219889
O18	O	1.372353	0.215889	0.280111
O19	O	0.787697	-0.135111	-0.284146
O20	O	1.287697	0.364889	0.215854
O21	O	0.723402	-0.219871	-0.135114
O22	O	1.223402	0.280129	0.364886
O23	O	0.638652	-0.219853	-0.219852
O24	O	1.138652	0.280147	0.280148
O25	O	0.723389	-0.284078	-0.368832
O26	O	1.223389	0.215922	0.131168
O27	O	0.638618	-0.284070	-0.284049
O28	O	1.138618	0.215930	0.215951
O29	O	0.787653	-0.219866	-0.368874
O30	O	1.287653	0.280134	0.131126
O31	O	0.787538	-0.368858	-0.219834
O32	O	1.287538	0.131142	0.280166
O33	O	0.723324	-0.368844	-0.284039
O34	O	1.223324	0.131156	0.215961
C35	C	0.619664	-0.251959	-0.251946
C36	C	1.119664	0.248041	0.248054
C37	C	0.561550	-0.251963	-0.251943
C38	C	1.061550	0.248037	0.248057
C39	C	0.755433	-0.387822	-0.251940
C40	C	1.255433	0.112178	0.248060
C41	C	0.755449	-0.445936	-0.251940
C42	C	1.255449	0.054064	0.248060
C43	C	0.201178	-0.285473	-0.285377
C44	C	0.701178	0.214527	0.214623
C45	C	0.146574	-0.285477	-0.285385
C46	C	0.646574	0.214523	0.214615
O47	O	0.118330	-0.313943	-0.313782
O48	O	0.618330	0.186057	0.186218
N49	N	0.119267	-0.251994	-0.252015
N50	N	0.619267	0.248006	0.247985
C51	C	0.146568	-0.218502	-0.218639
C52	C	0.646568	0.281498	0.281361
O53	O	0.118328	-0.190022	-0.190256
O54	O	0.618328	0.309978	0.309744
C55	C	0.201171	-0.218496	-0.218634
C56	C	0.701171	0.281504	0.281366
C57	C	0.228475	-0.251985	-0.252002
C58	C	0.728475	0.248015	0.247998
C59	C	0.228482	-0.318959	-0.318743
C60	C	0.728482	0.181041	0.181257
C61	C	0.283082	-0.318956	-0.318734
C62	C	0.783082	0.181044	0.181266
C63	C	0.310379	-0.285468	-0.285359
C64	C	0.810379	0.214532	0.214641
C65	C	0.283076	-0.251983	-0.251993
C66	C	0.783076	0.248017	0.248007
C67	C	0.228471	-0.185002	-0.185260
C68	C	0.728471	0.314998	0.314740
C69	C	0.283078	-0.184999	-0.185258
C70	C	0.783078	0.315001	0.314742
C71	C	0.310382	-0.218488	-0.218626
C72	C	0.810382	0.281512	0.281374
C73	C	0.364973	-0.218492	-0.218609
C74	C	0.864973	0.281508	0.281391
N75	N	0.392279	-0.251974	-0.251979
N76	N	0.892279	0.248026	0.248021
C77	C	0.364983	-0.285463	-0.285354
C78	C	0.864983	0.214537	0.214646
C79	C	0.031897	-0.218515	-0.218653
C80	C	0.531897	0.281485	0.281347
C81	C	-0.022705	-0.218523	-0.218655
C82	C	0.477295	0.281477	0.281345
C83	C	-0.022695	-0.285497	-0.285402
C84	C	0.477305	0.214503	0.214598
C85	C	0.031908	-0.285492	-0.285397
C86	C	0.531908	0.214508	0.214603
C87	C	0.059204	-0.251998	-0.252023
C88	C	0.559204	0.248002	0.247977
C89	C	0.479648	-0.285455	-0.285332
C90	C	0.979648	0.214545	0.214668
C91	C	0.534253	-0.285451	-0.285318
C92	C	1.034253	0.214549	0.214682
C93	C	0.534239	-0.218475	-0.218573
C94	C	1.034239	0.281525	0.281427
C95	C	0.479638	-0.218481	-0.218585
C96	C	0.979638	0.281519	0.281415
C97	C	0.452344	-0.251972	-0.251968
C98	C	0.952344	0.248028	0.248032
O99	O	0.393252	-0.190038	-0.190228
O100	O	0.893252	0.309962	0.309772
O101	O	0.393229	-0.313933	-0.313736
O102	O	0.893229	0.186067	0.186264
C103	C	0.788967	-0.806264	-0.285491
C104	C	1.288967	-0.306264	0.214509
C105	C	0.788983	-0.860868	-0.285501
C106	C	1.288983	-0.360868	0.214499
O107	O	0.817394	-0.889074	-0.313985
O108	O	1.317394	-0.389074	0.186015
N109	N	0.755579	-0.888218	-0.252032
N110	N	1.255579	-0.388218	0.247968
C111	C	0.722154	-0.860962	-0.218553
C112	C	1.222154	-0.360962	0.281447
O113	O	0.693742	-0.889240	-0.190086
O114	O	1.193742	-0.389240	0.309914
C115	C	0.722136	-0.806359	-0.218546
C116	C	1.222136	-0.306359	0.281454
C117	C	0.755546	-0.779011	-0.252014
C118	C	1.255546	-0.279011	0.247986
C119	C	0.822374	-0.778916	-0.318956
C120	C	1.322374	-0.278916	0.181044
C121	C	0.822359	-0.724315	-0.318945
C122	C	1.322359	-0.224315	0.181055
C123	C	0.788938	-0.697062	-0.285468
C124	C	1.288938	-0.197062	0.214532
C125	C	0.755531	-0.724410	-0.252002
C126	C	1.255531	-0.224410	0.247998
C127	C	0.688708	-0.779103	-0.185070
C128	C	1.188708	-0.279103	0.314930
C129	C	0.688693	-0.724496	-0.185066
C130	C	1.188693	-0.224496	0.314934
C131	C	0.722103	-0.697148	-0.218534
C132	C	1.222103	-0.197148	0.281466
C133	C	0.722095	-0.642557	-0.218514
C134	C	1.222095	-0.142557	0.281486
N135	N	0.755498	-0.615206	-0.251983
N136	N	1.255498	-0.115206	0.248017
C137	C	0.788920	-0.642459	-0.285460
C138	C	1.288920	-0.142459	0.214540
C139	C	0.722193	-0.975633	-0.218572
C140	C	1.222193	-0.475633	0.281428
C141	C	0.722213	-1.030235	-0.218577
C142	C	1.222213	-0.530235	0.281423
C143	C	0.789041	-1.030137	-0.285526
C144	C	1.289041	-0.530137	0.214474
C145	C	0.789024	-0.975534	-0.285518
C146	C	1.289024	-0.475534	0.214482
C147	C	0.755597	-0.948282	-0.252042
C148	C	1.255597	-0.448282	0.247958
C149	C	0.788887	-0.527794	-0.285433
C150	C	1.288887	-0.027794	0.214567
C151	C	0.788870	-0.473189	-0.285417
C152	C	1.288870	0.026811	0.214583
C153	C	0.722040	-0.473291	-0.218471
C154	C	1.222040	0.026709	0.281529
C155	C	0.722058	-0.527892	-0.218484
C156	C	1.222058	-0.027892	0.281516
C157	C	0.755483	-0.555142	-0.251970
C158	C	1.255483	-0.055142	0.248030
O159	O	0.693697	-0.614316	-0.190046
O160	O	1.193697	-0.114316	0.309954
O161	O	0.817322	-0.614175	-0.313927
O162	O	1.317322	-0.114175	0.186073
C163	C	0.891879	-0.252000	-0.252017
C164	C	1.391879	0.248000	0.247983
C165	C	0.949993	-0.252009	-0.252032
C166	C	1.449993	0.247991	0.247968
C167	C	0.755523	-0.251970	-0.388354
C168	C	1.255523	0.248030	0.111646
C169	C	0.755530	-0.251966	-0.446468
C170	C	1.255530	0.248034	0.053532
C171	C	0.755595	-0.115606	-0.252034
C172	C	1.255595	0.384394	0.247966
C173	C	0.755632	-0.057492	-0.252056
C174	C	1.255632	0.442508	0.247944
C175	C	0.789035	-0.218432	-0.806859
C176	C	1.289035	0.281568	-0.306859
C177	C	0.789041	-0.218417	-0.861463
C178	C	1.289041	0.281583	-0.361463
O179	O	0.817486	-0.189967	-0.889723
O180	O	1.317486	0.310033	-0.389723
N181	N	0.755588	-0.251844	-0.888751
N182	N	1.255588	0.248156	-0.388751
C183	C	0.722122	-0.285283	-0.861432
C184	C	1.222122	0.214717	-0.361432
O185	O	0.693668	-0.313713	-0.889656
O186	O	1.193668	0.186287	-0.389656
C187	C	0.722114	-0.285294	-0.806828
C188	C	1.222114	0.214706	-0.306828
C189	C	0.755573	-0.251870	-0.779543
C190	C	1.255573	0.248130	-0.279543
C191	C	0.822491	-0.185009	-0.779574
C192	C	1.322491	0.314991	-0.279574
C193	C	0.822485	-0.185025	-0.724973
C194	C	1.322485	0.314975	-0.224973
C195	C	0.789023	-0.218462	-0.697658
C196	C	1.289023	0.281538	-0.197658
C197	C	0.755567	-0.251885	-0.724943
C198	C	1.255567	0.248115	-0.224943
C199	C	0.688646	-0.318731	-0.779510
C200	C	1.188646	0.181269	-0.279510
C201	C	0.688640	-0.318739	-0.724903
C202	C	1.188640	0.181261	-0.224903
C203	C	0.722099	-0.285314	-0.697618
C204	C	1.222099	0.214686	-0.197618
C205	C	0.722099	-0.285338	-0.643027
C206	C	1.222099	0.214662	-0.143027
N207	N	0.755552	-0.251912	-0.615739
N208	N	1.255552	0.248088	-0.115739
C209	C	0.789014	-0.218474	-0.643055
C210	C	1.289014	0.281526	-0.143055
C211	C	0.722143	-0.285256	-0.976102
C212	C	1.222143	0.214744	-0.476102
C213	C	0.722154	-0.285247	-1.030705
C214	C	1.222154	0.214753	-0.530705
C215	C	0.789072	-0.218381	-1.030733
C216	C	1.289072	0.281619	-0.530733
C217	C	0.789063	-0.218392	-0.976129
C218	C	1.289063	0.281608	-0.476129
C219	C	0.755596	-0.251829	-0.948815
C220	C	1.255596	0.248171	-0.448815
C221	C	0.789000	-0.218509	-0.528389
C222	C	1.289000	0.281491	-0.028389
C223	C	0.788992	-0.218529	-0.473784
C224	C	1.288992	0.281471	0.026216
C225	C	0.722072	-0.285393	-0.473761
C226	C	1.222072	0.214607	0.026239
C227	C	0.722081	-0.285375	-0.528362
C228	C	1.222081	0.214625	-0.028362
C229	C	0.755547	-0.251929	-0.555674
C230	C	1.255547	0.248071	-0.055674
O231	O	0.693668	-0.313773	-0.614732
O232	O	1.193668	0.186227	-0.114732
O233	O	0.817459	-0.190044	-0.614823
O234	O	1.317459	0.309956	-0.114823
C235	C	0.755520	-0.251951	-0.116139
C236	C	1.255520	0.248049	0.383861
C237	C	0.755614	-0.251807	-0.058025
C238	C	1.255614	0.248193	0.441975
H239	H	0.556481	-0.312723	-0.312491
H240	H	1.056481	0.187277	0.187509
C241	C	0.681334	-0.389060	-0.840878
C242	C	1.181334	0.110940	-0.340878
C243	C	0.651867	-0.355479	-0.809487
C244	C	1.151867	0.144521	-0.309487
H245	H	0.658627	-0.411751	-0.859379
H246	H	1.158627	0.088249	-0.359379
H247	H	0.701253	-0.369150	-0.864969
H248	H	1.201253	0.130850	-0.364969
H249	H	0.704102	-0.409059	-0.819571
H250	H	1.204102	0.090941	-0.319571
H251	H	0.629102	-0.335477	-0.830794
H252	H	1.129102	0.164523	-0.330794
H253	H	0.631940	-0.375391	-0.785392
H254	H	1.131940	0.124609	-0.285392
C255	C	0.659036	-0.862840	-0.155359
C256	C	1.159036	-0.362840	0.344641
C257	C	0.651975	-0.809155	-0.148288
C258	C	1.151975	-0.309155	0.351712
H259	H	0.636356	-0.881390	-0.132650
H260	H	1.136356	-0.381390	0.367350
H261	H	0.651370	-0.871769	-0.190480
H262	H	1.151370	-0.371769	0.309520
H263	H	0.694171	-0.871768	-0.147734
H264	H	1.194171	-0.371768	0.352266
H265	H	0.616841	-0.800226	-0.155917
H266	H	1.116841	-0.300226	0.344083
H267	H	0.659637	-0.800222	-0.113160
H268	H	1.159637	-0.300222	0.386840
H269	H	0.206262	-0.346229	-0.345924
H270	H	0.706262	0.153771	0.154076
H271	H	0.305308	-0.346225	-0.345907
H272	H	0.805308	0.153775	0.154093
C273	C	0.888433	-0.773320	-0.385122
C274	C	1.388433	-0.273320	0.114878
C275	C	0.859119	-0.808866	-0.355756
C276	C	1.359119	-0.308866	0.144244
H277	H	0.911124	-0.791808	-0.407837
H278	H	1.411124	-0.291808	0.092163
H279	H	0.865631	-0.752033	-0.405093
H280	H	1.365631	-0.252033	0.094907
H281	H	0.908433	-0.752017	-0.362350
H282	H	1.408433	-0.252017	0.137650
H283	H	0.839116	-0.830166	-0.378528
H284	H	1.339116	-0.330166	0.121472
H285	H	0.881924	-0.830161	-0.335783
H286	H	1.381924	-0.330161	0.164217
H287	H	0.816228	-0.953270	-0.312771
H288	H	1.316228	-0.453270	0.187229
H289	H	0.457431	-0.312726	-0.312517
H290	H	0.957431	0.187274	0.187483
C291	C	0.026420	-0.351690	-0.351374
C292	C	0.526420	0.148310	0.148626
C293	C	0.061917	-0.322298	-0.322081
C294	C	0.561917	0.177702	0.177919
H295	H	0.044946	-0.374410	-0.374025
H296	H	0.544946	0.125590	0.125975
H297	H	0.005108	-0.371657	-0.328556
H298	H	0.505108	0.128343	0.171444
H299	H	0.005138	-0.328935	-0.371415
H300	H	0.505138	0.171065	0.128585
H301	H	0.083196	-0.345053	-0.302038
H302	H	0.583196	0.154947	0.197962
H303	H	0.083239	-0.302330	-0.344903
H304	H	0.583239	0.197670	0.155097
H305	H	0.694889	-0.312487	-0.953866
H306	H	1.194889	0.187513	-0.453866
H307	H	-0.044930	-0.312763	-0.312580
H308	H	0.455070	0.187237	0.187420
C309	C	0.633519	-0.456559	-0.192917
C310	C	1.133519	0.043441	0.307083
C311	C	0.685300	-0.443328	-0.181678
C312	C	1.185300	0.056672	0.318322
H313	H	0.610836	-0.438061	-0.170202
H314	H	1.110836	0.061939	0.329798
H315	H	0.625851	-0.447597	-0.228035
H316	H	1.125851	0.052403	0.271965
H317	H	0.628751	-0.492992	-0.188125
H318	H	1.128751	0.007008	0.311875
H319	H	0.690069	-0.406894	-0.186473
H320	H	1.190069	0.093106	0.313527
H321	H	0.692970	-0.452286	-0.146551
H322	H	1.192970	0.047714	0.353449
H323	H	0.816079	-0.450924	-0.312671
H324	H	1.316079	0.049076	0.187329
H325	H	0.816241	-0.191310	-0.451571
H326	H	1.316241	0.308690	0.048429
C327	C	0.829557	-0.662868	-0.389279
C328	C	1.329557	-0.162868	0.110721
C329	C	0.859080	-0.694259	-0.355740
C330	C	1.359080	-0.194259	0.144260
H331	H	0.852228	-0.644313	-0.411994
H332	H	1.352228	-0.144313	0.088006
H333	H	0.806770	-0.684176	-0.409250
H334	H	1.306770	-0.184176	0.090750
H335	H	0.809657	-0.638817	-0.369336
H336	H	1.309657	-0.138817	0.130664
H337	H	0.878977	-0.718312	-0.375683
H338	H	1.378977	-0.218312	0.124317
H339	H	0.881875	-0.672949	-0.335767
H340	H	1.381875	-0.172949	0.164233
H341	H	0.694830	-0.312619	-0.451511
H342	H	1.194830	0.187381	0.048489
H343	H	0.457406	-0.191213	-0.191412
H344	H	0.957406	0.308787	0.308588
C345	C	-0.017216	-0.152322	-0.152680
C346	C	0.482784	0.347678	0.347320
C347	C	-0.052713	-0.181714	-0.181972
C348	C	0.447287	0.318286	0.318028
H349	H	-0.035742	-0.129594	-0.130037
H350	H	0.464258	0.370406	0.369963
H351	H	0.004058	-0.175073	-0.132635
H352	H	0.504058	0.324927	0.367365
H353	H	0.004104	-0.132359	-0.175503
H354	H	0.504104	0.367641	0.324497
H355	H	-0.074031	-0.201680	-0.159149
H356	H	0.425969	0.298320	0.340851
H357	H	-0.073996	-0.158961	-0.202018
H358	H	0.426004	0.341039	0.297982
C359	C	0.855151	-0.152421	-0.522917
C360	C	1.355151	0.347579	-0.022917
C361	C	0.825789	-0.181748	-0.558406
C362	C	1.325789	0.318252	-0.058406
H363	H	0.877866	-0.129731	-0.541449
H364	H	1.377866	0.370269	-0.041449
H365	H	0.832380	-0.132425	-0.501620
H366	H	1.332380	0.367575	-0.001620
H367	H	0.875127	-0.175220	-0.501619
H368	H	1.375127	0.324780	-0.001619
H369	H	0.805810	-0.158949	-0.579702
H370	H	1.305810	0.341051	-0.079702
H371	H	0.848562	-0.201746	-0.579712
H372	H	1.348562	0.298254	-0.079712
H373	H	0.694913	-0.312471	-1.052916
H374	H	1.194913	0.187529	-0.552916
C375	C	0.093267	-0.211141	-0.148324
C376	C	0.593267	0.288859	0.351676
C377	C	0.061901	-0.181703	-0.181958
C378	C	0.561901	0.318297	0.318042
H379	H	0.111790	-0.188414	-0.125673
H380	H	0.611790	0.311586	0.374327
H381	H	0.071946	-0.233891	-0.128288
H382	H	0.571946	0.266109	0.371712
H383	H	0.117345	-0.231076	-0.168201
H384	H	0.617345	0.268924	0.331799
H385	H	0.037820	-0.161770	-0.162081
H386	H	0.537820	0.338230	0.337919
H387	H	0.083224	-0.158944	-0.201996
H388	H	0.583224	0.341056	0.298004
H389	H	0.661380	-0.345963	-0.702666
H390	H	1.161380	0.154037	-0.202666
C391	C	0.344449	-0.177622	-0.114933
C392	C	0.844449	0.322378	0.385067
C393	C	0.313084	-0.148184	-0.148570
C394	C	0.813084	0.351816	0.351430
H395	H	0.362975	-0.154894	-0.092286
H396	H	0.862975	0.345106	0.407714
H397	H	0.323126	-0.200367	-0.094894
H398	H	0.823126	0.299633	0.405106
H399	H	0.368524	-0.197562	-0.134810
H400	H	0.868524	0.302438	0.365190
H401	H	0.289006	-0.128247	-0.128694
H402	H	0.789006	0.371753	0.371306
H403	H	0.334408	-0.125430	-0.168611
H404	H	0.834408	0.374570	0.331389
C405	C	0.233970	-0.118791	-0.119298
C406	C	0.733970	0.381209	0.380702
C407	C	0.198469	-0.148185	-0.148584
C408	C	0.698469	0.351815	0.351416
H409	H	0.215447	-0.096057	-0.096659
H410	H	0.715447	0.403943	0.403341
H411	H	0.255243	-0.141540	-0.099251
H412	H	0.755243	0.358460	0.400749
H413	H	0.255290	-0.098833	-0.142126
H414	H	0.755290	0.401167	0.357874
H415	H	0.177151	-0.168146	-0.125757
H416	H	0.677151	0.331854	0.374243
H417	H	0.177186	-0.125433	-0.168633
H418	H	0.677186	0.374567	0.331367
H419	H	0.556474	-0.191211	-0.191398
H420	H	1.056474	0.308789	0.308602
C421	C	0.888624	-0.118925	-0.730503
C422	C	1.388624	0.381075	-0.230503
C423	C	0.859259	-0.148276	-0.694986
C424	C	1.359259	0.351724	-0.194986
H425	H	0.911323	-0.096234	-0.711991
H426	H	1.411323	0.403766	-0.211991
H427	H	0.908611	-0.141704	-0.751796
H428	H	1.408611	0.358296	-0.251796
H429	H	0.865850	-0.098924	-0.751801
H430	H	1.365850	0.401076	-0.251801
H431	H	0.882032	-0.168280	-0.673690
H432	H	1.382032	0.331720	-0.173690
H433	H	0.839270	-0.125494	-0.673684
H434	H	1.339270	0.374506	-0.173684
H435	H	0.816101	-0.549975	-0.312704
H436	H	1.316101	-0.049975	0.187296
H437	H	0.695013	-1.052497	-0.191318
H438	H	1.195013	-0.552497	0.308682
C439	C	0.818728	-1.113802	-0.315269
C440	C	1.318728	-0.613802	0.184731
C441	C	0.825775	-1.060101	-0.322331
C442	C	1.325775	-0.560101	0.177669
H443	H	0.841403	-1.132300	-0.337992
H444	H	1.341403	-0.632300	0.162008
H445	H	0.826411	-1.122762	-0.280154
H446	H	1.326411	-0.622762	0.219846
H447	H	0.783593	-1.122764	-0.322881
H448	H	1.283593	-0.622764	0.177119
H449	H	0.860910	-1.051138	-0.314714
H450	H	1.360910	-0.551138	0.185286
H451	H	0.818096	-1.051137	-0.357454
H452	H	1.318096	-0.551137	0.142546
H453	H	0.849740	-0.157777	-0.801809
H454	H	1.349740	0.342223	-0.301809
H455	H	0.661471	-0.702310	-0.157806
H456	H	1.161471	-0.202310	0.342194
H457	H	0.694974	-0.953447	-0.191308
H458	H	1.194974	-0.453447	0.308692
H459	H	0.694857	-0.550160	-0.191228
H460	H	1.194857	-0.050160	0.308772
C461	C	0.855208	-0.152297	-0.981654
C462	C	1.355208	0.347703	-0.481654
C463	C	0.825838	-0.181647	-0.946140
C464	C	1.325838	0.318353	-0.446140
H465	H	0.877908	-0.129609	-0.963141
H466	H	1.377908	0.370391	-0.463141
H467	H	0.875194	-0.175078	-1.002947
H468	H	1.375194	0.324922	-0.502947
H469	H	0.832437	-0.132294	-1.002954
H470	H	1.332437	0.367706	-0.502954
H471	H	0.848608	-0.201653	-0.924843
H472	H	1.348608	0.298347	-0.424843
H473	H	0.805849	-0.158863	-0.924839
H474	H	1.305849	0.341137	-0.424839
H475	H	0.816317	-0.191153	-1.052983
H476	H	1.316317	0.308847	-0.552983
C477	C	0.655936	-0.351472	-0.522847
C478	C	1.155936	0.148528	-0.022847
C479	C	0.685306	-0.322118	-0.558356
C480	C	1.185306	0.177882	-0.058356
H481	H	0.633228	-0.374151	-0.541363
H482	H	1.133228	0.125849	-0.041363
H483	H	0.678702	-0.371481	-0.501556
H484	H	1.178702	0.128519	-0.001556
H485	H	0.635952	-0.328690	-0.501544
H486	H	1.135952	0.171310	-0.001544
H487	H	0.705292	-0.344901	-0.579657
H488	H	1.205292	0.155099	-0.079657
H489	H	0.662537	-0.302108	-0.579656
H490	H	1.162537	0.197892	-0.079656
