data_functionalizedCrystal
_audit_creation_method	'MofGen! by Chris Wilmer'
_symmetry_space_group_name_H-M	'P1'
_symmetry_Int_Tables_number	1
_symmetry_cell_setting	triclinic
loop_
_symmetry_equiv_pos_as_xyz
  x,y,z
_cell_length_a	25.639239
_cell_length_b	25.639242
_cell_length_c	25.639233
_cell_angle_alpha	90.022166
_cell_angle_beta	90.018747
_cell_angle_gamma	90.034213
loop_
_atom_site_label
_atom_site_type_symbol
_atom_site_fract_x
_atom_site_fract_y
_atom_site_fract_z
Zn1	Zn	-0.208277	0.799225	0.295742
Zn2	Zn	0.125057	1.132558	0.629076
Zn3	Zn	0.458390	1.465892	0.962409
Zn4	Zn	-0.295696	0.799149	0.208307
Zn5	Zn	0.037638	1.132482	0.541640
Zn6	Zn	0.370971	1.465815	0.874973
Zn7	Zn	-0.208269	0.711801	0.208306
Zn8	Zn	0.125064	1.045135	0.541640
Zn9	Zn	0.458398	1.378468	0.874973
Zn10	Zn	-0.295676	0.711746	0.295696
Zn11	Zn	0.037657	1.045080	0.629030
Zn12	Zn	0.370990	1.378413	0.962363
O13	O	-0.251979	0.755480	0.252013
O14	O	0.081354	1.088814	0.585346
O15	O	0.414687	1.422147	0.918680
O16	O	-0.219884	0.872380	0.284163
O17	O	0.113449	1.205713	0.617496
O18	O	0.446782	1.539047	0.950830
O19	O	-0.284103	0.787553	0.135141
O20	O	0.049230	1.120886	0.468475
O21	O	0.382563	1.454219	0.801808
O22	O	-0.135105	0.723453	0.219924
O23	O	0.198228	1.056787	0.553257
O24	O	0.531562	1.390120	0.886591
O25	O	-0.284111	0.872324	0.219924
O26	O	0.049223	1.205657	0.553258
O27	O	0.382556	1.538991	0.886591
O28	O	-0.135111	0.787683	0.284163
O29	O	0.198223	1.121016	0.617496
O30	O	0.531556	1.454350	0.950829
O31	O	-0.219871	0.723379	0.135141
O32	O	0.113462	1.056712	0.468474
O33	O	0.446795	1.390046	0.801808
O34	O	-0.219853	0.638629	0.219880
O35	O	0.113481	0.971962	0.553213
O36	O	0.446814	1.305296	0.886546
O37	O	-0.284078	0.723360	0.368868
O38	O	0.049256	1.056693	0.702201
O39	O	0.382589	1.390026	1.035534
O40	O	-0.284070	0.638589	0.284085
O41	O	0.049263	0.971922	0.617418
O42	O	0.382597	1.305255	0.950751
O43	O	-0.219866	0.787630	0.368901
O44	O	0.113468	1.120963	0.702235
O45	O	0.446801	1.454297	1.035568
O46	O	-0.368858	0.787499	0.219880
O47	O	-0.035525	1.120833	0.553213
O48	O	0.297808	1.454166	0.886547
O49	O	-0.368844	0.723286	0.284085
O50	O	-0.035511	1.056619	0.617418
O51	O	0.297823	1.389952	0.950752
C52	C	-0.251959	0.619638	0.251977
C53	C	0.081375	0.952971	0.585311
C54	C	0.414708	1.286304	0.918644
C55	C	-0.251963	0.561524	0.251975
C56	C	0.081371	0.894857	0.585308
C57	C	0.414704	1.228190	0.918641
C58	C	-0.285473	0.201149	0.285413
C59	C	0.047860	0.534482	0.618746
C60	C	0.381193	0.867815	0.952080
C61	C	-0.285477	0.146544	0.285421
C62	C	0.047857	0.479878	0.618754
C63	C	0.381190	0.813211	0.952088
O64	O	-0.313943	0.118297	0.313821
O65	O	0.019390	0.451631	0.647155
O66	O	0.352724	0.784964	0.980488
N67	N	-0.251994	0.119241	0.252047
N68	N	0.081340	0.452575	0.585380
N69	N	0.414673	0.785908	0.918714
C70	C	-0.218502	0.146545	0.218666
C71	C	0.114831	0.479879	0.552000
C72	C	0.448165	0.813212	0.885333
O73	O	-0.190022	0.118308	0.190280
O74	O	0.143311	0.451641	0.523613
O75	O	0.476644	0.784975	0.856947
C76	C	-0.218496	0.201149	0.218661
C77	C	0.114837	0.534482	0.551994
C78	C	0.448170	0.867815	0.885328
C79	C	-0.251985	0.228449	0.252034
C80	C	0.081348	0.561782	0.585367
C81	C	0.414681	0.895116	0.918700
C82	C	-0.318959	0.228449	0.318783
C83	C	0.014374	0.561782	0.652116
C84	C	0.347708	0.895115	0.985450
C85	C	-0.318956	0.283049	0.318774
C86	C	0.014377	0.616383	0.652107
C87	C	0.347710	0.949716	0.985441
C88	C	-0.285468	0.310350	0.285395
C89	C	0.047865	0.643683	0.618728
C90	C	0.381199	0.977016	0.952061
C91	C	-0.251983	0.283049	0.252024
C92	C	0.081351	0.616383	0.585358
C93	C	0.414684	0.949716	0.918691
C94	C	-0.185002	0.228452	0.185283
C95	C	0.148331	0.561785	0.518617
C96	C	0.481664	0.895119	0.851950
C97	C	-0.185000	0.283059	0.185281
C98	C	0.148334	0.616392	0.518615
C99	C	0.481667	0.949726	0.851948
C100	C	-0.218488	0.310359	0.218654
C101	C	0.114845	0.643692	0.551987
C102	C	0.448178	0.977026	0.885320
C103	C	-0.218492	0.364950	0.218636
C104	C	0.114842	0.698284	0.551969
C105	C	0.448175	1.031617	0.885303
N106	N	-0.251974	0.392253	0.252010
N107	N	0.081359	0.725587	0.585344
N108	N	0.414692	1.058920	0.918677
C109	C	-0.285463	0.364953	0.285389
C110	C	0.047871	0.698286	0.618723
C111	C	0.381204	1.031620	0.952056
C112	C	-0.218515	0.031875	0.218680
C113	C	0.114818	0.365208	0.552014
C114	C	0.448151	0.698541	0.885347
C115	C	-0.218523	-0.022728	0.218683
C116	C	0.114810	0.310606	0.552016
C117	C	0.448144	0.643939	0.885349
C118	C	-0.285497	-0.022725	0.285438
C119	C	0.047836	0.310608	0.618772
C120	C	0.381170	0.643942	0.952105
C121	C	-0.285492	0.031878	0.285433
C122	C	0.047842	0.365212	0.618766
C123	C	0.381175	0.698545	0.952100
C124	C	-0.251998	0.059178	0.252054
C125	C	0.081335	0.392511	0.585388
C126	C	0.414669	0.725844	0.918721
C127	C	-0.285455	0.479618	0.285368
C128	C	0.047878	0.812951	0.618701
C129	C	0.381212	1.146285	0.952034
C130	C	-0.285451	0.534223	0.285354
C131	C	0.047883	0.867557	0.618687
C132	C	0.381216	1.200890	0.952021
C133	C	-0.218475	0.534216	0.218601
C134	C	0.114858	0.867549	0.551934
C135	C	0.448192	1.200883	0.885267
C136	C	-0.218481	0.479615	0.218612
C137	C	0.114853	0.812949	0.551945
C138	C	0.448186	1.146282	0.885279
C139	C	-0.251972	0.452318	0.252000
C140	C	0.081361	0.785651	0.585333
C141	C	0.414694	1.118984	0.918666
O142	O	-0.190038	0.393232	0.190252
O143	O	0.143295	0.726565	0.523585
O144	O	0.476628	1.059899	0.856918
O145	O	-0.313933	0.393197	0.313776
O146	O	0.019401	0.726530	0.647109
O147	O	0.352734	1.059864	0.980442
C148	C	-0.387822	0.755392	0.251989
C149	C	-0.054489	1.088726	0.585322
C150	C	0.278845	1.422059	0.918656
C151	C	-0.445936	0.755403	0.251996
C152	C	-0.112603	1.088736	0.585330
C153	C	0.220731	1.422069	0.918663
C154	C	-0.806294	0.789004	0.218638
C155	C	-0.472961	1.122337	0.551972
C156	C	-0.139627	1.455670	0.885305
C157	C	-0.860898	0.789024	0.218645
C158	C	-0.527565	1.122357	0.551979
C159	C	-0.194232	1.455691	0.885312
O160	O	-0.889131	0.817502	0.190257
O161	O	-0.555797	1.150835	0.523590
O162	O	-0.222464	1.484168	0.856924
N163	N	-0.888218	0.755572	0.252048
N164	N	-0.554885	1.088906	0.585381
N165	N	-0.221552	1.422239	0.918714
C166	C	-0.860932	0.722102	0.285449
C167	C	-0.527598	1.055435	0.618782
C168	C	-0.194265	1.388768	0.952115
O169	O	-0.889184	0.693651	0.313861
O170	O	-0.555850	1.026984	0.647194
O171	O	-0.222517	1.360317	0.980528
C172	C	-0.806328	0.722085	0.285444
C173	C	-0.472995	1.055418	0.618777
C174	C	-0.139662	1.388751	0.952111
C175	C	-0.779011	0.755535	0.252036
C176	C	-0.445678	1.088868	0.585369
C177	C	-0.112344	1.422201	0.918702
C178	C	-0.778976	0.822452	0.185233
C179	C	-0.445643	1.155785	0.518567
C180	C	-0.112310	1.489118	0.851900
C181	C	-0.724376	0.822431	0.185226
C182	C	-0.391043	1.155764	0.518559
C183	C	-0.057709	1.489097	0.851892
C184	C	-0.697093	0.788962	0.218623
C185	C	-0.363760	1.122295	0.551957
C186	C	-0.030426	1.455628	0.885290
C187	C	-0.724410	0.755514	0.252028
C188	C	-0.391077	1.088847	0.585362
C189	C	-0.057744	1.422180	0.918695
C190	C	-0.779042	0.688617	0.318847
C191	C	-0.445709	1.021950	0.652181
C192	C	-0.112376	1.355284	0.985514
C193	C	-0.724435	0.688603	0.318840
C194	C	-0.391102	1.021936	0.652173
C195	C	-0.057769	1.355270	0.985507
C196	C	-0.697118	0.722053	0.285432
C197	C	-0.363785	1.055387	0.618765
C198	C	-0.030451	1.388720	0.952099
C199	C	-0.642527	0.722024	0.285418
C200	C	-0.309193	1.055357	0.618751
C201	C	0.024140	1.388690	0.952085
N202	N	-0.615206	0.755475	0.252016
N203	N	-0.281873	1.088809	0.585349
N204	N	0.051460	1.422142	0.918683
C205	C	-0.642490	0.788944	0.218618
C206	C	-0.309156	1.122278	0.551952
C207	C	0.024177	1.455611	0.885285
C208	C	-0.975602	0.722141	0.285457
C209	C	-0.642269	1.055474	0.618790
C210	C	-0.308936	1.388808	0.952123
C211	C	-1.030204	0.722155	0.285459
C212	C	-0.696871	1.055489	0.618793
C213	C	-0.363538	1.388822	0.952126
C214	C	-1.030167	0.789078	0.218656
C215	C	-0.696834	1.122412	0.551990
C216	C	-0.363501	1.455745	0.885323
C217	C	-0.975564	0.789061	0.218652
C218	C	-0.642231	1.122395	0.551985
C219	C	-0.308897	1.455728	0.885318
C220	C	-0.948282	0.755593	0.252055
C221	C	-0.614949	1.088926	0.585388
C222	C	-0.281615	1.422260	0.918721
C223	C	-0.527824	0.788897	0.218605
C224	C	-0.194491	1.122231	0.551938
C225	C	0.138842	1.455564	0.885272
C226	C	-0.473219	0.788872	0.218599
C227	C	-0.139886	1.122205	0.551932
C228	C	0.193448	1.455538	0.885265
C229	C	-0.473261	0.721951	0.285403
C230	C	-0.139928	1.055284	0.618737
C231	C	0.193406	1.388617	0.952070
C232	C	-0.527862	0.721974	0.285408
C233	C	-0.194528	1.055307	0.618741
C234	C	0.138805	1.388641	0.952074
C235	C	-0.555142	0.755452	0.252007
C236	C	-0.221809	1.088785	0.585340
C237	C	0.111525	1.422118	0.918673
O238	O	-0.614260	0.693562	0.313793
O239	O	-0.280926	1.026895	0.647127
O240	O	0.052407	1.360229	0.980460
O241	O	-0.614231	0.817396	0.190216
O242	O	-0.280898	1.150729	0.523549
O243	O	0.052436	1.484062	0.856883
C244	C	-0.115606	0.755583	0.252048
C245	C	0.217727	1.088916	0.585382
C246	C	0.551060	1.422250	0.918715
C247	C	-0.057492	0.755627	0.252064
C248	C	0.275841	1.088960	0.585397
C249	C	0.609174	1.422293	0.918730
C250	C	-0.251970	0.755497	0.388386
C251	C	0.081363	1.088831	0.721719
C252	C	0.414696	1.422164	1.055053
C253	C	-0.251966	0.755504	0.446500
C254	C	0.081367	1.088838	0.779833
C255	C	0.414700	1.422171	1.113167
C256	C	-0.252000	0.891853	0.252049
C257	C	0.081333	1.225187	0.585382
C258	C	0.414666	1.558520	0.918715
C259	C	-0.252009	0.949967	0.252064
C260	C	0.081324	1.283301	0.585397
C261	C	0.414657	1.616634	0.918731
C262	C	-0.251951	0.755494	0.116170
C263	C	0.081383	1.088827	0.449504
C264	C	0.414716	1.422160	0.782837
C265	C	-0.251807	0.755588	0.058057
C266	C	0.081526	1.088921	0.391390
C267	C	0.414859	1.422254	0.724723
C268	C	-0.218432	0.789012	0.806886
C269	C	0.114902	1.122346	1.140220
C270	C	0.448235	1.455679	1.473553
C271	C	-0.218417	0.789019	0.861491
C272	C	0.114916	1.122352	1.194824
C273	C	0.448249	1.455685	1.528157
O274	O	-0.189967	0.817466	0.889747
O275	O	0.143367	1.150799	1.223080
O276	O	0.476700	1.484133	1.556414
N277	N	-0.251844	0.755562	0.888783
N278	N	0.081490	1.088895	1.222116
N279	N	0.414823	1.422229	1.555449
C280	C	-0.285283	0.722093	0.861468
C281	C	0.048050	1.055426	1.194801
C282	C	0.381384	1.388760	1.528134
O283	O	-0.313713	0.693636	0.889695
O284	O	0.019620	1.026969	1.223029
O285	O	0.352954	1.360302	1.556362
C286	C	-0.285294	0.722084	0.806864
C287	C	0.048039	1.055418	1.140198
C288	C	0.381372	1.388751	1.473531
C289	C	-0.251870	0.755547	0.779575
C290	C	0.081464	1.088880	1.112908
C291	C	0.414797	1.422214	1.446242
C292	C	-0.185009	0.822472	0.779597
C293	C	0.148324	1.155805	1.112930
C294	C	0.481657	1.489138	1.446264
C295	C	-0.185025	0.822466	0.724997
C296	C	0.148309	1.155799	1.058330
C297	C	0.481642	1.489133	1.391663
C298	C	-0.218462	0.789000	0.697685
C299	C	0.114871	1.122334	1.031019
C300	C	0.448204	1.455667	1.364352
C301	C	-0.251885	0.755541	0.724974
C302	C	0.081448	1.088874	1.058308
C303	C	0.414782	1.422208	1.391641
C304	C	-0.318731	0.688613	0.779550
C305	C	0.014603	1.021946	1.112883
C306	C	0.347936	1.355280	1.446217
C307	C	-0.318739	0.688607	0.724943
C308	C	0.014594	1.021940	1.058276
C309	C	0.347928	1.355273	1.391610
C310	C	-0.285314	0.722069	0.697654
C311	C	0.048019	1.055403	1.030987
C312	C	0.381352	1.388736	1.364320
C313	C	-0.285338	0.722070	0.643063
C314	C	0.047995	1.055403	0.976396
C315	C	0.381329	1.388736	1.309729
N316	N	-0.251912	0.755526	0.615771
N317	N	0.081422	1.088860	0.949104
N318	N	0.414755	1.422193	1.282437
C319	C	-0.218474	0.788992	0.643082
C320	C	0.114860	1.122325	0.976415
C321	C	0.448193	1.455658	1.309749
C322	C	-0.285256	0.722113	0.976138
C323	C	0.048077	1.055446	1.309472
C324	C	0.381411	1.388780	1.642805
C325	C	-0.285247	0.722124	1.030741
C326	C	0.048086	1.055457	1.364074
C327	C	0.381419	1.388791	1.697407
C328	C	-0.218381	0.789049	1.030760
C329	C	0.114952	1.122383	1.364093
C330	C	0.448286	1.455716	1.697427
C331	C	-0.218392	0.789041	0.976157
C332	C	0.114941	1.122374	1.309490
C333	C	0.448274	1.455707	1.642823
C334	C	-0.251829	0.755570	0.948846
C335	C	0.081504	1.088903	1.282180
C336	C	0.414837	1.422237	1.615513
C337	C	-0.218509	0.788977	0.528417
C338	C	0.114825	1.122311	0.861750
C339	C	0.448158	1.455644	1.195083
C340	C	-0.218529	0.788970	0.473811
C341	C	0.114805	1.122303	0.807145
C342	C	0.448138	1.455636	1.140478
C343	C	-0.285393	0.722043	0.473797
C344	C	0.047940	1.055376	0.807130
C345	C	0.381274	1.388710	1.140463
C346	C	-0.285375	0.722052	0.528397
C347	C	0.047958	1.055385	0.861731
C348	C	0.381291	1.388719	1.195064
C349	C	-0.251929	0.755521	0.555706
C350	C	0.081404	1.088854	0.889039
C351	C	0.414738	1.422187	1.222373
O352	O	-0.313773	0.693635	0.614771
O353	O	0.019561	1.026969	0.948105
O354	O	0.352894	1.360302	1.281438
O355	O	-0.190044	0.817439	0.614847
O356	O	0.143290	1.150773	0.948181
O357	O	0.476623	1.484106	1.281514
H358	H	-0.312760	0.054103	0.312609
H359	H	0.020573	0.387436	0.645942
H360	H	0.353906	0.720769	0.979275
H361	H	-0.953325	0.816300	0.191448
H362	H	-0.619992	1.149633	0.524782
H363	H	-0.286659	1.482966	0.858115
H364	H	-0.191310	0.816221	0.451595
H365	H	0.142024	1.149554	0.784928
H366	H	0.475357	1.482888	1.118262
N367	N	-0.321327	0.686020	0.946678
N368	N	0.012006	1.019353	1.280011
N369	N	0.345339	1.352686	1.613345
H370	H	-0.300082	0.661801	0.924020
H371	H	0.033251	0.995135	1.257353
H372	H	0.366585	1.328468	1.590687
H373	H	-0.342494	0.664862	0.972285
H374	H	-0.009161	0.998195	1.305619
H375	H	0.324172	1.331529	1.638952
H376	H	-0.191241	0.054099	0.191496
H377	H	0.142092	0.387432	0.524829
H378	H	0.475425	0.720765	0.858162
N379	N	-0.321618	-0.052176	0.321442
N380	N	0.011715	0.281158	0.654775
N381	N	0.345049	0.614491	0.988108
H382	H	-0.316536	-0.090908	0.316380
H383	H	0.016798	0.242425	0.649713
H384	H	0.350131	0.575758	0.983046
H385	H	-0.313534	-0.042610	0.358797
H386	H	0.019799	0.290723	0.692130
H387	H	0.353132	0.624057	1.025463
H388	H	-0.191272	0.816229	0.550645
H389	H	0.142061	1.149562	0.883978
H390	H	0.475395	1.482896	1.217312
N391	N	-0.808401	0.858550	0.149208
N392	N	-0.475068	1.191884	0.482542
N393	N	-0.141734	1.525217	0.815875
H394	H	-0.798858	0.895899	0.157365
H395	H	-0.465525	1.229232	0.490698
H396	H	-0.132192	1.562565	0.824032
H397	H	-0.798904	0.850403	0.111858
H398	H	-0.465571	1.183736	0.445192
H399	H	-0.132238	1.517070	0.778525
N400	N	-0.182411	-0.052170	0.182680
N401	N	0.150922	0.281164	0.516014
N402	N	0.484256	0.614497	0.849347
H403	H	-0.161199	-0.026585	0.161535
H404	H	0.172135	0.306749	0.494868
H405	H	0.505468	0.640082	0.828202
H406	H	-0.158245	-0.074801	0.204007
H407	H	0.175088	0.258533	0.537341
H408	H	0.508421	0.591866	0.870674
H409	H	-0.345949	0.661364	0.801759
H410	H	-0.012615	0.994697	1.135093
H411	H	0.320718	1.328031	1.468426
N412	N	-0.354808	0.652504	0.695493
N413	N	-0.021475	0.985838	1.028827
N414	N	0.311858	1.319171	1.362160
H415	H	-0.379050	0.673728	0.672842
H416	H	-0.045717	1.007061	1.006176
H417	H	0.287617	1.340394	1.339509
H418	H	-0.333527	0.628293	0.672864
H419	H	-0.000194	0.961627	1.006197
H420	H	0.333140	1.294960	1.339531
H421	H	-0.953392	0.694883	0.312656
H422	H	-0.620058	1.028216	0.645989
H423	H	-0.286725	1.361550	0.979323
H424	H	-0.312619	0.694798	0.451550
H425	H	0.020715	1.028131	0.784883
H426	H	0.354048	1.361464	1.118217
N427	N	-0.321574	0.563669	0.321348
N428	N	0.011759	0.897002	0.654681
N429	N	0.345092	1.230335	0.988014
H430	H	-0.342788	0.538085	0.342495
H431	H	-0.009454	0.871418	0.675828
H432	H	0.323879	1.204752	1.009161
H433	H	-0.300329	0.586350	0.345580
H434	H	0.033005	0.919683	0.678913
H435	H	0.366338	1.253016	1.012246
N436	N	-0.321578	0.450180	0.321376
N437	N	0.011755	0.783514	0.654710
N438	N	0.345089	1.116847	0.988043
H439	H	-0.342789	0.475767	0.342511
H440	H	-0.009456	0.809100	0.675844
H441	H	0.323878	1.142434	1.009178
H442	H	-0.345745	0.427502	0.300053
H443	H	-0.012412	0.760835	0.633386
H444	H	0.320922	1.094169	0.966719
H445	H	-0.801275	0.661376	0.346049
H446	H	-0.467942	0.994709	0.679383
H447	H	-0.134608	1.328042	1.012716
H448	H	-0.157734	0.206233	0.158106
H449	H	0.175600	0.539567	0.491440
H450	H	0.508933	0.872900	0.824773
H451	H	-0.157721	0.305283	0.158103
H452	H	0.175612	0.638617	0.491436
H453	H	0.508945	0.971950	0.824770
H454	H	-0.312597	0.694809	0.550617
H455	H	0.020736	1.028142	0.883951
H456	H	0.354069	1.361475	1.217284
H457	H	-1.052391	0.816333	0.191464
H458	H	-0.719058	1.149666	0.524797
H459	H	-0.385724	1.482999	0.858131
N460	N	-0.148972	0.858556	0.695567
N461	N	0.184362	1.191890	1.028900
N462	N	0.517695	1.525223	1.362234
H463	H	-0.127789	0.879753	0.721161
H464	H	0.205545	1.213087	1.054494
H465	H	0.538878	1.546420	1.387828
H466	H	-0.124776	0.837290	0.672910
H467	H	0.208557	1.170623	1.006243
H468	H	0.541891	1.503956	1.339577
N469	N	-0.182369	0.450166	0.182612
N470	N	0.150965	0.783500	0.515946
N471	N	0.484298	1.116833	0.849279
H472	H	-0.161156	0.475749	0.161464
H473	H	0.172178	0.809082	0.494797
H474	H	0.505511	1.142415	0.828131
H475	H	-0.158203	0.427538	0.203943
H476	H	0.175130	0.760872	0.537276
H477	H	0.508463	1.094205	0.870609
N478	N	-0.182358	0.563667	0.182599
N479	N	0.150975	0.897000	0.515932
N480	N	0.484309	1.230333	0.849265
H481	H	-0.187439	0.602399	0.187662
H482	H	0.145894	0.935733	0.520995
H483	H	0.479228	1.269066	0.854329
H484	H	-0.145030	0.554148	0.190809
H485	H	0.188303	0.887481	0.524142
H486	H	0.521637	1.220815	0.857475
H487	H	-0.346225	0.305272	0.345950
H488	H	-0.012892	0.638606	0.679284
H489	H	0.320441	0.971939	1.012617
N490	N	-0.148936	0.858564	0.809049
N491	N	0.184398	1.191897	1.142383
N492	N	0.517731	1.525231	1.475716
H493	H	-0.127766	0.879754	0.783468
H494	H	0.205567	1.213087	1.116802
H495	H	0.538901	1.546420	1.450135
H496	H	-0.170212	0.882752	0.831708
H497	H	0.163122	1.216085	1.165042
H498	H	0.496455	1.549418	1.498375
H499	H	-0.450979	0.816111	0.191392
H500	H	-0.117646	1.149444	0.524725
H501	H	0.215688	1.482777	0.858059
H502	H	-1.052442	0.694912	0.312659
H503	H	-0.719108	1.028245	0.645992
H504	H	-0.385775	1.361579	0.979325
H505	H	-0.191174	0.816288	0.953941
H506	H	0.142159	1.149621	1.287275
H507	H	0.475493	1.482955	1.620608
H508	H	-0.550105	0.694738	0.312613
H509	H	-0.216771	1.028071	0.645946
H510	H	0.116562	1.361405	0.979280
H511	H	-0.550030	0.816159	0.191408
H512	H	-0.216696	1.149492	0.524741
H513	H	0.116637	1.482826	0.858074
H514	H	-0.702137	0.849670	0.158024
H515	H	-0.368804	1.183003	0.491357
H516	H	-0.035471	1.516337	0.824690
H517	H	-0.346229	0.206227	0.345967
H518	H	-0.012896	0.539560	0.679301
H519	H	0.320437	0.872893	1.012634
H520	H	-0.702225	0.661350	0.346042
H521	H	-0.368891	0.994683	0.679376
H522	H	-0.035558	1.328016	1.012709
N523	N	-0.443829	0.685850	0.321420
N524	N	-0.110496	1.019183	0.654753
N525	N	0.222838	1.352517	0.988087
H526	H	-0.405094	0.690917	0.316344
H527	H	-0.071760	1.024250	0.649677
H528	H	0.261573	1.357583	0.983011
H529	H	-0.453346	0.693966	0.358772
H530	H	-0.120013	1.027299	0.692105
H531	H	0.213321	1.360633	1.025438
N532	N	-0.182314	0.825145	1.060222
N533	N	0.151019	1.158479	1.393556
N534	N	0.484353	1.491812	1.726889
H535	H	-0.187380	0.820069	1.098954
H536	H	0.145953	1.153403	1.432287
H537	H	0.479286	1.486736	1.765620
H538	H	-0.144974	0.817034	1.050681
H539	H	0.188359	1.150367	1.384015
H540	H	0.521693	1.483701	1.717348
N541	N	-0.321306	0.686040	1.060171
N542	N	0.012028	1.019373	1.393504
N543	N	0.345361	1.352707	1.726838
H544	H	-0.342489	0.664841	1.034579
H545	H	-0.009156	0.998174	1.367912
H546	H	0.324178	1.331508	1.701245
H547	H	-0.300016	0.661860	1.082821
H548	H	0.033318	0.995193	1.416154
H549	H	0.366651	1.328527	1.749488
