data_functionalizedCrystal
_audit_creation_method	'MofGen! by Chris Wilmer'
_symmetry_space_group_name_H-M	'P1'
_symmetry_Int_Tables_number	1
_symmetry_cell_setting	triclinic
loop_
_symmetry_equiv_pos_as_xyz
  x,y,z
_cell_length_a	15.298852
_cell_length_b	21.295419
_cell_length_c	15.296720
_cell_angle_alpha	99.657722
_cell_angle_beta	88.404329
_cell_angle_gamma	99.650947
loop_
_atom_site_label
_atom_site_type_symbol
_atom_site_fract_x
_atom_site_fract_y
_atom_site_fract_z
Zn1	Zn	-0.434016	-0.962250	0.435050
Zn2	Zn	-0.100683	-0.628917	0.768383
Zn3	Zn	0.232651	-0.295584	1.101717
Zn4	Zn	-0.555143	-0.997576	0.263259
Zn5	Zn	-0.221810	-0.664243	0.596592
Zn6	Zn	0.111524	-0.330909	0.929926
Zn7	Zn	-0.408743	-0.871626	0.288582
Zn8	Zn	-0.075410	-0.538293	0.621916
Zn9	Zn	0.257924	-0.204960	0.955249
Zn10	Zn	-0.580472	-0.877726	0.409680
Zn11	Zn	-0.247139	-0.544392	0.743013
Zn12	Zn	0.086195	-0.211059	1.076346
O13	O	-0.494593	-0.927295	0.349143
O14	O	-0.161260	-0.593961	0.682476
O15	O	0.172073	-0.260628	1.015809
O16	O	-0.450060	-1.055021	0.412281
O17	O	-0.116727	-0.721687	0.745614
O18	O	0.216606	-0.388354	1.078948
O19	O	-0.514546	-0.993100	0.144043
O20	O	-0.181212	-0.659766	0.477377
O21	O	0.152121	-0.326433	0.810710
O22	O	-0.289534	-0.866312	0.329227
O23	O	0.043799	-0.532978	0.662561
O24	O	0.377132	-0.199645	0.995894
O25	O	-0.539052	-1.080974	0.286067
O26	O	-0.205718	-0.747641	0.619400
O27	O	0.127615	-0.414307	0.952734
O28	O	-0.308102	-0.932893	0.436836
O29	O	0.025231	-0.599559	0.770170
O30	O	0.358564	-0.266226	1.103503
O31	O	-0.406986	-0.900565	0.162649
O32	O	-0.073653	-0.567232	0.495982
O33	O	0.259681	-0.233898	0.829315
O34	O	-0.431547	-0.784351	0.304627
O35	O	-0.098213	-0.451018	0.637960
O36	O	0.235120	-0.117685	0.971293
O37	O	-0.582221	-0.876707	0.535620
O38	O	-0.248888	-0.543374	0.868953
O39	O	0.084445	-0.210040	1.202286
O40	O	-0.557715	-0.788832	0.393596
O41	O	-0.224382	-0.455499	0.726929
O42	O	0.108952	-0.122166	1.060263
O43	O	-0.474621	-0.938807	0.554259
O44	O	-0.141287	-0.605474	0.887593
O45	O	0.192046	-0.272140	1.220926
O46	O	-0.681064	-0.999014	0.261466
O47	O	-0.347731	-0.665680	0.594800
O48	O	-0.014397	-0.332347	0.928133
O49	O	-0.699673	-0.910960	0.369041
O50	O	-0.366340	-0.577627	0.702374
O51	O	-0.033006	-0.244294	1.035708
C52	C	-0.494638	-0.763753	0.349107
C53	C	-0.161304	-0.430419	0.682440
C54	C	0.172029	-0.097086	1.015773
C55	C	-0.494681	-0.693790	0.349108
C56	C	-0.161348	-0.360456	0.682442
C57	C	0.171985	-0.027123	1.015775
C58	C	-0.448451	-0.647436	0.414898
C59	C	-0.115118	-0.314103	0.748231
C60	C	0.218215	0.019231	1.081565
C61	C	-0.448431	-0.581690	0.414904
C62	C	-0.115098	-0.248357	0.748237
C63	C	0.218236	0.084976	1.081571
C64	C	-0.494658	-0.562302	0.349126
C65	C	-0.161325	-0.228969	0.682460
C66	C	0.172009	0.104365	1.015793
C67	C	-0.540890	-0.608665	0.283325
C68	C	-0.207557	-0.275332	0.616659
C69	C	0.125777	0.058001	0.949992
C70	C	-0.540902	-0.674409	0.283316
C71	C	-0.207568	-0.341076	0.616650
C72	C	0.125765	-0.007742	0.949983
N73	N	-0.570113	-0.470583	0.329036
N74	N	-0.236780	-0.137249	0.662369
N75	N	0.096554	0.196084	0.995703
N76	N	-0.570100	-0.408128	0.329050
N77	N	-0.236767	-0.074795	0.662384
N78	N	0.096566	0.258539	0.995717
C79	C	-0.494624	-0.364221	0.349149
C80	C	-0.161290	-0.030887	0.682482
C81	C	0.172043	0.302446	1.015815
N82	N	-0.419162	-0.385125	0.369250
N83	N	-0.085828	-0.051792	0.702583
N84	N	0.247505	0.281541	1.035916
N85	N	-0.419176	-0.447585	0.369240
N86	N	-0.085843	-0.114252	0.702573
N87	N	0.247491	0.219081	1.035907
C88	C	-0.494650	-0.491016	0.349129
C89	C	-0.161316	-0.157682	0.682462
C90	C	0.172017	0.175651	1.015795
C91	C	-0.448367	-0.246577	0.414948
C92	C	-0.115034	0.086756	0.748282
C93	C	0.218299	0.420089	1.081615
C94	C	-0.448345	-0.180831	0.414948
C95	C	-0.115011	0.152503	0.748282
C96	C	0.218322	0.485836	1.081615
C97	C	-0.540812	-0.207807	0.283373
C98	C	-0.207479	0.125526	0.616706
C99	C	0.125855	0.458859	0.950040
C100	C	-0.540826	-0.273552	0.283370
C101	C	-0.207493	0.059781	0.616703
C102	C	0.125840	0.393115	0.950036
C103	C	-0.494606	-0.292933	0.349162
C104	C	-0.161273	0.040401	0.682495
C105	C	0.172061	0.373734	1.015829
C106	C	-0.722151	-0.959497	0.309772
C107	C	-0.388817	-0.626164	0.643105
C108	C	-0.055484	-0.292831	0.976438
C109	C	-0.819506	-0.973329	0.292958
C110	C	-0.486172	-0.639995	0.626291
C111	C	-0.152839	-0.306662	0.959625
C112	C	-1.132780	-0.828845	0.469398
C113	C	-0.799446	-0.495511	0.802731
C114	C	-0.466113	-0.162178	1.136064
C115	C	-1.041311	-0.815850	0.485201
C116	C	-0.707977	-0.482517	0.818534
C117	C	-0.374644	-0.149184	1.151868
C118	C	-0.985855	-0.855219	0.437142
C119	C	-0.652522	-0.521885	0.770475
C120	C	-0.319188	-0.188552	1.103808
C121	C	-1.021877	-0.907584	0.373276
C122	C	-0.688544	-0.574250	0.706609
C123	C	-0.355210	-0.240917	1.039943
C124	C	-1.113356	-0.920582	0.357476
C125	C	-0.780022	-0.587249	0.690809
C126	C	-0.446689	-0.253915	1.024142
C127	C	-0.966431	-0.946956	0.325220
C128	C	-0.633098	-0.613623	0.658553
C129	C	-0.299764	-0.280290	0.991886
C130	C	-1.002453	-0.999321	0.261354
C131	C	-0.669120	-0.665988	0.594688
C132	C	-0.335786	-0.332655	0.928021
C133	C	-1.093923	-1.012317	0.245557
C134	C	-0.760589	-0.678984	0.578890
C135	C	-0.427256	-0.345650	0.912223
C136	C	-1.149378	-0.972949	0.293616
C137	C	-0.816045	-0.639615	0.626949
C138	C	-0.482712	-0.306282	0.960283
C139	C	-0.874952	-0.933958	0.341020
C140	C	-0.541619	-0.600624	0.674353
C141	C	-0.208286	-0.267291	1.007687
C142	C	-0.855528	-1.025695	0.229098
C143	C	-0.522195	-0.692362	0.562432
C144	C	-0.188862	-0.359029	0.895765
C145	C	-0.946997	-1.038689	0.213295
C146	C	-0.613664	-0.705356	0.546628
C147	C	-0.280331	-0.372023	0.879961
C148	C	-0.266151	-0.894981	0.388687
C149	C	0.067182	-0.561648	0.722020
C150	C	0.400516	-0.228315	1.055353
C151	C	-0.168802	-0.881211	0.405538
C152	C	0.164531	-0.547878	0.738871
C153	C	0.497864	-0.214545	1.072205
C154	C	-0.534066	-0.904497	0.577610
C155	C	-0.200732	-0.571163	0.910944
C156	C	0.132601	-0.237830	1.244277
C157	C	-0.550886	-0.894782	0.674970
C158	C	-0.217553	-0.561448	1.008303
C159	C	0.115780	-0.228115	1.341636
C160	C	-0.494560	-0.091477	0.349173
C161	C	-0.161226	0.241856	0.682506
C162	C	0.172107	0.575190	1.015840
C163	C	-0.494571	-0.161447	0.349169
C164	C	-0.161237	0.171886	0.682503
C165	C	0.172096	0.505220	1.015836
C166	C	-0.455212	-0.950031	0.121575
C167	C	-0.121878	-0.616698	0.454908
C168	C	0.211455	-0.283364	0.788242
C169	C	-0.438144	-0.959833	0.024259
C170	C	-0.104811	-0.626500	0.357592
C171	C	0.228522	-0.293166	0.690925
C172	C	-0.374220	-0.996731	0.988227
C173	C	-0.040887	-0.663398	1.321560
C174	C	0.292447	-0.330065	1.654893
C175	C	-0.358418	-1.005863	0.896753
C176	C	-0.025084	-0.672530	1.230086
C177	C	0.308249	-0.339197	1.563419
C178	C	-0.406533	-0.978094	0.841302
C179	C	-0.073200	-0.644760	1.174636
C180	C	0.260134	-0.311427	1.507969
C181	C	-0.470454	-0.941191	0.877335
C182	C	-0.137121	-0.607857	1.210669
C183	C	0.196212	-0.274524	1.544002
C184	C	-0.486263	-0.932062	0.968817
C185	C	-0.152930	-0.598729	1.302151
C186	C	0.180404	-0.265395	1.635484
C187	C	-0.518576	-0.913424	0.821893
C188	C	-0.185243	-0.580091	1.155227
C189	C	0.148090	-0.246757	1.488560
C190	C	-0.582497	-0.876521	0.857926
C191	C	-0.249164	-0.543188	1.191259
C192	C	0.084169	-0.209854	1.524593
C193	C	-0.598303	-0.867394	0.949400
C194	C	-0.264969	-0.534060	1.282733
C195	C	0.068364	-0.200727	1.616066
C196	C	-0.550187	-0.895164	1.004850
C197	C	-0.216854	-0.561830	1.338183
C198	C	0.116479	-0.228497	1.671516
C199	C	-0.502767	-0.922553	0.730411
C200	C	-0.169434	-0.589219	1.063744
C201	C	0.163899	-0.255886	1.397078
C202	C	-0.614810	-0.857883	0.711002
C203	C	-0.281477	-0.524550	1.044335
C204	C	0.051856	-0.191217	1.377668
C205	C	-0.630613	-0.848751	0.802476
C206	C	-0.297279	-0.515418	1.135809
C207	C	0.036054	-0.182085	1.469143
H208	H	-0.578451	-0.192022	0.229815
H209	H	-0.245117	0.141311	0.563149
H210	H	0.088216	0.474644	0.896482
H211	H	-0.410780	-0.543942	0.468477
H212	H	-0.077447	-0.210609	0.801810
H213	H	0.255886	0.122725	1.135144
H214	H	-0.410726	-0.262357	0.468516
H215	H	-0.077392	0.070976	0.801849
H216	H	0.255941	0.404309	1.135182
Br217	Br	-0.603563	-0.336464	0.194073
Br218	Br	-0.270229	-0.003131	0.527406
Br219	Br	0.063104	0.330202	0.860740
H220	H	-0.563050	-0.887730	1.079336
H221	H	-0.229717	-0.554397	1.412670
H222	H	0.103616	-0.221064	1.746003
H223	H	-0.393663	-0.985531	0.766821
H224	H	-0.060330	-0.652198	1.100154
H225	H	0.273004	-0.318865	1.433487
Br226	Br	-1.273527	-0.990604	0.272206
Br227	Br	-0.940193	-0.657271	0.605539
Br228	Br	-0.606860	-0.323937	0.938872
Br229	Br	-0.995895	-1.109755	0.126624
Br230	Br	-0.662562	-0.776422	0.459958
Br231	Br	-0.329228	-0.443088	0.793291
H232	H	-1.177940	-0.796800	0.508525
H233	H	-0.844606	-0.463466	0.841859
H234	H	-0.511273	-0.130133	1.175192
Br235	Br	-0.826077	-0.862894	0.427693
Br236	Br	-0.492743	-0.529561	0.761026
Br237	Br	-0.159410	-0.196227	1.094360
H238	H	-0.410693	-0.143089	0.468521
H239	H	-0.077360	0.190245	0.801855
H240	H	0.255974	0.523578	1.135188
H241	H	-0.911378	-0.844635	0.450012
H242	H	-0.578044	-0.511302	0.783346
H243	H	-0.244711	-0.177969	1.116679
Br244	Br	-1.142811	-1.083393	0.158897
Br245	Br	-0.809478	-0.750059	0.492230
Br246	Br	-0.476144	-0.416726	0.825563
H247	H	-0.578527	-0.592875	0.229768
H248	H	-0.245194	-0.259542	0.563102
H249	H	0.088139	0.073792	0.896435
Br250	Br	-0.992430	-0.744790	0.571876
Br251	Br	-0.659097	-0.411456	0.905209
Br252	Br	-0.325763	-0.078123	1.238542
H253	H	-0.810377	-1.057753	0.189966
H254	H	-0.477043	-0.724420	0.523299
H255	H	-0.143710	-0.391087	0.856632
H256	H	-0.650359	-0.837351	0.978733
H257	H	-0.317026	-0.504018	1.312066
H258	H	0.016308	-0.170684	1.645399
H259	H	-0.450721	-0.952599	0.701083
H260	H	-0.117388	-0.619266	1.034416
H261	H	0.215945	-0.285932	1.367749
Br262	Br	-0.271674	-1.055945	0.847856
Br263	Br	0.061660	-0.722612	1.181189
Br264	Br	0.394993	-0.389279	1.514523
Br265	Br	-0.603642	-0.737322	0.194020
Br266	Br	-0.270309	-0.403989	0.527353
Br267	Br	0.063025	-0.070655	0.860686
H268	H	-0.335056	-1.019342	1.033381
H269	H	-0.001723	-0.686008	1.366714
H270	H	0.331610	-0.352675	1.700047
Br271	Br	-0.717360	-0.798670	0.851388
Br272	Br	-0.384026	-0.465337	1.184722
Br273	Br	-0.050693	-0.132003	1.518055
H274	H	-0.410814	-0.663211	0.468471
H275	H	-0.077481	-0.329877	0.801804
H276	H	0.255852	0.003456	1.135137
Br277	Br	-0.680122	-0.820200	0.635754
Br278	Br	-0.346789	-0.486867	0.969088
Br279	Br	-0.013455	-0.153533	1.302421
