data_functionalizedCrystal
_audit_creation_method	'MofGen! by Chris Wilmer'
_symmetry_space_group_name_H-M	'P1'
_symmetry_Int_Tables_number	1
_symmetry_cell_setting	triclinic
loop_
_symmetry_equiv_pos_as_xyz
  x,y,z
_cell_length_a	16.992694
_cell_length_b	10.868271
_cell_length_c	16.974813
_cell_angle_alpha	93.659696
_cell_angle_beta	87.024634
_cell_angle_gamma	89.998604
loop_
_atom_site_label
_atom_site_type_symbol
_atom_site_fract_x
_atom_site_fract_y
_atom_site_fract_z
O1	O	1.040210	0.118859	0.167650
O2	O	1.540210	0.618859	0.667650
O3	O	0.811927	0.118712	0.165811
O4	O	1.311927	0.618712	0.665811
O5	O	0.932433	0.107357	0.052029
O6	O	1.432433	0.607357	0.552029
O7	O	0.919705	0.130214	0.281432
O8	O	1.419705	0.630214	0.781432
O9	O	0.932423	-0.097288	0.052024
O10	O	1.432423	0.402712	0.552024
O11	O	0.811917	-0.085933	0.165805
O12	O	1.311917	0.414067	0.665805
O13	O	1.040201	-0.085786	0.167645
O14	O	1.540201	0.414214	0.667645
Zn15	Zn	0.926057	-0.118352	0.166724
Zn16	Zn	1.426057	0.381648	0.666724
Zn17	Zn	0.926070	0.151277	0.166731
Zn18	Zn	1.426070	0.651277	0.666731
O19	O	0.919695	-0.074432	0.281426
O20	O	1.419695	0.425568	0.781426
C21	C	0.782712	0.016158	0.163442
C22	C	1.282712	0.516158	0.663442
C23	C	0.695676	0.015469	0.156382
C24	C	1.195676	0.515469	0.656382
N25	N	0.926054	-0.302366	0.166719
N26	N	1.426054	0.197634	0.666719
C27	C	0.645362	0.022255	0.224498
C28	C	1.145362	0.522255	0.724498
C29	C	0.563582	0.021577	0.217860
C30	C	1.063582	0.521577	0.717860
C31	C	0.532118	0.014121	0.143106
C32	C	1.032118	0.514121	0.643106
C33	C	0.582439	0.007331	0.074985
C34	C	1.082439	0.507331	0.574985
C35	C	0.664216	0.008001	0.081623
C36	C	1.164216	0.508001	0.581623
C37	C	0.288550	0.011347	0.115591
C38	C	0.788550	0.511347	0.615591
C39	C	0.206766	0.010681	0.108957
C40	C	0.706766	0.510681	0.608957
C41	C	0.187915	0.024924	0.251833
C42	C	0.687915	0.524924	0.751833
C43	C	0.269696	0.025601	0.258465
C44	C	0.769696	0.525601	0.758465
C45	C	0.320009	0.018804	0.190344
C46	C	0.820009	0.518804	0.690344
N47	N	0.448527	0.013432	0.136319
N48	N	0.948527	0.513432	0.636319
N49	N	0.403599	0.019485	0.197132
N50	N	0.903599	0.519485	0.697132
C51	C	0.926066	-0.553371	0.166729
C52	C	1.426066	-0.053371	0.666729
C53	C	0.926057	-0.413694	0.166726
C54	C	1.426057	0.086306	0.666726
C55	C	1.069416	0.016770	0.170013
C56	C	1.569416	0.516770	0.670013
C57	C	1.156452	0.017467	0.177073
C58	C	1.656452	0.517467	0.677073
C59	C	0.931944	0.002099	0.022537
C60	C	1.431944	0.502099	0.522537
C61	C	0.930491	-0.006646	-0.065332
C62	C	1.430491	0.493354	0.434668
N63	N	0.926080	0.335291	0.166730
N64	N	1.426080	0.835291	0.666730
C65	C	0.929816	0.100796	-0.106605
C66	C	1.429816	0.600796	0.393395
C67	C	0.928447	0.092574	-0.189167
C68	C	1.428447	0.592574	0.310833
C69	C	0.927758	-0.023091	-0.230454
C70	C	1.427758	0.476909	0.269546
C71	C	0.928431	-0.130541	-0.189174
C72	C	1.428431	0.369459	0.310826
C73	C	0.929795	-0.122318	-0.106614
C74	C	1.429795	0.377682	0.393386
C75	C	0.923673	-0.059645	-0.477373
C76	C	1.423673	0.440355	0.022627
C77	C	0.922311	-0.067860	-0.559940
C78	C	1.422311	0.432140	-0.059940
C79	C	0.922326	0.155257	-0.559926
C80	C	1.422326	0.655257	-0.059926
C81	C	0.923695	0.163469	-0.477365
C82	C	1.423695	0.663469	0.022635
C83	C	0.924363	0.056019	-0.436092
C84	C	1.424363	0.556019	0.063908
N85	N	0.926361	-0.031497	-0.314845
N86	N	1.426361	0.468503	0.185155
N87	N	0.925755	0.064427	-0.351702
N88	N	1.425755	0.564427	0.148298
C89	C	0.920184	0.030829	0.310918
C90	C	1.420184	0.530829	0.810918
C91	C	0.921636	0.039583	0.398787
C92	C	1.421636	0.539583	0.898787
H93	H	0.670973	0.028327	0.285371
H94	H	1.170973	0.528327	0.785371
H95	H	0.295307	0.031686	0.319338
H96	H	0.795307	0.531686	0.819338
Cl97	Cl	0.167213	0.001281	0.014973
Cl98	Cl	0.667213	0.501281	0.514973
Cl99	Cl	0.927600	0.227652	-0.241050
Cl100	Cl	1.427600	0.727652	0.258950
H101	H	0.329506	0.005812	0.060122
H102	H	0.829506	0.505812	0.560122
H103	H	0.556814	0.001243	0.014118
H104	H	1.056814	0.501243	0.514118
H105	H	0.146942	0.030455	0.307293
H106	H	0.646942	0.530455	0.807293
H107	H	0.522619	0.027104	0.273327
H108	H	1.022619	0.527104	0.773327
H109	H	0.927865	-0.224718	-0.222797
H110	H	1.427865	0.275282	0.277203
H111	H	0.705182	0.002476	0.026156
H112	H	1.205182	0.502476	0.526156
H113	H	0.924233	-0.147139	-0.443780
H114	H	1.424233	0.352861	0.056220
H115	H	0.930333	-0.209810	-0.073009
H116	H	1.430333	0.290190	0.426991
Cl117	Cl	0.930688	0.246211	-0.054710
Cl118	Cl	1.430688	0.746211	0.445290
Cl119	Cl	0.924563	0.308883	-0.425467
Cl120	Cl	1.424563	0.808883	0.074533
Cl121	Cl	0.921484	0.290328	-0.611816
Cl122	Cl	1.421484	0.790328	-0.111816
Cl123	Cl	0.921450	-0.213278	-0.611843
Cl124	Cl	1.421450	0.286722	-0.111843
