data_functionalizedCrystal
_audit_creation_method	'MofGen! by Chris Wilmer'
_symmetry_space_group_name_H-M	'P1'
_symmetry_Int_Tables_number	1
_symmetry_cell_setting	triclinic
loop_
_symmetry_equiv_pos_as_xyz
  x,y,z
_cell_length_a	11.792241
_cell_length_b	10.723024
_cell_length_c	9.798715
_cell_angle_alpha	90.001978
_cell_angle_beta	89.997178
_cell_angle_gamma	95.669357
loop_
_atom_site_label
_atom_site_type_symbol
_atom_site_fract_x
_atom_site_fract_y
_atom_site_fract_z
O1	O	1.507282	-0.171036	-0.113460
O2	O	1.840615	0.162297	0.219873
O3	O	2.173949	0.495631	0.553206
O4	O	1.176980	-0.188663	-0.113469
O5	O	1.510313	0.144670	0.219865
O6	O	1.843646	0.478003	0.553198
O7	O	1.349750	0.001747	-0.113459
O8	O	1.683083	0.335080	0.219874
O9	O	2.016416	0.668413	0.553207
O10	O	1.334512	-0.361446	-0.113470
O11	O	1.667845	-0.028113	0.219864
O12	O	2.001179	0.305221	0.553197
O13	O	1.349737	0.001747	0.113523
O14	O	1.683070	0.335081	0.446856
O15	O	2.016403	0.668414	0.780190
O16	O	1.176967	-0.188663	0.113514
O17	O	1.510300	0.144671	0.446847
O18	O	1.843633	0.478004	0.780180
O19	O	1.507269	-0.171035	0.113522
O20	O	1.840602	0.162298	0.446855
O21	O	2.173936	0.495631	0.780189
Zn22	Zn	1.342116	-0.179849	0.149556
Zn23	Zn	1.675449	0.153484	0.482889
Zn24	Zn	2.008783	0.486818	0.816223
Zn25	Zn	1.342133	-0.179850	-0.149503
Zn26	Zn	1.675466	0.153484	0.183831
Zn27	Zn	2.008800	0.486817	0.517164
O28	O	1.334499	-0.361445	0.113513
O29	O	1.667832	-0.028112	0.446846
O30	O	2.001166	0.305221	0.780179
C31	C	1.348634	0.048244	0.000030
C32	C	1.681968	0.381577	0.333364
C33	C	2.015301	0.714910	0.666697
C34	C	1.345317	0.186789	0.000025
C35	C	1.678650	0.520122	0.333359
C36	C	2.011983	0.853456	0.666692
C37	C	1.134680	-0.187556	0.000021
C38	C	1.468013	0.145778	0.333355
C39	C	1.801346	0.479111	0.666688
C40	C	1.008659	-0.184242	0.000018
C41	C	1.341992	0.149092	0.333352
C42	C	1.675325	0.482425	0.666685
C43	C	1.549569	-0.172143	0.000029
C44	C	1.882902	0.161190	0.333362
C45	C	2.216236	0.494524	0.666696
C46	C	1.675590	-0.175457	0.000023
C47	C	2.008923	0.157876	0.333356
C48	C	2.342257	0.491210	0.666690
C49	C	1.906315	-0.181551	0.000023
C50	C	2.239649	0.151782	0.333357
C51	C	2.572982	0.485115	0.666690
C52	C	1.777923	-0.178165	0.000024
C53	C	2.111256	0.155168	0.333357
C54	C	2.444590	0.488501	0.666690
C55	C	1.335614	-0.407942	0.000020
C56	C	1.668948	-0.074609	0.333353
C57	C	2.002281	0.258724	0.666687
C58	C	1.338932	-0.546488	0.000016
C59	C	1.672265	-0.213154	0.333349
C60	C	2.005599	0.120179	0.666683
N61	N	1.342112	-0.179848	0.353656
N62	N	1.675446	0.153485	0.686989
N63	N	2.008779	0.486819	1.020322
C64	C	1.441990	0.262028	0.000026
C65	C	1.775323	0.595361	0.333359
C66	C	2.108656	0.928694	0.666693
C67	C	1.438563	0.405222	0.000021
C68	C	1.771896	0.738555	0.333354
C69	C	2.105230	1.071889	0.666688
N70	N	1.342145	-0.179841	-0.353602
N71	N	1.675479	0.153492	-0.020269
N72	N	2.008812	0.486826	0.313064
C73	C	1.414654	-0.099549	0.421437
C74	C	1.747987	0.233785	0.754770
C75	C	2.081321	0.567118	1.088103
C76	C	1.414672	-0.099544	0.578599
C77	C	1.748005	0.233789	0.911933
C78	C	2.081339	0.567123	1.245266
H79	H	1.521323	0.469873	0.000027
H80	H	1.854656	0.803207	0.333361
H81	H	2.187989	1.136540	0.666694
H82	H	1.280016	-0.248588	0.411977
H83	H	1.613349	0.084746	0.745310
H84	H	1.946683	0.418079	1.078643
O85	O	1.259871	-0.270903	0.569192
O86	O	1.593204	0.062431	0.902525
O87	O	1.926538	0.395764	1.235858
H88	H	1.275319	-0.368245	0.596515
H89	H	1.608652	-0.034911	0.929849
H90	H	1.941985	0.298422	1.263182
O91	O	1.496955	-0.008483	0.655794
O92	O	1.830288	0.324850	0.989127
O93	O	2.163622	0.658184	1.322461
H94	H	1.481519	0.088857	0.628448
H95	H	1.814852	0.422190	0.961781
H96	H	2.148185	0.755524	1.295114
H97	H	1.527292	0.220431	0.000036
H98	H	1.860625	0.553764	0.333370
H99	H	2.193959	0.887098	0.666703
H100	H	1.256168	0.388868	0.000025
H101	H	1.589501	0.722201	0.333358
H102	H	1.922834	1.055535	0.666691
H103	H	1.260014	0.228386	0.000014
H104	H	1.593348	0.561719	0.333348
H105	H	1.926681	0.895052	0.666681
H106	H	1.476743	-0.030799	0.363117
H107	H	1.810076	0.302534	0.696451
H108	H	2.143409	0.635868	1.029784
