data_functionalizedCrystal
_audit_creation_method	'MofGen! by Chris Wilmer'
_symmetry_space_group_name_H-M	'P1'
_symmetry_Int_Tables_number	1
_symmetry_cell_setting	triclinic
loop_
_symmetry_equiv_pos_as_xyz
  x,y,z
_cell_length_a	15.297475
_cell_length_b	12.645330
_cell_length_c	15.296720
_cell_angle_alpha	99.649341
_cell_angle_beta	91.617114
_cell_angle_gamma	80.321044
loop_
_atom_site_label
_atom_site_type_symbol
_atom_site_fract_x
_atom_site_fract_y
_atom_site_fract_z
Zn1	Zn	1.253448	-0.825067	-0.726648
Zn2	Zn	1.753448	-0.325067	-0.226648
Zn3	Zn	1.278720	-0.977718	-0.580172
Zn4	Zn	1.778720	-0.477718	-0.080172
Zn5	Zn	1.132323	-0.765511	-0.554885
Zn6	Zn	1.632323	-0.265511	-0.054885
Zn7	Zn	1.106946	-0.967297	-0.701300
Zn8	Zn	1.606946	-0.467297	-0.201300
O9	O	1.192859	-0.883898	-0.640751
O10	O	1.692859	-0.383898	-0.140751
O11	O	1.379380	-0.874601	-0.728408
O12	O	1.879380	-0.374601	-0.228408
O13	O	1.280497	-0.929005	-0.454242
O14	O	1.780497	-0.429005	0.045758
O15	O	1.148435	-0.625078	-0.577695
O16	O	1.648435	-0.125078	-0.077695
O17	O	1.397947	-0.986754	-0.620794
O18	O	1.897947	-0.486754	-0.120794
O19	O	1.237425	-0.668833	-0.703888
O20	O	1.737425	-0.168833	-0.203888
O21	O	1.172939	-0.773098	-0.435663
O22	O	1.672939	-0.273098	0.064337
O23	O	1.006377	-0.762993	-0.553116
O24	O	1.506377	-0.262993	-0.053116
O25	O	1.105183	-0.968993	-0.827238
O26	O	1.605183	-0.468993	-0.327238
O27	O	0.987732	-0.911244	-0.660687
O28	O	1.487732	-0.411244	-0.160687
O29	O	1.212818	-0.864497	-0.845861
O30	O	1.712818	-0.364497	-0.345861
O31	O	1.255889	-1.124669	-0.596215
O32	O	1.755889	-0.624669	-0.096215
O33	O	1.129687	-1.117013	-0.685207
O34	O	1.629687	-0.617013	-0.185207
C35	C	0.965271	-0.829526	-0.601408
C36	C	1.465271	-0.329526	-0.101408
C37	C	0.867904	-0.806295	-0.584597
C38	C	1.367904	-0.306295	-0.084597
C39	C	1.192797	-1.159311	-0.640728
C40	C	1.692797	-0.659311	-0.140728
C41	C	1.192846	-1.277157	-0.640761
C42	C	1.692846	-0.777157	-0.140761
C43	C	0.554772	-1.049945	-0.760902
C44	C	1.054772	-0.549945	-0.260902
C45	C	0.646253	-1.071780	-0.776693
C46	C	1.146253	-0.571780	-0.276693
C47	C	0.701670	-1.005410	-0.728671
C48	C	1.201670	-0.505410	-0.228671
C49	C	0.665597	-0.917203	-0.664853
C50	C	1.165597	-0.417203	-0.164853
C51	C	0.574108	-0.895371	-0.649055
C52	C	1.074108	-0.395371	-0.149055
C53	C	0.721006	-0.850836	-0.616824
C54	C	1.221006	-0.350836	-0.116824
C55	C	0.684933	-0.762629	-0.553007
C56	C	1.184933	-0.262629	-0.053007
C57	C	0.593452	-0.740801	-0.537212
C58	C	1.093452	-0.240801	-0.037212
C59	C	0.538035	-0.807170	-0.585234
C60	C	1.038035	-0.307170	-0.085234
C61	C	0.812496	-0.872668	-0.632623
C62	C	1.312496	-0.372668	-0.132623
C63	C	0.831831	-0.718094	-0.520776
C64	C	1.331831	-0.218094	-0.020776
C65	C	0.740350	-0.696259	-0.504984
C66	C	1.240350	-0.196259	-0.004984
C67	C	1.113695	-1.440051	-0.697003
C68	C	1.613695	-0.940051	-0.197003
C69	C	1.113388	-1.317372	-0.696725
C70	C	1.613388	-0.817372	-0.196725
C71	C	1.183843	-1.300270	-0.544135
C72	C	1.683843	-0.800270	-0.044135
C73	C	1.183360	-1.422840	-0.544476
C74	C	1.683360	-0.922840	-0.044476
C75	C	1.281541	-1.470384	-0.680468
C76	C	1.781541	-0.970384	-0.180468
C77	C	1.280623	-1.347981	-0.682388
C78	C	1.780623	-0.847981	-0.182388
C79	C	1.421336	-0.938483	-0.680249
C80	C	1.921336	-0.438483	-0.180249
C81	C	1.518699	-0.961744	-0.697081
C82	C	2.018699	-0.461744	-0.197081
C83	C	1.153351	-0.922226	-0.869221
C84	C	1.653351	-0.422226	-0.369221
C85	C	1.136514	-0.938559	-0.966581
C86	C	1.636514	-0.438559	-0.466581
C87	C	1.192942	-0.607419	-0.640798
C88	C	1.692942	-0.107419	-0.140798
C89	C	1.192977	-0.489600	-0.640818
C90	C	1.692977	0.010400	-0.140818
C91	C	1.313223	-0.766986	-1.279808
C92	C	1.813223	-0.266986	-0.779808
C93	C	1.329047	-0.751644	-1.188334
C94	C	1.829047	-0.251644	-0.688334
C95	C	1.280915	-0.798371	-1.132891
C96	C	1.780915	-0.298371	-0.632891
C97	C	1.216957	-0.860444	-1.168931
C98	C	1.716957	-0.360444	-0.668931
C99	C	1.201136	-0.875795	-1.260415
C100	C	1.701136	-0.375795	-0.760415
C101	C	1.168828	-0.907179	-1.113499
C102	C	1.668828	-0.407179	-0.613499
C103	C	1.104870	-0.969252	-1.149538
C104	C	1.604870	-0.469252	-0.649538
C105	C	1.089052	-0.984600	-1.241013
C106	C	1.589052	-0.484600	-0.741013
C107	C	1.137183	-0.937873	-1.296456
C108	C	1.637183	-0.437873	-0.796456
C109	C	1.184649	-0.891828	-1.022015
C110	C	1.684649	-0.391828	-0.522015
C111	C	1.072562	-1.000637	-1.002622
C112	C	1.572562	-0.500637	-0.502622
C113	C	1.056738	-1.015979	-1.094096
C114	C	1.556738	-0.515979	-0.594096
C115	C	1.232264	-0.845655	-0.413179
C116	C	1.732264	-0.345655	0.086821
C117	C	1.249270	-0.829064	-0.315849
C118	C	1.749270	-0.329064	0.184151
H119	H	0.841857	-0.944487	-0.684584
H120	H	1.341857	-0.444487	-0.184584
H121	H	0.710966	-0.624440	-0.453023
H122	H	1.210966	-0.124440	0.046977
H123	H	0.463542	-0.789395	-0.572381
H124	H	0.963542	-0.289395	-0.072381
H125	H	1.117294	-1.484703	-0.768350
H126	H	1.617294	-0.984703	-0.268350
H127	H	1.120346	-1.250226	-0.512165
H128	H	1.620346	-0.750226	-0.012165
H129	H	0.509645	-1.103979	-0.799989
H130	H	1.009645	-0.603979	-0.299989
H131	H	1.047408	-1.269102	-0.669194
H132	H	1.547408	-0.769102	-0.169194
H133	H	0.776158	-1.023193	-0.741533
H134	H	1.276158	-0.523193	-0.241533
H135	H	0.564086	-0.668986	-0.485238
H136	H	1.064086	-0.168986	0.014762
H137	H	1.033370	-1.038688	-0.957480
H138	H	1.533370	-0.538688	-0.457480
H139	H	1.352410	-0.728955	-1.324958
H140	H	1.852410	-0.228955	-0.824958
H141	H	1.239467	-1.454946	-0.500326
H142	H	1.739467	-0.954946	-0.000326
H143	H	1.340412	-1.503081	-0.639741
H144	H	1.840412	-1.003081	-0.139741
H145	H	0.876953	-0.664052	-0.481671
H146	H	1.376953	-0.164052	0.018329
H147	H	1.236723	-0.841287	-0.992680
H148	H	1.736723	-0.341287	-0.492680
H149	H	1.240465	-1.273756	-0.500427
H150	H	1.740465	-0.773756	-0.000427
H151	H	1.293803	-0.785875	-1.058410
H152	H	1.793803	-0.285875	-0.558410
H153	H	1.381124	-0.701107	-1.158998
H154	H	1.881124	-0.201107	-0.658998
H155	H	1.048109	-1.452052	-0.669746
H156	H	1.548109	-0.952052	-0.169746
H157	H	1.124303	-0.950362	-1.370942
H158	H	1.624303	-0.450362	-0.870942
H159	H	1.036980	-1.035154	-1.270355
H160	H	1.536980	-0.535154	-0.770355
H161	H	1.004662	-1.066519	-1.123453
H162	H	1.504662	-0.566519	-0.623453
H163	H	1.119095	-1.431991	-0.512746
H164	H	1.619095	-0.931991	-0.012746
H165	H	1.292878	-1.517792	-0.750574
H166	H	1.792878	-1.017792	-0.250574
H167	H	0.675618	-1.143600	-0.828652
H168	H	1.175618	-0.643600	-0.328652
H169	H	1.117169	-1.302455	-0.767873
H170	H	1.617169	-0.802455	-0.267873
H171	H	1.287703	-1.334748	-0.753579
H172	H	1.787703	-0.834748	-0.253579
H173	H	1.341522	-1.322277	-0.645717
H174	H	1.841522	-0.822277	-0.145717
