data_functionalizedCrystal
_audit_creation_method	'MofGen! by Chris Wilmer'
_symmetry_space_group_name_H-M	'P1'
_symmetry_Int_Tables_number	1
_symmetry_cell_setting	triclinic
loop_
_symmetry_equiv_pos_as_xyz
  x,y,z
_cell_length_a	10.540510
_cell_length_b	10.540539
_cell_length_c	9.616153
_cell_angle_alpha	89.999906
_cell_angle_beta	89.992871
_cell_angle_gamma	84.519401
loop_
_atom_site_label
_atom_site_type_symbol
_atom_site_fract_x
_atom_site_fract_y
_atom_site_fract_z
O1	O	1.685914	0.178715	-0.115647
O2	O	1.316496	0.195611	-0.115647
O3	O	1.509633	0.002456	-0.115646
O4	O	1.492777	0.371870	-0.115649
O5	O	1.509607	0.002460	0.115646
O6	O	1.316470	0.195615	0.115644
O7	O	1.685887	0.178719	0.115644
Zn8	Zn	1.501174	0.187168	0.152367
Zn9	Zn	1.501209	0.187162	-0.152370
O10	O	1.492750	0.371874	0.115642
C11	C	1.269179	0.194354	-0.000002
C12	C	1.128229	0.190587	-0.000002
C13	C	0.910774	0.324771	-0.000535
C14	C	1.057370	0.328789	-0.000005
C15	C	1.083454	0.119843	0.132074
C16	C	0.936693	0.116804	0.132176
C17	C	0.936918	0.113921	-0.130845
C18	C	1.083259	0.120476	-0.132583
C19	C	1.508356	-0.044845	-0.000002
C20	C	1.504574	-0.185793	-0.000010
C21	C	1.359655	-0.369204	-0.000529
C22	C	1.363489	-0.222587	-0.000008
C23	C	1.572455	-0.247456	0.132069
C24	C	1.567640	-0.394000	0.132180
C25	C	1.570540	-0.394523	-0.130841
C26	C	1.571840	-0.247541	-0.132588
C27	C	1.733204	0.179976	-0.000004
C28	C	1.874154	0.183743	-0.000013
C29	C	1.494028	0.419175	-0.000004
C30	C	1.497810	0.560123	-0.000006
N31	N	1.501160	0.187171	0.360341
N32	N	1.501234	0.187149	-0.360344
C33	C	1.397529	0.290149	0.580710
C34	C	1.397757	0.290535	0.419543
C35	C	1.633885	0.217290	0.418790
C36	C	1.633320	0.218019	0.580008
C37	C	1.473387	0.053735	0.580254
C38	C	1.470341	0.054600	0.419027
H39	H	0.867256	0.378304	0.093647
H40	H	1.522171	-0.206679	-0.230296
N41	N	1.563767	-0.051808	0.365671
H42	H	1.541591	-0.135719	0.405092
H43	H	1.559398	-0.054649	0.260813
H44	H	0.914764	0.010159	-0.131737
H45	H	1.669106	-0.441979	0.138172
H46	H	1.114297	0.168976	0.230365
H47	H	1.517450	-0.422192	0.230912
H48	H	1.132328	0.019578	-0.140558
H49	H	1.310075	-0.179979	-0.094688
N50	N	1.420961	0.420518	0.634330
H51	H	1.344296	0.457468	0.688924
H52	H	1.498487	0.413023	0.696572
N53	N	1.421127	0.421735	0.368421
H54	H	1.431365	0.479532	0.450616
H55	H	1.501196	0.415948	0.310153
H56	H	0.868831	0.378611	-0.095255
H57	H	1.304139	-0.399404	0.093656
H58	H	1.674702	-0.223331	-0.140563
H59	H	1.378649	0.025066	0.620991
H60	H	1.309679	-0.180823	0.094829
N61	N	1.096279	0.402121	-0.125394
H62	H	1.156691	0.345115	-0.184837
H63	H	1.018073	0.432116	-0.181415
N64	N	1.285831	-0.407079	-0.125983
H65	H	1.341220	-0.470420	-0.183698
H66	H	1.207427	-0.447102	-0.094348
N67	N	1.709711	-0.217911	0.138559
H68	H	1.729254	-0.164135	0.055750
H69	H	1.724265	-0.169799	0.227069
N70	N	1.705525	-0.457084	-0.132028
H71	H	1.719554	-0.514531	-0.048274
H72	H	1.720227	-0.509171	-0.219706
H73	H	1.549000	-0.022928	0.618371
H74	H	1.525279	-0.204849	0.230358
H75	H	1.524889	-0.426072	-0.230949
N76	N	1.267129	0.266538	0.367186
H77	H	1.208879	0.255615	0.448836
H78	H	1.231325	0.341319	0.309002
N79	N	1.340995	0.024403	0.368418
H80	H	1.350318	-0.057243	0.312805
H81	H	1.283516	0.014013	0.450854
N82	N	1.094995	0.402550	0.125609
H83	H	1.016305	0.432570	0.180858
H84	H	1.154982	0.345741	0.185698
H85	H	1.657675	0.315354	0.617595
H86	H	0.896466	0.165154	0.230904
H87	H	0.913697	0.013437	0.138177
H88	H	1.111888	0.171949	-0.230292
H89	H	1.298602	0.272307	0.619521
H90	H	1.130844	0.018101	0.136987
N91	N	1.738648	0.122471	0.631669
H92	H	1.785247	0.080074	0.549710
H93	H	1.800226	0.167599	0.689886
H94	H	1.658783	0.313525	0.378399
N95	N	1.738612	0.120633	0.368007
H96	H	1.700937	0.056238	0.306473
H97	H	1.802915	0.165436	0.313320
H98	H	0.894381	0.157502	-0.230953
