data_functionalizedCrystal
_audit_creation_method	'MofGen! by Chris Wilmer'
_symmetry_space_group_name_H-M	'P1'
_symmetry_Int_Tables_number	1
_symmetry_cell_setting	triclinic
loop_
_symmetry_equiv_pos_as_xyz
  x,y,z
_cell_length_a	15.995300
_cell_length_b	15.995350
_cell_length_c	14.586319
_cell_angle_alpha	90.001560
_cell_angle_beta	90.005093
_cell_angle_gamma	83.482091
loop_
_atom_site_label
_atom_site_type_symbol
_atom_site_fract_x
_atom_site_fract_y
_atom_site_fract_z
O1	O	1.111011	0.107725	0.076269
O2	O	0.867230	0.121096	0.076263
O3	O	0.995784	-0.007478	0.076266
O4	O	0.982456	0.236299	0.076267
O5	O	0.995775	-0.007480	-0.076215
O6	O	0.867221	0.121095	-0.076218
O7	O	1.111002	0.107723	-0.076211
Cu8	Cu	0.989110	0.114409	-0.090137
Cu9	Cu	0.989121	0.114411	0.090189
O10	O	0.982447	0.236298	-0.076214
C11	C	0.836030	0.120550	0.000022
C12	C	0.743077	0.118915	0.000020
C13	C	0.572894	0.115896	0.000027
C14	C	0.525428	0.207443	0.000025
C15	C	0.428740	0.205773	0.000374
C16	C	0.405337	0.112924	0.000033
C17	C	0.446475	0.067505	0.086935
C18	C	0.543109	0.069821	0.087005
C19	C	0.543378	0.068464	-0.086400
C20	C	0.446433	0.068472	-0.087540
C21	C	0.310642	0.111239	0.000039
C22	C	0.667590	0.117577	0.000027
C23	C	0.995229	-0.038674	0.000027
C24	C	0.993577	-0.131624	0.000032
C25	C	0.987644	-0.469370	0.000029
C26	C	0.896090	-0.421920	0.000369
C27	C	0.897743	-0.325230	0.000025
C28	C	0.990587	-0.301810	0.000031
C29	C	1.035740	-0.342897	-0.087040
C30	C	1.033440	-0.439532	-0.087113
C31	C	1.035341	-0.439889	0.086286
C32	C	1.035320	-0.342943	0.087437
C33	C	0.992255	-0.207113	0.000029
C34	C	0.985979	-0.564068	0.000025
C35	C	1.142202	0.108269	0.000032
C36	C	1.235154	0.109904	0.000040
C37	C	0.983003	0.267493	0.000027
C38	C	0.984655	0.360443	0.000028
N39	N	0.989109	0.114406	-0.216969
C40	C	1.046052	0.057493	-0.451974
C41	C	1.046054	0.057491	-0.547956
C42	C	0.932180	0.171323	-0.547967
C43	C	0.932174	0.171320	-0.451988
C44	C	0.989115	0.114406	-0.403994
C45	C	0.989123	0.114407	-0.595954
C46	C	0.989125	0.114405	-0.700022
C47	C	0.989112	0.114407	-0.299920
N48	N	0.989129	0.114406	0.217021
H49	H	0.418094	0.098644	0.151851
H50	H	0.561431	0.102556	0.152212
C51	C	1.107902	-0.004398	-0.400031
C52	C	1.157749	-0.054256	-0.462599
C53	C	1.214727	-0.111289	-0.414786
H54	H	1.142835	0.025634	-0.362578
H55	H	1.077801	-0.039311	-0.362617
H56	H	1.187848	-0.019347	-0.499997
H57	H	1.122839	-0.084306	-0.500055
H58	H	1.184625	-0.146202	-0.377372
H59	H	1.249654	-0.081250	-0.377334
H60	H	1.248549	-0.145129	-0.457231
H61	H	0.400896	0.241310	0.063032
H62	H	0.885822	0.217662	-0.587053
C63	C	0.550097	0.256654	-0.082933
C64	C	0.586039	0.327873	-0.053565
C65	C	0.608769	0.373234	-0.129961
H66	H	0.589727	0.222136	-0.118888
H67	H	0.501496	0.273645	-0.118717
H68	H	0.634634	0.310880	-0.017796
H69	H	0.546424	0.362411	-0.017619
H70	H	0.560168	0.390225	-0.165745
H71	H	0.648397	0.338710	-0.165910
H72	H	0.633151	0.421565	-0.110045
C73	C	0.427796	-0.023496	0.091072
C74	C	0.465409	-0.062028	0.169324
C75	C	0.448225	-0.145859	0.173159
H76	H	0.368680	-0.025217	0.093734
H77	H	0.449757	-0.052510	0.037932
H78	H	0.443443	-0.033022	0.222451
H79	H	0.524525	-0.060330	0.166679
H80	H	0.470186	-0.174872	0.120018
H81	H	0.389108	-0.147571	0.175818
H82	H	0.473748	-0.172015	0.226247
H83	H	0.575382	0.002597	0.090718
C84	C	1.107740	-0.004396	-0.600097
C85	C	1.063145	-0.055687	-0.655188
C86	C	1.119943	-0.112718	-0.703224
H87	H	1.142616	0.025638	-0.637608
H88	H	1.141636	-0.038339	-0.557793
H89	H	1.029264	-0.021749	-0.697487
H90	H	1.028272	-0.085741	-0.617700
H91	H	1.153839	-0.146660	-0.660920
H92	H	1.154816	-0.082676	-0.740730
H93	H	1.089694	-0.147530	-0.740603
H94	H	0.859656	-0.441508	-0.061726
C95	C	0.850339	-0.287470	0.083272
C96	C	0.819954	-0.351709	0.134339
C97	C	0.776266	-0.316959	0.211024
H98	H	0.887164	-0.259196	0.120216
H99	H	0.804475	-0.248602	0.063701
H100	H	0.865812	-0.390562	0.153910
H101	H	0.783118	-0.379988	0.097421
H102	H	0.730402	-0.278092	0.191454
H103	H	0.813096	-0.288686	0.247961
H104	H	0.755638	-0.360539	0.245678
C105	C	0.870316	0.233210	-0.400053
C106	C	0.820471	0.283074	-0.462624
C107	C	0.763487	0.340098	-0.414815
H108	H	0.835383	0.203172	-0.362616
H109	H	0.900413	0.268121	-0.362622
H110	H	0.790377	0.248168	-0.500039
H111	H	0.855382	0.313131	-0.500063
H112	H	0.793583	0.375008	-0.377385
H113	H	0.728559	0.310052	-0.377381
H114	H	0.729666	0.373942	-0.457263
C115	C	0.409945	0.112528	-0.173348
C116	C	0.371148	0.055396	-0.226958
C117	C	0.337528	0.095948	-0.306013
H118	H	0.369601	0.158124	-0.156448
H119	H	0.453810	0.133185	-0.207521
H120	H	0.327288	0.034752	-0.192792
H121	H	0.411476	0.009798	-0.243882
H122	H	0.381392	0.116604	-0.340186
H123	H	0.297187	0.141543	-0.289105
H124	H	0.311207	0.057188	-0.342401
C125	C	0.390623	0.253271	-0.082651
C126	C	0.303280	0.251714	-0.082306
C127	C	0.268144	0.295448	-0.158787
H128	H	0.402998	0.309928	-0.080386
H129	H	0.413653	0.227323	-0.137038
H130	H	0.280258	0.277665	-0.027934
H131	H	0.290880	0.195069	-0.084585
H132	H	0.291174	0.269500	-0.213174
H133	H	0.280526	0.352102	-0.156515
H134	H	0.208880	0.294391	-0.158568
C135	C	0.585600	-0.021593	-0.087477
C136	C	0.524037	-0.077175	-0.084832
C137	C	0.562904	-0.160138	-0.085804
H138	H	0.618000	-0.030968	-0.141842
H139	H	0.621319	-0.030797	-0.035551
H140	H	0.488333	-0.067976	-0.136754
H141	H	0.491634	-0.067828	-0.030471
H142	H	0.598623	-0.169342	-0.033878
H143	H	0.595303	-0.169504	-0.140170
H144	H	0.521140	-0.197861	-0.084002
C145	C	0.570864	0.108654	-0.174184
C146	C	0.658721	0.105086	-0.175617
C147	C	0.684069	0.142120	-0.256458
H148	H	0.552510	0.079144	-0.225574
H149	H	0.546824	0.165719	-0.176649
H150	H	0.682751	0.048031	-0.173161
H151	H	0.677095	0.134599	-0.124245
H152	H	0.660029	0.199184	-0.258923
H153	H	0.665711	0.112606	-0.307842
H154	H	0.743681	0.139710	-0.257437
C155	C	0.551495	0.256031	0.082839
C156	C	0.480653	0.281248	0.136703
C157	C	0.504677	0.326105	0.212906
H158	H	0.591390	0.221133	0.118090
H159	H	0.575938	0.304265	0.062737
H160	H	0.456222	0.233021	0.156806
H161	H	0.440750	0.316156	0.101480
H162	H	0.529121	0.374339	0.192803
H163	H	0.544573	0.291202	0.248149
H164	H	0.456614	0.343226	0.249457
C165	C	0.850105	-0.288226	-0.083429
C166	C	0.819719	-0.352941	-0.133738
C167	C	0.775843	-0.318887	-0.210634
H168	H	0.804231	-0.249259	-0.064137
H169	H	0.886838	-0.260205	-0.120768
H170	H	0.782988	-0.380949	-0.096406
H171	H	0.865575	-0.391913	-0.153052
H172	H	0.812577	-0.290866	-0.247973
H173	H	0.729973	-0.279921	-0.191334
H174	H	0.755228	-0.362791	-0.244783
H175	H	1.000507	-0.457829	-0.152205
C176	C	1.123120	-0.482398	-0.092439
C177	C	1.179134	-0.421252	-0.095574
C178	C	1.261751	-0.460703	-0.100497
H179	H	1.134789	-0.516912	-0.039954
H180	H	1.129502	-0.516114	-0.146152
H181	H	1.172756	-0.387550	-0.041866
H182	H	1.167493	-0.386735	-0.148056
H183	H	1.268132	-0.494420	-0.154211
H184	H	1.273411	-0.495216	-0.048011
H185	H	1.299766	-0.419223	-0.102633
H186	H	0.431095	0.000778	-0.093044
C187	C	0.991300	-0.306687	0.173362
C188	C	0.961061	-0.371543	0.223563
C189	C	0.920498	-0.338169	0.302716
H190	H	1.029983	-0.280337	0.209812
H191	H	0.945600	-0.266411	0.156548
H192	H	1.006756	-0.411805	0.240379
H193	H	0.922368	-0.397900	0.187141
H194	H	0.874797	-0.297892	0.285901
H195	H	0.959185	-0.311819	0.339157
H196	H	0.899969	-0.382167	0.336782
H197	H	0.859501	-0.440444	0.062809
H198	H	1.103026	-0.327593	0.092699
C199	C	0.993912	-0.305224	-0.173524
C200	C	0.963144	-0.368935	-0.225095
C201	C	0.924612	-0.334266	-0.304772
H202	H	0.948670	-0.264202	-0.157325
H203	H	1.033898	-0.279522	-0.208799
H204	H	0.923161	-0.394624	-0.189826
H205	H	1.008370	-0.409962	-0.241317
H206	H	0.964598	-0.308564	-0.340047
H207	H	0.879374	-0.293244	-0.288564
H208	H	0.903738	-0.377490	-0.339777
C209	C	1.125287	-0.482412	0.087136
C210	C	1.124576	-0.569809	0.090457
C211	C	1.207414	-0.609012	0.091247
H212	H	1.153442	-0.467737	0.033140
H213	H	1.153805	-0.464404	0.139429
H214	H	1.096071	-0.587810	0.038169
H215	H	1.096438	-0.584509	0.144450
H216	H	1.235932	-0.591004	0.143540
H217	H	1.235562	-0.594330	0.037250
H218	H	1.206943	-0.668314	0.093509
H219	H	1.103950	-0.328784	-0.090274
H220	H	1.005412	-0.460422	0.152281
