data_functionalizedCrystal
_audit_creation_method	'MofGen! by Chris Wilmer'
_symmetry_space_group_name_H-M	'P1'
_symmetry_Int_Tables_number	1
_symmetry_cell_setting	triclinic
loop_
_symmetry_equiv_pos_as_xyz
  x,y,z
_cell_length_a	16.120490
_cell_length_b	16.120484
_cell_length_c	13.897441
_cell_angle_alpha	92.865635
_cell_angle_beta	87.082329
_cell_angle_gamma	90.164100
loop_
_atom_site_label
_atom_site_type_symbol
_atom_site_fract_x
_atom_site_fract_y
_atom_site_fract_z
Zn1	Zn	1.254497	-0.395643	-0.642066
Zn2	Zn	1.504497	-0.145643	-0.392066
Zn3	Zn	1.754497	0.104357	-0.142066
Zn4	Zn	2.004497	0.354357	0.107934
Zn5	Zn	1.247335	-0.534710	-0.488495
Zn6	Zn	1.497335	-0.284710	-0.238495
Zn7	Zn	1.747335	-0.034710	0.011505
Zn8	Zn	1.997335	0.215290	0.261505
Zn9	Zn	1.115431	-0.388611	-0.472224
Zn10	Zn	1.365431	-0.138611	-0.222224
Zn11	Zn	1.615431	0.111389	0.027776
Zn12	Zn	1.865431	0.361389	0.277776
Zn13	Zn	1.108349	-0.527588	-0.641187
Zn14	Zn	1.358349	-0.277588	-0.391187
Zn15	Zn	1.608349	-0.027588	-0.141187
Zn16	Zn	1.858349	0.222412	0.108813
O17	O	1.181403	-0.461638	-0.560993
O18	O	1.431403	-0.211638	-0.310993
O19	O	1.681403	0.038362	-0.060993
O20	O	1.931403	0.288362	0.189007
O21	O	1.369913	-0.420014	-0.628872
O22	O	1.619913	-0.170014	-0.378872
O23	O	1.869913	0.079986	-0.128872
O24	O	2.119913	0.329986	0.121128
O25	O	1.229804	-0.515368	-0.351355
O26	O	1.479804	-0.265368	-0.101355
O27	O	1.729804	-0.015368	0.148645
O28	O	1.979804	0.234632	0.398645
O29	O	1.139839	-0.273181	-0.488312
O30	O	1.389839	-0.023181	-0.238312
O31	O	1.639839	0.226819	0.011688
O32	O	1.889839	0.476819	0.261688
O33	O	1.364651	-0.522186	-0.516044
O34	O	1.614651	-0.272186	-0.266044
O35	O	1.864651	-0.022186	-0.016044
O36	O	2.114651	0.227814	0.233956
O37	O	1.242011	-0.278348	-0.613094
O38	O	1.492011	-0.028348	-0.363094
O39	O	1.742011	0.221652	-0.113094
O40	O	1.992011	0.471652	0.136906
O41	O	1.132894	-0.408029	-0.339401
O42	O	1.382894	-0.158029	-0.089401
O43	O	1.632894	0.091971	0.160599
O44	O	1.882894	0.341971	0.410599
O45	O	0.998125	-0.401123	-0.487460
O46	O	1.248125	-0.151123	-0.237460
O47	O	1.498125	0.098877	0.012540
O48	O	1.748125	0.348877	0.262540
O49	O	1.127770	-0.510047	-0.776285
O50	O	1.377770	-0.260047	-0.526285
O51	O	1.627770	-0.010047	-0.276285
O52	O	1.877770	0.239953	-0.026285
O53	O	0.992923	-0.503229	-0.611596
O54	O	1.242923	-0.253229	-0.361596
O55	O	1.492923	-0.003229	-0.111596
O56	O	1.742923	0.246771	0.138404
O57	O	1.235144	-0.413108	-0.776931
O58	O	1.485144	-0.163108	-0.526931
O59	O	1.735144	0.086892	-0.276931
O60	O	1.985144	0.336892	-0.026931
O61	O	1.222937	-0.650128	-0.515192
O62	O	1.472937	-0.400128	-0.265192
O63	O	1.722937	-0.150128	-0.015192
O64	O	1.972937	0.099872	0.234808
O65	O	1.120825	-0.644895	-0.627374
O66	O	1.370825	-0.394895	-0.377374
O67	O	1.620825	-0.144895	-0.127374
O68	O	1.870825	0.105105	0.122626
C69	C	0.965352	-0.450641	-0.547667
C70	C	1.215352	-0.200641	-0.297667
C71	C	1.465352	0.049359	-0.047667
C72	C	1.715352	0.299359	0.202333
C73	C	0.872923	-0.445956	-0.541991
C74	C	1.122923	-0.195956	-0.291991
C75	C	1.372923	0.054044	-0.041991
C76	C	1.622923	0.304044	0.208009
C77	C	1.170358	-0.677684	-0.572975
C78	C	1.420358	-0.427684	-0.322975
C79	C	1.670358	-0.177684	-0.072975
C80	C	1.920358	0.072316	0.177025
C81	C	1.165709	-0.770114	-0.578139
C82	C	1.415709	-0.520114	-0.328139
C83	C	1.665709	-0.270114	-0.078139
C84	C	1.915709	-0.020114	0.171861
C85	C	0.659955	-0.485932	-0.590440
C86	C	0.909955	-0.235932	-0.340440
C87	C	1.159955	0.014068	-0.090440
C88	C	1.409955	0.264068	0.159560
C89	C	0.703699	-0.437411	-0.531626
C90	C	0.953699	-0.187411	-0.281626
C91	C	1.203699	0.062589	-0.031626
C92	C	1.453699	0.312589	0.218374
C93	C	0.797864	-0.442167	-0.537395
C94	C	1.047864	-0.192167	-0.287395
C95	C	1.297864	0.057833	-0.037395
C96	C	1.547864	0.307833	0.212605
C97	C	0.565781	-0.481177	-0.584672
C98	C	0.815781	-0.231177	-0.334672
C99	C	1.065781	0.018823	-0.084672
C100	C	1.315781	0.268823	0.165328
C101	C	1.157226	-0.939344	-0.587585
C102	C	1.407226	-0.689344	-0.337585
C103	C	1.657226	-0.439344	-0.087585
C104	C	1.907226	-0.189344	0.162415
C105	C	1.205729	-0.983100	-0.534426
C106	C	1.455729	-0.733100	-0.284426
C107	C	1.705729	-0.483100	-0.034426
C108	C	1.955729	-0.233100	0.215574
C109	C	1.201009	-1.077265	-0.539682
C110	C	1.451009	-0.827265	-0.289682
C111	C	1.701009	-0.577265	-0.039682
C112	C	1.951009	-0.327265	0.210318
C113	C	1.161945	-0.845170	-0.582330
C114	C	1.411945	-0.595170	-0.332330
C115	C	1.661945	-0.345170	-0.082330
C116	C	1.911945	-0.095170	0.167670
C117	C	1.398298	-0.472679	-0.574371
C118	C	1.648298	-0.222679	-0.324371
C119	C	1.898298	0.027321	-0.074371
C120	C	2.148298	0.277321	0.175629
C121	C	1.490726	-0.477384	-0.580072
C122	C	1.740726	-0.227384	-0.330072
C123	C	1.990726	0.022616	-0.080072
C124	C	2.240726	0.272616	0.169928
C125	C	1.181466	-0.461568	-0.812586
C126	C	1.431466	-0.211568	-0.562586
C127	C	1.681466	0.038432	-0.312586
C128	C	1.931466	0.288432	-0.062586
C129	C	1.181492	-0.461538	-0.919799
C130	C	1.431492	-0.211538	-0.669799
C131	C	1.681492	0.038462	-0.419799
C132	C	1.931492	0.288462	-0.169799
C133	C	1.192514	-0.244749	-0.548986
C134	C	1.442514	0.005251	-0.298986
C135	C	1.692514	0.255251	-0.048986
C136	C	1.942514	0.505251	0.201014
C137	C	1.197249	-0.152324	-0.543869
C138	C	1.447249	0.097676	-0.293869
C139	C	1.697249	0.347676	-0.043869
C140	C	1.947249	0.597676	0.206131
C141	C	1.181518	-0.461482	-1.116093
C142	C	1.431518	-0.211482	-0.866093
C143	C	1.681518	0.038518	-0.616093
C144	C	1.931518	0.288518	-0.366093
C145	C	1.181501	-0.461515	-1.006861
C146	C	1.431501	-0.211515	-0.756861
C147	C	1.681501	0.038485	-0.506861
C148	C	1.931501	0.288485	-0.256861
C149	C	1.181391	-0.461651	-0.310379
C150	C	1.431391	-0.211651	-0.060379
C151	C	1.681391	0.038349	0.189621
C152	C	1.931391	0.288349	0.439621
C153	C	1.181538	-0.461455	-0.203162
C154	C	1.431538	-0.211455	0.046838
C155	C	1.681538	0.038545	0.296838
C156	C	1.931538	0.288545	0.546838
H157	H	0.670430	-0.392299	-0.476941
H158	H	0.920430	-0.142299	-0.226941
H159	H	1.170430	0.107701	0.023059
H160	H	1.420430	0.357701	0.273059
H161	H	0.693222	-0.531041	-0.645120
H162	H	0.943222	-0.281041	-0.395120
H163	H	1.193222	-0.031041	-0.145120
H164	H	1.443222	0.218959	0.104880
H165	H	1.250798	-0.949840	-0.484966
H166	H	1.500798	-0.699840	-0.234966
H167	H	1.750798	-0.449840	0.015034
H168	H	2.000798	-0.199840	0.265034
H169	H	1.112159	-0.972601	-0.637039
H170	H	1.362159	-0.722601	-0.387039
H171	H	1.612159	-0.472601	-0.137039
H172	H	1.862159	-0.222601	0.112961
