data_functionalizedCrystal
_audit_creation_method	'MofGen! by Chris Wilmer'
_symmetry_space_group_name_H-M	'P1'
_symmetry_Int_Tables_number	1
_symmetry_cell_setting	triclinic
loop_
_symmetry_equiv_pos_as_xyz
  x,y,z
_cell_length_a	19.902436
_cell_length_b	14.560438
_cell_length_c	14.560438
_cell_angle_alpha	90.000878
_cell_angle_beta	60.003194
_cell_angle_gamma	59.995383
loop_
_atom_site_label
_atom_site_type_symbol
_atom_site_fract_x
_atom_site_fract_y
_atom_site_fract_z
Zr1	Zr	0.735484	-0.120607	0.884782
O2	O	0.875662	-0.267274	0.738140
O3	O	0.595305	-0.075633	0.929733
O4	O	0.735482	-0.267253	0.929739
O5	O	0.735486	0.075484	0.738133
O6	O	0.735482	-0.267250	1.080878
O7	O	0.735485	-0.075655	0.738134
O8	O	0.484730	0.075522	1.080868
O9	O	0.986239	-0.267289	0.738143
O10	O	0.652963	-0.056466	1.061701
O11	O	0.652964	0.056325	0.948906
O12	O	0.818005	-0.169282	0.948913
O13	O	0.818007	-0.056491	0.836118
Zr14	Zr	0.735487	0.120445	1.125830
Zr15	Zr	0.735484	-0.120603	1.125832
Zr16	Zr	0.735487	0.120441	0.884780
Zr17	Zr	0.911841	-0.120631	0.884787
Zr18	Zr	0.559130	0.120468	1.125825
O19	O	0.875667	0.075470	1.080879
O20	O	0.875662	-0.267269	1.080882
O21	O	0.875667	0.075465	0.738137
O22	O	0.595309	0.267112	1.272472
O23	O	0.595305	-0.075628	1.272475
O24	O	0.595309	0.267106	0.929730
O25	O	0.735485	-0.075646	1.272479
O26	O	0.735489	0.267090	1.080873
O27	O	0.735489	0.267088	0.929734
O28	O	0.735487	0.075492	1.272478
O29	O	0.986239	-0.267286	0.929746
O30	O	0.484732	0.267123	1.080866
O31	O	0.484732	0.267126	1.272469
O32	O	0.484730	0.075525	1.272471
O33	O	0.986241	-0.075688	0.738142
O34	O	0.986241	-0.075685	0.929744
O35	O	0.652966	0.169120	1.061699
O36	O	0.652964	0.056329	1.174494
O37	O	0.818007	-0.056488	1.061706
O38	O	0.818008	0.056303	0.948911
C39	C	0.514890	-0.000052	1.005300
C40	C	0.440022	-0.000042	1.005298
C41	C	0.735486	-0.000086	0.703789
C42	C	0.735485	-0.000088	0.601457
C43	C	0.735489	0.301433	1.005303
C44	C	0.735491	0.403764	1.005302
C45	C	0.168012	-0.000095	1.005309
C46	C	0.196251	0.071400	0.934500
C47	C	0.274370	0.071106	0.934116
C48	C	0.302959	-0.000068	1.005303
C49	C	0.338521	-0.122641	0.953413
C50	C	0.260684	-0.122264	0.952880
C51	C	0.133498	0.050000	1.128044
C52	C	0.210550	0.052495	1.127864
C53	C	0.379228	-0.000059	1.005301
C54	C	0.091748	-0.000112	1.005307
C55	C	0.956081	-0.000111	1.005312
C56	C	1.030949	-0.000120	1.005315
C57	C	0.735482	-0.301596	1.005309
C58	C	0.735481	-0.403927	1.005310
C59	C	0.821640	0.392954	0.946434
C60	C	0.821635	0.489109	0.946434
C61	C	0.649325	0.606881	1.064180
C62	C	0.649331	0.510728	1.064173
C63	C	0.921121	0.324959	0.878457
C64	C	0.921117	0.421114	0.878458
C65	C	0.649334	0.058814	0.516102
C66	C	0.649334	0.058805	0.612254
C67	C	0.821644	-0.058984	0.494499
C68	C	0.821643	-0.058981	0.398349
C69	C	0.549852	0.126823	0.584088
C70	C	0.549852	0.126814	0.680240
C71	C	0.735486	-0.000077	1.306823
C72	C	0.735486	-0.000075	1.409155
C73	C	0.514890	-0.000047	1.306817
C74	C	0.440022	-0.000036	1.409147
C75	C	0.514894	0.301462	1.005297
C76	C	0.440027	0.403803	1.005294
C77	C	0.514894	0.301467	1.306814
C78	C	0.440027	0.403810	1.409143
C79	C	0.956077	-0.301630	0.703798
C80	C	1.030944	-0.403972	0.601469
C81	C	0.956081	-0.000115	0.703796
C82	C	1.030949	-0.000127	0.601466
C83	C	0.956077	-0.301625	1.005315
C84	C	1.030944	-0.403966	1.005318
C85	C	0.404863	-0.058918	1.398325
C86	C	0.334526	-0.058930	1.494466
C87	C	0.299345	-0.000052	1.601427
C88	C	0.334512	0.058832	1.612246
C89	C	0.404852	0.058837	1.516106
C90	C	0.404870	0.510752	1.064169
C91	C	0.334534	0.606921	1.064162
C92	C	0.299353	0.596140	1.005285
C93	C	0.334517	0.489181	0.946403
C94	C	0.404856	0.393013	0.946404
C95	C	0.404868	0.392995	1.516085
C96	C	0.334533	0.489148	1.612243
C97	C	0.299353	0.596114	1.601457
C98	C	0.334519	0.606926	1.494503
C99	C	0.404858	0.510775	1.398347
C100	C	1.066111	-0.393158	0.494527
C101	C	1.136469	-0.489311	0.398369
C102	C	1.171652	-0.596277	0.409156
C103	C	1.136482	-0.607089	0.516109
C104	C	1.066131	-0.510937	0.612265
C105	C	1.066116	0.058745	0.612287
C106	C	1.136472	0.058730	0.516146
C107	C	1.171655	-0.000151	0.409185
C108	C	1.136485	-0.059030	0.398366
C109	C	1.066135	-0.059021	0.494506
C110	C	1.066103	-0.393149	1.064206
C111	C	1.136439	-0.489300	1.064231
C112	C	1.171619	-0.596267	1.005361
C113	C	1.136453	-0.607082	0.946471
C114	C	1.066114	-0.510932	0.946454
H115	H	0.247725	0.161364	0.968923
H116	H	0.518982	0.081955	0.731153
H117	H	0.433475	0.519596	1.311273
H118	H	0.290225	-0.162367	0.862565
H119	H	0.305908	0.480324	1.699321
H120	H	0.511901	0.216814	0.732274
H121	H	1.037495	-0.519755	0.898495
H122	H	0.579180	0.519539	1.112098
H123	H	0.959309	0.421105	0.916284
H124	H	0.951999	0.429828	0.791403
H125	H	1.165108	-0.694188	0.898541
H126	H	0.305912	0.694003	1.112115
H127	H	0.305865	0.694031	1.485736
H128	H	1.165142	-0.106970	0.311266
H129	H	0.242078	0.674455	1.005293
H130	H	1.037469	-0.306069	0.485722
H131	H	1.165138	-0.694192	0.524879
H132	H	0.242078	0.674398	1.679762
H133	H	0.579177	0.693981	1.112109
H134	H	0.891796	-0.106945	0.311271
H135	H	1.037504	-0.106959	0.485679
H136	H	0.891790	-0.106944	0.485715
H137	H	0.131747	0.161886	0.969122
H138	H	1.165092	-0.480485	0.311292
H139	H	0.305862	0.480419	0.898467
H140	H	0.114641	-0.001826	1.181049
H141	H	0.359413	-0.178217	1.002511
H142	H	1.037498	-0.519756	0.699340
H143	H	0.242069	-0.000064	1.679701
H144	H	1.228937	-0.674560	0.330850
H145	H	1.037475	0.106701	0.699371
H146	H	1.228939	-0.000149	0.330912
H147	H	0.222211	0.036961	0.844501
H148	H	0.433506	-0.106877	1.311241
H149	H	1.165095	0.106681	0.524978
H150	H	1.037470	-0.306059	1.112145
H151	H	1.165064	-0.480472	1.112184
H152	H	1.228895	-0.674550	1.005384
H153	H	0.959322	0.272758	0.788428
H154	H	0.405525	-0.163020	0.863962
H155	H	0.338829	0.036373	0.843584
H156	H	0.951985	0.274040	0.923321
H157	H	0.244735	-0.178428	1.001124
H158	H	0.518987	0.213877	0.575361
H159	H	0.065452	0.138873	1.171398
H160	H	0.226156	0.005836	1.185067
H161	H	0.181807	0.142796	1.166630
H162	H	0.511654	0.089012	0.584096
H163	H	0.305902	-0.106880	1.485635
H164	H	0.305858	0.106768	1.699346
H165	H	0.433507	0.519551	1.112113
H166	H	0.433470	0.106792	1.524933
H167	H	0.433472	0.305935	0.898465
H168	H	0.433502	0.305907	1.524890
