data_functionalizedCrystal
_audit_creation_method	'MofGen! by Chris Wilmer'
_symmetry_space_group_name_H-M	'P1'
_symmetry_Int_Tables_number	1
_symmetry_cell_setting	triclinic
loop_
_symmetry_equiv_pos_as_xyz
  x,y,z
_cell_length_a	9.065218
_cell_length_b	14.971482
_cell_length_c	14.048226
_cell_angle_alpha	90.005902
_cell_angle_beta	90.013832
_cell_angle_gamma	84.314280
loop_
_atom_site_label
_atom_site_type_symbol
_atom_site_fract_x
_atom_site_fract_y
_atom_site_fract_z
O1	O	-0.192235	-1.188382	-0.079164
O2	O	-0.215264	-0.928153	-0.079171
O3	O	0.011002	-1.063646	-0.079143
O4	O	-0.418501	-1.052889	-0.079192
O5	O	0.011015	-1.063630	0.079178
O6	O	-0.215251	-0.928136	0.079150
O7	O	-0.192222	-1.188365	0.079157
Zn8	Zn	-0.203734	-1.058248	0.104291
Zn9	Zn	-0.203752	-1.058270	-0.104305
O10	O	-0.418488	-1.052872	0.079129
C11	C	0.065974	-1.062604	0.000022
C12	C	0.229754	-1.059513	0.000034
C13	C	-0.214229	-0.894812	-0.000011
C14	C	-0.211145	-0.795492	-0.000012
C15	C	-0.193257	-1.221706	-0.000005
C16	C	-0.196341	-1.321026	-0.000010
C17	C	0.526540	-1.053914	-0.000012
C18	C	0.362760	-1.057005	0.000048
N19	N	-0.203721	-1.058240	0.246651
C20	C	-0.209686	-0.748827	0.086290
C21	C	-0.206765	-0.655507	0.086291
C22	C	-0.205314	-0.608852	-0.000010
C23	C	-0.206770	-0.655524	-0.086319
C24	C	-0.209680	-0.748843	-0.086320
C25	C	-0.200708	-0.461017	-0.086312
C26	C	-0.197800	-0.367691	-0.086312
C27	C	-0.197793	-0.367681	0.086299
C28	C	-0.200703	-0.461000	0.086298
C29	C	-0.202161	-0.507665	-0.000011
N30	N	-0.203753	-1.058285	-0.246665
C31	C	-0.103572	-1.118256	0.296482
C32	C	-0.103571	-1.118262	0.396139
C33	C	-0.203728	-1.058255	0.445965
C34	C	-0.303882	-0.998233	0.396127
C35	C	-0.303874	-0.998223	0.296472
C36	C	-0.303893	-0.998259	0.603842
C37	C	-0.303902	-0.998270	0.703504
C38	C	-0.103589	-1.118297	0.703509
C39	C	-0.103582	-1.118287	0.603853
C40	C	-0.203738	-1.058266	0.554023
H41	H	-0.205552	-0.617519	0.156567
N42	N	0.004468	-1.182961	0.242734
H43	H	-0.052001	-1.223016	0.201362
H44	H	0.067902	-1.220920	0.289479
N45	N	0.004442	-1.183004	0.550107
H46	H	-0.052046	-1.223054	0.508740
H47	H	0.067868	-1.220967	0.596852
H48	H	-0.205578	-0.617531	-0.156588
N49	N	-0.211264	-0.799181	-0.179400
H50	H	-0.121084	-0.844412	-0.183234
H51	H	-0.209961	-0.755409	-0.234020
H52	H	-0.022021	-1.167130	0.436711
N53	N	-0.411920	-0.933557	0.757260
H54	H	-0.516660	-0.944696	0.739896
H55	H	-0.394628	-0.869962	0.739928
N56	N	0.004420	-1.183053	0.757242
H57	H	0.109169	-1.171928	0.739920
H58	H	-0.012917	-1.246629	0.739843
N59	N	-0.411884	-0.933488	0.242721
H60	H	-0.475336	-0.895475	0.289405
H61	H	-0.477199	-0.968248	0.201349
H62	H	-0.210879	-0.786806	0.156567
H63	H	-0.201893	-0.498983	0.156573
N64	N	-0.196226	-0.317351	0.179389
H65	H	-0.196239	-0.251018	0.166297
H66	H	-0.104296	-0.339302	0.216511
N67	N	-0.411909	-0.933519	0.550093
H68	H	-0.475364	-0.895508	0.596777
H69	H	-0.477221	-0.968285	0.508724
H70	H	-0.196620	-0.329707	-0.156587
H71	H	-0.201895	-0.499008	-0.156595
N72	N	-0.411907	-0.933516	0.449872
H73	H	-0.516643	-0.944659	0.432504
H74	H	-0.394614	-0.869923	0.432530
