data_functionalizedCrystal
_audit_creation_method	'MofGen! by Chris Wilmer'
_symmetry_space_group_name_H-M	'P1'
_symmetry_Int_Tables_number	1
_symmetry_cell_setting	triclinic
loop_
_symmetry_equiv_pos_as_xyz
  x,y,z
_cell_length_a	10.967819
_cell_length_b	10.967829
_cell_length_c	9.482944
_cell_angle_alpha	112.294429
_cell_angle_beta	112.345149
_cell_angle_gamma	82.166777
loop_
_atom_site_label
_atom_site_type_symbol
_atom_site_fract_x
_atom_site_fract_y
_atom_site_fract_z
O1	O	1.748236	0.265574	0.625421
O2	O	1.371457	0.268776	0.531829
O3	O	1.561410	0.078823	0.531824
O4	O	1.558283	0.455527	0.625427
O5	O	1.523447	0.041080	0.271064
O6	O	1.333494	0.231033	0.271070
O7	O	1.710273	0.227831	0.364661
Cu8	Cu	1.518418	0.225985	0.294056
Cu9	Cu	1.563313	0.270621	0.602435
O10	O	1.520320	0.417784	0.364667
C11	C	1.304099	0.246818	0.388557
C12	C	1.159951	0.237607	0.350136
C13	C	1.539333	0.011586	0.388553
C14	C	1.530093	-0.132530	0.350138
C15	C	0.966377	0.243551	0.428412
C16	C	1.115361	0.253060	0.468110
C17	C	1.777632	0.249789	0.507938
C18	C	1.921782	0.259001	0.546369
C19	C	1.545640	-0.177223	0.468094
C20	C	1.536090	-0.326174	0.428393
C21	C	1.542398	0.485022	0.507941
C22	C	1.551640	0.629139	0.546367
N23	N	1.486850	0.194591	0.077162
C24	C	1.553993	0.261360	0.038512
C25	C	1.527738	0.235227	-0.142030
N26	N	1.594890	0.302006	0.819329
H27	H	0.894259	0.223290	0.298037
O28	O	1.696779	0.403371	-0.047469
H29	H	1.794569	0.375193	-0.059127
H30	H	1.509705	-0.204539	0.219758
H31	H	1.087838	0.217346	0.219751
H32	H	0.993898	0.279276	0.676747
O33	O	1.655878	0.362720	0.171711
H34	H	1.660501	0.367350	0.292614
O35	O	1.572632	-0.081856	0.640803
H36	H	1.575903	0.020170	0.644885
H37	H	1.409933	0.118077	-0.023410
O38	O	1.578623	-0.275489	0.719079
H39	H	1.588545	-0.330887	0.799440
H40	H	1.515701	-0.398179	0.298004
O41	O	1.425843	0.133859	-0.275212
H42	H	1.348321	0.182184	-0.351884
O43	O	1.210869	0.279892	0.640823
H44	H	1.312900	0.283133	0.644897
