data_functionalizedCrystal
_audit_creation_method	'MofGen! by Chris Wilmer'
_symmetry_space_group_name_H-M	'P1'
_symmetry_Int_Tables_number	1
_symmetry_cell_setting	triclinic
loop_
_symmetry_equiv_pos_as_xyz
  x,y,z
_cell_length_a	6.817900
_cell_length_b	16.418049
_cell_length_c	14.125465
_cell_angle_alpha	95.891231
_cell_angle_beta	100.398878
_cell_angle_gamma	103.389670
loop_
_atom_site_label
_atom_site_type_symbol
_atom_site_fract_x
_atom_site_fract_y
_atom_site_fract_z
V1	V	-3.990825	-0.115166	-0.300313
O2	O	-3.979535	0.006275	-0.294248
O3	O	-3.942095	-0.229066	-0.298594
O4	O	-3.926976	-0.113069	-0.431137
O5	O	-3.994759	-0.110525	-0.160788
V6	V	-4.476498	-0.100678	-0.283584
O7	O	-4.247369	-0.146945	-0.337010
O8	O	-4.670152	-0.068899	-0.246887
O9	O	-4.302021	0.013222	-0.285303
O10	O	-4.605185	-0.222119	-0.289649
O11	O	-4.589961	-0.105319	-0.423109
O12	O	-4.317140	-0.102775	-0.152760
C13	C	-3.787516	-0.256843	-0.293943
C14	C	-3.828857	-0.349956	-0.293410
C15	C	-3.768229	-0.108876	-0.463013
C16	C	-3.797307	-0.107916	-0.569965
C17	C	-4.105464	-0.568437	-0.297014
C18	C	-4.144296	-0.655927	-0.296522
C19	C	-3.781216	-0.647406	-0.286889
C20	C	-3.742389	-0.559918	-0.287388
C21	C	-3.904519	-0.520435	-0.292446
C22	C	-3.982178	-0.695414	-0.291454
C23	C	-4.024280	-0.790275	-0.290920
C24	C	-3.862415	-0.425569	-0.292982
C25	C	-3.850605	-0.106155	-0.765783
C26	C	-4.036087	-0.109688	-0.818114
C27	C	-4.065745	-0.108708	-0.927074
C28	C	-3.820939	-0.107135	-0.656813
C29	C	-4.119943	0.040994	-0.289951
C30	C	-4.057839	0.134107	-0.290490
C31	C	-4.139230	-0.106971	-0.120879
C32	C	-4.089391	-0.107927	-0.013926
H33	H	-4.237482	-0.536293	-0.301131
Cl34	Cl	-3.639840	-0.100359	-0.822951
H35	H	-4.172615	-0.113457	-0.781087
Cl36	Cl	-4.396924	-0.716269	-0.302267
Cl37	Cl	-3.489753	-0.499570	-0.281652
Cl38	Cl	-3.577410	-0.697047	-0.280524
