data_functionalizedCrystal
_audit_creation_method	'MofGen! by Chris Wilmer'
_symmetry_space_group_name_H-M	'P1'
_symmetry_Int_Tables_number	1
_symmetry_cell_setting	triclinic
loop_
_symmetry_equiv_pos_as_xyz
  x,y,z
_cell_length_a	13.032831
_cell_length_b	12.759394
_cell_length_c	12.759395
_cell_angle_alpha	90.009987
_cell_angle_beta	97.176792
_cell_angle_gamma	82.819699
loop_
_atom_site_label
_atom_site_type_symbol
_atom_site_fract_x
_atom_site_fract_y
_atom_site_fract_z
Zn1	Zn	1.597551	-0.622777	0.797680
Zn2	Zn	1.597489	-0.798419	0.621990
Zn3	Zn	1.422832	-0.600415	0.599741
Zn4	Zn	1.422777	-0.776059	0.775354
O5	O	1.510162	-0.699418	0.698692
O6	O	1.743780	-0.664792	0.793030
O7	O	1.574317	-0.772153	0.472018
O8	O	1.446058	-0.456366	0.626031
O9	O	1.743735	-0.793836	0.663951
O10	O	1.574423	-0.472796	0.771456
O11	O	1.445998	-0.626680	0.455671
O12	O	1.276587	-0.604998	0.604382
O13	O	1.445964	-0.755727	0.925337
O14	O	1.276547	-0.734043	0.733404
O15	O	1.574370	-0.643111	0.941740
O16	O	1.574264	-0.942468	0.642302
O17	O	1.445904	-0.926040	0.754978
C18	C	1.238649	-0.664668	0.664057
C19	C	1.122495	-0.649828	0.649264
C20	C	1.510100	-0.972377	0.698658
C21	C	1.510168	-1.089162	0.698691
C22	C	1.070717	-0.707163	0.706412
C23	C	0.950665	-0.691826	0.691125
C24	C	1.643930	-1.106228	0.581475
C25	C	1.710837	-1.169626	0.522883
C26	C	1.710899	-1.279355	0.522920
C27	C	1.644047	-1.325689	0.581557
C28	C	1.577139	-1.262292	0.640149
C29	C	1.577083	-1.152561	0.640104
C30	C	1.443385	-1.245227	0.757369
C31	C	1.443317	-1.135497	0.757329
C32	C	1.376533	-1.291561	0.816007
C33	C	1.309618	-1.228163	0.874594
C34	C	1.309559	-1.118427	0.874554
C35	C	1.376409	-1.072099	0.815921
C36	C	1.782736	-0.734303	0.733463
C37	C	1.898890	-0.749169	0.748280
C38	C	1.510168	-0.699419	0.972726
C39	C	1.510170	-0.699420	1.089503
C40	C	1.510254	-0.425396	0.698752
C41	C	1.510293	-0.308624	0.698777
C42	C	1.643888	-0.582163	1.106604
C43	C	1.710747	-0.523539	1.170015
C44	C	1.710743	-0.523542	1.279737
C45	C	1.643871	-0.582172	1.326048
C46	C	1.577012	-0.640795	1.262636
C47	C	1.577025	-0.640789	1.152914
C48	C	1.443291	-0.758045	1.245534
C49	C	1.443298	-0.758050	1.135814
C50	C	1.376419	-0.816675	1.291845
C51	C	1.309564	-0.875306	1.228434
C52	C	1.309571	-0.875302	1.118707
C53	C	1.376440	-0.816673	1.072402
C54	C	1.510150	-0.699434	1.425723
C55	C	1.510150	-0.699421	1.308946
H56	H	1.115266	-0.767600	0.766658
H57	H	1.765386	-1.330974	0.475215
F58	F	1.781986	-1.120307	0.460485
F59	F	1.064271	-0.570820	0.570526
F60	F	1.781893	-0.461121	1.120718
H61	H	0.943434	-0.809609	0.808534
F62	F	1.644099	-0.989475	0.581692
F63	F	0.892446	-0.612814	0.612382
H64	H	1.765179	-0.475798	1.331366
F65	F	1.238485	-1.277482	0.937000
F66	F	1.643770	-1.442428	0.581200
H67	H	1.376592	-1.380910	0.816037
F68	F	1.376589	-0.955347	0.816143
H69	H	1.255079	-1.066814	0.922272
F70	F	1.238396	-0.937691	1.277728
H71	H	1.643865	-0.582159	1.415388
H72	H	1.643908	-0.582166	1.017265
H73	H	1.376416	-0.816668	1.381186
F74	F	1.238404	-0.937692	1.051227
H75	H	1.376457	-0.816669	0.983063
