data_functionalizedCrystal
_audit_creation_method	'MofGen! by Chris Wilmer'
_symmetry_space_group_name_H-M	'P1'
_symmetry_Int_Tables_number	1
_symmetry_cell_setting	triclinic
loop_
_symmetry_equiv_pos_as_xyz
  x,y,z
_cell_length_a	27.732048
_cell_length_b	11.792241
_cell_length_c	10.868271
_cell_angle_alpha	90.005281
_cell_angle_beta	89.993197
_cell_angle_gamma	96.581965
loop_
_atom_site_label
_atom_site_type_symbol
_atom_site_fract_x
_atom_site_fract_y
_atom_site_fract_z
O1	O	0.641710	-0.135041	-0.102393
O2	O	1.141710	0.364959	0.397607
O3	O	0.501036	-0.155574	-0.102380
O4	O	1.001036	0.344426	0.397620
O5	O	0.574787	0.019972	-0.102378
O6	O	1.074787	0.519972	0.397622
O7	O	0.567960	-0.310587	-0.102395
O8	O	1.067960	0.189413	0.397605
O9	O	0.574781	0.019979	0.102267
O10	O	1.074781	0.519979	0.602267
O11	O	0.501030	-0.155567	0.102265
O12	O	1.001030	0.344433	0.602265
O13	O	0.641704	-0.135034	0.102252
O14	O	1.141704	0.364966	0.602252
Zn15	Zn	0.571366	-0.145300	0.134750
Zn16	Zn	1.071366	0.354700	0.634750
Zn17	Zn	0.571374	-0.145308	-0.134878
Zn18	Zn	1.071374	0.354692	0.365122
O19	O	0.567953	-0.310580	0.102250
O20	O	1.067953	0.189420	0.602250
C21	C	0.574355	0.062253	-0.000056
C22	C	1.074355	0.562253	0.499944
C23	C	0.573071	0.188226	-0.000057
C24	C	1.073071	0.688226	0.499943
C25	C	0.483024	-0.155140	-0.000056
C26	C	0.983024	0.344860	0.499944
C27	C	0.429361	-0.153842	-0.000051
C28	C	0.929361	0.346158	0.499949
C29	C	0.659717	-0.135469	-0.000075
C30	C	1.159717	0.364531	0.499925
C31	C	0.713379	-0.136766	-0.000088
C32	C	1.213379	0.363234	0.499912
C33	C	1.051640	-0.041201	-0.000041
C34	C	1.551640	0.458799	0.499959
C35	C	1.253327	-0.046016	-0.000037
C36	C	1.753327	0.453984	0.499963
O37	O	1.284076	0.041372	0.000020
O38	O	1.784076	0.541372	0.500020
N39	N	1.273055	-0.150108	-0.000046
N40	N	1.773055	0.349892	0.499954
C41	C	1.242357	-0.253003	-0.000048
C42	C	1.742357	0.246997	0.499952
O43	O	1.263765	-0.341650	-0.000042
O44	O	1.763765	0.158350	0.499958
C45	C	1.040671	-0.248186	-0.000042
C46	C	1.540671	0.251814	0.499958
C47	C	1.020946	-0.144088	-0.000046
C48	C	1.520946	0.355912	0.499954
C49	C	1.031915	0.062889	-0.000043
C50	C	1.531915	0.562889	0.499957
C51	C	0.981496	0.064092	-0.000051
C52	C	1.481496	0.564092	0.499949
C53	C	0.950802	-0.038795	-0.000056
C54	C	1.450802	0.461205	0.499944
C55	C	0.970527	-0.142885	-0.000054
C56	C	1.470527	0.357115	0.499946
C57	C	1.009974	-0.351080	-0.000035
C58	C	1.509974	0.148920	0.499965
C59	C	0.959550	-0.349867	-0.000031
C60	C	1.459550	0.150133	0.499969
C61	C	0.939825	-0.245769	-0.000035
C62	C	1.439825	0.254231	0.499965
C63	C	0.889415	-0.244570	-0.000067
C64	C	1.389415	0.255430	0.499933
N65	N	0.869687	-0.140478	-0.000058
N66	N	1.369687	0.359522	0.499942
C67	C	0.900381	-0.037591	-0.000053
C68	C	1.400381	0.462409	0.499947
C69	C	1.348246	-0.255524	-0.000053
C70	C	1.848246	0.244476	0.499947
C71	C	1.398668	-0.256729	-0.000056
C72	C	1.898668	0.243271	0.499944
C73	C	1.409634	-0.049742	-0.000043
C74	C	1.909634	0.450258	0.499957
C75	C	1.359212	-0.048538	-0.000049
C76	C	1.859212	0.451462	0.499951
C77	C	1.328518	-0.151433	-0.000044
C78	C	1.828518	0.348567	0.499956
C79	C	0.794497	-0.035073	-0.000070
C80	C	1.294497	0.464927	0.499930
C81	C	0.744073	-0.033879	-0.000082
C82	C	1.244073	0.466121	0.499918
C83	C	0.733111	-0.240866	-0.000089
C84	C	1.233111	0.259134	0.499911
C85	C	0.783530	-0.242060	-0.000083
C86	C	1.283530	0.257940	0.499917
C87	C	0.814223	-0.139154	-0.000069
C88	C	1.314223	0.360846	0.499931
O89	O	0.858637	-0.331911	-0.000110
O90	O	1.358637	0.168089	0.499890
O91	O	0.878964	0.051043	-0.000030
O92	O	1.378964	0.551043	0.499970
C93	C	1.102059	-0.042404	-0.000033
C94	C	1.602059	0.457596	0.499967
C95	C	1.121784	-0.146493	-0.000031
C96	C	1.621784	0.353507	0.499969
C97	C	1.091090	-0.249381	-0.000036
C98	C	1.591090	0.250619	0.499964
C99	C	1.172205	-0.147698	-0.000034
C100	C	1.672205	0.352302	0.499966
C101	C	1.202899	-0.044811	-0.000029
C102	C	1.702899	0.455189	0.499971
C103	C	1.183171	0.059281	-0.000020
C104	C	1.683171	0.559281	0.499980
C105	C	1.132752	0.060484	-0.000028
C106	C	1.632752	0.560484	0.499972
C107	C	1.110818	-0.353472	-0.000045
C108	C	1.610818	0.146528	0.499955
C109	C	1.161237	-0.354667	-0.000039
C110	C	1.661237	0.145333	0.499961
C111	C	1.191931	-0.251779	-0.000033
C112	C	1.691931	0.248221	0.499967
C113	C	0.568385	-0.352861	-0.000075
C114	C	1.068385	0.147139	0.499925
C115	C	0.569669	-0.478834	-0.000082
C116	C	1.069669	0.021166	0.499918
N117	N	0.571364	-0.145293	0.318764
N118	N	1.071364	0.354707	0.818764
C119	C	0.570711	0.418862	-0.000077
C120	C	1.070711	0.918862	0.499923
C121	C	0.572023	0.290519	-0.000066
C122	C	1.072023	0.790519	0.499934
N123	N	0.571380	-0.145306	-0.318892
N124	N	1.071380	0.354694	0.181108
C125	C	0.571372	-0.145306	0.569770
C126	C	1.071372	0.354694	1.069770
C127	C	0.571366	-0.145302	0.430093
C128	C	1.071366	0.354698	0.930093
H129	H	0.728016	0.050894	-0.000089
H130	H	1.228016	0.550894	0.499911
H131	H	1.343156	0.036228	-0.000051
H132	H	1.843156	0.536228	0.499949
Br133	Br	0.836143	0.104586	-0.000051
Br134	Br	1.336143	0.604586	0.499949
Br135	Br	1.451299	0.089890	-0.000040
Br136	Br	1.951299	0.589890	0.499960
Br137	Br	0.954735	0.205376	-0.000072
Br138	Br	1.454735	0.705376	0.499928
Br139	Br	1.306598	-0.395181	-0.000054
Br140	Br	1.806598	0.104819	0.499946
H141	H	0.934561	-0.433658	-0.000021
H142	H	1.434561	0.066342	0.499979
Br143	Br	1.105991	0.201768	-0.000042
Br144	Br	1.605991	0.701768	0.499958
Br145	Br	1.036730	-0.492366	-0.000034
Br146	Br	1.536730	0.007634	0.499966
H147	H	1.208171	0.143055	-0.000023
H148	H	1.708171	0.643055	0.499977
H149	H	1.177292	-0.439442	-0.000045
H150	H	1.677292	0.060558	0.499955
H151	H	1.056901	0.146677	-0.000035
H152	H	1.556901	0.646677	0.499965
Br153	Br	1.425430	-0.398011	-0.000082
Br154	Br	1.925430	0.101989	0.499918
Br155	Br	0.810301	-0.383337	-0.000098
Br156	Br	1.310301	0.116663	0.499902
H157	H	0.708111	-0.324634	-0.000099
H158	H	1.208111	0.175366	0.499901
H159	H	1.085832	-0.437258	-0.000048
H160	H	1.585832	0.062742	0.499952
