data_functionalizedCrystal
_audit_creation_method	'MofGen! by Chris Wilmer'
_symmetry_space_group_name_H-M	'P1'
_symmetry_Int_Tables_number	1
_symmetry_cell_setting	triclinic
loop_
_symmetry_equiv_pos_as_xyz
  x,y,z
_cell_length_a	16.992694
_cell_length_b	9.016244
_cell_length_c	16.992695
_cell_angle_alpha	89.992842
_cell_angle_beta	89.331777
_cell_angle_gamma	89.996559
loop_
_atom_site_label
_atom_site_type_symbol
_atom_site_fract_x
_atom_site_fract_y
_atom_site_fract_z
O1	O	1.050848	0.123156	-0.166919
O2	O	1.550848	0.623156	0.333081
O3	O	0.822448	0.123199	-0.165088
O4	O	1.322448	0.623199	0.334912
O5	O	0.935732	0.123166	-0.051803
O6	O	1.435732	0.623166	0.448197
O7	O	0.937564	0.123189	-0.280203
O8	O	1.437564	0.623189	0.219797
O9	O	0.935727	-0.123515	-0.051794
O10	O	1.435727	0.376485	0.448206
O11	O	0.822442	-0.123481	-0.165079
O12	O	1.322442	0.376519	0.334921
O13	O	1.050842	-0.123525	-0.166910
O14	O	1.550842	0.376475	0.333090
Cu15	Cu	0.936642	-0.146027	-0.165993
Cu16	Cu	1.436642	0.353973	0.334007
Cu17	Cu	0.936649	0.145702	-0.166004
Cu18	Cu	1.436649	0.645702	0.333996
O19	O	0.937558	-0.123492	-0.280194
O20	O	1.437558	0.376508	0.219806
C21	C	0.793085	-0.000135	-0.162727
C22	C	1.293085	0.499865	0.337273
C23	C	0.705600	-0.000119	-0.155699
C24	C	1.205600	0.499881	0.344301
N25	N	0.936643	-0.351213	-0.165985
N26	N	1.436643	0.148787	0.334015
C27	C	0.659610	-0.000113	-0.223517
C28	C	1.159610	0.499887	0.276483
C29	C	0.577409	-0.000134	-0.216908
C30	C	1.077409	0.499866	0.283092
C31	C	0.541201	-0.000151	-0.142480
C32	C	1.041201	0.499849	0.357520
C33	C	0.587198	-0.000161	-0.074657
C34	C	1.087198	0.499839	0.425343
C35	C	0.669397	-0.000150	-0.081267
C36	C	1.169397	0.499850	0.418733
C37	C	0.295886	-0.000193	-0.115086
C38	C	0.795886	0.499807	0.384914
C39	C	0.213681	-0.000199	-0.108481
C40	C	0.713681	0.499801	0.391519
C41	C	0.203898	-0.000176	-0.250732
C42	C	0.703898	0.499824	0.249268
C43	C	0.286099	-0.000156	-0.257335
C44	C	0.786099	0.499844	0.242665
C45	C	0.332089	-0.000174	-0.189512
C46	C	0.832089	0.499826	0.310488
N47	N	0.457178	-0.000168	-0.135723
N48	N	0.957178	0.499832	0.364277
N49	N	0.416110	-0.000168	-0.196270
N50	N	0.916110	0.499832	0.303730
C51	C	0.997494	-0.586218	-0.105619
C52	C	1.497494	-0.086218	0.394381
C53	C	0.997307	-0.414327	-0.105367
C54	C	1.497307	0.085673	0.394633
C55	C	0.853392	-0.413625	-0.142900
C56	C	1.353392	0.086375	0.357100
C57	C	0.853750	-0.585569	-0.142472
C58	C	1.353750	-0.085569	0.357528
C59	C	0.958335	-0.585713	-0.249621
C60	C	1.458335	-0.085713	0.250379
C61	C	0.960162	-0.413757	-0.249180
C62	C	1.460162	0.086243	0.250820
C63	C	1.080205	-0.000187	-0.169270
C64	C	1.580205	0.499813	0.330730
C65	C	1.167690	-0.000193	-0.176299
C66	C	1.667690	0.499807	0.323701
C67	C	0.933374	-0.000174	-0.022439
C68	C	1.433374	0.499826	0.477561
C69	C	0.926345	-0.000172	0.065046
C70	C	1.426345	0.499828	0.565046
N71	N	0.936653	0.350888	-0.166006
N72	N	1.436653	0.850888	0.333994
C73	C	0.939917	-0.000149	-0.309559
C74	C	1.439917	0.499851	0.190441
C75	C	0.946945	-0.000141	-0.397044
C76	C	1.446945	0.499859	0.102956
C77	C	0.994163	-0.000187	0.111037
C78	C	1.494163	0.499813	0.611037
C79	C	0.987554	-0.000171	0.193238
C80	C	1.487554	0.499829	0.693238
C81	C	0.913127	-0.000152	0.229446
C82	C	1.413127	0.499848	0.729446
C83	C	0.845303	-0.000133	0.183449
C84	C	1.345303	0.499867	0.683449
C85	C	0.851913	-0.000138	0.101250
C86	C	1.351913	0.499862	0.601250
C87	C	0.885732	-0.000126	0.474760
C88	C	1.385732	0.499874	0.974760
C89	C	0.879127	-0.000126	0.556966
C90	C	1.379127	0.499874	1.056966
C91	C	1.021379	-0.000161	0.566749
C92	C	1.521379	0.499839	1.066749
C93	C	1.027982	-0.000175	0.484547
C94	C	1.527982	0.499825	0.984547
C95	C	0.960159	-0.000148	0.438558
C96	C	1.460159	0.499852	0.938558
N97	N	0.906369	-0.000141	0.313468
N98	N	1.406369	0.499859	0.813468
N99	N	0.966917	-0.000149	0.354537
N100	N	1.466917	0.499851	0.854537
H101	H	0.539966	-0.000128	-0.272133
H102	H	1.039966	0.499872	0.227867
O103	O	0.321167	0.000062	-0.329684
O104	O	0.821167	0.500062	0.170316
C105	C	0.298097	0.127848	-0.371320
C106	C	0.798097	0.627848	0.128680
H107	H	0.239808	0.170419	-0.346282
H108	H	0.739808	0.670419	0.153718
H109	H	0.290794	0.099136	-0.436159
H110	H	0.790794	0.599136	0.063841
H111	H	0.345031	0.217318	-0.365188
H112	H	0.845031	0.717318	0.134812
H113	H	0.983283	-0.629448	-0.044032
H114	H	1.483283	-0.129448	0.455968
O115	O	0.911297	-0.362343	-0.305824
O116	O	1.411297	0.137657	0.194176
C117	C	0.955360	-0.282697	-0.362532
C118	C	1.455360	0.217303	0.137468
H119	H	1.012337	-0.241785	-0.335211
H120	H	1.512337	0.258215	0.164789
H121	H	0.919606	-0.183721	-0.383682
H122	H	1.419606	0.316279	0.116318
H123	H	0.969766	-0.358179	-0.414556
H124	H	1.469766	0.141821	0.085444
H125	H	0.689084	-0.000099	-0.284124
H126	H	1.189084	0.499901	0.215876
O127	O	0.772960	-0.000307	0.218528
O128	O	1.272960	0.499693	0.718528
C129	C	0.731309	-0.128073	0.195487
C130	C	1.231309	0.371927	0.695487
H131	H	0.756331	-0.170674	0.137201
H132	H	1.256331	0.329326	0.637201
H133	H	0.666471	-0.099321	0.188194
H134	H	1.166471	0.400679	0.688194
H135	H	0.737442	-0.217535	0.242435
H136	H	1.237442	0.282465	0.742435
H137	H	1.021431	-0.372967	-0.266579
H138	H	1.521431	0.127033	0.233421
H139	H	0.166444	-0.000164	-0.305950
H140	H	0.666444	0.499836	0.194050
O141	O	1.066403	-0.000270	0.075741
O142	O	1.566403	0.499730	0.575741
C143	C	1.057698	-0.000234	-0.006673
C144	C	1.557698	0.499766	0.493327
H145	H	0.997476	-0.046928	-0.022104
H146	H	1.497476	0.453072	0.477896
H147	H	1.105634	-0.071860	-0.034780
H148	H	1.605634	0.428140	0.465220
H149	H	1.062947	0.118109	-0.029776
H150	H	1.562947	0.618109	0.470224
H151	H	0.184203	-0.000211	-0.047870
H152	H	0.684203	0.499789	0.452130
H153	H	1.018023	-0.629075	-0.270538
H154	H	1.518023	-0.129075	0.229462
O155	O	0.979989	-0.365363	-0.031482
O156	O	1.479989	0.134637	0.468518
C157	C	0.905224	-0.418461	-0.008211
C158	C	1.405224	0.081539	0.491789
H159	H	0.869362	-0.445417	-0.062655
H160	H	1.369362	0.054583	0.437345
H161	H	0.873447	-0.329965	0.028022
H162	H	1.373447	0.170035	0.528022
H163	H	0.912405	-0.522933	0.028818
H164	H	1.412405	-0.022933	0.528818
O165	O	0.819771	-0.000186	0.430210
O166	O	1.319771	0.499814	0.930210
C167	C	0.752666	-0.000142	0.479798
C168	C	1.252666	0.499858	0.979798
H169	H	0.768810	-0.046841	0.539830
H170	H	1.268810	0.453159	1.039830
H171	H	0.704831	-0.071760	0.452635
H172	H	1.204831	0.428240	0.952635
H173	H	0.730092	0.118205	0.487027
H174	H	1.230092	0.618205	0.987027
H175	H	0.914029	-0.626392	-0.294620
H176	H	1.414029	-0.126392	0.205380
H177	H	0.557710	-0.000195	-0.014056
H178	H	1.057710	0.499805	0.485944
H179	H	1.042779	-0.000186	0.230680
H180	H	1.542779	0.499814	0.730680
O181	O	0.786058	0.000135	0.056537
O182	O	1.286058	0.500135	0.556537
C183	C	0.785642	0.127876	0.008675
C184	C	1.285642	0.627876	0.508675
H185	H	0.824014	0.217161	0.036219
H186	H	1.324014	0.717161	0.536219
H187	H	0.722813	0.170776	0.003410
H188	H	1.222813	0.670776	0.503410
H189	H	0.809759	0.098986	-0.052305
H190	H	1.309759	0.598986	0.447695
O191	O	1.100342	-0.000133	0.449504
O192	O	1.600342	0.499867	0.949504
C193	C	1.158785	-0.000186	0.507724
C194	C	1.658785	0.499814	1.007724
H195	H	1.133228	0.046536	0.564879
H196	H	1.633228	0.546536	1.064879
H197	H	1.210444	0.071406	0.487388
H198	H	1.710444	0.571406	0.987388
H199	H	1.179940	-0.118539	0.517983
H200	H	1.679940	0.381461	1.017983
H201	H	0.835426	-0.625693	-0.081335
H202	H	1.335426	-0.125693	0.418665
H203	H	0.818517	-0.000134	0.586443
H204	H	1.318517	0.499866	1.086443
O205	O	0.340437	-0.000139	-0.049125
O206	O	0.840437	0.499861	0.450875
C207	C	0.290848	-0.000188	0.017981
C208	C	0.790848	0.499812	0.517981
H209	H	0.230819	0.046517	0.001836
H210	H	0.730819	0.546517	0.501836
H211	H	0.318015	0.071420	0.065816
H212	H	0.818015	0.571420	0.565816
H213	H	0.283613	-0.118538	0.040554
H214	H	0.783613	0.381462	0.540554
O215	O	0.713958	-0.000082	-0.015308
O216	O	1.213958	0.499918	0.484692
C217	C	0.664376	-0.000132	0.051801
C218	C	1.164376	0.499868	0.551801
H219	H	0.604343	0.046565	0.035661
H220	H	1.104343	0.546565	0.535661
H221	H	0.691544	0.071483	0.099633
H222	H	1.191544	0.571483	0.599633
H223	H	0.657146	-0.118481	0.074377
H224	H	1.157146	0.381519	0.574377
H225	H	1.059407	-0.627568	-0.119970
H226	H	1.559407	-0.127568	0.380030
O227	O	1.070960	-0.364287	-0.122829
O228	O	1.570960	0.135713	0.377171
C229	C	1.094079	-0.416306	-0.197850
C230	C	1.594079	0.083694	0.302150
H231	H	1.058914	-0.520008	-0.212808
H232	H	1.558914	-0.020008	0.287192
H233	H	1.159514	-0.444192	-0.197740
H234	H	1.659514	0.055808	0.302260
H235	H	1.082504	-0.326785	-0.243667
H236	H	1.582504	0.173215	0.256333
H237	H	0.806851	-0.627175	-0.184515
H238	H	1.306851	-0.127175	0.315485
H239	H	0.806812	-0.372744	-0.185493
H240	H	1.306812	0.127256	0.314507
H241	H	1.076596	-0.000180	0.604202
H242	H	1.576596	0.499820	1.104202
O243	O	0.831193	-0.362035	-0.070789
O244	O	1.331193	0.137965	0.429211
C245	C	0.827977	-0.205809	-0.072519
C246	C	1.327977	0.294191	0.427481
H247	H	0.867230	-0.162736	-0.122352
H248	H	1.367230	0.337264	0.377648
H249	H	0.849352	-0.159713	-0.014072
H250	H	1.349352	0.340287	0.485928
H251	H	0.764750	-0.168652	-0.082531
H252	H	1.264750	0.331348	0.417469
