data_functionalizedCrystal
_audit_creation_method	'MofGen! by Chris Wilmer'
_symmetry_space_group_name_H-M	'P1'
_symmetry_Int_Tables_number	1
_symmetry_cell_setting	triclinic
loop_
_symmetry_equiv_pos_as_xyz
  x,y,z
_cell_length_a	10.489746
_cell_length_b	17.019294
_cell_length_c	9.565339
_cell_angle_alpha	86.121262
_cell_angle_beta	89.999333
_cell_angle_gamma	83.966638
loop_
_atom_site_label
_atom_site_type_symbol
_atom_site_fract_x
_atom_site_fract_y
_atom_site_fract_z
O1	O	1.692193	0.111306	-0.129564
O2	O	1.320824	0.121748	-0.130844
O3	O	1.516869	0.001754	-0.116379
O4	O	1.496149	0.231300	-0.144028
O5	O	1.516853	0.001761	0.116140
O6	O	1.320809	0.121755	0.101675
O7	O	1.692178	0.111313	0.102956
Zn8	Zn	1.506491	0.116535	0.139233
Zn9	Zn	1.506511	0.116526	-0.167121
O10	O	1.496133	0.231307	0.088491
C11	C	1.273298	0.120962	-0.014492
C12	C	1.131708	0.118600	-0.014216
C13	C	0.980147	0.040853	-0.004832
C14	C	1.056885	0.079727	0.105126
C15	C	1.056855	0.079738	-0.124122
C16	C	0.956167	0.153305	0.096373
C17	C	0.956132	0.153305	-0.132977
C18	C	1.032820	0.192233	-0.022997
C19	C	1.516075	-0.027636	0.003418
C20	C	1.513718	-0.115220	0.013958
C21	C	1.512622	-0.156366	-0.107836
C22	C	1.510400	-0.238659	-0.097928
C23	C	1.509282	-0.279805	0.033775
C24	C	1.510374	-0.238653	0.155578
C25	C	1.512588	-0.156360	0.145668
C26	C	1.502590	-0.528275	0.070035
C27	C	1.500380	-0.610573	0.079935
C28	C	1.500403	-0.610574	-0.173571
C29	C	1.502624	-0.528280	-0.183469
C30	C	1.503710	-0.487134	-0.061666
C31	C	1.507014	-0.363922	0.043905
C32	C	1.505968	-0.403018	-0.071798
C33	C	1.739704	0.112099	-0.013399
C34	C	1.881294	0.114461	-0.013684
C35	C	1.496927	0.260697	-0.031309
C36	C	1.499284	0.348280	-0.041858
N37	N	1.506486	0.116542	0.348312
N38	N	1.506526	0.116513	-0.376199
C39	C	1.415795	0.172016	0.432828
C40	C	1.531026	0.187979	0.524091
C41	C	1.391306	0.100585	0.534603
C42	C	1.621775	0.132540	0.437519
C43	C	1.481979	0.045115	0.448026
C44	C	1.597293	0.061048	0.539251
H45	H	0.956493	-0.023152	0.002993
C46	C	1.164961	0.140559	0.538079
C47	C	1.259791	0.082372	0.592073
H48	H	1.083768	0.129314	0.573549
H49	H	1.183004	0.190900	0.565333
H50	H	1.163787	0.140912	0.438735
H51	H	1.260971	0.082022	0.691418
H52	H	1.241743	0.032017	0.564828
H53	H	1.503499	-0.494786	0.169216
H54	H	1.100873	0.048656	0.205792
C55	C	0.993753	0.222655	-0.353638
C56	C	0.896706	0.195209	-0.268871
H57	H	0.957064	0.248516	-0.437543
H58	H	1.037149	0.258892	-0.304966
H59	H	1.052854	0.179167	-0.375910
H60	H	0.837610	0.238698	-0.246589
H61	H	0.853290	0.158971	-0.317552
C62	C	0.764080	0.192594	0.221513
C63	C	0.897048	0.195215	0.222333
H64	H	0.727586	0.218458	0.299284
H65	H	0.728716	0.218556	0.137096
H66	H	0.745762	0.138986	0.227628
H67	H	0.915366	0.248824	0.216208
H68	H	0.932424	0.169254	0.306772
C69	C	1.390082	-0.627697	0.298066
C70	C	1.499150	-0.655813	0.224705
H71	H	1.389326	-0.655634	0.387428
H72	H	1.391558	-0.572808	0.309619
H73	H	1.315392	-0.635596	0.246910
H74	H	1.573841	-0.647910	0.275856
H75	H	1.497685	-0.710716	0.213157
C76	C	1.506995	-0.364801	0.283331
C77	C	1.509157	-0.283880	0.300349
H78	H	1.506257	-0.392720	0.372711
H79	H	1.432296	-0.372697	0.232214
H80	H	1.580982	-0.383869	0.233544
H81	H	1.435164	-0.264811	0.350128
H82	H	1.583864	-0.275979	0.351488
H83	H	1.499517	-0.644083	-0.272736
H84	H	1.551781	0.248370	0.557785
H85	H	1.100823	0.048647	-0.217299
H86	H	1.513539	-0.122871	-0.215082
C87	C	1.510757	-0.230402	-0.349498
C88	C	1.509266	-0.283893	-0.231807
H89	H	1.510083	-0.258331	-0.432151
H90	H	1.437263	-0.192728	-0.348817
H91	H	1.585951	-0.203881	-0.347351
H92	H	1.434067	-0.310409	-0.233949
H93	H	1.582767	-0.321581	-0.232489
C94	C	1.502405	-0.536549	-0.433055
C95	C	1.503842	-0.483054	-0.328241
H96	H	1.503152	-0.508626	-0.522431
H97	H	1.575880	-0.574235	-0.423244
H98	H	1.427194	-0.563056	-0.424585
H99	H	1.579059	-0.456551	-0.336705
H100	H	1.430360	-0.445354	-0.338057
C101	C	1.512328	-0.164619	0.397241
C102	C	1.513779	-0.111128	0.279548
H103	H	1.513061	-0.136693	0.479893
H104	H	1.437134	-0.191129	0.395142
H105	H	1.585820	-0.202305	0.396517
H106	H	1.440281	-0.073445	0.280267
H107	H	1.588981	-0.084605	0.281648
H108	H	1.056228	0.256286	-0.030650
C109	C	1.312646	0.234289	0.223772
C110	C	1.312355	0.235400	0.370012
H111	H	1.248786	0.273416	0.184994
H112	H	1.394309	0.245119	0.189188
H113	H	1.295018	0.183578	0.197959
H114	H	1.329993	0.286108	0.395826
H115	H	1.230673	0.224575	0.404610
C116	C	1.821436	0.014586	0.552357
C117	C	1.700957	-0.002301	0.601714
H118	H	1.885433	-0.024518	0.590930
H119	H	1.822437	0.014543	0.453070
H120	H	1.838152	0.065183	0.579621
H121	H	1.684237	-0.052895	0.574441
H122	H	1.699953	-0.002266	0.701023
H123	H	1.506870	-0.369513	-0.179030
C124	C	1.343126	-0.027551	0.318807
C125	C	1.453914	-0.036383	0.402473
H126	H	1.325795	-0.077864	0.290676
H127	H	1.272782	-0.005267	0.370782
H128	H	1.355676	0.006459	0.238207
H129	H	1.441360	-0.070388	0.483079
H130	H	1.524274	-0.058678	0.350497
H131	H	1.506108	-0.397433	0.151138
H132	H	1.719219	0.146096	0.395104
