data_functionalizedCrystal
_audit_creation_method	'MofGen! by Chris Wilmer'
_symmetry_space_group_name_H-M	'P1'
_symmetry_Int_Tables_number	1
_symmetry_cell_setting	triclinic
loop_
_symmetry_equiv_pos_as_xyz
  x,y,z
_cell_length_a	15.297327
_cell_length_b	14.908571
_cell_length_c	14.908308
_cell_angle_alpha	90.175053
_cell_angle_beta	77.691786
_cell_angle_gamma	83.008605
loop_
_atom_site_label
_atom_site_type_symbol
_atom_site_fract_x
_atom_site_fract_y
_atom_site_fract_z
Zn1	Zn	-0.470251	-1.259455	0.663960
Zn2	Zn	-0.612780	-1.242018	0.536750
Zn3	Zn	-0.452943	-1.120930	0.502147
Zn4	Zn	-0.611710	-1.083241	0.678228
O5	O	-0.536921	-1.176411	0.595271
O6	O	-0.496849	-1.381564	0.655596
O7	O	-0.584782	-1.234431	0.405232
O8	O	-0.329146	-1.162376	0.503159
O9	O	-0.601565	-1.368753	0.562136
O10	O	-0.341862	-1.264150	0.622043
O11	O	-0.467350	-1.145468	0.379809
O12	O	-0.466312	-0.991508	0.516994
O13	O	-0.599740	-1.098141	0.803264
O14	O	-0.582958	-0.963819	0.646360
O15	O	-0.495811	-1.227605	0.792781
O16	O	-0.738732	-1.197885	0.575970
O17	O	-0.737945	-1.081233	0.679913
C18	C	-0.522641	-0.945402	0.579471
C19	C	-0.516555	-0.846570	0.572737
C20	C	-0.771036	-1.133600	0.633267
C21	C	-0.871198	-1.115365	0.649557
C22	C	-0.549587	-1.160614	0.831854
C23	C	-0.554984	-1.153882	0.932671
C24	C	-1.155071	-1.307088	0.479176
C25	C	-1.060963	-1.324221	0.463866
C26	C	-1.013517	-1.272009	0.510288
C27	C	-1.060188	-1.202660	0.572022
C28	C	-1.154304	-1.185521	0.587328
C29	C	-1.012750	-1.150441	0.618439
C30	C	-1.059421	-1.081092	0.680173
C31	C	-1.153528	-1.063957	0.695477
C32	C	-1.200974	-1.116169	0.649056
C33	C	-0.918634	-1.167580	0.603133
C34	C	-0.917868	-1.046013	0.711285
C35	C	-1.011975	-1.028880	0.726595
C36	C	-0.301895	-1.219412	0.557150
C37	C	-0.201741	-1.237736	0.540904
C38	C	-0.551257	-1.408322	0.611134
C39	C	-0.557366	-1.507148	0.617894
C40	C	-0.626752	-0.632047	0.694664
C41	C	-0.621037	-0.539185	0.688340
C42	C	-0.499405	-0.567982	0.553769
C43	C	-0.505121	-0.660844	0.560093
C44	C	-0.568797	-0.692873	0.630542
C45	C	-0.574516	-0.785736	0.636861
C46	C	-0.452881	-0.814532	0.502295
C47	C	-0.447166	-0.721670	0.495971
C48	C	-0.524243	-1.192210	0.359602
C49	C	-0.518602	-1.199160	0.258756
C50	C	-0.456884	-1.276044	1.111201
C51	C	-0.461953	-1.269722	1.205927
C52	C	-0.570184	-1.134914	1.216852
C53	C	-0.565116	-1.141235	1.122125
C54	C	-0.508465	-1.211804	1.069303
C55	C	-0.503402	-1.218128	0.974576
C56	C	-0.611628	-1.083317	0.985501
C57	C	-0.616697	-1.076995	1.080227
H58	H	-0.880644	-1.224045	0.552868
Br59	Br	-1.219464	-1.377935	0.416179
Br60	Br	-0.647052	-1.039143	1.288551
H61	H	-1.191523	-1.007479	0.745734
Br62	Br	-0.997632	-1.418340	0.380096
Br63	Br	-1.328649	-1.092548	0.669398
H64	H	-0.447558	-0.541888	0.496418
H65	H	-0.662818	-1.019539	1.123247
Br66	Br	-1.075324	-0.934769	0.810376
Br67	Br	-0.681649	-0.996139	0.928638
H68	H	-0.879237	-1.003496	0.749083
Br69	Br	-0.713178	-0.675518	0.790259
Br70	Br	-0.660937	-0.829204	0.732465
Br71	Br	-0.885830	-1.295512	0.489802
Br72	Br	-0.699689	-0.456637	0.775369
H73	H	-0.419948	-1.322031	1.240036
H74	H	-0.395320	-0.695579	0.438616
Br75	Br	-0.374234	-0.897086	0.415258
H76	H	-0.410762	-1.333507	1.068193
Br77	Br	-0.426524	-1.313901	0.902890
