data_functionalizedCrystal
_audit_creation_method	'MofGen! by Chris Wilmer'
_symmetry_space_group_name_H-M	'P1'
_symmetry_Int_Tables_number	1
_symmetry_cell_setting	triclinic
loop_
_symmetry_equiv_pos_as_xyz
  x,y,z
_cell_length_a	19.288864
_cell_length_b	27.732048
_cell_length_c	18.366186
_cell_angle_alpha	89.988789
_cell_angle_beta	89.977106
_cell_angle_gamma	82.889449
loop_
_atom_site_label
_atom_site_type_symbol
_atom_site_fract_x
_atom_site_fract_y
_atom_site_fract_z
O1	O	0.920977	0.060300	-0.060791
O2	O	1.170977	0.310300	0.189209
O3	O	1.420977	0.560300	0.439209
O4	O	1.670977	0.810300	0.689209
O5	O	0.718665	0.068434	-0.060742
O6	O	0.968665	0.318434	0.189258
O7	O	1.218665	0.568434	0.439258
O8	O	1.468665	0.818434	0.689258
O9	O	0.826104	-0.006011	-0.060754
O10	O	1.076104	0.243989	0.189246
O11	O	1.326104	0.493989	0.439246
O12	O	1.576104	0.743989	0.689246
O13	O	0.813538	0.134745	-0.060779
O14	O	1.063538	0.384745	0.189221
O15	O	1.313538	0.634745	0.439221
O16	O	1.563538	0.884745	0.689221
O17	O	0.826086	-0.006014	0.060345
O18	O	1.076086	0.243986	0.310345
O19	O	1.326086	0.493986	0.560345
O20	O	1.576086	0.743986	0.810345
O21	O	0.718647	0.068430	0.060357
O22	O	0.968647	0.318430	0.310357
O23	O	1.218647	0.568430	0.560357
O24	O	1.468647	0.818430	0.810357
O25	O	0.920959	0.060296	0.060309
O26	O	1.170959	0.310296	0.310309
O27	O	1.420959	0.560296	0.560309
O28	O	1.670959	0.810296	0.810309
Zn29	Zn	0.819800	0.064363	0.079560
Zn30	Zn	1.069800	0.314363	0.329560
Zn31	Zn	1.319800	0.564363	0.579560
Zn32	Zn	1.569800	0.814363	0.829560
Zn33	Zn	0.819824	0.064368	-0.079994
Zn34	Zn	1.069824	0.314368	0.170006
Zn35	Zn	1.319824	0.564368	0.420006
Zn36	Zn	1.569824	0.814368	0.670006
O37	O	0.813520	0.134741	0.060321
O38	O	1.063520	0.384741	0.310321
O39	O	1.313520	0.634741	0.560321
O40	O	1.563520	0.884741	0.810321
C41	C	0.692781	0.068171	-0.000186
C42	C	0.942781	0.318171	0.249814
C43	C	1.192781	0.568171	0.499814
C44	C	1.442781	0.818171	0.749814
C45	C	0.615683	0.067385	-0.000167
C46	C	0.865683	0.317385	0.249833
C47	C	1.115683	0.567385	0.499833
C48	C	1.365683	0.817385	0.749833
C49	C	0.570714	0.111066	-0.000186
C50	C	0.820714	0.361066	0.249814
C51	C	1.070714	0.611066	0.499814
C52	C	1.320714	0.861066	0.749814
C53	C	0.498271	0.110328	-0.000194
C54	C	0.748271	0.360328	0.249806
C55	C	0.998271	0.610328	0.499806
C56	C	1.248271	0.860328	0.749806
C57	C	0.470801	0.065906	-0.000197
C58	C	0.720801	0.315906	0.249803
C59	C	0.970801	0.565906	0.499803
C60	C	1.220801	0.815906	0.749803
C61	C	0.515780	0.022219	-0.000174
C62	C	0.765780	0.272219	0.249826
C63	C	1.015780	0.522219	0.499826
C64	C	1.265780	0.772219	0.749826
C65	C	0.588220	0.022959	-0.000159
C66	C	0.838220	0.272959	0.249841
C67	C	1.088220	0.522959	0.499841
C68	C	1.338220	0.772959	0.749841
C69	C	0.362763	0.030987	-0.042642
C70	C	0.612763	0.280987	0.207358
C71	C	0.862763	0.530987	0.457358
C72	C	1.112763	0.780987	0.707358
C73	C	0.290323	0.030250	-0.042662
C74	C	0.540323	0.280250	0.207338
C75	C	0.790323	0.530250	0.457338
C76	C	1.040323	0.780250	0.707338
C77	C	0.247370	0.063624	-0.000241
C78	C	0.497370	0.313624	0.249759
C79	C	0.747370	0.563624	0.499759
C80	C	0.997370	0.813624	0.749759
C81	C	0.276863	0.097744	0.042190
C82	C	0.526863	0.347744	0.292190
C83	C	0.776863	0.597744	0.542190
C84	C	1.026863	0.847744	0.792190
C85	C	0.349304	0.098483	0.042206
C86	C	0.599304	0.348483	0.292206
C87	C	0.849304	0.598483	0.542206
C88	C	1.099304	0.848483	0.792206
C89	C	0.392252	0.065099	-0.000213
C90	C	0.642252	0.315099	0.249787
C91	C	0.892252	0.565099	0.499787
C92	C	1.142252	0.815099	0.749787
C93	C	0.123850	0.106507	-0.000268
C94	C	0.373850	0.356507	0.249732
C95	C	0.623850	0.606507	0.499732
C96	C	0.873850	0.856507	0.749732
C97	C	0.051406	0.105767	-0.000271
C98	C	0.301406	0.355767	0.249729
C99	C	0.551406	0.605767	0.499729
C100	C	0.801406	0.855767	0.749729
C101	C	0.068916	0.017658	-0.000258
C102	C	0.318916	0.267658	0.249742
C103	C	0.568916	0.517658	0.499742
C104	C	0.818916	0.767658	0.749742
C105	C	0.141358	0.018399	-0.000248
C106	C	0.391358	0.268399	0.249752
C107	C	0.641358	0.518399	0.499752
C108	C	0.891358	0.768399	0.749752
C109	C	0.168820	0.062825	-0.000256
C110	C	0.418820	0.312825	0.249744
C111	C	0.668820	0.562825	0.499744
C112	C	0.918820	0.812825	0.749744
C113	C	0.825831	-0.024020	-0.000202
C114	C	1.075831	0.225980	0.249798
C115	C	1.325831	0.475980	0.499798
C116	C	1.575831	0.725980	0.749798
C117	C	0.825037	-0.077678	-0.000196
C118	C	1.075037	0.172322	0.249804
C119	C	1.325037	0.422322	0.499804
C120	C	1.575037	0.672322	0.749804
C121	C	0.883526	-0.416316	-0.000248
C122	C	1.133526	-0.166316	0.249752
C123	C	1.383526	0.083684	0.499752
C124	C	1.633526	0.333684	0.749752
C125	C	0.880579	-0.617985	-0.000257
C126	C	1.130579	-0.367985	0.249743
C127	C	1.380579	-0.117985	0.499743
C128	C	1.630579	0.132015	0.749743
O129	O	0.934063	-0.649079	-0.000302
O130	O	1.184063	-0.399079	0.249698
O131	O	1.434063	-0.149079	0.499698
O132	O	1.684063	0.100921	0.749698
N133	N	0.816872	-0.637301	-0.000241
N134	N	1.066872	-0.387301	0.249759
N135	N	1.316872	-0.137301	0.499759
N136	N	1.566872	0.112699	0.749759
C137	C	0.753897	-0.606196	-0.000227
C138	C	1.003897	-0.356196	0.249773
C139	C	1.253897	-0.106196	0.499773
C140	C	1.503897	0.143804	0.749773
O141	O	0.699643	-0.627253	-0.000222
O142	O	0.949643	-0.377253	0.249778
O143	O	1.199643	-0.127253	0.499778
O144	O	1.449643	0.122747	0.749778
C145	C	0.756845	-0.404529	-0.000223
C146	C	1.006845	-0.154529	0.249777
C147	C	1.256845	0.095471	0.499777
C148	C	1.506845	0.345471	0.749777
C149	C	0.820556	-0.385216	-0.000232
C150	C	1.070556	-0.135216	0.249768
C151	C	1.320556	0.114784	0.499768
C152	C	1.570556	0.364784	0.749768
C153	C	0.947232	-0.397002	-0.000257
C154	C	1.197232	-0.147002	0.249743
C155	C	1.447232	0.102998	0.499743
C156	C	1.697232	0.352998	0.749743
C157	C	0.947968	-0.346588	-0.000251
C158	C	1.197968	-0.096588	0.249749
C159	C	1.447968	0.153412	0.499749
C160	C	1.697968	0.403412	0.749749
C161	C	0.884998	-0.315488	-0.000235
C162	C	1.134998	-0.065488	0.249765
C163	C	1.384998	0.184512	0.499765
C164	C	1.634998	0.434512	0.749765
C165	C	0.821292	-0.334801	-0.000226
C166	C	1.071292	-0.084801	0.249774
C167	C	1.321292	0.165199	0.499774
C168	C	1.571292	0.415199	0.749774
C169	C	0.693871	-0.373425	-0.000215
C170	C	0.943871	-0.123425	0.249785
C171	C	1.193871	0.126575	0.499785
C172	C	1.443871	0.376575	0.749785
C173	C	0.694614	-0.323006	-0.000216
C174	C	0.944614	-0.073006	0.249784
C175	C	1.194614	0.176994	0.499784
C176	C	1.444614	0.426994	0.749784
C177	C	0.758325	-0.303693	-0.000224
C178	C	1.008325	-0.053693	0.249776
C179	C	1.258325	0.196307	0.499776
C180	C	1.508325	0.446307	0.749776
C181	C	0.759059	-0.253287	-0.000203
C182	C	1.009059	-0.003287	0.249797
C183	C	1.259059	0.246713	0.499797
C184	C	1.509059	0.496713	0.749797
N185	N	0.822766	-0.233971	-0.000219
N186	N	1.072766	0.016029	0.249781
N187	N	1.322766	0.266029	0.499781
N188	N	1.572766	0.516029	0.749781
C189	C	0.885735	-0.265071	-0.000235
C190	C	1.135735	-0.015071	0.249765
C191	C	1.385735	0.234929	0.499765
C192	C	1.635735	0.484929	0.749765
C193	C	0.752354	-0.712075	-0.000228
C194	C	1.002354	-0.462075	0.249772
C195	C	1.252354	-0.212075	0.499772
C196	C	1.502354	0.037925	0.749772
C197	C	0.751617	-0.762492	-0.000228
C198	C	1.001617	-0.512492	0.249772
C199	C	1.251617	-0.262492	0.499772
C200	C	1.501617	-0.012492	0.749772
C201	C	0.878299	-0.774276	-0.000259
C202	C	1.128299	-0.524276	0.249741
C203	C	1.378299	-0.274276	0.499741
C204	C	1.628299	-0.024276	0.749741
C205	C	0.879035	-0.723859	-0.000254
C206	C	1.129035	-0.473859	0.249746
C207	C	1.379035	-0.223859	0.499746
C208	C	1.629035	0.026141	0.749746
C209	C	0.816061	-0.692759	-0.000244
C210	C	1.066061	-0.442759	0.249756
C211	C	1.316061	-0.192759	0.499756
C212	C	1.566061	0.057241	0.749756
C213	C	0.887276	-0.159197	-0.000221
C214	C	1.137276	0.090803	0.249779
C215	C	1.387276	0.340803	0.499779
C216	C	1.637276	0.590803	0.749779
C217	C	0.888007	-0.108778	-0.000212
C218	C	1.138007	0.141222	0.249788
C219	C	1.388007	0.391222	0.499788
C220	C	1.638007	0.641222	0.749788
C221	C	0.761325	-0.096998	-0.000185
C222	C	1.011325	0.153002	0.249815
C223	C	1.261325	0.403002	0.499815
C224	C	1.511325	0.653002	0.749815
C225	C	0.760595	-0.147412	-0.000190
C226	C	1.010595	0.102588	0.249810
C227	C	1.260595	0.352588	0.499810
C228	C	1.510595	0.602588	0.749810
C229	C	0.823576	-0.178511	-0.000211
C230	C	1.073576	0.071489	0.249789
C231	C	1.323576	0.321489	0.499789
C232	C	1.573576	0.571489	0.749789
O233	O	0.705603	-0.222164	-0.000167
O234	O	0.955603	0.027836	0.249833
O235	O	1.205603	0.277836	0.499833
O236	O	1.455603	0.527836	0.749833
O237	O	0.939982	-0.244005	-0.000257
O238	O	1.189982	0.005995	0.249743
O239	O	1.439982	0.255995	0.499743
O240	O	1.689982	0.505995	0.749743
C241	C	0.882790	-0.466730	-0.000254
C242	C	1.132790	-0.216730	0.249746
C243	C	1.382790	0.033270	0.499746
C244	C	1.632790	0.283270	0.749746
C245	C	0.819084	-0.486044	-0.000245
C246	C	1.069084	-0.236044	0.249755
C247	C	1.319084	0.013956	0.499755
C248	C	1.569084	0.263956	0.749755
C249	C	0.756114	-0.454943	-0.000229
C250	C	1.006114	-0.204943	0.249771
C251	C	1.256114	0.045057	0.499771
C252	C	1.506114	0.295057	0.749771
C253	C	0.818347	-0.536461	-0.000244
C254	C	1.068347	-0.286461	0.249756
C255	C	1.318347	-0.036461	0.499756
C256	C	1.568347	0.213539	0.749756
C257	C	0.881317	-0.567561	-0.000260
C258	C	1.131317	-0.317561	0.249740
C259	C	1.381317	-0.067561	0.499740
C260	C	1.631317	0.182439	0.749740
C261	C	0.945023	-0.548245	-0.000276
C262	C	1.195023	-0.298245	0.249724
C263	C	1.445023	-0.048245	0.499724
C264	C	1.695023	0.201755	0.749724
C265	C	0.945760	-0.497831	-0.000270
C266	C	1.195760	-0.247831	0.249730
C267	C	1.445760	0.002169	0.499730
C268	C	1.695760	0.252169	0.749730
C269	C	0.692407	-0.474260	-0.000213
C270	C	0.942407	-0.224260	0.249787
C271	C	1.192407	0.025740	0.499787
C272	C	1.442407	0.275740	0.749787
C273	C	0.691676	-0.524674	-0.000218
C274	C	0.941676	-0.274674	0.249782
C275	C	1.191676	-0.024674	0.499782
C276	C	1.441676	0.225326	0.749782
C277	C	0.754646	-0.555775	-0.000234
C278	C	1.004646	-0.305775	0.249766
C279	C	1.254646	-0.055775	0.499766
C280	C	1.504646	0.194225	0.749766
C281	C	0.946842	0.060560	-0.000249
C282	C	1.196842	0.310560	0.249751
C283	C	1.446842	0.560560	0.499751
C284	C	1.696842	0.810560	0.749751
C285	C	1.023941	0.061345	-0.000273
C286	C	1.273941	0.311345	0.249727
C287	C	1.523941	0.561345	0.499727
C288	C	1.773941	0.811345	0.749727
C289	C	0.813792	0.152751	-0.000233
C290	C	1.063792	0.402751	0.249767
C291	C	1.313792	0.652751	0.499767
C292	C	1.563792	0.902751	0.749767
C293	C	0.814587	0.206408	-0.000244
C294	C	1.064587	0.456408	0.249756
C295	C	1.314587	0.706408	0.499756
C296	C	1.564587	0.956408	0.749756
N297	N	0.819789	0.064359	0.188451
N298	N	1.069789	0.314359	0.438451
N299	N	1.319789	0.564359	0.688451
N300	N	1.569789	0.814359	0.938451
N301	N	0.819841	0.064367	-0.188885
N302	N	1.069841	0.314367	0.061115
N303	N	1.319841	0.564367	0.311115
N304	N	1.569841	0.814367	0.561115
C305	C	0.867378	0.031411	0.226546
C306	C	1.117378	0.281411	0.476546
C307	C	1.367378	0.531411	0.726546
C308	C	1.617378	0.781411	0.976546
C309	C	0.867383	0.031409	0.302774
C310	C	1.117383	0.281409	0.552774
C311	C	1.367383	0.531409	0.802774
C312	C	1.617383	0.781409	1.052774
C313	C	0.819804	0.064363	0.340904
C314	C	1.069804	0.314363	0.590904
C315	C	1.319804	0.564363	0.840904
C316	C	1.569804	0.814363	1.090904
C317	C	0.772206	0.097314	0.302800
C318	C	1.022206	0.347314	0.552800
C319	C	1.272206	0.597314	0.802800
C320	C	1.522206	0.847314	1.052800
C321	C	0.772198	0.097312	0.226573
C322	C	1.022198	0.347312	0.476573
C323	C	1.272198	0.597312	0.726573
C324	C	1.522198	0.847312	0.976573
C325	C	0.810231	0.108406	0.461658
C326	C	1.060231	0.358406	0.711658
C327	C	1.310231	0.608406	0.961658
C328	C	1.560231	0.858406	1.211658
C329	C	0.810244	0.108409	0.537883
C330	C	1.060244	0.358409	0.787883
C331	C	1.310244	0.608409	1.037883
C332	C	1.560244	0.858409	1.287883
C333	C	0.819824	0.064369	0.576011
C334	C	1.069824	0.314369	0.826011
C335	C	1.319824	0.564369	1.076011
C336	C	1.569824	0.814369	1.326011
C337	C	0.829406	0.020325	0.537906
C338	C	1.079406	0.270325	0.787906
C339	C	1.329406	0.520325	1.037906
C340	C	1.579406	0.770325	1.287906
C341	C	0.829398	0.020323	0.461679
C342	C	1.079398	0.270323	0.711679
C343	C	1.329398	0.520323	0.961679
C344	C	1.579398	0.770323	1.211679
C345	C	0.819807	0.064369	0.423559
C346	C	1.069807	0.314369	0.673559
C347	C	1.319807	0.564369	0.923559
C348	C	1.569807	0.814369	1.173559
C349	C	0.867421	0.031416	0.696761
C350	C	1.117421	0.281416	0.946761
C351	C	1.367421	0.531416	1.196761
C352	C	1.617421	0.781416	1.446761
C353	C	0.867420	0.031413	0.772991
C354	C	1.117420	0.281413	1.022991
C355	C	1.367420	0.531413	1.272991
C356	C	1.617420	0.781413	1.522991
C357	C	0.772247	0.097322	0.773015
C358	C	1.022247	0.347322	1.023015
C359	C	1.272247	0.597322	1.273015
C360	C	1.522247	0.847322	1.523015
C361	C	0.772244	0.097321	0.696787
C362	C	1.022244	0.347321	0.946787
C363	C	1.272244	0.597321	1.196787
C364	C	1.522244	0.847321	1.446787
C365	C	0.819835	0.064368	0.658665
C366	C	1.069835	0.314368	0.908665
C367	C	1.319835	0.564368	1.158665
C368	C	1.569835	0.814368	1.408665
H369	H	0.593069	0.147241	-0.000194
H370	H	0.843069	0.397241	0.249806
H371	H	1.093069	0.647241	0.499806
H372	H	1.343069	0.897241	0.749806
Br373	Br	0.389330	0.144785	0.099789
Br374	Br	0.639330	0.394785	0.349789
Br375	Br	0.889330	0.644785	0.599789
Br376	Br	1.139330	0.894785	0.849789
Br377	Br	0.842417	-0.039447	0.589641
Br378	Br	1.092417	0.210553	0.839641
Br379	Br	1.342417	0.460553	1.089641
Br380	Br	1.592417	0.710553	1.339641
H381	H	0.733466	0.124145	0.333849
H382	H	0.983466	0.374145	0.583849
H383	H	1.233466	0.624145	0.833849
H384	H	1.483466	0.874145	1.083849
Br385	Br	0.707607	0.142030	0.174868
Br386	Br	0.957607	0.392030	0.424868
Br387	Br	1.207607	0.642030	0.674868
Br388	Br	1.457607	0.892030	0.924868
H389	H	0.241891	0.124920	0.076734
H390	H	0.491891	0.374920	0.326734
H391	H	0.741891	0.624920	0.576734
H392	H	0.991891	0.874920	0.826734
Br393	Br	0.932005	-0.013306	0.645022
Br394	Br	1.182005	0.236694	0.895022
Br395	Br	1.432005	0.486694	1.145022
Br396	Br	1.682005	0.736694	1.395022
Br397	Br	0.932005	-0.013310	0.824695
Br398	Br	1.182005	0.236690	1.074695
Br399	Br	1.432005	0.486690	1.324695
Br400	Br	1.682005	0.736690	1.574695
H401	H	0.837199	-0.015539	0.430657
H402	H	1.087199	0.234461	0.680657
H403	H	1.337199	0.484461	0.930657
H404	H	1.587199	0.734461	1.180657
Br405	Br	0.202391	-0.040886	-0.000224
Br406	Br	0.452391	0.209114	0.249776
Br407	Br	0.702391	0.459114	0.499776
Br408	Br	0.952391	0.709114	0.749776
H409	H	0.733505	0.124152	0.804060
H410	H	0.983505	0.374152	1.054060
H411	H	1.233505	0.624152	1.304060
H412	H	1.483505	0.874152	1.554060
H413	H	0.146211	0.142682	-0.000263
H414	H	0.396211	0.392682	0.249737
H415	H	0.646211	0.642682	0.499737
H416	H	0.896211	0.892682	0.749737
H417	H	0.733495	0.124152	0.665768
H418	H	0.983495	0.374152	0.915768
H419	H	1.233495	0.624152	1.165768
H420	H	1.483495	0.874152	1.415768
Br421	Br	0.437231	0.169613	-0.000215
Br422	Br	0.687231	0.419613	0.249785
Br423	Br	0.937231	0.669613	0.499785
Br424	Br	1.187231	0.919613	0.749785
Br425	Br	0.250302	-0.016049	-0.100256
Br426	Br	0.500302	0.233951	0.149744
Br427	Br	0.750302	0.483951	0.399744
Br428	Br	1.000302	0.733951	0.649744
H429	H	0.397731	0.003809	-0.077191
H430	H	0.647731	0.253809	0.172809
H431	H	0.897731	0.503809	0.422809
H432	H	1.147731	0.753809	0.672809
Br433	Br	-0.009625	0.165054	-0.000290
Br434	Br	0.240375	0.415054	0.249710
Br435	Br	0.490375	0.665054	0.499710
Br436	Br	0.740375	0.915054	0.749710
Br437	Br	0.031643	-0.042630	-0.000251
Br438	Br	0.281643	0.207370	0.249749
Br439	Br	0.531643	0.457370	0.499749
Br440	Br	0.781643	0.707370	0.749749
H441	H	0.802446	0.144272	0.568903
H442	H	1.052446	0.394272	0.818903
H443	H	1.302446	0.644272	1.068903
H444	H	1.552446	0.894272	1.318903
Br445	Br	0.972751	-0.201395	-0.000250
Br446	Br	1.222751	0.048605	0.249750
Br447	Br	1.472751	0.298605	0.499750
Br448	Br	1.722751	0.548605	0.749750
Br449	Br	0.478501	-0.038067	-0.000171
Br450	Br	0.728501	0.211933	0.249829
Br451	Br	0.978501	0.461933	0.499829
Br452	Br	1.228501	0.711933	0.749829
Br453	Br	0.797298	0.168180	0.409920
Br454	Br	1.047298	0.418180	0.659920
Br455	Br	1.297298	0.668180	0.909920
Br456	Br	1.547298	0.918180	1.159920
Br457	Br	0.649254	-0.036327	-0.000131
Br458	Br	0.899254	0.213673	0.249869
Br459	Br	1.149254	0.463673	0.499869
Br460	Br	1.399254	0.713673	0.749869
H461	H	0.999848	-0.330868	-0.000261
H462	H	1.249848	-0.080868	0.249739
H463	H	1.499848	0.169132	0.499739
H464	H	1.749848	0.419132	0.749739
Br465	Br	0.974478	-0.082571	-0.000223
Br466	Br	1.224478	0.167429	0.249777
Br467	Br	1.474478	0.417429	0.499777
Br468	Br	1.724478	0.667429	0.749777
H469	H	0.930914	-0.708138	-0.000262
H470	H	1.180914	-0.458138	0.249738
H471	H	1.430914	-0.208138	0.499738
H472	H	1.680914	0.041862	0.749738
Br473	Br	1.032703	-0.439202	-0.000279
Br474	Br	1.282703	-0.189202	0.249721
Br475	Br	1.532703	0.060798	0.499721
Br476	Br	1.782703	0.310798	0.749721
H477	H	0.929571	-0.799607	-0.000271
H478	H	1.179571	-0.549607	0.249729
H479	H	1.429571	-0.299607	0.499729
H480	H	1.679571	-0.049607	0.749729
Br481	Br	0.665149	-0.788696	-0.000199
Br482	Br	0.915149	-0.538696	0.249801
Br483	Br	1.165149	-0.288696	0.499801
Br484	Br	1.415149	-0.038696	0.749801
H485	H	0.701070	-0.686757	-0.000220
H486	H	0.951070	-0.436757	0.249780
H487	H	1.201070	-0.186757	0.499780
H488	H	1.451070	0.063243	0.749780
Br489	Br	0.931961	-0.013310	0.174808
Br490	Br	1.181961	0.236690	0.424808
Br491	Br	1.431961	0.486690	0.674808
Br492	Br	1.681961	0.736690	0.924808
Br493	Br	0.607401	-0.399623	-0.000206
Br494	Br	0.857401	-0.149623	0.249794
Br495	Br	1.107401	0.100377	0.499794
Br496	Br	1.357401	0.350377	0.749794
H497	H	0.643331	-0.297686	-0.000209
H498	H	0.893331	-0.047686	0.249791
H499	H	1.143331	0.202314	0.499791
H500	H	1.393331	0.452314	0.749791
H501	H	0.708716	-0.163138	-0.000163
H502	H	0.958716	0.086862	0.249837
H503	H	1.208716	0.336862	0.499837
H504	H	1.458716	0.586862	0.749837
H505	H	0.906137	0.004578	0.333797
H506	H	1.156137	0.254578	0.583797
H507	H	1.406137	0.504578	0.833797
H508	H	1.656137	0.754578	1.083797
H509	H	0.710057	-0.071667	-0.000169
H510	H	0.960057	0.178333	0.249831
H511	H	1.210057	0.428333	0.499831
H512	H	1.460057	0.678333	0.749831
Br513	Br	0.605203	-0.550878	-0.000201
Br514	Br	0.855203	-0.300878	0.249799
Br515	Br	1.105203	-0.050878	0.499799
Br516	Br	1.355203	0.199122	0.749799
Br517	Br	1.030482	-0.590463	-0.000292
Br518	Br	1.280482	-0.340463	0.249708
Br519	Br	1.530482	-0.090463	0.499708
Br520	Br	1.780482	0.159537	0.749708
H521	H	0.997640	-0.482111	-0.000277
H522	H	1.247640	-0.232111	0.249723
H523	H	1.497640	0.017889	0.499723
H524	H	1.747640	0.267889	0.749723
H525	H	0.641128	-0.448942	-0.000201
H526	H	0.891128	-0.198942	0.249799
H527	H	1.141128	0.051058	0.499799
H528	H	1.391128	0.301058	0.749799
