data_functionalizedCrystal
_audit_creation_method	'MofGen! by Chris Wilmer'
_symmetry_space_group_name_H-M	'P1'
_symmetry_Int_Tables_number	1
_symmetry_cell_setting	triclinic
loop_
_symmetry_equiv_pos_as_xyz
  x,y,z
_cell_length_a	13.032831
_cell_length_b	18.050589
_cell_length_c	13.033109
_cell_angle_alpha	97.157170
_cell_angle_beta	76.665514
_cell_angle_gamma	82.833186
loop_
_atom_site_label
_atom_site_type_symbol
_atom_site_fract_x
_atom_site_fract_y
_atom_site_fract_z
Zn1	Zn	1.699980	-0.522075	-0.806419
Zn2	Zn	1.677285	-0.628196	-0.628804
Zn3	Zn	1.499814	-0.485953	-0.606311
Zn4	Zn	1.522300	-0.628131	-0.783848
O5	O	1.599845	-0.566089	-0.706346
O6	O	1.845602	-0.551296	-0.801717
O7	O	1.634835	-0.594238	-0.477188
O8	O	1.526454	-0.386831	-0.632889
O9	O	1.828928	-0.629263	-0.671224
O10	O	1.673515	-0.413369	-0.779907
O11	O	1.504447	-0.489733	-0.460663
O12	O	1.354164	-0.489669	-0.611003
O13	O	1.564778	-0.629151	-0.935474
O14	O	1.370685	-0.594126	-0.741438
O15	O	1.695319	-0.551232	-0.952057
O16	O	1.656639	-0.732101	-0.649338
O17	O	1.542772	-0.732053	-0.763249
C18	C	1.323886	-0.537972	-0.671331
C19	C	1.205833	-0.525964	-0.656377
C20	C	1.161390	-0.572356	-0.714150
C21	C	1.039376	-0.559946	-0.698696
C22	C	1.599714	-0.759026	-0.706312
C23	C	1.599760	-0.841579	-0.706345
C24	C	1.537906	-1.041035	-0.768274
C25	C	1.499708	-1.077984	-0.668074
C26	C	1.599866	-0.992721	-0.706372
C27	C	1.638118	-1.102861	-0.806590
C28	C	1.599968	-1.138719	-0.706407
C29	C	1.561610	-1.028572	-0.606115
C30	C	1.700075	-1.053456	-0.744702
C31	C	1.661905	-1.090380	-0.644440
C32	C	1.599805	-0.908616	-0.706353
C33	C	1.600028	-1.222821	-0.706415
C34	C	1.876881	-0.594316	-0.741498
C35	C	1.994938	-0.606345	-0.756477
C36	C	1.635089	-0.594214	-0.983382
C37	C	1.650108	-0.606199	-1.101438
C38	C	1.600008	-0.372403	-0.706407
C39	C	1.600077	-0.289866	-0.706433
C40	C	1.592290	-0.559836	-1.145895
C41	C	1.607812	-0.572222	-1.267912
C42	C	1.564799	-0.538025	-0.430395
C43	C	1.549986	-0.525852	-0.312365
H44	H	1.047215	-0.655250	-0.817391
H45	H	1.153552	-0.477056	-0.595478
H46	H	1.213673	-0.621259	-0.775057
H47	H	1.415013	-1.089188	-0.635682
H48	H	0.987099	-0.511035	-0.637793
H49	H	1.485409	-1.019352	-0.820525
H50	H	1.711097	-0.655063	-1.153710
H51	H	1.529201	-0.996435	-0.521341
H52	H	1.714337	-1.111905	-0.592037
H53	H	1.488989	-0.476986	-1.260098
H54	H	1.784757	-1.042257	-0.777138
H55	H	1.531296	-0.510975	-1.093623
H56	H	1.670430	-1.135076	-0.891329
H57	H	1.668805	-0.621089	-1.320180
