data_functionalizedCrystal
_audit_creation_method	'MofGen! by Chris Wilmer'
_symmetry_space_group_name_H-M	'P1'
_symmetry_Int_Tables_number	1
_symmetry_cell_setting	triclinic
loop_
_symmetry_equiv_pos_as_xyz
  x,y,z
_cell_length_a	13.032831
_cell_length_b	12.594516
_cell_length_c	13.033352
_cell_angle_alpha	82.826646
_cell_angle_beta	89.095163
_cell_angle_gamma	82.816889
loop_
_atom_site_label
_atom_site_type_symbol
_atom_site_fract_x
_atom_site_fract_y
_atom_site_fract_z
Zn1	Zn	1.498341	-0.719114	0.780831
Zn2	Zn	1.520145	-0.877636	0.608862
Zn3	Zn	1.348247	-0.674578	0.587077
Zn4	Zn	1.326352	-0.871936	0.758982
O5	O	1.423271	-0.785816	0.683938
O6	O	1.645151	-0.761166	0.776280
O7	O	1.515630	-0.834447	0.462060
O8	O	1.368195	-0.531548	0.612806
O9	O	1.661170	-0.877631	0.649935
O10	O	1.478468	-0.564268	0.755156
O11	O	1.389337	-0.685261	0.446055
O12	O	1.201425	-0.679734	0.591620
O13	O	1.330879	-0.867917	0.905793
O14	O	1.185339	-0.824733	0.717918
O15	O	1.457238	-0.755639	0.921845
O16	O	1.494400	-1.025817	0.628749
O17	O	1.352021	-1.021630	0.739041
C18	C	1.156065	-0.746783	0.650034
C19	C	1.041750	-0.730113	0.635555
C20	C	1.423226	-1.062348	0.683914
C21	C	1.423296	-1.180667	0.683950
C22	C	0.982866	-0.794516	0.691495
C23	C	0.864715	-0.777289	0.676531
C24	C	1.500806	-1.252179	0.624046
C25	C	1.513987	-1.337175	0.721095
C26	C	1.410236	-1.306496	0.586977
C27	C	1.436518	-1.264117	0.781055
C28	C	1.332732	-1.233419	0.646868
C29	C	1.345869	-1.318384	0.743978
C30	C	1.691520	-0.825002	0.717975
C31	C	1.805832	-0.841701	0.732479
C32	C	1.389184	-0.816110	0.952177
C33	C	1.374658	-0.829019	1.066484
C34	C	1.423342	-0.508211	0.683988
C35	C	1.423372	-0.389912	0.684010
C36	C	1.430702	-0.779222	1.125389
C37	C	1.415690	-0.792563	1.243532
C38	C	1.457217	-0.755664	1.416742
C39	C	1.471742	-0.742758	1.302434
H40	H	1.019922	-0.862405	0.750470
H41	H	1.530836	-0.690237	1.265405
H42	H	0.827662	-0.709388	0.617560
C43	C	1.335850	-0.863505	1.293542
H44	H	1.302630	-0.893012	1.241265
H45	H	1.369890	-0.920322	1.340435
H46	H	1.285759	-0.820934	1.329766
C47	C	1.589349	-1.212815	0.555684
H48	H	1.561441	-1.160664	0.501037
H49	H	1.634440	-1.181317	0.596224
H50	H	1.626782	-1.272182	0.527602
H51	H	1.399158	-1.325588	0.504943
C52	C	1.617484	-1.398021	0.763510
H53	H	1.605069	-1.445658	0.823608
H54	H	1.650221	-1.438226	0.712456
H55	H	1.661009	-1.347705	0.780649
C56	C	1.451615	-1.238536	0.891921
H57	H	1.451533	-1.163005	0.891218
H58	H	1.396886	-1.261757	0.934574
H59	H	1.515761	-1.275051	0.918360
H60	H	1.315556	-0.881522	1.103518
C61	C	0.991699	-0.638391	0.555892
H62	H	0.918855	-0.638847	0.556283
H63	H	1.007338	-0.571157	0.573270
H64	H	1.018020	-0.648593	0.488969
C65	C	1.257356	-1.357506	0.812533
H66	H	1.266837	-1.343237	0.881402
H67	H	1.193124	-1.320582	0.786765
H68	H	1.257520	-1.432851	0.811743
H69	H	0.842882	-0.909593	0.791461
C70	C	1.229267	-1.172540	0.604423
H71	H	1.220068	-1.186656	0.535458
H72	H	1.174147	-1.196097	0.646294
H73	H	1.229768	-1.097297	0.605308
C74	C	1.510538	-0.708285	1.075369
H75	H	1.510159	-0.708631	1.002526
H76	H	1.493295	-0.636544	1.091027
H77	H	1.577423	-0.735935	1.101688
