data_functionalizedCrystal
_audit_creation_method	'MofGen! by Chris Wilmer'
_symmetry_space_group_name_H-M	'P1'
_symmetry_Int_Tables_number	1
_symmetry_cell_setting	triclinic
loop_
_symmetry_equiv_pos_as_xyz
  x,y,z
_cell_length_a	10.540510
_cell_length_b	9.016244
_cell_length_c	14.519731
_cell_angle_alpha	90.003217
_cell_angle_beta	84.101082
_cell_angle_gamma	90.007604
loop_
_atom_site_label
_atom_site_type_symbol
_atom_site_fract_x
_atom_site_fract_y
_atom_site_fract_z
O1	O	1.684603	0.123353	0.129832
O2	O	2.184603	0.623353	0.629832
O3	O	1.315061	0.123355	0.142106
O4	O	1.815061	0.623355	0.642106
O5	O	1.509616	0.123340	0.001784
O6	O	2.009616	0.623340	0.501784
O7	O	1.490049	0.123367	0.270154
O8	O	1.990049	0.623367	0.770154
O9	O	1.509588	-0.123340	0.001787
O10	O	2.009588	0.376660	0.501787
O11	O	1.315033	-0.123326	0.142109
O12	O	1.815033	0.376674	0.642109
O13	O	1.684575	-0.123327	0.129835
O14	O	2.184575	0.376673	0.629835
Cu15	Cu	1.499801	-0.145851	0.135972
Cu16	Cu	1.999801	0.354149	0.635972
Cu17	Cu	1.499835	0.145878	0.135969
Cu18	Cu	1.999835	0.645878	0.635969
O19	O	1.490020	-0.123313	0.270157
O20	O	1.990020	0.376687	0.770157
C21	C	1.267753	0.000014	0.141193
C22	C	1.767753	0.500014	0.641193
C23	C	1.126831	0.000014	0.138456
C24	C	1.626831	0.500014	0.638456
N25	N	1.499787	-0.351037	0.135974
N26	N	1.999787	0.148963	0.635974
C27	C	0.908390	0.000591	0.235938
C28	C	1.408390	0.500591	0.735938
C29	C	1.054956	0.000026	0.238857
C30	C	1.554956	0.500026	0.738857
C31	C	1.082574	-0.140854	0.087063
C32	C	1.582574	0.359146	0.587063
C33	C	0.935835	-0.140963	0.084855
C34	C	1.435835	0.359037	0.584855
C35	C	0.936082	0.139558	0.082761
C36	C	1.436082	0.639558	0.582761
C37	C	1.082376	0.141412	0.087523
C38	C	1.582376	0.641412	0.587523
C39	C	1.395398	-0.586062	0.210786
C40	C	1.895398	-0.086062	0.710786
C41	C	1.395625	-0.414171	0.211066
C42	C	1.895625	0.085829	0.711066
C43	C	1.632291	-0.413373	0.157855
C44	C	2.132291	0.086627	0.657855
C45	C	1.631719	-0.585318	0.158385
C46	C	2.131719	-0.085318	0.658385
C47	C	1.472992	-0.585590	0.039037
C48	C	1.972992	-0.085590	0.539037
C49	C	1.469940	-0.413636	0.039665
C50	C	1.969940	0.086364	0.539665
C51	C	1.731883	0.000016	0.130748
C52	C	2.231883	0.500016	0.630748
C53	C	1.872806	0.000026	0.133485
C54	C	2.372806	0.500026	0.633485
C55	C	1.508685	-0.000000	-0.032579
C56	C	2.008685	0.500000	0.467421
C57	C	1.505938	-0.000001	-0.134974
C58	C	2.005938	0.499999	0.365026
N59	N	1.499859	0.351064	0.135959
N60	N	1.999859	0.851064	0.635959
C61	C	1.503705	0.000002	-0.218130
C62	C	2.003705	0.500002	0.281870
C63	C	1.500916	0.000014	-0.322453
C64	C	2.000916	0.500014	0.177547
C65	C	1.498702	0.000023	-0.405604
C66	C	1.998702	0.500023	0.094396
C67	C	1.495913	0.000032	-0.509934
C68	C	1.995913	0.500032	-0.009934
C69	C	1.490951	0.000031	0.304520
C70	C	1.990951	0.500031	0.804520
C71	C	1.493699	0.000041	0.406915
C72	C	1.993699	0.500041	0.906915
H73	H	1.083908	0.101010	0.279063
H74	H	1.583908	0.601010	0.779063
H75	H	1.412343	-0.629248	0.282287
H76	H	1.912343	-0.129248	0.782287
F77	F	0.853053	0.132639	0.287066
F78	F	1.353053	0.632639	0.787066
F79	F	1.572557	-0.638733	-0.033759
F80	F	2.072557	-0.138733	0.466241
F81	F	0.850994	-0.130694	0.286775
F82	F	1.350994	0.369306	0.786775
H83	H	1.296603	-0.627457	0.197824
H84	H	1.796603	-0.127457	0.697824
H85	H	1.378464	-0.629040	0.018210
H86	H	1.878464	-0.129040	0.518210
F87	F	1.147472	0.152519	-0.008289
F88	F	1.647472	0.652519	0.491711
F89	F	1.122412	-0.277874	0.133716
F90	F	1.622412	0.222126	0.633716
H91	H	1.412798	-0.373017	0.282974
H92	H	1.912798	0.126983	0.782974
H93	H	1.711891	-0.626906	0.106080
H94	H	2.211891	-0.126906	0.606080
F95	F	1.663915	-0.357061	0.249235
F96	F	2.163915	0.142939	0.749235
F97	F	1.662618	-0.637712	0.250810
F98	F	2.162618	-0.137712	0.750810
F99	F	1.736326	-0.359923	0.088564
F100	F	2.236326	0.140077	0.588564
H101	H	0.914690	0.140503	0.007380
H102	H	1.414690	0.640503	0.507380
F103	F	1.562905	-0.357487	-0.036612
F104	F	2.062905	0.142513	0.463388
H105	H	1.372469	-0.372896	0.023080
H106	H	1.872469	0.127104	0.523080
H107	H	1.297140	-0.372028	0.197902
H108	H	1.797140	0.127972	0.697902
H109	H	1.082940	-0.101116	0.279310
H110	H	1.582940	0.398884	0.779310
H111	H	0.913598	-0.147370	0.009762
H112	H	1.413598	0.352630	0.509762
F113	F	0.882785	-0.278587	0.130769
F114	F	1.382785	0.221413	0.630769
H115	H	1.130710	-0.146101	0.013150
H116	H	1.630710	0.353899	0.513150
H117	H	0.893227	0.246329	0.114421
H118	H	1.393227	0.746329	0.614421
F119	F	1.119348	0.277631	0.136375
F120	F	1.619348	0.777631	0.636375
