data_functionalizedCrystal
_audit_creation_method	'MofGen! by Chris Wilmer'
_symmetry_space_group_name_H-M	'P1'
_symmetry_Int_Tables_number	1
_symmetry_cell_setting	triclinic
loop_
_symmetry_equiv_pos_as_xyz
  x,y,z
_cell_length_a	16.109301
_cell_length_b	8.559649
_cell_length_c	14.586319
_cell_angle_alpha	89.997976
_cell_angle_beta	89.999213
_cell_angle_gamma	76.620073
loop_
_atom_site_label
_atom_site_type_symbol
_atom_site_fract_x
_atom_site_fract_y
_atom_site_fract_z
O1	O	1.090046	0.205389	-0.076179
O2	O	0.846355	0.230950	-0.076193
O3	O	0.989670	-0.014444	-0.076183
O4	O	0.946731	0.450783	-0.076188
O5	O	0.989661	-0.014447	0.076297
O6	O	0.846347	0.230946	0.076288
O7	O	1.090037	0.205386	0.076302
Cu8	Cu	0.968191	0.218165	0.090218
Cu9	Cu	0.968201	0.218170	-0.090108
O10	O	0.946722	0.450779	0.076293
C11	C	0.815442	0.229912	0.000046
C12	C	0.723344	0.226808	0.000040
C13	C	0.992919	-0.073977	0.000055
C14	C	1.002605	-0.251362	0.000051
C15	C	0.492255	0.365202	0.000050
C16	C	0.405721	0.362273	0.000056
C17	C	0.444145	0.071122	0.000054
C18	C	0.530677	0.074053	0.000055
C19	C	0.554729	0.221098	0.000048
C20	C	0.381663	0.215238	0.000053
C21	C	0.287840	0.212061	0.000060
C22	C	0.648558	0.224275	0.000043
C23	C	1.120950	0.206423	0.000062
C24	C	1.213048	0.209527	0.000061
C25	C	0.943473	0.510312	0.000052
C26	C	0.933787	0.687697	0.000051
N27	N	0.968190	0.218161	0.217050
N28	N	0.968210	0.218161	-0.216940
C29	C	1.031666	0.109538	0.452060
C30	C	1.031669	0.109534	0.548041
C31	C	0.904727	0.326790	0.548043
C32	C	0.904722	0.326785	0.452063
C33	C	0.968196	0.218161	0.404074
C34	C	0.968204	0.218162	0.596035
C35	C	0.968206	0.218158	0.700102
C36	C	0.968193	0.218162	0.300001
H37	H	0.354857	0.479618	0.000059
C38	C	0.844176	-0.199468	0.000041
C39	C	0.781908	-0.206474	0.079218
C40	C	0.692296	-0.093628	0.079208
C41	C	0.664953	0.026225	0.000022
C42	C	0.727222	0.033237	-0.079161
C43	C	0.816834	-0.079610	-0.079151
H44	H	0.802148	-0.295201	0.137841
H45	H	0.646201	-0.098819	0.137824
H46	H	0.598617	0.109761	0.000015
H47	H	0.706982	0.121963	-0.137784
H48	H	0.862930	-0.074419	-0.137768
C49	C	1.101489	-0.009948	0.600827
C50	C	1.171311	-0.129413	0.548039
C51	C	1.241133	-0.248902	0.600825
C52	C	1.241133	-0.248926	0.706398
C53	C	1.171309	-0.129458	0.759192
C54	C	1.101486	-0.009969	0.706407
H55	H	1.171313	-0.129398	0.469882
H56	H	1.292822	-0.337340	0.561742
H57	H	1.292820	-0.337379	0.745473
H58	H	1.171306	-0.129472	0.837349
H59	H	1.049797	0.078470	0.745489
C60	C	1.092220	-0.364205	0.000060
C61	C	1.154478	-0.357177	0.079242
C62	C	1.244091	-0.470019	0.079252
C63	C	1.271447	-0.589888	0.000080
C64	C	1.209188	-0.596921	-0.079108
C65	C	1.119575	-0.484079	-0.079118
H66	H	1.134229	-0.268439	0.137855
H67	H	1.290179	-0.464813	0.137872
H68	H	1.337783	-0.673421	0.000087
H69	H	1.229437	-0.685659	-0.137721
H70	H	1.073487	-0.489285	-0.137738
H71	H	0.424550	-0.048597	0.000066
C72	C	0.599405	-0.084474	0.000052
C73	C	0.603357	-0.204982	0.079229
C74	C	0.672085	-0.363500	0.079230
C75	C	0.736861	-0.401510	0.000053
C76	C	0.732912	-0.280999	-0.079130
C77	C	0.664184	-0.122481	-0.079131
H78	H	0.555404	-0.176847	0.137845
H79	H	0.675008	-0.452710	0.137847
H80	H	0.787737	-0.518855	0.000053
H81	H	0.780865	-0.309134	-0.137747
H82	H	0.661261	-0.033271	-0.137748
C83	C	1.101480	-0.009958	0.399272
C84	C	1.111701	-0.191920	0.412477
C85	C	1.181515	-0.311423	0.359692
C86	C	1.241108	-0.248965	0.293702
C87	C	1.230889	-0.066994	0.280495
C88	C	1.161075	0.052509	0.333279
H89	H	1.067585	-0.238163	0.461329
H90	H	1.189080	-0.446130	0.369469
H91	H	1.292789	-0.337429	0.254628
H92	H	1.275005	-0.020751	0.231643
H93	H	1.153510	0.187216	0.323502
C94	C	0.834913	0.446286	0.600831
C95	C	0.834954	0.446393	0.706404
C96	C	0.765139	0.565896	0.759189
C97	C	0.695285	0.685293	0.706400
C98	C	0.695242	0.685190	0.600821
C99	C	0.765056	0.565687	0.548036
H100	H	0.886667	0.358004	0.745487
H101	H	0.765172	0.565971	0.837346
H102	H	0.643604	0.773756	0.745475
H103	H	0.643529	0.773579	0.561738
H104	H	0.765024	0.565612	0.469879
H105	H	0.511835	0.484935	0.000051
H106	H	0.853033	0.415240	0.412990
