data_functionalizedCrystal
_audit_creation_method	'MofGen! by Chris Wilmer'
_symmetry_space_group_name_H-M	'P1'
_symmetry_Int_Tables_number	1
_symmetry_cell_setting	triclinic
loop_
_symmetry_equiv_pos_as_xyz
  x,y,z
_cell_length_a	14.853568
_cell_length_b	14.853567
_cell_length_c	13.930277
_cell_angle_alpha	90.000757
_cell_angle_beta	89.995589
_cell_angle_gamma	96.364941
loop_
_atom_site_label
_atom_site_type_symbol
_atom_site_fract_x
_atom_site_fract_y
_atom_site_fract_z
O1	O	-1.196368	0.117706	0.079760
O2	O	-0.933909	0.131727	0.079775
O3	O	-1.072149	-0.006513	0.079770
O4	O	-1.058128	0.255946	0.079765
O5	O	-1.072130	-0.006516	-0.079892
O6	O	-0.933889	0.131724	-0.079887
O7	O	-1.196349	0.117703	-0.079902
Zn8	Zn	-1.065116	0.124713	-0.105244
Zn9	Zn	-1.065141	0.124717	0.105117
O10	O	-1.058108	0.255943	-0.079897
C11	C	-0.900310	0.131090	-0.000054
C12	C	-0.800227	0.129186	-0.000048
C13	C	-1.071504	-0.040103	-0.000058
C14	C	-1.069600	-0.140187	-0.000050
C15	C	-0.387693	0.039019	-0.000069
C16	C	-0.366412	0.203252	-0.000072
C17	C	-0.460446	0.205043	-0.000068
C18	C	-0.518107	0.123820	-0.000064
C19	C	-0.481736	0.040807	-0.000063
C20	C	-0.496825	0.288054	-0.000059
C21	C	-0.590864	0.289848	-0.000055
C22	C	-0.648527	0.208624	-0.000058
C23	C	-0.612150	0.125608	-0.000058
C24	C	-0.669812	0.044385	-0.000054
C25	C	-0.633437	-0.038632	-0.000061
C26	C	-0.539399	-0.040416	-0.000066
C27	C	-0.742565	0.210409	-0.000052
C28	C	-0.763855	0.046173	-0.000047
C29	C	-0.979435	-0.552721	-0.000063
C30	C	-1.143667	-0.574002	-0.000072
C31	C	-1.145457	-0.479968	-0.000067
C32	C	-1.064235	-0.422306	-0.000061
C33	C	-0.981222	-0.458678	-0.000060
C34	C	-1.228469	-0.443589	-0.000077
C35	C	-1.230262	-0.349550	-0.000072
C36	C	-1.149039	-0.291886	-0.000059
C37	C	-1.066023	-0.328263	-0.000058
C38	C	-0.984800	-0.270602	-0.000052
C39	C	-0.901783	-0.306977	-0.000044
C40	C	-0.899999	-0.401015	-0.000048
C41	C	-1.150823	-0.197849	-0.000056
C42	C	-0.986588	-0.176559	-0.000049
C43	C	-0.229947	0.118340	-0.000072
C44	C	-0.330031	0.120242	-0.000073
C45	C	-1.058753	0.289534	-0.000067
C46	C	-1.060657	0.389617	-0.000069
N47	N	-1.065105	0.124710	-0.248810
C48	C	-1.003926	0.185906	-0.701077
C49	C	-1.126381	0.063521	-0.701051
C50	C	-1.126371	0.063519	-0.600555
C51	C	-1.065138	0.124711	-0.550316
C52	C	-1.003915	0.185907	-0.600572
C53	C	-1.187598	0.002330	-0.550291
C54	C	-1.187590	0.002326	-0.449790
C55	C	-1.126352	0.063515	-0.399548
C56	C	-1.065127	0.124712	-0.449811
C57	C	-1.003894	0.185905	-0.399572
C58	C	-0.942663	0.247098	-0.449832
C59	C	-0.942677	0.247096	-0.550331
C60	C	-1.126338	0.063517	-0.299050
C61	C	-1.003883	0.185905	-0.299067
N62	N	-1.065159	0.124713	0.248683
H63	H	-0.810798	-0.019969	-0.000048
H64	H	-1.209795	-0.620955	-0.000085
H65	H	-1.294595	-0.490543	-0.000090
H66	H	-1.176195	0.013698	-0.258132
H67	H	-0.892811	0.296926	-0.408916
H68	H	-1.297859	-0.319941	-0.000078
H69	H	-0.620472	0.357445	-0.000049
H70	H	-0.832411	-0.430641	-0.000042
H71	H	-0.835652	-0.260017	-0.000046
H72	H	-0.920445	-0.129616	-0.000040
H73	H	-0.319459	0.269380	-0.000067
H74	H	-0.911844	-0.582342	-0.000052
H75	H	-1.218414	-0.168236	-0.000069
H76	H	-0.509774	-0.108004	-0.000094
H77	H	-0.680397	-0.104763	-0.000051
H78	H	-0.358072	-0.028571	-0.000079
H79	H	-0.954016	0.235733	-0.258168
H80	H	-1.176240	0.013704	-0.741959
H81	H	-0.892826	0.296918	-0.591260
H82	H	-1.237457	-0.047487	-0.591200
H83	H	-1.237446	-0.047502	-0.408873
H84	H	-0.449870	0.354181	-0.000053
H85	H	-0.772178	0.278000	-0.000048
H86	H	-0.954071	0.235727	-0.742002
