data_functionalizedCrystal
_audit_creation_method	'MofGen! by Chris Wilmer'
_symmetry_space_group_name_H-M	'P1'
_symmetry_Int_Tables_number	1
_symmetry_cell_setting	triclinic
loop_
_symmetry_equiv_pos_as_xyz
  x,y,z
_cell_length_a	12.759401
_cell_length_b	18.215405
_cell_length_c	12.759393
_cell_angle_alpha	89.967582
_cell_angle_beta	89.980198
_cell_angle_gamma	90.021107
loop_
_atom_site_label
_atom_site_type_symbol
_atom_site_fract_x
_atom_site_fract_y
_atom_site_fract_z
Zn1	Zn	1.606213	-0.292967	-0.593974
Zn2	Zn	1.606082	-0.416051	-0.418288
Zn3	Zn	1.430512	-0.293001	-0.418313
Zn4	Zn	1.430481	-0.415994	-0.593929
O5	O	1.518322	-0.354503	-0.506126
O6	O	1.753216	-0.309303	-0.570678
O7	O	1.582750	-0.399766	-0.271271
O8	O	1.453887	-0.190012	-0.441644
O9	O	1.753120	-0.399733	-0.441602
O10	O	1.582974	-0.189987	-0.570701
O11	O	1.453759	-0.309361	-0.271288
O12	O	1.283487	-0.309306	-0.441600
O13	O	1.453834	-0.399636	-0.740956
O14	O	1.283464	-0.399669	-0.570625
O15	O	1.582944	-0.309249	-0.740989
O16	O	1.582720	-0.519027	-0.441558
O17	O	1.453707	-0.518986	-0.570601
C18	C	1.245354	-0.354486	-0.506111
C19	C	1.128578	-0.354496	-0.506129
C20	C	1.518224	-0.545709	-0.506095
C21	C	1.518279	-0.627508	-0.506117
C22	C	0.964030	-0.307512	-0.573450
C23	C	1.073754	-0.307497	-0.573443
C24	C	1.073672	-0.401518	-0.438825
C25	C	0.963950	-0.401535	-0.438839
C26	C	1.585557	-0.892495	-0.573420
C27	C	1.585522	-0.815636	-0.573404
C28	C	1.451221	-0.815770	-0.438893
C29	C	1.451262	-0.892627	-0.438905
C30	C	1.518429	-0.930988	-0.506174
C31	C	1.518352	-0.777272	-0.506146
C32	C	1.518313	-0.693938	-0.506129
C33	C	1.518469	-1.014327	-0.506191
C34	C	1.792355	-0.354521	-0.506142
C35	C	1.909132	-0.354528	-0.506149
C36	C	1.518400	-0.354432	-0.780160
C37	C	1.518434	-0.354402	-0.896936
C38	C	1.518448	-0.162550	-0.506180
C39	C	1.518502	-0.080751	-0.506203
C40	C	1.585666	-0.307330	-0.951817
C41	C	1.585684	-0.307298	-1.061541
C42	C	1.451234	-0.401417	-1.061494
C43	C	1.451212	-0.401445	-0.951772
C44	C	1.518304	-0.354520	-0.233159
C45	C	1.518474	-0.354343	-0.116383
H46	H	0.919400	-0.269235	-0.628258
H47	H	1.118319	-0.439788	-0.384022
H48	H	0.919251	-0.439826	-0.384034
C49	C	1.318469	-0.823622	-0.305942
C50	C	1.377380	-0.773602	-0.364965
H51	H	1.272884	-0.797589	-0.260301
H52	H	1.278279	-0.853600	-0.351686
H53	H	1.364294	-0.853592	-0.265798
H54	H	1.331555	-0.743635	-0.405116
H55	H	1.417573	-0.743611	-0.319216
C56	C	1.636911	-0.182725	-0.918081
C57	C	1.659544	-0.255613	-0.891541
H58	H	1.682516	-0.150796	-0.880866
H59	H	1.646548	-0.175979	-0.991274
H60	H	1.566321	-0.171966	-0.900085
H61	H	1.730132	-0.266374	-0.909544
H62	H	1.649916	-0.262363	-0.818332
H63	H	1.118447	-0.269213	-0.628247
C64	C	1.600371	-0.208267	-1.184944
C65	C	1.659587	-0.255551	-1.121862
H66	H	1.645997	-0.176314	-1.222176
H67	H	1.560358	-0.236278	-1.233307
H68	H	1.554609	-0.180131	-1.142125
H69	H	1.705343	-0.283691	-1.164682
H70	H	1.699617	-0.227537	-1.073494
C71	C	1.718299	-0.884641	-0.706379
C72	C	1.659387	-0.934662	-0.647360
H73	H	1.763883	-0.910673	-0.752024
H74	H	1.672483	-0.854667	-0.746511
H75	H	1.758501	-0.854665	-0.660626
H76	H	1.619179	-0.964633	-0.693113
H77	H	1.705209	-0.964648	-0.607225
C78	C	1.391575	-0.443171	-1.229670
C79	C	1.377355	-0.453131	-1.121773
H80	H	1.345968	-0.475102	-1.266880
H81	H	1.376234	-0.393724	-1.247660
H82	H	1.462165	-0.453944	-1.247646
H83	H	1.306766	-0.442353	-1.103796
H84	H	1.392688	-0.502588	-1.103776
H85	H	1.640185	-0.784298	-0.628160
C86	C	1.309853	-0.411690	-0.828360
C87	C	1.377304	-0.453192	-0.891440
H88	H	1.264223	-0.443634	-0.791119
H89	H	1.349880	-0.383682	-0.780004
H90	H	1.269701	-0.379615	-0.871180
H91	H	1.417462	-0.485262	-0.848618
H92	H	1.337273	-0.481212	-0.939801
H93	H	1.396597	-0.923968	-0.384139
