data_functionalizedCrystal
_audit_creation_method	'MofGen! by Chris Wilmer'
_symmetry_space_group_name_H-M	'P1'
_symmetry_Int_Tables_number	1
_symmetry_cell_setting	triclinic
loop_
_symmetry_equiv_pos_as_xyz
  x,y,z
_cell_length_a	12.759400
_cell_length_b	18.215407
_cell_length_c	18.215399
_cell_angle_alpha	90.014769
_cell_angle_beta	89.973045
_cell_angle_gamma	89.989695
loop_
_atom_site_label
_atom_site_type_symbol
_atom_site_fract_x
_atom_site_fract_y
_atom_site_fract_z
Zn1	Zn	-0.418375	-1.125102	-0.416093
Zn2	Zn	0.081625	-0.625102	0.083907
Zn3	Zn	-0.594080	-1.125039	-0.293034
Zn4	Zn	-0.094080	-0.625039	0.206966
Zn5	Zn	-0.418402	-1.002041	-0.293045
Zn6	Zn	0.081598	-0.502041	0.206955
Zn7	Zn	-0.593999	-1.002023	-0.416063
Zn8	Zn	-0.093999	-0.502023	0.083937
O9	O	-0.506214	-1.063551	-0.354559
O10	O	-0.006214	-0.563551	0.145441
O11	O	-0.441705	-1.228078	-0.399777
O12	O	0.058295	-0.728078	0.100223
O13	O	-0.570821	-1.108704	-0.190051
O14	O	-0.070821	-0.608704	0.309949
O15	O	-0.271377	-1.018400	-0.309384
O16	O	0.228623	-0.518400	0.190616
O17	O	-0.570794	-1.228032	-0.309366
O18	O	-0.070794	-0.728032	0.190634
O19	O	-0.271357	-1.108812	-0.399787
O20	O	0.228643	-0.608812	0.100213
O21	O	-0.441751	-1.018339	-0.190059
O22	O	0.058249	-0.518339	0.309941
O23	O	-0.441673	-0.899055	-0.309355
O24	O	0.058327	-0.399055	0.190645
O25	O	-0.570657	-1.018368	-0.519051
O26	O	-0.070657	-0.518368	-0.019051
O27	O	-0.570683	-0.899041	-0.399737
O28	O	-0.070683	-0.399041	0.100263
O29	O	-0.441627	-1.108794	-0.519073
O30	O	0.058373	-0.608794	-0.019073
O31	O	-0.741090	-1.108686	-0.309337
O32	O	-0.241090	-0.608686	0.190663
O33	O	-0.741031	-1.018307	-0.399726
O34	O	-0.241031	-0.518307	0.100274
C35	C	-0.506173	-0.872345	-0.354544
C36	C	-0.006173	-0.372345	0.145456
C37	C	-0.506181	-0.790546	-0.354556
C38	C	-0.006181	-0.290546	0.145444
C39	C	-0.439094	-0.602375	-0.401706
C40	C	0.060906	-0.102375	0.098294
C41	C	-0.439099	-0.525517	-0.401708
C42	C	0.060901	-0.025517	0.098292
C43	C	-0.573318	-0.525479	-0.307417
C44	C	-0.073318	-0.025479	0.192583
C45	C	-0.573307	-0.602337	-0.307412
C46	C	-0.073307	-0.102337	0.192588
C47	C	-0.506196	-0.640783	-0.354561
C48	C	-0.006196	-0.140783	0.145439
C49	C	-0.506213	-0.487067	-0.354568
C50	C	-0.006213	0.012933	0.145432
C51	C	-0.506219	-0.403733	-0.354569
C52	C	-0.006219	0.096267	0.145431
C53	C	-0.506188	-0.724122	-0.354558
C54	C	-0.006188	-0.224122	0.145442
C55	C	-0.779181	-1.063508	-0.354543
C56	C	-0.279181	-0.563508	0.145457
C57	C	-0.895958	-1.063556	-0.354561
C58	C	-0.395958	-0.563556	0.145439
C59	C	-0.950816	-1.110669	-0.307548
C60	C	-0.450816	-0.610669	0.192452
C61	C	-1.060540	-1.110714	-0.307570
C62	C	-0.560540	-0.610714	0.192430
C63	C	-1.060538	-1.016527	-0.401622
C64	C	-0.560538	-0.516527	0.098378
C65	C	-0.950816	-1.016487	-0.401603
C66	C	-0.450816	-0.516487	0.098397
C67	C	-0.895957	-1.157739	-0.260506
C68	C	-0.395957	-0.657739	0.239494
C69	C	-0.950816	-1.204855	-0.213488
C70	C	-0.450816	-0.704855	0.286512
C71	C	-1.060540	-1.204900	-0.213511
C72	C	-0.560540	-0.704900	0.286489
C73	C	-1.115406	-1.157829	-0.260552
C74	C	-0.615406	-0.657829	0.239448
C75	C	-0.232181	-1.063615	-0.354590
C76	C	0.267819	-0.563615	0.145410
C77	C	-0.115404	-1.063642	-0.354604
C78	C	0.384596	-0.563642	0.145396
C79	C	-0.506130	-1.063586	-0.546512
C80	C	-0.006130	-0.563586	-0.046512
C81	C	-0.506094	-1.063601	-0.628311
C82	C	-0.006094	-0.563601	-0.128311
C83	C	-0.506244	-0.255504	-0.354572
C84	C	-0.006244	0.244496	0.145428
C85	C	-0.506228	-0.337303	-0.354573
C86	C	-0.006228	0.162697	0.145427
C87	C	-0.438842	-1.016587	-0.816510
C88	C	0.061158	-0.516587	-0.316510
C89	C	-0.438821	-1.016600	-0.893368
C90	C	0.061179	-0.516600	-0.393368
C91	C	-0.573221	-1.110703	-0.893350
C92	C	-0.073221	-0.610703	-0.393350
C93	C	-0.573246	-1.110686	-0.816492
C94	C	-0.073246	-0.610686	-0.316492
C95	C	-0.506051	-1.063629	-0.778074
C96	C	-0.006051	-0.563629	-0.278074
C97	C	-0.506004	-1.063659	-0.931790
C98	C	-0.006004	-0.563659	-0.431790
C99	C	-0.505982	-1.063673	-1.015124
C100	C	-0.005982	-0.563673	-0.515124
C101	C	-0.506075	-1.063614	-0.694735
C102	C	-0.006075	-0.563614	-0.194735
C103	C	-0.506222	-1.063559	-0.163352
C104	C	-0.006222	-0.563559	0.336648
C105	C	-0.505961	-1.063687	-0.081554
C106	C	-0.005961	-0.563687	0.418446
H107	H	-0.627958	-0.494167	-0.269032
H108	H	-0.127958	0.005833	0.230968
H109	H	-1.105219	-0.978204	-0.439920
H110	H	-0.605219	-0.478204	0.060080
H111	H	-0.906138	-1.243183	-0.175193
H112	H	-0.406138	-0.743183	0.324807
N113	N	-0.366328	-0.965861	-0.934820
N114	N	0.133672	-0.465861	-0.434820
H115	H	-0.317637	-0.995783	-0.966721
H116	H	0.182363	-0.495783	-0.466721
H117	H	-0.409084	-0.931762	-0.966653
H118	H	0.090916	-0.431762	-0.466653
N119	N	-0.645677	-0.643768	-0.256555
N120	N	-0.145677	-0.143768	0.243445
H121	H	-0.688197	-0.607752	-0.226691
H122	H	-0.188197	-0.107752	0.273309
H123	H	-0.694343	-0.675667	-0.286450
H124	H	-0.194343	-0.175667	0.213550
N125	N	-0.777614	-1.157685	-0.260478
N126	N	-0.277614	-0.657685	0.239522
H127	H	-0.751183	-1.194651	-0.223544
H128	H	-0.251183	-0.694651	0.276456
H129	H	-0.751194	-1.171151	-0.310992
H130	H	-0.251194	-0.671151	0.189008
H131	H	-0.627928	-1.149015	-0.924639
H132	H	-0.127928	-0.649015	-0.424639
H133	H	-0.906150	-0.978124	-0.439886
H134	H	-0.406150	-0.478124	0.060114
H135	H	-1.105202	-1.243270	-0.175232
H136	H	-0.605202	-0.743270	0.324768
N137	N	-0.645746	-1.161422	-0.775031
N138	N	-0.145746	-0.661422	-0.275031
H139	H	-0.688304	-1.191238	-0.811030
H140	H	-0.188304	-0.691238	-0.311030
H141	H	-0.602998	-1.195480	-0.743148
H142	H	-0.102998	-0.695480	-0.243148
N143	N	-1.233751	-1.157883	-0.260585
N144	N	-0.733751	-0.657883	0.239415
H145	H	-1.260181	-1.194875	-0.223667
H146	H	-0.760181	-0.694875	0.276333
H147	H	-1.260169	-1.107393	-0.247042
H148	H	-0.760169	-0.607393	0.252958
H149	H	-0.384444	-0.633676	-0.440095
H150	H	0.115556	-0.133676	0.059905
N151	N	-0.366375	-0.965826	-0.775080
N152	N	0.133625	-0.465826	-0.275080
H153	H	-0.409076	-0.931707	-0.743182
H154	H	0.090924	-0.431707	-0.243182
H155	H	-0.317711	-0.995786	-0.743244
H156	H	0.182289	-0.495786	-0.243244
N157	N	-0.366713	-0.484091	-0.452548
N158	N	0.133287	0.015909	0.047452
H159	H	-0.324196	-0.520111	-0.482411
H160	H	0.175804	-0.020111	0.017589
H161	H	-0.409532	-0.452205	-0.486558
H162	H	0.090468	0.047795	0.013442
