data_functionalizedCrystal
_audit_creation_method	'MofGen! by Chris Wilmer'
_symmetry_space_group_name_H-M	'P1'
_symmetry_Int_Tables_number	1
_symmetry_cell_setting	triclinic
loop_
_symmetry_equiv_pos_as_xyz
  x,y,z
_cell_length_a	16.109302
_cell_length_b	10.723024
_cell_length_c	15.186229
_cell_angle_alpha	89.989223
_cell_angle_beta	89.990142
_cell_angle_gamma	83.964825
loop_
_atom_site_label
_atom_site_type_symbol
_atom_site_fract_x
_atom_site_fract_y
_atom_site_fract_z
O1	O	1.104079	0.160409	-0.073266
O2	O	0.862134	0.180369	-0.073259
O3	O	0.988687	-0.011261	-0.073259
O4	O	0.977525	0.352039	-0.073265
O5	O	0.988670	-0.011292	0.073198
O6	O	0.862117	0.180338	0.073199
O7	O	1.104061	0.160378	0.073191
Zn8	Zn	0.983086	0.170353	0.096448
Zn9	Zn	0.983109	0.170394	-0.096516
O10	O	0.977508	0.352008	0.073192
C11	C	0.831146	0.179544	-0.000029
C12	C	0.738836	0.177120	-0.000026
C13	C	0.526453	0.171497	0.079799
C14	C	0.439719	0.169206	0.079796
C15	C	0.439749	0.169246	-0.079880
C16	C	0.526481	0.171528	-0.079876
C17	C	0.569831	0.172660	-0.000034
C18	C	0.396364	0.168086	-0.000041
C19	C	0.302324	0.165602	-0.000045
C20	C	0.663877	0.175142	-0.000030
C21	C	0.987866	-0.057766	-0.000032
C22	C	0.985436	-0.196288	-0.000035
C23	C	1.056248	-0.272209	-0.000038
C24	C	1.053738	-0.415379	-0.000041
C25	C	1.135049	0.161202	-0.000040
C26	C	1.227359	0.163627	-0.000049
C27	C	0.978329	0.398512	-0.000038
C28	C	0.980759	0.537034	-0.000040
N29	N	0.983076	0.170324	0.228141
N30	N	0.983125	0.170412	-0.228208
C31	C	0.932250	0.094677	0.546096
C32	C	0.932243	0.094659	0.453906
C33	C	1.033957	0.246063	0.453843
C34	C	1.033968	0.246074	0.546031
C35	C	0.983110	0.170383	0.592155
C36	C	0.983092	0.170354	0.407778
C37	C	0.983084	0.170335	0.307821
C38	C	0.983118	0.170400	0.692118
H39	H	0.404443	0.168326	-0.144885
O40	O	0.902667	-0.250581	-0.000028
H41	H	0.866810	-0.218513	-0.059722
H42	H	0.404405	0.168259	0.144804
H43	H	1.114359	-0.480615	-0.000040
O44	O	0.900448	-0.376577	-0.000031
H45	H	0.897919	-0.316555	-0.059725
O46	O	0.573277	0.172770	-0.165986
H47	H	0.605877	0.258799	-0.169801
H48	H	1.118732	-0.231215	-0.000034
O49	O	0.877392	0.012976	0.404244
H50	H	0.916871	-0.054092	0.362264
H51	H	0.890839	0.033043	0.583647
H52	H	1.075363	0.307690	0.416278
O53	O	0.573206	0.172712	0.165913
H54	H	0.640804	0.174508	0.152507
H55	H	1.075389	0.307724	0.583534
