data_functionalizedCrystal
_audit_creation_method	'MofGen! by Chris Wilmer'
_symmetry_space_group_name_H-M	'P1'
_symmetry_Int_Tables_number	1
_symmetry_cell_setting	triclinic
loop_
_symmetry_equiv_pos_as_xyz
  x,y,z
_cell_length_a	6.817900
_cell_length_b	14.858329
_cell_length_c	10.943624
_cell_angle_alpha	93.400022
_cell_angle_beta	108.838799
_cell_angle_gamma	104.519616
loop_
_atom_site_label
_atom_site_type_symbol
_atom_site_fract_x
_atom_site_fract_y
_atom_site_fract_z
V1	V	-4.093423	-0.128646	-0.402919
O2	O	-4.074269	0.006207	-0.394870
O3	O	-4.049676	-0.255108	-0.400528
O4	O	-4.071727	-0.126656	-0.578480
O5	O	-4.052065	-0.123134	-0.215686
V6	V	-4.572988	-0.112517	-0.380480
O7	O	-4.363364	-0.164026	-0.452140
O8	O	-4.753244	-0.077138	-0.331259
O9	O	-4.393528	0.013944	-0.382872
O10	O	-4.709539	-0.247370	-0.388529
O11	O	-4.731742	-0.118030	-0.567713
O12	O	-4.371477	-0.114507	-0.204919
C13	C	-3.894945	-0.285936	-0.394265
C14	C	-3.940641	-0.389320	-0.393480
C15	C	-3.977744	-0.473278	-0.392830
C16	C	-4.024311	-0.578608	-0.392022
C17	C	-4.061443	-0.662560	-0.391378
C18	C	-4.108013	-0.767896	-0.390567
C19	C	-3.923072	-0.122083	-0.621259
C20	C	-3.986647	-0.121293	-0.764784
C21	C	-3.832390	-0.115972	-0.841916
C22	C	-4.008198	-0.194950	-0.948132
C23	C	-3.924145	-0.040915	-0.914305
C24	C	-4.161653	-0.200345	-0.869123
C25	C	-4.077531	-0.046240	-0.835272
C26	C	-4.253472	-0.125241	-0.941458
C27	C	-4.211601	0.044768	-0.389130
C28	C	-4.145144	0.148151	-0.389924
C29	C	-4.183474	-0.119084	-0.162133
C30	C	-4.099137	-0.119869	-0.018608
H31	H	-3.653844	-0.112158	-0.798457
C32	C	-4.494786	-0.130552	-0.999902
H33	H	-4.509532	-0.076091	-1.039051
H34	H	-4.568757	-0.185037	-1.064106
H35	H	-4.554936	-0.133790	-0.932591
C36	C	-4.296482	-0.291472	-0.841641
H37	H	-4.254914	-0.291447	-0.749994
H38	H	-4.445572	-0.294964	-0.876616
H39	H	-4.272096	-0.344230	-0.881342
C40	C	-4.116108	0.038691	-0.768842
H41	H	-4.031018	0.095266	-0.783740
H42	H	-4.264704	0.035991	-0.804224
H43	H	-4.076340	0.037227	-0.677560
C44	C	-3.969504	-0.279873	-1.014517
H45	H	-3.820402	-0.276500	-0.980252
H46	H	-4.052472	-0.336436	-0.998253
H47	H	-4.011724	-0.279060	-1.106006
H48	H	-3.824353	0.026448	-0.934874
