data_functionalizedCrystal
_audit_creation_method	'MofGen! by Chris Wilmer'
_symmetry_space_group_name_H-M	'P1'
_symmetry_Int_Tables_number	1
_symmetry_cell_setting	triclinic
loop_
_symmetry_equiv_pos_as_xyz
  x,y,z
_cell_length_a	10.540539
_cell_length_b	10.065875
_cell_length_c	10.967829
_cell_angle_alpha	86.921207
_cell_angle_beta	84.620270
_cell_angle_gamma	81.165690
loop_
_atom_site_label
_atom_site_type_symbol
_atom_site_fract_x
_atom_site_fract_y
_atom_site_fract_z
O1	O	1.710001	-0.149168	0.151975
O2	O	1.341192	-0.152939	0.167941
O3	O	1.527437	-0.109894	-0.015024
O4	O	1.523756	-0.192212	0.334940
O5	O	1.491930	0.108853	0.020006
O6	O	1.305684	0.065808	0.202971
O7	O	1.674494	0.069580	0.187005
Zn8	Zn	1.484451	0.102425	0.200550
Zn9	Zn	1.531234	-0.185784	0.154396
O10	O	1.488248	0.026535	0.369971
C11	C	1.276090	-0.043286	0.184258
C12	C	1.135008	-0.042449	0.180675
N13	N	1.452532	0.299120	0.232048
N14	N	1.563163	-0.382477	0.122889
C15	C	0.946330	-0.009646	0.043469
C16	C	1.093168	-0.011007	0.047020
C17	C	1.096033	-0.182489	0.224992
C18	C	0.949332	-0.181507	0.220416
C19	C	0.908567	0.066610	0.262971
C20	C	1.055329	0.067958	0.264464
C21	C	1.739596	-0.040076	0.170688
C22	C	1.880679	-0.040922	0.174270
C23	C	1.506733	0.010017	-0.042322
C24	C	1.497926	0.041417	-0.175851
C25	C	1.520120	0.382591	0.165348
C26	C	1.495565	0.534053	0.189599
C27	C	1.512394	-0.057903	-0.253523
C28	C	1.503291	-0.025453	-0.391533
C29	C	1.508953	-0.093379	0.397268
C30	C	1.517762	-0.124787	0.530796
H31	H	1.119341	0.090439	0.010749
H32	H	1.478793	0.150472	-0.211525
H33	H	1.419511	0.574715	0.264658
H34	H	1.484157	0.083609	-0.427200
N35	N	1.351802	0.352977	0.331475
H36	H	1.310069	0.276465	0.372655
H37	H	1.284134	0.421044	0.294176
H38	H	1.536873	-0.233851	-0.433536
N39	N	0.886582	0.125470	-0.007473
H40	H	0.816372	0.167722	0.053737
H41	H	0.848604	0.113041	-0.086538
H42	H	1.531513	-0.166959	-0.217848
N43	N	1.165219	-0.113960	-0.039495
H44	H	1.261013	-0.115273	-0.037546
H45	H	1.140166	-0.089688	-0.125436
N46	N	0.922819	-0.111225	-0.045094
H47	H	0.869829	-0.177417	-0.000854
H48	H	1.008115	-0.160911	-0.079588
H49	H	0.934488	-0.263697	0.157925
H50	H	0.905901	-0.209787	0.315631
N51	N	1.663907	0.563673	0.023464
H52	H	1.705637	0.640188	-0.017714
H53	H	1.621833	0.519111	-0.039103
N54	N	1.131551	-0.219252	0.354012
H55	H	1.085159	-0.148743	0.411209
H56	H	1.227684	-0.224041	0.356551
N57	N	1.170198	-0.291716	0.146096
H58	H	1.229075	-0.250774	0.081614
H59	H	1.107804	-0.337587	0.105007
H60	H	0.860023	0.171466	0.234879
N61	N	1.087365	0.205010	0.221835
H62	H	1.153215	0.195635	0.148553
H63	H	1.123637	0.246391	0.290307
N64	N	1.090643	0.047596	0.395145
H65	H	1.159096	-0.033853	0.401915
H66	H	1.011693	0.033353	0.451002
H67	H	1.596160	0.341927	0.090284
N68	N	0.850650	0.037657	0.391029
H69	H	0.806552	-0.044677	0.391644
H70	H	0.785639	0.117311	0.418227
