data_functionalizedCrystal
_audit_creation_method	'MofGen! by Chris Wilmer'
_symmetry_space_group_name_H-M	'P1'
_symmetry_Int_Tables_number	1
_symmetry_cell_setting	triclinic
loop_
_symmetry_equiv_pos_as_xyz
  x,y,z
_cell_length_a	21.395362
_cell_length_b	13.031981
_cell_length_c	21.395356
_cell_angle_alpha	82.790965
_cell_angle_beta	89.957023
_cell_angle_gamma	97.204883
loop_
_atom_site_label
_atom_site_type_symbol
_atom_site_fract_x
_atom_site_fract_y
_atom_site_fract_z
Zn1	Zn	0.926276	-0.415708	-0.322907
Zn2	Zn	0.912902	-0.590500	-0.204810
Zn3	Zn	0.821486	-0.415784	-0.218103
Zn4	Zn	0.808183	-0.590494	-0.309515
O5	O	0.867212	-0.503122	-0.263834
O6	O	1.012182	-0.438865	-0.307283
O7	O	0.900747	-0.567359	-0.118893
O8	O	0.846551	-0.269506	-0.243173
O9	O	1.002356	-0.567284	-0.220517
O10	O	0.923540	-0.269450	-0.320172
O11	O	0.833584	-0.438995	-0.128659
O12	O	0.732041	-0.438989	-0.230187
O13	O	0.823877	-0.567273	-0.398972
O14	O	0.722267	-0.567348	-0.297347
O15	O	0.910639	-0.438859	-0.408811
O16	O	0.887846	-0.736768	-0.207532
O17	O	0.810909	-0.736763	-0.284458
C18	C	0.704420	-0.503177	-0.263757
C19	C	0.634775	-0.503226	-0.263737
C20	C	0.596982	-0.570151	-0.298641
C21	C	0.531548	-0.570125	-0.298670
C22	C	0.503910	-0.503185	-0.263785
C23	C	0.541711	-0.436248	-0.228879
C24	C	0.607144	-0.436268	-0.228855
C25	C	0.400824	-0.494780	-0.208020
C26	C	0.335392	-0.494767	-0.208042
C27	C	0.302094	-0.503117	-0.263859
C28	C	0.334234	-0.511502	-0.319654
C29	C	0.399667	-0.511522	-0.319630
C30	C	0.432959	-0.503156	-0.263807
C31	C	0.193350	-0.570018	-0.298798
C32	C	0.127916	-0.569985	-0.298830
C33	C	0.138080	-0.436113	-0.229032
C34	C	0.203513	-0.436140	-0.229007
C35	C	0.231144	-0.503098	-0.263888
C36	C	0.846500	-0.774691	-0.243113
C37	C	0.837697	-0.890870	-0.234269
C38	C	0.871839	-0.942554	-0.268462
C39	C	0.862742	-1.062631	-0.259322
C40	C	1.030639	-0.503067	-0.263911
C41	C	1.100282	-0.503043	-0.263944
C42	C	0.867266	-0.503057	-0.427262
C43	C	0.867289	-0.503029	-0.496905
C44	C	0.888021	-0.230492	-0.284649
C45	C	0.896889	-0.114313	-0.293520
C46	C	0.832329	-0.436183	-0.534694
C47	C	0.832328	-0.436163	-0.600131
C48	C	0.867300	-0.502979	-0.627778
C49	C	0.902262	-0.569839	-0.589980
C50	C	0.902256	-0.569864	-0.524544
C51	C	0.923129	-0.511171	-0.730859
C52	C	0.923136	-0.511139	-0.796294
C53	C	0.867315	-0.502909	-0.829604
C54	C	0.811487	-0.494689	-0.797472
C55	C	0.811482	-0.494714	-0.732036
C56	C	0.867309	-0.502960	-0.698731
C57	C	0.832351	-0.436038	-0.938347
C58	C	0.832349	-0.436026	-1.003785
C59	C	0.902289	-0.569696	-0.993632
C60	C	0.902285	-0.569713	-0.928196
C61	C	0.867318	-0.502879	-0.900557
C62	C	0.867199	-0.503111	-0.101047
C63	C	0.867320	-0.502844	-0.031426
H64	H	0.097146	-0.624481	-0.327256
H65	H	0.309228	-0.487946	-0.162610
C66	C	0.437043	-0.485886	-0.147440
C67	C	0.467845	-0.574270	-0.132650
C68	C	0.501223	-0.566108	-0.076856
H69	H	0.408603	-0.480945	-0.114153
H70	H	0.467243	-0.425339	-0.152916
H71	H	0.437649	-0.634801	-0.127169
H72	H	0.496296	-0.579229	-0.165921
H73	H	0.531422	-0.505561	-0.082333
H74	H	0.472778	-0.561164	-0.043575
H75	H	0.522130	-0.626069	-0.066817
H76	H	0.930736	-0.624241	-0.612493
H77	H	0.519204	-0.381743	-0.200476
C78	C	0.983717	-0.519935	-0.694633
C79	C	0.998412	-0.431557	-0.663810
C80	C	1.054214	-0.439601	-0.630428
H81	H	1.017024	-0.524771	-0.723073
H82	H	0.978290	-0.580502	-0.664445
H83	H	1.003844	-0.371007	-0.693994
H84	H	0.965121	-0.426704	-0.635359
H85	H	1.048787	-0.500168	-0.600240
H86	H	1.087516	-0.444440	-0.658873
H87	H	1.064189	-0.379644	-0.609506
H88	H	0.234285	-0.381648	-0.200581
H89	H	0.930728	-0.624297	-0.493776
H90	H	0.803875	-0.381595	-1.034552
C91	C	0.940202	-0.642450	-0.887232
C92	C	0.918679	-0.745866	-0.895254
C93	C	0.953599	-0.812904	-0.857535
H94	H	0.935221	-0.633039	-0.844281
H95	H	0.983475	-0.627194	-0.899165
H96	H	0.875417	-0.761116	-0.883317
H97	H	0.923661	-0.755310	-0.938197
H98	H	0.996871	-0.797648	-0.869468
H99	H	0.948615	-0.803483	-0.814586
H100	H	0.939004	-0.883078	-0.862977
H101	H	0.930765	-0.624096	-1.016141
C102	C	0.919705	-0.882897	-0.316565
C103	C	0.888921	-0.820229	-0.361403
C104	C	0.932996	-0.765249	-0.405721
H105	H	0.939972	-0.930771	-0.336902
H106	H	0.950216	-0.840220	-0.295873
H107	H	0.858421	-0.862902	-0.382092
H108	H	0.868658	-0.772335	-0.341084
H109	H	0.963507	-0.722572	-0.385030
H110	H	0.953260	-0.813131	-0.426054
H111	H	0.912116	-0.722715	-0.436146
C112	C	0.107957	-0.363577	-0.191150
C113	C	0.042561	-0.377912	-0.198620
C114	C	0.014787	-0.311129	-0.163718
H115	H	0.123985	-0.293319	-0.205688
H116	H	0.117440	-0.378827	-0.147863
H117	H	0.033083	-0.362655	-0.241899
H118	H	0.026516	-0.448157	-0.184079
H119	H	0.024270	-0.326379	-0.120431
H120	H	0.030820	-0.240875	-0.178259
H121	H	-0.029587	-0.320853	-0.168777
H122	H	0.500772	-0.624623	-0.327095
C123	C	0.648070	-0.363569	-0.190888
C124	C	0.609863	-0.304953	-0.160330
C125	C	0.647542	-0.237985	-0.125340
H126	H	0.677117	-0.317997	-0.218297
H127	H	0.670494	-0.403482	-0.160460
H128	H	0.587450	-0.265043	-0.190754
H129	H	0.580817	-0.350498	-0.132910
H130	H	0.669966	-0.277898	-0.094913
H131	H	0.676587	-0.192420	-0.152754
H132	H	0.621624	-0.198213	-0.104598
H133	H	0.803861	-0.381724	-0.630905
H134	H	0.968595	-0.517827	-0.822452
C135	C	0.814679	-1.122091	-0.211345
C136	C	0.754663	-1.095732	-0.226912
C137	C	0.710372	-1.150496	-0.182736
H138	H	0.825124	-1.104325	-0.170579
H139	H	0.814894	-1.194896	-0.211594
H140	H	0.754449	-1.022944	-0.226657
H141	H	0.744198	-1.113501	-0.267671
H142	H	0.710587	-1.223301	-0.182985
H143	H	0.720822	-1.132726	-0.141973
H144	H	0.669645	-1.132627	-0.193296
H145	H	0.619474	-0.624672	-0.327045
H146	H	0.932856	-1.069671	-0.329564
C147	C	0.789637	-0.950334	-0.186294
C148	C	0.729620	-0.923974	-0.201862
C149	C	0.685329	-0.978739	-0.157686
H150	H	0.800081	-0.932567	-0.145528
H151	H	0.789852	-1.023138	-0.186543
H152	H	0.729406	-0.851186	-0.201606
H153	H	0.719156	-0.941744	-0.242620
H154	H	0.685544	-1.051543	-0.157934
H155	H	0.695780	-0.960968	-0.116922
H156	H	0.644602	-0.960869	-0.168245
C157	C	0.794295	-0.363588	-0.504804
C158	C	0.763665	-0.305061	-0.551908
C159	C	0.728617	-0.238187	-0.524394
H160	H	0.821675	-0.317956	-0.482776
H161	H	0.763907	-0.403565	-0.476220
H162	H	0.794050	-0.265086	-0.580480
H163	H	0.736275	-0.350665	-0.573939
H164	H	0.698228	-0.278164	-0.495811
H165	H	0.756001	-0.192562	-0.502366
H166	H	0.707825	-0.198475	-0.556349
C167	C	0.750801	-0.485846	-0.697257
C168	C	0.701909	-0.478659	-0.740425
C169	C	0.645998	-0.470508	-0.708409
H170	H	0.756147	-0.425273	-0.676353
H171	H	0.740687	-0.545783	-0.667166
H172	H	0.712021	-0.418728	-0.770505
H173	H	0.696543	-0.539224	-0.761332
H174	H	0.635884	-0.530444	-0.678318
H175	H	0.651350	-0.409935	-0.687506
H176	H	0.612817	-0.465640	-0.737693
C177	C	0.750861	-0.485991	-0.833636
C178	C	0.736149	-0.574405	-0.864422
C179	C	0.680301	-0.566440	-0.897735
H180	H	0.756219	-0.425462	-0.863842
H181	H	0.717591	-0.481160	-0.805138
H182	H	0.769410	-0.579225	-0.892917
H183	H	0.730778	-0.634947	-0.834230
H184	H	0.647031	-0.561609	-0.869238
H185	H	0.685665	-0.505908	-0.927938
H186	H	0.670309	-0.626431	-0.918623
C187	C	0.434454	-0.520569	-0.380275
C188	C	0.391296	-0.527852	-0.429169
C189	C	0.423320	-0.536169	-0.485047
H190	H	0.455344	-0.581158	-0.374860
H191	H	0.464557	-0.460664	-0.390433
H192	H	0.361204	-0.587751	-0.419013
H193	H	0.370404	-0.467271	-0.434604
H194	H	0.453424	-0.476264	-0.495205
H195	H	0.444210	-0.596758	-0.479625
H196	H	0.394044	-0.541102	-0.518229
C197	C	0.223240	-0.642739	-0.336741
C198	C	0.176136	-0.701318	-0.367336
C199	C	0.203645	-0.768307	-0.402302
H200	H	0.245250	-0.688334	-0.309313
H201	H	0.251838	-0.602843	-0.367147
H202	H	0.147549	-0.741211	-0.336934
H203	H	0.154122	-0.655751	-0.394775
H204	H	0.232243	-0.728410	-0.432708
H205	H	0.225655	-0.813894	-0.374870
H206	H	0.171690	-0.808053	-0.423069
C207	C	0.794265	-0.363623	-0.908355
C208	C	0.730534	-0.386425	-0.922472
C209	C	0.695428	-0.319750	-0.894848
H210	H	0.808712	-0.293347	-0.924424
H211	H	0.799229	-0.373218	-0.863965
H212	H	0.725573	-0.376820	-0.966853
H213	H	0.716069	-0.456688	-0.906402
H214	H	0.700392	-0.329346	-0.850457
H215	H	0.709880	-0.249478	-0.910919
H216	H	0.652182	-0.335218	-0.904417
H217	H	0.307124	-0.518299	-0.365105
