data_functionalizedCrystal
_audit_creation_method	'MofGen! by Chris Wilmer'
_symmetry_space_group_name_H-M	'P1'
_symmetry_Int_Tables_number	1
_symmetry_cell_setting	triclinic
loop_
_symmetry_equiv_pos_as_xyz
  x,y,z
_cell_length_a	19.077105
_cell_length_b	18.050589
_cell_length_c	19.076919
_cell_angle_alpha	87.724745
_cell_angle_beta	89.923776
_cell_angle_gamma	87.724731
loop_
_atom_site_label
_atom_site_type_symbol
_atom_site_fract_x
_atom_site_fract_y
_atom_site_fract_z
Zn1	Zn	1.058247	-0.359281	0.440438
Zn2	Zn	1.062879	-0.478689	0.322938
Zn3	Zn	0.945466	-0.349333	0.318231
Zn4	Zn	0.940701	-0.478241	0.435691
O5	O	1.001823	-0.416386	0.379325
O6	O	1.157193	-0.379472	0.428809
O7	O	1.051237	-0.457554	0.223983
O8	O	0.960482	-0.246731	0.334459
O9	O	1.160596	-0.467201	0.342482
O10	O	1.043342	-0.254040	0.424244
O11	O	0.964973	-0.362516	0.220524
O12	O	0.846502	-0.362082	0.329856
O13	O	0.952361	-0.466437	0.534652
O14	O	0.843002	-0.456790	0.416153
O15	O	1.038722	-0.379038	0.538140
O16	O	1.046617	-0.582551	0.337879
O17	O	0.956853	-0.582222	0.420717
C18	C	0.819256	-0.408308	0.371979
C19	C	0.741152	-0.404871	0.368853
C20	C	0.702657	-0.452635	0.412244
C21	C	0.629270	-0.449396	0.409310
C22	C	0.594379	-0.398396	0.362981
C23	C	0.632879	-0.350627	0.319588
C24	C	0.706264	-0.353863	0.322526
C25	C	0.375093	-0.383419	0.349388
C26	C	0.301702	-0.380188	0.346452
C27	C	0.298098	-0.478956	0.436175
C28	C	0.371485	-0.482191	0.439105
C29	C	0.409979	-0.434419	0.395715
N30	N	0.519366	-0.395085	0.359980
N31	N	0.484990	-0.437727	0.398721
C32	C	1.001739	-0.609334	0.379310
C33	C	1.001766	-0.691882	0.379329
C34	C	0.952999	-0.891182	0.424363
C35	C	0.938449	-0.937256	0.359556
C36	C	1.001835	-0.843016	0.379341
C37	C	1.016419	-0.944025	0.444157
C38	C	1.001900	-0.989004	0.379358
C39	C	0.987253	-0.887999	0.314499
C40	C	1.065250	-0.894768	0.399145
C41	C	1.050726	-0.940818	0.334295
C42	C	1.001796	-0.758915	0.379332
C43	C	1.001939	-1.073102	0.379360
C44	C	1.185104	-0.424496	0.386700
C45	C	1.263207	-0.427952	0.389843
C46	C	0.994493	-0.423797	0.562605
C47	C	0.991370	-0.426955	0.640709
C48	C	1.001926	-0.222686	0.379356
C49	C	1.001970	-0.140143	0.379369
C50	C	1.009165	-0.408952	0.196759
C51	C	1.012425	-0.405591	0.118661
C52	C	1.034863	-0.382937	0.679219
C53	C	1.031920	-0.385901	0.752605
C54	C	0.985486	-0.432888	0.787479
C55	C	0.941988	-0.476908	0.748964
C56	C	0.944928	-0.473940	0.675579
C57	C	0.971867	-0.446642	1.006761
C58	C	0.968931	-0.449609	1.080151
C59	C	1.058863	-0.358601	1.083787
C60	C	1.061802	-0.355639	1.010401
C61	C	1.018301	-0.399657	0.971892
N62	N	0.982478	-0.435921	0.862492
N63	N	1.021307	-0.396619	0.896881
H64	H	0.604465	-0.309099	0.281869
C65	C	0.586929	-0.501941	0.457041
C66	C	0.597219	-0.586562	0.451566
C67	C	0.554880	-0.639109	0.499301
C68	C	0.502250	-0.607035	0.552510
C69	C	0.491958	-0.522409	0.557987
C70	C	0.534297	-0.469862	0.510252
H71	H	0.636180	-0.610309	0.412176
H72	H	0.562499	-0.701755	0.495246
H73	H	0.470908	-0.645933	0.587846
H74	H	0.452996	-0.498662	0.597377
H75	H	0.526678	-0.407216	0.514306
H76	H	1.028729	-0.968523	0.498964
C77	C	0.255754	-0.531496	0.483908
C78	C	0.175033	-0.527939	0.480684
C79	C	0.132689	-0.580479	0.528422
C80	C	0.171067	-0.636575	0.579385
C81	C	0.251793	-0.640134	0.582611
C82	C	0.294137	-0.587595	0.534872
H83	H	0.146619	-0.486411	0.442957
H84	H	0.072930	-0.577844	0.526034
H85	H	0.139722	-0.675468	0.614723
H86	H	0.280207	-0.681662	0.620338
H87	H	0.353896	-0.590229	0.537261
H88	H	0.911645	-0.869387	0.462377
H89	H	1.094278	-0.322763	1.115149
C90	C	1.079765	-0.337485	0.794969
C91	C	1.047329	-0.279871	0.844200
C92	C	1.095176	-0.231452	0.886566
C93	C	1.175458	-0.240648	0.879701
C94	C	1.207899	-0.298264	0.830468
C95	C	1.160052	-0.346683	0.788102
H96	H	0.987895	-0.273061	0.849284
H97	H	1.071161	-0.188801	0.923012
H98	H	1.210877	-0.204806	0.911063
H99	H	1.267333	-0.305074	0.825384
H100	H	1.184067	-0.389334	0.751657
C101	C	0.917872	-0.501322	1.118516
C102	C	0.870039	-0.549759	1.076161
C103	C	0.818997	-0.601483	1.114526
C104	C	0.815787	-0.604771	1.195248
C105	C	0.863622	-0.556333	1.237608
C106	C	0.914665	-0.504608	1.199242
H107	H	0.872414	-0.547327	1.016402
H108	H	0.783586	-0.637340	1.083168
H109	H	0.778002	-0.643060	1.223648
H110	H	0.861248	-0.558765	1.297367
H111	H	0.950075	-0.468751	1.230600
C112	C	0.923995	-0.495050	0.964422
C113	C	0.870852	-0.458368	0.911779
C114	C	0.822965	-0.506772	0.869443
C115	C	0.828221	-0.591857	0.879749
C116	C	0.881366	-0.628544	0.932395
C117	C	0.929253	-0.580140	0.974731
H118	H	0.866960	-0.395378	0.904147
H119	H	0.783624	-0.479613	0.830471
H120	H	0.792772	-0.627688	0.848409
H121	H	0.885258	-0.691534	0.940027
H122	H	0.968594	-0.607299	1.013703
H123	H	0.884851	-0.956052	0.342820
C124	C	0.748610	-0.301322	0.274794
C125	C	0.801248	-0.333398	0.221593
C126	C	0.843592	-0.280852	0.173862
C127	C	0.833298	-0.196231	0.179331
C128	C	0.780658	-0.164151	0.232534
C129	C	0.738314	-0.216697	0.280265
H130	H	0.808870	-0.396044	0.217543
H131	H	0.882559	-0.304600	0.134478
H132	H	0.864644	-0.157333	0.143998
H133	H	0.773036	-0.101505	0.236584
H134	H	0.699347	-0.192948	0.319649
C135	C	0.897088	-0.522362	0.633213
C136	C	0.816805	-0.513177	0.640081
C137	C	0.768963	-0.561599	0.597714
C138	C	0.801403	-0.619205	0.548478
C139	C	0.881690	-0.628393	0.541607
C140	C	0.929533	-0.579971	0.583974
H141	H	0.792787	-0.470531	0.676531
H142	H	0.709528	-0.554797	0.602801
H143	H	0.765987	-0.655049	0.517115
H144	H	0.905708	-0.671039	0.505157
H145	H	0.988967	-0.586773	0.578888
C146	C	0.970541	-0.855032	0.240431
C147	C	1.023894	-0.806302	0.201763
C148	C	1.007183	-0.773335	0.127696
C149	C	0.937119	-0.789098	0.092297
C150	C	0.883761	-0.837831	0.130965
C151	C	0.900473	-0.870798	0.205032
H152	H	1.075763	-0.794631	0.227967
H153	H	1.046682	-0.737260	0.099071
H154	H	0.924748	-0.764694	0.037468
H155	H	0.831892	-0.849502	0.104761
H156	H	0.860974	-0.906873	0.233657
C157	C	0.263319	-0.324069	0.295502
C158	C	0.305658	-0.271511	0.247784
C159	C	0.267275	-0.215391	0.196842
C160	C	0.186553	-0.211829	0.193618
C161	C	0.144210	-0.264389	0.241337
C162	C	0.182593	-0.320509	0.292279
H163	H	0.365417	-0.274146	0.250169
H164	H	0.298621	-0.176483	0.161517
H165	H	0.158140	-0.170286	0.155907
H166	H	0.084451	-0.261754	0.238952
H167	H	0.151248	-0.359417	0.327604
H168	H	0.904177	-0.515163	0.777365
H169	H	1.072677	-0.344677	0.650829
H170	H	1.099616	-0.317380	0.982011
C171	C	1.106551	-0.970088	0.282811
C172	C	1.101810	-0.946934	0.204342
C173	C	1.157628	-0.976210	0.152856
C174	C	1.218188	-1.028639	0.179840
C175	C	1.222931	-1.051795	0.258313
C176	C	1.167113	-1.022519	0.309799
H177	H	1.056979	-0.908121	0.184364
H178	H	1.154117	-0.959068	0.094765
H179	H	1.259507	-1.050310	0.141727
H180	H	1.267763	-1.090608	0.278291
H181	H	1.170625	-1.039661	0.367890
C182	C	0.417422	-0.330884	0.301639
C183	C	0.407127	-0.246260	0.307085
C184	C	0.449456	-0.193728	0.259326
C185	C	0.502080	-0.225819	0.206121
C186	C	0.512377	-0.310447	0.200673
C187	C	0.470048	-0.362980	0.248432
H188	H	0.368169	-0.222501	0.346472
H189	H	0.441833	-0.131080	0.263359
H190	H	0.533415	-0.186931	0.170767
H191	H	0.551335	-0.334207	0.161286
H192	H	0.477671	-0.425628	0.244399
C193	C	1.137638	-0.869371	0.421792
C194	C	1.196635	-0.927314	0.440940
C195	C	1.269023	-0.901916	0.463598
C196	C	1.282413	-0.818575	0.467107
C197	C	1.223415	-0.760626	0.447958
C198	C	1.151027	-0.786024	0.425301
H199	H	1.186724	-0.989013	0.438343
H200	H	1.312697	-0.944814	0.477773
H201	H	1.335999	-0.799774	0.483879
H202	H	1.233326	-0.698927	0.450556
H203	H	1.107352	-0.743126	0.411126
H204	H	0.731060	-0.494167	0.449968
H205	H	0.399888	-0.523722	0.476830
