data_functionalizedCrystal
_audit_creation_method	'MofGen! by Chris Wilmer'
_symmetry_space_group_name_H-M	'P1'
_symmetry_Int_Tables_number	1
_symmetry_cell_setting	triclinic
loop_
_symmetry_equiv_pos_as_xyz
  x,y,z
_cell_length_a	13.262402
_cell_length_b	17.038272
_cell_length_c	11.804365
_cell_angle_alpha	102.699962
_cell_angle_beta	93.583660
_cell_angle_gamma	87.647233
loop_
_atom_site_label
_atom_site_type_symbol
_atom_site_fract_x
_atom_site_fract_y
_atom_site_fract_z
O1	O	1.335367	0.158312	0.333503
O2	O	1.835367	0.658312	0.833503
O3	O	1.049337	0.155052	0.240854
O4	O	1.549337	0.655052	0.740854
O5	O	1.190651	0.042774	0.286637
O6	O	1.690651	0.542774	0.786637
O7	O	1.194054	0.270589	0.287720
O8	O	1.694054	0.770589	0.787720
O9	O	1.153445	0.072301	0.472639
O10	O	1.653445	0.572301	0.972639
O11	O	1.012132	0.184578	0.426856
O12	O	1.512132	0.684578	0.926856
O13	O	1.298162	0.187838	0.519505
O14	O	1.798162	0.687838	1.019505
Cu15	Cu	1.151750	0.188904	0.490164
Cu16	Cu	1.651750	0.688904	0.990164
Cu17	Cu	1.195749	0.153986	0.270195
Cu18	Cu	1.695749	0.653986	0.770195
O19	O	1.156849	0.300116	0.473722
O20	O	1.656849	0.800116	0.973722
C21	C	0.993956	0.167281	0.321942
C22	C	1.493956	0.667281	0.821942
C23	C	0.884367	0.159721	0.286445
C24	C	1.384367	0.659721	0.786445
C25	C	0.853162	0.140073	0.168375
C26	C	1.353162	0.640073	0.668375
C27	C	0.750196	0.132979	0.135026
C28	C	1.250196	0.632979	0.635026
C29	C	0.678426	0.145525	0.219742
C30	C	1.178426	0.645525	0.719742
C31	C	0.709631	0.165168	0.337815
C32	C	1.209631	0.665168	0.837815
C33	C	0.812606	0.172269	0.371168
C34	C	1.312606	0.672269	0.871168
C35	C	0.637870	0.177721	0.422535
C36	C	1.137870	0.677721	0.922535
C37	C	0.669075	0.197364	0.540607
C38	C	1.169075	0.697364	1.040607
C39	C	0.772041	0.204464	0.573954
C40	C	1.272041	0.704464	1.073954
C41	C	0.843811	0.191917	0.489237
C42	C	1.343811	0.691917	0.989237
C43	C	0.534895	0.170619	0.389182
C44	C	1.034895	0.670619	0.889182
C45	C	0.494340	0.202815	0.591974
C46	C	0.994340	0.702815	1.091974
C47	C	0.597305	0.209910	0.625324
C48	C	1.097305	0.709910	1.125324
C49	C	1.168956	0.028239	0.378636
C50	C	1.668956	0.528239	0.878636
C51	C	1.159730	-0.059063	0.375647
C52	C	1.659730	0.440937	0.875647
C53	C	1.244434	-0.104508	0.403085
C54	C	1.744434	0.395492	0.903085
C55	C	1.235762	-0.186539	0.400265
C56	C	1.735762	0.313461	0.900265
C57	C	1.142383	-0.223121	0.370014
C58	C	1.642383	0.276879	0.870014
C59	C	1.057673	-0.177670	0.342571
C60	C	1.557673	0.322330	0.842571
C61	C	1.066348	-0.095642	0.345384
C62	C	1.566348	0.404358	0.845384
C63	C	1.111737	-0.470570	0.360071
C64	C	1.611737	0.029430	0.860071
C65	C	1.103067	-0.552603	0.357264
C66	C	1.603067	-0.052603	0.857264
C67	C	1.281158	-0.561467	0.414956
C68	C	1.781158	-0.061467	0.914956
C69	C	1.289823	-0.479436	0.417773
C70	C	1.789823	0.020564	0.917773
C71	C	1.205114	-0.433993	0.390324
C72	C	1.705114	0.066007	0.890324
C73	C	1.133515	-0.306968	0.367134
C74	C	1.633515	0.193032	0.867134
C75	C	1.213984	-0.350149	0.393196
C76	C	1.713984	0.149851	0.893196
C77	C	1.353544	0.175609	0.438414
C78	C	1.853544	0.675609	0.938414
C79	C	1.463135	0.183167	0.473904
C80	C	1.963135	0.683167	0.973904
C81	C	1.178544	0.314651	0.381721
C82	C	1.678544	0.814651	0.881721
C83	C	1.187772	0.401951	0.384702
C84	C	1.687772	0.901951	0.884702
N85	N	1.120811	0.213464	0.644881
N86	N	1.620811	0.713464	1.144881
N87	N	1.226696	0.129420	0.115480
N88	N	1.726696	0.629420	0.615480
C89	C	1.300992	0.070429	1.077205
C90	C	1.800992	0.570429	1.577205
C91	C	1.324396	0.051846	0.960126
C92	C	1.824396	0.551846	1.460126
C93	C	1.273502	0.092249	0.881309
C94	C	1.773502	0.592249	1.381309
C95	C	1.199199	0.151238	0.919582
C96	C	1.699199	0.651238	1.419582
C97	C	1.175798	0.169827	1.036675
C98	C	1.675798	0.669827	1.536675
C99	C	1.148308	0.191647	0.840779
C100	C	1.648308	0.691647	1.340779
C101	C	1.074005	0.250636	0.879053
C102	C	1.574005	0.750636	1.379053
C103	C	1.050607	0.269221	0.996134
C104	C	1.550607	0.769221	1.496134
C105	C	1.101502	0.228818	1.074951
C106	C	1.601502	0.728818	1.574951
C107	C	1.171709	0.173058	0.723687
C108	C	1.671709	0.673058	1.223687
C109	C	1.046515	0.272456	0.683157
C110	C	1.546515	0.772456	1.183157
C111	C	1.023110	0.291038	0.800236
C112	C	1.523110	0.791038	1.300236
H113	H	1.320472	-0.074729	0.427725
H114	H	1.820472	0.425271	0.927725
H115	H	0.594588	0.139747	0.192582
H116	H	1.094588	0.639747	0.692582
H117	H	1.290018	-0.320364	0.417801
H118	H	1.790018	0.179636	0.917801
H119	H	0.981643	-0.207462	0.317933
H120	H	1.481643	0.292538	0.817933
H121	H	0.509499	0.154627	0.293047
H122	H	1.009499	0.654627	0.793047
H123	H	0.724797	0.116986	0.038891
H124	H	1.224797	0.616986	0.538891
H125	H	0.911604	0.129866	0.099412
H126	H	1.411604	0.629866	0.599412
H127	H	0.997372	-0.058641	0.323040
H128	H	1.497372	0.441359	0.823040
H129	H	1.005073	0.305357	0.618984
H130	H	1.505073	0.805357	1.118984
H131	H	1.232206	0.125029	0.692535
H132	H	1.732206	0.625029	1.192535
H133	H	1.042760	-0.433580	0.337720
H134	H	1.542760	0.066420	0.837720
H135	H	1.304736	-0.223537	0.422610
H136	H	1.804736	0.276463	0.922610
H137	H	0.927657	0.197688	0.516385
H138	H	1.427657	0.697688	1.016385
H139	H	1.057485	-0.336762	0.342506
H140	H	1.557485	0.163238	0.842506
H141	H	1.365862	-0.449657	0.442406
H142	H	1.865862	0.050343	0.942406
H143	H	0.990114	0.317260	1.027297
H144	H	1.490114	0.817260	1.527297
H145	H	0.962612	0.339069	0.831413
H146	H	1.462612	0.839069	1.331413
H147	H	0.797443	0.220466	0.670096
H148	H	1.297443	0.720466	1.170096
H149	H	1.082444	0.243946	1.170286
H150	H	1.582444	0.743946	1.670286
H151	H	1.350122	-0.598476	0.437302
H152	H	1.850122	-0.098476	0.937302
H153	H	1.342429	0.037542	1.141385
H154	H	1.842429	0.537542	1.641385
H155	H	1.292561	0.077116	0.785978
H156	H	1.792561	0.577116	1.285978
H157	H	0.622728	0.225904	0.721460
H158	H	1.122728	0.725904	1.221460
H159	H	1.027020	-0.582382	0.332647
H160	H	1.527020	-0.082382	0.832647
H161	H	0.435903	0.213034	0.660958
H162	H	0.935903	0.713034	1.160958
H163	H	1.384894	0.003819	0.928968
H164	H	1.884894	0.503819	1.428968
