data_functionalizedCrystal
_audit_creation_method	'MofGen! by Chris Wilmer'
_symmetry_space_group_name_H-M	'P1'
_symmetry_Int_Tables_number	1
_symmetry_cell_setting	triclinic
loop_
_symmetry_equiv_pos_as_xyz
  x,y,z
_cell_length_a	12.759401
_cell_length_b	18.050590
_cell_length_c	12.759393
_cell_angle_alpha	90.034704
_cell_angle_beta	90.018713
_cell_angle_gamma	90.020077
loop_
_atom_site_label
_atom_site_type_symbol
_atom_site_fract_x
_atom_site_fract_y
_atom_site_fract_z
Zn1	Zn	1.606215	-0.295593	0.593990
Zn2	Zn	1.606101	-0.419801	0.418297
Zn3	Zn	1.430521	-0.295633	0.418325
Zn4	Zn	1.430494	-0.419749	0.593934
O5	O	1.518333	-0.357694	0.506136
O6	O	1.753221	-0.312075	0.570695
O7	O	1.582774	-0.403368	0.271279
O8	O	1.453886	-0.191703	0.441662
O9	O	1.753137	-0.403330	0.441614
O10	O	1.582968	-0.191674	0.570722
O11	O	1.453775	-0.312142	0.271300
O12	O	1.283496	-0.312092	0.441608
O13	O	1.453840	-0.403241	0.740963
O14	O	1.283477	-0.403280	0.570628
O15	O	1.582942	-0.312024	0.741003
O16	O	1.582748	-0.523719	0.441561
O17	O	1.453730	-0.523681	0.570601
C18	C	1.245365	-0.357685	0.506115
C19	C	1.128589	-0.357699	0.506131
C20	C	1.073744	-0.405253	0.573206
C21	C	0.964020	-0.405255	0.573227
C22	C	0.963995	-0.310149	0.439089
C23	C	1.073717	-0.310143	0.439075
C24	C	0.814117	-0.431903	0.697085
C25	C	0.759268	-0.479469	0.764150
C26	C	0.794859	-0.551945	0.780090
C27	C	0.885295	-0.576870	0.728950
C28	C	0.940138	-0.529308	0.661877
C29	C	0.904550	-0.456822	0.645956
C30	C	1.223622	-0.283503	0.315215
C31	C	1.278467	-0.235944	0.248136
C32	C	1.242879	-0.163467	0.232185
C33	C	1.152439	-0.138545	0.283307
C34	C	1.097594	-0.186103	0.350386
C35	C	1.133190	-0.258579	0.366339
C36	C	1.518252	-0.550646	0.506094
C37	C	1.518314	-0.633192	0.506112
C38	C	1.588619	-0.832636	0.436038
C39	C	1.614285	-0.881961	0.531925
C40	C	1.518373	-0.784322	0.506154
C41	C	1.492815	-0.882079	0.410310
C42	C	1.518433	-0.930307	0.506186
C43	C	1.544088	-0.832560	0.602091
C44	C	1.422573	-0.832674	0.480411
C45	C	1.448202	-0.881976	0.576364
C46	C	1.518342	-0.700224	0.506134
C47	C	1.518464	-1.014404	0.506216
C48	C	1.792366	-0.357704	0.506158
C49	C	1.909143	-0.357708	0.506167
C50	C	1.518401	-0.357623	0.780170
C51	C	1.518430	-0.357592	0.896947
C52	C	1.518442	-0.163988	0.506201
C53	C	1.518489	-0.081443	0.506229
C54	C	1.518326	-0.357711	0.233169
C55	C	1.518500	-0.357533	0.116393
C56	C	1.451229	-0.405067	0.951789
C57	C	1.451267	-0.405039	1.061513
C58	C	1.585708	-0.310056	1.061543
C59	C	1.585675	-0.310088	0.951821
C60	C	1.413722	-0.492579	1.211438
C61	C	1.346505	-0.540046	1.266284
C62	C	1.243973	-0.551454	1.230668
C63	C	1.208637	-0.515383	1.140207
C64	C	1.275849	-0.467909	1.085366
C65	C	1.378395	-0.456516	1.120981
C66	C	1.623209	-0.222548	0.801893
C67	C	1.690416	-0.175070	0.747051
C68	C	1.792950	-0.163655	0.782666
C69	C	1.828282	-0.199713	0.873130
C70	C	1.761075	-0.247191	0.927973
C71	C	1.658542	-0.258607	0.892350
H72	H	1.013769	-0.549602	0.620239
Br73	Br	1.687658	-0.796524	0.337307
Br74	Br	1.580331	-0.796466	0.737246
Br75	Br	1.967439	-0.184223	0.921471
H76	H	0.785138	-0.372885	0.684123
H77	H	1.252614	-0.342518	0.328207
Br78	Br	0.974845	-0.152282	0.419759
H79	H	1.640456	-0.271379	1.106235
H80	H	1.695327	-0.903613	0.553718
H81	H	1.471173	-0.903830	0.329242
Br82	Br	1.104125	-0.040183	0.261650
H83	H	1.847664	-0.124985	0.738010
H84	H	1.388823	-0.903504	0.635741
Br85	Br	0.720423	-0.616494	0.871113
H86	H	0.685635	-0.459167	0.805790
H87	H	1.341555	-0.811006	0.458589
Br88	Br	0.889520	-0.245612	0.348088
H89	H	1.661637	-0.145704	0.673395
Br90	Br	1.317300	-0.098929	0.141129
Br91	Br	1.152751	-0.615872	1.305106
H92	H	1.539719	-0.231841	0.772884
Br93	Br	1.359971	-0.469538	0.877320
Br94	Br	1.401196	-0.269774	0.178735
H95	H	1.247078	-0.438538	1.011717
Br96	Br	1.069470	-0.530853	1.091887
H97	H	1.497215	-0.483303	1.240439
Br98	Br	0.933579	-0.675242	0.750568
Br99	Br	1.148210	-0.469791	0.664213
Br100	Br	1.394459	-0.589000	1.389047
Br101	Br	1.809021	-0.296122	1.050755
