data_functionalizedCrystal
_audit_creation_method	'MofGen! by Chris Wilmer'
_symmetry_space_group_name_H-M	'P1'
_symmetry_Int_Tables_number	1
_symmetry_cell_setting	triclinic
loop_
_symmetry_equiv_pos_as_xyz
  x,y,z
_cell_length_a	19.288840
_cell_length_b	18.366186
_cell_length_c	19.288864
_cell_angle_alpha	89.973735
_cell_angle_beta	96.868870
_cell_angle_gamma	90.012747
loop_
_atom_site_label
_atom_site_type_symbol
_atom_site_fract_x
_atom_site_fract_y
_atom_site_fract_z
O1	O	0.921360	0.060706	-0.086564
O2	O	1.254694	0.394039	0.246769
O3	O	1.588027	0.727372	0.580102
O4	O	0.719097	0.060685	-0.098271
O5	O	1.052431	0.394019	0.235062
O6	O	1.385764	0.727352	0.568395
O7	O	0.826073	0.060651	0.008713
O8	O	1.159407	0.393984	0.342046
O9	O	1.492740	0.727318	0.675380
O10	O	0.814384	0.060740	-0.193549
O11	O	1.147718	0.394073	0.139785
O12	O	1.481051	0.727407	0.473118
O13	O	0.826062	-0.060448	0.008715
O14	O	1.159395	0.272885	0.342049
O15	O	1.492729	0.606218	0.675382
O16	O	0.719086	-0.060414	-0.098269
O17	O	1.052419	0.272919	0.235064
O18	O	1.385753	0.606253	0.568398
O19	O	0.921349	-0.060394	-0.086562
O20	O	1.254682	0.272940	0.246771
O21	O	1.588016	0.606273	0.580105
Zn22	Zn	0.820216	-0.079631	-0.092415
Zn23	Zn	1.153549	0.253702	0.240918
Zn24	Zn	1.486882	0.587036	0.574252
Zn25	Zn	0.820231	0.079923	-0.092418
Zn26	Zn	1.153564	0.413256	0.240915
Zn27	Zn	1.486897	0.746589	0.574248
O28	O	0.814373	-0.060359	-0.193546
O29	O	1.147706	0.272974	0.139787
O30	O	1.481040	0.606307	0.473120
C31	C	0.693215	0.000132	-0.097896
C32	C	1.026548	0.333465	0.235437
C33	C	1.359882	0.666799	0.568770
C34	C	0.616110	0.000122	-0.096774
C35	C	0.949444	0.333455	0.236559
C36	C	1.282777	0.666789	0.569892
N37	N	0.820211	-0.188522	-0.092412
N38	N	1.153544	0.144811	0.240921
N39	N	1.486877	0.478145	0.574254
C40	C	0.867611	-0.773088	-0.045056
C41	C	1.200945	-0.439754	0.288278
C42	C	1.534278	-0.106421	0.621611
C43	C	0.867612	-0.696860	-0.045057
C44	C	1.200945	-0.363526	0.288276
C45	C	1.534279	-0.030193	0.621609
C46	C	0.820231	-0.658733	-0.092412
C47	C	1.153564	-0.325400	0.240921
C48	C	1.486898	0.007933	0.574255
C49	C	0.772857	-0.696841	-0.139781
C50	C	1.106191	-0.363508	0.193553
C51	C	1.439524	-0.030175	0.526886
C52	C	0.772863	-0.773068	-0.139782
C53	C	1.106196	-0.439734	0.193551
C54	C	1.439529	-0.106401	0.526884
C55	C	0.756938	-0.537983	-0.101687
C56	C	1.090271	-0.204650	0.231646
C57	C	1.423604	0.128684	0.564979
C58	C	0.756931	-0.461758	-0.101681
C59	C	1.090265	-0.128425	0.231652
C60	C	1.423598	0.204909	0.564986
C61	C	0.820215	-0.423626	-0.092411
C62	C	1.153548	-0.090293	0.240923
C63	C	1.486882	0.243041	0.574256
C64	C	0.883507	-0.461728	-0.083132
C65	C	1.216841	-0.128395	0.250201
C66	C	1.550174	0.204939	0.583534
C67	C	0.883513	-0.537954	-0.083134
C68	C	1.216846	-0.204621	0.250199
C69	C	1.550179	0.128712	0.583533
C70	C	0.820220	-0.576079	-0.092416
C71	C	1.153554	-0.242745	0.240918
C72	C	1.486887	0.090588	0.574251
C73	C	0.867590	-0.302872	-0.045050
C74	C	1.200923	0.030461	0.288283
C75	C	1.534256	0.363794	0.621617
C76	C	0.867591	-0.226643	-0.045056
C77	C	1.200925	0.106690	0.288277
C78	C	1.534258	0.440023	0.621610
C79	C	0.772831	-0.226626	-0.139776
C80	C	1.106164	0.106707	0.193557
C81	C	1.439497	0.440041	0.526890
C82	C	0.772835	-0.302854	-0.139773
C83	C	1.106168	0.030479	0.193560
C84	C	1.439502	0.363813	0.526893
C85	C	0.820214	-0.340972	-0.092406
C86	C	1.153547	-0.007639	0.240927
C87	C	1.486880	0.325694	0.574260
C88	C	0.579913	0.066135	-0.096237
C89	C	0.913246	0.399468	0.237097
C90	C	1.246580	0.732802	0.570430
C91	C	0.507466	0.066143	-0.095175
C92	C	0.840800	0.399477	0.238159
C93	C	1.174133	0.732810	0.571492
C94	C	0.471221	0.000135	-0.094636
C95	C	0.804555	0.333468	0.238697
C96	C	1.137888	0.666802	0.572030
C97	C	0.507427	-0.065886	-0.095178
C98	C	0.840760	0.267447	0.238155
C99	C	1.174093	0.600780	0.571489
C100	C	0.579871	-0.065893	-0.096247
C101	C	0.913205	0.267440	0.237086
C102	C	1.246538	0.600774	0.570420
C103	C	0.361889	-0.050445	-0.052257
C104	C	0.695222	0.282889	0.281076
C105	C	1.028555	0.616222	0.614409
C106	C	0.289446	-0.050435	-0.051184
C107	C	0.622779	0.282898	0.282149
C108	C	0.956113	0.616231	0.615483
C109	C	0.247778	0.000153	-0.091342
C110	C	0.581111	0.333486	0.241991
C111	C	0.914444	0.666819	0.575325
C112	C	0.278562	0.050744	-0.132565
C113	C	0.611895	0.384077	0.200769
C114	C	0.945229	0.717410	0.534102
C115	C	0.351006	0.050737	-0.133634
C116	C	0.684340	0.384070	0.199700
C117	C	1.017673	0.717404	0.533033
C118	C	0.392667	0.000135	-0.093477
C119	C	0.726001	0.333468	0.239856
C120	C	1.059334	0.666802	0.573189
C121	C	0.133025	0.066179	-0.089654
C122	C	0.466358	0.399513	0.243679
C123	C	0.799692	0.732846	0.577013
C124	C	0.060576	0.066185	-0.088596
C125	C	0.393909	0.399518	0.244737
C126	C	0.727243	0.732852	0.578071
C127	C	0.060539	-0.065847	-0.088593
C128	C	0.393872	0.267487	0.244741
C129	C	0.727206	0.600820	0.578074
C130	C	0.132986	-0.065851	-0.089657
C131	C	0.466319	0.267483	0.243676
C132	C	0.799652	0.600816	0.577009
C133	C	0.169225	0.000164	-0.090185
C134	C	0.502558	0.333498	0.243149
C135	C	0.835891	0.666831	0.576482
C136	C	0.947232	0.000161	-0.086937
C137	C	1.280565	0.333494	0.246396
C138	C	1.613898	0.666828	0.579730
C139	C	1.024336	0.000176	-0.088059
C140	C	1.357669	0.333509	0.245274
C141	C	1.691003	0.666843	0.578608
N142	N	0.820241	0.188814	-0.092415
N143	N	1.153575	0.522147	0.240918
N144	N	1.486908	0.855480	0.574251
C145	C	0.814755	0.000202	-0.219424
C146	C	1.148088	0.333535	0.113909
C147	C	1.481422	0.666869	0.447243
C148	C	0.815884	0.000237	-0.296527
C149	C	1.149217	0.333570	0.036806
C150	C	1.482551	0.666903	0.370139
C151	C	0.753115	0.000216	-0.341229
C152	C	1.086449	0.333549	-0.007896
C153	C	1.419782	0.666882	0.325437
C154	C	0.754176	0.000199	-0.413676
C155	C	1.087509	0.333533	-0.080343
C156	C	1.420843	0.666866	0.252990
C157	C	0.818009	0.000189	-0.441418
C158	C	1.151342	0.333523	-0.108085
C159	C	1.484676	0.666856	0.225249
C160	C	0.880786	0.000215	-0.396706
C161	C	1.214119	0.333548	-0.063373
C162	C	1.547452	0.666881	0.269960
C163	C	0.879723	0.000238	-0.324261
C164	C	1.213057	0.333572	0.009072
C165	C	1.546390	0.666905	0.342406
C166	C	0.868184	-0.042271	-0.549663
C167	C	1.201518	0.291063	-0.216329
C168	C	1.534851	0.624396	0.117004
C169	C	0.869244	-0.042299	-0.622107
C170	C	1.202578	0.291035	-0.288774
C171	C	1.535911	0.624368	0.044560
C172	C	0.821289	0.000120	-0.664863
C173	C	1.154622	0.333453	-0.331530
C174	C	1.487955	0.666786	0.001803
C175	C	0.772261	0.042557	-0.635168
C176	C	1.105594	0.375890	-0.301835
C177	C	1.438928	0.709223	0.031499
C178	C	0.771199	0.042580	-0.562723
C179	C	1.104532	0.375914	-0.229389
C180	C	1.437865	0.709247	0.103944
C181	C	0.819168	0.000164	-0.519972
C182	C	1.152501	0.333498	-0.186639
C183	C	1.485835	0.666831	0.146695
C184	C	0.759666	0.000082	-0.788121
C185	C	1.092999	0.333415	-0.454788
C186	C	1.426332	0.666749	-0.121455
C187	C	0.760729	0.000070	-0.860569
C188	C	1.094062	0.333403	-0.527236
C189	C	1.427396	0.666737	-0.193903
C190	C	0.887341	0.000078	-0.843598
C191	C	1.220674	0.333411	-0.510264
C192	C	1.554007	0.666745	-0.176931
C193	C	0.886276	0.000097	-0.771151
C194	C	1.219609	0.333431	-0.437818
C195	C	1.552942	0.666764	-0.104485
C196	C	0.822436	0.000096	-0.743418
C197	C	1.155769	0.333429	-0.410084
C198	C	1.489103	0.666762	-0.076751
C199	C	0.825692	0.000091	0.034591
C200	C	1.159025	0.333425	0.367924
C201	C	1.492358	0.666758	0.701257
C202	C	0.824563	0.000061	0.111694
C203	C	1.157896	0.333395	0.445027
C204	C	1.491229	0.666728	0.778361
H205	H	0.906191	-0.804122	-0.006488
H206	H	1.239525	-0.470788	0.326845
H207	H	1.572858	-0.137455	0.660178
H208	H	0.609343	-0.119650	-0.096685
H209	H	0.942676	0.213683	0.236648
H210	H	1.276009	0.547016	0.569981
F211	F	0.719024	0.087747	-0.531121
F212	F	1.052358	0.421080	-0.197787
F213	F	1.385691	0.754413	0.135546
H214	H	0.906188	-0.665834	-0.006490
H215	H	1.239521	-0.332501	0.326843
H216	H	1.572855	0.000832	0.660177
H217	H	0.031105	0.119943	-0.088163
H218	H	0.364438	0.453276	0.245171
H219	H	0.697772	0.786609	0.578504
F220	F	0.918015	-0.186094	0.005349
F221	F	1.251348	0.147239	0.338682
F222	F	1.584682	0.480572	0.672015
H223	H	0.935039	-0.430683	-0.075589
H224	H	1.268373	-0.097349	0.257745
H225	H	1.601706	0.235984	0.591078
H226	H	0.935047	-0.568974	-0.075581
H227	H	1.268381	-0.235641	0.257752
H228	H	1.601714	0.097693	0.591085
F229	F	0.918017	-0.343442	0.005359
F230	F	1.251350	-0.010109	0.338692
F231	F	1.584684	0.323225	0.672026
H232	H	0.264388	-0.091626	-0.017615
H233	H	0.597721	0.241707	0.315718
H234	H	0.931055	0.575040	0.649052
H235	H	0.734255	-0.195584	-0.178336
H236	H	1.067588	0.137749	0.154997
H237	H	1.400921	0.471082	0.488331
H238	H	0.376068	0.091928	-0.167200
H239	H	0.709401	0.425262	0.166133
H240	H	1.042734	0.758595	0.499467
H241	H	0.701132	0.000221	-0.318654
H242	H	1.034466	0.333554	0.014680
H243	H	1.367799	0.666887	0.348013
H244	H	0.734259	-0.333876	-0.178335
H245	H	1.067593	-0.000542	0.154998
H246	H	1.400926	0.332791	0.488331
H247	H	0.733207	0.077093	-0.669980
H248	H	1.066540	0.410427	-0.336646
H249	H	1.399874	0.743760	-0.003313
F250	F	0.691723	0.000084	-0.758603
F251	F	1.025057	0.333417	-0.425269
F252	F	1.358390	0.666750	-0.091936
H253	H	0.709613	0.000058	-0.896966
H254	H	1.042946	0.333391	-0.563632
H255	H	1.376280	0.666725	-0.230299
F256	F	0.687366	0.000175	-0.461260
F257	F	1.020700	0.333508	-0.127927
F258	F	1.354033	0.666841	0.205406
F259	F	0.021969	-0.136098	-0.088025
F260	F	0.355302	0.197235	0.245308
F261	F	0.688635	0.530568	0.578641
H262	H	0.162531	0.119933	-0.090091
H263	H	0.495865	0.453266	0.243243
H264	H	0.829198	0.786599	0.576576
H265	H	0.909163	-0.076856	-0.646279
H266	H	1.242496	0.256477	-0.312946
H267	H	1.575829	0.589810	0.020387
F268	F	0.171511	-0.136112	-0.090226
F269	F	0.504845	0.197222	0.243107
F270	F	0.838178	0.530555	0.576441
H271	H	0.395810	-0.091643	-0.019554
H272	H	0.729144	0.241690	0.313779
H273	H	1.062477	0.575024	0.647113
F274	F	0.955277	0.000074	-0.873118
F275	F	1.288610	0.333407	-0.539784
F276	F	1.621944	0.666740	-0.206451
H277	H	0.734288	-0.804088	-0.178349
H278	H	1.067621	-0.470755	0.154984
H279	H	1.400954	-0.137421	0.488317
H280	H	0.907242	-0.076812	-0.514855
H281	H	1.240575	0.256522	-0.181522
H282	H	1.573908	0.589855	0.151812
H283	H	0.937389	0.000110	-0.734754
H284	H	1.270722	0.333443	-0.401420
H285	H	1.604055	0.666776	-0.068087
H286	H	0.705395	-0.430741	-0.109228
H287	H	1.038728	-0.097408	0.224105
H288	H	1.372062	0.235925	0.557439
F289	F	0.689578	-0.578559	-0.111558
F290	F	1.022911	-0.245225	0.221776
F291	F	1.356245	0.088108	0.555109
F292	F	0.722433	-0.656264	-0.190181
F293	F	1.055766	-0.322931	0.143152
F294	F	1.389100	0.010403	0.476485
F295	F	0.468851	-0.136137	-0.094609
F296	F	0.802184	0.197196	0.238725
F297	F	1.135518	0.530530	0.572058
H298	H	0.932759	0.000220	-0.419298
H299	H	1.266092	0.333553	-0.085965
H300	H	1.599426	0.666887	0.247368
H301	H	0.930839	0.000256	-0.287864
H302	H	1.264172	0.333589	0.045469
H303	H	1.597505	0.666923	0.378803
H304	H	0.609414	0.119890	-0.096666
H305	H	0.942748	0.453223	0.236667
H306	H	1.276081	0.786556	0.570001
F307	F	0.468934	0.136406	-0.094602
F308	F	0.802268	0.469739	0.238731
F309	F	1.135601	0.803073	0.572064
H310	H	0.244636	0.091935	-0.165268
H311	H	0.577969	0.425268	0.168065
H312	H	0.911303	0.758602	0.501399
