data_functionalizedCrystal
_audit_creation_method	'MofGen! by Chris Wilmer'
_symmetry_space_group_name_H-M	'P1'
_symmetry_Int_Tables_number	1
_symmetry_cell_setting	triclinic
loop_
_symmetry_equiv_pos_as_xyz
  x,y,z
_cell_length_a	19.377369
_cell_length_b	14.446369
_cell_length_c	19.377574
_cell_angle_alpha	104.491168
_cell_angle_beta	82.425876
_cell_angle_gamma	48.635090
loop_
_atom_site_label
_atom_site_type_symbol
_atom_site_fract_x
_atom_site_fract_y
_atom_site_fract_z
Zr1	Zr	0.779834	0.723685	0.049354
O2	O	0.928482	0.511617	-0.037231
O3	O	0.631192	0.806764	0.057014
O4	O	0.779835	0.730796	-0.064458
O5	O	0.779837	0.626956	0.201541
O6	O	0.779828	0.883136	-0.064455
O7	O	0.779840	0.587584	0.084241
O8	O	0.513934	1.019028	0.152836
O9	O	1.045732	0.491064	-0.015750
O10	O	0.692324	0.934056	0.083097
O11	O	0.692326	0.849749	0.170635
O12	O	0.867334	0.760307	0.027617
O13	O	0.867337	0.676001	0.115154
Zr14	Zr	0.779820	1.029443	0.236439
Zr15	Zr	0.779824	0.966650	0.049359
Zr16	Zr	0.779830	0.786479	0.236434
Zr17	Zr	0.966833	0.690906	0.083614
Zr18	Zr	0.592821	1.062223	0.202180
O19	O	0.928462	0.946365	0.228780
O20	O	0.928468	0.857081	-0.037223
O21	O	0.928477	0.600901	0.228773
O22	O	0.631172	1.241512	0.323024
O23	O	0.631177	1.152228	0.057021
O24	O	0.631186	0.896048	0.323017
O25	O	0.779817	1.126173	0.084252
O26	O	0.779819	1.022333	0.350251
O27	O	0.779826	0.869993	0.350248
O28	O	0.779814	1.165544	0.201552
O29	O	1.045724	0.684188	-0.015746
O30	O	0.513930	1.068941	0.301539
O31	O	0.513922	1.262065	0.301543
O32	O	0.513925	1.212152	0.152840
O33	O	1.045729	0.540977	0.132953
O34	O	1.045720	0.734101	0.132957
O35	O	0.692320	0.992822	0.258176
O36	O	0.692317	1.077128	0.170639
O37	O	0.867327	0.903380	0.115159
O38	O	0.867330	0.819073	0.202696
C39	C	0.545919	0.917566	0.100044
C40	C	0.466533	0.931482	0.085500
C41	C	0.205141	0.757778	0.266382
C42	C	0.130455	0.771030	0.252778
C43	C	0.130461	0.859039	0.161396
C44	C	0.205145	0.845801	0.174995
C45	C	0.242480	0.795168	0.227488
C46	C	0.242484	0.883191	0.136101
C47	C	0.317166	0.869947	0.149696
C48	C	0.354508	0.819313	0.202185
C49	C	0.317161	0.781924	0.241083
C50	C	0.205153	0.933815	0.083604
C51	C	0.242492	0.971205	0.044710
C52	C	0.317170	0.957970	0.058309
C53	C	0.354512	0.907336	0.110798
C54	C	0.354517	0.995359	0.019411
C55	C	0.429198	0.982115	0.033007
C56	C	0.429194	0.894092	0.124393
C57	C	0.779840	0.572653	0.142890
C58	C	0.779844	0.469509	0.142888
C59	C	0.890212	0.213355	0.108173
C60	C	0.890286	0.320470	0.107878
C61	C	0.725020	0.462278	0.092572
C62	C	0.725720	0.354251	0.092298
C63	C	0.723444	0.401646	0.227833
C64	C	0.725524	0.507200	0.228064
C65	C	1.013735	0.835563	0.185750
C66	C	1.093121	0.821647	0.200294
C67	C	0.779832	0.798019	-0.091111
C68	C	0.779834	0.771362	-0.170531
C69	C	0.779814	1.180476	0.142903
C70	C	0.779810	1.283620	0.142905
C71	C	0.779815	1.103284	-0.431746
C72	C	0.779818	1.078205	-0.506374
C73	C	0.779825	0.910365	-0.506359
C74	C	0.779827	0.935425	-0.431731
C75	C	0.779820	1.031888	-0.394430
C76	C	0.779832	0.864029	-0.394415
C77	C	0.779829	0.889093	-0.319792
C78	C	0.779819	0.985553	-0.282485
C79	C	0.779817	1.056952	-0.319807
C80	C	0.779831	0.767574	-0.431715
C81	C	0.779837	0.696177	-0.394399
C82	C	0.779841	0.721234	-0.319777
C83	C	0.779831	0.817694	-0.282470
C84	C	0.779843	0.649835	-0.282455
C85	C	0.779840	0.674899	-0.207832
C86	C	0.779828	0.842758	-0.207847
C87	C	0.779822	0.955110	0.376905
C88	C	0.779820	0.981767	0.456325
C89	C	0.545906	1.221477	0.100050
C90	C	0.466516	1.338538	0.085508
C91	C	0.545914	0.996112	0.334052
C92	C	0.466527	1.036685	0.398928
C93	C	0.545902	1.300023	0.334058
C94	C	0.466509	1.443741	0.398936
C95	C	1.013752	0.453106	-0.048265
C96	C	1.093145	0.309388	-0.113143
C97	C	1.013747	0.531652	0.185743
C98	C	1.093138	0.414591	0.200285
C99	C	1.013740	0.757017	-0.048258
C100	C	1.093127	0.716444	-0.113135
C101	C	0.429237	1.318826	0.032975
C102	C	0.354651	1.428799	0.019296
C103	C	0.317341	1.558486	0.058155
C104	C	0.354628	1.578195	0.110690
C105	C	0.429217	1.468220	0.124365
C106	C	0.429242	1.130423	0.475098
C107	C	0.354659	1.168542	0.536066
C108	C	0.317357	1.112929	0.520860
C109	C	0.354649	1.019179	0.444682
C110	C	0.429236	0.981054	0.383717
C111	C	0.429224	1.555249	0.383710
C112	C	0.354637	1.690293	0.444665
C113	C	0.317332	1.713825	0.520845
C114	C	0.354624	1.602303	0.536070
C115	C	0.429215	1.467262	0.475117
C116	C	1.130439	0.197878	-0.097915
C117	C	1.205049	0.062831	-0.158866
C118	C	1.242358	0.039298	-0.235045
C119	C	1.205061	0.150820	-0.250271
C120	C	1.130458	0.285864	-0.189320
C121	C	1.130425	0.434299	0.252812
C122	C	1.205031	0.324315	0.266474
C123	C	1.242344	0.194627	0.227613
C124	C	1.205054	0.174919	0.175081
C125	C	1.130454	0.284900	0.161415
C126	C	1.130406	0.772083	-0.097905
C127	C	1.204989	0.733986	-0.158858
C128	C	1.242298	0.640243	-0.235039
C129	C	1.205012	0.584605	-0.250268
C130	C	1.130425	0.622709	-0.189316
H131	H	0.415322	0.808524	0.213250
H132	H	1.100040	0.848412	-0.035879
Br133	Br	1.079855	0.258131	0.090128
H134	H	0.459601	1.012560	0.001334
H135	H	0.779843	0.616762	-0.177449
H136	H	0.256624	1.143984	0.570508
Br137	Br	0.479843	1.523349	0.280332
H138	H	0.779839	0.617641	-0.424777
Br139	Br	1.255665	0.457371	-0.353659
H140	H	0.324304	1.244882	0.598087
H141	H	0.459614	1.213232	0.001320
Br142	Br	1.079818	0.229779	0.005463
Br143	Br	0.962437	0.125793	0.166197
H144	H	1.235380	0.340388	0.309252
Br145	Br	0.304040	1.841620	0.423984
H146	H	0.459560	1.484291	0.167145
Br147	Br	1.079806	0.610291	0.305559
H148	H	0.324302	1.412726	-0.023482
H149	H	0.643815	0.567569	0.115797
Br150	Br	0.479802	1.315940	0.495794
H151	H	0.347561	0.740694	0.283829
H152	H	0.324239	1.683801	0.142325
H153	H	1.235339	0.779299	-0.146443
H154	H	0.256605	1.648024	0.047014
H155	H	1.303032	0.609228	-0.284662
Br156	Br	0.303854	1.064046	-0.051838
Br157	Br	1.343587	0.045380	0.246169
Br158	Br	0.779802	1.175124	-0.557009
H159	H	0.324267	0.973906	0.432312
H160	H	0.459583	0.904730	0.321697
H161	H	0.779829	0.747176	-0.492477
H162	H	1.100082	0.577391	-0.201727
H163	H	0.933331	0.127369	0.046231
Br164	Br	0.479861	0.825391	0.195643
Br165	Br	1.079848	0.437190	-0.210001
Br166	Br	0.779829	1.187848	-0.269187
Br167	Br	0.255807	0.689077	0.337631
Br168	Br	0.779827	0.779463	-0.556984
Br169	Br	0.782306	0.326771	0.294697
H170	H	0.100058	0.740574	0.284452
Br171	Br	0.779832	0.518947	-0.333079
Br172	Br	0.587887	0.494181	0.271566
Br173	Br	0.303984	1.634263	0.639462
H174	H	0.100057	0.900260	0.118653
Br175	Br	0.479844	1.205926	0.495755
H176	H	0.779820	1.181824	-0.401377
H177	H	0.144348	0.944587	0.072532
Br178	Br	0.961976	0.320329	0.166035
H179	H	0.256595	1.823791	0.570470
H180	H	0.212089	1.012426	0.001968
H181	H	1.303105	-0.070670	-0.284668
H182	H	0.933567	0.286852	0.045541
H183	H	1.235403	-0.027958	-0.146454
Br184	Br	1.255705	0.118859	-0.353662
Br185	Br	0.792132	0.511525	0.290424
Br186	Br	1.255700	-0.001095	0.122349
H187	H	0.644720	0.407670	0.114899
Br188	Br	0.788487	0.415869	-0.011521
Br189	Br	0.591211	0.687493	0.277446
Br190	Br	0.779840	0.973654	-0.157227
H191	H	0.764684	0.273550	0.029342
H192	H	0.779812	1.005963	-0.221721
