data_functionalizedCrystal
_audit_creation_method	'MofGen! by Chris Wilmer'
_symmetry_space_group_name_H-M	'P1'
_symmetry_Int_Tables_number	1
_symmetry_cell_setting	triclinic
loop_
_symmetry_equiv_pos_as_xyz
  x,y,z
_cell_length_a	13.897448
_cell_length_b	18.215407
_cell_length_c	18.215399
_cell_angle_alpha	90.014769
_cell_angle_beta	89.971263
_cell_angle_gamma	89.986687
loop_
_atom_site_label
_atom_site_type_symbol
_atom_site_fract_x
_atom_site_fract_y
_atom_site_fract_z
Zn1	Zn	-0.384115	-1.125087	-0.416084
Zn2	Zn	-0.545431	-1.125017	-0.293021
Zn3	Zn	-0.384139	-1.002026	-0.293036
Zn4	Zn	-0.545357	-1.002001	-0.416050
O5	O	-0.464760	-1.063533	-0.354548
O6	O	-0.405534	-1.228062	-0.399767
O7	O	-0.524077	-1.108683	-0.190039
O8	O	-0.249154	-1.018390	-0.309378
O9	O	-0.524053	-1.228011	-0.309353
O10	O	-0.249136	-1.108802	-0.399781
O11	O	-0.405576	-1.018322	-0.190049
O12	O	-0.405505	-0.899038	-0.309346
O13	O	-0.523926	-1.018347	-0.519039
O14	O	-0.523950	-0.899020	-0.399724
O15	O	-0.405462	-1.108778	-0.519064
O16	O	-0.680403	-1.108659	-0.309321
O17	O	-0.680348	-1.018279	-0.399710
C18	C	-0.464723	-0.872326	-0.354533
C19	C	-0.464730	-0.790528	-0.354545
C20	C	-0.403137	-0.602359	-0.401696
C21	C	-0.403142	-0.525500	-0.401698
C22	C	-0.526370	-0.525458	-0.307405
C23	C	-0.526359	-0.602315	-0.307400
C24	C	-0.464744	-0.640764	-0.354550
C25	C	-0.464760	-0.487048	-0.354557
C26	C	-0.464766	-0.403714	-0.354558
C27	C	-0.464737	-0.724103	-0.354547
C28	C	-0.715375	-1.063479	-0.354526
C29	C	-0.822589	-1.063523	-0.354542
C30	C	-1.018884	-1.063601	-0.354588
C31	C	-0.909651	-1.063556	-0.354565
C32	C	-0.213168	-1.063607	-0.354585
C33	C	-0.105954	-1.063638	-0.354601
C34	C	-0.464683	-1.063567	-0.546501
C35	C	-0.464651	-1.063582	-0.628300
C36	C	-0.464788	-0.255486	-0.354561
C37	C	-0.464774	-0.337284	-0.354562
C38	C	-0.402906	-1.016571	-0.816500
C39	C	-0.402886	-1.016584	-0.893359
C40	C	-0.526280	-1.110682	-0.893337
C41	C	-0.526304	-1.110664	-0.816480
C42	C	-0.464611	-1.063610	-0.778063
C43	C	-0.464568	-1.063640	-0.931779
C44	C	-0.464548	-1.063654	-1.015113
C45	C	-0.464633	-1.063595	-0.694724
C46	C	-0.464768	-1.063540	-0.163341
C47	C	-0.464529	-1.063668	-0.081543
H48	H	-0.352973	-0.494235	-0.440088
C49	C	-0.594134	-0.644564	-0.255539
H50	H	-0.630841	-0.610659	-0.227466
H51	H	-0.557181	-0.674540	-0.223520
H52	H	-0.636204	-0.674549	-0.283640
H53	H	-0.352672	-0.978256	-0.785224
C54	C	-0.594149	-0.483162	-0.255551
H55	H	-0.585341	-0.431888	-0.262311
H56	H	-0.579957	-0.495742	-0.206121
H57	H	-0.658977	-0.495758	-0.266243
C58	C	-0.335006	-0.964844	-0.935636
H59	H	-0.298266	-0.936824	-0.901747
H60	H	-0.371886	-0.932773	-0.965609
H61	H	-0.292972	-0.993019	-0.965628
H62	H	-0.576508	-1.148992	-0.924625
C63	C	-0.335356	-0.644650	-0.453553
H64	H	-0.298660	-0.610767	-0.481626
H65	H	-0.372297	-0.674640	-0.485569
H66	H	-0.293276	-0.674626	-0.425448
H67	H	-0.576556	-1.148971	-0.785183
