data_functionalizedCrystal
_audit_creation_method	'MofGen! by Chris Wilmer'
_symmetry_space_group_name_H-M	'P1'
_symmetry_Int_Tables_number	1
_symmetry_cell_setting	triclinic
loop_
_symmetry_equiv_pos_as_xyz
  x,y,z
_cell_length_a	12.827893
_cell_length_b	16.625546
_cell_length_c	12.827885
_cell_angle_alpha	90.035124
_cell_angle_beta	90.019272
_cell_angle_gamma	90.022629
loop_
_atom_site_label
_atom_site_type_symbol
_atom_site_fract_x
_atom_site_fract_y
_atom_site_fract_z
Zn1	Zn	1.597618	-0.320959	0.590810
Zn2	Zn	1.597491	-0.455813	0.416054
Zn3	Zn	1.422860	-0.320999	0.416084
Zn4	Zn	1.422823	-0.455754	0.590754
O5	O	1.510198	-0.388381	0.503425
O6	O	1.743837	-0.338856	0.567639
O7	O	1.574287	-0.437971	0.269822
O8	O	1.446110	-0.208161	0.439297
O9	O	1.743744	-0.437933	0.439247
O10	O	1.574505	-0.208132	0.567668
O11	O	1.445987	-0.338924	0.269843
O12	O	1.276619	-0.338866	0.439243
O13	O	1.446048	-0.437831	0.736997
O14	O	1.276592	-0.437870	0.567572
O15	O	1.574469	-0.338798	0.737039
O16	O	1.574252	-0.568638	0.439192
O17	O	1.445925	-0.568594	0.567544
C18	C	1.238688	-0.388366	0.503405
C19	C	1.122535	-0.388380	0.503422
C20	C	1.070796	-0.339440	0.567053
C21	C	0.950746	-0.339452	0.567072
C22	C	1.510099	-0.597872	0.503382
C23	C	1.510152	-0.687493	0.503398
C24	C	1.510335	-1.015669	0.503507
C25	C	1.510281	-0.924360	0.503479
C26	C	1.510243	-0.851584	0.503452
C27	C	1.510190	-0.760270	0.503425
C28	C	1.782768	-0.388397	0.503446
C29	C	1.898921	-0.388403	0.503455
C30	C	1.510269	-0.388304	0.775996
C31	C	1.510299	-0.388271	0.892149
C32	C	1.510326	-0.178072	0.503492
C33	C	1.510380	-0.088451	0.503521
C34	C	1.510187	-0.388400	0.231915
C35	C	1.510359	-0.388206	0.115763
C36	C	1.573853	-0.339257	0.943954
C37	C	1.573886	-0.339221	1.064004
H38	H	0.943409	-0.430309	0.448980
C39	C	1.131007	-0.282818	0.640636
C40	C	1.116122	-0.191140	0.632334
C41	C	1.176326	-0.134515	0.705919
C42	C	1.251416	-0.169568	0.787806
C43	C	1.266304	-0.261250	0.796111
C44	C	1.206100	-0.317876	0.722526
H45	H	1.060533	-0.165188	0.571713
H46	H	1.165305	-0.066645	0.699770
H47	H	1.295983	-0.127650	0.842278
H48	H	1.321893	-0.287203	0.856732
H49	H	1.217121	-0.385745	0.728675
H50	H	1.455906	-0.430202	0.936673
C51	C	1.647396	-0.282528	1.124180
C52	C	1.720982	-0.225787	1.064313
C53	C	1.794495	-0.169092	1.124491
C54	C	1.794423	-0.169137	1.244537
C55	C	1.720835	-0.225880	1.304411
C56	C	1.647322	-0.282576	1.244233
H57	H	1.721037	-0.225751	0.975442
H58	H	1.848969	-0.127087	1.080168
H59	H	1.848842	-0.127168	1.289084
H60	H	1.720779	-0.225916	1.393282
H61	H	1.592847	-0.324581	1.288556
H62	H	0.906252	-0.297556	0.621552
C63	C	1.062320	-0.444998	0.429839
C64	C	0.987230	-0.409941	0.347957
C65	C	0.927018	-0.466561	0.274372
C66	C	0.941896	-0.558240	0.282670
C67	C	1.016990	-0.593303	0.364556
C68	C	1.077201	-0.536682	0.438141
H69	H	0.976213	-0.342070	0.341811
H70	H	0.871429	-0.440605	0.213754
H71	H	0.897324	-0.600154	0.228198
H72	H	1.028006	-0.661173	0.370702
H73	H	1.132791	-0.562638	0.498759
C74	C	1.647332	-0.282601	0.883814
C75	C	1.602001	-0.219370	0.808766
C76	C	1.675483	-0.162714	0.748627
C77	C	1.794295	-0.169287	0.763537
C78	C	1.839631	-0.232520	0.838589
C79	C	1.766150	-0.289177	0.898727
H80	H	1.514044	-0.214502	0.797725
H81	H	1.641921	-0.115904	0.693069
H82	H	1.848690	-0.127346	0.719019
H83	H	1.927589	-0.237389	0.849629
H84	H	1.799712	-0.335986	0.954285
H85	H	1.455950	-0.430174	1.071218
