data_functionalizedCrystal
_audit_creation_method	'MofGen! by Chris Wilmer'
_symmetry_space_group_name_H-M	'P1'
_symmetry_Int_Tables_number	1
_symmetry_cell_setting	triclinic
loop_
_symmetry_equiv_pos_as_xyz
  x,y,z
_cell_length_a	15.944551
_cell_length_b	15.021413
_cell_length_c	15.944551
_cell_angle_alpha	90.003065
_cell_angle_beta	96.501262
_cell_angle_gamma	90.002826
loop_
_atom_site_label
_atom_site_type_symbol
_atom_site_fract_x
_atom_site_fract_y
_atom_site_fract_z
O1	O	1.114529	0.073941	-0.108321
O2	O	0.869979	0.073964	-0.121677
O3	O	0.998932	0.073944	0.007276
O4	O	0.985576	0.073961	-0.237274
O5	O	0.998912	-0.074121	0.007257
O6	O	0.869959	-0.074101	-0.121695
O7	O	1.114508	-0.074123	-0.108339
Zn8	Zn	0.992230	-0.097620	-0.115020
Zn9	Zn	0.992257	0.097461	-0.114996
O10	O	0.985555	-0.074103	-0.237292
C11	C	0.838675	-0.000066	-0.121132
C12	C	0.745429	-0.000057	-0.119470
N13	N	0.992218	-0.230758	-0.115036
C14	C	0.530572	-0.000081	-0.035565
C15	C	0.469562	0.072926	-0.074518
C16	C	0.574703	-0.000068	-0.116462
C17	C	0.469564	-0.073054	-0.074556
C18	C	0.409790	-0.000083	-0.113551
C19	C	0.514921	0.072998	-0.155438
C20	C	0.514930	-0.073047	-0.155464
C21	C	0.453937	-0.000023	-0.194476
C22	C	0.669705	-0.000059	-0.118137
C23	C	0.314789	-0.000085	-0.111883
C24	C	0.932581	-0.470432	-0.174636
C25	C	1.008481	-0.529772	-0.190943
C26	C	0.992239	-0.412365	-0.115015
C27	C	0.916360	-0.529766	-0.098727
C28	C	0.992253	-0.587789	-0.114997
C29	C	1.068178	-0.470398	-0.131360
C30	C	0.976006	-0.470387	-0.039111
C31	C	1.051962	-0.529701	-0.055386
C32	C	0.992230	-0.311307	-0.115028
C33	C	0.992271	-0.688844	-0.114984
C34	C	1.145813	-0.000092	-0.108885
C35	C	1.239059	-0.000094	-0.110547
C36	C	0.998367	-0.000089	0.038561
C37	C	0.996705	-0.000089	0.131807
N38	N	0.992276	0.230598	-0.114973
C39	C	0.986120	-0.000069	-0.268577
C40	C	0.987782	-0.000063	-0.361823
C41	C	0.912801	-0.000069	0.346663
C42	C	0.951753	-0.073077	0.407672
C43	C	0.993698	-0.000082	0.302533
C44	C	0.951792	0.072903	0.407673
C45	C	0.990787	-0.000071	0.467445
C46	C	1.032672	-0.073150	0.362313
C47	C	1.032700	0.072895	0.362308
C48	C	1.071711	-0.000131	0.423298
C49	C	0.995372	-0.000089	0.207530
C50	C	0.989119	-0.000070	0.562446
H51	H	0.449461	0.134642	-0.040295
H52	H	0.962240	-0.444283	0.025051
H53	H	0.420779	0.000023	-0.261683
C54	C	1.154891	-0.435325	-0.150074
H55	H	1.154346	-0.372082	-0.149997
H56	H	1.197293	-0.456091	-0.107969
H57	H	1.166517	-0.456153	-0.203817
C58	C	0.575574	0.000003	0.055141
H59	H	0.609498	-0.051894	0.063827
H60	H	0.610265	0.051378	0.063434
H61	H	0.534716	0.000563	0.094124
H62	H	1.102474	-0.555561	-0.004956
C63	C	0.864500	-0.435263	-0.242798
H64	H	0.876182	-0.455597	-0.296690
H65	H	0.810699	-0.456461	-0.231766
H66	H	0.864634	-0.372026	-0.242001
H67	H	0.852184	-0.555847	-0.084959
H68	H	0.535052	-0.134767	-0.189659
C69	C	0.822095	-0.000156	0.301661
H70	H	0.793480	-0.052091	0.317077
H71	H	0.793075	0.051181	0.317839
H72	H	0.823775	0.000367	0.242295
C73	C	0.905522	-0.156448	0.434832
H74	H	0.849071	-0.156355	0.408331
H75	H	0.933709	-0.208291	0.418542
H76	H	0.905248	-0.156117	0.494381
H77	H	0.534918	0.134787	-0.189621
H78	H	1.022224	-0.555856	-0.255126
C79	C	1.078838	-0.156628	0.335303
H80	H	1.079582	-0.156139	0.275810
H81	H	1.135118	-0.156849	0.362232
H82	H	1.050278	-0.208402	0.351191
H83	H	1.138919	-0.000178	0.456457
C84	C	1.078893	0.156270	0.335114
H85	H	1.050075	0.208096	0.350463
H86	H	1.135028	0.156790	0.362409
H87	H	1.080053	0.155371	0.275681
C88	C	0.905570	0.156283	0.434823
H89	H	0.943004	0.190660	0.472501
H90	H	0.886830	0.190887	0.386444
H91	H	0.858361	0.138733	0.462287
C92	C	0.442420	-0.156433	-0.028329
H93	H	0.468936	-0.156340	0.028116
H94	H	0.382876	-0.156126	-0.028052
H95	H	0.458721	-0.208274	-0.056524
