data_functionalizedCrystal
_audit_creation_method	'MofGen! by Chris Wilmer'
_symmetry_space_group_name_H-M	'P1'
_symmetry_Int_Tables_number	1
_symmetry_cell_setting	triclinic
loop_
_symmetry_equiv_pos_as_xyz
  x,y,z
_cell_length_a	10.654545
_cell_length_b	8.597304
_cell_length_c	9.730223
_cell_angle_alpha	82.295717
_cell_angle_beta	89.997167
_cell_angle_gamma	84.908900
loop_
_atom_site_label
_atom_site_type_symbol
_atom_site_fract_x
_atom_site_fract_y
_atom_site_fract_z
O1	O	1.669013	0.220431	-0.140372
O2	O	2.169013	0.720431	0.359628
O3	O	1.303645	0.241442	-0.142865
O4	O	1.803645	0.741442	0.357135
O5	O	1.493519	0.002547	-0.114572
O6	O	1.993519	0.502547	0.385428
O7	O	1.479139	0.459326	-0.168665
O8	O	1.979139	0.959326	0.331335
O9	O	1.493507	0.002541	0.114009
O10	O	1.993507	0.502541	0.614009
O11	O	1.303633	0.241436	0.085716
O12	O	1.803633	0.741436	0.585716
O13	O	1.669001	0.220424	0.088209
O14	O	2.169001	0.720424	0.588209
Zn15	Zn	1.486315	0.230929	0.123254
Zn16	Zn	1.986315	0.730929	0.623254
Zn17	Zn	1.486331	0.230937	-0.177911
Zn18	Zn	1.986331	0.730937	0.322089
O19	O	1.479127	0.459319	0.059915
O20	O	1.979127	0.959319	0.559915
C21	C	1.256833	0.239898	-0.028393
C22	C	1.756833	0.739898	0.471607
C23	C	1.117365	0.235286	-0.027849
C24	C	1.617365	0.735286	0.472151
C25	C	1.051842	0.233112	0.097008
C26	C	1.551842	0.733112	0.597008
C27	C	0.920799	0.228753	0.097524
C28	C	1.420799	0.728753	0.597524
C29	C	0.920814	0.228750	-0.151686
C30	C	1.420814	0.728750	0.348314
C31	C	1.051855	0.233097	-0.152199
C32	C	1.551855	0.733097	0.347801
C33	C	1.491969	-0.055944	0.006642
C34	C	1.991969	0.444056	0.506642
C35	C	1.487351	-0.230222	0.027272
C36	C	1.987351	0.269778	0.527272
C37	C	1.715813	0.221969	-0.026266
C38	C	2.215813	0.721969	0.473734
C39	C	1.855281	0.226580	-0.026819
C40	C	2.355281	0.726580	0.473181
C41	C	1.480678	0.517811	-0.061302
C42	C	1.980678	1.017811	0.438698
C43	C	1.485295	0.692088	-0.081940
C44	C	1.985295	1.192088	0.418060
N45	N	1.486313	0.230922	0.328792
N46	N	1.986313	0.730922	0.828792
N47	N	1.486343	0.230932	-0.383446
N48	N	1.986343	0.730932	0.116554
C49	C	1.570418	0.125184	0.413241
C50	C	2.070418	0.625184	0.913241
C51	C	1.570431	0.125185	0.557123
C52	C	2.070431	0.625185	1.057123
C53	C	1.402228	0.336675	0.532094
C54	C	1.902228	0.836675	1.032094
C55	C	1.402211	0.336665	0.388215
C56	C	1.902211	0.836665	0.888215
H57	H	0.867457	0.226983	0.199196
H58	H	1.367457	0.726983	0.699196
F59	F	1.121559	0.235435	0.229353
F60	F	1.621559	0.735435	0.729353
H61	H	1.485564	-0.297040	0.136572
H62	H	1.985564	0.202960	0.636572
F63	F	1.659944	0.012642	0.646997
F64	F	2.159944	0.512642	1.146997
F65	F	1.487611	-0.220586	-0.224798
F66	F	1.987611	0.279414	0.275202
H67	H	1.333756	0.422771	0.580491
H68	H	1.833756	0.922771	1.080491
F69	F	0.851085	0.226389	-0.284016
F70	F	1.351085	0.726389	0.215984
F71	F	1.659924	0.012639	0.350004
F72	F	2.159924	0.512639	0.850004
H73	H	1.105205	0.234864	-0.253878
H74	H	1.605205	0.734864	0.246122
F75	F	1.312685	0.449205	0.298331
F76	F	1.812685	0.949205	0.798331
