data_functionalizedCrystal
_audit_creation_method	'MofGen! by Chris Wilmer'
_symmetry_space_group_name_H-M	'P1'
_symmetry_Int_Tables_number	1
_symmetry_cell_setting	triclinic
loop_
_symmetry_equiv_pos_as_xyz
  x,y,z
_cell_length_a	12.759401
_cell_length_b	12.759400
_cell_length_c	12.759393
_cell_angle_alpha	90.025504
_cell_angle_beta	89.979888
_cell_angle_gamma	89.999145
loop_
_atom_site_label
_atom_site_type_symbol
_atom_site_fract_x
_atom_site_fract_y
_atom_site_fract_z
Zn1	Zn	-1.606357	-0.418257	0.594033
Zn2	Zn	-1.106357	0.081743	1.094033
Zn3	Zn	-1.606286	-0.593972	0.418369
Zn4	Zn	-1.106286	-0.093972	0.918369
Zn5	Zn	-1.430655	-0.418303	0.418371
Zn6	Zn	-0.930655	0.081697	0.918371
Zn7	Zn	-1.430685	-0.593889	0.594009
Zn8	Zn	-0.930685	-0.093889	1.094009
O9	O	-1.518496	-0.506105	0.506195
O10	O	-1.018496	-0.006105	1.006195
O11	O	-1.753368	-0.441581	0.570741
O12	O	-1.253368	0.058419	1.070741
O13	O	-1.582946	-0.570723	0.271348
O14	O	-1.082946	-0.070723	0.771348
O15	O	-1.453980	-0.271276	0.441684
O16	O	-0.953980	0.228724	0.941684
O17	O	-1.753316	-0.570678	0.441681
O18	O	-1.253316	-0.070678	0.941681
O19	O	-1.583067	-0.271242	0.570743
O20	O	-1.083067	0.228758	1.070743
O21	O	-1.453911	-0.441660	0.271350
O22	O	-0.953911	0.058340	0.771350
O23	O	-1.283638	-0.441580	0.441660
O24	O	-0.783638	0.058420	0.941660
O25	O	-1.454031	-0.570537	0.741033
O26	O	-0.954031	-0.070537	1.241033
O27	O	-1.283660	-0.570583	0.570700
O28	O	-0.783660	-0.070583	1.070700
O29	O	-1.583096	-0.441500	0.741051
O30	O	-1.083096	0.058500	1.241051
O31	O	-1.582975	-0.740982	0.441656
O32	O	-1.082975	-0.240982	0.941656
O33	O	-1.453962	-0.740921	0.570698
O34	O	-0.953962	-0.240921	1.070698
C35	C	-1.245528	-0.506078	0.506179
C36	C	-0.745528	-0.006078	1.006179
C37	C	-1.128752	-0.506092	0.506196
C38	C	-0.628752	-0.006092	1.006196
C39	C	-1.518492	-0.779073	0.506197
C40	C	-1.018492	-0.279073	1.006197
C41	C	-1.518587	-0.895849	0.506233
C42	C	-1.018587	-0.395849	1.006233
C43	C	-1.518574	-0.506004	0.780229
C44	C	-1.018574	-0.006004	1.280229
C45	C	-1.518608	-0.505961	0.897006
C46	C	-1.018608	-0.005961	1.397006
C47	C	-0.964198	-0.573377	0.573287
C48	C	-0.464198	-0.073377	1.073287
C49	C	-1.073922	-0.573368	0.573277
C50	C	-0.573922	-0.073368	1.073277
C51	C	-1.073852	-0.438827	0.439113
C52	C	-0.573852	0.061173	0.939113
C53	C	-0.964130	-0.438842	0.439118
C54	C	-0.464130	0.061158	0.939118
C55	C	-0.792529	-0.506126	0.506211
C56	C	-0.292529	-0.006126	1.006211
C57	C	-0.909306	-0.506115	0.506212
C58	C	-0.409306	-0.006115	1.006212
C59	C	-1.518528	-0.232072	0.506217
C60	C	-1.018528	0.267928	1.006217
C61	C	-1.518542	-0.115295	0.506226
C62	C	-1.018542	0.384705	1.006226
C63	C	-1.451407	0.049333	0.573416
C64	C	-0.951407	0.549333	1.073416
C65	C	-1.451381	-0.060391	0.573410
C66	C	-0.951381	0.439609	1.073410
C67	C	-1.585725	-0.060470	0.439035
C68	C	-1.085725	0.439530	0.939035
C69	C	-1.585744	0.049252	0.439037
C70	C	-1.085744	0.549252	0.939037
C71	C	-1.518478	-0.506130	0.233228
C72	C	-1.018478	-0.006130	0.733228
C73	C	-1.518648	-0.505877	0.116452
C74	C	-1.018648	-0.005877	0.616452
C75	C	-1.585817	-0.438761	0.951879
C76	C	-1.085817	0.061239	1.451879
C77	C	-1.585835	-0.438716	1.061603
C78	C	-1.085835	0.061284	1.561603
C79	C	-1.451431	-0.573080	1.061571
C80	C	-0.951431	-0.073080	1.561571
C81	C	-1.451409	-0.573119	0.951849
C82	C	-0.951409	-0.073119	1.451849
H83	H	-0.919563	-0.628155	0.627919
H84	H	-0.419563	-0.128155	1.127919
Br85	Br	-1.360180	-0.664317	0.877371
Br86	Br	-0.860180	-0.164317	1.377371
Br87	Br	-1.148414	-0.664662	0.664308
Br88	Br	-0.648414	-0.164662	1.164308
H89	H	-1.396722	0.094030	0.628130
H90	H	-0.896722	0.594030	1.128130
Br91	Br	-1.676919	0.123654	0.347848
Br92	Br	-1.176919	0.623654	0.847848
Br93	Br	-1.148263	-0.347528	0.348067
Br94	Br	-0.648263	0.152472	0.848067
Br95	Br	-1.677059	-0.347519	1.136070
Br96	Br	-1.177059	0.152481	1.636070
Br97	Br	-0.889627	-0.347558	0.348073
Br98	Br	-0.389627	0.152442	0.848073
H99	H	-1.396676	-0.105018	0.628117
H100	H	-0.896676	0.394982	1.128117
H101	H	-1.640532	-0.384074	0.907229
H102	H	-1.140532	0.115926	1.407229
Br103	Br	-1.360241	-0.664222	1.136008
Br104	Br	-0.860241	-0.164222	1.636008
H105	H	-1.640403	-0.105183	0.384328
H106	H	-1.140403	0.394817	0.884328
