data_functionalizedCrystal
_audit_creation_method	'MofGen! by Chris Wilmer'
_symmetry_space_group_name_H-M	'P1'
_symmetry_Int_Tables_number	1
_symmetry_cell_setting	triclinic
loop_
_symmetry_equiv_pos_as_xyz
  x,y,z
_cell_length_a	13.897449
_cell_length_b	13.897447
_cell_length_c	13.897441
_cell_angle_alpha	89.970673
_cell_angle_beta	89.979267
_cell_angle_gamma	90.020810
loop_
_atom_site_label
_atom_site_type_symbol
_atom_site_fract_x
_atom_site_fract_y
_atom_site_fract_z
Zn1	Zn	1.474690	-0.383951	-0.545390
Zn2	Zn	1.808024	-0.050618	-0.212056
Zn3	Zn	2.141357	0.282715	0.121277
Zn4	Zn	1.474579	-0.545273	-0.384095
Zn5	Zn	1.807912	-0.211940	-0.050761
Zn6	Zn	2.141246	0.121394	0.282572
Zn7	Zn	1.313379	-0.383997	-0.384108
Zn8	Zn	1.646713	-0.050664	-0.050775
Zn9	Zn	1.980046	0.282670	0.282559
Zn10	Zn	1.313356	-0.545210	-0.545347
Zn11	Zn	1.646689	-0.211876	-0.212014
Zn12	Zn	1.980023	0.121457	0.121319
O13	O	1.394001	-0.464608	-0.464735
O14	O	1.727335	-0.131274	-0.131402
O15	O	2.060668	0.202059	0.201932
O16	O	1.609657	-0.405358	-0.524006
O17	O	1.942990	-0.072025	-0.190672
O18	O	2.276324	0.261308	0.142661
O19	O	1.453159	-0.523925	-0.249115
O20	O	1.786492	-0.190592	0.084219
O21	O	2.119826	0.142742	0.417552
O22	O	1.334834	-0.249009	-0.405526
O23	O	1.668167	0.084324	-0.072192
O24	O	2.001501	0.417657	0.261141
O25	O	1.609575	-0.523881	-0.405503
O26	O	1.942909	-0.190547	-0.072170
O27	O	2.276242	0.142786	0.261164
O28	O	1.453348	-0.248976	-0.524019
O29	O	1.786682	0.084358	-0.190685
O30	O	2.120015	0.417691	0.142648
O31	O	1.334726	-0.405436	-0.249125
O32	O	1.668060	-0.072103	0.084209
O33	O	2.001393	0.261230	0.417542
O34	O	1.178395	-0.405375	-0.405485
O35	O	1.511728	-0.072042	-0.072151
O36	O	1.845061	0.261292	0.261182
O37	O	1.334794	-0.523773	-0.680335
O38	O	1.668127	-0.190439	-0.347001
O39	O	2.001461	0.142894	-0.013668
O40	O	1.178377	-0.523817	-0.523946
O41	O	1.511711	-0.190484	-0.190613
O42	O	1.845044	0.142850	0.142720
O43	O	1.453326	-0.405297	-0.680366
O44	O	1.786659	-0.071963	-0.347032
O45	O	2.119992	0.261370	-0.013699
O46	O	1.453136	-0.680246	-0.405462
O47	O	1.786470	-0.346913	-0.072128
O48	O	2.119803	-0.013579	0.261205
O49	O	1.334686	-0.680200	-0.523933
O50	O	1.668020	-0.346866	-0.190600
O51	O	2.001353	-0.013533	0.142733
C52	C	1.143387	-0.464595	-0.464713
C53	C	1.476720	-0.131261	-0.131380
C54	C	1.810054	0.202072	0.201954
C55	C	1.036173	-0.464613	-0.464726
C56	C	1.369506	-0.131279	-0.131393
C57	C	1.702840	0.202054	0.201940
C58	C	0.839878	-0.464616	-0.464752
C59	C	1.173211	-0.131283	-0.131418
C60	C	1.506544	0.202051	0.201915
C61	C	0.949110	-0.464611	-0.464735
C62	C	1.282444	-0.131278	-0.131402
C63	C	1.615777	0.202056	0.201932
C64	C	1.393923	-0.715222	-0.464713
C65	C	1.727256	-0.381889	-0.131379
C66	C	2.060589	-0.048555	0.201954
C67	C	1.393977	-0.822436	-0.464735
C68	C	1.727311	-0.489103	-0.131402
C69	C	2.060644	-0.155769	0.201931
C70	C	1.394024	-0.909506	-0.464757
C71	C	1.727357	-0.576172	-0.131424
C72	C	2.060691	-0.242839	0.201909
C73	C	1.394092	-1.018738	-0.464782
C74	C	1.727425	-0.685405	-0.131449
C75	C	2.060758	-0.352071	0.201885
C76	C	1.645594	-0.464621	-0.464758
C77	C	1.978927	-0.131288	-0.131424
C78	C	2.312261	0.202045	0.201909
C79	C	1.752808	-0.464627	-0.464767
C80	C	2.086141	-0.131294	-0.131434
C81	C	2.419475	0.202040	0.201899
C82	C	1.394070	-0.464522	-0.716328
C83	C	1.727403	-0.131189	-0.382995
C84	C	2.060736	0.202144	-0.049661
C85	C	1.394099	-0.464486	-0.823542
C86	C	1.727432	-0.131153	-0.490209
C87	C	2.060765	0.202181	-0.156875
C88	C	1.394106	-0.213015	-0.464778
C89	C	1.727440	0.120319	-0.131445
C90	C	2.060773	0.453652	0.201888
C91	C	1.394151	-0.105801	-0.464797
C92	C	1.727484	0.227533	-0.131464
C93	C	2.060818	0.560866	0.201870
C94	C	1.394125	-0.464421	-1.019837
C95	C	1.727458	-0.131088	-0.686504
C96	C	2.060792	0.202246	-0.353171
C97	C	1.394107	-0.464460	-0.910605
C98	C	1.727441	-0.131127	-0.577271
C99	C	2.060774	0.202207	-0.243938
C100	C	1.393989	-0.464623	-0.214121
C101	C	1.727322	-0.131290	0.119213
C102	C	2.060655	0.202044	0.452546
C103	C	1.394146	-0.464388	-0.106907
C104	C	1.727480	-0.131054	0.226426
C105	C	2.060813	0.202279	0.559759
