data_functionalizedCrystal
_audit_creation_method	'MofGen! by Chris Wilmer'
_symmetry_space_group_name_H-M	'P1'
_symmetry_Int_Tables_number	1
_symmetry_cell_setting	triclinic
loop_
_symmetry_equiv_pos_as_xyz
  x,y,z
_cell_length_a	10.654550
_cell_length_b	9.065215
_cell_length_c	9.130313
_cell_angle_alpha	89.996437
_cell_angle_beta	89.999724
_cell_angle_gamma	84.749814
loop_
_atom_site_label
_atom_site_type_symbol
_atom_site_fract_x
_atom_site_fract_y
_atom_site_fract_z
O1	O	1.668658	0.207235	-0.121687
O2	O	1.303258	0.226979	-0.121713
O3	O	1.493513	0.002423	-0.121693
O4	O	1.478404	0.431791	-0.121707
O5	O	1.493500	0.002417	0.121906
O6	O	1.303245	0.226972	0.121886
O7	O	1.668645	0.207229	0.121912
Cu8	Cu	1.485944	0.217100	0.144141
Cu9	Cu	1.485959	0.217108	-0.143942
O10	O	1.478390	0.431784	0.121892
C11	C	1.256448	0.225526	0.000083
C12	C	1.116987	0.221189	0.000073
C13	C	1.492055	-0.052559	0.000105
C14	C	1.487716	-0.216378	0.000100
C15	C	1.038024	0.353404	0.000073
C16	C	0.906987	0.349320	0.000098
C17	C	0.933889	0.080794	0.000118
C18	C	1.064924	0.084879	0.000103
C19	C	1.715455	0.208682	0.000113
C20	C	1.854916	0.213019	0.000113
C21	C	1.479848	0.486767	0.000091
C22	C	1.484187	0.650586	0.000086
N23	N	1.485942	0.217094	0.346764
N24	N	1.485971	0.217102	-0.346565
C25	C	1.570216	0.117702	0.423425
C26	C	1.570228	0.117703	0.576762
C27	C	1.401688	0.316498	0.576763
C28	C	1.401671	0.316490	0.423429
H29	H	0.842700	0.456983	0.000101
H30	H	1.080410	0.464395	0.000059
C31	C	1.185252	0.400748	0.624015
C32	C	1.309066	0.425752	0.661045
H33	H	1.128073	0.468193	0.676054
H34	H	1.173186	0.414976	0.521736
H35	H	1.170525	0.302119	0.649164
H36	H	1.323796	0.524378	0.635886
H37	H	1.321137	0.411536	0.763347
H38	H	0.891483	-0.030185	0.000151
H39	H	1.129219	-0.022793	0.000107
H40	H	1.333039	0.397427	0.361008
C41	C	1.736799	-0.078810	0.438830
C42	C	1.662833	0.008434	0.339153
H43	H	1.793970	-0.146277	0.386804
H44	H	1.782676	-0.016895	0.498616
H45	H	1.683910	-0.132444	0.498655
H46	H	1.715721	0.062077	0.279334
H47	H	1.616952	-0.053488	0.279342
H48	H	1.638850	0.036768	0.639175
