data_functionalizedCrystal
_audit_creation_method	'MofGen! by Chris Wilmer'
_symmetry_space_group_name_H-M	'P1'
_symmetry_Int_Tables_number	1
_symmetry_cell_setting	triclinic
loop_
_symmetry_equiv_pos_as_xyz
  x,y,z
_cell_length_a	18.215405
_cell_length_b	11.169417
_cell_length_c	11.169409
_cell_angle_alpha	89.980176
_cell_angle_beta	90.039798
_cell_angle_gamma	89.974236
loop_
_atom_site_label
_atom_site_type_symbol
_atom_site_fract_x
_atom_site_fract_y
_atom_site_fract_z
Zn1	Zn	-0.292907	-1.834841	0.678481
Zn2	Zn	0.207093	-1.334841	1.178481
Zn3	Zn	-0.415999	-1.834679	0.477771
Zn4	Zn	0.084001	-1.334679	0.977771
Zn5	Zn	-0.292952	-1.634127	0.477815
Zn6	Zn	0.207048	-1.134127	0.977815
Zn7	Zn	-0.415939	-1.634083	0.678416
Zn8	Zn	0.084061	-1.134083	1.178416
O9	O	-0.354449	-1.734433	0.578121
O10	O	0.145551	-1.234433	1.078121
O11	O	-0.309242	-2.002769	0.651865
O12	O	0.190758	-1.502769	1.151865
O13	O	-0.399720	-1.808026	0.309827
O14	O	0.100280	-1.308026	0.809827
O15	O	-0.189962	-1.660838	0.504479
O16	O	0.310038	-1.160838	1.004479
O17	O	-0.399677	-2.002651	0.504404
O18	O	0.100323	-1.502651	1.004404
O19	O	-0.189929	-1.808302	0.651907
O20	O	0.310071	-1.308302	1.151907
O21	O	-0.309319	-1.660681	0.309859
O22	O	0.190681	-1.160681	0.809859
O23	O	-0.309260	-1.466171	0.504416
O24	O	0.190740	-0.966171	1.004416
O25	O	-0.399574	-1.660764	0.846375
O26	O	0.100426	-1.160764	1.346375
O27	O	-0.399618	-1.466140	0.651797
O28	O	0.100382	-0.966140	1.151797
O29	O	-0.309184	-1.808260	0.846422
O30	O	0.190816	-1.308260	1.346422
O31	O	-0.518975	-1.807984	0.504342
O32	O	-0.018975	-1.307984	1.004342
O33	O	-0.518931	-1.660607	0.651755
O34	O	-0.018931	-1.160607	1.151755
C35	C	-0.354438	-1.422608	0.578105
C36	C	0.145562	-0.922608	1.078105
C37	C	-0.354451	-1.289208	0.578127
C38	C	0.145549	-0.789208	1.078127
C39	C	-0.545656	-1.734306	0.578063
C40	C	-0.045656	-1.234306	1.078063
C41	C	-0.627454	-1.734362	0.578078
C42	C	-0.127454	-1.234362	1.078078
C43	C	-0.354368	-1.734525	0.891163
C44	C	0.145632	-1.234525	1.391163
C45	C	-0.354333	-1.734564	1.024563
C46	C	0.145667	-1.234564	1.524563
C47	C	-0.815647	-1.811281	0.501462
C48	C	-0.315647	-1.311281	1.001462
C49	C	-0.892506	-1.811335	0.501491
C50	C	-0.392506	-1.311335	1.001491
C51	C	-0.892500	-1.657738	0.654866
C52	C	-0.392500	-1.157738	1.154866
C53	C	-0.815642	-1.657691	0.654842
C54	C	-0.315642	-1.157691	1.154842
C55	C	-0.777218	-1.734461	0.578133
C56	C	-0.277218	-1.234461	1.078133
C57	C	-0.930934	-1.734561	0.578186
C58	C	-0.430934	-1.234561	1.078186
C59	C	-1.014268	-1.734619	0.578218
C60	C	-0.514268	-1.234619	1.078218
C61	C	-0.693879	-1.734405	0.578102
C62	C	-0.193879	-1.234405	1.078102
C63	C	-0.162496	-1.734593	0.578205
C64	C	0.337504	-1.234593	1.078205
C65	C	-0.080697	-1.734661	0.578241
C66	C	0.419303	-1.234661	1.078241
C67	C	-0.354461	-2.047475	0.578137
C68	C	0.145539	-1.547475	1.078137
C69	C	-0.354466	-2.180875	0.578144
C70	C	0.145534	-1.680875	1.078144
C71	C	-0.354478	-1.734410	0.266296
C72	C	0.145522	-1.234410	0.766296
C73	C	-0.354305	-1.734603	0.132897
C74	C	0.145695	-1.234603	0.632897
H75	H	-0.923791	-1.873891	0.439059
H76	H	-0.423791	-1.373891	0.939059
H77	H	-0.784363	-1.873793	0.439002
H78	H	-0.284363	-1.373793	0.939002
C79	C	-0.773366	-1.573182	0.739186
C80	C	-0.273366	-1.073182	1.239186
C81	C	-0.720600	-1.478958	0.687080
C82	C	-0.220600	-0.978958	1.187080
C83	C	-0.678323	-1.394457	0.771424
C84	C	-0.178323	-0.894457	1.271424
C85	C	-0.688812	-1.404181	0.907874
C86	C	-0.188812	-0.904181	1.407874
C87	C	-0.741580	-1.498409	0.959988
C88	C	-0.241580	-0.998409	1.459988
C89	C	-0.783857	-1.582910	0.875644
C90	C	-0.283857	-1.082910	1.375644
H91	H	-0.712834	-1.471756	0.586065
H92	H	-0.212834	-0.971756	1.086065
H93	H	-0.639261	-1.324703	0.732846
H94	H	-0.139261	-0.824703	1.232846
H95	H	-0.657516	-1.341628	0.970311
H96	H	-0.157516	-0.841628	1.470311
H97	H	-0.749347	-1.505610	1.061002
H98	H	-0.249347	-1.005610	1.561002
H99	H	-0.822919	-1.652664	0.914222
H100	H	-0.322919	-1.152664	1.414222
H101	H	-0.923794	-1.595233	0.717318
H102	H	-0.423794	-1.095233	1.217318
