data_functionalizedCrystal
_audit_creation_method	'MofGen! by Chris Wilmer'
_symmetry_space_group_name_H-M	'P1'
_symmetry_Int_Tables_number	1
_symmetry_cell_setting	triclinic
loop_
_symmetry_equiv_pos_as_xyz
  x,y,z
_cell_length_a	10.489741
_cell_length_b	11.792241
_cell_length_c	10.268362
_cell_angle_alpha	90.005428
_cell_angle_beta	90.001881
_cell_angle_gamma	84.366295
loop_
_atom_site_label
_atom_site_type_symbol
_atom_site_fract_x
_atom_site_fract_y
_atom_site_fract_z
O1	O	-1.693508	-0.160138	-0.108220
O2	O	-1.360175	0.173196	0.225113
O3	O	-1.026841	0.506529	0.558446
O4	O	-1.322261	-0.175169	-0.108241
O5	O	-0.988928	0.158164	0.225093
O6	O	-0.655595	0.491498	0.558426
O7	O	-1.516894	-0.002507	-0.108221
O8	O	-1.183560	0.330826	0.225112
O9	O	-0.850227	0.664160	0.558446
O10	O	-1.498876	-0.332799	-0.108240
O11	O	-1.165542	0.000534	0.225093
O12	O	-0.832209	0.333867	0.558427
O13	O	-1.516877	-0.002500	0.108380
O14	O	-1.183543	0.330834	0.441713
O15	O	-0.850210	0.664167	0.775046
O16	O	-1.322244	-0.175162	0.108360
O17	O	-0.988911	0.158172	0.441693
O18	O	-0.655577	0.491505	0.775027
O19	O	-1.693491	-0.160130	0.108380
O20	O	-1.360158	0.173203	0.441714
O21	O	-1.026824	0.506536	0.775047
Cu22	Cu	-1.507866	-0.167645	0.128148
Cu23	Cu	-1.174533	0.165688	0.461481
Cu24	Cu	-0.841199	0.499021	0.794814
Cu25	Cu	-1.507886	-0.167654	-0.128008
Cu26	Cu	-1.174553	0.165679	0.205326
Cu27	Cu	-0.841220	0.499013	0.538659
O28	O	-1.498858	-0.332792	0.108361
O29	O	-1.165525	0.000541	0.441694
O30	O	-0.832192	0.333874	0.775027
C31	C	-1.274725	-0.174030	0.000057
C32	C	-0.941392	0.159303	0.333390
C33	C	-0.608058	0.492637	0.666724
C34	C	-1.133107	-0.170633	0.000050
C35	C	-0.799774	0.162700	0.333383
C36	C	-0.466440	0.496033	0.666716
C37	C	-1.515753	0.039791	0.000079
C38	C	-1.182420	0.373124	0.333412
C39	C	-0.849087	0.706457	0.666746
C40	C	-1.512366	0.165813	0.000078
C41	C	-1.179032	0.499147	0.333411
C42	C	-0.845699	0.832480	0.666744
C43	C	-1.741027	-0.161269	0.000080
C44	C	-1.407694	0.172064	0.333413
C45	C	-1.074361	0.505397	0.666746
C46	C	-1.882645	-0.164666	0.000079
C47	C	-1.549312	0.168668	0.333412
C48	C	-1.215979	0.502001	0.666745
C49	C	-1.065341	-0.060774	0.000068
C50	C	-0.732008	0.272560	0.333402
C51	C	-0.398675	0.605893	0.666735
C52	C	-0.973046	-0.112674	-0.106727
C53	C	-0.639713	0.220659	0.226606
C54	C	-0.306379	0.553993	0.559939
C55	C	-0.973063	-0.112693	0.106824
C56	C	-0.639730	0.220640	0.440157
C57	C	-0.306396	0.553974	0.773490
C58	C	-1.042677	-0.222579	-0.106834
C59	C	-0.709344	0.110754	0.226499
C60	C	-0.376010	0.444088	0.559832
C61	C	-1.042704	-0.222583	0.106813
C62	C	-0.709370	0.110751	0.440146
C63	C	-0.376037	0.444084	0.773480
C64	C	-0.950436	-0.274563	-0.000009
C65	C	-0.617102	0.058771	0.333324
C66	C	-0.283769	0.392104	0.666658
C67	C	-1.499999	-0.375090	0.000058
C68	C	-1.166665	-0.041756	0.333391
C69	C	-0.833332	0.291577	0.666725
C70	C	-1.503387	-0.501113	0.000051
C71	C	-1.170053	-0.167779	0.333384
C72	C	-0.836720	0.165554	0.666717
N73	N	-1.507861	-0.167639	0.308313
N74	N	-1.174528	0.165695	0.641647
N75	N	-0.841194	0.499028	0.974980
C76	C	-1.506136	0.396542	0.000055
C77	C	-1.172803	0.729876	0.333389
C78	C	-0.839470	1.063209	0.666722
C79	C	-1.509598	0.268148	0.000067
C80	C	-1.176264	0.601481	0.333401
C81	C	-0.842931	0.934815	0.666734
N82	N	-1.507901	-0.167652	-0.308174
N83	N	-1.174568	0.165682	0.025160
N84	N	-0.841234	0.499015	0.358493
C85	C	-1.507880	-0.167652	0.573984
C86	C	-1.174546	0.165682	0.907317
C87	C	-0.841213	0.499015	1.240651
C88	C	-1.507865	-0.167648	0.426146
C89	C	-1.174532	0.165686	0.759479
C90	C	-0.841199	0.499019	1.092813
H91	H	-1.115339	0.029538	-0.000060
H92	H	-0.782005	0.362871	0.333273
H93	H	-0.448672	0.696205	0.666607
H94	H	-1.073584	-0.269026	0.197101
H95	H	-0.740251	0.064308	0.530435
H96	H	-0.406918	0.397641	0.863768
O97	O	-0.932235	-0.051107	0.226434
O98	O	-0.598902	0.282227	0.559767
O99	O	-0.265568	0.615560	0.893101
H100	H	-0.978707	0.037610	0.226204
H101	H	-0.645373	0.370943	0.559538
H102	H	-0.312040	0.704276	0.892871
O103	O	-1.083322	-0.284069	-0.226588
O104	O	-0.749989	0.049264	0.106745
O105	O	-0.416655	0.382598	0.440078
H106	H	-1.131756	-0.359487	-0.196708
H107	H	-0.798423	-0.026153	0.136625
H108	H	-0.465090	0.307180	0.469958
H109	H	-0.900704	-0.364970	-0.000072
H110	H	-0.567370	-0.031637	0.333261
H111	H	-0.234037	0.301697	0.666594
O112	O	-0.932157	-0.051112	-0.226313
O113	O	-0.598824	0.282221	0.107021
O114	O	-0.265490	0.615555	0.440354
H115	H	-0.978598	0.037615	-0.226089
H116	H	-0.645264	0.370949	0.107244
H117	H	-0.311931	0.704282	0.440577
