data_functionalizedCrystal
_audit_creation_method	'MofGen! by Chris Wilmer'
_symmetry_space_group_name_H-M	'P1'
_symmetry_Int_Tables_number	1
_symmetry_cell_setting	triclinic
loop_
_symmetry_equiv_pos_as_xyz
  x,y,z
_cell_length_a	19.805407
_cell_length_b	21.295417
_cell_length_c	19.805399
_cell_angle_alpha	90.029796
_cell_angle_beta	90.019573
_cell_angle_gamma	90.029702
loop_
_atom_site_label
_atom_site_type_symbol
_atom_site_fract_x
_atom_site_fract_y
_atom_site_fract_z
Zn1	Zn	1.034720	-0.250624	0.382709
Zn2	Zn	1.534720	0.249376	0.882709
Zn3	Zn	1.034629	-0.355893	0.269517
Zn4	Zn	1.534629	0.144107	0.769517
Zn5	Zn	0.921535	-0.250641	0.269534
Zn6	Zn	1.421535	0.249359	0.769534
Zn7	Zn	0.921492	-0.355859	0.382663
Zn8	Zn	1.421492	0.144141	0.882663
O9	O	0.978094	-0.303254	0.326106
O10	O	1.478094	0.196746	0.826106
O11	O	1.129425	-0.264595	0.367706
O12	O	1.629425	0.235405	0.867706
O13	O	1.019606	-0.341952	0.174802
O14	O	1.519606	0.158048	0.674802
O15	O	0.936605	-0.162549	0.284573
O16	O	1.436605	0.337451	0.784573
O17	O	1.129357	-0.341935	0.284544
O18	O	1.629357	0.158065	0.784544
O19	O	1.019762	-0.162537	0.367723
O20	O	1.519762	0.337463	0.867723
O21	O	0.936517	-0.264624	0.174815
O22	O	1.436517	0.235376	0.674815
O23	O	0.826813	-0.264592	0.284529
O24	O	1.326813	0.235408	0.784529
O25	O	0.936532	-0.341878	0.477386
O26	O	1.436532	0.158122	0.977386
O27	O	0.826781	-0.341895	0.367644
O28	O	1.326781	0.158105	0.867644
O29	O	1.019721	-0.264562	0.477420
O30	O	1.519721	0.235438	0.977420
O31	O	1.019564	-0.443977	0.284499
O32	O	1.519564	0.056023	0.784499
O33	O	0.936443	-0.443953	0.367628
O34	O	1.436443	0.056047	0.867628
C35	C	0.802238	-0.303242	0.326084
C36	C	1.302238	0.196758	0.826084
C37	C	0.727006	-0.303252	0.326091
C38	C	1.227006	0.196748	0.826091
C39	C	0.978008	-0.466806	0.326071
C40	C	1.478008	0.033194	0.826071
C41	C	0.978033	-0.536774	0.326079
C42	C	1.478033	-0.036774	0.826079
C43	C	0.691663	-0.343564	0.369299
C44	C	1.191663	0.156436	0.869299
C45	C	0.620975	-0.343566	0.369308
C46	C	1.120975	0.156434	0.869308
C47	C	0.585630	-0.303257	0.326106
C48	C	1.085630	0.196743	0.826106
C49	C	0.620978	-0.262940	0.282895
C50	C	1.120978	0.237060	0.782895
C51	C	0.691665	-0.262936	0.282890
C52	C	1.191665	0.237064	0.782890
C53	C	0.335905	-0.262954	0.282918
C54	C	0.835905	0.237046	0.782918
C55	C	0.265213	-0.262962	0.282925
C56	C	0.765213	0.237038	0.782925
C57	C	0.265214	-0.343583	0.369336
C58	C	0.765214	0.156417	0.869336
C59	C	0.335901	-0.343579	0.369331
C60	C	0.835901	0.156421	0.869331
C61	C	0.371243	-0.303261	0.326123
C62	C	0.871243	0.196739	0.826123
C63	C	0.447891	-0.303259	0.326114
C64	C	0.947891	0.196741	0.826114
C65	C	0.508983	-0.303261	0.326111
C66	C	1.008983	0.196739	0.826111
C67	C	1.021308	-0.569577	0.369406
C68	C	1.521308	-0.069577	0.869406
C69	C	1.021331	-0.635319	0.369423
C70	C	1.521331	-0.135319	0.869423
C71	C	0.978087	-0.668256	0.326101
C72	C	1.478087	-0.168256	0.826101
C73	C	0.934804	-0.635446	0.282771
C74	C	1.434804	-0.135446	0.782771
C75	C	0.934777	-0.569704	0.282760
C76	C	1.434777	-0.069704	0.782760
N77	N	0.972976	-0.771518	0.266865
N78	N	1.472976	-0.271518	0.766865
N79	N	0.973006	-0.833969	0.266877
N80	N	1.473006	-0.333969	0.766877
C81	C	0.978167	-0.866331	0.326131
C82	C	1.478167	-0.366331	0.826131
N83	N	0.983309	-0.833882	0.385374
N84	N	1.483309	-0.333882	0.885374
N85	N	0.983283	-0.771425	0.385362
N86	N	1.483283	-0.271425	0.885362
C87	C	0.978112	-0.739542	0.326108
C88	C	1.478112	-0.239542	0.826108
C89	C	1.021470	-0.970419	0.369480
C90	C	1.521470	-0.470419	0.869480
C91	C	1.021489	-1.036163	0.369498
C92	C	1.521489	-0.536163	0.869498
C93	C	0.934965	-1.036288	0.282840
C94	C	1.434965	-0.536288	0.782840
C95	C	0.934942	-0.970546	0.282828
C96	C	1.434942	-0.470546	0.782828
C97	C	0.978198	-0.937615	0.326147
C98	C	1.478198	-0.437615	0.826147
C99	C	1.154637	-0.303267	0.326128
C100	C	1.654637	0.196733	0.826128
C101	C	1.229869	-0.303272	0.326138
C102	C	1.729869	0.196728	0.826138
C103	C	0.978132	-0.303214	0.502649
C104	C	1.478132	0.196786	1.002649
C105	C	0.978148	-0.303198	0.577881
C106	C	1.478148	0.196802	1.077881
C107	C	0.978199	-0.139064	0.326155
C108	C	1.478199	0.360936	0.826155
C109	C	0.978244	-0.069096	0.326176
C110	C	1.478244	0.430904	0.826176
C111	C	0.978095	-0.303248	0.150250
C112	C	1.478095	0.196752	0.650250
C113	C	0.978210	-0.303088	0.075018
C114	C	1.478210	0.196912	0.575018
C115	C	1.021465	-0.262937	0.613243
C116	C	1.521465	0.237063	1.113243
C117	C	1.021472	-0.262919	0.683932
C118	C	1.521472	0.237081	1.183932
C119	C	0.978165	-0.303165	0.719256
C120	C	1.478165	0.196835	1.219256
C121	C	0.934843	-0.343427	0.683888
C122	C	1.434843	0.156573	1.183888
C123	C	0.934833	-0.343441	0.613201
C124	C	1.434833	0.156559	1.113201
C125	C	0.934881	-0.343368	0.968962
C126	C	1.434881	0.156632	1.468962
C127	C	0.934896	-0.343352	1.039654
C128	C	1.434896	0.156648	1.539654
C129	C	1.021520	-0.262846	1.039692
C130	C	1.521520	0.237154	1.539692
C131	C	1.021510	-0.262860	0.969005
C132	C	1.521510	0.237140	1.469005
C133	C	0.978186	-0.303120	0.933644
C134	C	1.478186	0.196880	1.433644
C135	C	0.978178	-0.303138	0.856995
C136	C	1.478178	0.196862	1.356995
C137	C	0.978176	-0.303150	0.795903
C138	C	1.478176	0.196850	1.295903
H139	H	0.592201	-0.376392	0.404492
H140	H	1.092201	0.123608	0.904492
N141	N	0.727768	-0.221768	0.238742
N142	N	1.227768	0.278232	0.738742
N143	N	0.767182	-0.243859	0.195562
N144	N	1.267182	0.256141	0.695562
H145	H	0.792678	-0.214781	0.164382
H146	H	1.292678	0.285219	0.664382
H147	H	0.899593	-0.662267	0.247499
H148	H	1.399593	-0.162267	0.747499
N149	N	0.229123	-0.384764	0.413488
N150	N	0.729123	0.115236	0.913488
N151	N	0.260689	-0.420750	0.452057
N152	N	0.760689	0.079250	0.952057
H153	H	0.235202	-0.449835	0.483238
H154	H	0.735202	0.050165	0.983238
H155	H	0.899553	-0.376219	0.584410
H156	H	1.399553	0.123781	1.084410
N157	N	0.890624	-0.384495	0.932857
N158	N	1.390624	0.115505	1.432857
N159	N	0.851964	-0.420426	0.964408
N160	N	1.351964	0.079574	1.464408
H161	H	0.820705	-0.449475	0.938907
H162	H	1.320705	0.050525	1.438907
H163	H	0.899751	-1.063105	0.247570
H164	H	1.399751	-0.563105	0.747570
N165	N	1.065693	-0.221825	0.577153
N166	N	1.565693	0.278175	1.077153
N167	N	1.065679	-0.221840	0.514040
N168	N	1.565679	0.278160	1.014040
H169	H	1.096914	-0.192802	0.488552
H170	H	1.596914	0.307198	0.988552
N171	N	0.727753	-0.384749	0.413429
N172	N	1.227753	0.115251	0.913429
N173	N	0.696184	-0.420739	0.452004
N174	N	1.196184	0.079261	0.952004
H175	H	0.721670	-0.449827	0.483173
H176	H	1.221670	0.050173	0.983173
N177	N	0.371989	-0.221771	0.238776
N178	N	0.871989	0.278229	0.738776
N179	N	0.340421	-0.185789	0.200203
N180	N	0.840421	0.314211	0.700203
H181	H	0.365907	-0.156703	0.169023
H182	H	0.865907	0.343297	0.669023
N183	N	0.890604	-0.384528	0.719980
N184	N	1.390604	0.115472	1.219980
N185	N	0.890618	-0.384511	0.783092
N186	N	1.390618	0.115489	1.283092
H187	H	0.859374	-0.413540	0.808582
H188	H	1.359374	0.086460	1.308582
H189	H	0.364675	-0.376405	0.404509
H190	H	0.864675	0.123595	0.904509
H191	H	0.592195	-0.230118	0.247722
H192	H	1.092195	0.269882	0.747722
N193	N	0.229119	-0.221783	0.238787
N194	N	0.729119	0.278217	0.738787
N195	N	0.260680	-0.185787	0.200212
N196	N	0.760680	0.314213	0.700212
H197	H	0.235189	-0.156706	0.169040
H198	H	0.735189	0.343294	0.669040
N199	N	1.065532	-0.668845	0.413680
N200	N	1.565532	-0.168845	0.913680
N201	N	1.041712	-0.705526	0.456793
N202	N	1.541712	-0.205526	0.956793
H203	H	1.072930	-0.729203	0.488049
H204	H	1.572930	-0.229203	0.988049
H205	H	1.056527	-0.542767	0.404681
H206	H	1.556527	-0.042767	0.904681
H207	H	0.899707	-0.943836	0.247544
H208	H	1.399707	-0.443836	0.747544
N209	N	0.890564	-0.536203	0.238498
N210	N	1.390564	-0.036203	0.738498
N211	N	0.851950	-0.565615	0.199824
N212	N	1.351950	-0.065615	0.699824
H213	H	0.820724	-0.541955	0.168563
H214	H	1.320724	-0.041955	0.668563
N215	N	1.065656	-0.936787	0.413732
N216	N	1.565656	-0.436787	0.913732
N217	N	1.104289	-0.966086	0.452419
N218	N	1.604289	-0.466086	0.952419
H219	H	1.135496	-0.942336	0.483672
H220	H	1.635496	-0.442336	0.983672
N221	N	1.065724	-0.221790	0.720043
N222	N	1.565724	0.278210	1.220043
N223	N	1.104391	-0.185863	0.688496
N224	N	1.604391	0.314137	1.188496
H225	H	1.135647	-0.156813	0.713999
H226	H	1.635647	0.343187	1.213999
H227	H	1.056728	-1.062870	0.404783
H228	H	1.556728	-0.562870	0.904783
H229	H	1.056778	-0.230090	0.940248
H230	H	1.556778	0.269910	1.440248
N231	N	1.065772	-0.221724	1.075825
N232	N	1.565772	0.278276	1.575825
N233	N	1.065778	-0.221713	1.138938
N234	N	1.565778	0.278287	1.638938
H235	H	1.097031	-0.192673	1.164456
H236	H	1.597031	0.307327	1.664456
N237	N	0.890649	-0.384466	1.075728
N238	N	1.390649	0.115534	1.575728
N239	N	0.851968	-0.420406	1.044148
N240	N	1.351968	0.079594	1.544148
H241	H	0.820719	-0.449441	1.069625
H242	H	1.320719	0.050559	1.569625
