data_functionalizedCrystal
_audit_creation_method	'MofGen! by Chris Wilmer'
_symmetry_space_group_name_H-M	'P1'
_symmetry_Int_Tables_number	1
_symmetry_cell_setting	triclinic
loop_
_symmetry_equiv_pos_as_xyz
  x,y,z
_cell_length_a	42.790170
_cell_length_b	42.774471
_cell_length_c	42.784963
_cell_angle_alpha	89.974895
_cell_angle_beta	120.008042
_cell_angle_gamma	60.012013
loop_
_atom_site_label
_atom_site_type_symbol
_atom_site_fract_x
_atom_site_fract_y
_atom_site_fract_z
O1	O	0.275630	0.214525	0.009299
O2	O	0.211633	0.169061	-0.009257
O3	O	0.275653	0.169028	0.054762
O4	O	0.211611	0.214557	-0.054720
O5	O	0.223681	0.221012	0.054762
O6	O	0.159662	0.221045	-0.009258
O7	O	0.223659	0.266509	0.009299
Zn8	Zn	0.183409	0.252030	0.000021
Zn9	Zn	0.251883	0.183539	0.000021
O10	O	0.159639	0.266541	-0.054720
C11	C	0.384320	0.356128	0.028193
C12	C	0.422191	0.337235	0.028459
C13	C	0.384321	0.412740	0.028196
C14	C	0.422193	0.393761	0.028462
C15	C	0.440906	0.356141	0.028196
C16	C	0.365692	0.393748	0.028459
C17	C	0.282409	0.321543	0.017937
C18	C	0.261574	0.303722	0.015038
C19	C	0.279454	0.266444	0.013582
C20	C	0.256861	0.247122	0.010431
C21	C	0.318172	0.246987	0.015029
C22	C	0.339007	0.264806	0.017934
C23	C	0.321124	0.302086	0.019388
C24	C	0.567111	0.264478	0.017949
C25	C	0.602856	0.246544	0.015052
C26	C	0.620787	0.265891	0.013597
C27	C	0.659539	0.246452	0.010451
C28	C	0.602974	0.303175	0.015045
C29	C	0.567235	0.321105	0.017948
C30	C	0.549304	0.301753	0.019398
C31	C	0.282416	0.549242	0.017948
C32	C	0.261580	0.587902	0.015046
C33	C	0.279461	0.607301	0.013593
C34	C	0.256870	0.649218	0.010444
C35	C	0.318176	0.588040	0.015039
C36	C	0.339009	0.549382	0.017939
C37	C	0.321128	0.529985	0.019397
C38	C	0.343717	0.321407	0.022534
C39	C	0.361726	0.336808	0.025044
C40	C	0.361730	0.454656	0.025049
C41	C	0.343722	0.488067	0.022542
C42	C	0.479658	0.336699	0.025050
C43	C	0.510549	0.321200	0.022543
C44	C	0.050993	0.022817	-0.028120
C45	C	0.013123	0.041796	-0.028383
C46	C	0.050990	0.079431	-0.028124
C47	C	0.013120	0.098323	-0.028387
C48	C	-0.005592	0.079416	-0.028120
C49	C	0.069619	0.041811	-0.028387
C50	C	0.152901	-0.113686	-0.017869
C51	C	0.173735	-0.152344	-0.014970
C52	C	0.155857	-0.171744	-0.013512
C53	C	0.178450	-0.213663	-0.010362
C54	C	0.117140	-0.152483	-0.014958
C55	C	0.096306	-0.113826	-0.017862
C56	C	0.114187	-0.094428	-0.019317
C57	C	-0.131790	0.113945	-0.017864
C58	C	-0.167534	0.131753	-0.014964
C59	C	-0.185464	0.169031	-0.013509
C60	C	-0.224214	0.188340	-0.010360
C61	C	-0.167652	0.188502	-0.014958
C62	C	-0.131915	0.170698	-0.017864
C63	C	-0.113985	0.133415	-0.019314
C64	C	0.152891	0.114021	-0.017883
C65	C	0.173726	0.131842	-0.014983
C66	C	0.155845	0.169122	-0.013529
C67	C	0.178435	0.188446	-0.010382
C68	C	0.117132	0.188576	-0.014972
C69	C	0.096300	0.170754	-0.017871
C70	C	0.114181	0.133476	-0.019330
C71	C	0.091594	-0.052511	-0.022463
C72	C	0.073586	-0.019099	-0.024971
C73	C	0.073580	0.098753	-0.024979
C74	C	0.091587	0.114155	-0.022473
C75	C	-0.044342	0.098722	-0.024971
C76	C	-0.075231	0.114111	-0.022462
C77	C	0.384194	0.079263	0.305080
C78	C	0.365575	0.098146	0.324067
C79	C	0.440804	0.022620	0.361691
C80	C	0.422099	0.041589	0.380592
C81	C	0.384220	0.079220	0.361691
C82	C	0.422073	0.041632	0.324067
C83	C	0.339334	0.113927	0.168560
C84	C	0.318610	0.131770	0.129900
C85	C	0.279882	0.169061	0.110506
C86	C	0.257404	0.188407	0.068585
C87	C	0.261881	0.188507	0.129776
C88	C	0.282609	0.170665	0.168435
C89	C	0.321337	0.133373	0.187827
C90	C	0.282336	0.170872	0.396259
C91	C	0.261512	0.188798	0.414077
C92	C	0.279406	0.169431	0.451359
C93	C	0.256828	0.188862	0.470680
C94	C	0.318131	0.132136	0.470824
C95	C	0.338959	0.114213	0.453009
C96	C	0.321055	0.133585	0.415722
C97	C	0.567025	-0.113897	0.396258
C98	C	0.602774	-0.152565	0.414074
C99	C	0.620722	-0.171983	0.451357
C100	C	0.659482	-0.213910	0.470676
C101	C	0.602916	-0.152733	0.470821
C102	C	0.567166	-0.114067	0.453003
C103	C	0.549226	-0.094650	0.415721
C104	C	0.343807	0.114028	0.229747
C105	C	0.361720	0.098608	0.263161
C106	C	0.479564	-0.019305	0.381008
C107	C	0.510462	-0.052724	0.396406
C108	C	0.361639	0.098654	0.381008
C109	C	0.343639	0.114146	0.396407
O110	O	0.763133	0.168895	0.054786
O111	O	0.672191	0.214417	-0.054697
O112	O	0.672225	0.214370	0.009319
O113	O	0.763100	0.168942	-0.009230
O114	O	0.672226	0.266366	0.009322
O115	O	0.672192	0.266413	-0.054694
O116	O	0.763134	0.220891	0.054788
Zn117	Zn	0.717663	0.251908	0.000047
Zn118	Zn	0.717662	0.183400	0.000044
O119	O	0.763101	0.220938	-0.009227
O120	O	0.275670	0.708474	0.054787
O121	O	0.211627	0.727091	-0.054696
O122	O	0.275644	0.663044	0.009320
O123	O	0.211653	0.772520	-0.009229
O124	O	0.223670	0.663033	0.009318
O125	O	0.159654	0.727080	-0.054699
O126	O	0.223696	0.708463	0.054784
Zn127	Zn	0.183423	0.717770	0.000042
Zn128	Zn	0.251900	0.717784	0.000046
O129	O	0.159679	0.772509	-0.009232
O130	O	0.763061	-0.337204	0.496740
O131	O	0.672162	-0.227713	0.451283
O132	O	0.672153	-0.291723	0.451271
O133	O	0.763070	-0.273194	0.496752
O134	O	0.672178	-0.291764	0.503268
O135	O	0.672187	-0.227754	0.503279
O136	O	0.763086	-0.337245	0.548737
Zn137	Zn	0.717641	-0.282506	0.534264
Zn138	Zn	0.717608	-0.282452	0.465756
O139	O	0.763096	-0.273235	0.548748
C140	C	0.440731	0.356136	-0.305026
C141	C	0.422007	0.337243	-0.324015
C142	C	0.384116	0.412775	-0.361640
C143	C	0.365478	0.393796	-0.380543
C144	C	0.384116	0.356162	-0.361641
C145	C	0.422007	0.393770	-0.324014
C146	C	0.567014	0.321499	-0.168500
C147	C	0.602781	0.303661	-0.129837
C148	C	0.620722	0.266367	-0.110442
C149	C	0.659498	0.247026	-0.068519
C150	C	0.602897	0.246911	-0.129714
C151	C	0.567137	0.264747	-0.168375
C152	C	0.549195	0.302043	-0.187768
C153	C	0.339301	0.264475	-0.396215
C154	C	0.318585	0.246538	-0.414035
C155	C	0.279845	0.265898	-0.451320
C156	C	0.257377	0.246456	-0.470643
C157	C	0.261824	0.303197	-0.470785
C158	C	0.282543	0.321131	-0.452968
C159	C	0.321284	0.301765	-0.415679
C160	C	0.339299	0.549309	-0.396209
C161	C	0.318579	0.587980	-0.414026
C162	C	0.279839	0.607392	-0.451312
C163	C	0.257370	0.649321	-0.470632
C164	C	0.261818	0.588132	-0.470777
C165	C	0.282538	0.549463	-0.452958
C166	C	0.321282	0.530054	-0.415674
C167	C	0.510416	0.321382	-0.229689
C168	C	0.479507	0.336797	-0.263105
C169	C	0.361650	0.454703	-0.380958
C170	C	0.343744	0.488124	-0.396357
C171	C	0.361651	0.336717	-0.380961
C172	C	0.343745	0.321216	-0.396361
O173	O	0.211646	0.214350	0.548740
O174	O	0.275613	0.168932	0.503282
O175	O	0.211620	0.168923	0.503270
O176	O	0.275639	0.214359	0.548751
O177	O	0.159627	0.220946	0.451274
O178	O	0.223619	0.220956	0.451285
O179	O	0.159653	0.266373	0.496743
Zn180	Zn	0.183381	0.251924	0.465759
Zn181	Zn	0.251884	0.183381	0.534266
O182	O	0.223645	0.266383	0.496755
C183	C	-0.005540	0.412942	-0.361658
C184	C	0.013164	0.393974	-0.380560
C185	C	0.051075	0.356301	-0.305045
C186	C	0.069693	0.337419	-0.324034
C187	C	0.051044	0.356344	-0.361659
C188	C	0.013195	0.393931	-0.324033
C189	C	-0.131766	0.549456	-0.396225
C190	C	-0.167521	0.588122	-0.414043
C191	C	-0.185472	0.607540	-0.451328
C192	C	-0.224235	0.649465	-0.470648
C193	C	-0.167668	0.588289	-0.470795
C194	C	-0.131920	0.549625	-0.452978
C195	C	-0.113969	0.530209	-0.415692
C196	C	0.095791	0.321855	-0.453363
C197	C	0.116487	0.304055	-0.471309
C198	C	0.155217	0.266768	-0.451966
C199	C	0.177664	0.247467	-0.471417
C200	C	0.173248	0.247279	-0.414676
C201	C	0.152548	0.265076	-0.396734
C202	C	0.113818	0.302368	-0.416082
C203	C	0.095948	0.321640	-0.168521
C204	C	0.116679	0.303798	-0.129858
C205	C	0.155409	0.266509	-0.110464
C206	C	0.177890	0.247163	-0.068542
C207	C	0.173408	0.247065	-0.129733
C208	C	0.152677	0.264908	-0.168395
C209	C	0.113943	0.302195	-0.187788
C210	C	-0.075202	0.488284	-0.396374
C211	C	-0.044303	0.454866	-0.380976
C212	C	0.073553	0.336957	-0.263125
C213	C	0.091469	0.321538	-0.229710
C214	C	0.073488	0.337047	-0.381114
C215	C	0.091377	0.321664	-0.396622
C216	C	1.051209	0.022524	0.361730
C217	C	1.069848	0.041502	0.380635
C218	C	0.994594	0.079165	0.305117
C219	C	1.013319	0.098056	0.324108
C220	C	1.051210	0.079135	0.361734
C221	C	1.013318	0.041531	0.324104
C222	C	1.096021	-0.114009	0.396295
C223	C	1.116737	-0.152678	0.414112
C224	C	1.155477	-0.172091	0.451398
C225	C	1.177945	-0.214021	0.470717
C226	C	1.173498	-0.152832	0.470866
C227	C	1.152780	-0.114164	0.453050
C228	C	1.114039	-0.094753	0.415762
C229	C	1.153163	0.113660	0.453445
C230	C	1.174006	0.131470	0.471392
C231	C	1.156119	0.168762	0.452050
C232	C	1.178717	0.188074	0.471503
C233	C	1.117382	0.188246	0.414759
C234	C	1.096536	0.170439	0.396815
C235	C	1.114433	0.133142	0.416162
C236	C	0.868310	0.113806	0.168590
C237	C	0.832547	0.131644	0.129925
C238	C	0.814607	0.168938	0.110532
C239	C	0.775831	0.188280	0.068609
C240	C	0.832433	0.188391	0.129803
C241	C	0.868196	0.170552	0.168466
C242	C	0.886130	0.133260	0.187858
C243	C	1.091578	-0.052825	0.396445
C244	C	1.073673	-0.019404	0.381047
C245	C	0.955819	0.098505	0.263196
C246	C	0.924909	0.113921	0.229781
C247	C	1.073812	0.098444	0.381191
C248	C	1.091828	0.113835	0.396701
C249	C	0.050839	0.746128	-0.361631
C250	C	0.012959	0.746394	-0.380534
C251	C	0.050865	0.746092	-0.305020
C252	C	0.012985	0.746358	-0.324009
C253	C	-0.005746	0.746113	-0.361633
C254	C	0.069485	0.746373	-0.324006
C255	C	0.152725	0.735927	-0.396196
C256	C	0.173550	0.733046	-0.414013
C257	C	0.155651	0.731610	-0.451297
C258	C	0.178233	0.728479	-0.470616
C259	C	0.116925	0.733059	-0.470764
C260	C	0.096101	0.735945	-0.452948
C261	C	0.114003	0.737379	-0.415662
C262	C	-0.131998	0.735888	-0.453337
C263	C	-0.167752	0.732992	-0.471283
C264	C	-0.185674	0.731519	-0.451940
C265	C	-0.224436	0.728373	-0.471392
C266	C	-0.167841	0.732946	-0.414651
C267	C	-0.132094	0.735849	-0.396709
C268	C	-0.114172	0.737317	-0.416056
C269	C	0.152830	0.735782	-0.168497
C270	C	0.173684	0.732860	-0.129834
C271	C	0.155812	0.731388	-0.110441
C272	C	0.178422	0.728218	-0.068519
C273	C	0.117089	0.732835	-0.129711
C274	C	0.096239	0.735755	-0.168372
C275	C	0.114111	0.737232	-0.187764
C276	C	0.091421	0.740505	-0.396346
C277	C	0.073421	0.742998	-0.380948
C278	C	0.073475	0.742923	-0.263100
C279	C	0.091498	0.740399	-0.229685
C280	C	-0.044508	0.742967	-0.381088
C281	C	-0.075407	0.740461	-0.396597
O282	O	0.211626	0.772630	-0.496705
O283	O	0.275638	0.663134	-0.451239
O284	O	0.211652	0.727133	-0.451241
O285	O	0.275612	0.708631	-0.496703
O286	O	0.159653	0.727156	-0.503240
O287	O	0.223639	0.663157	-0.503238
O288	O	0.159628	0.772653	-0.548704
Zn289	Zn	0.183377	0.717909	-0.534227
Zn290	Zn	0.251888	0.717878	-0.465716
O291	O	0.223614	0.708654	-0.548702
C292	C	0.440827	0.689439	0.361722
C293	C	0.422120	0.689160	0.380622
C294	C	0.384214	0.689462	0.305108
C295	C	0.365593	0.689183	0.324094
C296	C	0.384239	0.689428	0.361719
C297	C	0.422095	0.689193	0.324097
C298	C	0.567058	0.699691	0.396297
C299	C	0.602814	0.702585	0.414118
C300	C	0.620762	0.704021	0.451402
C301	C	0.659526	0.707166	0.470723
C302	C	0.602954	0.702560	0.470866
C303	C	0.567205	0.699661	0.453047
C304	C	0.549257	0.698226	0.415761
C305	C	0.339480	0.699614	0.453414
C306	C	0.318780	0.702497	0.471357
C307	C	0.280049	0.703958	0.452012
C308	C	0.257599	0.707090	0.471461
C309	C	0.262022	0.702530	0.414723
C310	C	0.282725	0.699641	0.396784
C311	C	0.321456	0.698185	0.416134
C312	C	0.339354	0.699785	0.168588
C313	C	0.318626	0.702707	0.129925
C314	C	0.279895	0.704166	0.110529
C315	C	0.257417	0.707336	0.068607
C316	C	0.261893	0.702706	0.129796
C317	C	0.282621	0.699786	0.168458
C318	C	0.321355	0.698322	0.187852
C319	C	0.510490	0.695087	0.396442
C320	C	0.479590	0.692582	0.381042
C321	C	0.361740	0.692631	0.263188
C322	C	0.343826	0.695155	0.229773
C323	C	0.361792	0.692560	0.381171
C324	C	0.343900	0.695055	0.396677
H325	H	-0.002541	0.129234	-0.028813
O326	O	0.376652	0.530618	0.019401
C327	C	0.453844	0.478329	0.055591
C328	C	0.411243	0.499538	0.053982
H329	H	0.481825	0.453201	0.083551
H330	H	0.448226	0.467262	0.030387
H331	H	0.463026	0.498845	0.054037
H332	H	0.402038	0.479045	0.055548
H333	H	0.416885	0.510612	0.079183
O334	O	0.223888	0.225017	0.395108
C335	C	0.169935	0.279332	0.336949
C336	C	0.212542	0.238313	0.358385
H337	H	0.160754	0.290097	0.307257
H338	H	0.141942	0.279385	0.334072
H339	H	0.175585	0.298892	0.353663
H340	H	0.206935	0.218729	0.341689
H341	H	0.240520	0.238290	0.361266
O342	O	1.058864	0.189377	0.360622
C343	C	0.981680	0.214283	0.319592
C344	C	1.024310	0.192837	0.360601
H345	H	0.953734	0.217080	0.319560
H346	H	0.972437	0.244010	0.308841
H347	H	0.987320	0.197609	0.300009
H348	H	1.018703	0.209479	0.380213
H349	H	1.033539	0.163108	0.371321
O350	O	0.329171	0.135010	0.305852
C351	C	0.253053	0.178944	0.252235
C352	C	0.294242	0.137180	0.272823
H353	H	0.224806	0.180713	0.225524
H354	H	0.242881	0.189236	0.272266
H355	H	0.260994	0.197809	0.243662
H356	H	0.286335	0.118286	0.281399
H357	H	0.304404	0.126918	0.252780
O358	O	0.620317	0.322028	0.013588
C359	C	0.607168	0.377044	-0.020223
C360	C	0.587469	0.355737	-0.018612
H361	H	0.580623	0.404297	-0.046259
H362	H	0.619695	0.384778	0.006911
H363	H	0.635784	0.357812	-0.022527
H364	H	0.558839	0.374948	-0.016322
H365	H	0.574973	0.347997	-0.045746
H366	H	0.333259	0.216171	-0.398184
O367	O	0.335479	0.210802	0.013547
C368	C	0.323971	0.169867	-0.022633
C369	C	0.304320	0.210866	-0.021007
H370	H	0.298784	0.169903	-0.050564
H371	H	0.355208	0.159010	-0.021125
H372	H	0.332460	0.150328	0.002602
H373	H	0.295804	0.230434	-0.046237
H374	H	0.273099	0.221691	-0.022496
H375	H	0.332705	0.116368	0.501182
H376	H	0.437853	0.409011	0.028886
O377	O	-0.005617	0.412185	-0.417465
C378	C	-0.070569	0.443363	-0.482540
C379	C	-0.049357	0.422768	-0.440758
H380	H	-0.105933	0.451918	-0.501386
H381	H	-0.070806	0.470081	-0.484352
H382	H	-0.050657	0.423312	-0.492819
H383	H	-0.069252	0.442789	-0.430453
H384	H	-0.049113	0.396046	-0.438971
O385	O	0.170039	0.737377	-0.359999
C386	C	0.158586	0.773546	-0.319049
C387	C	0.138923	0.771950	-0.360058
H388	H	0.133442	0.801499	-0.319085
H389	H	0.167043	0.748331	-0.299508
H390	H	0.189848	0.771998	-0.308199
H391	H	0.107649	0.773509	-0.370943
H392	H	0.130498	0.797162	-0.379574
O393	O	0.224208	0.322054	-0.507011
C394	C	0.170082	0.380152	-0.561410
C395	C	0.212692	0.358837	-0.520390
H396	H	0.160753	0.409899	-0.572236
H397	H	0.175749	0.363438	-0.580960
H398	H	0.142180	0.382908	-0.561392
H399	H	0.240614	0.356077	-0.520371
H400	H	0.206988	0.375560	-0.500857
H401	H	0.882708	0.186394	0.184155
O402	O	1.106257	0.023323	0.417499
C403	C	1.182377	0.000790	0.461384
C404	C	1.141175	0.021388	0.419624
H405	H	1.210621	-0.000789	0.463114
H406	H	1.174491	0.017300	0.480260
H407	H	1.192528	-0.029419	0.471691
H408	H	1.131002	0.051596	0.409282
H409	H	1.149083	0.004848	0.400774
O410	O	0.224228	0.704188	0.110955
C411	C	0.148599	0.737972	0.090316
C412	C	0.191219	0.736344	0.111655
H413	H	0.121903	0.763963	0.090881
H414	H	0.136840	0.740334	0.059364
H415	H	0.155515	0.710803	0.104930
H416	H	0.184339	0.763507	0.097073
H417	H	0.202966	0.733963	0.142607
O418	O	1.211643	0.112482	0.507606
C419	C	1.265600	0.054293	0.561888
C420	C	1.222979	0.075751	0.520875
H421	H	1.274774	0.024595	0.572631
H422	H	1.293588	0.051428	0.561944
H423	H	1.259974	0.070987	0.581463
H424	H	1.228563	0.059076	0.501276
H425	H	1.195006	0.078620	0.520849
O426	O	0.223957	0.322684	0.013615
C427	C	0.170031	0.380831	0.013945
C428	C	0.212629	0.359403	0.015552
H429	H	0.160864	0.410520	0.015518
H430	H	0.142027	0.383718	-0.014002
H431	H	0.175683	0.364103	0.039160
H432	H	0.207020	0.376113	-0.009644
H433	H	0.240618	0.356513	0.043515
H434	H	0.818037	0.115801	0.114237
O435	O	-0.185070	0.731546	-0.507480
C436	C	-0.201165	0.695369	-0.548489
C437	C	-0.181549	0.696964	-0.507480
H438	H	-0.198317	0.667408	-0.548501
H439	H	-0.237448	0.720574	-0.568089
H440	H	-0.182224	0.696935	-0.559233
H441	H	-0.200456	0.695386	-0.496701
H442	H	-0.145263	0.671761	-0.487905
H443	H	0.437801	0.688714	0.411538
O444	O	0.211175	0.731621	-0.395043
C445	C	0.265130	0.731927	-0.336881
C446	C	0.222522	0.733536	-0.358319
H447	H	0.274312	0.733483	-0.307188
H448	H	0.293122	0.703986	-0.334005
H449	H	0.259482	0.757152	-0.353593
H450	H	0.228127	0.708331	-0.341625
H451	H	0.194545	0.761494	-0.361198
H452	H	0.205248	0.115999	-0.013806
O453	O	0.224180	0.606933	-0.506994
C454	C	0.170091	0.602991	-0.561413
C455	C	0.212709	0.581658	-0.520397
H456	H	0.160809	0.582563	-0.572264
H457	H	0.142150	0.628122	-0.561424
H458	H	0.175783	0.614077	-0.580926
H459	H	0.207060	0.570547	-0.500860
H460	H	0.240636	0.556546	-0.520416
H461	H	0.100090	0.026573	-0.028816
H462	H	0.267758	0.186648	0.365901
H463	H	0.437723	0.026403	0.308819
O464	O	0.376893	0.245704	-0.359973
C465	C	0.412441	0.245160	-0.294829
C466	C	0.369838	0.266450	-0.335854
H467	H	0.406755	0.261928	-0.275319
H468	H	0.421770	0.215427	-0.283950
H469	H	0.440352	0.242376	-0.294855
H470	H	0.341900	0.269263	-0.335860
H471	H	0.360548	0.296170	-0.346717
O472	O	0.620173	0.703942	0.395252
C473	C	0.684645	0.674339	0.394546
C474	C	0.665040	0.672751	0.415946
H475	H	0.720925	0.649129	0.411272
H476	H	0.665710	0.672794	0.364841
H477	H	0.681818	0.702292	0.391693
H478	H	0.667863	0.644803	0.418828
H479	H	0.683979	0.674317	0.445638
H480	H	0.267869	0.351499	-0.468819
H481	H	0.997649	0.026292	0.308859
O482	O	0.058615	0.737176	-0.187038
C483	C	0.004693	0.736824	-0.182831
C484	C	0.047298	0.735220	-0.161649
H485	H	-0.004465	0.735235	-0.162311
H486	H	-0.023311	0.764778	-0.207964
H487	H	0.010333	0.711615	-0.193896
H488	H	0.041701	0.760410	-0.150560
H489	H	0.075287	0.707250	-0.136535
H490	H	0.617355	0.216189	0.013871
O491	O	1.170226	-0.095424	0.471968
C492	C	1.158973	-0.043137	0.496860
C493	C	1.139164	-0.064329	0.475438
H494	H	1.133866	-0.017988	0.499665
H495	H	1.190208	-0.063631	0.526582
H496	H	1.167504	-0.032090	0.480165
H497	H	1.130606	-0.075379	0.492101
H498	H	1.107946	-0.043821	0.445714
O499	O	0.376583	0.077994	0.471865
C500	C	0.433732	0.025259	0.469549
C501	C	0.391134	0.066283	0.448156
H502	H	0.445504	0.015775	0.450386
H503	H	0.460438	0.024555	0.496813
H504	H	0.426773	0.005065	0.477280
H505	H	0.398050	0.086501	0.440398
H506	H	0.364442	0.066956	0.420908
O507	O	0.549626	-0.095001	0.360066
C508	C	0.533337	-0.042522	0.319107
C509	C	0.553068	-0.063892	0.360113
H510	H	0.536105	-0.017361	0.319131
H511	H	0.552201	-0.062897	0.308242
H512	H	0.497065	-0.031472	0.299585
H513	H	0.589338	-0.074944	0.379665
H514	H	0.534172	-0.043502	0.370947
O515	O	0.440810	0.300366	0.028948
C516	C	0.437337	0.245877	0.029713
C517	C	0.416201	0.287631	0.029151
H518	H	0.417456	0.235566	0.029885
H519	H	0.437497	0.244128	0.003201
H520	H	0.472729	0.227014	0.056500
H521	H	0.380801	0.306519	0.002382
H522	H	0.416076	0.289349	0.055681
O523	O	1.100069	0.224465	0.396018
C524	C	1.107067	0.277073	0.398572
C525	C	1.126725	0.236052	0.419837
H526	H	1.128604	0.286457	0.417824
H527	H	1.105819	0.277829	0.371316
H528	H	1.072202	0.297315	0.390839
H529	H	1.161598	0.215786	0.427596
H530	H	1.127940	0.235327	0.447077
O531	O	0.099612	0.731639	-0.506970
C532	C	0.106591	0.727213	-0.559573
C533	C	0.126251	0.728812	-0.518566
H534	H	0.128115	0.724936	-0.568964
H535	H	0.105363	0.701190	-0.560301
H536	H	0.071718	0.754361	-0.579825
H537	H	0.161133	0.701683	-0.498290
H538	H	0.127446	0.754853	-0.517870
H539	H	0.332735	0.603838	0.013854
H540	H	0.437752	0.688782	0.308855
O541	O	0.549930	-0.095424	0.471967
C542	C	0.553809	-0.099683	0.530115
C543	C	0.573383	-0.120837	0.508687
H544	H	0.572756	-0.120223	0.559804
H545	H	0.556618	-0.074552	0.532997
H546	H	0.517535	-0.088617	0.513391
H547	H	0.609663	-0.131928	0.525393
H548	H	0.570539	-0.145950	0.505801
H549	H	0.370531	0.248962	0.019114
H550	H	-0.002539	0.026547	-0.028810
O551	O	0.885696	0.077571	0.187364
C552	C	0.882027	0.023173	0.183409
C553	C	0.862298	0.064204	0.162099
H554	H	0.863112	0.012356	0.162994
H555	H	0.918295	0.003627	0.194459
H556	H	0.879261	0.023169	0.208563
H557	H	0.865032	0.064244	0.136930
H558	H	0.826039	0.083732	0.151076
O559	O	0.170052	0.246202	-0.360497
C560	C	0.200458	0.245425	-0.295272
C561	C	0.180630	0.266844	-0.336296
H562	H	0.209025	0.262101	-0.275693
H563	H	0.175379	0.242587	-0.295204
H564	H	0.231681	0.215713	-0.284544
H565	H	0.149412	0.296567	-0.347049
H566	H	0.205738	0.269651	-0.336340
O567	O	0.099135	0.322677	-0.111175
C568	C	0.036174	0.353631	-0.108186
C569	C	0.055995	0.332247	-0.129373
H570	H	0.001290	0.361381	-0.122896
H571	H	0.057612	0.334482	-0.077225
H572	H	0.034939	0.380886	-0.108768
H573	H	0.057232	0.304992	-0.128821
H574	H	0.034551	0.351423	-0.160324
H575	H	0.817822	0.218760	0.114012
O576	O	0.170330	0.077802	-0.019277
C577	C	0.228646	0.023419	-0.019006
C578	C	0.208952	0.064431	-0.017415
H579	H	0.259870	0.012600	-0.017509
H580	H	0.237155	0.003853	0.006224
H581	H	0.203469	0.023455	-0.046942
H582	H	0.234108	0.064433	0.010505
H583	H	0.200432	0.083980	-0.042664
O584	O	0.550008	0.357301	0.019402
C585	C	0.563355	0.399074	0.053202
C586	C	0.582925	0.358067	0.051599
H587	H	0.589957	0.399705	0.079236
H588	H	0.550888	0.419308	0.026066
H589	H	0.534718	0.408564	0.055505
H590	H	0.611577	0.348542	0.049309
H591	H	0.595362	0.337858	0.078735
O592	O	-0.114538	0.189553	-0.019221
C593	C	-0.050064	0.190279	0.010432
C594	C	-0.069686	0.168883	0.012007
H595	H	-0.013801	0.173581	0.035681
H596	H	-0.052840	0.193131	-0.017492
H597	H	-0.069037	0.219986	0.011952
H598	H	-0.050728	0.139166	0.010502
H599	H	-0.066917	0.166062	0.039928
O600	O	0.170316	-0.094895	-0.019300
C601	C	0.228657	-0.098840	-0.018991
C602	C	0.208978	-0.120165	-0.017375
H603	H	0.259924	-0.119263	-0.017426
H604	H	0.203519	-0.073690	-0.046938
H605	H	0.237112	-0.087782	0.006225
H606	H	0.200525	-0.131248	-0.042571
H607	H	0.234128	-0.145296	0.010588
O608	O	1.099210	-0.171385	0.395242
C609	C	1.068893	-0.206275	0.394521
C610	C	1.088726	-0.185093	0.415928
H611	H	1.060420	-0.217371	0.411242
H612	H	1.037629	-0.185770	0.364816
H613	H	1.093980	-0.231391	0.391670
H614	H	1.063673	-0.159978	0.418809
H615	H	1.119999	-0.205623	0.445621
O616	O	0.211301	-0.171052	-0.013629
C617	C	0.246864	-0.205905	-0.043246
C618	C	0.204288	-0.184722	-0.044816
H619	H	0.241211	-0.216970	-0.068453
H620	H	0.256071	-0.185411	-0.044807
H621	H	0.274843	-0.231043	-0.015293
H622	H	0.176280	-0.159585	-0.072764
H623	H	0.195119	-0.205242	-0.043234
O624	O	0.170207	0.245958	-0.187061
C625	C	0.228673	0.187810	-0.182854
C626	C	0.208862	0.209224	-0.161672
H627	H	0.259934	0.158110	-0.162334
H628	H	0.203599	0.184950	-0.207986
H629	H	0.237167	0.204532	-0.193920
H630	H	0.200368	0.192521	-0.150581
H631	H	0.233947	0.212089	-0.136559
O632	O	1.058382	-0.095208	0.360080
C633	C	1.004285	-0.099142	0.305661
C634	C	1.046905	-0.120479	0.346675
H635	H	0.994998	-0.119566	0.294808
H636	H	0.976347	-0.074011	0.305654
H637	H	1.009975	-0.088055	0.286147
H638	H	1.041258	-0.131591	0.366213
H639	H	1.074829	-0.145591	0.346652
O640	O	-0.114592	0.737374	-0.472111
C641	C	-0.098385	0.773593	-0.496834
C642	C	-0.118103	0.771957	-0.475565
H643	H	-0.101225	0.801554	-0.499641
H644	H	-0.062099	0.748388	-0.480078
H645	H	-0.117263	0.772058	-0.526558
H646	H	-0.099259	0.773503	-0.445841
H647	H	-0.154392	0.797159	-0.492350
O648	O	0.265110	0.530701	-0.471848
C649	C	0.276354	0.478440	-0.496778
C650	C	0.296148	0.499648	-0.475373
H651	H	0.301435	0.453335	-0.499642
H652	H	0.267856	0.467341	-0.480086
H653	H	0.245098	0.498967	-0.526479
H654	H	0.327416	0.479145	-0.445672
H655	H	0.304614	0.510754	-0.492094
H656	H	0.552628	0.248903	-0.184064
H657	H	-0.182256	0.218857	-0.013779
O658	O	0.099773	0.731417	-0.110821
C659	C	0.106824	0.726883	-0.051202
C660	C	0.126474	0.728495	-0.072549
H661	H	0.128408	0.724512	-0.020253
H662	H	0.071968	0.754037	-0.065792
H663	H	0.105564	0.700876	-0.051753
H664	H	0.127764	0.754485	-0.072004
H665	H	0.161319	0.701323	-0.057953
H666	H	0.997644	0.128979	0.308865
H667	H	0.204946	0.216701	-0.113940
H668	H	0.167386	0.736983	-0.184284
O669	O	0.058500	0.737330	-0.471904
C670	C	0.004523	0.737058	-0.530078
C671	C	0.047112	0.735479	-0.508652
H672	H	-0.004703	0.735571	-0.559796
H673	H	0.010159	0.711817	-0.513406
H674	H	-0.023437	0.764987	-0.532902
H675	H	0.075092	0.707567	-0.505823
H676	H	0.041439	0.760740	-0.525333
O677	O	-0.005646	0.746864	-0.305774
C678	C	-0.002114	0.747544	-0.247796
C679	C	0.019024	0.746982	-0.268402
H680	H	0.017828	0.747631	-0.217574
H681	H	-0.037490	0.774344	-0.264296
H682	H	-0.002313	0.721042	-0.246255
H683	H	0.019255	0.773465	-0.269948
H684	H	0.054389	0.720164	-0.251894
O685	O	0.376966	0.077710	0.187345
C686	C	0.431037	0.023315	0.183386
C687	C	0.388423	0.064331	0.162067
H688	H	0.440308	0.012483	0.162956
H689	H	0.458986	0.023299	0.208526
H690	H	0.425345	0.003788	0.194456
H691	H	0.394072	0.083881	0.150972
H692	H	0.360489	0.064317	0.136946
O693	O	0.265291	0.698223	0.360576
C694	C	0.272031	0.693793	0.307841
C695	C	0.291826	0.695391	0.348849
H696	H	0.293471	0.691512	0.298344
H697	H	0.270798	0.667772	0.307172
H698	H	0.237148	0.720943	0.287637
H699	H	0.326717	0.668260	0.369077
H700	H	0.293025	0.721430	0.349487
O701	O	1.211141	-0.171750	0.507075
C702	C	1.268201	-0.231383	0.559684
C703	C	1.225577	-0.210008	0.518672
H704	H	1.279880	-0.262317	0.569075
H705	H	1.294944	-0.230878	0.560419
H706	H	1.261316	-0.216768	0.579930
H707	H	1.232419	-0.224607	0.498401
H708	H	1.198848	-0.210511	0.517968
H709	H	-0.002461	0.409161	-0.308789
O710	O	-0.005667	0.746888	-0.417403
C711	C	-0.002197	0.747656	-0.471880
C712	C	0.018940	0.747099	-0.430128
H713	H	0.017683	0.747835	-0.482183
H714	H	-0.002358	0.721137	-0.473628
H715	H	-0.037589	0.774439	-0.490747
H716	H	0.054341	0.720333	-0.411236
H717	H	0.019066	0.773635	-0.428410
H718	H	0.617290	0.319504	-0.114149
O719	O	0.620023	-0.171203	0.395116
C720	C	0.616085	-0.166965	0.336938
C721	C	0.596517	-0.145809	0.358369
H722	H	0.597083	-0.146445	0.307221
H723	H	0.652353	-0.178019	0.353608
H724	H	0.613289	-0.192106	0.334113
H725	H	0.599282	-0.120653	0.361199
H726	H	0.560258	-0.134782	0.341690
H727	H	1.167737	0.083293	0.469201
H728	H	0.371016	0.698426	0.469173
H729	H	-0.117428	0.533953	-0.468830
O730	O	0.058685	0.189713	-0.019289
C731	C	0.004761	0.247859	-0.018955
C732	C	0.047356	0.226434	-0.017354
H733	H	-0.004406	0.277548	-0.017383
H734	H	-0.023244	0.250744	-0.046900
H735	H	0.010419	0.231130	0.006263
H736	H	0.041741	0.243144	-0.042553
H737	H	0.075347	0.223544	0.010606
O738	O	0.105893	0.746811	-0.305777
C739	C	0.182000	0.714571	-0.252134
C740	C	0.140805	0.714023	-0.272746
H741	H	0.210233	0.688069	-0.225420
H742	H	0.192195	0.714700	-0.272149
H743	H	0.174055	0.741370	-0.243561
H744	H	0.148715	0.687228	-0.281321
H745	H	0.130621	0.713914	-0.252719
O746	O	0.058159	0.358072	-0.472219
C747	C	0.004059	0.412515	-0.530276
C748	C	0.046671	0.371499	-0.508973
H749	H	-0.005238	0.423386	-0.559992
H750	H	-0.023880	0.412516	-0.533090
H751	H	0.009766	0.432020	-0.513502
H752	H	0.041006	0.351971	-0.525728
H753	H	0.074595	0.371529	-0.506154
H754	H	0.333460	0.703660	0.501717
H755	H	0.102585	-0.168281	-0.013773
O756	O	0.336182	0.704104	0.111271
C757	C	0.394630	0.703813	0.115474
C758	C	0.374798	0.702221	0.136646
H759	H	0.425849	0.702300	0.135978
H760	H	0.403181	0.678591	0.104433
H761	H	0.369520	0.731757	0.090324
H762	H	0.399887	0.674294	0.161811
H763	H	0.366237	0.727463	0.147659
H764	H	0.617529	-0.168547	0.501179
O765	O	0.329065	0.411996	-0.417406
C766	C	0.252970	0.434473	-0.461320
C767	C	0.294164	0.413872	-0.419556
H768	H	0.224744	0.435990	-0.463073
H769	H	0.242758	0.464702	-0.471650
H770	H	0.260924	0.417953	-0.480163
H771	H	0.286243	0.430361	-0.400684
H772	H	0.304365	0.383642	-0.409257
H773	H	0.205216	0.731677	-0.114146
O774	O	-0.185290	0.731497	-0.395909
C775	C	-0.240422	0.727033	-0.398460
C776	C	-0.220699	0.728664	-0.419726
H777	H	-0.269059	0.724750	-0.417710
H778	H	-0.213899	0.701001	-0.371203
H779	H	-0.252928	0.754171	-0.390730
H780	H	-0.208196	0.701545	-0.427483
H781	H	-0.247236	0.754714	-0.446967
H782	H	0.101804	0.319925	-0.501669
O783	O	0.440747	0.300359	-0.305769
C784	C	0.499484	0.245841	-0.247808
C785	C	0.478302	0.287612	-0.268420
H786	H	0.529856	0.235520	-0.217610
H787	H	0.474580	0.244062	-0.246214
H788	H	0.509711	0.227007	-0.264354
H789	H	0.468075	0.306472	-0.251891
H790	H	0.503219	0.289361	-0.270018
O791	O	-0.114813	0.737214	-0.360482
C792	C	-0.118688	0.736884	-0.306212
C793	C	-0.138296	0.735328	-0.347235
H794	H	-0.137672	0.735368	-0.295493
H795	H	-0.082422	0.711649	-0.286607
H796	H	-0.121474	0.764817	-0.306178
H797	H	-0.135542	0.707411	-0.347307
H798	H	-0.174554	0.760583	-0.366823
O799	O	0.058715	-0.095180	-0.019242
C800	C	0.004769	-0.099391	-0.018942
C801	C	0.047346	-0.120556	-0.017368
H802	H	-0.004441	-0.119897	-0.017435
H803	H	0.010411	-0.088366	0.006291
H804	H	-0.023205	-0.074230	-0.046875
H805	H	0.075340	-0.145733	0.010549
H806	H	0.041667	-0.131553	-0.042620
H807	H	0.100175	0.306501	-0.308788
H808	H	0.230350	0.218869	0.113983
H809	H	0.335217	0.408984	0.028881
H810	H	0.064405	0.351999	-0.184311
H811	H	-0.117195	0.083591	-0.019047
H812	H	0.204780	0.216916	-0.398929
O813	O	-0.114398	0.530649	-0.360012
C814	C	-0.118010	0.534568	-0.305598
C815	C	-0.137730	0.555912	-0.346609
H816	H	-0.136860	0.554986	-0.294746
H817	H	-0.120818	0.509431	-0.305594
H818	H	-0.081728	0.523490	-0.286080
H819	H	-0.174018	0.567015	-0.366150
H820	H	-0.134889	0.581030	-0.346583
O821	O	0.329243	0.688659	0.305859
C822	C	0.275494	0.687954	0.247883
C823	C	0.316663	0.688541	0.268489
H824	H	0.265304	0.687867	0.217663
H825	H	0.283418	0.661145	0.264386
H826	H	0.247260	0.714447	0.246338
H827	H	0.344915	0.662066	0.270038
H828	H	0.308702	0.715367	0.251978
O829	O	0.440774	0.411883	-0.305781
C830	C	0.499493	0.407622	-0.247810
C831	C	0.478287	0.387063	-0.268411
H832	H	0.529821	0.387566	-0.217589
H833	H	0.509777	0.416213	-0.264316
H834	H	0.474555	0.434322	-0.246266
H835	H	0.503202	0.360350	-0.269959
H836	H	0.467994	0.378501	-0.251897
O837	O	0.336156	0.606624	-0.395072
C838	C	0.394637	0.602394	-0.336901
C839	C	0.374780	0.581233	-0.358325
H840	H	0.425862	0.581877	-0.307184
H841	H	0.403182	0.613449	-0.353576
H842	H	0.369544	0.627535	-0.334076
H843	H	0.399851	0.556077	-0.361155
H844	H	0.366224	0.570207	-0.341641
H845	H	0.230056	0.603582	0.013866
H846	H	0.370845	0.533508	-0.365850
O847	O	-0.184785	0.112787	-0.013566
C848	C	-0.180951	0.054649	-0.013952
C849	C	-0.161354	0.076075	-0.015515
H850	H	-0.162022	0.024966	-0.015535
H851	H	-0.178140	0.051748	0.013985
H852	H	-0.217228	0.071385	-0.039180
H853	H	-0.125072	0.059357	0.009693
H854	H	-0.164200	0.078980	-0.043468
H855	H	0.370895	0.698590	0.184378
H856	H	0.552449	0.698522	0.365939
H857	H	-0.182014	0.603793	-0.398191
H858	H	0.230489	0.703715	0.398974
O859	O	-0.185064	0.607089	-0.507018
C860	C	-0.181421	0.603181	-0.561417
C861	C	-0.161685	0.581842	-0.520398
H862	H	-0.162521	0.582781	-0.572244
H863	H	-0.217693	0.614237	-0.580968
H864	H	-0.178639	0.628334	-0.561396
H865	H	-0.164435	0.556674	-0.520382
H866	H	-0.125421	0.570814	-0.500864
O867	O	0.620348	0.703932	0.507089
C868	C	0.616700	0.703622	0.561485
C869	C	0.596967	0.702055	0.520466
H870	H	0.597798	0.702114	0.572310
H871	H	0.652972	0.678388	0.581037
H872	H	0.613920	0.731556	0.561465
H873	H	0.599715	0.674138	0.520450
H874	H	0.560703	0.727309	0.500931
O875	O	0.549943	0.698172	0.471962
C876	C	0.533815	0.661991	0.496849
C877	C	0.553388	0.663622	0.475432
H878	H	0.536585	0.634063	0.499655
H879	H	0.552785	0.663489	0.526571
H880	H	0.497552	0.687231	0.480150
H881	H	0.589649	0.638385	0.492099
H882	H	0.534385	0.662142	0.445709
H883	H	0.267851	0.533452	0.019130
H884	H	0.102573	0.218932	-0.013788
H885	H	0.552516	0.248717	0.019132
O886	O	0.265114	0.357734	0.019408
C887	C	0.276603	0.398661	0.055611
C888	C	0.296246	0.357659	0.053991
H889	H	0.301760	0.398612	0.083572
H890	H	0.268143	0.418219	0.030408
H891	H	0.245345	0.409502	0.054061
H892	H	0.327515	0.346783	0.055552
H893	H	0.304674	0.338127	0.079191
O894	O	0.440851	0.023323	0.417470
C895	C	0.499510	-0.034700	0.471925
C896	C	0.478337	-0.014053	0.430172
H897	H	0.529816	-0.064925	0.482205
H898	H	0.509823	-0.018230	0.490833
H899	H	0.474543	-0.036237	0.473639
H900	H	0.503281	-0.012511	0.428422
H901	H	0.468015	-0.030531	0.411283
H902	H	0.333268	0.115934	0.114213
H903	H	0.552410	0.351865	-0.184286
H904	H	0.267959	0.698599	0.184142
H905	H	0.617510	0.216546	-0.113921
O906	O	0.265055	0.189601	0.187091
C907	C	0.206616	0.247764	0.182895
C908	C	0.226444	0.226360	0.161720
H909	H	0.175401	0.277491	0.162394
H910	H	0.198061	0.231086	0.193933
H911	H	0.231731	0.250570	0.208048
H912	H	0.201350	0.223550	0.136552
H913	H	0.235010	0.243048	0.150710
