data_functionalizedCrystal
_audit_creation_method	'MofGen! by Chris Wilmer'
_symmetry_space_group_name_H-M	'P1'
_symmetry_Int_Tables_number	1
_symmetry_cell_setting	triclinic
loop_
_symmetry_equiv_pos_as_xyz
  x,y,z
_cell_length_a	15.944499
_cell_length_b	15.944551
_cell_length_c	14.750522
_cell_angle_alpha	104.194790
_cell_angle_beta	104.197809
_cell_angle_gamma	83.488174
loop_
_atom_site_label
_atom_site_type_symbol
_atom_site_fract_x
_atom_site_fract_y
_atom_site_fract_z
O1	O	0.124580	1.130747	0.079720
O2	O	0.137941	0.886199	0.079743
O3	O	0.008983	1.015174	0.079732
O4	O	0.253538	1.001772	0.079730
O5	O	-0.023555	0.982634	-0.079922
O6	O	0.105403	0.853659	-0.079911
O7	O	0.092042	1.098207	-0.079934
Zn8	Zn	0.093557	0.970766	-0.105271
Zn9	Zn	0.136426	1.013639	0.105080
O10	O	0.221000	0.969232	-0.079924
C11	C	-0.038580	0.998356	-0.000092
C12	C	-0.131827	0.996712	-0.000085
C13	C	0.121118	0.838636	-0.000081
C14	C	0.119458	0.745392	-0.000072
C15	C	-0.423366	1.071642	-0.000097
C16	C	-0.378383	1.016646	-0.078815
C17	C	-0.467466	0.990734	-0.000095
C18	C	-0.346310	1.048707	0.078592
C19	C	-0.302556	0.993676	-0.000089
C20	C	-0.423725	0.935703	-0.078878
C21	C	-0.391643	0.967789	0.078599
C22	C	-0.346682	0.912730	-0.000138
C23	C	-0.562467	0.989041	-0.000100
C24	C	-0.207557	0.995361	-0.000091
C25	C	0.035548	0.530547	-0.000090
C26	C	0.090554	0.485564	0.078628
C27	C	0.116448	0.574664	-0.000083
C28	C	0.058493	0.453504	-0.078779
C29	C	0.113534	0.409749	-0.000098
C30	C	0.171489	0.530922	0.078699
C31	C	0.139404	0.498855	-0.078778
C32	C	0.194472	0.453893	-0.000041
C33	C	0.118125	0.669668	-0.000074
C34	C	0.111865	0.314748	-0.000101
C35	C	0.268564	0.986051	-0.000097
C36	C	0.361812	0.987695	-0.000098
C37	C	0.108865	1.145770	-0.000108
C38	C	0.110527	1.239015	-0.000111
N39	N	0.064299	0.941513	-0.248830
C40	C	0.247413	1.124531	-0.600627
C41	C	0.226898	1.104052	-0.701129
C42	C	0.124950	1.002199	-0.701103
C43	C	0.145460	1.022666	-0.600600
C44	C	0.206691	1.083834	-0.550369
C45	C	0.104738	0.981969	-0.550342
C46	C	0.125243	1.002439	-0.449847
C47	C	0.186469	1.063605	-0.399610
C48	C	0.227196	1.104303	-0.449875
C49	C	0.043503	0.920807	-0.600574
C50	C	0.002781	0.880110	-0.550317
C51	C	0.023290	0.900574	-0.449820
C52	C	0.084516	0.961741	-0.399583
C53	C	-0.017437	0.859876	-0.399555
C54	C	0.003068	0.880346	-0.299061
C55	C	0.105021	0.982210	-0.299088
N56	N	0.165677	1.042900	0.248639
H57	H	-0.456712	1.138771	-0.000179
H58	H	0.069900	0.479024	0.145178
H59	H	0.219258	0.564482	0.145321
C60	C	-0.301854	0.821933	-0.000196
N61	N	-0.268087	0.753546	-0.000247
H62	H	0.261690	0.420731	0.000002
H63	H	-0.371856	1.037304	-0.145369
C64	C	-0.055146	0.575586	0.000016
N65	N	-0.123453	0.609510	0.000100
C66	C	0.314775	1.191814	-0.545368
N67	N	0.365509	1.242490	-0.503747
H68	H	0.203162	1.080272	-0.317781
C69	C	-0.400503	0.939928	0.168516
N70	N	-0.407180	0.918953	0.236249
C71	C	-0.300865	1.113277	0.168493
N72	N	-0.266641	1.161917	0.236203
C73	C	0.172383	1.049493	-0.243829
N74	N	0.223117	1.100170	-0.202208
C75	C	-0.469060	0.871170	-0.168883
N76	N	-0.503209	0.822569	-0.236675
C77	C	0.167263	0.507726	-0.168690
N78	N	0.188239	0.514410	-0.236420
H79	H	0.010699	0.419861	-0.145326
H80	H	0.277065	1.154102	-0.408974
C81	C	0.271693	1.148835	-0.756408
N82	N	0.305427	1.182570	-0.798045
H83	H	0.075093	0.952399	-0.742014
C84	C	0.020947	0.898293	-0.711122
N85	N	0.003959	0.881335	-0.794387
C86	C	-0.064568	0.812823	-0.605581
N87	N	-0.115293	0.762138	-0.647206
H88	H	-0.067298	0.810080	-0.440468
H89	H	-0.030091	0.847204	-0.258140
