data_functionalizedCrystal
_audit_creation_method	'MofGen! by Chris Wilmer'
_symmetry_space_group_name_H-M	'P1'
_symmetry_Int_Tables_number	1
_symmetry_cell_setting	triclinic
loop_
_symmetry_equiv_pos_as_xyz
  x,y,z
_cell_length_a	15.944551
_cell_length_b	10.723024
_cell_length_c	9.798715
_cell_angle_alpha	89.998022
_cell_angle_beta	90.000805
_cell_angle_gamma	83.983304
loop_
_atom_site_label
_atom_site_type_symbol
_atom_site_fract_x
_atom_site_fract_y
_atom_site_fract_z
O1	O	1.115445	0.160932	-0.113345
O2	O	0.871009	0.180773	-0.113379
O3	O	0.998865	-0.010795	-0.113356
O4	O	0.987588	0.352500	-0.113368
O5	O	0.998855	-0.010795	0.113626
O6	O	0.870999	0.180773	0.113604
O7	O	1.115435	0.160931	0.113637
Zn8	Zn	0.993215	0.170852	0.149659
Zn9	Zn	0.993228	0.170853	-0.149400
O10	O	0.987579	0.352500	0.113615
C11	C	0.998039	-0.057284	0.000133
C12	C	0.995584	-0.195808	0.000128
C13	C	0.839705	0.179949	0.000108
C14	C	0.746445	0.177480	0.000095
C15	C	1.067126	-0.271694	0.000136
C16	C	1.064590	-0.414865	0.000131
C17	C	0.530875	0.052834	0.000126
C18	C	0.470191	0.110716	-0.111790
C19	C	0.575693	0.173012	0.000112
C20	C	0.470204	0.110744	0.111996
C21	C	0.410756	0.168688	0.000133
C22	C	0.516238	0.230927	-0.111897
C23	C	0.516257	0.230938	0.111990
C24	C	0.455591	0.288907	0.000047
C25	C	0.670710	0.175500	0.000098
C26	C	0.315741	0.166210	0.000137
C27	C	1.146738	0.161755	0.000147
C28	C	1.239999	0.164225	0.000151
N29	N	0.993213	0.170851	0.353758
C30	C	0.988404	0.398989	0.000122
C31	C	0.990859	0.537512	0.000118
N32	N	0.993237	0.170844	-0.353500
C33	C	1.046896	0.090065	0.421545
C34	C	1.046910	0.090061	0.578707
H35	H	1.130253	-0.230669	0.000153
C36	C	0.442671	0.042057	0.239819
C37	C	0.476092	-0.096111	0.264377
C38	C	0.448563	-0.164808	0.392192
C39	C	0.387614	-0.095338	0.495450
C40	C	0.354189	0.042838	0.470895
C41	C	0.381718	0.111535	0.343080
H42	H	0.521213	-0.147544	0.187936
H43	H	0.473306	-0.267095	0.410368
H44	H	0.367235	-0.146191	0.590066
H45	H	0.309068	0.094271	0.547336
H46	H	0.356975	0.213822	0.324904
H47	H	0.423004	0.388748	-0.000019
C48	C	0.575107	-0.081920	-0.000013
C49	C	0.560354	-0.171324	-0.118574
C50	C	0.604588	-0.306073	-0.118720
C51	C	0.663574	-0.351419	-0.000306
C52	C	0.678330	-0.262014	0.118264
C53	C	0.634097	-0.127264	0.118410
H54	H	0.516686	-0.137757	-0.206239
H55	H	0.593664	-0.372257	-0.206494
H56	H	0.696319	-0.451169	-0.000414
H57	H	0.721998	-0.295581	0.205929
H58	H	0.645020	-0.061081	0.206184
H59	H	0.929611	-0.397289	0.000121
H60	H	0.536675	0.281726	0.206609
H61	H	0.449793	0.059886	-0.206404
C62	C	0.931133	0.264288	0.432527
C63	C	0.964753	0.359495	0.530785
C64	C	0.902671	0.452936	0.609549
C65	C	0.806968	0.451170	0.590055
C66	C	0.773343	0.355959	0.491792
C67	C	0.835425	0.262518	0.413028
H68	H	1.035603	0.360806	0.545219
H69	H	0.927563	0.523417	0.682289
H70	H	0.761011	0.520340	0.648361
H71	H	0.702493	0.354648	0.477358
H72	H	0.810533	0.192037	0.340288
C73	C	1.147334	-0.502945	0.000140
C74	C	1.166688	-0.596543	0.118005
C75	C	1.249436	-0.684625	0.118014
C76	C	1.312829	-0.679109	0.000158
C77	C	1.293477	-0.585508	-0.117716
C78	C	1.210730	-0.497425	-0.117725
H79	H	1.119759	-0.600629	0.205257
H80	H	1.263761	-0.753915	0.205273
H81	H	1.374084	-0.744313	0.000165
H82	H	1.340406	-0.581421	-0.204968
H83	H	1.196404	-0.428135	-0.204984
H84	H	1.092844	0.020899	0.363230
C85	C	0.543631	0.299528	-0.239871
C86	C	0.637528	0.314481	-0.263563
C87	C	0.664923	0.383073	-0.391539
C88	C	0.598422	0.436711	-0.495823
C89	C	0.504519	0.421760	-0.472134
C90	C	0.477123	0.353168	-0.344158
H91	H	0.686762	0.274774	-0.186363
H92	H	0.734437	0.394141	-0.409075
H93	H	0.618701	0.487487	-0.590559
H94	H	0.455285	0.461467	-0.549335
H95	H	0.407609	0.342100	-0.326623
H96	H	0.932457	-0.236832	0.000111
H97	H	1.092874	0.020901	0.637001
H98	H	0.947277	0.240016	0.588216
