data_functionalizedCrystal
_audit_creation_method	'MofGen! by Chris Wilmer'
_symmetry_space_group_name_H-M	'P1'
_symmetry_Int_Tables_number	1
_symmetry_cell_setting	triclinic
loop_
_symmetry_equiv_pos_as_xyz
  x,y,z
_cell_length_a	12.759401
_cell_length_b	18.215405
_cell_length_c	12.759393
_cell_angle_alpha	89.962431
_cell_angle_beta	89.980387
_cell_angle_gamma	90.025116
loop_
_atom_site_label
_atom_site_type_symbol
_atom_site_fract_x
_atom_site_fract_y
_atom_site_fract_z
Zn1	Zn	1.606181	-0.292936	-0.593969
Zn2	Zn	1.606044	-0.416023	-0.418271
Zn3	Zn	1.430483	-0.292975	-0.418305
Zn4	Zn	1.430440	-0.415966	-0.593909
O5	O	1.518287	-0.354475	-0.506113
O6	O	1.753184	-0.309271	-0.570673
O7	O	1.582716	-0.399740	-0.271254
O8	O	1.453865	-0.189986	-0.441647
O9	O	1.753083	-0.399702	-0.441588
O10	O	1.582949	-0.189957	-0.570706
O11	O	1.453732	-0.309337	-0.271279
O12	O	1.283456	-0.309283	-0.441588
O13	O	1.453792	-0.399606	-0.740938
O14	O	1.283425	-0.399644	-0.570603
O15	O	1.582908	-0.309217	-0.740982
O16	O	1.582675	-0.518999	-0.441530
O17	O	1.453660	-0.518958	-0.570570
C18	C	1.245320	-0.354462	-0.506094
C19	C	1.128543	-0.354474	-0.506110
C20	C	1.073632	-0.401486	-0.438804
C21	C	0.963908	-0.401498	-0.438822
C22	C	0.964015	-0.307481	-0.573456
C23	C	1.073738	-0.307472	-0.573442
C24	C	1.073570	-0.455764	-0.361071
C25	C	0.963846	-0.455777	-0.361089
C26	C	1.518176	-0.545681	-0.506063
C27	C	1.518225	-0.627480	-0.506076
C28	C	1.585561	-0.815671	-0.439008
C29	C	1.585608	-0.892530	-0.439034
C30	C	1.451148	-0.892527	-0.573293
C31	C	1.451107	-0.815669	-0.573273
C32	C	1.518312	-0.777244	-0.506124
C33	C	1.518400	-0.930960	-0.506170
C34	C	1.518450	-1.014293	-0.506198
C35	C	1.518263	-0.693905	-0.506097
C36	C	1.792320	-0.354489	-0.506133
C37	C	1.909097	-0.354495	-0.506142
C38	C	1.518361	-0.354401	-0.780147
C39	C	1.518392	-0.354369	-0.896923
C40	C	1.518427	-0.162522	-0.506187
C41	C	1.518487	-0.080723	-0.506218
C42	C	1.585632	-0.307299	-0.951810
C43	C	1.585657	-0.307272	-1.061534
C44	C	1.451199	-0.401393	-1.061475
C45	C	1.451170	-0.401415	-0.951753
C46	C	1.663263	-0.252961	-0.951845
C47	C	1.663288	-0.252935	-1.061569
C48	C	1.518274	-0.354496	-0.233146
C49	C	1.518447	-0.354320	-0.116370
H50	H	0.929804	-0.509950	-0.390093
O51	O	1.624766	-0.181203	-1.106696
H52	H	1.604327	-0.143191	-1.041887
H53	H	0.919379	-0.269214	-0.628275
O54	O	1.113014	-0.531278	-0.389729
H55	H	1.084032	-0.546179	-0.468923
O56	O	1.118631	-0.428671	-0.258739
H57	H	1.053787	-0.414312	-0.204498
H58	H	1.396345	-0.784380	-0.627931
H59	H	1.740530	-0.273393	-0.917808
O60	O	0.923998	-0.435336	-0.253550
H61	H	0.952734	-0.475813	-0.195205
H62	H	1.396467	-0.439694	-1.106131
O63	O	1.658054	-0.774223	-0.366601
H64	H	1.704833	-0.813859	-0.319945
H65	H	1.640370	-0.923814	-0.384383
H66	H	1.744655	-0.268200	-1.091347
O67	O	1.132955	-0.256767	-0.646045
H68	H	1.182946	-0.289748	-0.699410
O69	O	1.378644	-0.933970	-0.645697
H70	H	1.389956	-0.993871	-0.634425
H71	H	1.396413	-0.439741	-0.907068
H72	H	1.641509	-0.195968	-0.922097
