data_functionalizedCrystal
_audit_creation_method	'MofGen! by Chris Wilmer'
_symmetry_space_group_name_H-M	'P1'
_symmetry_Int_Tables_number	1
_symmetry_cell_setting	triclinic
loop_
_symmetry_equiv_pos_as_xyz
  x,y,z
_cell_length_a	13.032831
_cell_length_b	21.295417
_cell_length_c	13.034356
_cell_angle_alpha	82.784908
_cell_angle_beta	74.815040
_cell_angle_gamma	82.834379
loop_
_atom_site_label
_atom_site_type_symbol
_atom_site_fract_x
_atom_site_fract_y
_atom_site_fract_z
Zn1	Zn	1.700064	-0.319122	-0.806376
Zn2	Zn	2.200064	0.180878	-0.306376
Zn3	Zn	1.677332	-0.436255	-0.628722
Zn4	Zn	2.177332	0.063745	-0.128722
Zn5	Zn	1.499869	-0.319127	-0.606258
Zn6	Zn	1.999869	0.180873	-0.106258
Zn7	Zn	1.522371	-0.412473	-0.783780
Zn8	Zn	2.022371	0.087527	-0.283780
O9	O	1.599909	-0.371744	-0.706284
O10	O	2.099909	0.128256	-0.206284
O11	O	1.845683	-0.344610	-0.801667
O12	O	2.345683	0.155390	-0.301667
O13	O	1.634860	-0.430673	-0.477100
O14	O	2.134860	0.069327	0.022900
O15	O	1.526521	-0.231040	-0.632860
O16	O	2.026521	0.268960	-0.132860
O17	O	1.828981	-0.430668	-0.671146
O18	O	2.328981	0.069332	-0.171146
O19	O	1.673604	-0.231036	-0.779885
O20	O	2.173604	0.268964	-0.279885
O21	O	1.504479	-0.344620	-0.460596
O22	O	2.004479	0.155380	0.039404
O23	O	1.354220	-0.321559	-0.610949
O24	O	1.854220	0.178441	-0.110949
O25	O	1.564874	-0.390135	-0.935419
O26	O	2.064874	0.109865	-0.435419
O27	O	1.370752	-0.390140	-0.741373
O28	O	1.870752	0.109860	-0.241373
O29	O	1.695424	-0.321550	-0.952021
O30	O	2.195424	0.178450	-0.452021
O31	O	1.656680	-0.521187	-0.649235
O32	O	2.156680	-0.021187	-0.149235
O33	O	1.542831	-0.503714	-0.763155
O34	O	2.042831	-0.003714	-0.263155
C35	C	1.323947	-0.353270	-0.671273
C36	C	1.823947	0.146730	-0.171273
C37	C	1.205893	-0.345380	-0.656320
C38	C	1.705893	0.154620	-0.156320
C39	C	1.599762	-0.535291	-0.706207
C40	C	2.099762	-0.035291	-0.206207
C41	C	1.599801	-0.605260	-0.706223
C42	C	2.099801	-0.105260	-0.206223
C43	C	1.161455	-0.375862	-0.714088
C44	C	1.661455	0.124138	-0.214088
C45	C	1.039440	-0.367708	-0.698635
C46	C	1.539440	0.132292	-0.198635
C47	C	1.659152	-0.647204	-0.646982
C48	C	2.159152	-0.147204	-0.146982
C49	C	1.659204	-0.712948	-0.647012
C50	C	2.159204	-0.212948	-0.147012
C51	C	1.599887	-0.736746	-0.706269
C52	C	2.099887	-0.236746	-0.206269
C53	C	1.540533	-0.694794	-0.765523
C54	C	2.040533	-0.194794	-0.265523
C55	C	1.540491	-0.629051	-0.765500
C56	C	2.040491	-0.129051	-0.265500
N57	N	1.508000	-0.833254	-0.702579
N58	N	2.008000	-0.333254	-0.202579
N59	N	1.508043	-0.895708	-0.702595
N60	N	2.008043	-0.395708	-0.202595
C61	C	1.600013	-0.934824	-0.706345
C62	C	2.100013	-0.434824	-0.206345
N63	N	1.691939	-0.909130	-0.710058
N64	N	2.191939	-0.409130	-0.210058
N65	N	1.691894	-0.846671	-0.710036
N66	N	2.191894	-0.346671	-0.210036
C67	C	1.599927	-0.808032	-0.706302
C68	C	2.099927	-0.308032	-0.206302
C69	C	1.659426	-1.048056	-0.647134
C70	C	2.159426	-0.548056	-0.147134
C71	C	1.659482	-1.113801	-0.647172
C72	C	2.159482	-0.613801	-0.147172
C73	C	1.540800	-1.095645	-0.765677
C74	C	2.040800	-0.595645	-0.265677
C75	C	1.540755	-1.029901	-0.765646
C76	C	2.040755	-0.529901	-0.265646
C77	C	1.600066	-1.006111	-0.706368
C78	C	2.100066	-0.506111	-0.206368
C79	C	1.876949	-0.390291	-0.741433
C80	C	2.376949	0.109709	-0.241433
C81	C	1.995007	-0.398195	-0.756411
C82	C	2.495007	0.101805	-0.256411
C83	C	1.635195	-0.353189	-0.983339
C84	C	2.135195	0.146811	-0.483339
C85	C	1.650231	-0.345281	-1.101403
C86	C	2.150231	0.154719	-0.601403
C87	C	1.600088	-0.207560	-0.706388
C88	C	2.100088	0.292440	-0.206388
C89	C	1.600165	-0.137594	-0.706432
C90	C	2.100165	0.362406	-0.206432
C91	C	1.607879	-0.367522	-1.267851
C92	C	2.107879	0.132478	-0.767851
C93	C	1.592335	-0.375694	-1.145825
C94	C	2.092335	0.124306	-0.645825
C95	C	1.564822	-0.390186	-0.430315
C96	C	2.064822	0.109814	0.069685
C97	C	1.549991	-0.397930	-0.312277
C98	C	2.049991	0.102070	0.187723
H99	H	1.213743	-0.407994	-0.774989
H100	H	1.713743	0.092006	-0.274989
H101	H	1.711306	-0.313197	-1.153703
H102	H	2.211306	0.186803	-0.653703
H103	H	1.488928	-0.430017	-1.259973
H104	H	1.988928	0.069983	-0.759973
N105	N	1.476723	-0.984662	-0.829529
N106	N	1.976723	-0.484662	-0.329529
H107	H	1.422018	-0.957027	-0.780068
H108	H	1.922018	-0.457027	-0.280068
H109	H	1.526173	-0.956976	-0.884248
H110	H	2.026173	-0.456976	-0.384248
N111	N	1.476811	-1.121299	-0.829587
N112	N	1.976811	-0.621299	-0.329587
H113	H	1.502903	-1.105842	-0.907576
H114	H	2.002903	-0.605842	-0.407576
H115	H	1.485861	-1.169308	-0.820532
H116	H	1.985861	-0.669308	-0.320532
H117	H	1.668950	-0.335440	-1.320156
H118	H	2.168950	0.164560	-0.820156
H119	H	1.492238	-0.714174	-0.813773
H120	H	1.992238	-0.214174	-0.313773
H121	H	1.531268	-0.407783	-1.093525
H122	H	2.031268	0.092217	-0.593525
H123	H	1.047290	-0.430327	-0.817320
H124	H	1.547290	0.069673	-0.317320
N125	N	1.136645	-0.302817	-0.575644
N126	N	1.636645	0.197183	-0.075644
H127	H	1.059296	-0.303028	-0.576036
H128	H	1.559296	0.196972	-0.076036
H129	H	1.146295	-0.318917	-0.502185
H130	H	1.646295	0.181083	-0.002185
N131	N	1.476458	-0.583809	-0.829384
N132	N	1.976458	-0.083809	-0.329384
H133	H	1.485427	-0.538551	-0.820372
H134	H	1.985427	-0.038551	-0.320372
H135	H	1.502597	-0.591287	-0.907355
H136	H	2.002597	-0.091287	-0.407355
H137	H	0.987157	-0.335569	-0.637737
H138	H	1.487157	0.164431	-0.137737
N139	N	1.723137	-0.621544	-0.583067
N140	N	2.223137	-0.121544	-0.083067
H141	H	1.760749	-0.658095	-0.545548
H142	H	2.260749	-0.158095	-0.045548
H143	H	1.777749	-0.594621	-0.632579
H144	H	2.277749	-0.094621	-0.132579
N145	N	1.723222	-0.758198	-0.583116
N146	N	2.223222	-0.258198	-0.083116
H147	H	1.760789	-0.733150	-0.545563
H148	H	2.260789	-0.233150	-0.045563
H149	H	1.673771	-0.785914	-0.528458
H150	H	2.173771	-0.285914	-0.028458
N151	N	1.723395	-1.022389	-0.583207
N152	N	2.223395	-0.522389	-0.083207
H153	H	1.761009	-1.058939	-0.545687
H154	H	2.261009	-0.558939	-0.045687
H155	H	1.778004	-0.995459	-0.632703
H156	H	2.278004	-0.495459	-0.132703
H157	H	1.707819	-1.147951	-0.598934
H158	H	2.207819	-0.647951	-0.098934
