data_functionalizedCrystal
_audit_creation_method	'MofGen! by Chris Wilmer'
_symmetry_space_group_name_H-M	'P1'
_symmetry_Int_Tables_number	1
_symmetry_cell_setting	triclinic
loop_
_symmetry_equiv_pos_as_xyz
  x,y,z
_cell_length_a	16.109302
_cell_length_b	8.597304
_cell_length_c	14.586319
_cell_angle_alpha	82.296329
_cell_angle_beta	89.994552
_cell_angle_gamma	84.402578
loop_
_atom_site_label
_atom_site_type_symbol
_atom_site_fract_x
_atom_site_fract_y
_atom_site_fract_z
O1	O	1.104800	0.201736	-0.092213
O2	O	0.862945	0.226840	-0.094188
O3	O	0.988632	-0.014182	-0.075152
O4	O	0.979113	0.442757	-0.111249
O5	O	0.988623	-0.014185	0.077329
O6	O	0.862936	0.226836	0.058293
O7	O	1.104791	0.201732	0.060268
Cu8	Cu	0.983863	0.214284	0.073203
Cu9	Cu	0.983873	0.214288	-0.107123
O10	O	0.979104	0.442753	0.041232
C11	C	0.831958	0.225821	-0.017867
C12	C	0.739637	0.222772	-0.017623
C13	C	0.527233	0.215719	0.066043
C14	C	0.440489	0.212837	0.066267
C15	C	0.440509	0.212849	-0.099977
C16	C	0.527252	0.215719	-0.100200
C17	C	0.570611	0.217162	-0.017188
C18	C	0.397125	0.211410	-0.016741
C19	C	0.303073	0.208285	-0.016498
C20	C	0.664669	0.220284	-0.017430
C21	C	0.987605	-0.072654	0.005706
C22	C	0.984548	-0.246880	0.019463
C23	C	1.135778	0.202751	-0.016056
C24	C	1.228099	0.205800	-0.016305
C25	C	0.980131	0.501226	-0.039628
C26	C	0.983188	0.675452	-0.053392
N27	N	0.983861	0.214280	0.200035
N28	N	0.983881	0.214280	-0.233954
C29	C	1.039534	0.107591	0.443468
C30	C	1.039537	0.107588	0.539450
C31	C	0.928202	0.320973	0.522606
C32	C	0.928196	0.320968	0.426626
C33	C	0.983867	0.214279	0.387060
C34	C	0.983875	0.214280	0.579021
C35	C	0.983877	0.214277	0.683088
C36	C	0.983864	0.214280	0.282986
H37	H	0.562572	0.216891	-0.167979
H38	H	0.882861	0.407847	0.380695
O39	O	0.984693	-0.245055	-0.140407
C40	C	1.055818	-0.302703	-0.186457
H41	H	1.077678	-0.427558	-0.153068
H42	H	1.107720	-0.223068	-0.181152
C43	C	1.007021	-0.151238	-0.330037
C44	C	1.033865	-0.304593	-0.289033
H45	H	0.993482	-0.152399	-0.393311
H46	H	0.959104	-0.112395	-0.299012
H47	H	1.050278	-0.084892	-0.325607
H48	H	0.990605	-0.370931	-0.293453
H49	H	1.081775	-0.343448	-0.320061
H50	H	1.084865	0.020711	0.585375
O51	O	0.874212	0.424556	0.561189
C52	C	0.886140	0.401664	0.658000
H53	H	0.951761	0.343038	0.675730
H54	H	0.838445	0.322927	0.691471
C55	C	0.794357	0.634215	0.672813
C56	C	0.874957	0.562223	0.694588
H57	H	0.787455	0.733254	0.695384
H58	H	0.786318	0.649636	0.607589
H59	H	0.754620	0.568585	0.700707
H60	H	0.914691	0.627843	0.666685
H61	H	0.883002	0.546817	0.759808
O62	O	0.983023	-0.326693	0.106401
C63	C	0.909529	-0.403531	0.117387
H64	H	0.885167	-0.421968	0.046658
H65	H	0.860346	-0.328040	0.152482
C66	C	0.958519	-0.541891	0.264395
C67	C	0.928600	-0.564548	0.177525
H68	H	0.970281	-0.641211	0.301494
H69	H	1.008032	-0.490120	0.256996
H70	H	0.917528	-0.478977	0.293629
H71	H	0.969595	-0.627444	0.148288
H72	H	0.879094	-0.616334	0.184921
O73	O	1.093521	0.003702	0.405114
C74	C	1.078734	-0.151641	0.440895
H75	H	1.012160	-0.152394	0.467336
H76	H	1.124427	-0.197693	0.500258
C77	C	1.172556	-0.257177	0.331595
C78	C	1.090786	-0.258104	0.364064
H79	H	1.179994	-0.322852	0.284204
H80	H	1.182521	-0.152521	0.307491
H81	H	1.210624	-0.295550	0.381072
H82	H	1.052721	-0.219713	0.314590
H83	H	1.080815	-0.362757	0.388158
O84	O	0.569230	0.217029	0.146766
C85	C	0.512335	0.215172	0.220271
H86	H	0.453543	0.163475	0.199980
H87	H	0.495406	0.340696	0.235920
C88	C	0.624681	0.176910	0.331759
C89	C	0.552475	0.113402	0.306839
H90	H	0.649442	0.114141	0.385160
H91	H	0.663013	0.178167	0.282237
H92	H	0.610564	0.281512	0.344793
H93	H	0.566595	0.008810	0.293794
H94	H	0.514147	0.112125	0.356361
H95	H	0.405196	0.211676	-0.167562
O96	O	0.398334	0.211153	0.147117
C97	C	0.356461	0.073661	0.162940
H98	H	0.388418	-0.020411	0.123199
H99	H	0.288841	0.102190	0.138358
C100	C	0.319644	0.127550	0.315924
C101	C	0.358900	0.012004	0.267119
H102	H	0.321145	0.089520	0.380186
H103	H	0.347852	0.220184	0.305263
H104	H	0.263298	0.151314	0.295429
H105	H	0.415247	-0.011743	0.287606
H106	H	0.330701	-0.080636	0.277786
