data_functionalizedCrystal
_audit_creation_method	'MofGen! by Chris Wilmer'
_symmetry_space_group_name_H-M	'P1'
_symmetry_Int_Tables_number	1
_symmetry_cell_setting	triclinic
loop_
_symmetry_equiv_pos_as_xyz
  x,y,z
_cell_length_a	17.019383
_cell_length_b	17.038272
_cell_length_c	12.503552
_cell_angle_alpha	86.225932
_cell_angle_beta	97.385699
_cell_angle_gamma	87.246883
loop_
_atom_site_label
_atom_site_type_symbol
_atom_site_fract_x
_atom_site_fract_y
_atom_site_fract_z
O1	O	1.062276	0.090163	0.187481
O2	O	0.832455	0.103927	0.166247
O3	O	0.945999	-0.016763	0.176729
O4	O	0.948731	0.210852	0.176998
O5	O	0.937450	-0.007678	-0.002703
O6	O	0.823905	0.113011	-0.013185
O7	O	1.053727	0.099248	0.008049
Cu8	Cu	0.938035	0.106959	-0.018952
Cu9	Cu	0.948146	0.096215	0.193247
O10	O	0.940182	0.219937	-0.002433
C11	C	0.798629	0.108124	0.073800
C12	C	0.710575	0.107087	0.065664
C13	C	0.673860	0.101650	0.159642
C14	C	0.591123	0.100689	0.151982
C15	C	0.545103	0.105159	0.050343
C16	C	0.581823	0.110599	-0.043642
C17	C	0.664559	0.111566	-0.035981
C18	C	0.295062	0.102493	0.022317
C19	C	0.212321	0.101524	0.014663
C20	C	0.221627	0.091615	0.210288
C21	C	0.304364	0.092578	0.217940
C22	C	0.341077	0.098022	0.123955
C23	C	0.460532	0.104174	0.042510
C24	C	0.425646	0.099012	0.131789
C25	C	0.939240	-0.041335	0.086784
C26	C	0.931827	-0.128087	0.086099
C27	C	0.999885	-0.178574	0.092386
C28	C	0.992916	-0.260087	0.091752
C29	C	0.917887	-0.291111	0.084824
C30	C	0.849823	-0.240618	0.078539
C31	C	0.856794	-0.159107	0.079181
C32	C	0.893262	-0.536735	0.082563
C33	C	0.886296	-0.618252	0.081919
C34	C	1.029390	-0.637716	0.095134
C35	C	1.036353	-0.556202	0.095768
C36	C	0.968290	-0.505716	0.089490
C37	C	0.910761	-0.374430	0.084172
C38	C	0.975417	-0.422399	0.090149
C39	C	1.087552	0.095050	0.100498
C40	C	1.175606	0.096087	0.108641
C41	C	0.946942	0.244509	0.087514
C42	C	0.954355	0.331261	0.088206
N43	N	0.930930	0.114515	-0.168200
C44	C	0.965705	0.077536	-0.437423
C45	C	0.920484	0.125630	-0.388274
C46	C	0.926298	0.119444	-0.265813
C47	C	0.959893	0.083721	-0.559894
N48	N	0.955257	0.088653	0.342496
H49	H	0.423053	0.107812	-0.040245
C50	C	0.674738	0.091773	0.352237
C51	C	0.724442	0.096742	0.271369
H52	H	0.705965	0.088751	0.421213
H53	H	0.645245	0.046022	0.345457
H54	H	0.639305	0.137186	0.344894
H55	H	0.759871	0.051326	0.278707
H56	H	0.753948	0.142499	0.278153
H57	H	1.008783	0.031719	-0.387536
H58	H	0.324944	0.106921	-0.054213
H59	H	0.877404	0.171450	-0.438167
H60	H	0.561234	0.096262	0.228509
H61	H	0.341829	0.088932	0.300706
C62	C	0.199716	0.150073	0.374265
C63	C	0.181270	0.085643	0.313592
H64	H	0.174805	0.146384	0.438046
H65	H	0.181278	0.197520	0.332546
H66	H	0.255578	0.150000	0.393364
H67	H	0.125408	0.085720	0.294487
H68	H	0.199704	0.038183	0.355319
C69	C	0.763371	-0.325662	0.162385
C70	C	0.767350	-0.274720	0.070923
H71	H	0.712456	-0.346717	0.157675
H72	H	0.772040	-0.297433	0.225471
H73	H	0.802912	-0.367393	0.166026
H74	H	0.727813	-0.232986	0.067287
H75	H	0.758672	-0.302950	0.007820
C76	C	0.211428	0.111428	-0.177945
C77	C	0.161733	0.106442	-0.097068
H78	H	0.180195	0.114466	-0.246917
H79	H	0.246858	0.066022	-0.170626
H80	H	0.240924	0.157185	-0.171151
H81	H	0.132241	0.060681	-0.103858
H82	H	0.126290	0.151852	-0.104390
H83	H	0.801373	-0.118000	0.074062
H84	H	0.544346	0.114243	-0.126400
H85	H	0.463118	0.095377	0.214543
C86	C	0.647056	0.121250	-0.230116
C87	C	0.704919	0.117536	-0.139284
H88	H	0.671975	0.124933	-0.293891
H89	H	0.612016	0.166246	-0.229308
H90	H	0.617945	0.075082	-0.228756
H91	H	0.734027	0.163707	-0.140640
H92	H	0.739973	0.072535	-0.140093
H93	H	0.825195	-0.643507	0.076259
H94	H	1.048337	-0.301191	0.096870
C95	C	1.128386	-0.174734	0.196099
C96	C	1.082360	-0.144474	0.100008
H97	H	1.179302	-0.153679	0.200809
H98	H	1.133974	-0.230497	0.196608
H99	H	1.103102	-0.160535	0.256049
H100	H	1.107642	-0.158679	0.040057
H101	H	1.076775	-0.088699	0.099490
C102	C	1.164863	-0.552365	0.199472
C103	C	1.118830	-0.522106	0.103387
H104	H	1.215779	-0.531312	0.204171
H105	H	1.170449	-0.608128	0.199984
H106	H	1.139586	-0.538163	0.259427
H107	H	1.144104	-0.536314	0.043431
H108	H	1.113247	-0.466331	0.102866
C109	C	1.082245	-0.771309	0.100030
C110	C	1.104202	-0.693212	0.102051
H111	H	1.128435	-0.805569	0.104310
H112	H	1.048734	-0.777502	0.034640
H113	H	1.054685	-0.783824	0.159783
H114	H	1.131757	-0.680696	0.042293
H115	H	1.137727	-0.687016	0.167448
C116	C	0.751121	-0.525694	0.069411
C117	C	0.818446	-0.481247	0.075641
H118	H	0.704931	-0.491433	0.065128
H119	H	0.754357	-0.561051	0.132005
H120	H	0.748410	-0.554730	0.006863
H121	H	0.821160	-0.452214	0.138195
H122	H	0.815209	-0.445875	0.013041
H123	H	0.849672	-0.399698	0.078529
H124	H	1.036506	-0.397138	0.095814
