data_functionalizedCrystal
_audit_creation_method	'MofGen! by Chris Wilmer'
_symmetry_space_group_name_H-M	'P1'
_symmetry_Int_Tables_number	1
_symmetry_cell_setting	triclinic
loop_
_symmetry_equiv_pos_as_xyz
  x,y,z
_cell_length_a	8.559649
_cell_length_b	11.026607
_cell_length_c	7.681481
_cell_angle_alpha	82.996689
_cell_angle_beta	94.912730
_cell_angle_gamma	89.182341
loop_
_atom_site_label
_atom_site_type_symbol
_atom_site_fract_x
_atom_site_fract_y
_atom_site_fract_z
O1	O	2.097101	-0.027533	-0.146422
O2	O	1.649453	0.033502	-0.146426
O3	O	1.836177	-0.170212	-0.146418
O4	O	1.910377	0.176180	-0.146430
O5	O	1.859145	-0.195336	0.146441
O6	O	1.672421	0.008377	0.146433
O7	O	2.120069	-0.052658	0.146436
Zn8	Zn	1.899892	-0.026129	0.192932
Zn9	Zn	1.869630	0.006973	-0.192922
O10	O	1.933345	0.151056	0.146429
C11	C	1.602737	0.025565	0.000003
C12	C	1.429317	0.039333	0.000002
C13	C	1.833972	-0.226709	0.000009
C14	C	1.793164	-0.357619	0.000003
C15	C	1.905839	-0.441926	0.000001
C16	C	1.863665	-0.577229	-0.000006
C17	C	2.166784	-0.044721	0.000004
C18	C	2.340204	-0.058488	-0.000007
C19	C	1.935550	0.207553	-0.000002
C20	C	1.976356	0.338465	-0.000007
N21	N	1.920556	-0.048722	0.456268
N22	N	1.848976	0.029556	-0.456257
H23	H	2.033527	-0.413935	0.000013
N24	N	1.694511	-0.614273	-0.000012
H25	H	1.664030	-0.654794	-0.108577
H26	H	1.681174	-0.673386	0.108621
H27	H	2.104042	-0.633541	-0.000139
H28	H	1.665477	-0.385610	-0.000010
N29	N	2.017370	-0.154557	0.555877
H30	H	2.062950	-0.204398	0.469631
H31	H	2.105211	-0.122274	0.632342
H32	H	1.775906	0.109455	0.468543
H33	H	1.396589	-0.152776	-0.000004
N34	N	1.354652	0.164230	-0.000032
H35	H	1.237194	0.156695	-0.000052
H36	H	1.396981	0.200461	0.108537
