data_functionalizedCrystal
_audit_creation_method	'MofGen! by Chris Wilmer'
_symmetry_space_group_name_H-M	'P1'
_symmetry_Int_Tables_number	1
_symmetry_cell_setting	triclinic
loop_
_symmetry_equiv_pos_as_xyz
  x,y,z
_cell_length_a	16.992694
_cell_length_b	16.992695
_cell_length_c	8.140239
_cell_angle_alpha	89.996131
_cell_angle_beta	90.002898
_cell_angle_gamma	90.668223
loop_
_atom_site_label
_atom_site_type_symbol
_atom_site_fract_x
_atom_site_fract_y
_atom_site_fract_z
O1	O	1.050849	0.166915	-0.136409
O2	O	0.822449	0.165084	-0.136457
O3	O	0.935733	0.051800	-0.136420
O4	O	0.937564	0.280200	-0.136446
O5	O	0.935726	0.051798	0.136807
O6	O	0.822442	0.165082	0.136770
O7	O	1.050842	0.166914	0.136818
Zn8	Zn	0.936641	0.165998	0.180175
Zn9	Zn	0.936650	0.166000	-0.179814
O10	O	0.937557	0.280198	0.136781
C11	C	0.793085	0.162727	0.000150
C12	C	0.705600	0.155699	0.000132
C13	C	0.933374	0.022439	0.000192
C14	C	0.926345	-0.065046	0.000191
C15	C	0.659610	0.223517	0.000126
C16	C	0.577409	0.216908	0.000149
C17	C	0.541201	0.142480	0.000167
C18	C	0.587198	0.074657	0.000178
C19	C	0.669397	0.081267	0.000167
C20	C	0.295886	0.115086	0.000214
C21	C	0.213681	0.108481	0.000221
C22	C	0.203898	0.250732	0.000194
C23	C	0.286099	0.257336	0.000173
C24	C	0.332089	0.189512	0.000193
N25	N	0.457178	0.135723	0.000186
N26	N	0.416110	0.196270	0.000186
C27	C	0.994163	-0.111037	0.000207
C28	C	0.987554	-0.193238	0.000190
C29	C	0.913127	-0.229446	0.000168
C30	C	0.845303	-0.183449	0.000147
C31	C	0.851913	-0.101250	0.000153
C32	C	0.885732	-0.474760	0.000140
C33	C	0.879127	-0.556966	0.000140
C34	C	1.021379	-0.566749	0.000179
C35	C	1.027982	-0.484547	0.000194
C36	C	0.960159	-0.438558	0.000164
N37	N	0.906369	-0.313468	0.000156
N38	N	0.966917	-0.354537	0.000165
C39	C	1.080205	0.169270	0.000207
C40	C	1.167690	0.176299	0.000214
C41	C	0.939917	0.309559	0.000164
C42	C	0.946945	0.397044	0.000156
N43	N	0.936640	0.165996	0.425857
N44	N	0.936656	0.165996	-0.425497
H45	H	0.689084	0.284124	0.000110
H46	H	0.166444	0.305950	0.000182
O47	O	1.087338	-0.611306	0.000261
C48	C	1.229128	-0.612333	0.000174
C49	C	1.154491	-0.561779	0.000130
H50	H	1.283441	-0.572312	0.000033
H51	H	1.229648	-0.651051	0.114541
H52	H	1.229546	-0.651073	-0.114149
H53	H	1.154024	-0.522993	0.114376
H54	H	1.154001	-0.523114	-0.114313
H55	H	0.315574	0.317942	0.000139
O56	O	0.340437	0.049125	0.000154
C57	C	0.341458	-0.092666	0.000283
C58	C	0.290907	-0.018027	0.000311
H59	H	0.301434	-0.146977	0.000444
H60	H	0.380166	-0.093189	-0.114089
H61	H	0.380207	-0.093084	0.114602
H62	H	0.252111	-0.017560	-0.113931
H63	H	0.252251	-0.017533	0.114758
H64	H	0.784703	-0.212936	0.000120
H65	H	1.088589	-0.455073	0.000212
O66	O	0.532697	0.282761	0.000417
C67	C	0.434180	0.357837	0.141892
C68	C	0.484783	0.283234	0.141816
H69	H	0.395417	0.358236	0.256183
H70	H	0.474137	0.412199	0.141967
H71	H	0.395482	0.358281	0.027498
H72	H	0.523488	0.282714	0.256190
H73	H	0.444781	0.228906	0.141655
H74	H	0.184203	0.047870	0.000234
O75	O	0.551990	0.002375	-0.000095
C76	C	0.464821	-0.087624	-0.141577
C77	C	0.504655	-0.005747	-0.141485
H78	H	0.426529	-0.094211	-0.255861
H79	H	0.511780	-0.134995	-0.141677
H80	H	0.426621	-0.094260	-0.027177
H81	H	0.542851	0.000966	-0.255866
H82	H	0.457656	0.041584	-0.141299
H83	H	0.796688	-0.063804	0.000139
O84	O	0.713958	0.015308	0.000091
C85	C	0.714992	-0.126482	0.000208
C86	C	0.664434	-0.051847	0.000248
H87	H	0.674972	-0.180796	0.000370
H88	H	0.753696	-0.126999	-0.114168
H89	H	0.753744	-0.126899	0.114522
H90	H	0.625635	-0.051381	-0.113988
H91	H	0.625781	-0.051359	0.114700
O92	O	1.053492	-0.237827	-0.000006
C93	C	1.173040	-0.271358	-0.141561
C94	C	1.098402	-0.220804	-0.141524
H95	H	1.209363	-0.257625	-0.255984
H96	H	1.209459	-0.257601	-0.027278
H97	H	1.155520	-0.336323	-0.141497
H98	H	1.115852	-0.155823	-0.141646
H99	H	1.062002	-0.234628	-0.255797
O100	O	0.806764	-0.592013	0.000028
C101	C	0.666366	-0.573640	0.000049
C102	C	0.748263	-0.533847	0.000139
H103	H	0.619046	-0.526631	0.000174
H104	H	0.659678	-0.611850	-0.114326
H105	H	0.659749	-0.611908	0.114364
H106	H	0.754936	-0.495540	-0.114099
H107	H	0.754914	-0.495684	0.114590
O108	O	0.819872	-0.430062	-0.000169
C109	C	0.744791	-0.331550	-0.141692
C110	C	0.819405	-0.382139	-0.141566
H111	H	0.744397	-0.292780	-0.255982
H112	H	0.690438	-0.371518	-0.141807
H113	H	0.744328	-0.292860	-0.027297
H114	H	0.819945	-0.420836	-0.255942
H115	H	0.873725	-0.342126	-0.141366
H116	H	1.054770	-0.081563	0.000234
