data_functionalizedCrystal
_audit_creation_method	'MofGen! by Chris Wilmer'
_symmetry_space_group_name_H-M	'P1'
_symmetry_Int_Tables_number	1
_symmetry_cell_setting	triclinic
loop_
_symmetry_equiv_pos_as_xyz
  x,y,z
_cell_length_a	13.635800
_cell_length_b	13.167930
_cell_length_c	17.078405
_cell_angle_alpha	73.917832
_cell_angle_beta	80.695124
_cell_angle_gamma	74.245432
loop_
_atom_site_label
_atom_site_type_symbol
_atom_site_fract_x
_atom_site_fract_y
_atom_site_fract_z
V1	V	1.893814	-0.148644	0.258306
O2	O	1.885531	0.007389	0.242110
O3	O	1.874541	-0.294973	0.267387
O4	O	1.815573	-0.146250	0.366013
O5	O	1.944908	-0.142364	0.142801
V6	V	2.141992	-0.129994	0.243173
O7	O	2.010368	-0.189556	0.291502
O8	O	2.250537	-0.089082	0.209977
O9	O	2.049662	0.016335	0.234092
O10	O	2.208974	-0.286027	0.259368
O11	O	2.149597	-0.136274	0.358678
O12	O	2.108630	-0.132388	0.135466
V13	V	2.393814	-0.148644	0.258306
O14	O	2.385531	0.007389	0.242110
O15	O	2.374541	-0.294973	0.267387
O16	O	2.315573	-0.146250	0.366013
O17	O	2.444908	-0.142364	0.142801
V18	V	2.641992	-0.129994	0.243173
O19	O	2.510368	-0.189556	0.291502
O20	O	2.750537	-0.089082	0.209977
O21	O	2.549662	0.016335	0.234092
O22	O	2.708974	-0.286027	0.259368
O23	O	2.649597	-0.136274	0.358678
O24	O	2.608630	-0.132388	0.135466
C25	C	1.799989	-0.330649	0.266111
C26	C	1.824514	-0.450274	0.274253
C27	C	1.902210	-0.644470	0.141978
C28	C	1.925255	-0.756867	0.149625
C29	C	1.893656	-0.787470	0.297192
C30	C	1.870611	-0.675072	0.289546
C31	C	1.874888	-0.603575	0.211936
C32	C	1.851836	-0.491175	0.204290
C33	C	1.820245	-0.521780	0.351857
C34	C	1.843289	-0.634177	0.359504
C35	C	1.724769	-0.140936	0.391918
C36	C	1.701473	-0.139946	0.480040
C37	C	1.955887	0.052005	0.235366
C38	C	1.920978	0.171629	0.227229
C39	C	1.707746	-0.238024	0.540015
C40	C	1.685873	-0.237111	0.622819
C41	C	1.657721	-0.138119	0.645647
C42	C	1.651451	-0.040034	0.585665
C43	C	1.673330	-0.040948	0.502863
C44	C	2.031107	-0.137706	0.109557
C45	C	2.044023	-0.138690	0.021434
C46	C	2.107239	-0.144846	-0.474125
C47	C	2.095110	-0.143921	-0.391324
C48	C	2.177215	-0.138087	-0.354361
C49	C	2.271458	-0.133190	-0.400201
C50	C	2.283587	-0.134123	-0.482999
C51	C	2.150395	-0.134726	-0.107205
C52	C	2.138258	-0.133790	-0.024401
C53	C	1.961911	-0.144523	-0.015529
C54	C	1.974047	-0.145449	-0.098331
C55	C	2.068289	-0.140558	-0.144163
N56	N	2.164819	-0.137137	-0.269725
N57	N	2.080686	-0.141516	-0.228795
C58	C	2.224769	-0.140936	0.391918
C59	C	2.201473	-0.139946	0.480040
C60	C	2.299989	-0.330649	0.266111
C61	C	2.324514	-0.450274	0.274253
C62	C	2.455887	0.052005	0.235366
C63	C	2.420978	0.171629	0.227229
C64	C	2.531107	-0.137706	0.109557
C65	C	2.544023	-0.138690	0.021434
C66	C	2.425269	-0.511934	0.282444
C67	C	2.448325	-0.624338	0.290107
C68	C	2.370625	-0.675079	0.289573
C69	C	2.269861	-0.613410	0.281383
C70	C	2.246806	-0.501010	0.273726
C71	C	2.492716	0.233289	0.219040
C72	C	2.459930	0.345692	0.211381
C73	C	2.355406	0.396432	0.211917
C74	C	2.283664	0.334765	0.220105
C75	C	2.316450	0.222365	0.227758
C76	C	2.461911	-0.144510	-0.015523
C77	C	2.474030	-0.145422	-0.098327
C78	C	2.568263	-0.140521	-0.144170
C79	C	2.650380	-0.134697	-0.107209
C80	C	2.638259	-0.133778	-0.024408
H81	H	1.905679	-0.586255	0.078785
O82	O	1.621065	0.066731	0.610295
H83	H	1.683688	0.109811	0.588822
H84	H	2.018377	-0.147915	-0.354007
H85	H	1.947502	-0.790158	0.092658
H86	H	1.890193	-0.845702	0.360379
O87	O	1.738107	-0.344805	0.515410
H88	H	1.752262	-0.328981	0.447757
O89	O	1.692634	-0.342910	0.687499
H90	H	1.672706	-0.325658	0.748916
O91	O	2.186064	-0.668146	0.280803
H92	H	2.127040	-0.655402	0.332410
H93	H	1.907192	-0.150220	-0.128416
H94	H	2.389412	-0.766603	0.295809
H95	H	2.360322	-0.130135	-0.520317
H96	H	1.797992	-0.488472	0.408822
H97	H	2.518360	0.395886	0.204716
H98	H	1.639903	-0.137389	0.713072
O99	O	1.838682	-0.711292	0.443209
H100	H	1.859294	-0.796321	0.436775
H101	H	2.164761	-0.450813	0.267053
H102	H	1.668213	0.038921	0.454035
O103	O	2.226821	-0.127493	0.015463
H104	H	2.202545	-0.127649	0.080735
H105	H	2.328722	0.487956	0.205684
O106	O	2.385449	-0.151697	-0.138179
H107	H	2.409691	-0.151494	-0.203461
H108	H	2.040373	-0.149581	-0.504217
O109	O	2.360291	-0.149875	0.033929
H110	H	2.305244	-0.154093	-0.005688
H111	H	2.530377	-0.674533	0.296773
O112	O	2.605456	0.178576	0.218450
H113	H	2.649820	0.240352	0.211457
H114	H	2.578123	-0.141284	-0.211589
O115	O	2.360017	-0.126889	-0.360342
H116	H	2.335749	-0.127048	-0.295069
H117	H	1.885182	-0.148507	0.021796
O118	O	2.252028	-0.129420	-0.156640
H119	H	2.307074	-0.125186	-0.117028
O120	O	2.509078	-0.457222	0.283039
H121	H	2.583004	-0.519000	0.290037
O122	O	2.752012	-0.129415	-0.156664
H123	H	2.807083	-0.125205	-0.117063
H124	H	2.198558	0.376095	0.220539
O125	O	2.239069	0.155859	0.236608
H126	H	2.160882	0.210032	0.235705
O127	O	2.726830	-0.127501	0.015448
H128	H	2.791570	-0.198787	0.011317
O129	O	1.856443	-0.414054	0.120587
H130	H	1.879322	-0.461379	0.073227
