data_functionalizedCrystal
_audit_creation_method	'MofGen! by Chris Wilmer'
_symmetry_space_group_name_H-M	'P1'
_symmetry_Int_Tables_number	1
_symmetry_cell_setting	triclinic
loop_
_symmetry_equiv_pos_as_xyz
  x,y,z
_cell_length_a	17.052750
_cell_length_b	21.606444
_cell_length_c	21.606444
_cell_angle_alpha	60.001331
_cell_angle_beta	77.685742
_cell_angle_gamma	53.476807
loop_
_atom_site_label
_atom_site_type_symbol
_atom_site_fract_x
_atom_site_fract_y
_atom_site_fract_z
Zr1	Zr	0.773217	0.677464	-0.211376
O2	O	0.645047	0.806584	-0.288621
O3	O	0.812509	0.548345	-0.187700
O4	O	0.812499	0.677469	-0.316816
O5	O	0.645064	0.677456	-0.057651
O6	O	0.944587	0.677471	-0.339054
O7	O	0.645057	0.677460	-0.159504
O8	O	0.944605	0.446492	-0.108088
O9	O	0.645046	0.908435	-0.288617
O10	O	0.927841	0.601455	-0.194194
O11	O	0.829270	0.601450	-0.101587
O12	O	0.829258	0.753476	-0.253605
O13	O	0.730688	0.753471	-0.160997
Zr14	Zr	0.983892	0.677460	-0.084399
Zr15	Zr	0.983882	0.677467	-0.246843
Zr16	Zr	0.773228	0.677457	-0.048933
Zr17	Zr	0.773215	0.839904	-0.211371
Zr18	Zr	0.983895	0.515020	-0.084405
O19	O	0.944600	0.806579	-0.108076
O20	O	0.944585	0.806589	-0.339050
O21	O	0.645062	0.806574	-0.057647
O22	O	1.112062	0.548340	-0.007155
O23	O	1.112047	0.548350	-0.238129
O24	O	0.812524	0.548335	0.043274
O25	O	1.112045	0.677468	-0.238124
O26	O	0.944610	0.677456	0.021041
O27	O	0.812523	0.677453	0.043279
O28	O	1.112052	0.677464	-0.136271
O29	O	0.812496	0.908438	-0.316808
O30	O	0.944614	0.446486	0.021033
O31	O	1.112064	0.446489	-0.007158
O32	O	1.112055	0.446495	-0.136279
O33	O	0.645054	0.908430	-0.159496
O34	O	0.812504	0.908432	-0.187687
O35	O	0.927851	0.601448	-0.042171
O36	O	1.026422	0.601453	-0.134778
O37	O	0.927839	0.753475	-0.194189
O38	O	0.829268	0.753470	-0.101581
C39	C	0.878557	0.474274	-0.147895
C40	C	0.878558	0.405314	-0.147897
C41	C	0.615045	0.677458	-0.103524
C42	C	0.525613	0.677456	-0.088468
C43	C	0.930009	0.372919	-0.196238
C44	C	0.930012	0.308119	-0.196233
C45	C	0.878559	0.275720	-0.147891
C46	C	0.827107	0.308117	-0.099545
C47	C	0.827110	0.372912	-0.099547
C48	C	0.827095	0.046808	-0.099537
C49	C	0.827094	-0.017989	-0.099540
C50	C	0.929998	-0.017985	-0.196224
C51	C	0.930001	0.046810	-0.196225
C52	C	0.878553	0.079198	-0.147877
C53	C	0.878552	0.149461	-0.147882
C54	C	0.878554	0.205463	-0.147889
C55	C	0.483602	0.677451	-0.025279
C56	C	0.399572	0.677455	-0.011136
C57	C	0.357549	0.677458	-0.060177
C58	C	0.399564	0.677457	-0.123365
C59	C	0.483598	0.677460	-0.137512
C60	C	0.357545	0.677467	-0.172410
C61	C	0.399560	0.677467	-0.235598
C62	C	0.483586	0.677469	-0.249742
C63	C	0.525609	0.677466	-0.200701
C64	C	0.273511	0.677464	-0.158263
C65	C	0.273507	0.677474	-0.270496
C66	C	0.357537	0.677470	-0.284639
C67	C	1.142064	0.677467	-0.192251
C68	C	1.231497	0.677468	-0.207307
C69	C	0.878541	0.677471	-0.351080
C70	C	0.878537	0.677474	-0.420042
C71	C	0.878552	0.880650	-0.147881
C72	C	0.878551	0.949610	-0.147878
C73	C	0.827077	0.756827	-0.483452
C74	C	0.827086	0.756825	-0.548248
C75	C	0.878549	0.677468	-0.549632
C76	C	0.930015	0.598109	-0.486215
C77	C	0.930011	0.598112	-0.421421
C78	C	0.930030	0.598094	-0.747520
C79	C	0.930027	0.598096	-0.812321
C80	C	0.827105	0.756806	-0.874348
C81	C	0.827101	0.756809	-0.809554
C82	C	0.878571	0.677451	-0.746144
C83	C	0.878563	0.677454	-0.675885
C84	C	0.878552	0.677464	-0.619888
C85	C	0.878568	0.677453	0.055305
C86	C	0.878573	0.677450	0.124266
C87	C	1.142067	0.474279	-0.192258
C88	C	1.231500	0.405320	-0.207317
C89	C	0.878571	0.474265	0.055298
C90	C	0.878576	0.405302	0.124257
C91	C	1.142080	0.474270	0.010934
C92	C	1.231518	0.405308	0.064837
C93	C	0.615029	0.880655	-0.306710
C94	C	0.525591	0.949616	-0.360612
C95	C	0.615043	0.880646	-0.103517
C96	C	0.525609	0.949604	-0.088458
C97	C	0.878539	0.880659	-0.351073
C98	C	0.878533	0.949622	-0.420032
C99	C	1.222041	0.372937	-0.245410
C100	C	1.306065	0.308152	-0.259573
C101	C	1.399548	0.275747	-0.235638
C102	C	1.409005	0.308136	-0.197544
C103	C	1.324982	0.372924	-0.183385
C104	C	0.930037	0.372916	0.187662
C105	C	0.930038	0.308127	0.252464
C106	C	0.878584	0.275721	0.253857
C107	C	0.827117	0.308114	0.190445
C108	C	0.827111	0.372906	0.125646
C109	C	1.324981	0.372926	0.041809
C110	C	1.409025	0.308138	0.092449
C111	C	1.399605	0.275729	0.166116
C112	C	1.306133	0.308118	0.189145
C113	C	1.222090	0.372909	0.138505
C114	C	0.432129	0.982007	-0.337584
C115	C	0.348084	1.046814	-0.388224
C116	C	0.357504	1.079226	-0.461892
C117	C	0.450977	1.046833	-0.484920
C118	C	0.535019	0.982031	-0.434281
C119	C	0.535068	0.981994	-0.050372
C120	C	0.451044	1.046797	-0.036227
C121	C	0.357562	1.079205	-0.060164
C122	C	0.348104	1.046812	-0.098256
C123	C	0.432128	0.982015	-0.112405
C124	C	0.929997	0.982007	-0.421403
C125	C	0.930011	1.046797	-0.486195
C126	C	0.878555	1.079204	-0.549614
C127	C	0.827089	1.046813	-0.548241
C128	C	0.827082	0.982020	-0.483451
H129	H	0.971903	0.399298	-0.235607
N130	N	0.635828	0.947085	-0.459117
H131	H	0.643702	0.996519	-0.489066
H132	H	0.643614	0.920202	-0.489038
N133	N	0.421914	0.947072	-0.153471
H134	H	0.489321	0.901103	-0.158805
H135	H	0.384747	0.996559	-0.202701
H136	H	0.785211	0.399289	-0.060184
H137	H	0.971899	0.955631	-0.369771
N138	N	0.528888	0.677482	-0.317900
H139	H	0.549259	0.623518	-0.318883
H140	H	0.588459	0.677519	-0.319384
H141	H	0.785193	-0.044367	-0.060171
N142	N	1.335197	0.407844	-0.142297
H143	H	1.302632	0.472886	-0.173197
H144	H	1.407189	0.377415	-0.129294
H145	H	0.971919	1.073163	-0.487298
H146	H	0.239291	0.677479	-0.310431
H147	H	0.971922	0.533495	-0.487347
H148	H	0.971940	0.533475	-0.695898
N149	N	0.266920	0.677458	-0.044925
H150	H	0.246682	0.677455	0.002546
H151	H	0.281745	0.623488	-0.042496
H152	H	0.611179	0.955613	-0.030872
N153	N	0.771616	0.407854	0.057246
H154	H	0.719839	0.472897	0.037317
H155	H	0.739073	0.377446	0.067996
H156	H	1.145992	0.399267	0.157266
H157	H	0.458763	1.073160	-0.005208
H158	H	1.332670	0.399303	-0.018173
H159	H	0.289152	1.131967	-0.048638
N160	N	0.771578	0.842418	-0.481961
H161	H	0.719793	0.845960	-0.448132
H162	H	0.739046	0.892638	-0.531989
H163	H	0.271980	1.073209	-0.117742
H164	H	0.971895	0.073190	-0.235592
N165	N	0.985504	0.273179	-0.248373
H166	H	1.018093	0.303541	-0.279002
H167	H	0.938249	0.284455	-0.280303
H168	H	1.485130	0.281742	-0.178059
H169	H	0.365366	0.677456	0.040310
N170	N	0.878571	1.149093	-0.619485
H171	H	0.808883	1.202868	-0.638941
H172	H	0.907902	1.126478	-0.655557
H173	H	0.971937	0.399293	0.186541
N174	N	1.490171	0.205860	-0.250903
H175	H	1.530619	0.228406	-0.280295
H176	H	1.469908	0.190290	-0.278640
H177	H	0.785195	1.073209	-0.599885
N178	N	0.771636	0.842412	-0.616650
H179	H	0.739046	0.892684	-0.605944
H180	H	0.719901	0.845904	-0.636590
H181	H	0.785169	0.955659	-0.482344
H182	H	0.458635	1.073231	-0.544906
N183	N	0.228215	0.677447	-0.090108
H184	H	0.168607	0.677444	-0.088583
H185	H	0.207908	0.731410	-0.089161
H186	H	0.785208	0.073168	-0.060166
N187	N	0.985489	-0.052917	-0.248374
H188	H	0.977684	-0.098882	-0.241039
H189	H	1.057451	-0.079748	-0.239663
H190	H	1.298477	0.281722	0.249131
H191	H	0.517818	0.677455	0.014642
H192	H	0.785218	0.281728	-0.060180
N193	N	0.771600	0.842399	-0.808059
H194	H	0.699615	0.877096	-0.824566
H195	H	0.798674	0.877018	-0.841216
N196	N	0.616274	0.677415	-0.215872
H197	H	0.601606	0.731367	-0.262384
H198	H	0.671478	0.623400	-0.220159
N199	N	0.402852	0.677476	-0.352792
H200	H	0.462458	0.677478	-0.354310
H201	H	0.353165	0.731447	-0.395913
H202	H	0.289063	1.131992	-0.503118
H203	H	0.785198	0.821424	-0.925986
H204	H	0.971938	0.533471	-0.813440
H205	H	0.971915	0.533494	-0.369790
H206	H	1.145931	0.399321	-0.264912
N207	N	0.985555	0.273194	0.320850
H208	H	1.018156	0.303550	0.310127
H209	H	1.037286	0.208149	0.340755
H210	H	1.298346	0.281789	-0.290591
H211	H	0.785225	0.281720	0.191591
N212	N	0.878599	0.205832	0.323747
H213	H	0.849321	0.228384	0.359863
H214	H	0.948318	0.152097	0.343131
N215	N	1.509833	0.273211	0.067602
H216	H	1.503040	0.303569	0.013250
H217	H	1.546948	0.208166	0.086510
N218	N	1.490256	0.205848	0.220731
H219	H	1.550890	0.190254	0.194957
H220	H	1.490218	0.152122	0.251895
H221	H	0.424440	0.955620	-0.277603
N222	N	0.247276	1.081743	-0.363378
H223	H	0.254069	1.051366	-0.309026
H224	H	0.210161	1.070474	-0.382289
