data_functionalizedCrystal
_audit_creation_method	'MofGen! by Chris Wilmer'
_symmetry_space_group_name_H-M	'P1'
_symmetry_Int_Tables_number	1
_symmetry_cell_setting	triclinic
loop_
_symmetry_equiv_pos_as_xyz
  x,y,z
_cell_length_a	10.685661
_cell_length_b	12.594516
_cell_length_c	10.686551
_cell_angle_alpha	85.594704
_cell_angle_beta	80.927213
_cell_angle_gamma	85.633476
loop_
_atom_site_label
_atom_site_type_symbol
_atom_site_fract_x
_atom_site_fract_y
_atom_site_fract_z
Zn1	Zn	1.995752	-0.496804	-0.866192
Zn2	Zn	1.979343	-0.687501	-0.653937
Zn3	Zn	1.767187	-0.496853	-0.637717
Zn4	Zn	1.783472	-0.662053	-0.849898
O5	O	1.881439	-0.585803	-0.751936
O6	O	2.171204	-0.532730	-0.851644
O7	O	1.937517	-0.672882	-0.474157
O8	O	1.797559	-0.347902	-0.668055
O9	O	2.159148	-0.672834	-0.695701
O10	O	1.965485	-0.347866	-0.835915
O11	O	1.781648	-0.532814	-0.462240
O12	O	1.591719	-0.508138	-0.652255
O13	O	1.825314	-0.629462	-1.029688
O14	O	1.603683	-0.629510	-0.808144
O15	O	1.981275	-0.508054	-1.041659
O16	O	1.953308	-0.833070	-0.679901
O17	O	1.809402	-0.814374	-0.823873
C18	C	1.551644	-0.566068	-0.726672
C19	C	1.410559	-0.557650	-0.715895
C20	C	1.881378	-0.862342	-0.751909
C21	C	1.881472	-0.980651	-0.751949
C22	C	1.959847	-1.060035	-0.673741
C23	C	1.999761	-1.125657	-0.791969
C24	C	1.841722	-1.125833	-0.633808
C25	C	1.921449	-1.044714	-0.870243
C26	C	1.763350	-1.044886	-0.711999
C27	C	1.803226	-1.110468	-0.830303
C28	C	2.212520	-0.605615	-0.777299
C29	C	2.353608	-0.614058	-0.788107
C30	C	1.906941	-0.565914	-1.083018
C31	C	1.917809	-0.557439	-1.224106
C32	C	1.881536	-0.308185	-0.751993
C33	C	1.881577	-0.189880	-0.752017
C34	C	1.856108	-0.605542	-0.422147
C35	C	1.845486	-0.613733	-0.281079
H36	H	1.351384	-0.502908	-0.645833
C37	C	1.796230	-1.173738	-0.498798
C38	C	1.760129	-1.100202	-0.388282
C39	C	1.714648	-1.148104	-0.253272
C40	C	1.705269	-1.269543	-0.228778
C41	C	1.741372	-1.343087	-0.339298
C42	C	1.786853	-1.295185	-0.474308
H43	H	1.767070	-1.010299	-0.406411
H44	H	1.687922	-1.093661	-0.171458
H45	H	1.671601	-1.305002	-0.128836
H46	H	1.734430	-1.432990	-0.321169
H47	H	1.813578	-1.349628	-0.556121
C48	C	2.012701	-0.483564	-1.304022
C49	C	2.096480	-0.418353	-1.238131
C50	C	2.191369	-0.344479	-1.318047
C51	C	2.202480	-0.335817	-1.463853
C52	C	2.118699	-0.401029	-1.529752
C53	C	2.023809	-0.474903	-1.449836
H54	H	2.088257	-0.424764	-1.130190
H55	H	2.253390	-0.296205	-1.269264
H56	H	2.272723	-0.281131	-1.523012
H57	H	2.126921	-0.394619	-1.637693
H58	H	1.961789	-0.523178	-1.498619
C59	C	1.433547	-0.688013	-0.882772
C60	C	1.520440	-0.780199	-0.834482
C61	C	1.600378	-0.854152	-0.929145
C62	C	1.593423	-0.835918	-1.072098
C63	C	1.506527	-0.743727	-1.120396
C64	C	1.426588	-0.669775	-1.025733
H65	H	1.525591	-0.793700	-0.728652
H66	H	1.664704	-0.922397	-0.893390
H67	H	1.652598	-0.890662	-1.142174
H68	H	1.501375	-0.730226	-1.226226
H69	H	1.362262	-0.601529	-1.061488
H70	H	2.026143	-1.037556	-0.607669
C71	C	2.134768	-1.173365	-0.837675
C72	C	2.243651	-1.157288	-0.763645
C73	C	2.378660	-1.204990	-0.809344
C74	C	2.404785	-1.268769	-0.929073
C75	C	2.295899	-1.284850	-1.003111
C76	C	2.160890	-1.237148	-0.957412
H77	H	2.224314	-1.110072	-0.675007
H78	H	2.459265	-1.193085	-0.754535
H79	H	2.504727	-1.304081	-0.962903
H80	H	2.315235	-1.332066	-1.091749
H81	H	2.080285	-1.249052	-1.012221
C82	C	1.967093	-0.997000	-1.005306
C83	C	1.975523	-0.875501	-1.030217
C84	C	2.021170	-0.827786	-1.165277
C85	C	2.058387	-0.901568	-1.275425
C86	C	2.049958	-1.023074	-1.250518
C87	C	2.004310	-1.070790	-1.115458
H88	H	1.947972	-0.820877	-0.948676
H89	H	2.027410	-0.737839	-1.183714
H90	H	2.092178	-0.866246	-1.375404
H91	H	2.077509	-1.077699	-1.332059
H92	H	1.998071	-1.160737	-1.097021
C93	C	1.713770	-1.140580	-0.919804
C94	C	1.696435	-1.258818	-0.935681
C95	C	1.606992	-1.288937	-1.025190
C96	C	1.534884	-1.200818	-1.098821
C97	C	1.552217	-1.082573	-1.082946
C98	C	1.641660	-1.052454	-0.993437
H99	H	1.749816	-1.324056	-0.881173
H100	H	1.594162	-1.376471	-1.036942
H101	H	1.468674	-1.223114	-1.165081
H102	H	1.498837	-1.017335	-1.137454
H103	H	1.654490	-0.964920	-0.981686
H104	H	1.663437	-1.009553	-0.678140
H105	H	1.775256	-0.668416	-1.221921
