data_functionalizedCrystal
_audit_creation_method	'MofGen! by Chris Wilmer'
_symmetry_space_group_name_H-M	'P1'
_symmetry_Int_Tables_number	1
_symmetry_cell_setting	triclinic
loop_
_symmetry_equiv_pos_as_xyz
  x,y,z
_cell_length_a	15.711784
_cell_length_b	10.723024
_cell_length_c	9.798715
_cell_angle_alpha	90.001978
_cell_angle_beta	89.995373
_cell_angle_gamma	77.971665
loop_
_atom_site_label
_atom_site_type_symbol
_atom_site_fract_x
_atom_site_fract_y
_atom_site_fract_z
O1	O	1.151005	-0.686242	-0.113539
O2	O	0.898776	-0.590968	-0.113530
O3	O	1.030709	-0.459613	-0.113530
O4	O	1.019072	-0.817597	-0.113540
O5	O	1.030699	-0.459608	0.113452
O6	O	0.898766	-0.590963	0.113452
O7	O	1.150995	-0.686237	0.113443
Zn8	Zn	1.024879	-0.638599	0.149486
Zn9	Zn	1.024892	-0.638606	-0.149573
O10	O	1.019063	-0.817592	0.113442
C11	C	0.866475	-0.575402	-0.000038
C12	C	0.770241	-0.529013	-0.000035
C13	C	0.644258	-0.354371	-0.000029
C14	C	0.734683	-0.397974	-0.000031
C15	C	0.715382	-0.616500	-0.000043
C16	C	0.624954	-0.572915	-0.000047
C17	C	0.589399	-0.441850	-0.000038
C18	C	0.570095	-0.660394	-0.000056
C19	C	0.479675	-0.616812	-0.000053
C20	C	0.444113	-0.485752	-0.000040
C21	C	0.498979	-0.398268	-0.000035
C22	C	0.605651	-0.791459	-0.000055
C23	C	0.550792	-0.878937	-0.000065
C24	C	0.460370	-0.835356	-0.000071
C25	C	0.424809	-0.704296	-0.000059
C26	C	0.405504	-0.922840	-0.000077
C27	C	0.315084	-0.879258	-0.000073
C28	C	0.334388	-0.660714	-0.000055
C29	C	1.029857	-0.412735	-0.000041
C30	C	1.027323	-0.273055	-0.000045
C31	C	1.183296	-0.701803	-0.000053
C32	C	1.279530	-0.748193	-0.000065
C33	C	1.019914	-0.864470	-0.000050
C34	C	1.022448	-1.004150	-0.000054
N35	N	1.024876	-0.638597	0.353585
C36	C	1.101146	-0.230861	-0.000050
C37	C	1.098529	-0.086495	-0.000055
N38	N	1.024901	-0.638601	-0.353673
C39	C	1.080271	-0.583093	0.421362
C40	C	1.080285	-0.583095	0.578525
H41	H	0.615308	-0.247645	-0.000036
F42	F	0.939837	-0.051665	-0.000039
H43	H	0.977458	-0.686112	0.411910
F44	F	1.181136	-0.038971	-0.000050
F45	F	1.142280	-0.520990	0.654705
H46	H	0.679278	-0.826939	-0.000052
H47	H	0.977476	-0.686129	0.588051
H48	H	0.305438	-0.553988	-0.000063
F49	F	0.588642	-1.018423	-0.000074
H50	H	0.370487	-0.450270	-0.000025
H51	H	0.434467	-1.029554	-0.000070
F52	F	0.753231	-0.755985	-0.000052
F53	F	0.793066	-0.304856	-0.000021
F54	F	0.461135	-0.258772	-0.000026
F55	F	1.142093	-0.520687	0.345134
F56	F	0.256696	-0.972362	-0.000074
H57	H	1.166285	-0.301614	-0.000044
F58	F	0.942178	-0.180581	-0.000055
