data_functionalizedCrystal
_audit_creation_method	'MofGen! by Chris Wilmer'
_symmetry_space_group_name_H-M	'P1'
_symmetry_Int_Tables_number	1
_symmetry_cell_setting	triclinic
loop_
_symmetry_equiv_pos_as_xyz
  x,y,z
_cell_length_a	19.805407
_cell_length_b	14.908520
_cell_length_c	19.805399
_cell_angle_alpha	93.269050
_cell_angle_beta	89.983114
_cell_angle_gamma	93.320773
loop_
_atom_site_label
_atom_site_type_symbol
_atom_site_fract_x
_atom_site_fract_y
_atom_site_fract_z
Zn1	Zn	1.019185	-0.359168	-0.398269
Zn2	Zn	1.519185	0.140832	0.101731
Zn3	Zn	1.012581	-0.510037	-0.291612
Zn4	Zn	1.512581	-0.010037	0.208388
Zn5	Zn	0.906004	-0.359197	-0.285095
Zn6	Zn	1.406004	0.140803	0.214905
Zn7	Zn	0.899441	-0.509986	-0.404757
Zn8	Zn	1.399441	-0.009986	0.095243
O9	O	0.959303	-0.434597	-0.344933
O10	O	1.459303	0.065403	0.155067
O11	O	1.113026	-0.379191	-0.384133
O12	O	1.613026	0.120809	0.115867
O13	O	0.998426	-0.490062	-0.196032
O14	O	1.498426	0.009938	0.303968
O15	O	0.926528	-0.232948	-0.294665
O16	O	1.426528	0.267052	0.205335
O17	O	1.108173	-0.490034	-0.305773
O18	O	1.608173	0.009966	0.194227
O19	O	1.009682	-0.232927	-0.377813
O20	O	1.509682	0.267073	0.122187
O21	O	0.920124	-0.379240	-0.191244
O22	O	1.420124	0.120760	0.308756
O23	O	0.810417	-0.379190	-0.300956
O24	O	1.310417	0.120810	0.199044
O25	O	0.915343	-0.489946	-0.498611
O26	O	1.415343	0.010054	0.001389
O27	O	0.805596	-0.489974	-0.388871
O28	O	1.305596	0.010026	0.111129
O29	O	1.003319	-0.379141	-0.493845
O30	O	1.503319	0.120859	0.006155
O31	O	0.992063	-0.636275	-0.312064
O32	O	1.492063	-0.136275	0.187936
O33	O	0.908939	-0.636238	-0.395190
O34	O	1.408939	-0.136238	0.104810
C35	C	0.783448	-0.434580	-0.344910
C36	C	1.283448	0.065420	0.155090
C37	C	0.708215	-0.434594	-0.344918
C38	C	1.208215	0.065406	0.155082
C39	C	0.670374	-0.492366	-0.390629
C40	C	1.170374	0.007634	0.109371
C41	C	0.599686	-0.492368	-0.390638
C42	C	1.099686	0.007632	0.109362
C43	C	0.566839	-0.434601	-0.344933
C44	C	1.066839	0.065399	0.155067
C45	C	0.604685	-0.376823	-0.299220
C46	C	1.104685	0.123177	0.200780
C47	C	0.675373	-0.376817	-0.299214
C48	C	1.175373	0.123183	0.200786
C49	C	0.319611	-0.376843	-0.299243
C50	C	0.819611	0.123157	0.200757
C51	C	0.248919	-0.376854	-0.299251
C52	C	0.748919	0.123146	0.200749
C53	C	0.243924	-0.492393	-0.390667
C54	C	0.743924	0.007607	0.109333
C55	C	0.314612	-0.492388	-0.390662
C56	C	0.814612	0.007612	0.109338
C57	C	0.352452	-0.434606	-0.344951
C58	C	0.852452	0.065394	0.155049
C59	C	0.429100	-0.434604	-0.344942
C60	C	0.929100	0.065396	0.155058
C61	C	0.490192	-0.434607	-0.344938
C62	C	0.990192	0.065393	0.155062
C63	C	0.949091	-0.668990	-0.355053
C64	C	1.449091	-0.168990	0.144947
C65	C	0.944783	-0.769265	-0.359405
C66	C	1.444783	-0.269265	0.140595
C67	C	1.023335	-0.957670	-0.281093
C68	C	1.523335	-0.457670	0.218907
C69	C	1.019291	-1.051887	-0.285180
C70	C	1.519291	-0.551887	0.214820
C71	C	0.932654	-1.051917	-0.371669
C72	C	1.432654	-0.551917	0.128331
C73	C	0.936698	-0.957700	-0.367582
C74	C	1.436698	-0.457700	0.132418
C75	C	0.982040	-0.910580	-0.322292
C76	C	1.482040	-0.410580	0.177708
C77	C	0.986081	-0.816361	-0.318202
C78	C	1.486081	-0.316361	0.181798
C79	C	0.899447	-0.816394	-0.404694
C80	C	1.399447	-0.316394	0.095306
C81	C	0.895403	-0.910610	-0.408781
C82	C	1.395403	-0.410610	0.091219
C83	C	1.135845	-0.434615	-0.344956
C84	C	1.635845	0.065385	0.155044
C85	C	1.211077	-0.434623	-0.344966
C86	C	1.711077	0.065377	0.155034
C87	C	0.959335	-0.434534	-0.521473
C88	C	1.459335	0.065466	-0.021473
C89	C	0.959349	-0.434508	-0.596704
C90	C	1.459349	0.065492	-0.096704
C91	C	0.969574	-0.199288	-0.334788
C92	C	1.469574	0.300712	0.165212
C93	C	0.973951	-0.099014	-0.330465
C94	C	1.473951	0.400986	0.169535
C95	C	0.918590	-0.376797	-0.629554
C96	C	1.418590	0.123203	-0.129554
C97	C	0.918600	-0.376780	-0.700242
C98	C	1.418600	0.123220	-0.200242
C99	C	0.959374	-0.434469	-0.738078
C100	C	1.459374	0.065531	-0.238078
C101	C	1.000134	-0.492185	-0.705223
C102	C	1.500134	0.007815	-0.205223
C103	C	1.000120	-0.492207	-0.634537
C104	C	1.500120	0.007793	-0.134537
C105	C	1.000192	-0.492101	-0.990293
C106	C	1.500192	0.007899	-0.490293
C107	C	1.000204	-0.492073	-1.060984
C108	C	1.500204	0.007927	-0.560984
C109	C	0.918672	-0.376674	-1.055998
C110	C	1.418672	0.123326	-0.555998
C111	C	0.918658	-0.376695	-0.985312
C112	C	1.418658	0.123305	-0.485312
C113	C	0.959415	-0.434415	-0.952463
C114	C	1.459415	0.065585	-0.452463
C115	C	0.959403	-0.434435	-0.875816
C116	C	1.459403	0.065565	-0.375816
C117	C	0.959390	-0.434445	-0.814724
C118	C	1.459390	0.065555	-0.314724
C119	C	0.959313	-0.434594	-0.169077
C120	C	1.459313	0.065406	0.330923
C121	C	0.959441	-0.434367	-0.093835
C122	C	1.459441	0.065633	0.406165
H123	H	0.222177	-0.329808	-0.262032
H124	H	0.722177	0.170192	0.237968
C125	C	0.874270	-0.314174	-0.944274
C126	C	1.374270	0.185826	-0.444274
C127	C	0.806446	-0.333825	-0.962295
C128	C	1.306446	0.166175	-0.462295
C129	C	0.765533	-0.276258	-0.924501
C130	C	1.265533	0.223742	-0.424501
H131	H	0.886733	-0.253523	-0.953216
H132	H	1.386733	0.246477	-0.453216
H133	H	0.880053	-0.322459	-0.897465
H134	H	1.380053	0.177541	-0.397465
H135	H	0.800667	-0.325531	-1.009094
H136	H	1.300667	0.174469	-0.509094
H137	H	0.793962	-0.394465	-0.953351
H138	H	1.293962	0.105535	-0.453351
H139	H	0.771316	-0.284544	-0.877692
H140	H	1.271316	0.215456	-0.377692
H141	H	0.778003	-0.215611	-0.933446
H142	H	1.278003	0.284389	-0.433446
H143	H	0.719511	-0.289589	-0.936718
H144	H	1.219511	0.210411	-0.436718
C145	C	0.360809	-0.314154	-0.249685
C146	C	0.860809	0.185846	0.250315
C147	C	0.429746	-0.326489	-0.259469
C148	C	0.929746	0.173511	0.240531
C149	C	0.467720	-0.268747	-0.213831
C150	C	0.967720	0.231253	0.286169
H151	H	0.348718	-0.327227	-0.204730
H152	H	0.848718	0.172773	0.295270
H153	H	0.351905	-0.253537	-0.257053
H154	H	0.851905	0.246463	0.242947
H155	H	0.438646	-0.387092	-0.252096
H156	H	0.938646	0.112908	0.247904
H157	H	0.441857	-0.313409	-0.304414
H158	H	0.941857	0.186591	0.195586
H159	H	0.458816	-0.208129	-0.221199
H160	H	0.958816	0.291871	0.278801
H161	H	0.455624	-0.281825	-0.168880
H162	H	0.955624	0.218175	0.331120
H163	H	0.514498	-0.277102	-0.220467
H164	H	1.014498	0.222898	0.279533
H165	H	0.697113	-0.539409	-0.427845
H166	H	1.197113	-0.039409	0.072155
H167	H	0.885392	-0.329815	-0.598753
H168	H	1.385392	0.170185	-0.098753
C169	C	1.064023	-1.103148	-0.240439
C170	C	1.564023	-0.603148	0.259561
C171	C	1.023423	-1.157358	-0.199380
C172	C	1.523423	-0.657358	0.300620
C173	C	1.064615	-1.204610	-0.158174
C174	C	1.564615	-0.704610	0.341826
H175	H	1.091628	-1.061707	-0.212823
H176	H	1.591628	-0.561707	0.287177
H177	H	1.091895	-1.139885	-0.267961
H178	H	1.591895	-0.639885	0.232039
H179	H	0.995563	-1.120624	-0.171860
H180	H	1.495563	-0.620624	0.328140
H181	H	0.995818	-1.198816	-0.226978
H182	H	1.495818	-0.698816	0.273022
H183	H	1.092487	-1.241347	-0.185696
H184	H	1.592487	-0.741347	0.314304
H185	H	1.092218	-1.163162	-0.130562
H186	H	1.592218	-0.663162	0.369438
H187	H	1.037074	-1.241403	-0.130314
H188	H	1.537074	-0.741403	0.369686
H189	H	0.858489	-0.948989	-0.445656
H190	H	1.358489	-0.448989	0.054344
H191	H	1.022998	-0.777997	-0.281322
H192	H	1.522998	-0.277997	0.218678
C193	C	1.044453	-0.554613	-1.102183
C194	C	1.544453	-0.054613	-0.602183
C195	C	1.035757	-0.542215	-1.171116
C196	C	1.535757	-0.042215	-0.671116
C197	C	1.076514	-0.599796	-1.209088
C198	C	1.576514	-0.099796	-0.709088
H199	H	1.031940	-0.615269	-1.093298
H200	H	1.531940	-0.115269	-0.593298
H201	H	1.090520	-0.541412	-1.090072
H202	H	1.590520	-0.041412	-0.590072
H203	H	0.989701	-0.555423	-1.183222
H204	H	1.489701	-0.055423	-0.683222
H205	H	1.048274	-0.481571	-1.180022
H206	H	1.548274	0.018429	-0.680022
H207	H	1.122580	-0.586595	-1.196977
H208	H	1.622580	-0.086595	-0.696977
H209	H	1.063998	-0.660448	-1.200198
H210	H	1.563998	-0.160448	-0.700198
H211	H	1.070624	-0.591386	-1.255863
H212	H	1.570624	-0.091386	-0.755863
C213	C	1.072622	-0.906667	-0.231899
C214	C	1.572622	-0.406667	0.268101
C215	C	1.107930	-0.968073	-0.196699
C216	C	1.607930	-0.468073	0.303301
C217	C	1.153343	-0.921124	-0.151381
C218	C	1.653343	-0.421124	0.348619
H219	H	1.048396	-0.869966	-0.200734
H220	H	1.548396	-0.369966	0.299266
H221	H	1.103713	-0.869874	-0.256205
H222	H	1.603713	-0.369874	0.243795
H223	H	1.076843	-1.004850	-0.172395
H224	H	1.576843	-0.504850	0.327605
H225	H	1.132169	-1.004776	-0.227847
H226	H	1.632169	-0.504776	0.272153
H227	H	1.184435	-0.884331	-0.175687
H228	H	1.684435	-0.384331	0.324313
H229	H	1.129112	-0.884425	-0.120220
H230	H	1.629112	-0.384425	0.379780
H231	H	1.177309	-0.962781	-0.127497
H232	H	1.677309	-0.462781	0.372503
H233	H	1.033316	-0.539194	-0.607791
H234	H	1.533316	-0.039194	-0.107791
C235	C	0.558719	-0.555204	-0.440289
C236	C	1.058719	-0.055204	0.059711
C237	C	0.602613	-0.605817	-0.480296
C238	C	1.102613	-0.105817	0.019704
C239	C	0.564898	-0.663726	-0.526035
C240	C	1.064898	-0.163726	-0.026035
H241	H	0.532645	-0.520859	-0.468408
H242	H	1.032645	-0.020859	0.031592
H243	H	0.529439	-0.594512	-0.416055
H244	H	1.029439	-0.094512	0.083945
H245	H	0.631880	-0.566514	-0.504528
H246	H	1.131880	-0.066514	-0.004528
H247	H	0.628687	-0.640180	-0.452196
H248	H	1.128687	-0.140180	0.047804
H249	H	0.535619	-0.703034	-0.501801
H250	H	1.035619	-0.203034	-0.001801
H251	H	0.538826	-0.629374	-0.554149
H252	H	1.038826	-0.129374	-0.054149
H253	H	0.594674	-0.698080	-0.553181
H254	H	1.094674	-0.198080	-0.053181
H255	H	0.341352	-0.539430	-0.427877
H256	H	0.841352	-0.039430	0.072123
C257	C	0.202722	-0.555024	-0.440274
C258	C	0.702722	-0.055024	0.059726
C259	C	0.133787	-0.542650	-0.430514
C260	C	0.633787	-0.042650	0.069486
C261	C	0.095814	-0.600321	-0.476202
C262	C	0.595814	-0.100321	0.023798
H263	H	0.211581	-0.615657	-0.432951
H264	H	0.711581	-0.115657	0.067049
H265	H	0.214860	-0.541891	-0.485214
H266	H	0.714860	-0.041891	0.014786
H267	H	0.121654	-0.555790	-0.385585
H268	H	0.621654	-0.055790	0.114415
H269	H	0.124908	-0.482029	-0.437842
H270	H	0.624908	0.017971	0.062158
H271	H	0.107952	-0.587188	-0.521142
H272	H	0.607952	-0.087188	-0.021142
H273	H	0.104678	-0.660951	-0.468876
H274	H	0.604678	-0.160951	0.031124
H275	H	0.049038	-0.591928	-0.469591
H276	H	0.549038	-0.091928	0.030409
H277	H	1.033371	-0.539110	-0.963557
H278	H	1.533371	-0.039110	-0.463557
C279	C	0.883449	-1.103249	-0.420771
C280	C	1.383449	-0.603249	0.079229
C281	C	0.888739	-1.195838	-0.415519
C282	C	1.388739	-0.695838	0.084481
C283	C	0.843415	-1.243152	-0.460735
C284	C	1.343415	-0.743152	0.039265
H285	H	0.893937	-1.087868	-0.465619
H286	H	1.393937	-0.587868	0.034381
H287	H	0.838621	-1.087927	-0.410147
H288	H	1.338621	-0.587927	0.089853
H289	H	0.933557	-1.211153	-0.426147
H290	H	1.433557	-0.711153	0.073853
H291	H	0.878244	-1.211245	-0.370681
H292	H	1.378244	-0.711245	0.129319
H293	H	0.798586	-1.227831	-0.450111
H294	H	1.298586	-0.727831	0.049889
H295	H	0.853907	-1.227764	-0.505580
H296	H	1.353907	-0.727764	-0.005580
H297	H	0.846993	-1.305979	-0.457173
H298	H	1.346993	-0.805979	0.042827
C299	C	1.044380	-0.554724	-0.746418
C300	C	1.544380	-0.054724	-0.246418
C301	C	1.035684	-0.542337	-0.815353
C302	C	1.535684	-0.042337	-0.315353
C303	C	1.076442	-0.599924	-0.853320
C304	C	1.576442	-0.099924	-0.353320
H305	H	1.031867	-0.615379	-0.737528
H306	H	1.531867	-0.115379	-0.237528
H307	H	1.090447	-0.541522	-0.734308
H308	H	1.590447	-0.041522	-0.234308
H309	H	0.989628	-0.555546	-0.827459
H310	H	1.489628	-0.055546	-0.327459
H311	H	1.048203	-0.481695	-0.824264
H312	H	1.548203	0.018305	-0.324264
H313	H	1.122508	-0.586722	-0.841209
H314	H	1.622508	-0.086722	-0.341209
H315	H	1.063924	-0.660574	-0.844424
H316	H	1.563924	-0.160574	-0.344424
H317	H	1.070552	-0.591521	-0.900096
H318	H	1.570552	-0.091521	-0.400096
H319	H	0.577936	-0.329784	-0.262009
H320	H	1.077936	0.170216	0.237991
C321	C	0.874502	-0.313862	-1.091622
C322	C	1.374502	0.186138	-0.591622
C323	C	0.893148	-0.224608	-1.070598
C324	C	1.393148	0.275392	-0.570598
C325	C	0.852483	-0.166722	-1.103406
C326	C	1.352483	0.333278	-0.603406
H327	H	0.828428	-0.326942	-1.080623
H328	H	1.328428	0.173058	-0.580623
H329	H	0.880355	-0.322051	-1.139143
H330	H	1.380355	0.177949	-0.639143
H331	H	0.887290	-0.216424	-1.023088
H332	H	1.387290	0.283576	-0.523088
H333	H	0.939216	-0.211500	-1.081599
H334	H	1.439216	0.288500	-0.581599
H335	H	0.858336	-0.174910	-1.150927
H336	H	1.358336	0.325090	-0.650927
H337	H	0.806411	-0.179810	-1.092404
H338	H	1.306411	0.320190	-0.592404
H339	H	0.865133	-0.106156	-1.089151
H340	H	1.365133	0.393844	-0.589151
C341	C	0.854722	-0.765221	-0.449510
C342	C	1.354722	-0.265221	0.050490
C343	C	0.895336	-0.711063	-0.490595
C344	C	1.395336	-0.211063	0.009405
C345	C	0.854158	-0.663921	-0.531891
C346	C	1.354158	-0.163921	-0.031891
H347	H	0.826813	-0.728453	-0.422072
H348	H	1.326813	-0.228453	0.077928
H349	H	0.827154	-0.806755	-0.477104
H350	H	1.327154	-0.306755	0.022896
H351	H	0.922892	-0.669534	-0.463004
H352	H	1.422892	-0.169534	0.036996
H353	H	0.923245	-0.747809	-0.518047
H354	H	1.423245	-0.247809	-0.018047
H355	H	0.826590	-0.705454	-0.559485
H356	H	1.326590	-0.205454	-0.059485
H357	H	0.826251	-0.627157	-0.504447
H358	H	1.326251	-0.127157	-0.004447
H359	H	0.881708	-0.627175	-0.559776
H360	H	1.381708	-0.127175	-0.059776
C361	C	0.716339	-0.314064	-0.249504
C362	C	1.216339	0.185936	0.250496
C363	C	0.672445	-0.263494	-0.209465
C364	C	1.172445	0.236506	0.290535
C365	C	0.710157	-0.205683	-0.163658
C366	C	1.210157	0.294317	0.336342
H367	H	0.745641	-0.274717	-0.273666
H368	H	1.245641	0.225283	0.226334
H369	H	0.742388	-0.348505	-0.221420
H370	H	1.242388	0.151495	0.278580
H371	H	0.646408	-0.229056	-0.237545
H372	H	1.146408	0.270944	0.262455
H373	H	0.643143	-0.302817	-0.185288
H374	H	1.143143	0.197183	0.314712
H375	H	0.736206	-0.240124	-0.135574
H376	H	1.236206	0.259876	0.364426
H377	H	0.739458	-0.166342	-0.187826
H378	H	1.239458	0.333658	0.312174
H379	H	0.680381	-0.171370	-0.136482
H380	H	1.180381	0.328630	0.363518
C381	C	0.874328	-0.314019	-0.735781
C382	C	1.374328	0.185981	-0.235781
C383	C	0.838636	-0.263481	-0.687516
C384	C	1.338636	0.236519	-0.187516
C385	C	0.797851	-0.205646	-0.720229
C386	C	1.297851	0.294354	-0.220229
H387	H	0.843278	-0.348413	-0.764837
H388	H	1.343278	0.151587	-0.264837
H389	H	0.901931	-0.274660	-0.761650
H390	H	1.401931	0.225340	-0.261650
H391	H	0.811036	-0.302835	-0.661659
H392	H	1.311036	0.197165	-0.161659
H393	H	0.869669	-0.229068	-0.658458
H394	H	1.369669	0.270932	-0.158458
H395	H	0.825453	-0.166287	-0.746097
H396	H	1.325453	0.333713	-0.246097
H397	H	0.766804	-0.240047	-0.749283
H398	H	1.266804	0.259953	-0.249283
H399	H	0.773633	-0.171343	-0.687486
H400	H	1.273633	0.328657	-0.187486
