data_functionalizedCrystal
_audit_creation_method	'MofGen! by Chris Wilmer'
_symmetry_space_group_name_H-M	'P1'
_symmetry_Int_Tables_number	1
_symmetry_cell_setting	triclinic
loop_
_symmetry_equiv_pos_as_xyz
  x,y,z
_cell_length_a	18.215407
_cell_length_b	16.120484
_cell_length_c	18.215399
_cell_angle_alpha	92.869789
_cell_angle_beta	89.980167
_cell_angle_gamma	92.926015
loop_
_atom_site_label
_atom_site_type_symbol
_atom_site_fract_x
_atom_site_fract_y
_atom_site_fract_z
Zn1	Zn	1.110213	-0.331906	-0.430960
Zn2	Zn	1.610213	0.168094	0.069040
Zn3	Zn	1.103879	-0.471328	-0.314129
Zn4	Zn	1.603879	0.028672	0.185871
Zn5	Zn	0.987144	-0.331934	-0.307908
Zn6	Zn	1.487144	0.168066	0.192092
Zn7	Zn	0.980871	-0.471282	-0.437152
Zn8	Zn	1.480871	0.028718	0.062848
O9	O	1.045527	-0.401612	-0.372537
O10	O	1.545527	0.098388	0.127463
O11	O	1.212356	-0.350409	-0.415474
O12	O	1.712356	0.149591	0.084526
O13	O	1.088368	-0.452868	-0.210321
O14	O	1.588368	0.047132	0.289679
O15	O	1.008745	-0.215264	-0.319037
O16	O	1.508745	0.284736	0.180963
O17	O	1.207703	-0.452841	-0.329639
O18	O	1.707703	0.047159	0.170361
O19	O	1.099163	-0.215244	-0.409442
O20	O	1.599163	0.284756	0.090558
O21	O	1.002604	-0.350456	-0.205751
O22	O	1.502604	0.149544	0.294249
O23	O	0.883328	-0.350411	-0.325041
O24	O	1.383328	0.149589	0.174959
O25	O	0.998054	-0.452762	-0.539313
O26	O	1.498054	0.047238	-0.039313
O27	O	0.878719	-0.452789	-0.419995
O28	O	1.378719	0.047211	0.080005
O29	O	1.093081	-0.350364	-0.534764
O30	O	1.593081	0.149636	-0.034764
O31	O	1.082286	-0.587988	-0.335643
O32	O	1.582286	-0.087988	0.164357
O33	O	0.991913	-0.587954	-0.426027
O34	O	1.491913	-0.087954	0.073973
C35	C	0.854321	-0.401598	-0.372516
C36	C	1.354321	0.098402	0.127484
C37	C	0.772522	-0.401612	-0.372525
C38	C	1.272522	0.098388	0.127475
C39	C	0.581943	-0.455004	-0.421912
C40	C	1.081943	0.044996	0.078088
C41	C	0.505085	-0.455007	-0.421921
C42	C	1.005085	0.044993	0.078079
C43	C	0.509861	-0.348236	-0.323179
C44	C	1.009861	0.151764	0.176821
C45	C	0.586719	-0.348229	-0.323174
C46	C	1.086719	0.151771	0.176826
C47	C	0.622758	-0.401619	-0.372540
C48	C	1.122758	0.098381	0.127460
C49	C	0.469041	-0.401627	-0.372554
C50	C	0.969041	0.098373	0.127446
C51	C	0.385708	-0.401630	-0.372564
C52	C	0.885708	0.098370	0.127436
C53	C	0.706097	-0.401615	-0.372531
C54	C	1.206097	0.098385	0.127469
C55	C	1.035751	-0.618221	-0.382198
C56	C	1.535751	-0.118221	0.117802
C57	C	1.031637	-0.710887	-0.386356
C58	C	1.531637	-0.210887	0.113644
C59	C	1.024129	-0.880549	-0.393961
C60	C	1.524129	-0.380549	0.106039
C61	C	1.067056	-0.921836	-0.351125
C62	C	1.567056	-0.421836	0.148875
C63	C	1.062879	-1.016241	-0.355357
C64	C	1.562879	-0.516241	0.144643
C65	C	1.028305	-0.786135	-0.389730
C66	C	1.528305	-0.286135	0.110270
C67	C	1.237479	-0.401627	-0.372560
C68	C	1.737479	0.098373	0.127440
C69	C	1.319277	-0.401634	-0.372569
C70	C	1.819277	0.098366	0.127431
C71	C	1.045574	-0.401555	-0.564488
C72	C	1.545574	0.098445	-0.064488
C73	C	1.045594	-0.401530	-0.646286
C74	C	1.545594	0.098470	-0.146286
C75	C	1.055360	-0.184158	-0.362855
C76	C	1.555360	0.315842	0.137145
C77	C	1.059551	-0.091492	-0.358729
C78	C	1.559551	0.408508	0.141271
C79	C	1.095094	-0.348162	-0.832110
C80	C	1.595094	0.151838	-0.332110
C81	C	1.095104	-0.348138	-0.908967
C82	C	1.595104	0.151862	-0.408967
C83	C	0.996153	-0.454770	-0.913694
C84	C	1.496153	0.045230	-0.413694
C85	C	0.996140	-0.454790	-0.836837
C86	C	1.496140	0.045210	-0.336837
C87	C	1.045615	-0.401487	-0.796047
C88	C	1.545615	0.098513	-0.296047
C89	C	1.045637	-0.401443	-0.949761
C90	C	1.545637	0.098557	-0.449761
C91	C	1.045648	-0.401417	-1.033094
C92	C	1.545648	0.098583	-0.533094
C93	C	1.045603	-0.401511	-0.712709
C94	C	1.545603	0.098489	-0.212709
C95	C	1.045524	-0.401610	-0.181331
C96	C	1.545524	0.098390	0.318669
C97	C	1.045657	-0.401399	-0.099523
C98	C	1.545657	0.098601	0.400477
H99	H	0.480509	-0.304769	-0.282986
H100	H	0.980509	0.195231	0.217014
H101	H	0.955874	-0.498169	-0.946914
H102	H	1.455874	0.001831	-0.446914
H103	H	1.106944	-0.886281	-0.311274
H104	H	1.606944	-0.386281	0.188726
H105	H	0.619951	-0.304751	-0.282969
H106	H	1.119951	0.195249	0.217031
H107	H	0.471857	-0.498478	-0.462126
H108	H	0.971857	0.001522	0.037874
H109	H	1.135393	-0.304714	-0.938326
H110	H	1.635393	0.195286	-0.438326
H111	H	1.135377	-0.304757	-0.798901
H112	H	1.635377	0.195243	-0.298901
O113	O	0.948147	-0.506714	-0.801839
O114	O	1.448147	-0.006714	-0.301839
C115	C	0.960466	-0.589802	-0.824329
C116	C	1.460466	-0.089802	-0.324329
H117	H	1.019070	-0.594010	-0.845658
H118	H	1.519070	-0.094010	-0.345658
H119	H	0.920030	-0.611585	-0.869901
H120	H	1.420030	-0.111585	-0.369901
C121	C	0.877400	-0.640287	-0.732329
C122	C	1.377400	-0.140287	-0.232329
C123	C	0.949381	-0.645456	-0.758520
C124	C	1.449381	-0.145456	-0.258520
H125	H	0.870559	-0.674618	-0.691737
H126	H	1.370559	-0.174618	-0.191737
H127	H	0.869098	-0.584309	-0.717179
H128	H	1.369098	-0.084309	-0.217179
H129	H	0.843712	-0.658437	-0.770312
H130	H	1.343712	-0.158437	-0.270312
H131	H	0.983067	-0.627295	-0.720541
H132	H	1.483067	-0.127295	-0.220541
H133	H	0.957688	-0.701432	-0.773663
H134	H	1.457688	-0.201432	-0.273663
O135	O	0.616838	-0.506885	-0.469939
O136	O	1.116838	-0.006885	0.030061
C137	C	0.564328	-0.554017	-0.513507
C138	C	1.064328	-0.054017	-0.013507
H139	H	0.511082	-0.519876	-0.514581
H140	H	1.011082	-0.019876	-0.014581
H141	H	0.553289	-0.617300	-0.489294
H142	H	1.053289	-0.117300	0.010706
C143	C	0.659204	-0.608070	-0.591036
C144	C	1.159204	-0.108070	-0.091036
C145	C	0.593809	-0.566134	-0.592360
C146	C	1.093809	-0.066134	-0.092360
H147	H	0.677390	-0.615547	-0.639676
H148	H	1.177390	-0.115547	-0.139676
H149	H	0.694582	-0.576318	-0.561682
H150	H	1.194582	-0.076318	-0.061682
H151	H	0.649996	-0.660800	-0.570855
H152	H	1.149996	-0.160800	-0.070855
H153	H	0.603020	-0.513400	-0.612532
H154	H	1.103020	-0.013400	-0.112532
H155	H	0.558434	-0.597877	-0.621719
H156	H	1.058434	-0.097877	-0.121719
O157	O	0.976558	-0.923086	-0.441433
O158	O	1.476558	-0.423086	0.058567
C159	C	0.982935	-1.009240	-0.435145
C160	C	1.482935	-0.509240	0.064855
H161	H	1.006566	-1.021044	-0.378894
H162	H	1.506566	-0.521044	0.121106
H163	H	1.021027	-1.033880	-0.479919
H164	H	1.521027	-0.533880	0.020081
C165	C	0.877499	-1.039622	-0.512867
C166	C	1.377499	-0.539622	-0.012867
C167	C	0.906518	-1.054120	-0.443776
C168	C	1.406518	-0.554120	0.056224
H169	H	0.830363	-1.067307	-0.518194
H170	H	1.330363	-0.567307	-0.018194
H171	H	0.873204	-0.981578	-0.517106
H172	H	1.373204	-0.481578	-0.017106
H173	H	0.909249	-1.060156	-0.550171
H174	H	1.409249	-0.560156	-0.050171
H175	H	0.874773	-1.033576	-0.406473
H176	H	1.374773	-0.533576	0.093527
H177	H	0.910806	-1.112161	-0.439530
H178	H	1.410806	-0.612161	0.060470
