data_functionalizedCrystal
_audit_creation_method	'MofGen! by Chris Wilmer'
_symmetry_space_group_name_H-M	'P1'
_symmetry_Int_Tables_number	1
_symmetry_cell_setting	triclinic
loop_
_symmetry_equiv_pos_as_xyz
  x,y,z
_cell_length_a	10.723023
_cell_length_b	23.532357
_cell_length_c	9.798715
_cell_angle_alpha	89.991329
_cell_angle_beta	89.996770
_cell_angle_gamma	83.647920
loop_
_atom_site_label
_atom_site_type_symbol
_atom_site_fract_x
_atom_site_fract_y
_atom_site_fract_z
O1	O	1.654668	0.079870	-0.113496
O2	O	1.291275	0.087516	-0.113503
O3	O	1.483962	0.000831	-0.113471
O4	O	1.461981	0.166556	-0.113528
O5	O	1.483948	0.000831	0.113511
O6	O	1.291260	0.087516	0.113479
O7	O	1.654654	0.079870	0.113487
Zn8	Zn	1.472955	0.083693	0.149521
Zn9	Zn	1.472974	0.083693	-0.149538
O10	O	1.461967	0.166555	0.113455
C11	C	1.244785	0.086960	-0.000013
C12	C	1.106284	0.085295	-0.000014
C13	C	1.044528	0.084553	0.117569
C14	C	0.901379	0.082833	0.117570
C15	C	1.483405	-0.020389	0.000024
C16	C	1.481752	-0.083619	0.000037
C17	C	1.471382	-0.475697	-0.123765
C18	C	1.469811	-0.535107	-0.123773
O19	O	1.468962	-0.565829	-0.228998
N20	N	1.469024	-0.564823	-0.000046
C21	C	1.469796	-0.535126	0.123696
O22	O	1.468981	-0.565857	0.228934
C23	C	1.471358	-0.475717	0.123702
C24	C	1.472158	-0.446004	-0.000032
C25	C	1.472180	-0.445984	-0.247489
C26	C	1.473754	-0.386579	-0.247481
C27	C	1.474529	-0.356886	-0.123748
C28	C	1.473731	-0.386599	-0.000024
C29	C	1.472121	-0.446021	0.247443
C30	C	1.473682	-0.386607	0.247439
C31	C	1.474482	-0.356895	0.123704
C32	C	1.476080	-0.297501	0.123717
N33	N	1.476867	-0.267785	-0.000009
C34	C	1.476092	-0.297477	-0.123742
C35	C	1.466512	-0.659889	0.123673
C36	C	1.464959	-0.719297	0.123668
C37	C	1.464972	-0.719274	-0.123801
C38	C	1.466534	-0.659865	-0.123795
C39	C	1.467299	-0.630173	-0.000053
C40	C	1.479398	-0.172722	-0.123715
C41	C	1.480977	-0.113311	-0.123696
C42	C	1.480957	-0.113340	0.123772
C43	C	1.479385	-0.172745	0.123754
C44	C	1.478601	-0.202435	-0.000001
O45	O	1.476925	-0.266741	0.228889
O46	O	1.476890	-0.266738	-0.228962
C47	C	1.701143	0.080427	-0.000007
C48	C	1.839645	0.082091	-0.000014
C49	C	1.462524	0.187776	-0.000044
C50	C	1.464177	0.251005	-0.000066
N51	N	1.472951	0.083693	0.353621
N52	N	1.472987	0.083689	-0.353637
C53	C	1.553861	0.047135	0.421411
C54	C	1.553881	0.047133	0.578574
H55	H	1.053178	0.084656	-0.100680
C56	C	1.474610	-0.353901	-0.383590
H57	H	1.473908	-0.380100	-0.457271
H58	H	1.547988	-0.334784	-0.388751
H59	H	1.402434	-0.326667	-0.388730
C60	C	0.911366	0.082955	-0.136021
H61	H	0.854064	0.082271	-0.209791
H62	H	0.972081	0.050415	-0.141086
H63	H	0.952192	0.116722	-0.141102
H64	H	1.623155	0.015837	0.636871
H65	H	1.403718	0.114991	0.588075
H66	H	0.848269	0.082198	0.218236
H67	H	1.478745	-0.196939	0.224509
C68	C	1.481849	-0.080630	-0.259809
H69	H	1.481148	-0.106825	-0.333497
H70	H	1.555233	-0.061517	-0.264955
H71	H	1.409679	-0.053392	-0.264951
C72	C	1.478570	-0.205374	-0.259841
H73	H	1.479290	-0.179163	-0.333516
H74	H	1.405195	-0.224491	-0.265026
H75	H	1.550749	-0.232606	-0.264970
H76	H	1.403692	0.114987	0.411934
C77	C	1.116256	0.085399	0.253569
H78	H	1.058950	0.084702	0.327339
H79	H	1.157106	0.119155	0.258655
H80	H	1.176952	0.052848	0.258626
C81	C	1.471341	-0.478638	-0.383607
H82	H	1.472050	-0.452426	-0.457279
H83	H	1.397965	-0.497756	-0.388782
H84	H	1.543519	-0.505870	-0.388750
C85	C	1.647422	0.004853	0.342653
H86	H	1.698181	-0.018085	0.405565
H87	H	1.699181	0.025505	0.286889
H88	H	1.602619	-0.018956	0.286934
C89	C	1.467402	-0.627186	-0.259900
H90	H	1.466709	-0.653383	-0.333585
H91	H	1.540780	-0.608068	-0.265048
H92	H	1.395226	-0.599951	-0.265049
H93	H	1.464336	-0.743460	-0.224551
H94	H	1.464327	-0.743486	0.224425
C95	C	1.467377	-0.627234	0.259797
H96	H	1.466696	-0.653445	0.333474
H97	H	1.395218	-0.599996	0.264958
H98	H	1.540772	-0.608123	0.264946
C99	C	1.471217	-0.478693	0.383549
H100	H	1.470176	-0.518329	0.365846
H101	H	1.398689	-0.464890	0.434363
H102	H	1.544243	-0.473022	0.434406
C103	C	1.474525	-0.353947	0.383554
H104	H	1.475565	-0.314308	0.365848
H105	H	1.547032	-0.367751	0.434401
H106	H	1.401478	-0.359625	0.434378
H107	H	1.481594	-0.089154	0.224512
