data_functionalizedCrystal
_audit_creation_method	'MofGen! by Chris Wilmer'
_symmetry_space_group_name_H-M	'P1'
_symmetry_Int_Tables_number	1
_symmetry_cell_setting	triclinic
loop_
_symmetry_equiv_pos_as_xyz
  x,y,z
_cell_length_a	10.654550
_cell_length_b	15.944499
_cell_length_c	9.730223
_cell_angle_alpha	90.001915
_cell_angle_beta	89.996251
_cell_angle_gamma	83.981256
loop_
_atom_site_label
_atom_site_type_symbol
_atom_site_fract_x
_atom_site_fract_y
_atom_site_fract_z
O1	O	1.666275	0.117975	-0.114392
O2	O	2.166275	0.617975	0.385608
O3	O	1.300648	0.129216	-0.114369
O4	O	1.800648	0.629216	0.385631
O5	O	1.493480	0.001376	-0.114383
O6	O	1.993480	0.501376	0.385617
O7	O	1.473443	0.245815	-0.114378
O8	O	1.973443	0.745815	0.385622
O9	O	1.493477	0.001379	0.114197
O10	O	1.993477	0.501379	0.614197
O11	O	1.300646	0.129219	0.114211
O12	O	1.800646	0.629219	0.614211
O13	O	1.666273	0.117979	0.114188
O14	O	2.166273	0.617979	0.614188
Zn15	Zn	1.483459	0.123599	0.150491
Zn16	Zn	1.983459	0.623599	0.650491
Zn17	Zn	1.483462	0.123595	-0.150672
Zn18	Zn	1.983462	0.623595	0.349328
O19	O	1.473441	0.245819	0.114202
O20	O	1.973441	0.745819	0.614202
C21	C	1.253860	0.128392	-0.000076
C22	C	1.753860	0.628392	0.499924
C23	C	1.114449	0.125923	-0.000068
C24	C	1.614449	0.625923	0.499932
C25	C	1.492658	-0.029922	-0.000097
C26	C	1.992658	0.470078	0.499903
C27	C	1.490199	-0.123185	-0.000107
C28	C	1.990199	0.376815	0.499893
C29	C	1.033969	0.201193	-0.000086
C30	C	1.533969	0.701193	0.499914
C31	C	0.902978	0.198868	-0.000110
C32	C	1.402978	0.698868	0.499890
C33	C	0.932962	0.045996	-0.000103
C34	C	1.432962	0.545996	0.499897
C35	C	1.063950	0.048322	-0.000069
C36	C	1.563950	0.548322	0.499931
C37	C	1.084468	0.278794	-0.000085
C38	C	1.584468	0.778794	0.499915
C39	C	1.003986	0.354070	-0.000104
C40	C	1.503986	0.854070	0.499896
C41	C	0.872996	0.351745	-0.000128
C42	C	1.372996	0.851745	0.499872
C43	C	0.822488	0.274144	-0.000132
C44	C	1.322488	0.774144	0.499868
C45	C	1.602229	-0.414072	-0.000107
C46	C	2.102229	0.085928	0.499893
C47	C	1.543992	-0.353382	0.112604
C48	C	2.043992	0.146618	0.612604
C49	C	1.481264	-0.458873	-0.000090
C50	C	1.981264	0.041127	0.499910
C51	C	1.543962	-0.353392	-0.112758
C52	C	2.043962	0.146608	0.387242
C53	C	1.485660	-0.293939	-0.000101
C54	C	1.985660	0.206061	0.499899
C55	C	1.422993	-0.399411	0.112713
C56	C	1.922993	0.100589	0.612713
C57	C	1.422980	-0.399427	-0.112750
C58	C	1.922980	0.100573	0.387250
C59	C	1.364654	-0.338756	-0.000012
C60	C	1.864654	0.161244	0.499988
C61	C	1.478735	-0.553888	-0.000083
C62	C	1.978735	-0.053888	0.499917
C63	C	1.488180	-0.198925	-0.000098
C64	C	1.988180	0.301075	0.499902
C65	C	1.713061	0.118802	-0.000108
C66	C	2.213061	0.618802	0.499892
C67	C	1.852471	0.121272	-0.000125
C68	C	2.352471	0.621272	0.499875
C69	C	1.474262	0.277116	-0.000087
C70	C	1.974262	0.777116	0.499913
C71	C	1.476722	0.370379	-0.000086
C72	C	1.976722	0.870379	0.499914
N73	N	1.483466	0.123602	0.356028
N74	N	1.983466	0.623602	0.856028
N75	N	1.483464	0.123586	-0.356209
N76	N	1.983464	0.623586	0.143791
C77	C	1.568873	0.067014	0.427948
C78	C	2.068873	0.567014	0.927948
C79	C	1.568870	0.067003	0.571830
C80	C	2.068870	0.567003	1.071830
C81	C	1.398048	0.180177	0.571861
C82	C	1.898048	0.680177	1.071861
C83	C	1.398046	0.180182	0.427981
C84	C	1.898046	0.680182	0.927981
C85	C	1.654293	0.010433	0.355994
C86	C	2.154293	0.510433	0.855994
C87	C	1.739709	-0.046159	0.427914
C88	C	2.239709	0.453841	0.927914
C89	C	1.739706	-0.046169	0.571797
C90	C	2.239706	0.453831	1.071797
C91	C	1.654287	0.010412	0.643760
C92	C	2.154287	0.510412	1.143760
H93	H	1.045119	0.417251	-0.000089
H94	H	1.545119	0.917251	0.499911
H95	H	1.264178	-0.306155	0.000060
H96	H	1.764178	0.193845	0.500060
O97	O	1.150768	-0.032859	-0.000059
O98	O	1.650768	0.467141	0.499941
H99	H	1.093649	-0.087211	-0.000088
H100	H	1.593649	0.412789	0.499912
H101	H	1.328498	0.226261	0.369424
H102	H	1.828498	0.726261	0.869424
O103	O	1.735198	-0.457462	-0.000114
O104	O	2.235198	0.042538	0.499886
H105	H	1.749668	-0.497932	0.092532
H106	H	2.249668	0.002068	0.592532
H107	H	1.654283	0.010394	0.760919
H108	H	2.154283	0.510394	1.260919
O109	O	1.355297	-0.426514	-0.238954
O110	O	1.855297	0.073486	0.261046
H111	H	1.405718	-0.408299	-0.332379
H112	H	1.905718	0.091701	0.167621
H113	H	1.328504	0.226244	0.630463
H114	H	1.828504	0.726244	1.130463
H115	H	1.595156	-0.332994	0.207883
H116	H	2.095156	0.167006	0.707883
H117	H	1.191125	0.280696	-0.000071
H118	H	1.691125	0.780696	0.499929
O119	O	1.611757	-0.326405	-0.238970
O120	O	2.111757	0.173595	0.261030
H121	H	1.546330	-0.282755	-0.300918
H122	H	2.046330	0.217245	0.199082
O123	O	1.355289	-0.426267	0.239075
O124	O	1.855289	0.073733	0.739075
H125	H	1.256989	-0.395325	0.239377
H126	H	1.756989	0.104675	0.739377
H127	H	1.654306	0.010438	0.238838
H128	H	2.154306	0.510438	0.738838
O129	O	0.786184	0.432929	-0.000134
O130	O	1.286184	0.932929	0.499866
H131	H	0.804148	0.470021	-0.093302
H132	H	1.304148	0.970021	0.406698
O133	O	0.681205	0.271630	-0.000155
O134	O	1.181205	0.771630	0.499845
H135	H	0.633723	0.337008	-0.000171
H136	H	1.133723	0.837008	0.499829
O137	O	1.831807	-0.107206	0.350310
O138	O	2.331807	0.392794	0.850310
H139	H	1.817461	-0.097695	0.238177
H140	H	2.317461	0.402305	0.738177
O141	O	1.831838	-0.107201	0.649364
O142	O	2.331838	0.392799	1.149364
H143	H	1.815880	-0.172784	0.621727
H144	H	2.315880	0.327216	1.121727
O145	O	0.878494	-0.037700	-0.000119
O146	O	1.378494	0.462300	0.499881
H147	H	0.773889	-0.026671	-0.000158
H148	H	1.273889	0.473329	0.499842
