data_functionalizedCrystal
_audit_creation_method	'MofGen! by Chris Wilmer'
_symmetry_space_group_name_H-M	'P1'
_symmetry_Int_Tables_number	1
_symmetry_cell_setting	triclinic
loop_
_symmetry_equiv_pos_as_xyz
  x,y,z
_cell_length_a	10.540539
_cell_length_b	17.699083
_cell_length_c	16.776229
_cell_angle_alpha	89.992455
_cell_angle_beta	89.994937
_cell_angle_gamma	83.904253
loop_
_atom_site_label
_atom_site_type_symbol
_atom_site_fract_x
_atom_site_fract_y
_atom_site_fract_z
O1	O	1.683941	0.106662	-0.066252
O2	O	1.314344	0.116711	-0.066262
O3	O	1.509585	0.001565	-0.066250
O4	O	1.488701	0.221808	-0.066265
O5	O	1.509559	0.001558	0.066326
O6	O	1.314318	0.116704	0.066314
O7	O	1.683915	0.106654	0.066324
Zn8	Zn	1.499113	0.111678	0.087368
Zn9	Zn	1.499147	0.111687	-0.087307
O10	O	1.488675	0.221800	0.066312
C11	C	1.508823	-0.026641	0.000038
C12	C	1.506578	-0.110673	0.000038
C13	C	1.267042	0.115954	0.000025
C14	C	1.126135	0.113699	0.000021
C15	C	1.621180	-0.158549	0.000043
C16	C	1.619064	-0.237506	0.000036
C17	C	1.502343	-0.268586	0.000030
C18	C	1.387732	-0.220704	0.000023
C19	C	1.389851	-0.141748	0.000025
C20	C	1.379187	-0.539122	0.000017
C21	C	1.377078	-0.618084	0.000018
C22	C	1.608400	-0.634880	0.000027
C23	C	1.610518	-0.555925	0.000029
C24	C	1.495908	-0.508050	0.000018
C25	C	1.498205	-0.422436	0.000024
C26	C	1.500045	-0.354198	0.000029
C27	C	0.944289	0.027300	0.000336
C28	C	1.090865	0.029586	0.000029
C29	C	1.063737	0.154182	-0.075686
C30	C	0.917245	0.151311	-0.075741
C31	C	0.916696	0.153014	0.075023
C32	C	1.063664	0.153789	0.076015
C33	C	1.731217	0.107412	0.000035
C34	C	1.872124	0.109666	0.000034
C35	C	1.489436	0.250006	0.000022
C36	C	1.491681	0.334038	0.000016
N37	N	1.499099	0.111671	0.206580
N38	N	1.499171	0.111688	-0.206518
C39	C	1.585577	0.060705	0.248302
C40	C	1.585584	0.060705	0.331754
C41	C	1.499118	0.111674	0.373483
C42	C	1.412630	0.162642	0.331754
C43	C	1.412618	0.162638	0.248304
C44	C	1.412676	0.162657	0.668301
C45	C	1.412697	0.162658	0.751758
C46	C	1.585642	0.060724	0.751752
C47	C	1.585630	0.060720	0.668302
C48	C	1.499139	0.111685	0.626581
C49	C	1.499130	0.111684	0.536092
C50	C	1.499131	0.111679	0.463969
H51	H	1.716228	-0.133251	0.000052
Br52	Br	0.835443	0.252134	-0.081475
Br53	Br	1.234313	-0.076772	0.000013
Br54	Br	1.295270	0.231810	0.388382
Br55	Br	1.135590	0.107323	-0.169593
H56	H	1.084961	0.215953	-0.078507
Br57	Br	0.864936	0.107637	0.170670
H58	H	1.285864	-0.500152	0.000008
H59	H	1.105156	0.124215	0.132023
H60	H	1.656001	0.019205	0.365725
H61	H	0.916300	-0.005933	0.054631
Br62	Br	1.702987	-0.008450	0.611673
Br63	Br	0.894960	-0.027854	-0.089639
Br64	Br	1.162852	-0.023506	0.090483
Br65	Br	1.161397	-0.023631	-0.090733
Br66	Br	1.763946	-0.699858	0.000042
Br67	Br	1.102160	0.256004	0.083628
H68	H	0.889593	0.121397	-0.132330
Br69	Br	0.836135	0.254276	0.075869
H70	H	1.655994	0.019204	0.214333
Br71	Br	1.703026	-0.008446	0.808377
H72	H	1.342281	0.204165	0.785732
H73	H	1.712384	-0.276484	0.000041
H74	H	1.282024	-0.643386	0.000015
Br75	Br	1.229324	-0.262882	0.000002
Br76	Br	1.295301	0.231822	0.611684
H77	H	1.705564	-0.530624	0.000037
Br78	Br	1.295240	0.231804	0.191680
