data_functionalizedCrystal
_audit_creation_method	'MofGen! by Chris Wilmer'
_symmetry_space_group_name_H-M	'P1'
_symmetry_Int_Tables_number	1
_symmetry_cell_setting	triclinic
loop_
_symmetry_equiv_pos_as_xyz
  x,y,z
_cell_length_a	16.109301
_cell_length_b	16.992695
_cell_length_c	14.586319
_cell_angle_alpha	89.995905
_cell_angle_beta	89.999213
_cell_angle_gamma	87.064852
loop_
_atom_site_label
_atom_site_type_symbol
_atom_site_fract_x
_atom_site_fract_y
_atom_site_fract_z
O1	O	1.109856	0.100784	-0.076183
O2	O	1.359856	0.350784	0.173817
O3	O	1.609856	0.600784	0.423817
O4	O	1.859856	0.850784	0.673817
O5	O	0.868631	0.113326	-0.076198
O6	O	1.118631	0.363326	0.173802
O7	O	1.368631	0.613326	0.423802
O8	O	1.618631	0.863326	0.673802
O9	O	0.988277	-0.007087	-0.076183
O10	O	1.238277	0.242913	0.173817
O11	O	1.488277	0.492913	0.423817
O12	O	1.738277	0.742913	0.673817
O13	O	0.990211	0.221197	-0.076198
O14	O	1.240211	0.471197	0.173802
O15	O	1.490211	0.721197	0.423802
O16	O	1.740211	0.971197	0.673802
O17	O	0.988268	-0.007089	0.076298
O18	O	1.238268	0.242911	0.326298
O19	O	1.488268	0.492911	0.576298
O20	O	1.738268	0.742911	0.826298
O21	O	0.868622	0.113324	0.076283
O22	O	1.118622	0.363324	0.326283
O23	O	1.368622	0.613324	0.576283
O24	O	1.618622	0.863324	0.826283
O25	O	1.109847	0.100782	0.076298
O26	O	1.359847	0.350782	0.326298
O27	O	1.609847	0.600782	0.576298
O28	O	1.859847	0.850782	0.826298
Cu29	Cu	0.989234	0.107053	0.090213
Cu30	Cu	1.239234	0.357053	0.340213
Cu31	Cu	1.489234	0.607053	0.590213
Cu32	Cu	1.739234	0.857053	0.840213
Cu33	Cu	0.989244	0.107055	-0.090113
Cu34	Cu	1.239244	0.357055	0.159887
Cu35	Cu	1.489244	0.607055	0.409887
Cu36	Cu	1.739244	0.857055	0.659887
O37	O	0.990202	0.221196	0.076283
O38	O	1.240202	0.471196	0.326283
O39	O	1.490202	0.721196	0.576283
O40	O	1.740202	0.971196	0.826283
C41	C	0.837618	0.112817	0.000041
C42	C	1.087618	0.362817	0.250041
C43	C	1.337618	0.612817	0.500041
C44	C	1.587618	0.862817	0.750041
C45	C	0.745221	0.111294	0.000035
C46	C	0.995221	0.361294	0.250035
C47	C	1.245221	0.611294	0.500035
C48	C	1.495221	0.861294	0.750035
C49	C	0.527480	0.179203	0.000042
C50	C	0.777480	0.429203	0.250042
C51	C	1.027480	0.679203	0.500042
C52	C	1.277480	0.929203	0.750042
C53	C	0.440664	0.177766	0.000048
C54	C	0.690664	0.427766	0.250048
C55	C	0.940664	0.677766	0.500048
C56	C	1.190664	0.927766	0.750048
C57	C	0.451005	0.034899	0.000053
C58	C	0.701005	0.284899	0.250053
C59	C	0.951005	0.534899	0.500053
C60	C	1.201005	0.784899	0.750053
C61	C	0.537819	0.036337	0.000054
C62	C	0.787819	0.286337	0.250054
C63	C	1.037819	0.536337	0.500054
C64	C	1.287819	0.786337	0.750054
C65	C	0.576055	0.108492	0.000043
C66	C	0.826055	0.358492	0.250043
C67	C	1.076055	0.608492	0.500043
C68	C	1.326055	0.858492	0.750043
C69	C	0.402424	0.105616	0.000049
C70	C	0.652424	0.355616	0.250049
C71	C	0.902424	0.605616	0.500049
C72	C	1.152424	0.855616	0.750049
C73	C	0.308294	0.104057	0.000055
C74	C	0.558294	0.354057	0.250055
C75	C	0.808294	0.604057	0.500055
C76	C	1.058294	0.854057	0.750055
C77	C	0.670191	0.110051	0.000039
C78	C	0.920191	0.360051	0.250039
C79	C	1.170191	0.610051	0.500039
C80	C	1.420191	0.860051	0.750039
C81	C	0.985784	-0.036300	0.000057
C82	C	1.235784	0.213700	0.250057
C83	C	1.485784	0.463700	0.500057
C84	C	1.735784	0.713700	0.750057
C85	C	0.978361	-0.123343	0.000056
C86	C	1.228361	0.126657	0.250056
C87	C	1.478361	0.376657	0.500056
C88	C	1.728361	0.626657	0.750056
C89	C	1.049987	-0.173601	0.000062
C90	C	1.299987	0.076399	0.250062
C91	C	1.549987	0.326399	0.500062
C92	C	1.799987	0.576399	0.750062
C93	C	1.043007	-0.255386	0.000052
C94	C	1.293007	-0.005386	0.250052
C95	C	1.543007	0.244614	0.500052
C96	C	1.793007	0.494614	0.750052
C97	C	0.964400	-0.286911	0.000045
C98	C	1.214400	-0.036911	0.250045
C99	C	1.464400	0.213089	0.500045
C100	C	1.714400	0.463089	0.750045
C101	C	0.892768	-0.236645	0.000037
C102	C	1.142768	0.013355	0.250037
C103	C	1.392768	0.263355	0.500037
C104	C	1.642768	0.513355	0.750037
C105	C	0.899749	-0.154862	0.000039
C106	C	1.149749	0.095138	0.250039
C107	C	1.399749	0.345138	0.500039
C108	C	1.649749	0.595138	0.750039
C109	C	0.935467	-0.530501	0.000030
C110	C	1.185467	-0.280501	0.250030
C111	C	1.435467	-0.030501	0.500030
C112	C	1.685467	0.219499	0.750030
C113	C	0.928491	-0.612291	0.000030
C114	C	1.178491	-0.362291	0.250030
C115	C	1.428491	-0.112291	0.500030
C116	C	1.678491	0.137709	0.750030
C117	C	1.078731	-0.631026	0.000045
C118	C	1.328731	-0.381026	0.250045
C119	C	1.578731	-0.131026	0.500045
C120	C	1.828731	0.118974	0.750045
C121	C	1.085704	-0.549240	0.000053
C122	C	1.335704	-0.299240	0.250053
C123	C	1.585704	-0.049240	0.500053
C124	C	1.835704	0.200760	0.750053
C125	C	1.014073	-0.498982	0.000040
C126	C	1.264073	-0.248982	0.250040
C127	C	1.514073	0.001018	0.500040
C128	C	1.764073	0.251018	0.750040
N129	N	0.957263	-0.370508	0.000038
N130	N	1.207263	-0.120508	0.250038
N131	N	1.457263	0.129492	0.500038
N132	N	1.707263	0.379492	0.750038
N133	N	1.021210	-0.415387	0.000040
N134	N	1.271210	-0.165387	0.250040
N135	N	1.521210	0.084613	0.500040
N136	N	1.771210	0.334613	0.750040
C137	C	1.140860	0.101291	0.000057
C138	C	1.390860	0.351291	0.250057
C139	C	1.640860	0.601291	0.500057
C140	C	1.890860	0.851291	0.750057
C141	C	1.233257	0.102814	0.000057
C142	C	1.483257	0.352814	0.250057
C143	C	1.733257	0.602814	0.500057
C144	C	1.983257	0.852814	0.750057
C145	C	0.992694	0.250408	0.000041
C146	C	1.242694	0.500408	0.250041
C147	C	1.492694	0.750408	0.500041
C148	C	1.742694	1.000408	0.750041
C149	C	1.000118	0.337451	0.000036
C150	C	1.250118	0.587451	0.250036
C151	C	1.500118	0.837451	0.500036
C152	C	1.750118	1.087451	0.750036
N153	N	0.989232	0.107051	0.217045
N154	N	1.239232	0.357051	0.467045
N155	N	1.489232	0.607051	0.717045
N156	N	1.739232	0.857051	0.967045
N157	N	0.989252	0.107051	-0.216945
N158	N	1.239252	0.357051	0.033055
N159	N	1.489252	0.607051	0.283055
N160	N	1.739252	0.857051	0.533055
C161	C	1.042231	0.053750	0.452058
C162	C	1.292231	0.303750	0.702058
C163	C	1.542231	0.553750	0.952058
C164	C	1.792231	0.803750	1.202058
C165	C	1.042233	0.053748	0.548039
C166	C	1.292233	0.303748	0.798039
C167	C	1.542233	0.553748	1.048039
C168	C	1.792233	0.803748	1.298039
C169	C	0.936247	0.160355	0.548036
C170	C	1.186247	0.410355	0.798036
C171	C	1.436247	0.660355	1.048036
C172	C	1.686247	0.910355	1.298036
C173	C	0.936241	0.160352	0.452056
C174	C	1.186241	0.410352	0.702056
C175	C	1.436241	0.660352	0.952056
C176	C	1.686241	0.910352	1.202056
C177	C	0.989238	0.107051	0.404070
C178	C	1.239238	0.357051	0.654070
C179	C	1.489238	0.607051	0.904070
C180	C	1.739238	0.857051	1.154070
C181	C	0.989246	0.107051	0.596030
C182	C	1.239246	0.357051	0.846030
C183	C	1.489246	0.607051	1.096030
C184	C	1.739246	0.857051	1.346030
C185	C	0.989248	0.107050	0.700098
C186	C	1.239248	0.357050	0.950098
C187	C	1.489248	0.607050	1.200098
C188	C	1.739248	0.857050	1.450098
C189	C	0.989235	0.107051	0.299996
C190	C	1.239235	0.357051	0.549996
C191	C	1.489235	0.607051	0.799996
C192	C	1.739235	0.857051	1.049996
H193	H	0.577371	-0.021248	0.000057
H194	H	0.827371	0.228752	0.250057
H195	H	1.077371	0.478752	0.500057
H196	H	1.327371	0.728752	0.750057
H197	H	0.828765	-0.262319	0.000024
H198	H	1.078765	-0.012319	0.250024
H199	H	1.328765	0.237681	0.500024
H200	H	1.578765	0.487681	0.750024
F201	F	0.388970	0.253027	0.000048
F202	F	0.638970	0.503027	0.250048
F203	F	0.888970	0.753027	0.500048
F204	F	1.138970	1.003027	0.750048
H205	H	1.137048	-0.671954	0.000053
H206	H	1.387048	-0.421954	0.250053
H207	H	1.637048	-0.171954	0.500053
H208	H	1.887048	0.078046	0.750053
H209	H	1.113997	-0.147941	0.000074
H210	H	1.363997	0.102059	0.250074
H211	H	1.613997	0.352059	0.500074
H212	H	1.863997	0.602059	0.750074
F213	F	0.568170	0.255996	0.000035
F214	F	0.818170	0.505996	0.250035
F215	F	1.068170	0.755996	0.500035
F216	F	1.318170	1.005996	0.750035
F217	F	0.410304	-0.041888	0.000060
F218	F	0.660304	0.208112	0.250060
F219	F	0.910304	0.458112	0.500060
F220	F	1.160304	0.708112	0.750060
F221	F	0.859229	-0.477023	0.000014
F222	F	1.109229	-0.227023	0.250014
F223	F	1.359229	0.022977	0.500014
F224	F	1.609229	0.272977	0.750014
H225	H	0.893084	0.203757	0.412982
H226	H	1.143084	0.453757	0.662982
H227	H	1.393084	0.703757	0.912982
H228	H	1.643084	0.953757	1.162982
H229	H	0.841423	-0.113942	0.000035
H230	H	1.091423	0.136058	0.250035
H231	H	1.341423	0.386058	0.500035
H232	H	1.591423	0.636058	0.750035
H233	H	1.101332	-0.296304	0.000059
H234	H	1.351332	-0.046304	0.250059
H235	H	1.601332	0.203696	0.500059
H236	H	1.851332	0.453696	0.750059
H237	H	1.149714	-0.523580	0.000059
H238	H	1.399714	-0.273580	0.250059
H239	H	1.649714	-0.023580	0.500059
H240	H	1.899714	0.226420	0.750059
H241	H	0.864477	-0.637954	0.000039
H242	H	1.114477	-0.387954	0.250039
H243	H	1.364477	-0.137954	0.500039
H244	H	1.614477	0.112046	0.750039
F245	F	1.098633	-0.002981	0.400991
F246	F	1.348633	0.247019	0.650991
F247	F	1.598633	0.497019	0.900991
F248	F	1.848633	0.747019	1.150991
H249	H	1.085384	0.010345	0.587108
H250	H	1.335384	0.260345	0.837108
H251	H	1.585384	0.510345	1.087108
H252	H	1.835384	0.760345	1.337108
F253	F	0.879849	0.217081	0.599112
F254	F	1.129849	0.467081	0.849112
F255	F	1.379849	0.717081	1.099112
F256	F	1.629849	0.967081	1.349112
