data_functionalizedCrystal
_audit_creation_method	'MofGen! by Chris Wilmer'
_symmetry_space_group_name_H-M	'P1'
_symmetry_Int_Tables_number	1
_symmetry_cell_setting	triclinic
loop_
_symmetry_equiv_pos_as_xyz
  x,y,z
_cell_length_a	25.639242
_cell_length_b	25.639239
_cell_length_c	25.639233
_cell_angle_alpha	90.018747
_cell_angle_beta	90.022166
_cell_angle_gamma	90.034213
loop_
_atom_site_label
_atom_site_type_symbol
_atom_site_fract_x
_atom_site_fract_y
_atom_site_fract_z
Zn1	Zn	0.799225	-0.208277	0.295742
Zn2	Zn	1.299225	0.291723	0.795742
Zn3	Zn	0.799149	-0.295696	0.208307
Zn4	Zn	1.299149	0.204304	0.708307
Zn5	Zn	0.711801	-0.208269	0.208306
Zn6	Zn	1.211801	0.291731	0.708306
Zn7	Zn	0.711746	-0.295676	0.295696
Zn8	Zn	1.211746	0.204324	0.795696
O9	O	0.755480	-0.251979	0.252013
O10	O	1.255480	0.248021	0.752013
O11	O	0.872380	-0.219884	0.284163
O12	O	1.372380	0.280116	0.784163
O13	O	0.787553	-0.284103	0.135141
O14	O	1.287553	0.215897	0.635141
O15	O	0.723453	-0.135105	0.219924
O16	O	1.223453	0.364895	0.719924
O17	O	0.872324	-0.284111	0.219924
O18	O	1.372324	0.215889	0.719924
O19	O	0.787683	-0.135111	0.284163
O20	O	1.287683	0.364889	0.784163
O21	O	0.723379	-0.219871	0.135141
O22	O	1.223379	0.280129	0.635141
O23	O	0.638629	-0.219853	0.219880
O24	O	1.138629	0.280147	0.719880
O25	O	0.723360	-0.284078	0.368868
O26	O	1.223360	0.215922	0.868868
O27	O	0.638589	-0.284070	0.284085
O28	O	1.138589	0.215930	0.784085
O29	O	0.787630	-0.219866	0.368901
O30	O	1.287630	0.280134	0.868901
O31	O	0.787499	-0.368858	0.219880
O32	O	1.287499	0.131142	0.719880
O33	O	0.723286	-0.368844	0.284085
O34	O	1.223286	0.131156	0.784085
C35	C	0.619638	-0.251959	0.251977
C36	C	1.119638	0.248041	0.751977
C37	C	0.561524	-0.251963	0.251975
C38	C	1.061524	0.248037	0.751975
C39	C	0.201149	-0.285473	0.285413
C40	C	0.701149	0.214527	0.785413
C41	C	0.146544	-0.285477	0.285421
C42	C	0.646544	0.214523	0.785421
O43	O	0.118297	-0.313943	0.313821
O44	O	0.618297	0.186057	0.813821
N45	N	0.119241	-0.251994	0.252047
N46	N	0.619241	0.248006	0.752047
C47	C	0.146545	-0.218502	0.218666
C48	C	0.646545	0.281498	0.718666
O49	O	0.118308	-0.190022	0.190280
O50	O	0.618308	0.309978	0.690280
C51	C	0.201149	-0.218496	0.218661
C52	C	0.701149	0.281504	0.718661
C53	C	0.228449	-0.251985	0.252034
C54	C	0.728449	0.248015	0.752034
C55	C	0.228449	-0.318959	0.318783
C56	C	0.728449	0.181041	0.818783
C57	C	0.283049	-0.318956	0.318774
C58	C	0.783049	0.181044	0.818774
C59	C	0.310350	-0.285468	0.285395
C60	C	0.810350	0.214532	0.785395
C61	C	0.283049	-0.251983	0.252024
C62	C	0.783049	0.248017	0.752024
C63	C	0.228452	-0.185002	0.185283
C64	C	0.728452	0.314998	0.685283
C65	C	0.283059	-0.185000	0.185281
C66	C	0.783059	0.315000	0.685281
C67	C	0.310359	-0.218488	0.218654
C68	C	0.810359	0.281512	0.718654
C69	C	0.364950	-0.218492	0.218636
C70	C	0.864950	0.281508	0.718636
N71	N	0.392253	-0.251974	0.252010
N72	N	0.892253	0.248026	0.752010
C73	C	0.364953	-0.285463	0.285389
C74	C	0.864953	0.214537	0.785389
C75	C	0.031875	-0.218515	0.218680
C76	C	0.531875	0.281485	0.718680
C77	C	-0.022728	-0.218523	0.218683
C78	C	0.477272	0.281477	0.718683
C79	C	-0.022725	-0.285497	0.285438
C80	C	0.477275	0.214503	0.785438
C81	C	0.031878	-0.285492	0.285433
C82	C	0.531878	0.214508	0.785433
C83	C	0.059178	-0.251998	0.252054
C84	C	0.559178	0.248002	0.752054
C85	C	0.479618	-0.285455	0.285368
C86	C	0.979618	0.214545	0.785368
C87	C	0.534223	-0.285451	0.285354
C88	C	1.034223	0.214549	0.785354
C89	C	0.534216	-0.218475	0.218601
C90	C	1.034216	0.281525	0.718601
C91	C	0.479615	-0.218481	0.218612
C92	C	0.979615	0.281519	0.718612
C93	C	0.452318	-0.251972	0.252000
C94	C	0.952318	0.248028	0.752000
O95	O	0.393232	-0.190038	0.190252
O96	O	0.893232	0.309962	0.690252
O97	O	0.393197	-0.313933	0.313776
O98	O	0.893197	0.186067	0.813776
C99	C	0.755392	-0.387822	0.251989
C100	C	1.255392	0.112178	0.751989
C101	C	0.755403	-0.445936	0.251996
C102	C	1.255403	0.054064	0.751996
C103	C	0.789004	-0.806294	0.218638
C104	C	1.289004	-0.306294	0.718638
C105	C	0.789024	-0.860898	0.218645
C106	C	1.289024	-0.360898	0.718645
O107	O	0.817502	-0.889131	0.190257
O108	O	1.317502	-0.389131	0.690257
N109	N	0.755572	-0.888218	0.252048
N110	N	1.255572	-0.388218	0.752048
C111	C	0.722102	-0.860932	0.285449
C112	C	1.222102	-0.360932	0.785449
O113	O	0.693651	-0.889184	0.313861
O114	O	1.193651	-0.389184	0.813861
C115	C	0.722085	-0.806328	0.285444
C116	C	1.222085	-0.306328	0.785444
C117	C	0.755535	-0.779011	0.252036
C118	C	1.255535	-0.279011	0.752036
C119	C	0.822452	-0.778976	0.185233
C120	C	1.322452	-0.278976	0.685233
C121	C	0.822431	-0.724376	0.185226
C122	C	1.322431	-0.224376	0.685226
C123	C	0.788962	-0.697093	0.218623
C124	C	1.288962	-0.197093	0.718623
C125	C	0.755514	-0.724410	0.252028
C126	C	1.255514	-0.224410	0.752028
C127	C	0.688617	-0.779042	0.318847
C128	C	1.188617	-0.279042	0.818847
C129	C	0.688603	-0.724435	0.318840
C130	C	1.188603	-0.224435	0.818840
C131	C	0.722053	-0.697118	0.285432
C132	C	1.222053	-0.197118	0.785432
C133	C	0.722024	-0.642527	0.285418
C134	C	1.222024	-0.142527	0.785418
N135	N	0.755475	-0.615206	0.252016
N136	N	1.255475	-0.115206	0.752016
C137	C	0.788944	-0.642490	0.218618
C138	C	1.288944	-0.142490	0.718618
C139	C	0.722141	-0.975602	0.285457
C140	C	1.222141	-0.475602	0.785457
C141	C	0.722155	-1.030204	0.285459
C142	C	1.222155	-0.530204	0.785459
C143	C	0.789078	-1.030167	0.218656
C144	C	1.289078	-0.530167	0.718656
C145	C	0.789061	-0.975564	0.218652
C146	C	1.289061	-0.475564	0.718652
C147	C	0.755593	-0.948282	0.252055
C148	C	1.255593	-0.448282	0.752055
C149	C	0.788897	-0.527824	0.218605
C150	C	1.288897	-0.027824	0.718605
C151	C	0.788872	-0.473219	0.218599
C152	C	1.288872	0.026781	0.718599
C153	C	0.721951	-0.473261	0.285403
C154	C	1.221951	0.026739	0.785403
C155	C	0.721974	-0.527862	0.285408
C156	C	1.221974	-0.027862	0.785408
C157	C	0.755452	-0.555142	0.252007
C158	C	1.255452	-0.055142	0.752007
O159	O	0.693562	-0.614260	0.313793
O160	O	1.193562	-0.114260	0.813793
O161	O	0.817396	-0.614231	0.190216
O162	O	1.317396	-0.114231	0.690216
C163	C	0.891853	-0.252000	0.252049
C164	C	1.391853	0.248000	0.752049
C165	C	0.949967	-0.252009	0.252064
C166	C	1.449967	0.247991	0.752064
C167	C	0.755497	-0.251970	0.388386
C168	C	1.255497	0.248030	0.888386
C169	C	0.755504	-0.251966	0.446500
C170	C	1.255504	0.248034	0.946500
C171	C	0.755583	-0.115606	0.252048
C172	C	1.255583	0.384394	0.752048
C173	C	0.755627	-0.057492	0.252064
C174	C	1.255627	0.442508	0.752064
C175	C	0.755494	-0.251951	0.116170
C176	C	1.255494	0.248049	0.616170
C177	C	0.755588	-0.251807	0.058057
C178	C	1.255588	0.248193	0.558057
C179	C	0.789012	-0.218432	0.806886
C180	C	1.289012	0.281568	1.306886
C181	C	0.789019	-0.218417	0.861491
C182	C	1.289019	0.281583	1.361491
O183	O	0.817466	-0.189967	0.889747
O184	O	1.317466	0.310033	1.389747
N185	N	0.755562	-0.251844	0.888783
N186	N	1.255562	0.248156	1.388783
C187	C	0.722093	-0.285283	0.861468
C188	C	1.222093	0.214717	1.361468
O189	O	0.693636	-0.313713	0.889695
O190	O	1.193636	0.186287	1.389695
C191	C	0.722084	-0.285294	0.806864
C192	C	1.222084	0.214706	1.306864
C193	C	0.755547	-0.251870	0.779575
C194	C	1.255547	0.248130	1.279575
C195	C	0.822472	-0.185009	0.779597
C196	C	1.322472	0.314991	1.279597
C197	C	0.822466	-0.185025	0.724997
C198	C	1.322466	0.314975	1.224997
C199	C	0.789000	-0.218462	0.697685
C200	C	1.289000	0.281538	1.197685
C201	C	0.755541	-0.251885	0.724974
C202	C	1.255541	0.248115	1.224974
C203	C	0.688613	-0.318731	0.779550
C204	C	1.188613	0.181269	1.279550
C205	C	0.688607	-0.318739	0.724943
C206	C	1.188607	0.181261	1.224943
C207	C	0.722069	-0.285314	0.697654
C208	C	1.222069	0.214686	1.197654
C209	C	0.722070	-0.285338	0.643063
C210	C	1.222070	0.214662	1.143063
N211	N	0.755526	-0.251912	0.615771
N212	N	1.255526	0.248088	1.115771
C213	C	0.788992	-0.218474	0.643082
C214	C	1.288992	0.281526	1.143082
C215	C	0.722113	-0.285256	0.976138
C216	C	1.222113	0.214744	1.476138
C217	C	0.722124	-0.285247	1.030741
C218	C	1.222124	0.214753	1.530741
C219	C	0.789049	-0.218381	1.030760
C220	C	1.289049	0.281619	1.530760
C221	C	0.789041	-0.218392	0.976157
C222	C	1.289041	0.281608	1.476157
C223	C	0.755570	-0.251829	0.948846
C224	C	1.255570	0.248171	1.448846
C225	C	0.788977	-0.218509	0.528417
C226	C	1.288977	0.281491	1.028417
C227	C	0.788970	-0.218529	0.473811
C228	C	1.288970	0.281471	0.973811
C229	C	0.722043	-0.285393	0.473797
C230	C	1.222043	0.214607	0.973797
C231	C	0.722052	-0.285375	0.528397
C232	C	1.222052	0.214625	1.028397
C233	C	0.755521	-0.251929	0.555706
C234	C	1.255521	0.248071	1.055706
O235	O	0.693635	-0.313773	0.614771
O236	O	1.193635	0.186227	1.114771
O237	O	0.817439	-0.190044	0.614847
O238	O	1.317439	0.309956	1.114847
H239	H	-0.044963	-0.312763	0.312619
H240	H	0.455037	0.187237	0.812619
O241	O	0.453050	-0.318016	0.317726
O242	O	0.953050	0.181984	0.817726
C243	C	0.421442	-0.351755	0.287905
C244	C	0.921442	0.148245	0.787905
H245	H	0.413241	-0.333256	0.248319
H246	H	0.913241	0.166744	0.748319
H247	H	0.442467	-0.390488	0.282082
H248	H	0.942467	0.109512	0.782082
C249	C	0.379663	-0.383999	0.365290
C250	C	0.879663	0.116001	0.865290
C251	C	0.369587	-0.361276	0.316672
C252	C	0.869587	0.138724	0.816672
H253	H	0.347677	-0.389874	0.383035
H254	H	0.847677	0.110126	0.883035
H255	H	0.400959	-0.361270	0.385382
H256	H	0.900959	0.138730	0.885382
H257	H	0.397185	-0.416274	0.360430
H258	H	0.897185	0.083726	0.860430
H259	H	0.352071	-0.328999	0.321532
H260	H	0.852071	0.171001	0.821532
H261	H	0.348286	-0.384000	0.296581
H262	H	0.848286	0.116000	0.796581
H263	H	0.694912	-1.052442	0.312659
H264	H	1.194912	-0.552442	0.812659
H265	H	0.661350	-0.702225	0.346042
H266	H	1.161350	-0.202225	0.846042
O267	O	0.821515	-0.186094	0.554997
O268	O	1.321515	0.313906	1.054997
C269	C	0.855277	-0.215857	0.586578
C270	C	1.355277	0.284143	1.086578
H271	H	0.836807	-0.255473	0.594758
H272	H	1.336807	0.244527	1.094758
H273	H	0.894013	-0.221618	0.565540
H274	H	1.394013	0.278382	1.065540
C275	C	0.887465	-0.138416	0.628400
C276	C	1.387465	0.361584	1.128400
C277	C	0.864778	-0.187071	0.638450
C278	C	1.364778	0.312929	1.138450
H279	H	0.893328	-0.120659	0.660395
H280	H	1.393328	0.379341	1.160395
H281	H	0.864721	-0.118363	0.607122
H282	H	1.364721	0.381637	1.107122
H283	H	0.919743	-0.143223	0.610867
H284	H	1.419743	0.356777	1.110867
H285	H	0.832498	-0.182263	0.655976
H286	H	1.332498	0.317737	1.155976
H287	H	0.887517	-0.207122	0.659732
H288	H	1.387517	0.292878	1.159732
H289	H	0.849709	-0.801185	0.158037
H290	H	1.349709	-0.301185	0.658037
H291	H	0.849723	-0.157777	0.801828
H292	H	1.349723	0.342223	1.301828
H293	H	0.305272	-0.346225	0.345950
H294	H	0.805272	0.153775	0.845950
O295	O	0.821469	-0.185893	0.949594
O296	O	1.321469	0.314107	1.449594
C297	C	0.791721	-0.152113	0.918021
C298	C	1.291721	0.347887	1.418021
H299	H	0.752085	-0.170550	0.909824
H300	H	1.252085	0.329450	1.409824
H301	H	0.786005	-0.113366	0.939074
H302	H	1.286005	0.386634	1.439074
C303	C	0.869171	-0.120006	0.876231
C304	C	1.369171	0.379994	1.376231
C305	C	0.820491	-0.142653	0.866160
C306	C	1.320491	0.357347	1.366160
H307	H	0.886918	-0.114168	0.844242
H308	H	1.386918	0.385832	1.344242
H309	H	0.889213	-0.142762	0.897504
H310	H	1.389213	0.357238	1.397504
H311	H	0.864401	-0.087719	0.893777
H312	H	1.364401	0.412281	1.393777
H313	H	0.825262	-0.174942	0.848621
H314	H	1.325262	0.325058	1.348621
H315	H	0.800450	-0.119902	0.844883
H316	H	1.300450	0.380098	1.344883
H317	H	0.661364	-0.345949	0.801759
H318	H	1.161364	0.154051	1.301759
H319	H	0.816333	-1.052391	0.191464
H320	H	1.316333	-0.552391	0.691464
H321	H	-0.044951	-0.191258	0.191502
H322	H	0.455049	0.308742	0.691502
H323	H	0.694699	-0.451039	0.312594
H324	H	1.194699	0.048961	0.812594
O325	O	0.058315	-0.318036	0.317903
O326	O	0.558315	0.181964	0.817903
C327	C	0.022503	-0.347602	0.347352
C328	C	0.522503	0.152398	0.847352
H329	H	-0.016408	-0.326192	0.349200
H330	H	0.483592	0.173808	0.849200
H331	H	0.016667	-0.387284	0.328134
H332	H	0.516667	0.112716	0.828134
C333	C	0.091620	-0.381516	0.400716
C334	C	0.591620	0.118484	0.900716
C335	C	0.043831	-0.355217	0.402989
C336	C	0.543831	0.144783	0.902989
H337	H	0.104777	-0.386215	0.435035
H338	H	0.604777	0.113785	0.935035
H339	H	0.115748	-0.361598	0.380874
H340	H	0.615748	0.138402	0.880874
H341	H	0.086751	-0.414581	0.384699
H342	H	0.586751	0.085419	0.884699
H343	H	0.048702	-0.322150	0.419000
H344	H	0.548702	0.177850	0.919000
H345	H	0.019704	-0.375129	0.422835
H346	H	0.519704	0.124871	0.922835
O347	O	0.821605	-0.949111	0.186185
O348	O	1.321605	-0.449111	0.686185
C349	C	0.851136	-0.984907	0.156699
C350	C	1.351136	-0.484907	0.656699
H351	H	0.852940	-1.023819	0.178123
H352	H	1.352940	-0.523819	0.678123
H353	H	0.832016	-0.990749	0.116971
H354	H	1.332016	-0.490749	0.616971
C355	C	0.904565	-0.915764	0.122906
C356	C	1.404565	-0.415764	0.622906
C357	C	0.906786	-0.963554	0.149220
C358	C	1.406786	-0.463554	0.649220
H359	H	0.938892	-0.902592	0.118290
H360	H	1.438892	-0.402592	0.618290
H361	H	0.884669	-0.891646	0.142769
H362	H	1.384669	-0.391646	0.642769
H363	H	0.888630	-0.920638	0.089802
H364	H	1.388630	-0.420638	0.589802
H365	H	0.922715	-0.958678	0.182326
H366	H	1.422715	-0.458678	0.682326
H367	H	0.926686	-0.987670	0.129362
H368	H	1.426686	-0.487670	0.629362
O369	O	0.854854	-0.697822	0.152721
O370	O	1.354854	-0.197822	0.652721
C371	C	0.825109	-0.666268	0.118918
C372	C	1.325109	-0.166268	0.618918
H373	H	0.783935	-0.682756	0.115644
H374	H	1.283935	-0.182756	0.615644
H375	H	0.823289	-0.624878	0.135072
H376	H	1.323289	-0.124878	0.635072
C377	C	0.901265	-0.645190	0.068615
C378	C	1.401265	-0.145190	0.568615
C379	C	0.850696	-0.665443	0.064591
C380	C	1.350696	-0.165443	0.564591
H381	H	0.917049	-0.644678	0.035105
H382	H	1.417049	-0.144678	0.535105
H383	H	0.921306	-0.666446	0.091390
H384	H	1.421306	-0.166446	0.591390
H385	H	0.899742	-0.610700	0.082079
H386	H	1.399742	-0.110700	0.582079
H387	H	0.852220	-0.699935	0.051134
H388	H	1.352220	-0.199935	0.551134
H389	H	0.830656	-0.644193	0.041813
H390	H	1.330656	-0.144193	0.541813
H391	H	0.816298	-0.191153	1.053007
H392	H	1.316298	0.308847	1.553007
O393	O	0.689574	-0.949183	0.317919
O394	O	1.189574	-0.449183	0.817919
C395	C	0.660065	-0.985011	0.347407
C396	C	1.160065	-0.485011	0.847407
H397	H	0.658287	-1.023943	0.325989
H398	H	1.158287	-0.523943	0.825989
H399	H	0.679185	-0.990785	0.387137
H400	H	1.179185	-0.490785	0.887137
C401	C	0.606587	-0.915939	0.381187
C402	C	1.106587	-0.415939	0.881187
C403	C	0.604400	-0.963754	0.354879
C404	C	1.104400	-0.463754	0.854879
H405	H	0.572251	-0.902826	0.385798
H406	H	1.072251	-0.402826	0.885798
H407	H	0.626469	-0.891800	0.361322
H408	H	1.126469	-0.391800	0.861322
H409	H	0.622523	-0.920758	0.414292
H410	H	1.122523	-0.420758	0.914292
H411	H	0.588471	-0.958934	0.321772
H412	H	1.088471	-0.458934	0.821772
H413	H	0.584514	-0.987891	0.374739
H414	H	1.084514	-0.487891	0.874739
H415	H	0.457387	-0.191213	0.191436
H416	H	0.957387	0.308787	0.691436
H417	H	0.661376	-0.801275	0.346049
H418	H	1.161376	-0.301275	0.846049
H419	H	0.694857	-0.312487	0.953905
H420	H	1.194857	0.187513	1.453905
H421	H	0.054099	-0.191241	0.191496
H422	H	0.554099	0.308759	0.691496
H423	H	0.694738	-0.550105	0.312613
H424	H	1.194738	-0.050105	0.812613
O425	O	0.202015	-0.351543	0.351226
O426	O	0.702015	0.148457	0.851226
C427	C	0.237831	-0.381082	0.380683
C428	C	0.737831	0.118918	0.880683
H429	H	0.276740	-0.382847	0.359256
H430	H	0.776740	0.117153	0.859256
H431	H	0.243668	-0.361997	0.420427
H432	H	0.743668	0.138003	0.920427
C433	C	0.168719	-0.434579	0.414435
C434	C	0.668719	0.065421	0.914435
C435	C	0.216507	-0.436750	0.388115
C436	C	0.716507	0.063250	0.888115
H437	H	0.155565	-0.468917	0.419022
H438	H	0.655565	0.031083	0.919022
H439	H	0.144588	-0.414677	0.394591
H440	H	0.644588	0.085323	0.894591
H441	H	0.173589	-0.418672	0.447552
H442	H	0.673589	0.081328	0.947552
H443	H	0.211634	-0.452651	0.354996
H444	H	0.711634	0.047349	0.854996
H445	H	0.240636	-0.456656	0.407954
H446	H	0.740636	0.043344	0.907954
O447	O	0.821493	-0.186007	0.447384
O448	O	1.321493	0.313993	0.947384
C449	C	0.851038	-0.156500	0.483203
C450	C	1.351038	0.343500	0.983203
H451	H	0.829626	-0.154678	0.522120
H452	H	1.329626	0.345322	1.022120
H453	H	0.890733	-0.175651	0.489022
H454	H	1.390733	0.324349	0.989022
C455	C	0.884912	-0.103098	0.414103
C456	C	1.384912	0.396902	0.914103
C457	C	0.858611	-0.100856	0.461900
C458	C	1.358611	0.399144	0.961900
H459	H	0.889586	-0.068775	0.400962
H460	H	1.389586	0.431225	0.900962
H461	H	0.865008	-0.122978	0.389971
H462	H	1.365008	0.377022	0.889971
H463	H	0.917988	-0.119059	0.418958
H464	H	1.417988	0.380941	0.918958
H465	H	0.825533	-0.084901	0.457043
H466	H	1.325533	0.415099	0.957043
H467	H	0.878510	-0.080972	0.486031
H468	H	1.378510	0.419028	0.986031
O469	O	0.309554	-0.152521	0.152779
O470	O	0.809554	0.347479	0.652779
C471	C	0.296165	-0.163863	0.100652
C472	C	0.796165	0.336137	0.600652
H473	H	0.281130	-0.205629	0.097940
H474	H	0.781130	0.294371	0.597940
H475	H	0.264477	-0.135813	0.087042
H476	H	0.764477	0.364187	0.587042
C477	C	0.363119	-0.106427	0.069090
C478	C	0.863119	0.393573	0.569090
C479	C	0.344657	-0.157726	0.065758
C480	C	0.844657	0.342274	0.565758
H481	H	0.393030	-0.102640	0.047565
H482	H	0.893030	0.397360	0.547565
H483	H	0.372139	-0.098784	0.104209
H484	H	0.872139	0.401216	0.604209
H485	H	0.336708	-0.083058	0.057749
H486	H	0.836708	0.416942	0.557749
H487	H	0.371066	-0.181094	0.077105
H488	H	0.871066	0.318906	0.577105
H489	H	0.335643	-0.165373	0.030640
H490	H	0.835643	0.334627	0.530640
O491	O	0.560800	-0.186019	0.186153
O492	O	1.060800	0.313981	0.686153
C493	C	0.592344	-0.215735	0.152319
C494	C	1.092344	0.284265	0.652319
H495	H	0.600504	-0.255388	0.170683
H496	H	1.100504	0.244612	0.670683
H497	H	0.571282	-0.221417	0.113561
H498	H	1.071282	0.278583	0.613561
C499	C	0.634204	-0.138254	0.120353
C500	C	1.134204	0.361746	0.620353
C501	C	0.644231	-0.186955	0.142911
C502	C	1.144231	0.313045	0.642911
H503	H	0.666209	-0.120501	0.114547
H504	H	1.166209	0.379499	0.614547
H505	H	0.612951	-0.118234	0.143146
H506	H	1.112951	0.381766	0.643146
H507	H	0.616651	-0.142996	0.088057
H508	H	1.116651	0.357004	0.588057
H509	H	0.661777	-0.182212	0.175208
H510	H	1.161777	0.317788	0.675208
H511	H	0.665487	-0.206974	0.120123
H512	H	1.165487	0.293026	0.620123
O513	O	0.689573	-0.317737	1.057165
O514	O	1.189573	0.182263	1.557165
C515	C	0.660048	-0.347261	1.021344
C516	C	1.160048	0.152739	1.521344
H517	H	0.658252	-0.325852	0.982423
H518	H	1.158252	0.174148	1.482423
H519	H	0.679165	-0.386974	1.015538
H520	H	1.179165	0.113026	1.515538
C521	C	0.606602	-0.381079	1.090436
C522	C	1.106602	0.118921	1.590436
C523	C	0.604393	-0.354783	1.042634
C524	C	1.104393	0.145217	1.542634
H525	H	0.572272	-0.385722	1.103569
H526	H	1.072272	0.114278	1.603569
H527	H	0.626495	-0.361191	1.114570
H528	H	1.126495	0.138809	1.614570
H529	H	0.622535	-0.414171	1.085591
H530	H	1.122535	0.085829	1.585591
H531	H	0.588466	-0.321690	1.047480
H532	H	1.088466	0.178310	1.547480
H533	H	0.584496	-0.374667	1.018501
H534	H	1.084496	0.125333	1.518501
H535	H	0.661345	-0.345963	0.702710
H536	H	1.161345	0.154037	1.202710
O537	O	0.689502	-0.317864	0.554828
O538	O	1.189502	0.182136	1.054828
C539	C	0.659976	-0.347392	0.519011
C540	C	1.159976	0.152608	1.019011
H541	H	0.658180	-0.325988	0.480087
H542	H	1.158180	0.174012	0.980087
H543	H	0.679093	-0.387105	0.513210
H544	H	1.179093	0.112895	1.013210
C545	C	0.606530	-0.381202	0.588107
C546	C	1.106530	0.118798	1.088107
C547	C	0.604321	-0.354911	0.540302
C548	C	1.104321	0.145089	1.040302
H549	H	0.572200	-0.385842	0.601241
H550	H	1.072200	0.114158	1.101241
H551	H	0.626423	-0.361310	0.612239
H552	H	1.126423	0.138690	1.112239
H553	H	0.622463	-0.414293	0.583267
H554	H	1.122463	0.085707	1.083267
H555	H	0.588394	-0.321817	0.545145
H556	H	1.088394	0.178183	1.045145
H557	H	0.584424	-0.374797	0.516172
H558	H	1.084424	0.125203	1.016172
H559	H	0.206233	-0.157734	0.158106
H560	H	0.706233	0.342266	0.658106
H561	H	0.694798	-0.312619	0.451550
H562	H	1.194798	0.187381	0.951550
H563	H	0.816159	-0.550030	0.191408
H564	H	1.316159	-0.050030	0.691408
O565	O	0.560661	-0.317999	0.317824
O566	O	1.060661	0.182001	0.817824
C567	C	0.524852	-0.347563	0.347278
C568	C	1.024852	0.152437	0.847278
H569	H	0.485942	-0.326151	0.349131
H570	H	0.985942	0.173849	0.849131
H571	H	0.519012	-0.387244	0.328061
H572	H	1.019012	0.112756	0.828061
C573	C	0.593975	-0.381480	0.400633
C574	C	1.093975	0.118520	0.900633
C575	C	0.546187	-0.355178	0.402912
C576	C	1.046187	0.144822	0.902912
H577	H	0.607135	-0.386180	0.434950
H578	H	1.107135	0.113820	0.934950
H579	H	0.618101	-0.361564	0.380788
H580	H	1.118101	0.138436	0.880788
H581	H	0.589101	-0.414545	0.384616
H582	H	1.089101	0.085455	0.884616
H583	H	0.551062	-0.322112	0.418923
H584	H	1.051062	0.177888	0.918923
H585	H	0.522062	-0.375090	0.422761
H586	H	1.022062	0.124910	0.922761
H587	H	0.849714	-0.157806	0.702783
H588	H	1.349714	0.342194	1.202783
H589	H	0.816111	-0.450979	0.191392
H590	H	1.316111	0.049021	0.691392
