data_functionalizedCrystal
_audit_creation_method	'MofGen! by Chris Wilmer'
_symmetry_space_group_name_H-M	'P1'
_symmetry_Int_Tables_number	1
_symmetry_cell_setting	triclinic
loop_
_symmetry_equiv_pos_as_xyz
  x,y,z
_cell_length_a	11.792254
_cell_length_b	11.792241
_cell_length_c	9.482900
_cell_angle_alpha	99.398500
_cell_angle_beta	80.645607
_cell_angle_gamma	84.196007
loop_
_atom_site_label
_atom_site_type_symbol
_atom_site_fract_x
_atom_site_fract_y
_atom_site_fract_z
O1	O	1.524481	0.137975	-0.120894
O2	O	1.194142	0.153992	-0.120898
O3	O	1.367326	-0.019185	-0.120886
O4	O	1.351297	0.311152	-0.120906
O5	O	1.332150	0.016133	0.120904
O6	O	1.158965	0.189310	0.120892
O7	O	1.489304	0.173293	0.120896
Cu8	Cu	1.320923	0.184526	0.142971
Cu9	Cu	1.362524	0.142758	-0.142973
O10	O	1.316120	0.346470	0.120884
C11	C	1.134263	0.170642	-0.000003
C12	C	1.008250	0.167622	-0.000004
C13	C	0.905915	0.165167	-0.000010
C14	C	0.777528	0.162098	-0.000011
C15	C	1.348731	-0.043817	0.000009
C16	C	1.345717	-0.169831	0.000007
C17	C	1.340178	-0.400547	-0.000017
C18	C	1.343255	-0.272160	-0.000004
C19	C	1.549184	0.156642	-0.000002
C20	C	1.675198	0.159661	-0.000011
C21	C	1.334716	0.371102	-0.000014
C22	C	1.337731	0.497114	-0.000022
N23	N	1.291672	0.213903	0.344090
N24	N	1.391784	0.113373	-0.344091
C25	C	1.353888	0.151417	0.416293
C26	C	1.329558	0.175868	0.583709
H27	H	1.425161	0.079814	0.354170
H28	H	1.463062	0.041766	0.593789
H29	H	1.258272	0.247467	0.645828
C30	C	1.195373	0.310627	0.428013
N31	N	1.122839	0.383482	0.491222
