data_functionalizedCrystal
_audit_creation_method	'MofGen! by Chris Wilmer'
_symmetry_space_group_name_H-M	'P1'
_symmetry_Int_Tables_number	1
_symmetry_cell_setting	triclinic
loop_
_symmetry_equiv_pos_as_xyz
  x,y,z
_cell_length_a	21.606444
_cell_length_b	23.196402
_cell_length_c	23.196401
_cell_angle_alpha	60.008822
_cell_angle_beta	90.012419
_cell_angle_gamma	60.001587
loop_
_atom_site_label
_atom_site_type_symbol
_atom_site_fract_x
_atom_site_fract_y
_atom_site_fract_z
Zr1	Zr	0.596220	0.631023	-0.075647
O2	O	0.497378	0.751286	-0.167691
O3	O	0.626518	0.510758	-0.047435
O4	O	0.626491	0.631025	-0.167700
O5	O	0.497429	0.631017	0.047446
O6	O	0.728341	0.631030	-0.167704
O7	O	0.497405	0.631018	-0.047425
O8	O	0.728390	0.415894	0.047429
O9	O	0.497380	0.846153	-0.167687
O10	O	0.715452	0.560229	-0.035401
O11	O	0.639461	0.560224	0.035403
O12	O	0.639429	0.701823	-0.106194
O13	O	0.563438	0.701819	-0.035390
Zr14	Zr	0.758698	0.631027	0.075656
Zr15	Zr	0.758659	0.631029	-0.075653
Zr16	Zr	0.596259	0.631020	0.075661
Zr17	Zr	0.596225	0.782325	-0.075641
Zr18	Zr	0.758693	0.479725	0.075649
O19	O	0.728400	0.751291	0.047443
O20	O	0.728344	0.751295	-0.167698
O21	O	0.497433	0.751282	0.047451
O22	O	0.857540	0.510764	0.167699
O23	O	0.857485	0.510768	-0.047443
O24	O	0.626574	0.510755	0.167707
O25	O	0.857489	0.631033	-0.047438
O26	O	0.728427	0.631024	0.167709
O27	O	0.626577	0.631020	0.167712
O28	O	0.857513	0.631031	0.047434
O29	O	0.626497	0.846158	-0.167691
O30	O	0.728421	0.415892	0.167699
O31	O	0.857538	0.415897	0.167695
O32	O	0.857507	0.415899	0.047425
O33	O	0.497411	0.846151	-0.047416
O34	O	0.626528	0.846156	-0.047421
O35	O	0.715489	0.560226	0.106202
O36	O	0.791480	0.560231	0.035398
O37	O	0.715457	0.701825	-0.035395
O38	O	0.639466	0.701821	0.035409
C39	C	0.677453	0.441769	-0.000004
C40	C	0.677452	0.377537	-0.000007
C41	C	0.717113	0.347369	-0.036968
C42	C	0.717120	0.287008	-0.036963
C43	C	0.677451	0.256829	-0.000005
C44	C	0.637788	0.287001	0.036965
C45	C	0.637788	0.347355	0.036964
C46	C	0.610992	0.194797	-0.005277
C47	C	0.610989	0.134447	-0.005281
C48	C	0.677452	0.070674	0.000002
C49	C	0.743917	0.067265	0.005276
C50	C	0.743917	0.127619	0.005275
C51	C	0.677447	0.191384	0.000001
C52	C	0.717125	-0.024946	-0.036955
C53	C	0.717135	-0.085311	-0.036944
C54	C	0.637795	-0.085311	0.036979
C55	C	0.637793	-0.024952	0.036973
C56	C	0.677456	0.005230	0.000002
C57	C	0.474273	0.631017	0.000011
C58	C	0.405314	0.631014	0.000013
C59	C	0.412598	0.557104	0.036964
C60	C	0.347801	0.557106	0.036965
C61	C	0.275720	0.631019	0.000010
C62	C	0.268437	0.704936	-0.036942
C63	C	0.333234	0.704932	-0.036938
C64	C	0.007119	0.704950	-0.036957
C65	C	-0.057679	0.704947	-0.036960
C66	C	0.021686	0.557123	0.036945
C67	C	0.086482	0.557120	0.036949
C68	C	0.079194	0.631036	0.000000
C69	C	0.149455	0.631032	0.000001
C70	C	0.205459	0.631024	0.000005
C71	C	0.880645	0.631033	-0.000003
C72	C	0.949604	0.631036	-0.000005
C73	C	0.677410	0.631028	-0.189260
C74	C	0.677394	0.631029	-0.253495
C75	C	0.677465	0.820281	0.000012
C76	C	0.677466	0.884513	0.000015
C77	C	0.637714	0.704938	-0.320621
C78	C	0.637733	0.704939	-0.380976
C79	C	0.677422	0.631027	-0.374201
C80	C	0.717110	0.557108	-0.307063
C81	C	0.717096	0.557109	-0.246710
C82	C	0.671784	0.574399	-0.441520
C83	C	0.671793	0.574401	-0.501874
C84	C	0.677470	0.631021	-0.560349
C85	C	0.683123	0.687652	-0.558469
C86	C	0.683109	0.687653	-0.498116
C87	C	0.677442	0.631017	-0.439640
C88	C	0.637809	0.704936	-0.692922
C89	C	0.637834	0.704934	-0.753276
C90	C	0.717206	0.557101	-0.679361
C91	C	0.717186	0.557105	-0.619008
C92	C	0.677484	0.631025	-0.625793
C93	C	0.677508	0.631022	0.189269
C94	C	0.677524	0.631021	0.253503
C95	C	0.880639	0.441777	-0.000011
C96	C	0.949597	0.377548	-0.000016
C97	C	0.677502	0.441766	0.189261
C98	C	0.677517	0.377533	0.253492
C99	C	0.880688	0.441774	0.189254
C100	C	0.949662	0.377544	0.253483
C101	C	0.474230	0.820276	-0.189245
C102	C	0.405256	0.884506	-0.253475
C103	C	0.474279	0.820273	0.000019
C104	C	0.405321	0.884502	0.000024
C105	C	0.677416	0.820284	-0.189252
C106	C	0.677401	0.884517	-0.253484
C107	C	0.942294	0.347384	-0.036981
C108	C	1.007081	0.287042	-0.037000
C109	C	1.079170	0.256861	-0.000049
C110	C	1.086470	0.287031	0.036917
C111	C	1.021684	0.347376	0.036931
C112	C	0.717209	0.347370	0.320619
C113	C	0.717220	0.287024	0.380977
C114	C	0.677542	0.256840	0.374208
C115	C	0.637845	0.287009	0.307074
C116	C	0.637830	0.347357	0.246717
C117	C	1.021726	0.347383	0.246687
C118	C	1.086541	0.287040	0.307032
C119	C	1.079290	0.256856	0.374172
C120	C	1.007218	0.287023	0.380967
C121	C	0.942405	0.347368	0.320623
C122	C	0.333192	0.914674	-0.246679
C123	C	0.268377	0.975036	-0.307023
C124	C	0.275628	1.005223	-0.374163
C125	C	0.347700	0.975053	-0.380958
C126	C	0.412513	0.914697	-0.320614
C127	C	0.412624	0.914672	0.036983
C128	C	0.347837	0.975030	0.036985
C129	C	0.275748	1.005214	0.000032
C130	C	0.268448	0.975041	-0.036931
C131	C	0.333234	0.914688	-0.036937
C132	C	0.717087	0.914683	-0.246692
C133	C	0.717088	0.975028	-0.307038
C134	C	0.677399	1.005211	-0.374177
C135	C	0.637712	0.975039	-0.380968
C136	C	0.637716	0.914691	-0.320622
H137	H	0.798035	0.124838	0.009570
H138	H	1.001325	0.262437	0.435640
H139	H	0.605490	0.262425	0.067057
C140	C	0.355667	1.008258	-0.454814
H141	H	0.306742	1.048516	-0.489774
H142	H	0.382588	1.031806	-0.460122
H143	H	0.382575	0.964932	-0.460115
C144	C	0.760751	0.881489	-0.172847
H145	H	0.784390	0.908098	-0.177455
H146	H	0.726515	0.891380	-0.147762
H147	H	0.798303	0.824508	-0.147773
C148	C	0.594083	0.786239	-0.454825
H149	H	0.599782	0.775650	-0.489796
H150	H	0.541879	0.816605	-0.460131
H151	H	0.613672	0.816614	-0.460109
H152	H	-0.116372	0.765140	-0.067054
H153	H	0.001175	0.765136	-0.067056
H154	H	0.471316	0.890102	0.067079
C155	C	0.665607	0.512088	-0.503927
H156	H	0.662248	0.478351	-0.460451
H157	H	0.621568	0.540096	-0.541495
H158	H	0.709211	0.479353	-0.511085
H159	H	0.353796	0.999587	0.067088
H160	H	0.223002	1.054357	0.000043
C161	C	0.760892	0.253842	0.454817
H162	H	0.755215	0.213585	0.489798
H163	H	0.813090	0.230299	0.460103
H164	H	0.741299	0.297178	0.460104
H165	H	0.667156	0.528292	-0.393912
C166	C	0.677569	0.190453	0.440604
H167	H	0.706900	0.176810	0.481550
H168	H	0.627024	0.210224	0.440620
H169	H	0.698821	0.143357	0.440612
C170	C	0.999037	0.253858	-0.077655
H171	H	0.946824	0.280468	-0.099646
H172	H	1.022643	0.263754	-0.112639
H173	H	1.022671	0.196876	-0.045754
C174	C	0.863136	0.380536	0.328103
H175	H	0.825568	0.420803	0.282553
H176	H	0.857471	0.337199	0.353185
H177	H	0.857463	0.404082	0.353182
C178	C	0.325200	0.881487	-0.172832
H179	H	0.272994	0.908114	-0.177438
H180	H	0.348825	0.824510	-0.147748
H181	H	0.348838	0.891386	-0.147758
C182	C	0.863004	0.380577	-0.077631
H183	H	0.825458	0.420834	-0.072329
H184	H	0.857310	0.404125	-0.126252
H185	H	0.857325	0.337246	-0.059381
H186	H	1.027645	0.371950	0.192024
C187	C	0.594172	0.380525	0.172882
H188	H	0.570552	0.353896	0.177501
H189	H	0.556618	0.437503	0.147794
H190	H	0.628417	0.370622	0.147802
H191	H	0.605541	0.262424	0.301572
H192	H	0.327298	0.765118	-0.067018
H193	H	0.749522	0.496920	-0.673843
H194	H	0.209745	0.999626	-0.067017
C195	C	1.165810	0.253860	0.299545
H196	H	1.160840	0.280472	0.250915
H197	H	1.192749	0.263755	0.321541
H198	H	1.192739	0.196878	0.321550
H199	H	0.605389	0.765129	-0.326152
C200	C	0.760735	1.008215	-0.299556
H201	H	0.784358	0.981604	-0.250927
H202	H	0.798285	0.998323	-0.321554
H203	H	0.726478	1.065196	-0.321561
C204	C	0.165769	0.475818	0.077599
H205	H	0.203316	0.486402	0.072305
H206	H	0.171461	0.445448	0.126219
H207	H	0.171449	0.445449	0.059342
C208	C	0.029701	0.475816	0.077597
H209	H	-0.019211	0.486399	0.072312
H210	H	0.056617	0.445446	0.059345
H211	H	0.056633	0.445448	0.126221
H212	H	1.131916	0.207724	-0.000066
H213	H	0.749409	0.496922	-0.192051
H214	H	0.749424	-0.000373	-0.067056
H215	H	0.209699	0.999590	-0.301477
H216	H	0.222847	1.054369	-0.423294
H217	H	1.132071	0.207718	0.423302
C218	C	0.594051	1.008253	-0.454822
H219	H	0.599729	1.048521	-0.489784
H220	H	0.613630	0.964940	-0.460134
H221	H	0.541846	1.031809	-0.460116
C222	C	0.491780	0.881508	-0.328098
H223	H	0.486809	0.908129	-0.376729
H224	H	0.518728	0.891389	-0.306094
H225	H	0.518701	0.824529	-0.306103
C226	C	0.689338	0.749934	-0.496044
H227	H	0.692727	0.783653	-0.539508
H228	H	0.645754	0.782680	-0.488880
H229	H	0.733392	0.721885	-0.458467
H230	H	0.687742	0.733760	-0.606082
C231	C	1.165770	0.253820	0.077566
H232	H	1.203302	0.213554	0.072266
H233	H	1.171466	0.297134	0.059327
H234	H	1.171468	0.230261	0.126192
C235	C	0.760773	-0.118508	-0.077594
H236	H	0.755104	-0.158786	-0.072290
H237	H	0.741171	-0.075190	-0.126216
H238	H	0.812978	-0.142049	-0.059339
C239	C	1.029726	0.380540	0.077605
H240	H	1.081940	0.353912	0.099613
H241	H	1.006097	0.437519	0.045721
H242	H	1.006117	0.370631	0.112588
H243	H	0.327277	0.890125	-0.067031
C244	C	0.677394	1.071599	-0.440551
H245	H	0.706709	1.085244	-0.426884
H246	H	0.698628	1.051828	-0.467863
H247	H	0.626836	1.118694	-0.467849
H248	H	0.749520	0.371939	0.326145
H249	H	0.605396	0.890137	-0.326162
H250	H	0.605496	-0.109882	0.067071
C251	C	0.760743	0.253817	-0.077625
H252	H	0.755065	0.213547	-0.072326
H253	H	0.741134	0.297144	-0.126245
H254	H	0.812951	0.230270	-0.059378
C255	C	0.760748	0.380559	-0.077627
H256	H	0.784375	0.353938	-0.099635
H257	H	0.726496	0.437536	-0.112598
H258	H	0.798307	0.370662	-0.045725
H259	H	0.605494	-0.000386	0.067068
C260	C	0.817032	-0.002878	0.011087
H261	H	0.856611	0.003741	0.014222
H262	H	0.830992	-0.053431	0.052118
H263	H	0.808598	-0.002203	-0.029508
C264	C	0.537882	0.138203	-0.011085
H265	H	0.498303	0.184819	-0.014219
H266	H	0.523922	0.141671	-0.052115
H267	H	0.546317	0.090438	0.029511
H268	H	0.556862	0.246731	-0.009594
H269	H	0.605489	0.371918	0.067063
H270	H	0.353738	0.496920	0.067055
C271	C	0.491883	0.475799	0.077613
H272	H	0.529433	0.486381	0.072319
H273	H	0.497575	0.445429	0.126233
H274	H	0.497560	0.445433	0.059354
H275	H	0.749494	0.496920	-0.564350
H276	H	0.605482	0.765125	-0.698447
C277	C	0.189151	0.786239	-0.077592
H278	H	0.151603	0.775657	-0.072310
H279	H	0.183469	0.816610	-0.059341
H280	H	0.183463	0.816605	-0.126215
C281	C	0.594184	0.786238	-0.827118
H282	H	0.570532	0.830258	-0.822510
H283	H	0.628432	0.789318	-0.852187
H284	H	0.556643	0.789302	-0.852208
H285	H	0.749426	0.496929	-0.301550
