data_functionalizedCrystal
_audit_creation_method	'MofGen! by Chris Wilmer'
_symmetry_space_group_name_H-M	'P1'
_symmetry_Int_Tables_number	1
_symmetry_cell_setting	triclinic
loop_
_symmetry_equiv_pos_as_xyz
  x,y,z
_cell_length_a	16.120490
_cell_length_b	16.120297
_cell_length_c	16.120484
_cell_angle_alpha	95.614431
_cell_angle_beta	90.164100
_cell_angle_gamma	90.129683
loop_
_atom_site_label
_atom_site_type_symbol
_atom_site_fract_x
_atom_site_fract_y
_atom_site_fract_z
Zn1	Zn	1.224990	-0.554787	-0.422331
Zn2	Zn	1.224886	-0.422092	-0.555015
Zn3	Zn	1.093729	-0.408032	-0.408239
Zn4	Zn	1.078882	-0.554027	-0.554239
O5	O	1.155622	-0.484735	-0.484956
O6	O	1.341012	-0.543386	-0.446153
O7	O	1.213657	-0.303594	-0.529972
O8	O	1.117398	-0.421933	-0.293478
O9	O	1.340936	-0.445896	-0.543636
O10	O	1.213835	-0.529753	-0.303831
O11	O	1.117297	-0.293264	-0.422137
O12	O	0.975724	-0.421197	-0.421385
O13	O	1.092094	-0.670761	-0.542314
O14	O	0.964816	-0.528459	-0.528650
O15	O	1.199439	-0.671319	-0.445401
O16	O	1.199261	-0.445159	-0.671542
O17	O	1.091993	-0.542092	-0.670972
C18	C	0.940183	-0.473221	-0.473405
C19	C	0.848015	-0.468316	-0.468484
C20	C	0.632820	-0.510179	-0.510474
C21	C	0.679267	-0.459359	-0.459508
C22	C	0.773167	-0.464344	-0.464504
C23	C	0.538912	-0.505195	-0.505479
C24	C	1.144122	-0.702127	-0.495343
C25	C	1.139222	-0.794767	-0.499770
C26	C	1.130245	-0.964378	-0.507831
C27	C	1.181175	-1.005939	-0.461840
C28	C	1.176180	-1.100317	-0.466326
C29	C	1.135239	-0.869992	-0.503346
C30	C	1.371902	-0.496294	-0.496553
C31	C	1.464068	-0.501220	-0.501495
C32	C	1.144026	-0.495088	-0.701500
C33	C	1.139140	-0.499550	-0.794144
C34	C	1.167128	-0.268187	-0.474552
C35	C	1.172201	-0.175545	-0.469899
C36	C	1.130223	-0.507712	-0.963767
C37	C	1.181169	-0.461779	-1.005313
C38	C	1.176207	-0.466320	-1.099697
C39	C	1.135183	-0.503171	-0.869375
C40	C	1.167284	-0.474360	-0.267568
C41	C	1.172254	-0.469939	-0.174931
H42	H	1.228527	-0.970641	-0.419097
H43	H	0.663575	-0.557426	-0.557856
O44	O	1.073872	-1.006529	-0.558921
C45	C	1.115591	-1.062005	-0.617609
H46	H	1.181985	-1.039447	-0.625028
H47	H	1.082110	-1.064567	-0.680197
H48	H	1.116414	-1.126859	-0.595061
H49	H	0.648511	-0.412108	-0.412123
H50	H	1.228511	-0.419042	-0.969997
O51	O	1.073765	-0.558617	-1.006016
C52	C	1.081329	-0.551878	-1.092213
H53	H	1.111341	-0.489592	-1.102382
H54	H	1.017207	-0.555717	-1.122370
H55	H	1.121554	-0.604875	-1.121587
