data_functionalizedCrystal
_audit_creation_method	'MofGen! by Chris Wilmer'
_symmetry_space_group_name_H-M	'P1'
_symmetry_Int_Tables_number	1
_symmetry_cell_setting	triclinic
loop_
_symmetry_equiv_pos_as_xyz
  x,y,z
_cell_length_a	29.839135
_cell_length_b	29.839131
_cell_length_c	18.050582
_cell_angle_alpha	90.025477
_cell_angle_beta	90.018146
_cell_angle_gamma	90.043950
loop_
_atom_site_label
_atom_site_type_symbol
_atom_site_fract_x
_atom_site_fract_y
_atom_site_fract_z
Zn1	Zn	0.686731	-0.178852	0.419961
Zn2	Zn	0.686660	-0.253974	0.295765
Zn3	Zn	0.611611	-0.178862	0.295779
Zn4	Zn	0.611562	-0.253959	0.419907
O5	O	0.649141	-0.216411	0.357853
O6	O	0.749589	-0.188819	0.403504
O7	O	0.676695	-0.244021	0.191842
O8	O	0.621626	-0.115993	0.312280
O9	O	0.749537	-0.244011	0.312257
O10	O	0.676817	-0.115986	0.403517
O11	O	0.621557	-0.188836	0.191852
O12	O	0.548737	-0.188822	0.312227
O13	O	0.621543	-0.243985	0.523839
O14	O	0.548701	-0.243995	0.403423
O15	O	0.676769	-0.188804	0.523879
O16	O	0.676648	-0.316839	0.312204
O17	O	0.621474	-0.316828	0.403410
C18	C	0.532418	-0.216408	0.357821
C19	C	0.482484	-0.216417	0.357825
C20	C	0.172865	-0.187717	0.405435
C21	C	-0.014808	-0.187720	0.405456
O22	O	-0.039052	-0.163307	0.445900
N23	N	-0.038301	-0.216412	0.357880
C24	C	-0.014873	-0.245103	0.310292
O25	O	-0.039161	-0.269505	0.269821
C26	C	0.172799	-0.245098	0.310268
C27	C	0.196290	-0.216407	0.357852
C28	C	0.196356	-0.159028	0.453015
C29	C	0.243271	-0.159029	0.453012
C30	C	0.266696	-0.187719	0.405429
C31	C	0.243205	-0.216408	0.357849
C32	C	0.196227	-0.273787	0.262677
C33	C	0.243148	-0.273782	0.262673
C34	C	0.266638	-0.245091	0.310258
C35	C	0.313546	-0.245099	0.310264
N36	N	0.337039	-0.216407	0.357839
C37	C	0.313614	-0.187717	0.405422
C38	C	-0.113403	-0.245105	0.310309
C39	C	-0.160321	-0.245107	0.310316
C40	C	-0.160253	-0.187723	0.405479
C41	C	-0.113335	-0.187723	0.405476
C42	C	-0.089911	-0.216413	0.357885
C43	C	0.412140	-0.187722	0.405413
C44	C	0.459059	-0.187727	0.405408
C45	C	0.458987	-0.245110	0.310242
C46	C	0.412072	-0.245107	0.310250
C47	C	0.388649	-0.216409	0.357838
O48	O	0.337819	-0.269496	0.269835
O49	O	0.337910	-0.163312	0.445876
C50	C	0.125950	-0.187715	0.405438
C51	C	0.102459	-0.216404	0.357858
C52	C	0.125884	-0.245094	0.310275
C53	C	0.055541	-0.216406	0.357865
C54	C	0.032116	-0.187716	0.405448
C55	C	0.055609	-0.159024	0.453024
C56	C	0.102525	-0.159025	0.453021
C57	C	0.102391	-0.273787	0.262699
C58	C	0.055475	-0.273784	0.262707
C59	C	0.032051	-0.245093	0.310289
C60	C	0.649060	-0.333134	0.357816
C61	C	0.649066	-0.383068	0.357825
C62	C	0.677923	-0.692705	0.310431
C63	C	0.677978	-0.880378	0.310460
O64	O	0.702448	-0.904637	0.270136
N65	N	0.649234	-0.903853	0.357909
C66	C	0.620477	-0.880408	0.405357
O67	O	0.596033	-0.904681	0.445722
C68	C	0.620424	-0.692736	0.405332
C69	C	0.649166	-0.669263	0.357875
C70	C	0.706663	-0.669232	0.262978
C71	C	0.706647	-0.622316	0.262969
C72	C	0.677891	-0.598874	0.310412
C73	C	0.649150	-0.622347	0.357865
C74	C	0.591669	-0.669291	0.452783
C75	C	0.591659	-0.622370	0.452774
C76	C	0.620401	-0.598897	0.405317
C77	C	0.620378	-0.551989	0.405299
N78	N	0.649122	-0.528514	0.357850
C79	C	0.677878	-0.551956	0.310406
C80	C	0.620506	-0.978938	0.405366
C81	C	0.620518	-1.025856	0.405372
C82	C	0.678020	-1.025823	0.310476
C83	C	0.678005	-0.978905	0.310467
C84	C	0.649250	-0.955463	0.357918
C85	C	0.677842	-0.453430	0.310389
C86	C	0.677823	-0.406511	0.310382
C87	C	0.620322	-0.406548	0.405281
C88	C	0.620340	-0.453463	0.405286
C89	C	0.649104	-0.476904	0.357838
O90	O	0.595924	-0.527701	0.445608
O91	O	0.702325	-0.527675	0.270060
C92	C	0.677938	-0.739620	0.310441
C93	C	0.649198	-0.763093	0.357894
C94	C	0.620442	-0.739651	0.405337
C95	C	0.649211	-0.810011	0.357899
C96	C	0.677967	-0.833454	0.310456
C97	C	0.706711	-0.809978	0.263007
C98	C	0.706695	-0.763063	0.262998
C99	C	0.591698	-0.763127	0.452786
C100	C	0.591716	-0.810042	0.452791
C101	C	0.620472	-0.833484	0.405348
C102	C	0.766319	-0.216415	0.357885
C103	C	0.816254	-0.216417	0.357899
C104	C	0.649159	-0.216392	0.551559
C105	C	0.649166	-0.216383	0.634104
C106	C	0.649235	-0.099233	0.357906
C107	C	0.649275	-0.049299	0.357929
C108	C	0.649149	-0.216399	0.164901
C109	C	0.649229	-0.216281	0.082355
C110	C	0.619157	-0.246349	0.833533
C111	C	0.660142	-0.257329	0.882928
C112	C	0.649188	-0.216349	0.785235
C113	C	0.608226	-0.205356	0.882922
C114	C	0.649206	-0.216316	0.931220
C115	C	0.690194	-0.227350	0.833542
C116	C	0.638252	-0.175358	0.833532
C117	C	0.679264	-0.186322	0.882904
C118	C	0.649177	-0.216368	0.701137
C119	C	0.649222	-0.216297	1.015317
H120	H	0.036353	-0.297152	0.223959
O121	O	0.588893	-0.276619	0.807541
C122	C	0.589017	-0.275956	0.729440
H123	H	0.602394	-0.242313	0.709259
H124	H	0.611351	-0.304043	0.707813
C125	C	0.524480	-0.324054	0.725385
C126	C	0.540907	-0.282732	0.700599
H127	H	0.494804	-0.328236	0.707593
H128	H	0.524397	-0.324503	0.778003
H129	H	0.543096	-0.347456	0.707361
H130	H	0.522294	-0.259331	0.718631
H131	H	0.540985	-0.282280	0.647982
H132	H	0.177288	-0.135662	0.491763
O133	O	0.671117	-0.298693	0.908784
C134	C	0.639369	-0.330241	0.883619
H135	H	0.606669	-0.312378	0.869755
H136	H	0.652709	-0.347693	0.831947
C137	C	0.671002	-0.387201	0.961686
C138	C	0.630839	-0.365261	0.944664
H139	H	0.665742	-0.408804	0.999340
H140	H	0.692393	-0.365947	0.978639
H141	H	0.682115	-0.401740	0.918621
H142	H	0.619729	-0.350717	0.987727
H143	H	0.609446	-0.386513	0.927721
H144	H	0.568243	-0.603286	0.491417
O145	O	0.592456	-0.383749	0.451446
C146	C	0.618015	-0.356560	0.499425
H147	H	0.653399	-0.370666	0.504066
H148	H	0.619566	-0.321010	0.476453
C149	C	0.552585	-0.338503	0.570898
C150	C	0.596042	-0.355830	0.576603
H151	H	0.539030	-0.338050	0.618505
H152	H	0.535365	-0.356819	0.538572
H153	H	0.553883	-0.308879	0.551752
H154	H	0.594743	-0.385455	0.595741
H155	H	0.613262	-0.337518	0.608935
H156	H	0.036528	-0.135665	0.491770
O157	O	0.734660	-0.740334	0.216877
C158	C	0.760033	-0.771094	0.174997
H159	H	0.761581	-0.804525	0.205430
H160	H	0.743605	-0.776121	0.118569
C161	C	0.805946	-0.711682	0.126987
C162	C	0.807851	-0.752741	0.164369
H163	H	0.835442	-0.700361	0.120428
H164	H	0.788851	-0.690958	0.155200
H165	H	0.792255	-0.715877	0.079968
H166	H	0.821537	-0.748544	0.211391
H167	H	0.824950	-0.773464	0.136164
O168	O	0.731514	-0.238551	0.807745
C169	C	0.728316	-0.277690	0.764265
H170	H	0.697001	-0.297208	0.780675
H171	H	0.726158	-0.268101	0.703239
C172	C	0.808503	-0.283057	0.756885
C173	C	0.770043	-0.307032	0.777044
H174	H	0.834243	-0.301157	0.764764
H175	H	0.810657	-0.256688	0.786176
H176	H	0.806698	-0.275068	0.706031
H177	H	0.771846	-0.315016	0.827899
H178	H	0.767890	-0.333403	0.747762
O179	O	0.592546	-0.956120	0.451356
C180	C	0.563531	-0.929034	0.409024
H181	H	0.579398	-0.922001	0.352771
H182	H	0.530249	-0.947157	0.400805
C183	C	0.535872	-0.893104	0.518963
C184	C	0.555362	-0.884463	0.449874
H185	H	0.530832	-0.865611	0.544162
H186	H	0.555419	-0.911353	0.547483
H187	H	0.508140	-0.908207	0.512104
H188	H	0.583097	-0.869365	0.456734
H189	H	0.535820	-0.866210	0.421356
H190	H	0.730124	-0.829073	0.224375
H191	H	0.121459	-0.297150	0.223950
H192	H	0.704698	-0.160938	0.904445
H193	H	-0.094336	-0.268469	0.271553
H194	H	0.177109	-0.297149	0.223927
H195	H	0.730053	-0.603207	0.224327
O196	O	0.705969	-0.956174	0.264346
C197	C	0.731341	-0.986932	0.222460
H198	H	0.732890	-1.020364	0.252889
H199	H	0.714911	-0.991957	0.166033
C200	C	0.777252	-0.927517	0.174453
C201	C	0.779159	-0.968579	0.211830
H202	H	0.806748	-0.916196	0.167892
H203	H	0.760158	-0.906795	0.202670
H204	H	0.763559	-0.931711	0.127434
H205	H	0.792847	-0.964384	0.258851
H206	H	0.796257	-0.989300	0.183620
H207	H	0.596937	-0.472576	0.443932
H208	H	0.121646	-0.135662	0.491768
H209	H	0.628978	-0.140717	0.811819
H210	H	0.730082	-0.688314	0.224344
H211	H	0.573578	-0.196073	0.904614
H212	H	0.568306	-0.829150	0.491436
O213	O	0.705788	-0.383779	0.264257
C214	C	0.731164	-0.414535	0.222375
H215	H	0.732717	-0.447966	0.252806
H216	H	0.714736	-0.419563	0.165947
C217	C	0.777070	-0.355116	0.174367
C218	C	0.778980	-0.396176	0.211746
H219	H	0.806564	-0.343791	0.167808
H220	H	0.759972	-0.334395	0.202582
H221	H	0.763378	-0.359312	0.127348
H222	H	0.792666	-0.391979	0.258768
H223	H	0.796081	-0.416896	0.183539
H224	H	0.478183	-0.164363	0.444160
O225	O	0.389411	-0.159896	0.451749
C226	C	0.400898	-0.169775	0.525730
H227	H	0.413766	-0.205669	0.529361
H228	H	0.428159	-0.145709	0.545211
C229	C	0.343436	-0.120501	0.570865
C230	C	0.359236	-0.164588	0.575325
H231	H	0.317738	-0.117300	0.601458
H232	H	0.335697	-0.113844	0.521022
H233	H	0.366157	-0.100451	0.587097
H234	H	0.336517	-0.184637	0.559084
H235	H	0.366970	-0.171248	0.625166
O236	O	0.266017	-0.131111	0.499252
C237	C	0.235273	-0.105798	0.541255
H238	H	0.201823	-0.104226	0.510840
H239	H	0.230284	-0.122293	0.597612
C240	C	0.294696	-0.059919	0.589448
C241	C	0.253614	-0.057985	0.552089
H242	H	0.306010	-0.030427	0.596134
H243	H	0.315410	-0.076974	0.561152
H244	H	0.290534	-0.073667	0.636408
H245	H	0.257778	-0.044243	0.505126
H246	H	0.232902	-0.040927	0.580377
H247	H	-0.094212	-0.164359	0.444222
H248	H	-0.179443	-0.268475	0.271577
O249	O	-0.183062	-0.159913	0.451737
C250	C	-0.210201	-0.185530	0.499643
H251	H	-0.217256	-0.219557	0.473355
H252	H	-0.192113	-0.190506	0.554665
C253	C	-0.246084	-0.119035	0.545443
C254	C	-0.254753	-0.160826	0.513153
H255	H	-0.273565	-0.103796	0.553780
H256	H	-0.227799	-0.101776	0.513170
H257	H	-0.231009	-0.123187	0.591292
H258	H	-0.269822	-0.156673	0.467301
H259	H	-0.273042	-0.178084	0.545418
H260	H	0.262217	-0.297144	0.223917
H261	H	0.701435	-1.044918	0.271846
O262	O	0.389320	-0.272995	0.263965
C263	C	0.420059	-0.298328	0.221985
H264	H	0.453518	-0.279926	0.219469
H265	H	0.425026	-0.332470	0.249080
C266	C	0.360634	-0.327340	0.146014
C267	C	0.401728	-0.304737	0.142919
H268	H	0.349326	-0.331296	0.097244
H269	H	0.339924	-0.310274	0.174298
H270	H	0.364778	-0.355790	0.168597
H271	H	0.397581	-0.276286	0.120345
H272	H	0.422436	-0.321798	0.114630
H273	H	0.478068	-0.268470	0.271503
H274	H	0.701265	-0.472510	0.271754
O275	O	0.592580	-1.048586	0.451536
C276	C	0.567191	-1.017828	0.493394
H277	H	0.585585	-0.984364	0.495985
H278	H	0.533081	-1.012882	0.466143
C279	C	0.538098	-1.077216	0.569247
C280	C	0.560691	-1.036117	0.572435
H281	H	0.534087	-1.088498	0.618002
H282	H	0.555202	-1.097939	0.541045
H283	H	0.509675	-1.073089	0.546535
H284	H	0.589116	-1.040246	0.595138
H285	H	0.543592	-1.015395	0.600642
O286	O	0.563735	-0.692016	0.498957
C287	C	0.538350	-0.661255	0.540814
H288	H	0.556744	-0.627791	0.543396
H289	H	0.504238	-0.656309	0.513568
C290	C	0.509260	-0.720637	0.616682
C291	C	0.531854	-0.679538	0.619859
H292	H	0.505251	-0.731916	0.665440
H293	H	0.526361	-0.741362	0.588481
H294	H	0.480836	-0.716510	0.593973
H295	H	0.560280	-0.683667	0.642558
H296	H	0.514758	-0.658815	0.648066
H297	H	0.568281	-0.744043	0.491421
