data_functionalizedCrystal
_audit_creation_method	'MofGen! by Chris Wilmer'
_symmetry_space_group_name_H-M	'P1'
_symmetry_Int_Tables_number	1
_symmetry_cell_setting	triclinic
loop_
_symmetry_equiv_pos_as_xyz
  x,y,z
_cell_length_a	15.625950
_cell_length_b	15.712078
_cell_length_c	14.750779
_cell_angle_alpha	73.497420
_cell_angle_beta	120.090508
_cell_angle_gamma	101.032433
loop_
_atom_site_label
_atom_site_type_symbol
_atom_site_fract_x
_atom_site_fract_y
_atom_site_fract_z
O1	O	1.295544	0.025892	0.370995
O2	O	1.795544	0.525892	0.870995
O3	O	1.021534	0.061705	0.275644
O4	O	1.521534	0.561705	0.775644
O5	O	1.122087	-0.079097	0.310640
O6	O	1.622087	0.420903	0.810640
O7	O	1.194990	0.166693	0.336000
O8	O	1.694990	0.666693	0.836000
O9	O	1.150514	-0.118896	0.480184
O10	O	1.650514	0.381104	0.980184
O11	O	1.049960	0.021906	0.445188
O12	O	1.549960	0.521906	0.945188
O13	O	1.323970	-0.013907	0.540539
O14	O	1.823970	0.486093	1.040539
Zn15	Zn	1.191479	-0.002320	0.519782
Zn16	Zn	1.691479	0.497680	1.019782
Zn17	Zn	1.154025	0.050117	0.296401
Zn18	Zn	1.654025	0.550117	0.796401
O19	O	1.223417	0.126894	0.505543
O20	O	1.723417	0.626894	1.005543
C21	C	0.999868	0.044125	0.347931
C22	C	1.499868	0.544125	0.847931
C23	C	0.892954	0.051025	0.310727
C24	C	1.392954	0.551025	0.810727
C25	C	0.618708	-0.034678	0.650339
C26	C	1.118708	0.465322	1.150339
C27	C	0.518242	-0.028166	0.615335
C28	C	1.018242	0.471834	1.115335
C29	C	0.487303	0.015218	0.430522
C30	C	0.987303	0.515218	0.930522
C31	C	0.587769	0.008714	0.465512
C32	C	1.087769	0.508714	0.965512
C33	C	0.653464	-0.016235	0.575421
C34	C	1.153464	0.483765	1.075421
C35	C	0.622525	0.027157	0.390594
C36	C	1.122525	0.527157	0.890594
C37	C	0.722981	0.020649	0.425581
C38	C	1.222981	0.520649	0.925581
C39	C	0.788681	-0.004302	0.535485
C40	C	1.288681	0.495698	1.035485
C41	C	0.753920	-0.022743	0.610408
C42	C	1.253920	0.477257	1.110408
C43	C	0.556826	0.052100	0.280684
C44	C	1.056826	0.552100	0.780684
C45	C	0.591582	0.070543	0.205766
C46	C	1.091582	0.570543	0.705766
C47	C	0.692041	0.064041	0.240753
C48	C	1.192041	0.564041	0.740753
C49	C	0.757742	0.039090	0.350658
C50	C	1.257742	0.539090	0.850658
C51	C	0.726803	0.082482	0.165830
C52	C	1.226803	0.582482	0.665830
C53	C	0.827259	0.075974	0.200817
C54	C	1.327259	0.575974	0.700817
C55	C	0.858198	0.032582	0.385645
C56	C	1.358198	0.532582	0.885645
C57	C	1.124390	-0.130240	0.391267
C58	C	1.624390	0.369760	0.891267
C59	C	1.088889	-0.223338	0.378911
C60	C	1.588889	0.276662	0.878911
C61	C	1.390293	-0.614692	0.483784
C62	C	1.890293	-0.114692	0.983784
C63	C	1.356913	-0.702167	0.472169
C64	C	1.856913	-0.202167	0.972169
C65	C	1.189655	-0.668088	0.413965
C66	C	1.689655	-0.168088	0.913965
C67	C	1.223021	-0.580609	0.425581
C68	C	1.723021	-0.080609	0.925581
C69	C	1.323341	-0.553919	0.460490
C70	C	1.823341	-0.053919	0.960490
C71	C	1.156070	-0.519836	0.402286
C72	C	1.656070	-0.019836	0.902286
C73	C	1.189433	-0.432364	0.413895
C74	C	1.689433	0.067636	0.913895
C75	C	1.289749	-0.405665	0.448800
C76	C	1.789749	0.094335	0.948800
C77	C	1.356705	-0.466446	0.472099
C78	C	1.856705	0.033554	0.972099
C79	C	1.055749	-0.546527	0.367370
C80	C	1.555749	-0.046527	0.867370
C81	C	0.988798	-0.485754	0.344075
C82	C	1.488798	0.014246	0.844075
C83	C	1.022162	-0.398282	0.355692
C84	C	1.522162	0.101718	0.855692
C85	C	1.122477	-0.371583	0.390596
C86	C	1.622477	0.128417	0.890596
C87	C	0.955206	-0.337500	0.332393
C88	C	1.455206	0.162500	0.832393
C89	C	0.988569	-0.250028	0.344002
C90	C	1.488569	0.249972	0.844002
C91	C	1.155841	-0.284111	0.402205
C92	C	1.655841	0.215889	0.902205
C93	C	1.345636	0.003673	0.468250
C94	C	1.845636	0.503673	0.968250
C95	C	1.452548	-0.003225	0.505448
C96	C	1.952548	0.496775	1.005448
C97	C	1.221114	0.178039	0.424915
C98	C	1.721114	0.678039	0.924915
C99	C	1.256613	0.271137	0.437264
C100	C	1.756613	0.771137	0.937264
N101	N	1.217046	-0.038107	0.672236
N102	N	1.717046	0.461893	1.172236
N103	N	1.128463	0.085898	0.143949
N104	N	1.628463	0.585898	0.643949
C105	C	1.057043	0.185811	0.968368
C106	C	1.557043	0.685811	1.468368
C107	C	1.074968	0.160738	1.075106
C108	C	1.574968	0.660738	1.575106
C109	C	1.164050	0.036098	1.106072
C110	C	1.664050	0.536098	1.606072
C111	C	1.146128	0.061158	0.999333
C112	C	1.646128	0.561158	1.499333
C113	C	1.092625	0.136016	0.930489
C114	C	1.592625	0.636016	1.430489
C115	C	1.181710	0.011363	0.961455
C116	C	1.681710	0.511363	1.461455
C117	C	1.163794	0.036424	0.854727
C118	C	1.663794	0.536424	1.354727
C119	C	1.110295	0.111280	0.785878
C120	C	1.610295	0.611280	1.285878
C121	C	1.074709	0.161076	0.823762
C122	C	1.574709	0.661076	1.323762
C123	C	1.235219	-0.063491	1.030302
C124	C	1.735219	0.436509	1.530302
C125	C	1.270801	-0.113286	0.992423
C126	C	1.770801	0.386714	1.492423
C127	C	1.252879	-0.088229	0.885692
C128	C	1.752879	0.411771	1.385692
C129	C	1.199380	-0.013373	0.816843
C130	C	1.699380	0.486627	1.316843
C131	C	1.288465	-0.138026	0.847808
C132	C	1.788465	0.361974	1.347808
C133	C	1.270549	-0.112965	0.741080
C134	C	1.770549	0.387035	1.241080
C135	C	1.181464	0.011688	0.710115
C136	C	1.681464	0.511688	1.210115
H137	H	0.673297	0.102787	0.076341
H138	H	1.173297	0.602787	0.576341
H139	H	1.438397	-0.444717	0.500535
H140	H	1.938397	0.055283	1.000535
F141	F	0.688634	-0.061222	0.767319
F142	F	1.188634	0.438778	1.267319
H143	H	1.237533	-0.262381	0.430642
H144	H	1.737533	0.237619	0.930642
H145	H	1.207616	-0.024850	1.162137
H146	H	1.707616	0.475150	1.662137
F147	F	0.481255	-0.047809	0.695081
F148	F	0.981255	0.452191	1.195081
H149	H	1.137888	0.072639	0.654055
H150	H	1.637888	0.572639	1.154055
H151	H	0.870479	-0.009601	0.563970
H152	H	1.370479	0.490399	1.063970
H153	H	0.911695	0.012279	0.475145
H154	H	1.411695	0.512279	0.975145
H155	H	0.433800	0.035528	0.341033
H156	H	0.933800	0.535528	0.841033
F157	F	0.449906	0.059004	0.243449
F158	F	0.949906	0.559004	0.743449
F159	F	1.037093	0.213747	1.115410
F160	F	1.537093	0.713747	1.615410
F161	F	1.345417	-0.217686	0.921090
F162	F	1.845417	0.282314	1.421090
F163	F	1.254289	-0.090156	1.143894
F164	F	1.754289	0.409844	1.643894
H165	H	1.471985	-0.592962	0.512221
H166	H	1.971985	-0.092962	1.012221
H167	H	1.013466	0.246762	0.912309
H168	H	1.513466	0.746762	1.412309
F169	F	0.848439	-0.365915	0.295224
F170	F	1.348439	0.134085	0.795224
H171	H	1.028587	-0.617752	0.357913
H172	H	1.528587	-0.117752	0.857913
F173	F	1.308423	-0.165962	0.700768
F174	F	1.808423	0.334038	1.200768
F175	F	0.521651	0.097071	0.088794
F176	F	1.021651	0.597071	0.588794
H177	H	0.934051	-0.200545	0.325034
H178	H	1.434051	0.299455	0.825034
H179	H	1.095713	0.131686	0.698975
H180	H	1.595713	0.631686	1.198975
F181	F	0.864251	0.095601	0.121081
F182	F	1.364251	0.595601	0.621081
H183	H	1.316912	-0.334439	0.458251
H184	H	1.816912	0.165561	0.958251
F185	F	1.428180	-0.766844	0.496960
F186	F	1.928180	-0.266844	0.996960
H187	H	0.907116	-0.507497	0.315649
H188	H	1.407116	-0.007497	0.815649
F189	F	1.082889	-0.696502	0.376806
F190	F	1.582889	-0.196502	0.876806
H191	H	1.031132	0.222028	0.767702
H192	H	1.531132	0.722028	1.267702
H193	H	0.807417	-0.043046	0.699908
H194	H	1.307417	0.456954	1.199908
F195	F	1.327744	-0.192951	1.065701
F196	F	1.827744	0.307049	1.565701
