data_functionalizedCrystal
_audit_creation_method	'MofGen! by Chris Wilmer'
_symmetry_space_group_name_H-M	'P1'
_symmetry_Int_Tables_number	1
_symmetry_cell_setting	triclinic
loop_
_symmetry_equiv_pos_as_xyz
  x,y,z
_cell_length_a	15.995292
_cell_length_b	15.995350
_cell_length_c	17.766277
_cell_angle_alpha	89.995869
_cell_angle_beta	89.989466
_cell_angle_gamma	83.480495
loop_
_atom_site_label
_atom_site_type_symbol
_atom_site_fract_x
_atom_site_fract_y
_atom_site_fract_z
O1	O	1.111022	0.107696	-0.062611
O2	O	0.867240	0.121074	-0.062607
O3	O	0.995795	-0.007504	-0.062608
O4	O	0.982467	0.236274	-0.062610
O5	O	0.995772	-0.007510	0.062580
O6	O	0.867217	0.121068	0.062581
O7	O	1.110999	0.107689	0.062578
Cu8	Cu	0.989106	0.114378	0.074010
Cu9	Cu	0.989133	0.114386	-0.074040
O10	O	0.982444	0.236268	0.062579
C11	C	0.836033	0.120527	-0.000013
C12	C	0.743080	0.118894	-0.000012
C13	C	0.995232	-0.038702	-0.000016
C14	C	0.993580	-0.131652	-0.000020
C15	C	0.405341	0.112893	-0.000020
C16	C	0.428654	0.205697	-0.000300
C17	C	0.525329	0.207461	-0.000015
C18	C	0.572897	0.115871	-0.000016
C19	C	0.543783	0.069469	0.071470
C20	C	0.446992	0.068352	0.071527
C21	C	0.447162	0.066465	-0.070836
C22	C	0.543655	0.069904	-0.071777
C23	C	0.667593	0.117549	-0.000012
C24	C	0.310646	0.111212	-0.000020
C25	C	0.987648	-0.469398	-0.000017
C26	C	0.896094	-0.421945	-0.000297
C27	C	0.897746	-0.325255	-0.000015
C28	C	0.990591	-0.301838	-0.000019
C29	C	1.035736	-0.342929	0.071468
C30	C	1.033436	-0.439564	0.071528
C31	C	1.035353	-0.439915	-0.070835
C32	C	1.035331	-0.342970	-0.071780
C33	C	0.992259	-0.207141	-0.000017
C34	C	0.985983	-0.564095	-0.000014
C35	C	1.142206	0.108237	-0.000019
C36	C	1.235159	0.109870	-0.000025
C37	C	0.983006	0.267466	-0.000016
C38	C	0.984658	0.360416	-0.000016
N39	N	0.989093	0.114372	0.178140
N40	N	0.989152	0.114385	-0.178170
C41	C	1.046036	0.057466	0.217527
C42	C	1.046041	0.057462	0.296329
C43	C	0.989111	0.114379	0.335741
C44	C	0.932158	0.171290	0.296345
C45	C	0.932149	0.171286	0.217545
C46	C	0.978140	0.190637	0.460579
C47	C	0.978155	0.190642	0.539378
C48	C	0.989133	0.114389	0.578787
C49	C	1.000115	0.038128	0.539389
C50	C	1.000106	0.038125	0.460588
C51	C	0.989114	0.114388	0.421187
C52	C	1.046084	0.057473	0.703620
C53	C	1.046083	0.057469	0.782423
C54	C	0.932204	0.171304	0.782438
C55	C	0.932201	0.171301	0.703636
C56	C	0.989146	0.114387	0.664232
H57	H	0.544365	0.243796	-0.051261
Cl58	Cl	0.860629	0.242850	0.831979
Cl59	Cl	1.141048	-0.321144	0.075572
Cl60	Cl	1.139570	-0.488974	-0.071584
H61	H	0.543723	0.244015	0.051317
H62	H	0.400667	0.241471	-0.051567
Cl63	Cl	0.987298	-0.299109	0.153609
Cl64	Cl	0.383837	0.260620	0.078404
H65	H	1.009046	-0.023969	0.428513
Cl66	Cl	0.572378	0.122037	-0.153432
H67	H	1.092450	0.011124	0.814492
H68	H	0.862001	-0.297386	0.051318
Cl69	Cl	0.594551	-0.033315	-0.078444
H70	H	1.000497	-0.457861	0.124968
H71	H	0.420165	0.100483	0.124966
H72	H	0.575650	0.002071	0.074127
Cl73	Cl	0.839605	-0.450538	-0.079446
H74	H	1.009055	-0.023964	0.571474
H75	H	0.433169	-0.001846	-0.071320
H76	H	1.092450	0.011128	0.671535
H77	H	0.885837	0.217643	0.671566
H78	H	1.103038	-0.327622	-0.076099
Cl79	Cl	0.964415	0.286510	0.411043
Cl80	Cl	1.117633	-0.014084	0.345851
Cl81	Cl	0.839675	-0.452546	0.078180
H82	H	1.100653	-0.471826	0.074768
H83	H	1.005429	-0.460446	-0.125018
H84	H	1.092401	0.011121	0.185446
H85	H	1.002324	-0.315711	-0.124664
H86	H	0.885803	0.217631	0.328439
H87	H	0.862258	-0.296823	-0.051259
H88	H	0.969218	0.252738	0.571450
H89	H	0.432441	0.000308	0.074773
Cl90	Cl	0.574733	0.119209	0.153611
Cl91	Cl	0.860559	0.242833	0.168027
H92	H	0.418845	0.095475	-0.125019
