data_functionalizedCrystal
_audit_creation_method	'MofGen! by Chris Wilmer'
_symmetry_space_group_name_H-M	'P1'
_symmetry_Int_Tables_number	1
_symmetry_cell_setting	triclinic
loop_
_symmetry_equiv_pos_as_xyz
  x,y,z
_cell_length_a	17.038272
_cell_length_b	19.288865
_cell_length_c	18.366186
_cell_angle_alpha	90.011479
_cell_angle_beta	90.003276
_cell_angle_gamma	87.123902
loop_
_atom_site_label
_atom_site_type_symbol
_atom_site_fract_x
_atom_site_fract_y
_atom_site_fract_z
O1	O	-1.036885	-0.150802	-0.060473
O2	O	-0.809262	-0.148407	-0.060494
O3	O	-0.929651	-0.048881	-0.060469
O4	O	-0.916497	-0.250328	-0.060499
O5	O	-0.929631	-0.048875	0.060631
O6	O	-0.809242	-0.148401	0.060605
O7	O	-1.036865	-0.150795	0.060626
Zn8	Zn	-0.923050	-0.149597	0.079843
Zn9	Zn	-0.923077	-0.149605	-0.079711
O10	O	-0.916476	-0.250321	0.060600
C11	C	-0.780131	-0.146226	0.000053
C12	C	-0.693359	-0.139728	0.000045
C13	C	-0.929218	-0.022975	0.000083
C14	C	-0.927947	0.054207	0.000089
C15	C	-1.065996	-0.152976	0.000077
C16	C	-1.152768	-0.159474	0.000080
C17	C	-0.643052	-0.199384	0.000037
C18	C	-0.561521	-0.193275	0.000048
C19	C	-0.530299	-0.127509	0.000062
C20	C	-0.580612	-0.067849	0.000073
C21	C	-0.662141	-0.073959	0.000067
C22	C	-0.284611	-0.105924	0.000085
C23	C	-0.203075	-0.099818	0.000088
C24	C	-0.183990	-0.225245	0.000065
C25	C	-0.265522	-0.231349	0.000055
C26	C	-0.315828	-0.171689	0.000069
C27	C	-0.446961	-0.121263	0.000071
C28	C	-0.399163	-0.177936	0.000066
C29	C	-0.916910	-0.276227	0.000047
C30	C	-0.918180	-0.353409	0.000036
N31	N	-0.923037	-0.149591	0.188734
C32	C	-0.998586	0.094533	0.000099
C33	C	-0.997392	0.167054	0.000088
C34	C	-0.925556	0.199246	0.000081
C35	C	-0.854908	0.158911	0.000066
C36	C	-0.856103	0.086391	0.000071
C37	C	-0.869077	0.311029	0.042494
C38	C	-0.867884	0.383548	0.042494
C39	C	-0.921865	0.422920	0.000064
C40	C	-0.977051	0.389765	-0.042357
C41	C	-0.978247	0.317246	-0.042352
C42	C	-0.924251	0.277881	0.000075
C43	C	-0.991214	0.541881	0.000060
C44	C	-0.990017	0.614403	0.000044
C45	C	-0.847531	0.606259	0.000030
C46	C	-0.848730	0.533738	0.000039
C47	C	-0.920573	0.501554	0.000058
N48	N	-0.923096	-0.149606	-0.188602
C49	C	-0.976363	-0.105545	0.226846
C50	C	-0.976368	-0.105542	0.303073
C51	C	-0.923055	-0.149598	0.341187
C52	C	-0.869719	-0.193647	0.303066
C53	C	-0.869711	-0.193643	0.226839
C54	C	-0.912591	-0.212238	0.461937
C55	C	-0.912605	-0.212243	0.538162
C56	C	-0.923077	-0.149608	0.576294
C57	C	-0.933552	-0.086967	0.538192
C58	C	-0.933543	-0.086963	0.461966
C59	C	-0.923058	-0.149606	0.423841
C60	C	-0.976411	-0.105555	0.697061
C61	C	-0.976410	-0.105551	0.773290
C62	C	-0.869765	-0.193662	0.773281
C63	C	-0.869762	-0.193660	0.697053
C64	C	-0.923089	-0.149607	0.658948
H65	H	-0.668467	-0.252938	0.000025
F66	F	-0.715681	-0.010464	0.000078
F67	F	-0.813009	-0.240543	0.656488
H68	H	-1.047542	0.647236	0.000049
H69	H	-1.023181	0.290255	-0.076894
H70	H	-0.143023	-0.273817	0.000055
H71	H	-0.942070	-0.035958	0.430946
H72	H	-0.942079	-0.035963	0.569237
H73	H	-0.798579	0.053558	0.000063
F74	F	-1.033114	-0.058659	0.186293
F75	F	-0.338140	-0.042427	0.000100
H76	H	-1.019831	-0.069683	0.666034
H77	H	-1.054916	0.199893	0.000093
H78	H	-1.021008	0.421821	-0.076908
H79	H	-1.019793	-0.069673	0.334110
H80	H	-1.049713	0.515676	0.000072
H81	H	-0.177657	-0.046261	0.000099
F82	F	-0.771077	0.640515	0.000019
F83	F	-0.507984	-0.256770	0.000036
H84	H	-1.019832	-0.069680	0.804321
H85	H	-0.826354	-0.229530	0.804312
H86	H	-0.904081	-0.263249	0.569179
H87	H	-0.796418	0.185126	0.000059
F88	F	-0.901501	-0.278913	0.421361
F89	F	-0.547380	0.002145	0.000092
H90	H	-0.424588	-0.231482	0.000058
F91	F	-0.413725	-0.051271	0.000083
H92	H	-1.057086	0.068333	0.000112
F93	F	-0.773545	0.490819	0.000031
H94	H	-0.826310	-0.229516	0.334101
F95	F	-0.812952	-0.240525	0.186276
H96	H	-0.822944	0.410536	0.077031
F97	F	-0.811620	0.269134	0.087658
F98	F	-0.298744	-0.301346	0.000036
