data_functionalizedCrystal
_audit_creation_method	'MofGen! by Chris Wilmer'
_symmetry_space_group_name_H-M	'P1'
_symmetry_Int_Tables_number	1
_symmetry_cell_setting	triclinic
loop_
_symmetry_equiv_pos_as_xyz
  x,y,z
_cell_length_a	12.759400
_cell_length_b	19.805407
_cell_length_c	19.805398
_cell_angle_alpha	90.015489
_cell_angle_beta	89.978428
_cell_angle_gamma	89.989165
loop_
_atom_site_label
_atom_site_type_symbol
_atom_site_fract_x
_atom_site_fract_y
_atom_site_fract_z
Zn1	Zn	-0.418416	-1.034766	-0.382733
Zn2	Zn	-0.594104	-1.034711	-0.269554
Zn3	Zn	-0.418428	-0.921588	-0.269559
Zn4	Zn	-0.594042	-0.921567	-0.382701
O5	O	-0.506247	-0.978158	-0.326137
O6	O	-0.441742	-1.129475	-0.367731
O7	O	-0.570831	-1.019691	-0.174838
O8	O	-0.271405	-0.936633	-0.284587
O9	O	-0.570820	-1.129435	-0.284579
O10	O	-0.271396	-1.019784	-0.367736
O11	O	-0.441763	-0.936580	-0.174841
O12	O	-0.441702	-0.826869	-0.284556
O13	O	-0.570713	-0.936598	-0.477422
O14	O	-0.570725	-0.826854	-0.367681
O15	O	-0.441682	-1.019764	-0.477446
O16	O	-0.741117	-1.019671	-0.284547
O17	O	-0.741071	-0.936545	-0.367676
C18	C	-0.506209	-0.802302	-0.326116
C19	C	-0.506218	-0.727070	-0.326123
C20	C	-0.439125	-0.691748	-0.369486
C21	C	-0.439128	-0.621059	-0.369487
C22	C	-0.506230	-0.585695	-0.326128
C23	C	-0.573326	-0.621022	-0.282761
C24	C	-0.573317	-0.691709	-0.282757
C25	C	-0.573364	-0.335949	-0.282774
C26	C	-0.573371	-0.265257	-0.282783
C27	C	-0.439176	-0.265299	-0.369504
C28	C	-0.439166	-0.335986	-0.369500
C29	C	-0.506258	-0.371307	-0.326131
C30	C	-0.506252	-0.447956	-0.326129
C31	C	-0.506242	-0.509047	-0.326132
C32	C	-0.779215	-0.978118	-0.326123
C33	C	-0.895991	-0.978163	-0.326139
C34	C	-0.950842	-1.021495	-0.282902
C35	C	-1.060566	-1.021536	-0.282923
C36	C	-1.060579	-0.934908	-0.369420
C37	C	-0.950857	-0.934871	-0.369402
C38	C	-0.895977	-1.064787	-0.239639
C39	C	-0.950828	-1.108122	-0.196397
C40	C	-1.060552	-1.108163	-0.196418
C41	C	-1.115425	-1.064870	-0.239680
C42	C	-0.232214	-0.978217	-0.326166
C43	C	-0.115437	-0.978242	-0.326178
C44	C	-0.506189	-0.978185	-0.502679
C45	C	-0.506164	-0.978196	-0.577911
C46	C	-0.506279	-0.154701	-0.326152
C47	C	-0.506272	-0.229933	-0.326143
C48	C	-0.438792	-1.021582	-1.039716
C49	C	-0.438824	-1.021572	-0.969028
C50	C	-0.506018	-0.978265	-0.933673
C51	C	-0.573192	-0.934972	-0.969011
C52	C	-0.573165	-0.934986	-1.039698
C53	C	-0.573306	-0.934913	-0.683938
C54	C	-0.573327	-0.934900	-0.613246
C55	C	-0.438965	-1.021498	-0.613267
C56	C	-0.438938	-1.021513	-0.683954
C57	C	-0.506115	-0.978222	-0.719286
C58	C	-0.506081	-0.978235	-0.795934
C59	C	-0.506048	-0.978249	-0.857026
C60	C	-0.506229	-0.978171	-0.150281
C61	C	-0.505958	-0.978291	-0.075049
H62	H	-0.384497	-0.592303	-0.404798
H63	H	-0.384528	-0.364776	-0.404810
C64	C	-0.365307	-0.730645	-0.417180
C65	C	-0.365291	-0.808398	-0.417180
C66	C	-0.291467	-0.847294	-0.464874
C67	C	-0.217660	-0.808436	-0.512567
C68	C	-0.217673	-0.730679	-0.512569
C69	C	-0.291497	-0.691783	-0.464876
H70	H	-0.419930	-0.837167	-0.381873
H71	H	-0.291457	-0.904855	-0.464872
H72	H	-0.163011	-0.837229	-0.547873
H73	H	-0.163034	-0.701910	-0.547876
H74	H	-0.291507	-0.634222	-0.464877
C75	C	-0.647177	-0.374796	-0.235078
C76	C	-0.720997	-0.335894	-0.187393
C77	C	-0.794819	-0.374745	-0.139698
C78	C	-0.794820	-0.452499	-0.139687
C79	C	-0.720998	-0.491405	-0.187374
C80	C	-0.647176	-0.452554	-0.235070
H81	H	-0.720999	-0.278333	-0.187400
H82	H	-0.849467	-0.345944	-0.104397
H83	H	-0.849467	-0.481258	-0.104380
H84	H	-0.720996	-0.548966	-0.187368
H85	H	-0.592528	-0.481355	-0.270371
H86	H	-0.627950	-0.720468	-0.247446
C87	C	-0.890508	-0.887202	-0.416958
C88	C	-0.905677	-0.810265	-0.411363
C89	C	-0.845327	-0.762598	-0.458921
C90	C	-0.769808	-0.791867	-0.512073
C91	C	-0.754635	-0.868808	-0.517669
C92	C	-0.814986	-0.916476	-0.470112
H93	H	-0.961584	-0.788595	-0.372015
H94	H	-0.856559	-0.705641	-0.454777
H95	H	-0.725133	-0.756581	-0.547277
H96	H	-0.698729	-0.890479	-0.557017
H97	H	-0.803754	-0.973433	-0.474255
C98	C	-0.365023	-1.069150	-0.722843
C99	C	-0.291142	-1.116775	-0.683978
C100	C	-0.217228	-1.164415	-0.722866
C101	C	-0.217195	-1.164431	-0.800619
C102	C	-0.291078	-1.116805	-0.839489
C103	C	-0.364992	-1.069165	-0.800601
H104	H	-0.291164	-1.116764	-0.626417
H105	H	-0.162535	-1.199671	-0.694092
H106	H	-0.162480	-1.199697	-0.829406
H107	H	-0.291056	-1.116815	-0.897050
H108	H	-0.419686	-1.033909	-0.829375
C109	C	-0.365362	-0.226443	-0.417205
C110	C	-0.411000	-0.177858	-0.470295
C111	C	-0.337190	-0.139004	-0.517996
C112	C	-0.217742	-0.148735	-0.512607
C113	C	-0.172098	-0.197322	-0.459515
C114	C	-0.245908	-0.236176	-0.411814
H115	H	-0.499428	-0.170652	-0.474286
H116	H	-0.370980	-0.103036	-0.557298
H117	H	-0.163104	-0.119973	-0.547918
H118	H	-0.083670	-0.204528	-0.455524
H119	H	-0.212118	-0.272144	-0.372512
C120	C	-0.364876	-1.069221	-1.078603
C121	C	-0.410394	-1.122360	-1.127200
C122	C	-0.336478	-1.170001	-1.166084
C123	C	-0.217045	-1.164504	-1.156372
C124	C	-0.171521	-1.111364	-1.107774
C125	C	-0.245436	-1.063722	-1.068889
H126	H	-0.498811	-1.126431	-1.134391
H127	H	-0.370179	-1.209340	-1.202060
H128	H	-0.162328	-1.199772	-1.185157
H129	H	-0.083103	-1.107292	-1.100582
H130	H	-0.211735	-1.024383	-1.032913
H131	H	-0.628005	-0.899662	-0.712696
C132	C	-0.647124	-0.887344	-0.930124
C133	C	-0.647166	-0.887329	-0.852371
C134	C	-0.721104	-0.839703	-0.813485
C135	C	-0.795001	-0.792092	-0.852353
C136	C	-0.794962	-0.792104	-0.930110
C137	C	-0.721023	-0.839730	-0.968996
H138	H	-0.592461	-0.922576	-0.823595
H139	H	-0.721133	-0.839695	-0.755924
H140	H	-0.849735	-0.756836	-0.823567
H141	H	-0.849667	-0.756857	-0.958886
H142	H	-0.720995	-0.839739	-1.026557
C143	C	-0.647051	-0.887368	-1.078570
C144	C	-0.766491	-0.892870	-1.068840
C145	C	-0.840386	-0.845256	-1.107712
C146	C	-0.794841	-0.792138	-1.156315
C147	C	-0.675395	-0.786633	-1.166048
C148	C	-0.601500	-0.834248	-1.127175
H149	H	-0.800212	-0.932193	-1.032859
H150	H	-0.928808	-0.849331	-1.100507
H151	H	-0.849542	-0.756891	-1.185090
H152	H	-0.641674	-0.747311	-1.202028
H153	H	-0.513078	-0.830173	-1.134380
H154	H	-1.105209	-1.143454	-0.161214
H155	H	-0.628016	-0.236465	-0.247472
H156	H	-0.806634	-1.064756	-0.239615
H157	H	-0.627957	-0.592223	-0.247454
H158	H	-0.906145	-1.143374	-0.161178
H159	H	-1.204770	-1.064913	-0.239699
H160	H	-0.384269	-1.056750	-0.584491
H161	H	-0.384133	-1.056826	-0.940263
H162	H	-1.105265	-0.899660	-0.404642
H163	H	-0.628044	-0.899630	-0.584462
