data_functionalizedCrystal
_audit_creation_method	'MofGen! by Chris Wilmer'
_symmetry_space_group_name_H-M	'P1'
_symmetry_Int_Tables_number	1
_symmetry_cell_setting	triclinic
loop_
_symmetry_equiv_pos_as_xyz
  x,y,z
_cell_length_a	14.044202
_cell_length_b	16.109301
_cell_length_c	14.586319
_cell_angle_alpha	89.998390
_cell_angle_beta	89.996315
_cell_angle_gamma	88.327091
loop_
_atom_site_label
_atom_site_type_symbol
_atom_site_fract_x
_atom_site_fract_y
_atom_site_fract_z
O1	O	-1.257648	-0.200468	0.076199
O2	O	-0.981681	-0.193227	0.076211
O3	O	-1.127245	-0.076381	0.076196
O4	O	-1.112083	-0.317314	0.076215
O5	O	-1.127227	-0.076387	-0.076285
O6	O	-0.981663	-0.193233	-0.076270
O7	O	-1.257630	-0.200474	-0.076281
Cu8	Cu	-1.119645	-0.196854	-0.090198
Cu9	Cu	-1.119666	-0.196847	0.090128
O10	O	-1.112065	-0.317320	-0.076266
C11	C	-0.946358	-0.190063	-0.000028
C12	C	-0.841135	-0.180616	-0.000024
C13	C	-0.590834	-0.230339	-0.000028
C14	C	-0.648483	-0.163359	-0.000032
C15	C	-0.755685	-0.172963	-0.000027
C16	C	-0.483623	-0.220736	-0.000033
C17	C	-0.292953	-0.203636	-0.000040
C18	C	-0.398176	-0.213078	-0.000037
C19	C	-1.126622	-0.045363	-0.000045
C20	C	-1.124781	0.047069	-0.000046
C21	C	-1.112688	-0.348338	-0.000023
C22	C	-1.114530	-0.440770	-0.000016
C23	C	-1.206875	0.263231	-0.000035
C24	C	-1.205137	0.350081	-0.000028
C25	C	-1.032430	0.343061	-0.000024
C26	C	-1.034168	0.256213	-0.000025
C27	C	-1.121393	0.216301	-0.000035
C28	C	-1.117917	0.389998	-0.000027
C29	C	-1.116033	0.484165	-0.000018
C30	C	-1.123278	0.122128	-0.000042
N31	N	-1.119637	-0.196859	-0.217030
C32	C	-1.177122	-0.251567	-0.452035
C33	C	-1.177132	-0.251562	-0.548016
C34	C	-1.062193	-0.142123	-0.548029
C35	C	-1.062189	-0.142124	-0.452049
C36	C	-1.119652	-0.196851	-0.404055
C37	C	-1.119666	-0.196844	-0.596015
C38	C	-1.119676	-0.196838	-0.700083
C39	C	-1.119643	-0.196856	-0.299981
N40	N	-1.119681	-0.196836	0.216960
H41	H	-1.277899	0.230737	-0.000042
H42	H	-1.015408	-0.097567	-0.587118
O43	O	-0.611166	-0.086401	0.000011
C44	C	-0.468737	-0.006541	-0.000032
C45	C	-0.510877	-0.093738	-0.000068
H46	H	-0.387649	-0.012443	-0.000116
H47	H	-0.493631	0.028694	0.063799
H48	H	-0.493746	0.028686	-0.063827
H49	H	-0.485888	-0.129034	0.063684
H50	H	-0.485988	-0.128910	-0.063941
H51	H	-0.964555	0.218001	-0.000022
H52	H	-1.223912	-0.296129	-0.412960
O53	O	-0.628151	-0.307291	0.000026
C54	C	-0.770588	-0.387140	-0.000005
C55	C	-0.728439	-0.299946	-0.000049
H56	H	-0.851676	-0.381231	-0.000085
H57	H	-0.745704	-0.422375	0.063829
H58	H	-0.745577	-0.422370	-0.063797
H59	H	-0.753431	-0.264647	0.063700
H60	H	-0.753318	-0.264774	-0.063925
O61	O	-1.288261	0.395544	-0.000071
C62	C	-1.459747	0.393336	-0.000025
C63	C	-1.365675	0.341749	0.000001
H64	H	-1.522360	0.349864	0.000053
H65	H	-1.463310	0.434156	-0.063850
H66	H	-1.463206	0.434187	0.063776
H67	H	-1.362153	0.300850	-0.063756
H68	H	-1.362151	0.300983	0.063869
H69	H	-0.961414	0.375569	-0.000017
O70	O	-1.232982	-0.304794	-0.594481
C71	C	-1.347024	-0.413311	-0.584333
C72	C	-1.283799	-0.353081	-0.531598
H73	H	-1.388142	-0.452355	-0.533515
H74	H	-1.300438	-0.455803	-0.629250
H75	H	-1.399351	-0.376315	-0.629285
H76	H	-1.231463	-0.390009	-0.486596
H77	H	-1.330445	-0.310589	-0.486739
O78	O	-1.006270	-0.088942	-0.405577
C79	C	-0.892311	0.019643	-0.415711
C80	C	-0.955568	-0.040554	-0.468454
H81	H	-0.851317	0.058792	-0.466523
H82	H	-0.839888	-0.017297	-0.370804
H83	H	-0.938957	0.062041	-0.370747
H84	H	-0.908998	-0.082966	-0.513467
H85	H	-1.007997	-0.003563	-0.513303
