data_functionalizedCrystal
_audit_creation_method	'MofGen! by Chris Wilmer'
_symmetry_space_group_name_H-M	'P1'
_symmetry_Int_Tables_number	1
_symmetry_cell_setting	triclinic
loop_
_symmetry_equiv_pos_as_xyz
  x,y,z
_cell_length_a	16.120256
_cell_length_b	14.908571
_cell_length_c	14.908520
_cell_angle_alpha	89.794039
_cell_angle_beta	95.993972
_cell_angle_gamma	90.247767
loop_
_atom_site_label
_atom_site_type_symbol
_atom_site_fract_x
_atom_site_fract_y
_atom_site_fract_z
Zn1	Zn	-0.566582	-1.321187	-0.466650
Zn2	Zn	-0.066582	-0.821187	0.033350
Zn3	Zn	-0.434761	-1.320030	-0.610211
Zn4	Zn	0.065239	-0.820030	-0.110211
Zn5	Zn	-0.418769	-1.179373	-0.450363
Zn6	Zn	0.081231	-0.679373	0.049637
Zn7	Zn	-0.565619	-1.162171	-0.608225
Zn8	Zn	-0.065619	-0.662171	-0.108225
O9	O	-0.496433	-1.245690	-0.533862
O10	O	0.003567	-0.745690	-0.033862
O11	O	-0.556192	-1.446448	-0.493342
O12	O	-0.056192	-0.946448	0.006658
O13	O	-0.316015	-1.308086	-0.583022
O14	O	0.183985	-0.808086	-0.083022
O15	O	-0.432087	-1.205869	-0.326377
O16	O	0.067913	-0.705869	0.173623
O17	O	-0.459344	-1.445598	-0.598815
O18	O	0.040656	-0.945598	-0.098815
O19	O	-0.540685	-1.310059	-0.338343
O20	O	-0.040685	-0.810059	0.161657
O21	O	-0.304266	-1.204747	-0.465582
O22	O	0.195734	-0.704747	0.034418
O23	O	-0.431153	-1.051677	-0.463656
O24	O	0.068847	-0.551677	0.036344
O25	O	-0.682372	-1.176549	-0.595429
O26	O	-0.182372	-0.676549	-0.095429
O27	O	-0.539043	-1.039038	-0.579636
O28	O	-0.039043	-0.539038	-0.079636
O29	O	-0.683080	-1.293378	-0.491415
O30	O	-0.183080	-0.793378	0.008585
O31	O	-0.458410	-1.291406	-0.736094
O32	O	0.041590	-0.791406	-0.236094
O33	O	-0.554550	-1.175427	-0.734635
O34	O	-0.054550	-0.675427	-0.234635
C35	C	-0.483259	-1.012839	-0.519664
C36	C	0.016741	-0.512839	-0.019664
C37	C	-0.477644	-0.913222	-0.513612
C38	C	0.022356	-0.413222	-0.013612
C39	C	-0.713811	-1.233174	-0.545018
C40	C	-0.213811	-0.733174	-0.045018
C41	C	-0.806444	-1.227840	-0.549771
C42	C	-0.306444	-0.727840	-0.049771
C43	C	-0.508130	-1.231448	-0.768075
C44	C	-0.008130	-0.731448	-0.268075
C45	C	-0.513167	-1.225435	-0.868279
C46	C	-0.013167	-0.725435	-0.368279
C47	C	-1.017666	-1.273504	-0.509049
C48	C	-0.517666	-0.773504	-0.009049
C49	C	-0.976038	-1.218075	-0.558411
C50	C	-0.476038	-0.718075	-0.058411
C51	C	-0.881667	-1.223510	-0.553603
C52	C	-0.381667	-0.723510	-0.053603
C53	C	-1.112045	-1.268070	-0.513856
C54	C	-0.612045	-0.768070	-0.013856
C55	C	-0.279901	-1.258213	-0.522688
C56	C	0.220099	-0.758213	-0.022688
C57	C	-0.187265	-1.263736	-0.517691
C58	C	0.312735	-0.763736	-0.017691
C59	C	-0.509659	-1.479451	-0.548117
C60	C	-0.009659	-0.979451	-0.048117
C61	C	-0.515295	-1.579065	-0.554191
C62	C	-0.015295	-1.079065	-0.054191
C63	C	-0.579304	-0.712916	-0.623183
C64	C	-0.079304	-0.212916	-0.123183
C65	C	-0.574031	-0.619316	-0.617500
C66	C	-0.074031	-0.119316	-0.117500
C67	C	-0.461830	-0.632421	-0.496560
C68	C	0.038170	-0.132421	0.003440
C69	C	-0.467103	-0.726021	-0.502243
C70	C	0.032897	-0.226021	-0.002243
C71	C	-0.525841	-0.766264	-0.565557
C72	C	-0.025841	-0.266264	-0.065557
C73	C	-0.531109	-0.859866	-0.571244
C74	C	-0.031109	-0.359866	-0.071244
C75	C	-0.418912	-0.872969	-0.450300
C76	C	0.081088	-0.372969	0.049700
C77	C	-0.413639	-0.779370	-0.444617
C78	C	0.086361	-0.279370	0.055383
C79	C	-0.422613	-1.335018	-1.058042
C80	C	0.077387	-0.835018	-0.558042
C81	C	-0.427343	-1.329372	-1.152193
C82	C	0.072657	-0.829372	-0.652193
C83	C	-0.527361	-1.208501	-1.150732
C84	C	-0.027361	-0.708501	-0.650732
C85	C	-0.522631	-1.214147	-1.056582
C86	C	-0.022631	-0.714147	-0.556582
C87	C	-0.470254	-1.277407	-1.010240
C88	C	0.029746	-0.777407	-0.510240
C89	C	-0.465520	-1.283048	-0.916088
C90	C	0.034480	-0.783048	-0.416088
C91	C	-0.565542	-1.162183	-0.914629
C92	C	-0.065542	-0.662183	-0.414629
C93	C	-0.570272	-1.156537	-1.008779
C94	C	-0.070272	-0.656537	-0.508779
C95	C	-0.484710	-1.260012	-0.298737
C96	C	0.015290	-0.760012	0.201263
C97	C	-0.479714	-1.266115	-0.198541
C98	C	0.020286	-0.766115	0.301459
H99	H	-0.982432	-1.325037	-0.463181
H100	H	-0.482432	-0.825037	0.036819
H101	H	-0.375377	-0.916416	-0.403379
H102	H	0.124623	-0.416416	0.096621
H103	H	-0.604332	-1.115269	-0.875697
H104	H	-0.104332	-0.615269	-0.375697
H105	H	-0.379959	-1.386521	-1.020310
H106	H	0.120041	-0.886521	-0.520310
C107	C	-0.632169	-0.561348	-0.679918
C108	C	-0.132169	-0.061348	-0.179918
C109	C	-0.680102	-0.507655	-0.628445
C110	C	-0.180102	-0.007655	-0.128445
C111	C	-0.733678	-0.454251	-0.685915
C112	C	-0.233678	0.045749	-0.185915
H113	H	-0.600227	-0.524205	-0.715307
H114	H	-0.100227	-0.024205	-0.215307
H115	H	-0.667952	-0.598693	-0.718423
H116	H	-0.167952	-0.098693	-0.218423
H117	H	-0.644324	-0.470313	-0.589957
H118	H	-0.144324	0.029687	-0.089957
H119	H	-0.712061	-0.544774	-0.593058
H120	H	-0.212061	-0.044774	-0.093058
H121	H	-0.769461	-0.491596	-0.724420
H122	H	-0.269461	0.008404	-0.224420
H123	H	-0.701730	-0.417114	-0.721301
H124	H	-0.201730	0.082886	-0.221301
H125	H	-0.766213	-0.417820	-0.651000
H126	H	-0.266213	0.082180	-0.151000
C127	C	-0.594966	-0.903393	-0.640009
C128	C	-0.094966	-0.403393	-0.140009
C129	C	-0.640674	-0.836634	-0.689239
C130	C	-0.140674	-0.336634	-0.189239
C131	C	-0.699518	-0.876694	-0.752584
C132	C	-0.199518	-0.376694	-0.252584
H133	H	-0.567145	-0.939351	-0.679901
H134	H	-0.067145	-0.439351	-0.179901
H135	H	-0.631710	-0.939887	-0.609685
H136	H	-0.131710	-0.439887	-0.109685
H137	H	-0.603936	-0.800155	-0.719562
H138	H	-0.103936	-0.300155	-0.219562
H139	H	-0.668513	-0.800672	-0.649371
H140	H	-0.168513	-0.300672	-0.149371
H141	H	-0.736261	-0.913188	-0.722260
H142	H	-0.236261	-0.413188	-0.222260
H143	H	-0.671690	-0.912651	-0.792470
H144	H	-0.171690	-0.412651	-0.292470
H145	H	-0.730543	-0.831405	-0.785988
H146	H	-0.230543	-0.331405	-0.285988
H147	H	-1.011273	-1.166533	-0.604278
H148	H	-0.511273	-0.666533	-0.104278
H149	H	-0.627127	-0.745682	-0.674741
H150	H	-0.127127	-0.245682	-0.174741
H151	H	-0.414013	-0.599638	-0.445007
H152	H	0.085987	-0.099638	0.054993
C153	C	-0.375781	-1.392053	-1.204139
C154	C	0.124219	-0.892053	-0.704139
C155	C	-0.428998	-1.443510	-1.264004
C156	C	0.071002	-0.943510	-0.764004
C157	C	-0.381537	-1.501288	-1.311855
C158	C	0.118463	-1.001288	-0.811855
H159	H	-0.339329	-1.357826	-1.237053
H160	H	0.160671	-0.857826	-0.737053
H161	H	-0.343946	-1.430583	-1.163069
H162	H	0.156054	-0.930583	-0.663069
H163	H	-0.460818	-1.404984	-1.305067
H164	H	0.039182	-0.904984	-0.805067
H165	H	-0.465450	-1.477755	-1.231113
H166	H	0.034550	-0.977755	-0.731113
H167	H	-0.349703	-1.539818	-1.270786
H168	H	0.150297	-1.039818	-0.770786
H169	H	-0.345087	-1.467054	-1.344764
H170	H	0.154913	-0.967054	-0.844764
H171	H	-0.417638	-1.536214	-1.352473
H172	H	0.082362	-1.036214	-0.852473
C173	C	-0.349899	-0.735503	-0.375966
C174	C	0.150101	-0.235503	0.124034
C175	C	-0.356712	-0.642113	-0.383333
C176	C	0.143288	-0.142113	0.116667
C177	C	-0.298000	-0.601676	-0.320114
C178	C	0.202000	-0.101676	0.179886
H179	H	-0.359964	-0.753712	-0.316934
H180	H	0.140036	-0.253712	0.183066
H181	H	-0.295380	-0.753203	-0.387129
H182	H	0.204620	-0.253203	0.112871
H183	H	-0.411218	-0.624420	-0.372163
H184	H	0.088782	-0.124420	0.127837
H185	H	-0.346639	-0.623878	-0.442351
H186	H	0.153361	-0.123878	0.057649
H187	H	-0.243480	-0.619376	-0.331277
H188	H	0.256520	-0.119376	0.168723
H189	H	-0.308069	-0.619892	-0.261086
H190	H	0.191931	-0.119892	0.238914
H191	H	-0.302609	-0.538307	-0.325109
H192	H	0.197391	-0.038307	0.174891
C193	C	-0.408638	-1.351817	-0.865938
C194	C	0.091362	-0.851817	-0.365938
C195	C	-0.367947	-1.401078	-0.927960
C196	C	0.132053	-0.901078	-0.427960
C197	C	-0.315549	-1.464446	-0.881799
C198	C	0.184451	-0.964446	-0.381799
H199	H	-0.368447	-1.321966	-0.825303
H200	H	0.131553	-0.821966	-0.325303
H201	H	-0.440896	-1.391253	-0.833197
H202	H	0.059104	-0.891253	-0.333197
H203	H	-0.335691	-1.361648	-0.960685
H204	H	0.164309	-0.861648	-0.460685
H205	H	-0.408117	-1.430949	-0.968596
H206	H	0.091883	-0.930949	-0.468596
H207	H	-0.347807	-1.503881	-0.849059
H208	H	0.152193	-1.003881	-0.349059
H209	H	-0.275363	-1.434587	-0.841166
H210	H	0.224637	-0.934587	-0.341166
H211	H	-0.287939	-1.497882	-0.923874
H212	H	0.212061	-0.997882	-0.423874
H213	H	-0.570009	-1.157004	-1.188480
H214	H	-0.070009	-0.657004	-0.688480
C215	C	-0.627052	-1.087885	-1.059257
C216	C	-0.127052	-0.587885	-0.559257
C217	C	-0.620984	-1.095255	-1.151940
C218	C	-0.120984	-0.595255	-0.651940
C219	C	-0.673268	-1.032017	-1.198465
C220	C	-0.173268	-0.532017	-0.698465
H221	H	-0.683058	-1.098580	-1.047570
H222	H	-0.183058	-0.598580	-0.547570
H223	H	-0.610616	-1.029286	-1.039641
H224	H	-0.110616	-0.529286	-0.539641
H225	H	-0.637425	-1.153841	-1.171550
H226	H	-0.137425	-0.653841	-0.671550
H227	H	-0.564990	-1.084551	-1.163654
H228	H	-0.064990	-0.584551	-0.663654
H229	H	-0.656832	-0.973418	-1.178848
H230	H	-0.156832	-0.473418	-0.678848
H231	H	-0.729270	-1.042718	-1.186770
H232	H	-0.229270	-0.542718	-0.686770
H233	H	-0.669152	-1.037003	-1.261354
H234	H	-0.169152	-0.537003	-0.761354
