data_functionalizedCrystal
_audit_creation_method	'MofGen! by Chris Wilmer'
_symmetry_space_group_name_H-M	'P1'
_symmetry_Int_Tables_number	1
_symmetry_cell_setting	triclinic
loop_
_symmetry_equiv_pos_as_xyz
  x,y,z
_cell_length_a	16.992694
_cell_length_b	8.559649
_cell_length_c	16.053802
_cell_angle_alpha	92.204030
_cell_angle_beta	87.249047
_cell_angle_gamma	80.223444
loop_
_atom_site_label
_atom_site_type_symbol
_atom_site_fract_x
_atom_site_fract_y
_atom_site_fract_z
O1	O	1.023824	0.329978	-0.069320
O2	O	0.795762	0.326287	-0.069345
O3	O	0.929885	0.098096	-0.069329
O4	O	0.889700	0.558168	-0.069335
O5	O	0.922506	0.110601	0.069529
O6	O	0.788383	0.338792	0.069513
O7	O	1.016444	0.342483	0.069538
Zn8	Zn	0.901242	0.342623	0.091572
Zn9	Zn	0.910964	0.326147	-0.091379
O10	O	0.882321	0.570673	0.069523
C11	C	0.763145	0.327794	0.000081
C12	C	0.676954	0.313635	0.000072
C13	C	0.618488	0.450242	0.000071
C14	C	0.537502	0.436931	0.000082
C15	C	0.514985	0.287010	0.000089
C16	C	0.573459	0.150392	0.000093
C17	C	0.654442	0.163706	0.000087
C18	C	0.274709	0.231830	0.000112
C19	C	0.193719	0.218527	0.000115
C20	C	0.157768	0.505067	0.000106
C21	C	0.238755	0.518367	0.000096
C22	C	0.297221	0.381749	0.000104
N23	N	0.432206	0.273399	0.000099
N24	N	0.379998	0.395362	0.000100
C25	C	0.929241	0.045208	0.000098
C26	C	0.938306	-0.131015	0.000095
C27	C	1.049061	0.340975	0.000110
C28	C	1.135252	0.355134	0.000114
C29	C	0.882965	0.623562	0.000093
C30	C	0.873901	0.799784	0.000091
N31	N	0.894612	0.353867	0.216432
N32	N	0.917601	0.314891	-0.216239
C33	C	0.951698	0.256811	0.260132
C34	C	0.947067	0.264692	0.347539
C35	C	0.885353	0.369639	0.391243
C36	C	0.828261	0.466699	0.347536
C37	C	0.832890	0.458808	0.260132
C38	C	0.865138	0.404060	0.652650
C39	C	0.860515	0.411947	0.740061
C40	C	0.979321	0.209937	0.740057
C41	C	0.983946	0.202063	0.652651
C42	C	0.926852	0.299117	0.608952
N43	N	0.880619	0.377701	0.480586
N44	N	0.931583	0.291046	0.519610
H45	H	0.322304	0.120586	0.000119
H46	H	0.810257	0.497414	0.775641
C47	C	0.732340	-0.197032	0.000078
C48	C	0.790097	-0.098212	0.000079
H49	H	0.680604	-0.134048	0.000076
H50	H	0.741191	-0.266386	-0.048339
H51	H	0.736049	-0.257663	0.048507
H52	H	0.786392	-0.037590	-0.048353
H53	H	0.781244	-0.028831	0.048501
H54	H	0.786403	0.537840	0.224552
H55	H	0.993551	0.185660	0.383119
H56	H	0.636813	0.572324	0.000064
C57	C	1.003993	0.005183	0.838358
C58	C	1.042068	0.103243	0.788094
H59	H	1.042733	-0.060697	0.868010
H60	H	0.966586	0.068819	0.876890
H61	H	0.976850	-0.059096	0.804259
H62	H	1.069206	0.167531	0.822195
H63	H	1.079489	0.039600	0.749558
C64	C	0.305223	0.706004	0.071426
C65	C	0.263522	0.683146	0.000063
H66	H	0.320522	0.807724	0.071391
H67	H	0.271812	0.699283	0.119851
H68	H	0.351623	0.626517	0.071425
H69	H	0.217119	0.762626	0.000068
H70	H	0.296934	0.689882	-0.048374
C71	C	0.747246	0.604541	0.661446
C72	C	0.802386	0.510755	0.604624
H73	H	0.708508	0.670420	0.631792
H74	H	0.721434	0.538007	0.695544
H75	H	0.774403	0.668823	0.695528
H76	H	0.775230	0.446464	0.570545
H77	H	0.828200	0.577297	0.570511
C78	C	0.098414	0.751630	0.071482
C79	C	0.093503	0.655234	0.000105
H80	H	0.058742	0.844346	0.071478
H81	H	0.089957	0.694945	0.119897
H82	H	0.149872	0.780996	0.071469
H83	H	0.042047	0.625859	0.000121
H84	H	0.101954	0.711930	-0.048323
H85	H	0.489901	0.548171	0.000080
H86	H	0.778008	0.552143	0.383125
C87	C	1.047370	-0.069106	0.626241
C88	C	1.051788	0.086338	0.604838
H89	H	1.089254	-0.140650	0.596785
H90	H	1.052627	-0.077911	0.684585
H91	H	0.997235	-0.094183	0.611853
H92	H	1.101921	0.111420	0.619232
H93	H	1.046538	0.095149	0.546480
C94	C	1.068661	0.057915	0.268917
C95	C	1.019536	0.141445	0.212097
H96	H	1.110538	-0.013318	0.239262
H97	H	1.090865	0.130603	0.302997
H98	H	1.037895	-0.000212	0.303019
H99	H	1.050301	0.199581	0.177999
H100	H	0.997331	0.068747	0.178003
C101	C	0.203211	-0.036252	-0.071251
C102	C	0.168965	0.053723	0.000125
H103	H	0.187931	-0.137990	-0.071243
H104	H	0.185121	0.016069	-0.119667
H105	H	0.259809	-0.047875	-0.071240
H106	H	0.112367	0.065355	0.000111
H107	H	0.187051	0.001390	0.048554
C108	C	0.465282	0.002752	0.000098
C109	C	0.548710	-0.014406	0.000099
H110	H	0.450007	-0.098992	0.000094
H111	H	0.442062	0.063786	0.048517
H112	H	0.447199	0.055077	-0.048329
H113	H	0.566793	-0.066721	0.048529
H114	H	0.571939	-0.075464	-0.048326
H115	H	0.702047	0.052465	0.000088
C116	C	1.035144	-0.335266	-0.071273
C117	C	1.022114	-0.233025	0.000104
H118	H	1.086885	-0.398232	-0.071269
H119	H	0.995960	-0.402286	-0.071266
H120	H	1.031437	-0.274611	-0.119694
H121	H	1.025816	-0.293680	0.048525
H122	H	1.061309	-0.165997	0.000105
