data_functionalizedCrystal
_audit_creation_method	'MofGen! by Chris Wilmer'
_symmetry_space_group_name_H-M	'P1'
_symmetry_Int_Tables_number	1
_symmetry_cell_setting	triclinic
loop_
_symmetry_equiv_pos_as_xyz
  x,y,z
_cell_length_a	19.805407
_cell_length_b	13.031981
_cell_length_c	19.805399
_cell_angle_alpha	97.209878
_cell_angle_beta	90.019573
_cell_angle_gamma	97.191459
loop_
_atom_site_label
_atom_site_type_symbol
_atom_site_fract_x
_atom_site_fract_y
_atom_site_fract_z
Zn1	Zn	1.000570	-0.416134	0.348473
Zn2	Zn	0.986135	-0.590921	0.220900
Zn3	Zn	0.887383	-0.416163	0.235295
Zn4	Zn	0.873003	-0.590866	0.334051
O5	O	0.936773	-0.503521	0.284679
O6	O	1.093371	-0.439331	0.331561
O7	O	0.973012	-0.567775	0.128090
O8	O	0.914457	-0.269896	0.262368
O9	O	1.082765	-0.567747	0.237833
O10	O	0.997615	-0.269875	0.345519
O11	O	0.900459	-0.439380	0.138666
O12	O	0.790759	-0.439326	0.248384
O13	O	0.889948	-0.567652	0.430683
O14	O	0.780195	-0.567680	0.320940
O15	O	0.983672	-0.439277	0.441279
O16	O	0.959068	-0.737177	0.223849
O17	O	0.875951	-0.737136	0.306981
C18	C	0.760918	-0.503501	0.284659
C19	C	0.685685	-0.503518	0.284665
C20	C	0.644849	-0.570452	0.322366
C21	C	0.574161	-0.570454	0.322375
C22	C	0.544309	-0.503526	0.284679
C23	C	0.585150	-0.436584	0.246976
C24	C	0.655838	-0.436578	0.246971
C25	C	0.300075	-0.436607	0.246997
C26	C	0.229382	-0.436621	0.247003
C27	C	0.218398	-0.570483	0.322401
C28	C	0.289085	-0.570477	0.322396
C29	C	0.329921	-0.503532	0.284696
C30	C	0.406569	-0.503529	0.284687
C31	C	0.467661	-0.503533	0.284683
C32	C	0.914401	-0.775081	0.262303
C33	C	0.904892	-0.891255	0.252753
C34	C	0.941771	-0.942956	0.289677
C35	C	0.931944	-1.063028	0.279808
C36	C	1.113314	-0.503542	0.284700
C37	C	1.188545	-0.503551	0.284709
C38	C	0.936816	-0.503455	0.461228
C39	C	0.936834	-0.503427	0.536462
C40	C	0.959250	-0.230901	0.307158
C41	C	0.968829	-0.114726	0.316737
C42	C	0.936775	-0.503511	0.108824
C43	C	0.936911	-0.503245	0.033615
C44	C	0.985638	-0.436579	0.577325
C45	C	0.985647	-0.436549	0.648016
C46	C	0.936856	-0.503373	0.677842
C47	C	0.888048	-0.570224	0.636974
C48	C	0.888036	-0.570248	0.566285
C49	C	0.888094	-0.570126	0.922056
C50	C	0.888111	-0.570099	0.992750
C51	C	0.985705	-0.436427	1.003786
C52	C	0.985693	-0.436451	0.933097
C53	C	0.936883	-0.503298	0.892236
C54	C	0.936873	-0.503329	0.815585
C55	C	0.936869	-0.503348	0.754491
H56	H	0.540914	-0.624959	0.353075
H57	H	0.866040	-0.935886	0.213837
H58	H	0.848359	-0.624572	0.888793
H59	H	1.007678	-1.070101	0.355661
O60	O	0.317975	-0.635524	0.359075
C61	C	0.266772	-0.694621	0.392342
H62	H	0.219909	-0.651822	0.398261
H63	H	0.286292	-0.705873	0.444730
H64	H	0.252711	-0.773955	0.360937
H65	H	0.848319	-0.624629	0.661265
H66	H	1.025371	-0.382166	0.553045
H67	H	0.689086	-0.382067	0.216275
H68	H	1.025389	-0.382117	0.681283
O69	O	1.033118	-0.371439	0.904237
C70	C	1.076206	-0.312446	0.955462
H71	H	1.048791	-0.308807	1.006145
H72	H	1.090210	-0.230103	0.941829
H73	H	1.124458	-0.350723	0.959832
H74	H	0.893090	-1.107655	0.240889
O75	O	1.033049	-0.371514	1.043583
C76	C	1.022610	-0.385830	1.112370
H77	H	0.967554	-0.420049	1.119194
H78	H	1.033662	-0.307528	1.145690
H79	H	1.058170	-0.441487	1.127851
H80	H	0.669148	-0.624956	0.353060
H81	H	0.185141	-0.624989	0.353101
O82	O	0.840643	-0.635044	1.021618
C83	C	0.797568	-0.694067	0.970394
H84	H	0.798744	-0.651275	0.923533
H85	H	0.743326	-0.705194	0.989894
H86	H	0.815801	-0.773458	0.956334
H87	H	0.848289	-0.624672	0.533016
H88	H	0.205079	-0.382114	0.216307
O89	O	0.339795	-0.371729	0.210326
C90	C	0.375760	-0.431139	0.161633
H91	H	0.379842	-0.510392	0.178890
H92	H	0.428968	-0.388532	0.156109
H93	H	0.347554	-0.442531	0.110528
H94	H	0.980618	-0.898328	0.328599
O95	O	0.556110	-0.371716	0.210277
C96	C	0.510296	-0.431133	0.161615
H97	H	0.524819	-0.513442	0.150558
H98	H	0.512592	-0.393219	0.112692
H99	H	0.456433	-0.434785	0.182243
