data_functionalizedCrystal
_audit_creation_method	'MofGen! by Chris Wilmer'
_symmetry_space_group_name_H-M	'P1'
_symmetry_Int_Tables_number	1
_symmetry_cell_setting	triclinic
loop_
_symmetry_equiv_pos_as_xyz
  x,y,z
_cell_length_a	23.532407
_cell_length_b	23.532407
_cell_length_c	22.610064
_cell_angle_alpha	89.994501
_cell_angle_beta	89.988412
_cell_angle_gamma	97.151289
loop_
_atom_site_label
_atom_site_type_symbol
_atom_site_fract_x
_atom_site_fract_y
_atom_site_fract_z
O1	O	-0.069127	0.755263	-0.049138
O2	O	-0.079131	0.589400	-0.049146
O3	O	0.008803	0.677333	-0.049149
O4	O	-0.157061	0.667330	-0.049135
O5	O	0.008790	0.677318	0.049220
O6	O	-0.079143	0.589385	0.049223
O7	O	-0.069140	0.755248	0.049231
Zn8	Zn	-0.074144	0.672314	0.064846
Zn9	Zn	-0.074127	0.672334	-0.064760
O10	O	-0.157074	0.667315	0.049235
C11	C	-0.078882	0.568176	0.000038
C12	C	-0.078116	0.504959	0.000034
C13	C	-0.022921	0.238792	0.000045
C14	C	-0.023632	0.298192	0.000045
O15	O	0.020153	0.334937	0.000062
N16	N	-0.075909	0.320818	0.000046
C17	C	-0.127477	0.284041	0.000052
O18	O	-0.172007	0.308740	0.000053
C19	C	-0.126765	0.224642	0.000057
C20	C	-0.074485	0.202019	0.000050
C21	C	0.029354	0.216168	0.000039
C22	C	0.030066	0.156772	0.000038
C23	C	-0.021499	0.119999	0.000043
C24	C	-0.073774	0.142623	0.000049
C25	C	-0.178333	0.187865	0.000068
C26	C	-0.177616	0.128463	0.000072
C27	C	-0.125336	0.105840	0.000066
C28	C	-0.124627	0.046454	0.000053
N29	N	-0.072351	0.023828	0.000052
C30	C	-0.020787	0.060600	0.000048
C31	C	-0.128968	0.408783	0.000044
C32	C	-0.129681	0.468181	0.000036
C33	C	-0.025836	0.482328	0.000030
C34	C	-0.025124	0.422929	0.000034
C35	C	-0.076692	0.386157	0.000044
C36	C	-0.019297	-0.064136	0.000045
C37	C	-0.018590	-0.123538	0.000041
C38	C	-0.122435	-0.137680	0.000051
C39	C	-0.123142	-0.078284	0.000051
C40	C	-0.071568	-0.041512	0.000050
O41	O	-0.168390	0.009675	0.000039
O42	O	0.023737	0.035892	0.000054
C43	C	-0.178283	0.667577	0.000052
C44	C	-0.241500	0.668343	0.000057
C45	C	-0.640603	0.621110	0.000025
C46	C	-0.700004	0.621821	0.000021
O47	O	-0.736748	0.578035	-0.000003
N48	N	-0.722630	0.674097	0.000024
C49	C	-0.685852	0.725666	0.000025
O50	O	-0.710552	0.770196	0.000027
C51	C	-0.626453	0.724953	0.000025
C52	C	-0.603830	0.672674	0.000028
C53	C	-0.617980	0.568834	0.000027
C54	C	-0.558584	0.568123	0.000032
C55	C	-0.521811	0.619687	0.000035
C56	C	-0.544434	0.671963	0.000033
C57	C	-0.589677	0.776521	0.000022
C58	C	-0.530274	0.775804	0.000022
C59	C	-0.507652	0.723525	0.000025
C60	C	-0.448265	0.722816	0.000042
N61	N	-0.425639	0.670539	0.000038
C62	C	-0.462412	0.618975	0.000035
C63	C	-0.810595	0.727157	0.000025
C64	C	-0.869993	0.727870	0.000029
C65	C	-0.884140	0.624025	0.000023
C66	C	-0.824741	0.623313	0.000023
C67	C	-0.787969	0.674881	0.000021
C68	C	-0.337675	0.617485	0.000047
C69	C	-0.278273	0.616779	0.000054
C70	C	-0.264131	0.720623	0.000057
C71	C	-0.323528	0.721330	0.000052
C72	C	-0.360299	0.669757	0.000045
O73	O	-0.411486	0.766578	0.000063
O74	O	-0.437704	0.574452	0.000026
C75	C	0.030012	0.677071	0.000032
C76	C	0.093229	0.676305	0.000023
C77	C	-0.069389	0.776472	0.000047
C78	C	-0.070155	0.839689	0.000046
N79	N	-0.074155	0.672304	0.153298
N80	N	-0.074111	0.672349	-0.153213
C81	C	-0.035196	0.711273	0.561938
C82	C	-0.035192	0.711276	0.623858
O83	O	-0.002076	0.744384	0.655875
N84	N	-0.074115	0.672334	0.654835
C85	C	-0.113041	0.633383	0.623889
O86	O	-0.146148	0.600259	0.655924
C87	C	-0.113042	0.633377	0.561971
C88	C	-0.074120	0.672326	0.530996
C89	C	0.003723	0.750217	0.530964
C90	C	0.003718	0.750215	0.469048
C91	C	-0.035206	0.711268	0.438107
C92	C	-0.074125	0.672323	0.469081
C93	C	-0.151965	0.594424	0.531026
C94	C	-0.151963	0.594422	0.469103
C95	C	-0.113041	0.633370	0.438129
C96	C	-0.113055	0.633374	0.376224
N97	N	-0.074131	0.672316	0.345246
C98	C	-0.035207	0.711263	0.376188
C99	C	-0.113036	0.633396	0.753923
C100	C	-0.113038	0.633403	0.815841
C101	C	-0.035188	0.711296	0.815805
C102	C	-0.035189	0.711291	0.753886
C103	C	-0.074112	0.672338	0.722946
C104	C	-0.035221	0.711255	0.246161
C105	C	-0.035231	0.711251	0.184239
C106	C	-0.113079	0.633357	0.184281
C107	C	-0.113071	0.633363	0.246196
C108	C	-0.074137	0.672314	0.277135
O109	O	-0.146152	0.600281	0.344167
O110	O	-0.002101	0.744376	0.344146
H111	H	-0.172252	0.486595	0.000033
F112	F	-0.534515	0.512479	0.000030
H113	H	-0.164417	-0.167631	0.000052
H114	H	-0.165712	-0.059864	0.000056
H115	H	-0.259858	0.574205	0.000059
H116	H	-0.367608	0.575489	0.000041
F117	F	-0.232503	0.089330	0.000085
F118	F	0.029043	0.521475	0.000024
F119	F	0.006240	0.752746	0.848747
H120	H	-0.647915	0.526842	0.000022
F121	F	0.037055	-0.147611	0.000031
F122	F	0.045156	0.791673	0.563886
F123	F	0.006196	0.752708	0.151278
F124	F	0.085709	0.132703	0.000027
F125	F	-0.183858	0.369651	0.000048
F126	F	-0.193390	0.552969	0.563980
F127	F	-0.800670	0.567670	0.000025
H128	H	-0.144737	0.601677	0.728734
H129	H	-0.003517	0.742972	0.271344
H130	H	-0.003495	0.743005	0.728671
H131	H	-0.144772	0.601648	0.159078
F132	F	-0.923287	0.569145	0.000020
F133	F	-0.193391	0.552960	0.436178
H134	H	-0.144770	0.601653	0.271416
F135	F	0.035594	-0.025010	0.000044
H136	H	0.071347	0.246104	0.000037
F137	F	0.030518	0.398858	0.000029
H138	H	-0.780657	0.769152	0.000027
H139	H	0.035413	0.781929	0.443833
F140	F	-0.233977	0.211929	0.000074
F141	F	-0.613740	0.832165	0.000009
F142	F	-0.894062	0.783513	0.000035
H143	H	-0.500336	0.817798	0.000017
F144	F	-0.347605	0.776972	0.000068
H145	H	-0.234180	0.762605	0.000062
F146	F	-0.154471	0.591956	0.848799
