data_functionalizedCrystal
_audit_creation_method	'MofGen! by Chris Wilmer'
_symmetry_space_group_name_H-M	'P1'
_symmetry_Int_Tables_number	1
_symmetry_cell_setting	triclinic
loop_
_symmetry_equiv_pos_as_xyz
  x,y,z
_cell_length_a	27.732048
_cell_length_b	15.944551
_cell_length_c	14.421503
_cell_angle_alpha	90.003141
_cell_angle_beta	89.999321
_cell_angle_gamma	96.929303
loop_
_atom_site_label
_atom_site_type_symbol
_atom_site_fract_x
_atom_site_fract_y
_atom_site_fract_z
O1	O	0.062334	-1.113714	-0.077025
O2	O	0.070020	-0.869064	-0.077050
O3	O	-0.004187	-0.998987	-0.077019
O4	O	0.136540	-0.983791	-0.077056
O5	O	-0.004176	-0.998966	0.077204
O6	O	0.070031	-0.869042	0.077174
O7	O	0.062345	-1.113693	0.077198
Cu8	Cu	0.066189	-0.991366	0.091268
Cu9	Cu	0.066176	-0.991391	-0.091119
O10	O	0.136552	-0.983769	0.077168
C11	C	0.069706	-0.837763	0.000059
C12	C	0.068749	-0.744530	0.000051
C13	C	-0.022190	-0.998658	0.000095
C14	C	-0.075849	-0.997697	0.000103
C15	C	0.062658	-1.144993	0.000087
C16	C	0.063615	-1.238227	0.000090
C17	C	-0.414358	-1.068426	0.000062
C18	C	-0.616033	-1.064862	0.000049
O19	O	-0.647008	-1.129539	0.000015
N20	N	-0.635490	-0.987823	0.000042
C21	C	-0.604525	-0.911669	0.000032
O22	O	-0.625703	-0.846061	0.000017
C23	C	-0.402851	-0.915234	0.000039
C24	C	-0.383397	-0.992278	0.000055
C25	C	-0.394903	-1.145464	0.000077
C26	C	-0.344487	-1.146354	0.000086
C27	C	-0.313526	-1.070206	0.000079
C28	C	-0.332981	-0.993168	0.000064
C29	C	-0.371887	-0.839081	0.000023
C30	C	-0.321466	-0.839979	0.000022
C31	C	-0.302012	-0.917024	0.000038
C32	C	-0.251604	-0.917911	0.000065
N33	N	-0.232147	-0.994950	0.000072
C34	C	-0.263108	-1.071098	0.000079
C35	C	-0.710408	-0.909803	0.000031
C36	C	-0.760826	-0.908912	0.000031
C37	C	-0.772330	-1.062105	0.000045
C38	C	-0.721911	-1.062995	0.000052
C39	C	-0.690950	-0.986842	0.000038
C40	C	-0.157231	-1.072961	0.000097
C41	C	-0.106810	-1.073845	0.000109
C42	C	-0.095310	-0.920652	0.000090
C43	C	-0.145727	-0.919768	0.000083
C44	C	-0.176686	-0.995930	0.000083
O45	O	-0.220600	-0.853269	0.000089
O46	O	-0.241921	-1.136697	0.000074
C47	C	-0.464774	-1.067536	0.000054
C48	C	-0.484228	-0.990498	0.000039
C49	C	-0.453268	-0.914350	0.000032
C50	C	-0.534647	-0.989607	0.000039
C51	C	-0.565608	-1.065754	0.000045
C52	C	-0.546150	-1.142794	0.000052
C53	C	-0.495734	-1.143684	0.000061
C54	C	-0.472725	-0.837311	0.000025
C55	C	-0.523141	-0.836427	0.000018
C56	C	-0.554102	-0.912575	0.000024
C57	C	0.154554	-0.984099	0.000051
C58	C	0.208213	-0.985059	0.000038
N59	N	0.066198	-0.991354	0.219549
C60	C	0.020466	-0.530305	0.000081
C61	C	0.042882	-0.469002	-0.075965
C62	C	0.067019	-0.573827	0.000062
C63	C	0.042904	-0.469003	0.076087
C64	C	0.065344	-0.408936	0.000077
C65	C	0.089447	-0.513752	-0.076047
C66	C	0.089463	-0.513759	0.076074
C67	C	0.111912	-0.452474	0.000009
C68	C	0.067983	-0.668816	0.000053
C69	C	0.064384	-0.313947	0.000080
N70	N	0.066163	-0.991409	-0.219401
C71	C	0.100495	-0.931267	0.469189
C72	C	0.109880	-1.007044	0.530996
C73	C	0.066186	-0.991374	0.408710
C74	C	0.056813	-0.915616	0.530997
C75	C	0.066176	-0.991387	0.591432
C76	C	0.075592	-1.067190	0.469157
C77	C	0.022507	-0.975712	0.469153
C78	C	0.031872	-1.051545	0.530932
C79	C	0.066193	-0.991366	0.303449
C80	C	0.066169	-0.991405	0.696691
H81	H	-0.090973	-1.136586	0.000125
Cl82	Cl	0.119845	-0.544434	0.175325
Cl83	Cl	0.044579	-0.816695	0.572938
Cl84	Cl	0.012500	-0.438377	0.175347
H85	H	0.150587	-0.418809	-0.000044
Cl86	Cl	-0.196143	-1.168709	0.000099
Cl87	Cl	-0.012932	-1.130114	0.572534
H88	H	0.129533	-0.880487	0.442079
Cl89	Cl	-0.433817	-1.241206	0.000087
H90	H	-0.018169	-0.564143	-0.000003
Cl91	Cl	0.166902	-1.027517	0.572938
Cl92	Cl	0.087892	-1.166136	0.427400
H93	H	-0.328652	-1.209091	0.000095
Cl94	Cl	-0.697459	-1.159854	0.000071
H95	H	-0.014416	-0.962429	0.441967
Cl96	Cl	-0.396332	-0.742219	-0.000004
H97	H	-0.070093	-0.858655	0.000088
H98	H	-0.797547	-1.124107	0.000051
H99	H	-0.571368	-1.204796	0.000062
H100	H	-0.776661	-0.846175	0.000034
H101	H	-0.296260	-0.777965	0.000009
Cl102	Cl	-0.671492	-0.814057	0.000014
H103	H	-0.447521	-0.775301	0.000017
H104	H	-0.161567	-0.857033	0.000095
Cl105	Cl	-0.547591	-0.739561	0.000002
Cl106	Cl	0.012477	-0.438365	-0.175213
Cl107	Cl	-0.471285	-1.240545	0.000073
H108	H	0.109118	-0.533491	-0.140408
