data_functionalizedCrystal
_audit_creation_method	'MofGen! by Chris Wilmer'
_symmetry_space_group_name_H-M	'P1'
_symmetry_Int_Tables_number	1
_symmetry_cell_setting	triclinic
loop_
_symmetry_equiv_pos_as_xyz
  x,y,z
_cell_length_a	25.639242
_cell_length_b	12.827892
_cell_length_c	12.827885
_cell_angle_alpha	90.029786
_cell_angle_beta	89.969977
_cell_angle_gamma	89.989270
loop_
_atom_site_label
_atom_site_type_symbol
_atom_site_fract_x
_atom_site_fract_y
_atom_site_fract_z
Zn1	Zn	0.799351	0.416107	-0.591148
Zn2	Zn	1.299351	0.916107	-0.091148
Zn3	Zn	0.799298	0.590884	-0.416409
Zn4	Zn	1.299298	1.090884	0.083591
Zn5	Zn	0.711915	0.416144	-0.416389
Zn6	Zn	1.211915	0.916144	0.083611
Zn7	Zn	0.711908	0.590793	-0.591076
Zn8	Zn	1.211908	1.090793	-0.091076
O9	O	0.755618	0.503482	-0.503756
O10	O	1.255618	1.003482	-0.003756
O11	O	0.872509	0.439314	-0.568007
O12	O	1.372509	0.939314	-0.068007
O13	O	0.787688	0.567759	-0.270170
O14	O	1.287688	1.067759	0.229830
O15	O	0.723539	0.269903	-0.439594
O16	O	1.223539	0.769903	0.060406
O17	O	0.872470	0.567722	-0.439627
O18	O	1.372470	1.067722	0.060373
O19	O	0.787777	0.269876	-0.567988
O20	O	1.287777	0.769876	-0.067988
O21	O	0.723488	0.439378	-0.270156
O22	O	1.223488	0.939378	0.229844
O23	O	0.638749	0.439289	-0.439523
O24	O	1.138749	0.939289	0.060477
O25	O	0.723527	0.567567	-0.737322
O26	O	1.223527	1.067567	-0.237322
O27	O	0.638744	0.567603	-0.567865
O28	O	1.138744	1.067603	-0.067865
O29	O	0.787771	0.439226	-0.737375
O30	O	1.287771	0.939226	-0.237375
O31	O	0.787681	0.737108	-0.439556
O32	O	1.287681	1.237108	0.060444
O33	O	0.723476	0.737041	-0.567884
O34	O	1.223476	1.237041	-0.067884
C35	C	0.619776	0.503441	-0.503685
C36	C	1.119776	1.003441	-0.003685
C37	C	0.561662	0.503449	-0.503679
C38	C	1.061662	1.003449	-0.003679
C39	C	0.755654	0.503382	-0.776326
C40	C	1.255654	1.003382	-0.276326
C41	C	0.755669	0.503339	-0.892479
C42	C	1.255669	1.003339	-0.392479
C43	C	0.755586	0.774992	-0.503737
C44	C	1.255586	1.274992	-0.003737
C45	C	0.755620	0.891145	-0.503764
C46	C	1.255620	1.391145	-0.003764
C47	C	0.201305	0.570407	-0.570520
C48	C	0.701305	1.070407	-0.070520
C49	C	0.146700	0.570413	-0.570536
C50	C	0.646700	1.070413	-0.070536
O51	O	0.118469	0.627292	-0.627306
O52	O	0.618469	1.127292	-0.127306
N53	N	0.119379	0.503511	-0.503824
N54	N	0.619379	1.003511	-0.003824
C55	C	0.146665	0.436590	-0.437098
C56	C	0.646665	0.936590	0.062902
O57	O	0.118412	0.379685	-0.380356
O58	O	0.618412	0.879685	0.119644
C59	C	0.201268	0.436580	-0.437088
C60	C	0.701268	0.936580	0.062912
C61	C	0.228587	0.503494	-0.503797
C62	C	0.728587	1.003494	-0.003797
C63	C	0.228623	0.637315	-0.637224
C64	C	0.728623	1.137315	-0.137224
C65	C	0.283224	0.637309	-0.637206
C66	C	0.783224	1.137309	-0.137206
C67	C	0.310506	0.570396	-0.570483
C68	C	0.810506	1.070396	-0.070483
C69	C	0.283187	0.503488	-0.503779
C70	C	0.783187	1.003488	-0.003779
C71	C	0.228553	0.369655	-0.370368
C72	C	0.728553	0.869655	0.129632
C73	C	0.283160	0.369649	-0.370364
C74	C	0.783160	0.869649	0.129636
C75	C	0.310479	0.436563	-0.437073
C76	C	0.810479	0.936563	0.062927
C77	C	0.365070	0.436570	-0.437038
C78	C	0.865070	0.936570	0.062962
N79	N	0.392391	0.503472	-0.503750
N80	N	0.892391	1.003472	-0.003750
C81	C	0.365109	0.570385	-0.570473
C82	C	0.865109	1.070385	-0.070473
C83	C	0.031994	0.436617	-0.437126
C84	C	0.531994	0.936617	0.062874
C85	C	-0.022608	0.436632	-0.437131
C86	C	0.477392	0.936632	0.062869
C87	C	-0.022569	0.570454	-0.570570
C88	C	0.477431	1.070454	-0.070570
C89	C	0.032035	0.570443	-0.570560
C90	C	0.532035	1.070443	-0.070560
C91	C	0.059316	0.503519	-0.503839
C92	C	0.559316	1.003519	-0.003839
C93	C	0.479774	0.570370	-0.570429
C94	C	0.979774	1.070370	-0.070429
C95	C	0.534380	0.570362	-0.570402
C96	C	1.034380	1.070362	-0.070402
C97	C	0.534336	0.436537	-0.436967
C98	C	1.034336	0.936537	0.063033
C99	C	0.479735	0.436548	-0.436989
C100	C	0.979735	0.936548	0.063011
C101	C	0.452456	0.503468	-0.503729
C102	C	0.952456	1.003468	-0.003729
O103	O	0.393336	0.379717	-0.380300
O104	O	0.893336	0.879717	0.119700
O105	O	0.393369	0.627272	-0.627215
O106	O	0.893369	1.127272	-0.127215
C107	C	0.891991	0.503524	-0.503827
C108	C	1.391991	1.003524	-0.003827
C109	C	0.950105	0.503542	-0.503858
C110	C	1.450105	1.003542	-0.003858
C111	C	0.755665	0.230912	-0.503797
C112	C	1.255665	0.730912	-0.003797
C113	C	0.755685	0.114759	-0.503815
C114	C	1.255685	0.614759	-0.003815
C115	C	0.723877	0.943027	-0.440197
C116	C	1.223877	1.443027	0.059803
C117	C	0.723912	1.063077	-0.440224
C118	C	1.223912	1.563077	0.059776
C119	C	0.787462	0.439819	-0.944290
C120	C	1.287462	0.939819	-0.444290
C121	C	0.787479	0.439774	-1.064341
C122	C	1.287479	0.939774	-0.564341
C123	C	0.755613	0.503507	-0.232246
C124	C	1.255613	1.003507	0.267754
C125	C	0.755699	0.503255	-0.116093
C126	C	1.255699	1.003255	0.383907
H127	H	0.457570	0.624860	-0.624777
H128	H	0.957570	1.124860	-0.124777
N129	N	0.689753	0.887245	-0.371909
N130	N	1.189753	1.387245	0.128091
N131	N	0.656438	0.826336	-0.408646
N132	N	1.156438	1.326336	0.091354
H133	H	0.632337	0.786939	-0.360415
H134	H	1.132337	1.286939	0.139585
H135	H	0.782861	1.070150	-0.558244
H136	H	1.282861	1.570150	-0.058244
H137	H	0.696733	1.107694	-0.385807
H138	H	1.196733	1.607694	0.114193
H139	H	0.728480	0.557643	-1.071544
H140	H	1.228480	1.057643	-0.571544
H141	H	0.814700	0.385396	-1.108897
H142	H	1.314700	0.885396	-0.608897
H143	H	-0.044792	0.624935	-0.624903
H144	H	0.455208	1.124935	-0.124903
H145	H	0.728458	0.557680	-0.936999
H146	H	1.228458	1.057680	-0.436999
H147	H	0.782824	0.935604	-0.558202
H148	H	1.282824	1.435604	-0.058202
N149	N	0.821588	0.371635	-0.888436
N150	N	1.321588	0.871635	-0.388436
N151	N	0.821525	0.371765	-0.790994
N152	N	1.321525	0.871765	-0.290994
H153	H	0.845627	0.323608	-0.751547
H154	H	1.345627	0.823608	-0.251547
H155	H	0.556620	0.624855	-0.624726
H156	H	1.056620	1.124855	-0.124726
H157	H	0.305462	0.691796	-0.691530
H158	H	0.805462	1.191796	-0.191530
N159	N	0.059937	0.638773	-0.638722
N160	N	0.559937	1.138773	-0.138722
N161	N	0.090424	0.602080	-0.705378
N162	N	0.590424	1.102080	-0.205378
H163	H	0.110129	0.650339	-0.753523
H164	H	0.610129	1.150339	-0.253523
H165	H	0.206416	0.691804	-0.691564
H166	H	0.706416	1.191804	-0.191564
H167	H	-0.044846	0.382155	-0.382799
H168	H	0.455154	0.882155	0.117201
N169	N	0.059851	0.368247	-0.368958
N170	N	0.559851	0.868247	0.131042
N171	N	0.035446	0.308521	-0.309404
N172	N	0.535446	0.808521	0.190596
H173	H	0.055116	0.260232	-0.261262
H174	H	0.555116	0.760232	0.238738
H175	H	0.206320	0.315169	-0.316043
H176	H	0.706320	0.815169	0.183957
N177	N	0.311028	0.301271	-0.302224
N178	N	0.811028	0.801271	0.197776
N179	N	0.304936	0.204853	-0.309335
N180	N	0.804936	0.704853	0.190665
H181	H	0.324617	0.156561	-0.261212
H182	H	0.824617	0.656561	0.238788
N183	N	0.451835	0.368203	-0.368832
N184	N	0.951835	0.868203	0.131168
N185	N	0.476203	0.308468	-0.309260
N186	N	0.976203	0.808468	0.190740
H187	H	0.456502	0.260191	-0.261128
H188	H	0.956502	0.760191	0.238872
H189	H	0.556558	0.382061	-0.382639
H190	H	1.056558	0.882061	0.117361
