data_functionalizedCrystal
_audit_creation_method	'MofGen! by Chris Wilmer'
_symmetry_space_group_name_H-M	'P1'
_symmetry_Int_Tables_number	1
_symmetry_cell_setting	triclinic
loop_
_symmetry_equiv_pos_as_xyz
  x,y,z
_cell_length_a	16.109302
_cell_length_b	14.853567
_cell_length_c	14.586319
_cell_angle_alpha	90.000002
_cell_angle_beta	89.994552
_cell_angle_gamma	83.548356
loop_
_atom_site_label
_atom_site_type_symbol
_atom_site_fract_x
_atom_site_fract_y
_atom_site_fract_z
O1	O	1.103293	0.115884	-0.076274
O2	O	0.861252	0.130304	-0.076266
O3	O	0.988738	-0.008146	-0.076273
O4	O	0.975807	0.254334	-0.076267
O5	O	0.988729	-0.008148	0.076208
O6	O	0.861243	0.130302	0.076215
O7	O	1.103284	0.115882	0.076207
Cu8	Cu	0.982263	0.123092	0.090134
Cu9	Cu	0.982273	0.123094	-0.090192
O10	O	0.975798	0.254332	0.076214
C11	C	0.830271	0.129719	-0.000024
C12	C	0.737974	0.127967	-0.000021
C13	C	0.525622	0.123916	0.083087
C14	C	0.438900	0.122261	0.083083
C15	C	0.438920	0.122267	-0.083160
C16	C	0.525642	0.123916	-0.083155
C17	C	0.568990	0.124745	-0.000030
C18	C	0.395546	0.121441	-0.000037
C19	C	0.301518	0.119646	-0.000041
C20	C	0.663024	0.126539	-0.000025
C21	C	0.988147	-0.041735	-0.000035
C22	C	0.986392	-0.141816	-0.000043
C23	C	0.903240	-0.554213	-0.000022
C24	C	1.054697	-0.575743	-0.000028
C25	C	1.056348	-0.481712	-0.000033
C26	C	0.981444	-0.423927	-0.000032
C27	C	0.904889	-0.460173	-0.000025
C28	C	1.132901	-0.445459	-0.000031
C29	C	1.134555	-0.351423	-0.000035
C30	C	1.059650	-0.293636	-0.000040
C31	C	0.983092	-0.329887	-0.000035
C32	C	0.908188	-0.272102	-0.000033
C33	C	0.831630	-0.308351	-0.000034
C34	C	0.829984	-0.402385	-0.000031
C35	C	1.061296	-0.199601	-0.000044
C36	C	0.909837	-0.178062	-0.000036
C37	C	1.134264	0.116467	-0.000036
C38	C	1.226562	0.118219	-0.000045
C39	C	0.976389	0.287921	-0.000026
C40	C	0.978144	0.388002	-0.000024
N41	N	0.982261	0.123090	0.216966
N42	N	0.982281	0.123089	-0.217024
C43	C	1.038731	0.061804	0.451969
C44	C	1.038733	0.061802	0.547950
C45	C	0.925805	0.184378	0.547966
C46	C	0.925800	0.184375	0.451986
C47	C	0.982267	0.123089	0.403990
C48	C	0.982275	0.123090	0.595951
C49	C	0.982277	0.123088	0.700018
C50	C	0.982264	0.123090	0.299917
H51	H	0.403615	0.121594	-0.150838
H52	H	0.879816	0.234281	0.412920
Cl53	Cl	1.109718	-0.015247	0.608263
Cl54	Cl	1.157532	-0.154034	-0.000026
H55	H	0.879832	0.234276	0.587054
Cl56	Cl	0.733748	-0.447962	-0.000034
H57	H	1.115680	-0.622797	-0.000021
Cl58	Cl	0.580115	0.124952	0.187587
Cl59	Cl	1.227059	-0.518106	-0.000012
Cl60	Cl	1.109715	-0.015244	0.391635
H61	H	0.403594	0.121586	0.150765
Cl62	Cl	0.580166	0.124952	-0.187653
H63	H	0.848840	-0.131018	-0.000039
H64	H	0.770643	-0.261290	-0.000027
Cl65	Cl	0.807000	-0.599780	-0.000032
Cl66	Cl	1.230798	-0.305861	-0.000049
