data_functionalizedCrystal
_audit_creation_method	'MofGen! by Chris Wilmer'
_symmetry_space_group_name_H-M	'P1'
_symmetry_Int_Tables_number	1
_symmetry_cell_setting	triclinic
loop_
_symmetry_equiv_pos_as_xyz
  x,y,z
_cell_length_a	14.519709
_cell_length_b	12.784890
_cell_length_c	11.295483
_cell_angle_alpha	86.328828
_cell_angle_beta	85.891168
_cell_angle_gamma	101.606649
loop_
_atom_site_label
_atom_site_type_symbol
_atom_site_fract_x
_atom_site_fract_y
_atom_site_fract_z
O1	O	0.001013	1.417473	-0.098988
O2	O	-0.038478	1.108093	-0.098993
O3	O	0.116176	1.270987	-0.099001
O4	O	-0.153641	1.254580	-0.098980
O5	O	0.102612	1.256679	0.099050
O6	O	-0.052042	1.093786	0.099058
O7	O	-0.012552	1.403166	0.099063
Cu8	Cu	-0.033536	1.247169	0.117144
Cu9	Cu	-0.017494	1.264090	-0.117074
O10	O	-0.167206	1.240272	0.099071
C11	C	-0.047828	1.061345	0.000032
C12	C	-0.055471	0.943365	0.000029
C13	C	-0.151249	0.764571	0.000035
C14	C	-0.144074	0.875422	0.000034
C15	C	0.025965	0.900451	0.000020
C16	C	0.018790	0.789600	0.000021
C17	C	-0.069820	0.721663	0.000030
C18	C	-0.076994	0.610809	0.000039
C19	C	0.093045	0.635840	0.000017
C20	C	0.100220	0.746692	0.000016
C21	C	-0.194721	1.248190	0.000048
C22	C	-0.296916	1.250481	0.000057
C23	C	-0.671120	1.258919	0.000009
C24	C	-0.567004	1.256576	0.000023
C25	C	-0.484021	1.254700	0.000034
C26	C	-0.379899	1.252356	0.000045
C27	C	0.143692	1.263069	0.000019
C28	C	0.245887	1.260779	0.000003
C29	C	-0.003201	1.449914	0.000036
C30	C	0.004442	1.567894	0.000031
N31	N	-0.044817	1.235277	0.281881
N32	N	-0.006205	1.275991	-0.281811
C33	C	0.075058	1.361603	0.531164
C34	C	0.066526	1.352623	0.655829
C35	C	-0.070407	1.208332	0.655876
C36	C	-0.061875	1.217312	0.531212
C37	C	0.010858	1.293951	0.468860
C38	C	0.019385	1.302935	0.344194
C39	C	-0.117543	1.158640	0.344244
C40	C	-0.126075	1.149660	0.468908
H41	H	-0.149145	0.555495	0.000053
Br42	Br	0.203562	0.577602	0.000028
Br43	Br	0.118090	1.406949	0.259575
Br44	Br	-0.224778	1.045650	0.553535
Br45	Br	0.220470	0.838900	0.000002
H46	H	-0.169821	1.103557	0.293502
H47	H	-0.223400	0.709254	0.000056
H48	H	0.134275	1.424012	0.480397
Br49	Br	-0.169101	1.104313	0.740507
Br50	Br	0.146212	0.992668	0.000001
Br51	Br	-0.254589	0.933652	0.000032
Br52	Br	0.153662	1.444435	0.740382
