data_functionalizedCrystal
_audit_creation_method	'MofGen! by Chris Wilmer'
_symmetry_space_group_name_H-M	'P1'
_symmetry_Int_Tables_number	1
_symmetry_cell_setting	triclinic
loop_
_symmetry_equiv_pos_as_xyz
  x,y,z
_cell_length_a	16.992694
_cell_length_b	10.723024
_cell_length_c	15.455313
_cell_angle_alpha	92.691723
_cell_angle_beta	87.142206
_cell_angle_gamma	87.568046
loop_
_atom_site_label
_atom_site_type_symbol
_atom_site_fract_x
_atom_site_fract_y
_atom_site_fract_z
O1	O	1.045219	0.259622	-0.072018
O2	O	0.816920	0.256716	-0.072044
O3	O	0.936335	0.077046	-0.072027
O4	O	0.925803	0.439291	-0.072035
O5	O	0.929506	0.087275	0.072234
O6	O	0.810091	0.266945	0.072217
O7	O	1.038390	0.269851	0.072243
Cu8	Cu	0.923617	0.269332	0.085402
Cu9	Cu	0.931693	0.257235	-0.085203
O10	O	0.918974	0.449520	0.072226
C11	C	0.784273	0.258094	0.000083
C12	C	0.697169	0.246945	0.000074
C13	C	0.932154	0.035595	0.000102
C14	C	0.929861	-0.103157	0.000099
C15	C	0.647507	0.354505	0.000072
C16	C	0.565663	0.344024	0.000084
C17	C	0.533484	0.225982	0.000092
C18	C	0.583152	0.118414	0.000096
C19	C	0.664993	0.128896	0.000090
C20	C	0.289651	0.182535	0.000116
C21	C	0.207803	0.172061	0.000119
C22	C	0.190320	0.397673	0.000109
C23	C	0.272165	0.408144	0.000098
C24	C	0.321825	0.300577	0.000107
N25	N	0.449827	0.215266	0.000102
N26	N	0.405480	0.311295	0.000103
C27	C	0.996680	-0.172386	0.000105
C28	C	0.994312	-0.315793	0.000102
C29	C	1.071037	0.268473	0.000114
C30	C	1.158141	0.279621	0.000118
C31	C	0.923155	0.490971	0.000095
C32	C	0.925449	0.629723	0.000093
N33	N	0.917942	0.277840	0.205397
N34	N	0.937374	0.248717	-0.205198
C35	C	0.968692	0.201542	0.250798
C36	C	0.964408	0.207989	0.341605
C37	C	0.909377	0.290741	0.387010
C38	C	0.858622	0.367042	0.341602
C39	C	0.862903	0.360588	0.250797
C40	C	0.890899	0.318564	0.658589
C41	C	0.886624	0.325015	0.749401
C42	C	0.992409	0.165960	0.749398
C43	C	0.996689	0.159518	0.658590
C44	C	0.945931	0.235815	0.613191
N45	N	0.904999	0.297335	0.479830
N46	N	0.950306	0.229213	0.520373
H47	H	0.525232	0.431612	0.000082
H48	H	1.055640	-0.125486	0.000117
H49	H	1.013507	0.134162	0.213836
O50	O	0.857124	-0.299487	0.000123
C51	C	0.792637	-0.378002	0.000089
H52	H	0.810661	-0.471307	0.027401
H53	H	0.773726	-0.394339	-0.069124
C54	C	0.701257	-0.201060	0.023109
C55	C	0.723392	-0.315655	0.056661
H56	H	0.658542	-0.162601	0.058001
H57	H	0.744702	-0.148162	0.023128
H58	H	0.685503	-0.214690	-0.034568
H59	H	0.739155	-0.302022	0.114333
H60	H	0.679948	-0.368550	0.056652
H61	H	1.005732	0.145860	0.378571
H62	H	0.149878	0.485248	0.000104
H63	H	0.870902	-0.150057	0.000087
H64	H	0.821576	0.422716	0.213832
O65	O	0.841530	0.392508	0.614452
C66	C	0.795260	0.317056	0.561919
H67	H	0.792107	0.220406	0.589293
H68	H	0.823024	0.308089	0.493098
C69	C	0.715343	0.496014	0.526904
C70	C	0.711465	0.377311	0.560529
H71	H	0.663655	0.533184	0.526043
H72	H	0.746518	0.546849	0.562294
H73	H	0.738483	0.488526	0.469556
H74	H	0.688335	0.384802	0.617880
H75	H	0.680285	0.326478	0.525149
H76	H	0.330075	0.094946	0.000124
H77	H	0.298359	0.504266	0.000082
O78	O	0.551767	0.003839	0.000066
C79	C	0.468881	0.017650	0.000091
H80	H	0.451477	0.111225	-0.027224
H81	H	0.442803	0.014238	0.069301
C82	C	0.458452	-0.203993	-0.022929
C83	C	0.437077	-0.089066	-0.056485
H84	H	0.438833	-0.269822	-0.057823
H85	H	0.514294	-0.213298	-0.022942
H86	H	0.436719	-0.206818	0.034746
H87	H	0.458819	-0.086236	-0.114154
H88	H	0.381238	-0.079762	-0.056482
O89	O	0.176638	0.057313	0.000013
C90	C	0.205466	-0.014048	-0.074708
H91	H	0.263583	0.023856	-0.099618
H92	H	0.160665	-0.008013	-0.127027
C93	C	0.147586	-0.197909	-0.021409
C94	C	0.218971	-0.151360	-0.052000
H95	H	0.155914	-0.282610	-0.007404
H96	H	0.128162	-0.149831	0.028931
H97	H	0.110260	-0.192868	-0.065013
H98	H	0.256292	-0.156386	-0.008392
H99	H	0.238402	-0.199442	-0.102332
H100	H	0.705428	0.041309	0.000091
O101	O	1.050166	0.079020	0.614622
C102	C	1.094055	0.013079	0.674167
H103	H	1.058834	0.013030	0.738902
H104	H	1.152093	0.060171	0.683812
C105	C	1.154435	-0.122435	0.559229
C106	C	1.111172	-0.122505	0.638735
H107	H	1.164997	-0.206068	0.537372
H108	H	1.124868	-0.078007	0.519111
H109	H	1.202795	-0.083186	0.567277
H110	H	1.062810	-0.161739	0.630684
H111	H	1.140731	-0.166943	0.678851
H112	H	1.051514	-0.375300	0.000111
O113	O	0.805199	0.447592	0.385608
C114	C	0.819666	0.570893	0.363418
H115	H	0.853015	0.569097	0.297484
H116	H	0.856509	0.617071	0.414516
C117	C	0.699693	0.647834	0.440201
C118	C	0.740647	0.645628	0.359217
H119	H	0.650951	0.693938	0.437613
H120	H	0.689947	0.564765	0.455154
H121	H	0.730404	0.686313	0.482774
H122	H	0.709940	0.607136	0.316647
H123	H	0.750386	0.728693	0.344257
H124	H	0.673701	0.450628	0.000065
O125	O	0.833086	0.405421	0.793374
C126	C	0.789212	0.471396	0.733832
H127	H	0.791108	0.415525	0.669106
H128	H	0.815622	0.566032	0.724166
C129	C	0.700721	0.559719	0.848785
C130	C	0.703045	0.491092	0.769288
H131	H	0.647570	0.571874	0.870656
H132	H	0.730281	0.515275	0.888900
H133	H	0.722734	0.638574	0.840718
H134	H	0.681042	0.412233	0.777357
H135	H	0.673479	0.535524	0.729175
H136	H	1.033733	0.103841	0.786370
