data_functionalizedCrystal
_audit_creation_method	'MofGen! by Chris Wilmer'
_symmetry_space_group_name_H-M	'P1'
_symmetry_Int_Tables_number	1
_symmetry_cell_setting	triclinic
loop_
_symmetry_equiv_pos_as_xyz
  x,y,z
_cell_length_a	11.169417
_cell_length_b	16.625546
_cell_length_c	11.169409
_cell_angle_alpha	89.961577
_cell_angle_beta	89.980487
_cell_angle_gamma	90.023717
loop_
_atom_site_label
_atom_site_type_symbol
_atom_site_fract_x
_atom_site_fract_y
_atom_site_fract_z
Zn1	Zn	1.834861	-0.320909	-0.678482
Zn2	Zn	1.834708	-0.455771	-0.477778
Zn3	Zn	1.634147	-0.320959	-0.477817
Zn4	Zn	1.634112	-0.455707	-0.678424
O5	O	1.734457	-0.388337	-0.578125
O6	O	2.002791	-0.338805	-0.651866
O7	O	1.808054	-0.437936	-0.309833
O8	O	1.660851	-0.208120	-0.504477
O9	O	2.002678	-0.437888	-0.504409
O10	O	1.808315	-0.208084	-0.651905
O11	O	1.660702	-0.338891	-0.309862
O12	O	1.466193	-0.338828	-0.504421
O13	O	1.660791	-0.437778	-0.846381
O14	O	1.466167	-0.437826	-0.651805
O15	O	1.808281	-0.338743	-0.846424
O16	O	1.808020	-0.568595	-0.504353
O17	O	1.660643	-0.568548	-0.651766
C18	C	1.422632	-0.388326	-0.578111
C19	C	1.289232	-0.388341	-0.578134
C20	C	1.734344	-0.597828	-0.578075
C21	C	1.734405	-0.687449	-0.578094
C22	C	1.734614	-1.015624	-0.578219
C23	C	1.734552	-0.924316	-0.578187
C24	C	1.734508	-0.851539	-0.578155
C25	C	1.734448	-0.760225	-0.578125
C26	C	2.047499	-0.388348	-0.578140
C27	C	2.180899	-0.388353	-0.578146
C28	C	1.734549	-0.388247	-0.891168
C29	C	1.734589	-0.388209	-1.024568
C30	C	1.734604	-0.178028	-0.578202
C31	C	1.734666	-0.088407	-0.578235
C32	C	1.734434	-0.388368	-0.266300
C33	C	1.734628	-0.388179	-0.132901
