data_functionalizedCrystal
_audit_creation_method	'MofGen! by Chris Wilmer'
_symmetry_space_group_name_H-M	'P1'
_symmetry_Int_Tables_number	1
_symmetry_cell_setting	triclinic
loop_
_symmetry_equiv_pos_as_xyz
  x,y,z
_cell_length_a	14.971486
_cell_length_b	10.654550
_cell_length_c	14.048226
_cell_angle_alpha	89.994756
_cell_angle_beta	89.998499
_cell_angle_gamma	84.049516
loop_
_atom_site_label
_atom_site_type_symbol
_atom_site_fract_x
_atom_site_fract_y
_atom_site_fract_z
O1	O	1.187838	0.163659	-0.079049
O2	O	0.927544	0.183257	-0.079074
O3	O	1.063675	-0.009345	-0.079057
O4	O	1.051706	0.356262	-0.079066
O5	O	1.063659	-0.009357	0.079264
O6	O	0.927527	0.183246	0.079247
O7	O	1.187821	0.163648	0.079273
Zn8	Zn	1.057672	0.173445	0.104397
Zn9	Zn	1.057693	0.173460	-0.104198
O10	O	1.051690	0.356250	0.079256
C11	C	0.894206	0.182375	0.000083
C12	C	0.794895	0.179749	0.000073
C13	C	0.738285	0.292898	0.000072
C14	C	0.644972	0.290422	0.000086
C15	C	0.608271	0.174797	0.000095
C16	C	0.664888	0.061639	0.000099
C17	C	0.758199	0.064116	0.000092
C18	C	0.470397	0.056485	0.000112
C19	C	0.377080	0.054007	0.000118
C20	C	0.357171	0.282791	0.000107
C21	C	0.450482	0.285268	0.000100
C22	C	0.507092	0.172110	0.000102
C23	C	1.062788	-0.056139	0.000102
C24	C	1.060159	-0.195555	0.000099
C25	C	1.140311	-0.275900	0.000109
C26	C	1.137835	-0.406894	0.000102
C27	C	0.975048	-0.377185	0.000078
C28	C	0.977525	-0.246193	0.000078
C29	C	1.222945	-0.225262	0.000130
C30	C	1.303104	-0.305609	0.000142
C31	C	1.300628	-0.436603	0.000135
C32	C	1.217993	-0.487250	0.000116
C33	C	1.221159	0.164530	0.000113
C34	C	1.320470	0.167156	0.000117
C35	C	1.052577	0.403044	0.000094
C36	C	1.055206	0.542460	0.000092
N37	N	1.057663	0.173434	0.246758
N38	N	1.057709	0.173461	-0.246559
C39	C	1.117962	0.088185	0.296583
C40	C	1.117968	0.088184	0.396241
C41	C	1.057679	0.173440	0.446071
C42	C	0.997374	0.258693	0.396238
C43	C	0.997365	0.258687	0.296583
C44	C	0.997400	0.258702	0.603953
C45	C	0.997411	0.258710	0.703615
C46	C	1.118003	0.088200	0.703611
C47	C	1.117993	0.088193	0.603955
C48	C	1.057690	0.173448	0.554129
H49	H	0.347201	-0.040145	0.000126
C50	C	1.183459	-0.004522	0.242658
C51	C	1.236249	-0.079202	0.307629
C52	C	1.296586	-0.164634	0.257992
H53	H	1.221052	0.040590	0.203768
H54	H	1.150980	-0.056947	0.203814
H55	H	1.268726	-0.026784	0.346457
H56	H	1.198681	-0.124341	0.346521
H57	H	1.264107	-0.217059	0.219147
H58	H	1.334173	-0.119512	0.219103
H59	H	1.332406	-0.215322	0.302066
H60	H	0.480361	0.379420	0.000084
H61	H	0.311074	0.374929	0.000109
H62	H	1.370382	-0.264362	0.000133
C63	C	1.183298	-0.004515	0.450381
C64	C	1.135196	-0.081539	0.507588
C65	C	1.195351	-0.166964	0.557463
H66	H	1.220834	0.040603	0.489326
H67	H	1.219190	-0.055354	0.406457
H68	H	1.099319	-0.030707	0.551508
H69	H	1.097663	-0.126685	0.468668
H70	H	1.231243	-0.217803	0.513538
H71	H	1.232884	-0.121835	0.596402
H72	H	1.162723	-0.219242	0.596277
H73	H	1.224970	-0.118601	0.000138
C74	C	0.931891	0.351409	0.550026
C75	C	0.879113	0.426101	0.614993
C76	C	0.818771	0.511530	0.565350
H77	H	0.894291	0.306295	0.511155
H78	H	0.964366	0.403826	0.511162
H79	H	0.846640	0.373690	0.653840
H80	H	0.916689	0.471242	0.653866
H81	H	0.851246	0.563947	0.526486
H82	H	0.781177	0.466405	0.526481
H83	H	0.782960	0.562226	0.609422
H84	H	0.948316	0.328133	0.744182
H85	H	0.912258	-0.180773	0.000071
H86	H	1.167089	0.018778	0.563383
H87	H	0.768160	0.387053	0.000064
H88	H	0.948281	0.328105	0.436816
C89	C	0.885246	-0.431927	0.000017
C90	C	0.815580	-0.333525	-0.000017
C91	C	0.732842	-0.383903	-0.000084
H92	H	0.880763	-0.482396	0.055212
H93	H	0.880856	-0.482369	-0.055216
H94	H	0.819968	-0.283104	0.055210
H95	H	0.820034	-0.283047	-0.055208
H96	H	0.728452	-0.434345	-0.055316
H97	H	0.728367	-0.434371	0.055112
H98	H	0.685563	-0.317145	-0.000116
H99	H	0.516488	-0.035661	0.000116
C100	C	1.183331	-0.004516	0.757749
C101	C	1.135225	-0.081535	0.814955
C102	C	1.195376	-0.166963	0.864833
H103	H	1.220867	0.040600	0.796695
H104	H	1.219224	-0.055357	0.713826
H105	H	1.099348	-0.030701	0.858872
H106	H	1.097692	-0.126680	0.776033
H107	H	1.231268	-0.217804	0.820910
H108	H	1.232909	-0.121835	0.903773
H109	H	1.162744	-0.219238	0.903646
C110	C	0.931860	0.351388	0.242654
C111	C	0.879080	0.426077	0.307621
C112	C	0.818732	0.511497	0.257979
H113	H	0.894262	0.306268	0.203786
H114	H	0.964331	0.403808	0.203788
H115	H	0.846612	0.373664	0.346471
H116	H	0.916654	0.471225	0.346491
H117	H	0.851203	0.563918	0.219112
H118	H	0.781140	0.466367	0.219112
H119	H	0.782919	0.562192	0.302050
H120	H	0.598884	0.382560	0.000084
H121	H	0.634998	-0.032505	0.000120
H122	H	0.804290	-0.028022	0.000092
H123	H	1.365897	-0.502018	0.000135
H124	H	1.215983	-0.593916	0.000100
