data_functionalizedCrystal
_audit_creation_method	'MofGen! by Chris Wilmer'
_symmetry_space_group_name_H-M	'P1'
_symmetry_Int_Tables_number	1
_symmetry_cell_setting	triclinic
loop_
_symmetry_equiv_pos_as_xyz
  x,y,z
_cell_length_a	6.817900
_cell_length_b	11.102288
_cell_length_c	16.015572
_cell_angle_alpha	76.744148
_cell_angle_beta	104.485554
_cell_angle_gamma	108.605689
loop_
_atom_site_label
_atom_site_type_symbol
_atom_site_fract_x
_atom_site_fract_y
_atom_site_fract_z
V1	V	-3.999220	-0.051261	-0.269393
O2	O	-3.960391	0.130656	-0.264265
O3	O	-3.976766	-0.224933	-0.267551
O4	O	-3.927019	0.005776	-0.386885
O5	O	-4.010482	-0.101651	-0.144105
V6	V	-4.482571	-0.036148	-0.254407
O7	O	-4.260858	-0.084413	-0.302265
O8	O	-4.671130	-0.002996	-0.221536
O9	O	-4.281819	0.137524	-0.256250
O10	O	-4.638797	-0.218065	-0.259536
O11	O	-4.588706	0.014242	-0.379696
O12	O	-4.331565	-0.093185	-0.136916
C13	C	-3.828848	-0.269029	-0.263301
C14	C	-3.891617	-0.410646	-0.262578
C15	C	-3.765391	0.025266	-0.415522
C16	C	-3.787814	0.070751	-0.511572
C17	C	-4.103316	-0.481658	-0.266549
C18	C	-4.162285	-0.614720	-0.265876
C19	C	-3.797832	-0.605747	-0.257258
C20	C	-3.738869	-0.472686	-0.257937
C21	C	-4.136761	-0.332975	-0.889205
C22	C	-4.157829	-0.290194	-0.979454
C23	C	-4.047775	-0.068856	-0.954747
C24	C	-4.026687	-0.111619	-0.864494
C25	C	-4.071187	-0.243680	-0.831730
C26	C	-3.961113	-0.022324	-0.807019
C27	C	-3.940038	-0.065084	-0.716774
C28	C	-3.984537	-0.197140	-0.684003
C29	C	-4.050112	-0.286440	-0.741485
C30	C	-3.916629	0.109736	-0.839785
C31	C	-3.851054	0.199031	-0.782310
C32	C	-3.829964	0.156272	-0.692063
C33	C	-3.874463	0.024216	-0.659292
C34	C	-3.764390	0.245572	-0.634581
C35	C	-3.743314	0.202812	-0.544335
C36	C	-3.853388	-0.018544	-0.569047
C37	C	-4.093080	0.181612	-0.260497
C38	C	-4.009548	0.323230	-0.261226
C39	C	-4.156537	-0.112681	-0.108274
C40	C	-4.113352	-0.158160	-0.012223
H41	H	-4.227697	-0.431149	-0.270326
O42	O	-3.533232	-0.403589	-0.253962
C43	C	-3.229282	-0.265740	-0.174495
C44	C	-3.462163	-0.343914	-0.178897
H45	H	-3.171738	-0.217495	-0.113800
H46	H	-3.213356	-0.188984	-0.235303
H47	H	-3.130296	-0.332955	-0.171096
H48	H	-3.561292	-0.276801	-0.182267
H49	H	-3.477923	-0.420685	-0.118090
H50	H	-4.334667	-0.672532	-0.269111
H51	H	-3.673477	-0.656277	-0.253477
H52	H	-3.728184	0.353096	-0.661271
H53	H	-4.172970	-0.440512	-0.862527
H54	H	-3.889597	-0.126080	-0.542369
H55	H	-3.967380	-0.231953	-0.610519
O56	O	-4.092916	-0.414760	-0.709785
C57	C	-4.202806	-0.629771	-0.743771
C58	C	-4.154832	-0.484508	-0.779800
H59	H	-4.252832	-0.686203	-0.800359
H60	H	-4.335511	-0.659096	-0.705441
H61	H	-4.055425	-0.651548	-0.698825
H62	H	-4.302088	-0.462624	-0.824781
H63	H	-4.022046	-0.455258	-0.818079
O64	O	-4.221242	-0.376817	-1.035364
C65	C	-4.135729	-0.452975	-1.147378
C66	C	-4.063671	-0.354783	-1.084120
H67	H	-4.008353	-0.435212	-1.186801
H68	H	-4.288141	-0.441788	-1.193677
H69	H	-4.163994	-0.554691	-1.108435
H70	H	-4.035287	-0.253026	-1.122991
H71	H	-3.911322	-0.366083	-1.037820
O72	O	-4.004545	0.059379	-0.986721
C73	C	-3.988345	0.223355	-1.114800
C74	C	-4.037336	0.078093	-1.078709
H75	H	-4.014880	0.238530	-1.189176
H76	H	-3.817168	0.272876	-1.087654
H77	H	-4.096872	0.266198	-1.094280
H78	H	-3.928947	0.035136	-1.099215
H79	H	-4.208561	0.028663	-1.105851
H80	H	-3.933761	0.144548	-0.913268
H81	H	-3.814836	0.306556	-0.808999
H82	H	-3.689918	0.275525	-0.497538
