data_functionalizedCrystal
_audit_creation_method	'MofGen! by Chris Wilmer'
_symmetry_space_group_name_H-M	'P1'
_symmetry_Int_Tables_number	1
_symmetry_cell_setting	triclinic
loop_
_symmetry_equiv_pos_as_xyz
  x,y,z
_cell_length_a	27.732025
_cell_length_b	17.038272
_cell_length_c	16.098524
_cell_angle_alpha	87.129416
_cell_angle_beta	93.070433
_cell_angle_gamma	93.127488
loop_
_atom_site_label
_atom_site_type_symbol
_atom_site_fract_x
_atom_site_fract_y
_atom_site_fract_z
O1	O	0.106965	-1.039219	0.069106
O2	O	0.105300	-0.811609	0.069131
O3	O	0.036059	-0.932494	0.069143
O4	O	0.176205	-0.918335	0.069094
O5	O	0.031943	-0.926292	-0.069368
O6	O	0.101184	-0.805407	-0.069380
O7	O	0.102849	-1.033017	-0.069406
Zn8	Zn	0.101363	-0.918228	-0.091385
Zn9	Zn	0.106786	-0.926399	0.091110
O10	O	0.172089	-0.912133	-0.069417
C11	C	0.101727	-0.779398	-0.000121
C12	C	0.097206	-0.692659	-0.000110
C13	C	0.015981	-0.929099	-0.000104
C14	C	-0.037714	-0.928213	-0.000080
C15	C	0.106422	-1.065228	-0.000152
C16	C	0.110942	-1.151968	-0.000158
C17	C	-0.418926	-0.925292	0.075375
C18	C	-0.217114	-0.928611	0.075402
O19	O	-0.189117	-0.931947	0.139615
N20	N	-0.194117	-0.925646	-0.000099
C21	C	-0.221577	-0.921855	-0.075611
O22	O	-0.197386	-0.919417	-0.139828
C23	C	-0.423388	-0.918541	-0.075637
C24	C	-0.446382	-0.921499	-0.000131
C25	C	-0.441920	-0.928251	0.150874
C26	C	-0.492370	-0.927417	0.150867
C27	C	-0.519826	-0.923624	0.075360
C28	C	-0.496832	-0.920665	-0.000139
C29	C	-0.450847	-0.914756	-0.151148
C30	C	-0.501303	-0.913930	-0.151148
C31	C	-0.524297	-0.916888	-0.075642
C32	C	-0.574737	-0.916038	-0.075653
N33	N	-0.597734	-0.919004	-0.000152
C34	C	-0.570278	-0.922797	0.075354
C35	C	-0.115623	-0.923593	-0.075592
C36	C	-0.065170	-0.924420	-0.075586
C37	C	-0.060711	-0.931178	0.075427
C38	C	-0.111164	-0.930346	0.075420
C39	C	-0.138620	-0.926559	-0.000092
C40	C	-0.676227	-0.921044	0.075333
C41	C	-0.726681	-0.920206	0.075319
C42	C	-0.731136	-0.913453	-0.075693
C43	C	-0.680686	-0.914286	-0.075680
C44	C	-0.653232	-0.918085	-0.000160
O45	O	-0.602764	-0.912713	-0.139833
O46	O	-0.594479	-0.925252	0.139562
C47	C	-0.368476	-0.926126	0.075382
C48	C	-0.345482	-0.923167	-0.000117
C49	C	-0.372938	-0.919375	-0.075623
C50	C	-0.295030	-0.923994	-0.000110
C51	C	-0.267574	-0.927787	0.075396
C52	C	-0.290571	-0.930753	0.150896
C53	C	-0.341020	-0.929919	0.150889
C54	C	-0.349941	-0.916409	-0.151123
C55	C	-0.299491	-0.917242	-0.151110
C56	C	-0.272035	-0.921035	-0.075603
C57	C	0.192168	-0.915528	-0.000168
C58	C	0.245863	-0.916414	-0.000188
N59	N	0.097662	-0.912657	-0.215932
C60	C	0.138709	-0.642055	-0.000125
C61	C	0.134458	-0.560554	-0.000135
C62	C	0.088705	-0.529659	-0.000124
C63	C	0.047199	-0.580269	-0.000111
C64	C	0.051450	-0.661768	-0.000107
C65	C	0.073687	-0.284077	-0.000141
C66	C	0.069440	-0.202572	-0.000142
C67	C	0.156699	-0.182862	-0.000168
C68	C	0.160946	-0.264364	-0.000159
C69	C	0.119440	-0.314967	-0.000150
C70	C	0.084359	-0.446352	-0.000131
C71	C	0.123786	-0.398272	-0.000149
C72	C	0.127636	-0.957742	-0.259530
C73	C	0.125044	-0.953855	-0.346717
C74	C	0.092481	-0.904879	-0.390306
C75	C	0.062504	-0.859792	-0.346703
C76	C	0.065093	-0.863683	-0.259517
C77	C	0.083095	-0.890781	-0.653553
C78	C	0.080509	-0.886891	-0.740745
C79	C	0.143049	-0.980956	-0.740753
C80	C	0.145638	-0.984839	-0.653565
C81	C	0.115659	-0.939755	-0.609970
C82	C	0.089832	-0.900903	-0.479427
C83	C	0.118306	-0.943736	-0.520851
N84	N	0.110483	-0.931976	0.215658
H85	H	-0.745400	-0.922612	0.136807
H86	H	0.032180	-0.177421	-0.000132
Cl87	Cl	-0.535815	-0.909172	-0.246083
H88	H	0.040685	-0.826970	-0.224021
H89	H	0.017654	-0.702970	-0.000094
Cl90	Cl	0.168575	-1.019314	-0.204740
H91	H	-0.511087	-0.929831	0.212351
H92	H	0.172153	-1.024723	-0.618081
H93	H	0.175966	-0.667202	-0.000133
Cl94	Cl	-0.256045	-0.935522	0.245818
Cl95	Cl	0.021508	-0.347682	-0.000130
Cl96	Cl	0.186636	-0.496940	-0.000149
Cl97	Cl	0.208874	-0.119243	-0.000182
H98	H	-0.753500	-0.910362	-0.137169
Cl99	Cl	-0.407413	-0.933019	0.245810
Cl100	Cl	0.039568	-0.825317	-0.795542
Cl101	Cl	-0.369919	-0.933640	0.245815
Cl102	Cl	-0.641721	-0.925818	0.170274
Cl103	Cl	0.162729	-1.010535	-0.401522
Cl104	Cl	0.021566	-0.798222	-0.401501
H105	H	-0.280774	-0.914826	-0.212600
H106	H	-0.129882	-0.932753	0.136903
Cl107	Cl	-0.384450	-0.911638	-0.246056
Cl108	Cl	-0.026185	-0.935935	0.170349
Cl109	Cl	-0.036270	-0.920683	-0.170511
Cl110	Cl	0.180733	-1.037630	-0.795564
Cl111	Cl	0.045425	-0.834072	-0.598758
H112	H	-0.432135	-0.912356	-0.212633
Cl113	Cl	0.159240	-1.005307	-0.466052
Cl114	Cl	-0.150131	-0.918827	-0.170532
Cl115	Cl	0.048900	-0.839328	-0.534231
Cl116	Cl	0.218467	-0.303197	-0.000167
H117	H	0.009945	-0.555108	-0.000114
Cl118	Cl	0.181303	-0.437112	-0.000165
Cl119	Cl	-0.651779	-0.910567	-0.170602
H120	H	0.047106	-0.421188	-0.000146
