data_functionalizedCrystal
_audit_creation_method	'MofGen! by Chris Wilmer'
_symmetry_space_group_name_H-M	'P1'
_symmetry_Int_Tables_number	1
_symmetry_cell_setting	triclinic
loop_
_symmetry_equiv_pos_as_xyz
  x,y,z
_cell_length_a	10.654551
_cell_length_b	10.654543
_cell_length_c	9.730223
_cell_angle_alpha	89.998282
_cell_angle_beta	89.998119
_cell_angle_gamma	95.516199
loop_
_atom_site_label
_atom_site_type_symbol
_atom_site_fract_x
_atom_site_fract_y
_atom_site_fract_z
O1	O	0.176357	-1.667844	-0.114136
O2	O	0.193172	-1.302365	-0.114171
O3	O	0.002025	-1.493507	-0.114150
O4	O	0.367504	-1.476702	-0.114157
O5	O	0.002022	-1.493495	0.114430
O6	O	0.193169	-1.302353	0.114409
O7	O	0.176354	-1.667833	0.114444
Zn8	Zn	0.184761	-1.485091	0.150718
Zn9	Zn	0.184765	-1.485106	-0.150446
O10	O	0.367501	-1.476691	0.114423
C11	C	0.191938	-1.255561	0.000115
C12	C	0.188249	-1.116117	0.000101
C13	C	0.300792	-1.036632	0.000101
C14	C	0.297319	-0.905611	0.000121
C15	C	0.068749	-0.933573	0.000137
C16	C	0.072224	-1.064592	0.000126
C17	C	-0.044774	-1.492267	0.000138
C18	C	-0.184217	-1.488574	0.000131
C19	C	-0.249720	-1.486848	-0.124469
C20	C	-0.380740	-1.483367	-0.124471
C21	C	-0.380745	-1.483347	0.124740
C22	C	-0.249726	-1.486818	0.124740
C23	C	0.414300	-1.477931	0.000132
C24	C	0.553743	-1.481623	0.000130
N25	N	0.184758	-1.485090	0.356255
C26	C	0.177594	-0.714636	0.000148
C27	C	0.181301	-0.854077	0.000132
C28	C	0.100151	-1.569762	0.572082
C29	C	0.100152	-1.569755	0.428199
C30	C	0.269377	-1.400436	0.428201
C31	C	0.269382	-1.400450	0.572081
N32	N	0.184761	-1.485111	0.644018
H33	H	0.395268	-1.078579	0.000091
C34	C	0.074212	-1.740241	0.266127
C35	C	0.007039	-1.662601	0.349005
H36	H	0.016693	-1.797508	0.217207
H37	H	0.124694	-1.689811	0.202793
H38	H	0.126792	-1.786076	0.322180
H39	H	-0.045534	-1.616760	0.292950
H40	H	-0.043465	-1.713038	0.412345
C41	C	0.523596	-0.891141	0.000084
C42	C	0.421031	-0.818240	0.000111
H43	H	0.599972	-0.837199	0.000070
H44	H	0.520203	-0.942830	0.079784
H45	H	0.520180	-0.942819	-0.079638
H46	H	0.424442	-0.766568	0.079838
H47	H	0.424426	-0.766529	-0.079598
H48	H	-0.019428	-1.129312	0.000131
H49	H	-0.196391	-1.488217	0.226211
H50	H	-0.025715	-0.891604	0.000166
H51	H	-0.196386	-1.488274	-0.225934
H52	H	-0.434066	-1.481959	-0.225933
C53	C	-0.067118	-1.737125	0.557624
C54	C	0.007143	-1.662825	0.651157
H55	H	-0.124533	-1.794584	0.606441
H56	H	-0.112776	-1.684452	0.501514
H57	H	-0.014406	-1.782745	0.501498
H58	H	-0.045568	-1.617198	0.707277
H59	H	0.052805	-1.715505	0.707290
H60	H	-0.434098	-1.481919	0.226191
H61	H	0.338272	-1.331505	0.369615
H62	H	0.338287	-1.331517	0.630655
