data_functionalizedCrystal
_audit_creation_method	'MofGen! by Chris Wilmer'
_symmetry_space_group_name_H-M	'P1'
_symmetry_Int_Tables_number	1
_symmetry_cell_setting	triclinic
loop_
_symmetry_equiv_pos_as_xyz
  x,y,z
_cell_length_a	15.995300
_cell_length_b	15.995350
_cell_length_c	15.455425
_cell_angle_alpha	92.984706
_cell_angle_beta	93.001191
_cell_angle_gamma	83.482091
loop_
_atom_site_label
_atom_site_type_symbol
_atom_site_fract_x
_atom_site_fract_y
_atom_site_fract_z
O1	O	1.114285	0.110982	0.072157
O2	O	1.447619	0.444315	0.405491
O3	O	1.780952	0.777648	0.738824
O4	O	0.870504	0.124353	0.072152
O5	O	1.203837	0.457686	0.405485
O6	O	1.537171	0.791020	0.738818
O7	O	0.999058	-0.004222	0.072154
O8	O	1.332392	0.329112	0.405487
O9	O	1.665725	0.662445	0.738821
O10	O	0.985731	0.239556	0.072155
O11	O	1.319064	0.572889	0.405488
O12	O	1.652397	0.906223	0.738822
O13	O	0.992503	-0.010735	-0.072106
O14	O	1.325836	0.322599	0.261227
O15	O	1.659170	0.655932	0.594561
O16	O	0.863948	0.117840	-0.072108
O17	O	1.197282	0.451173	0.261225
O18	O	1.530615	0.784507	0.594558
O19	O	1.107730	0.104469	-0.072103
O20	O	1.441063	0.437802	0.261231
O21	O	1.774396	0.771135	0.594564
Cu22	Cu	0.985241	0.110560	-0.085278
Cu23	Cu	1.318574	0.443893	0.248056
Cu24	Cu	1.651907	0.777226	0.581389
Cu25	Cu	0.992993	0.118262	0.085327
Cu26	Cu	1.326327	0.451595	0.418660
Cu27	Cu	1.659660	0.784929	0.751993
O28	O	0.979175	0.233043	-0.072105
O29	O	1.312509	0.566377	0.261228
O30	O	1.645842	0.899710	0.594562
C31	C	0.836031	0.120551	0.000021
C32	C	1.169364	0.453884	0.333354
C33	C	1.502697	0.787218	0.666688
C34	C	0.743078	0.118916	0.000019
C35	C	1.076411	0.452249	0.333352
C36	C	1.409745	0.785583	0.666686
C37	C	0.572895	0.115897	0.000026
C38	C	0.906229	0.449230	0.333359
C39	C	1.239562	0.782563	0.666692
C40	C	0.525429	0.207445	0.000024
C41	C	0.858763	0.540778	0.333357
C42	C	1.192096	0.874111	0.666691
C43	C	0.428756	0.205789	0.000354
C44	C	0.762090	0.539123	0.333687
C45	C	1.095423	0.872456	0.667020
C46	C	0.405339	0.112925	0.000031
C47	C	0.738672	0.446259	0.333364
C48	C	1.072005	0.779592	0.666698
C49	C	0.450208	0.071217	0.082248
C50	C	0.783541	0.404550	0.415581
C51	C	1.116874	0.737884	0.748915
C52	C	0.546844	0.073537	0.082315
C53	C	0.880177	0.406870	0.415648
C54	C	1.213511	0.740203	0.748981
C55	C	0.539668	0.064774	-0.081742
C56	C	0.873001	0.398108	0.251592
C57	C	1.206335	0.731441	0.584925
C58	C	0.442675	0.064734	-0.082820
C59	C	0.776008	0.398067	0.250513
C60	C	1.109341	0.731401	0.583847
C61	C	0.310644	0.111241	0.000037
C62	C	0.643977	0.444574	0.333370
C63	C	0.977310	0.777908	0.666704
C64	C	0.667591	0.117578	0.000025
C65	C	1.000924	0.450912	0.333359
C66	C	1.334258	0.784245	0.666692
C67	C	0.995230	-0.038673	0.000025
C68	C	1.328563	0.294661	0.333359
C69	C	1.661896	0.627994	0.666692
C70	C	0.993578	-0.131623	0.000030
C71	C	1.326912	0.201711	0.333364
C72	C	1.660245	0.535044	0.666697
C73	C	0.987646	-0.469369	0.000027
C74	C	1.320979	-0.136036	0.333361
C75	C	1.654312	0.197298	0.666694
C76	C	0.896106	-0.421904	0.000349
C77	C	1.229440	-0.088571	0.333682
C78	C	1.562773	0.244763	0.667015
C79	C	0.897744	-0.325229	0.000024
C80	C	1.231077	0.008105	0.333357
C81	C	1.564410	0.341438	0.666690
C82	C	0.990588	-0.301809	0.000029
C83	C	1.323922	0.031524	0.333363
C84	C	1.657255	0.364858	0.666696
C85	C	1.032003	-0.346614	-0.082348
C86	C	1.365336	-0.013280	0.250986
C87	C	1.698669	0.320053	0.584319
C88	C	1.029700	-0.443252	-0.082417
C89	C	1.363033	-0.109919	0.250917
C90	C	1.696366	0.223414	0.584250
C91	C	1.039046	-0.436204	0.081634
C92	C	1.372379	-0.102871	0.414967
C93	C	1.705712	0.230463	0.748301
C94	C	1.039074	-0.339210	0.082723
C95	C	1.372407	-0.005876	0.416056
C96	C	1.705740	0.327457	0.749389
C97	C	0.992256	-0.207112	0.000028
C98	C	1.325590	0.126221	0.333361
C99	C	1.658923	0.459555	0.666694
C100	C	0.985980	-0.564067	0.000023
C101	C	1.319314	-0.230733	0.333357
C102	C	1.652647	0.102600	0.666690
C103	C	1.142203	0.108271	0.000030
C104	C	1.475536	0.441604	0.333363
C105	C	1.808870	0.774937	0.666697
C106	C	1.235156	0.109906	0.000038
C107	C	1.568489	0.443239	0.333371
C108	C	1.901823	0.776573	0.666704
C109	C	0.983004	0.267494	0.000025
C110	C	1.316337	0.600828	0.333359
C111	C	1.649671	0.934161	0.666692
C112	C	0.984656	0.360444	0.000026
C113	C	1.317989	0.693778	0.333360
C114	C	1.651323	1.027111	0.666693
N115	N	0.979794	0.105142	-0.205271
N116	N	1.313127	0.438475	0.128062
N117	N	1.646460	0.771808	0.461395
C118	C	0.949726	0.074934	-0.749270
C119	C	1.283060	0.408268	-0.415936
C120	C	1.616393	0.741601	-0.082603
C121	C	0.953840	0.079064	-0.658463
C122	C	1.287173	0.412397	-0.325130
C123	C	1.620507	0.745731	0.008204
C124	C	1.006670	0.131938	-0.613068
C125	C	1.340003	0.465271	-0.279735
C126	C	1.673337	0.798604	0.053598
C127	C	1.055396	0.180678	-0.658485
C128	C	1.388729	0.514012	-0.325151
C129	C	1.722062	0.847345	0.008182
C130	C	1.051286	0.176544	-0.749290
C131	C	1.384619	0.509877	-0.415956
C132	C	1.717953	0.843210	-0.082623
C133	C	1.024410	0.149748	-0.341493
C134	C	1.357743	0.483081	-0.008159
C135	C	1.691076	0.816414	0.325174
C136	C	1.028514	0.153881	-0.250681
C137	C	1.361847	0.487214	0.082652
C138	C	1.695181	0.820547	0.415985
C139	C	0.926959	0.052265	-0.250666
C140	C	1.260292	0.385598	0.082667
C141	C	1.593626	0.718931	0.416001
C142	C	0.922850	0.048138	-0.341473
C143	C	1.256184	0.381472	-0.008139
C144	C	1.589517	0.714805	0.325194
C145	C	0.971579	0.096876	-0.386881
C146	C	1.304913	0.430209	-0.053548
C147	C	1.638246	0.763542	0.279786
N148	N	1.010874	0.136162	-0.520249
N149	N	1.344207	0.469495	-0.186916
N150	N	1.677541	0.802829	0.146417
N151	N	0.967379	0.092646	-0.479698
N152	N	1.300712	0.425980	-0.146365
N153	N	1.634046	0.759313	0.186968
N154	N	0.998447	0.123673	0.205320
N155	N	1.331780	0.457007	0.538654
N156	N	1.665113	0.790340	0.871987
H157	H	0.541242	0.241574	-0.058925
H158	H	0.874575	0.574907	0.274409
H159	H	1.207908	0.908240	0.607742
Br160	Br	0.860832	-0.013877	-0.189036
Br161	Br	1.194166	0.319457	0.144297
Br162	Br	1.527499	0.652790	0.477631
H163	H	1.100074	-0.332638	-0.085407
H164	H	1.433407	0.000695	0.247926
H165	H	1.766741	0.334028	0.581260
H166	H	0.906702	0.031884	-0.786223
H167	H	1.240035	0.365217	-0.452890
H168	H	1.573369	0.698550	-0.119557
H169	H	1.011950	-0.453920	0.144071
H170	H	1.345283	-0.120586	0.477404
H171	H	1.678616	0.212747	0.810738
H172	H	0.914169	0.039373	-0.621494
H173	H	1.247503	0.372707	-0.288161
H174	H	1.580836	0.706040	0.045173
H175	H	0.862197	-0.437762	0.059423
H176	H	1.195531	-0.104429	0.392756
H177	H	1.528864	0.228905	0.726089
Br178	Br	1.090537	0.215897	-0.403107
Br179	Br	1.423871	0.549230	-0.069774
Br180	Br	1.757204	0.882563	0.263559
H181	H	0.567967	0.109056	0.144006
H182	H	0.901300	0.442389	0.477339
H183	H	1.234633	0.775723	0.810673
Br184	Br	1.100241	0.225618	-0.189074
Br185	Br	1.433574	0.558951	0.144259
Br186	Br	1.766907	0.892285	0.477593
Br187	Br	0.376847	0.260847	-0.097850
Br188	Br	0.710181	0.594181	0.235483
Br189	Br	1.043514	0.927514	0.568816
Br190	Br	1.141446	-0.497308	-0.088651
Br191	Br	1.474779	-0.163974	0.244683
Br192	Br	1.808112	0.169359	0.578016
H193	H	0.579277	0.006471	0.085827
H194	H	0.912610	0.339804	0.419161
H195	H	1.245943	0.673137	0.752494
H196	H	0.557336	0.092100	-0.144077
H197	H	0.890669	0.425434	0.189256
H198	H	1.224002	0.758767	0.522589
H199	H	0.879832	0.005082	-0.378427
H200	H	1.213165	0.338415	-0.045094
H201	H	1.546499	0.671749	0.288240
Br202	Br	0.975087	-0.303918	-0.184532
Br203	Br	1.308420	0.029416	0.148801
Br204	Br	1.641753	0.362749	0.482135
Br205	Br	0.989123	-0.288658	0.184312
Br206	Br	1.322456	0.044675	0.517645
Br207	Br	1.655789	0.378009	0.850979
Br208	Br	0.830773	-0.459356	-0.097266
Br209	Br	1.164106	-0.126023	0.236067
Br210	Br	1.497440	0.207310	0.569400
Br211	Br	0.426926	-0.042282	0.086964
Br212	Br	0.760259	0.291051	0.420298
Br213	Br	1.093593	0.624384	0.753631
Br214	Br	1.152299	-0.313246	0.091029
Br215	Br	1.485633	0.020087	0.424363
Br216	Br	1.818966	0.353421	0.757696
H217	H	0.424613	0.105129	0.143664
H218	H	0.757947	0.438462	0.476998
H219	H	1.091280	0.771795	0.810331
H220	H	1.098415	0.223725	-0.621517
H221	H	1.431748	0.557058	-0.288184
H222	H	1.765082	0.890392	0.045150
Br223	Br	1.117415	0.242685	-0.810919
Br224	Br	1.450749	0.576018	-0.477586
Br225	Br	1.784082	0.909352	-0.144252
Br226	Br	0.392502	0.115436	-0.184203
Br227	Br	0.725835	0.448770	0.149130
Br228	Br	1.059168	0.782103	0.482463
H229	H	0.403602	0.244001	0.059634
H230	H	0.736936	0.577334	0.392967
H231	H	1.070269	0.910668	0.726301
Br232	Br	0.562566	0.272286	0.098144
Br233	Br	0.895899	0.605619	0.431477
Br234	Br	1.229232	0.938953	0.764810
H235	H	0.427100	-0.003195	-0.088028
H236	H	0.760433	0.330138	0.245305
H237	H	1.093767	0.663472	0.578639
Br238	Br	1.151596	-0.489118	0.082566
Br239	Br	1.484929	-0.155785	0.415899
Br240	Br	1.818262	0.177549	0.749233
H241	H	0.571413	-0.002758	-0.082533
H242	H	0.904746	0.330575	0.250801
H243	H	1.238080	0.663908	0.584134
H244	H	0.864930	-0.294134	0.059074
H245	H	1.198263	0.039199	0.392408
H246	H	1.531597	0.372532	0.725741
Br247	Br	0.970149	-0.478384	-0.185055
Br248	Br	1.303482	-0.145051	0.148278
Br249	Br	1.636816	0.188282	0.481612
Br250	Br	0.833696	-0.283217	-0.098566
Br251	Br	1.167030	0.050116	0.234767
Br252	Br	1.500363	0.383449	0.568100
