data_functionalizedCrystal
_audit_creation_method	'MofGen! by Chris Wilmer'
_symmetry_space_group_name_H-M	'P1'
_symmetry_Int_Tables_number	1
_symmetry_cell_setting	triclinic
loop_
_symmetry_equiv_pos_as_xyz
  x,y,z
_cell_length_a	11.792241
_cell_length_b	10.540510
_cell_length_c	10.868271
_cell_angle_alpha	89.997346
_cell_angle_beta	89.999893
_cell_angle_gamma	84.353363
loop_
_atom_site_label
_atom_site_type_symbol
_atom_site_fract_x
_atom_site_fract_y
_atom_site_fract_z
O1	O	1.507345	0.173994	-0.102196
O2	O	2.007345	0.673994	0.397804
O3	O	1.177049	0.191926	-0.102223
O4	O	1.677049	0.691926	0.397777
O5	O	1.349750	-0.001773	-0.102208
O6	O	1.849750	0.498227	0.397792
O7	O	1.334644	0.367694	-0.102211
O8	O	1.834644	0.867694	0.397789
O9	O	1.349735	-0.001781	0.102436
O10	O	1.849735	0.498219	0.602436
O11	O	1.177034	0.191918	0.102421
O12	O	1.677034	0.691918	0.602421
O13	O	1.507330	0.173987	0.102449
O14	O	2.007330	0.673987	0.602449
Zn15	Zn	1.342180	0.182951	0.134927
Zn16	Zn	1.842180	0.682951	0.634927
Zn17	Zn	1.342199	0.182961	-0.134701
Zn18	Zn	1.842199	0.682961	0.365299
O19	O	1.334629	0.367686	0.102434
O20	O	1.834629	0.867686	0.602434
C21	C	1.134748	0.190796	0.000095
C22	C	1.634748	0.690796	0.500095
C23	C	1.008726	0.187424	0.000084
C24	C	1.508726	0.687424	0.500084
C25	C	1.348617	-0.049077	0.000111
C26	C	1.848617	0.450923	0.500111
C27	C	1.345249	-0.190016	0.000104
C28	C	1.845249	0.309984	0.500104
C29	C	0.777998	0.181225	0.000120
C30	C	1.277998	0.681225	0.500120
C31	C	0.906392	0.184670	0.000100
C32	C	1.406392	0.684670	0.500100
C33	C	1.465224	-0.407862	0.000582
C34	C	1.965224	0.092138	0.500582
C35	C	1.468816	-0.261278	0.000115
C36	C	1.968816	0.238722	0.500115
C37	C	1.282003	-0.234564	-0.116761
C38	C	1.782003	0.265436	0.383239
C39	C	1.279285	-0.381316	-0.116853
C40	C	1.779285	0.118684	0.383147
C41	C	1.276696	-0.381125	0.115866
C42	C	1.776696	0.118875	0.615866
C43	C	1.282557	-0.234803	0.117405
C44	C	1.782557	0.265197	0.617405
C45	C	1.549631	0.175117	0.000128
C46	C	2.049631	0.675117	0.500128
C47	C	1.675654	0.178488	0.000131
C48	C	2.175654	0.678488	0.500131
C49	C	1.335762	0.414990	0.000112
C50	C	1.835762	0.914990	0.500112
C51	C	1.339130	0.555929	0.000111
C52	C	1.839130	1.055929	0.500111
N53	N	1.342175	0.182944	0.318941
N54	N	1.842175	0.682944	0.818941
N55	N	1.342213	0.182959	-0.318715
N56	N	1.842213	0.682959	0.181285
C57	C	1.342193	0.182959	0.569947
C58	C	1.842193	0.682959	1.069947
C59	C	1.342180	0.182954	0.430270
C60	C	1.842180	0.682954	0.930270
H61	H	1.518303	-0.232099	0.083887
H62	H	2.018303	0.267901	0.583887
Cl63	Cl	1.336905	-0.446948	0.252624
Cl64	Cl	1.836905	0.053052	0.752624
Cl65	Cl	1.141557	-0.160938	-0.123495
Cl66	Cl	1.641557	0.339062	0.376505
Cl67	Cl	1.136600	-0.416361	-0.125064
Cl68	Cl	1.636600	0.083639	0.374936
Cl69	Cl	1.353597	-0.190853	0.250891
Cl70	Cl	1.853597	0.309147	0.750891
H71	H	1.325937	-0.203848	-0.203724
H72	H	1.825937	0.296152	0.296276
H73	H	1.192342	-0.185443	0.124454
H74	H	1.692342	0.314557	0.624454
H75	H	1.513359	-0.449977	0.084393
H76	H	2.013359	0.050023	0.584393
H77	H	1.513093	-0.451521	-0.082745
H78	H	2.013093	0.048479	0.417255
Cl79	Cl	1.545677	-0.217658	-0.129439
Cl80	Cl	2.045677	0.282342	0.370561
Cl81	Cl	1.346045	-0.443625	-0.251709
Cl82	Cl	1.846045	0.056375	0.248291
Cl83	Cl	1.133460	-0.414859	0.117074
Cl84	Cl	1.633460	0.085141	0.617074
